4ZEB_AGR_A_601


 47 49  0  0  0  0  0  0  0  0999 V2000
   32.5482   26.1207   32.9230 C   0  0  0  0  0  0  0  0  0  0  0  0
   33.7166   25.3466   32.3489 C   0  0  0  0  0  0  0  0  0  0  0  0
   34.9814   25.7998   32.7770 O   0  0  0  0  0  0  0  0  0  0  0  0
   31.4735   25.2303   32.7579 O   0  0  0  0  0  0  0  0  0  0  0  0
   31.9811   23.9297   32.6062 C   0  0  0  0  0  0  0  0  0  0  0  0
   33.4538   24.0307   32.7359 C   0  0  0  0  0  0  0  0  0  0  0  0
   35.0378   25.7356   33.7432 H   0  0  0  0  0  0  0  0  0  0  0  0
   32.3768   27.4256   32.1624 C   0  0  0  0  0  0  0  0  0  0  0  0
   33.1993   28.4936   32.5372 O   0  0  0  0  0  0  0  0  0  0  0  0
   32.9956   28.7540   33.4491 H   0  0  0  0  0  0  0  0  0  0  0  0
   31.4225   23.0284   33.6503 C   0  0  0  0  0  0  0  0  0  0  0  0
   32.0841   21.8002   33.7583 O   0  0  0  0  0  0  0  0  0  0  0  0
   33.0065   21.9515   34.0177 H   0  0  0  0  0  0  0  0  0  0  0  0
   32.8897   26.3982   34.3227 O   0  0  0  0  0  0  0  0  0  0  0  0
   32.9267   28.9443   35.5053 O   0  0  0  0  0  0  0  0  0  0  0  0
   32.3343   27.8607   36.2003 C   0  0  0  0  0  0  0  0  0  0  0  0
   33.1220   27.3910   37.4063 C   0  0  0  0  0  0  0  0  0  0  0  0
   34.2736   28.2355   37.6601 O   0  0  0  0  0  0  0  0  0  0  0  0
   33.4818   25.9881   37.4855 C   0  0  0  0  0  0  0  0  0  0  0  0
   34.1431   25.6371   38.7264 O   0  0  0  0  0  0  0  0  0  0  0  0
   32.5370   24.9680   36.8768 C   0  0  0  0  0  0  0  0  0  0  0  0
   31.4870   25.6075   35.9881 O   0  0  0  0  0  0  0  0  0  0  0  0
   31.8799   26.7530   35.2601 C   0  0  0  0  0  0  0  0  0  0  0  0
   32.3685   29.1879   34.7503 H   0  0  0  0  0  0  0  0  0  0  0  0
   34.9169   28.1294   36.9419 H   0  0  0  0  0  0  0  0  0  0  0  0
   33.5106   25.7007   39.4591 H   0  0  0  0  0  0  0  0  0  0  0  0
   31.9031   23.9964   37.7626 C   0  0  0  0  0  0  0  0  0  0  0  0
   31.3895   24.4307   38.9827 O   0  0  0  0  0  0  0  0  0  0  0  0
   30.6501   25.0383   38.8244 H   0  0  0  0  0  0  0  0  0  0  0  0
   34.0391   23.1292   31.7933 O   0  0  0  0  0  0  0  0  0  0  0  0
   36.2120   22.1586   30.9433 O   0  0  0  0  0  0  0  0  0  0  0  0
   35.2505   22.0974   32.0972 P   0  0  0  0  0  0  0  0  0  0  0  0
   35.9514   22.4321   33.3732 O   0  0  0  0  0  0  0  0  0  0  0  0
   36.6687   21.7969   33.5243 H   0  0  0  0  0  0  0  0  0  0  0  0
   34.6067   20.6511   32.2643 O   0  0  0  0  0  0  0  0  0  0  0  0
   34.2364   19.7458   31.1890 C   0  0  0  0  0  0  0  0  0  0  0  0
   32.8080   19.5181   31.2170 C   0  0  0  0  0  0  0  0  0  0  0  0
   32.0454   20.7483   30.9602 O   0  0  0  0  0  0  0  0  0  0  0  0
   32.3192   18.4621   30.3872 C   0  0  0  0  0  0  0  0  0  0  0  0
   32.5192   18.7464   28.9817 O   0  0  0  0  0  0  0  0  0  0  0  0
   33.0870   17.1810   30.6555 C   0  0  0  0  0  0  0  0  0  0  0  0
   34.4905   17.3902   30.5402 O   0  0  0  0  0  0  0  0  0  0  0  0
   34.9965   18.4389   31.3584 C   0  0  0  0  0  0  0  0  0  0  0  0
   36.3431   18.5798   31.1197 O   0  0  0  0  0  0  0  0  0  0  0  0
   32.2004   21.0403   30.0483 H   0  0  0  0  0  0  0  0  0  0  0  0
   33.4685   18.8292   28.8004 H   0  0  0  0  0  0  0  0  0  0  0  0
   36.4832   18.8228   30.1912 H   0  0  0  0  0  0  0  0  0  0  0  0
 41 42  1  0  0  0
 41 39  1  0  0  0
 42 43  1  0  0  0
 43 44  1  0  0  0
 43 36  1  0  0  0
 39 40  1  0  0  0
 39 37  1  0  0  0
 37 36  1  0  0  0
 37 38  1  0  0  0
 36 35  1  0  0  0
 35 32  1  0  0  0
 31 32  2  0  0  0
 32 33  1  0  0  0
 32 30  1  0  0  0
 11 12  1  0  0  0
 11  5  1  0  0  0
 30  6  1  0  0  0
 27 28  1  0  0  0
 27 21  1  0  0  0
  5  6  1  0  0  0
  5  4  1  0  0  0
  6  2  1  0  0  0
 21 22  1  0  0  0
 21 19  1  0  0  0
  4  1  1  0  0  0
  2  3  1  0  0  0
  2  1  1  0  0  0
 22 23  1  0  0  0
 20 19  1  0  0  0
 19 17  1  0  0  0
  1 14  1  0  0  0
  1  8  1  0  0  0
 14 23  1  0  0  0
 23 16  1  0  0  0
 17 16  1  0  0  0
 17 18  1  0  0  0
  8  9  1  0  0  0
 16 15  1  0  0  0
 15 24  1  0  0  0
 18 25  1  0  0  0
 20 26  1  0  0  0
 28 29  1  0  0  0
  9 10  1  0  0  0
  3  7  1  0  0  0
 12 13  1  0  0  0
 33 34  1  0  0  0
 38 45  1  0  0  0
 40 46  1  0  0  0
 44 47  1  0  0  0
M  END
> <minimizedAffinity>
-11.31906

$$$$
4ZEB_AGR_A_601


 47 49  0  0  0  0  0  0  0  0999 V2000
   30.9870   25.1820   33.4348 C   0  0  0  0  0  0  0  0  0  0  0  0
   31.7681   23.8846   33.4099 C   0  0  0  0  0  0  0  0  0  0  0  0
   31.1884   22.8714   32.6187 O   0  0  0  0  0  0  0  0  0  0  0  0
   31.9506   26.1178   33.8476 O   0  0  0  0  0  0  0  0  0  0  0  0
   33.2290   25.5920   33.5996 C   0  0  0  0  0  0  0  0  0  0  0  0
   33.0281   24.2750   32.9511 C   0  0  0  0  0  0  0  0  0  0  0  0
   31.1110   23.1810   31.7027 H   0  0  0  0  0  0  0  0  0  0  0  0
   29.8153   25.0544   34.3949 C   0  0  0  0  0  0  0  0  0  0  0  0
   28.6522   24.4519   33.9033 O   0  0  0  0  0  0  0  0  0  0  0  0
   28.2818   24.9969   33.1915 H   0  0  0  0  0  0  0  0  0  0  0  0
   34.0024   26.5021   32.7117 C   0  0  0  0  0  0  0  0  0  0  0  0
   34.5060   25.8856   31.5610 O   0  0  0  0  0  0  0  0  0  0  0  0
   33.7695   25.5634   31.0182 H   0  0  0  0  0  0  0  0  0  0  0  0
   30.4942   25.3889   32.0683 O   0  0  0  0  0  0  0  0  0  0  0  0
   27.8842   26.1686   31.3882 O   0  0  0  0  0  0  0  0  0  0  0  0
   28.9863   26.7804   30.7406 C   0  0  0  0  0  0  0  0  0  0  0  0
   29.1487   26.3879   29.2863 C   0  0  0  0  0  0  0  0  0  0  0  0
   28.0602   25.5443   28.8310 O   0  0  0  0  0  0  0  0  0  0  0  0
   30.4287   25.8561   28.8591 C   0  0  0  0  0  0  0  0  0  0  0  0
   30.4983   25.6117   27.4322 O   0  0  0  0  0  0  0  0  0  0  0  0
   31.6830   26.3587   29.5505 C   0  0  0  0  0  0  0  0  0  0  0  0
   31.3762   27.1299   30.8203 O   0  0  0  0  0  0  0  0  0  0  0  0
   30.2590   26.7014   31.5720 C   0  0  0  0  0  0  0  0  0  0  0  0
   27.8452   26.4664   32.3105 H   0  0  0  0  0  0  0  0  0  0  0  0
   28.1064   24.6860   29.2806 H   0  0  0  0  0  0  0  0  0  0  0  0
   30.4896   26.4581   26.9584 H   0  0  0  0  0  0  0  0  0  0  0  0
   32.6643   27.0921   28.7571 C   0  0  0  0  0  0  0  0  0  0  0  0
   33.5559   27.9436   29.4061 O   0  0  0  0  0  0  0  0  0  0  0  0
   34.1409   27.4234   29.9789 H   0  0  0  0  0  0  0  0  0  0  0  0
   34.0205   23.3805   33.4602 O   0  0  0  0  0  0  0  0  0  0  0  0
   35.0949   22.9375   31.2162 O   0  0  0  0  0  0  0  0  0  0  0  0
   34.8961   22.3391   32.5809 P   0  0  0  0  0  0  0  0  0  0  0  0
   36.2166   22.0546   33.2186 O   0  0  0  0  0  0  0  0  0  0  0  0
   36.7137   21.4297   32.6680 H   0  0  0  0  0  0  0  0  0  0  0  0
   34.0828   20.9718   32.5225 O   0  0  0  0  0  0  0  0  0  0  0  0
   34.0124   20.0613   31.3915 C   0  0  0  0  0  0  0  0  0  0  0  0
   32.6512   19.6010   31.2235 C   0  0  0  0  0  0  0  0  0  0  0  0
   31.7324   20.6984   30.8882 O   0  0  0  0  0  0  0  0  0  0  0  0
   32.4585   18.5129   30.3172 C   0  0  0  0  0  0  0  0  0  0  0  0
   32.7881   18.8817   28.9565 O   0  0  0  0  0  0  0  0  0  0  0  0
   33.3895   17.3657   30.6638 C   0  0  0  0  0  0  0  0  0  0  0  0
   34.7408   17.8072   30.7416 O   0  0  0  0  0  0  0  0  0  0  0  0
   34.9530   18.8914   31.6386 C   0  0  0  0  0  0  0  0  0  0  0  0
   36.2761   19.2611   31.5854 O   0  0  0  0  0  0  0  0  0  0  0  0
   31.9528   21.0479   30.0106 H   0  0  0  0  0  0  0  0  0  0  0  0
   33.7254   19.1266   28.9058 H   0  0  0  0  0  0  0  0  0  0  0  0
   36.4924   19.5605   30.6885 H   0  0  0  0  0  0  0  0  0  0  0  0
 41 42  1  0  0  0
 41 39  1  0  0  0
 42 43  1  0  0  0
 43 44  1  0  0  0
 43 36  1  0  0  0
 39 40  1  0  0  0
 39 37  1  0  0  0
 37 36  1  0  0  0
 37 38  1  0  0  0
 36 35  1  0  0  0
 35 32  1  0  0  0
 31 32  2  0  0  0
 32 33  1  0  0  0
 32 30  1  0  0  0
 11 12  1  0  0  0
 11  5  1  0  0  0
 30  6  1  0  0  0
 27 28  1  0  0  0
 27 21  1  0  0  0
  5  6  1  0  0  0
  5  4  1  0  0  0
  6  2  1  0  0  0
 21 22  1  0  0  0
 21 19  1  0  0  0
  4  1  1  0  0  0
  2  3  1  0  0  0
  2  1  1  0  0  0
 22 23  1  0  0  0
 20 19  1  0  0  0
 19 17  1  0  0  0
  1 14  1  0  0  0
  1  8  1  0  0  0
 14 23  1  0  0  0
 23 16  1  0  0  0
 17 16  1  0  0  0
 17 18  1  0  0  0
  8  9  1  0  0  0
 16 15  1  0  0  0
 15 24  1  0  0  0
 18 25  1  0  0  0
 20 26  1  0  0  0
 28 29  1  0  0  0
  9 10  1  0  0  0
  3  7  1  0  0  0
 12 13  1  0  0  0
 33 34  1  0  0  0
 38 45  1  0  0  0
 40 46  1  0  0  0
 44 47  1  0  0  0
M  END
> <minimizedAffinity>
-10.97672

$$$$
4ZEB_AGR_A_601


 47 49  0  0  0  0  0  0  0  0999 V2000
   31.7077   24.0636   34.9181 C   0  0  0  0  0  0  0  0  0  0  0  0
   32.6005   22.9580   34.3942 C   0  0  0  0  0  0  0  0  0  0  0  0
   31.9198   21.9479   33.6838 O   0  0  0  0  0  0  0  0  0  0  0  0
   32.6115   25.1179   35.1338 O   0  0  0  0  0  0  0  0  0  0  0  0
   33.7678   24.8874   34.3709 C   0  0  0  0  0  0  0  0  0  0  0  0
   33.5310   23.6399   33.6070 C   0  0  0  0  0  0  0  0  0  0  0  0
   31.4650   22.3391   32.9216 H   0  0  0  0  0  0  0  0  0  0  0  0
   31.0066   23.5975   36.1838 C   0  0  0  0  0  0  0  0  0  0  0  0
   31.1327   22.2453   36.5202 O   0  0  0  0  0  0  0  0  0  0  0  0
   30.7131   21.7013   35.8355 H   0  0  0  0  0  0  0  0  0  0  0  0
   34.0184   26.0282   33.4488 C   0  0  0  0  0  0  0  0  0  0  0  0
   32.8614   26.5562   32.8655 O   0  0  0  0  0  0  0  0  0  0  0  0
   32.2824   26.9099   33.5587 H   0  0  0  0  0  0  0  0  0  0  0  0
   30.7193   24.3246   33.8655 O   0  0  0  0  0  0  0  0  0  0  0  0
   29.0982   22.2288   32.9370 O   0  0  0  0  0  0  0  0  0  0  0  0
   28.5271   23.5065   33.1600 C   0  0  0  0  0  0  0  0  0  0  0  0
   28.1395   24.2434   31.8943 C   0  0  0  0  0  0  0  0  0  0  0  0
   28.3360   23.4254   30.7127 O   0  0  0  0  0  0  0  0  0  0  0  0
   28.6652   25.5799   31.6915 C   0  0  0  0  0  0  0  0  0  0  0  0
   28.1475   26.2227   30.5002 O   0  0  0  0  0  0  0  0  0  0  0  0
   28.9108   26.4488   32.9116 C   0  0  0  0  0  0  0  0  0  0  0  0
   28.8572   25.6598   34.2061 O   0  0  0  0  0  0  0  0  0  0  0  0
   29.3275   24.3281   34.1608 C   0  0  0  0  0  0  0  0  0  0  0  0
   29.3193   21.8204   33.7885 H   0  0  0  0  0  0  0  0  0  0  0  0
   29.2846   23.2738   30.5785 H   0  0  0  0  0  0  0  0  0  0  0  0
   27.2052   26.4182   30.6218 H   0  0  0  0  0  0  0  0  0  0  0  0
   28.1354   27.6771   33.0541 C   0  0  0  0  0  0  0  0  0  0  0  0
   26.8269   27.7079   32.5766 O   0  0  0  0  0  0  0  0  0  0  0  0
   26.2812   27.0908   33.0886 H   0  0  0  0  0  0  0  0  0  0  0  0
   34.7581   22.9070   33.5745 O   0  0  0  0  0  0  0  0  0  0  0  0
   34.8250   22.8523   31.0489 O   0  0  0  0  0  0  0  0  0  0  0  0
   35.3968   22.1886   32.2705 P   0  0  0  0  0  0  0  0  0  0  0  0
   36.8873   22.2865   32.2629 O   0  0  0  0  0  0  0  0  0  0  0  0
   37.2361   21.8477   31.4713 H   0  0  0  0  0  0  0  0  0  0  0  0
   35.0141   20.6453   32.3481 O   0  0  0  0  0  0  0  0  0  0  0  0
   34.5169   19.8271   31.2543 C   0  0  0  0  0  0  0  0  0  0  0  0
   33.0783   19.7099   31.3513 C   0  0  0  0  0  0  0  0  0  0  0  0
   32.4046   21.0071   31.1947 O   0  0  0  0  0  0  0  0  0  0  0  0
   32.4638   18.7385   30.5019 C   0  0  0  0  0  0  0  0  0  0  0  0
   32.6127   19.0772   29.1021 O   0  0  0  0  0  0  0  0  0  0  0  0
   33.1391   17.3896   30.6673 C   0  0  0  0  0  0  0  0  0  0  0  0
   34.5470   17.4948   30.4838 O   0  0  0  0  0  0  0  0  0  0  0  0
   35.1773   18.4582   31.3202 C   0  0  0  0  0  0  0  0  0  0  0  0
   36.5167   18.5060   31.0137 O   0  0  0  0  0  0  0  0  0  0  0  0
   32.5350   21.3320   30.2901 H   0  0  0  0  0  0  0  0  0  0  0  0
   33.5549   19.0951   28.8723 H   0  0  0  0  0  0  0  0  0  0  0  0
   36.6275   18.7841   30.0911 H   0  0  0  0  0  0  0  0  0  0  0  0
 41 42  1  0  0  0
 41 39  1  0  0  0
 42 43  1  0  0  0
 43 44  1  0  0  0
 43 36  1  0  0  0
 39 40  1  0  0  0
 39 37  1  0  0  0
 37 36  1  0  0  0
 37 38  1  0  0  0
 36 35  1  0  0  0
 35 32  1  0  0  0
 31 32  2  0  0  0
 32 33  1  0  0  0
 32 30  1  0  0  0
 11 12  1  0  0  0
 11  5  1  0  0  0
 30  6  1  0  0  0
 27 28  1  0  0  0
 27 21  1  0  0  0
  5  6  1  0  0  0
  5  4  1  0  0  0
  6  2  1  0  0  0
 21 22  1  0  0  0
 21 19  1  0  0  0
  4  1  1  0  0  0
  2  3  1  0  0  0
  2  1  1  0  0  0
 22 23  1  0  0  0
 20 19  1  0  0  0
 19 17  1  0  0  0
  1 14  1  0  0  0
  1  8  1  0  0  0
 14 23  1  0  0  0
 23 16  1  0  0  0
 17 16  1  0  0  0
 17 18  1  0  0  0
  8  9  1  0  0  0
 16 15  1  0  0  0
 15 24  1  0  0  0
 18 25  1  0  0  0
 20 26  1  0  0  0
 28 29  1  0  0  0
  9 10  1  0  0  0
  3  7  1  0  0  0
 12 13  1  0  0  0
 33 34  1  0  0  0
 38 45  1  0  0  0
 40 46  1  0  0  0
 44 47  1  0  0  0
M  END
> <minimizedAffinity>
-9.97537

$$$$
4ZEB_AGR_A_601


 47 49  0  0  0  0  0  0  0  0999 V2000
   32.3984   26.0347   33.5905 C   0  0  0  0  0  0  0  0  0  0  0  0
   33.6658   25.4101   33.0451 C   0  0  0  0  0  0  0  0  0  0  0  0
   34.8208   25.6756   33.8091 O   0  0  0  0  0  0  0  0  0  0  0  0
   31.3879   25.2687   32.9848 O   0  0  0  0  0  0  0  0  0  0  0  0
   31.9356   24.0452   32.5659 C   0  0  0  0  0  0  0  0  0  0  0  0
   33.3562   24.0494   32.9873 C   0  0  0  0  0  0  0  0  0  0  0  0
   34.6966   25.3396   34.7105 H   0  0  0  0  0  0  0  0  0  0  0  0
   32.3514   27.5067   33.2140 C   0  0  0  0  0  0  0  0  0  0  0  0
   33.5768   28.1671   33.0727 O   0  0  0  0  0  0  0  0  0  0  0  0
   34.0355   28.1837   33.9273 H   0  0  0  0  0  0  0  0  0  0  0  0
   31.2061   22.9080   33.1899 C   0  0  0  0  0  0  0  0  0  0  0  0
   32.0394   21.9190   33.7239 O   0  0  0  0  0  0  0  0  0  0  0  0
   32.5774   22.2992   34.4358 H   0  0  0  0  0  0  0  0  0  0  0  0
   32.4677   25.8932   35.0493 O   0  0  0  0  0  0  0  0  0  0  0  0
   31.7394   23.4517   36.2287 O   0  0  0  0  0  0  0  0  0  0  0  0
   32.8830   24.1417   36.7023 C   0  0  0  0  0  0  0  0  0  0  0  0
   32.7153   24.7507   38.0794 C   0  0  0  0  0  0  0  0  0  0  0  0
   31.4402   24.3970   38.6735 O   0  0  0  0  0  0  0  0  0  0  0  0
   32.9856   26.1667   38.2398 C   0  0  0  0  0  0  0  0  0  0  0  0
   32.8903   26.6143   39.6149 O   0  0  0  0  0  0  0  0  0  0  0  0
   34.0528   26.7986   37.3647 C   0  0  0  0  0  0  0  0  0  0  0  0
   34.4689   25.8992   36.2162 O   0  0  0  0  0  0  0  0  0  0  0  0
   33.4656   25.0786   35.6535 C   0  0  0  0  0  0  0  0  0  0  0  0
   31.9214   23.0914   35.3467 H   0  0  0  0  0  0  0  0  0  0  0  0
   30.7231   24.8187   38.1748 H   0  0  0  0  0  0  0  0  0  0  0  0
   33.6191   26.2341   40.1299 H   0  0  0  0  0  0  0  0  0  0  0  0
   35.2401   27.3499   38.0101 C   0  0  0  0  0  0  0  0  0  0  0  0
   35.0977   28.4392   38.8671 O   0  0  0  0  0  0  0  0  0  0  0  0
   34.5784   28.1747   39.6425 H   0  0  0  0  0  0  0  0  0  0  0  0
   34.1218   23.4286   31.9516 O   0  0  0  0  0  0  0  0  0  0  0  0
   36.0909   22.1893   30.9652 O   0  0  0  0  0  0  0  0  0  0  0  0
   35.1661   22.2062   32.1503 P   0  0  0  0  0  0  0  0  0  0  0  0
   35.9481   22.3503   33.4149 O   0  0  0  0  0  0  0  0  0  0  0  0
   36.5618   21.6043   33.5024 H   0  0  0  0  0  0  0  0  0  0  0  0
   34.3101   20.8686   32.2610 O   0  0  0  0  0  0  0  0  0  0  0  0
   34.0893   19.8993   31.2004 C   0  0  0  0  0  0  0  0  0  0  0  0
   32.6993   19.4982   31.1918 C   0  0  0  0  0  0  0  0  0  0  0  0
   31.8010   20.6187   30.8782 O   0  0  0  0  0  0  0  0  0  0  0  0
   32.3711   18.3707   30.3771 C   0  0  0  0  0  0  0  0  0  0  0  0
   32.5815   18.6440   28.9709 O   0  0  0  0  0  0  0  0  0  0  0  0
   33.2805   17.2006   30.7037 C   0  0  0  0  0  0  0  0  0  0  0  0
   34.6510   17.5782   30.6249 O   0  0  0  0  0  0  0  0  0  0  0  0
   34.9974   18.7003   31.4287 C   0  0  0  0  0  0  0  0  0  0  0  0
   36.3238   19.0002   31.2269 O   0  0  0  0  0  0  0  0  0  0  0  0
   31.9493   20.9059   29.9637 H   0  0  0  0  0  0  0  0  0  0  0  0
   33.5191   18.8388   28.8161 H   0  0  0  0  0  0  0  0  0  0  0  0
   36.4640   19.2365   30.2966 H   0  0  0  0  0  0  0  0  0  0  0  0
 41 42  1  0  0  0
 41 39  1  0  0  0
 42 43  1  0  0  0
 43 44  1  0  0  0
 43 36  1  0  0  0
 39 40  1  0  0  0
 39 37  1  0  0  0
 37 36  1  0  0  0
 37 38  1  0  0  0
 36 35  1  0  0  0
 35 32  1  0  0  0
 31 32  2  0  0  0
 32 33  1  0  0  0
 32 30  1  0  0  0
 11 12  1  0  0  0
 11  5  1  0  0  0
 30  6  1  0  0  0
 27 28  1  0  0  0
 27 21  1  0  0  0
  5  6  1  0  0  0
  5  4  1  0  0  0
  6  2  1  0  0  0
 21 22  1  0  0  0
 21 19  1  0  0  0
  4  1  1  0  0  0
  2  3  1  0  0  0
  2  1  1  0  0  0
 22 23  1  0  0  0
 20 19  1  0  0  0
 19 17  1  0  0  0
  1 14  1  0  0  0
  1  8  1  0  0  0
 14 23  1  0  0  0
 23 16  1  0  0  0
 17 16  1  0  0  0
 17 18  1  0  0  0
  8  9  1  0  0  0
 16 15  1  0  0  0
 15 24  1  0  0  0
 18 25  1  0  0  0
 20 26  1  0  0  0
 28 29  1  0  0  0
  9 10  1  0  0  0
  3  7  1  0  0  0
 12 13  1  0  0  0
 33 34  1  0  0  0
 38 45  1  0  0  0
 40 46  1  0  0  0
 44 47  1  0  0  0
M  END
> <minimizedAffinity>
-9.97159

$$$$
4ZEB_AGR_A_601


 47 49  0  0  0  0  0  0  0  0999 V2000
   32.7714   24.6980   34.4817 C   0  0  0  0  0  0  0  0  0  0  0  0
   32.8757   23.4971   33.5647 C   0  0  0  0  0  0  0  0  0  0  0  0
   31.6877   22.7458   33.4525 O   0  0  0  0  0  0  0  0  0  0  0  0
   33.8451   25.5027   34.0643 O   0  0  0  0  0  0  0  0  0  0  0  0
   34.2186   25.1226   32.7649 C   0  0  0  0  0  0  0  0  0  0  0  0
   33.2813   24.0529   32.3494 C   0  0  0  0  0  0  0  0  0  0  0  0
   30.9784   23.3117   33.1096 H   0  0  0  0  0  0  0  0  0  0  0  0
   32.8790   24.2463   35.9292 C   0  0  0  0  0  0  0  0  0  0  0  0
   34.0686   24.5450   36.6024 O   0  0  0  0  0  0  0  0  0  0  0  0
   34.8053   24.0756   36.1809 H   0  0  0  0  0  0  0  0  0  0  0  0
   34.1337   26.2843   31.8386 C   0  0  0  0  0  0  0  0  0  0  0  0
   33.1284   26.1719   30.8720 O   0  0  0  0  0  0  0  0  0  0  0  0
   32.2633   26.1292   31.3087 H   0  0  0  0  0  0  0  0  0  0  0  0
   31.4491   25.2853   34.2376 O   0  0  0  0  0  0  0  0  0  0  0  0
   30.1852   26.5090   36.4257 O   0  0  0  0  0  0  0  0  0  0  0  0
   30.1189   27.1215   35.1495 C   0  0  0  0  0  0  0  0  0  0  0  0
   28.7485   27.0693   34.5056 C   0  0  0  0  0  0  0  0  0  0  0  0
   27.7571   26.4937   35.3942 O   0  0  0  0  0  0  0  0  0  0  0  0
   28.6385   26.5060   33.1736 C   0  0  0  0  0  0  0  0  0  0  0  0
   27.3017   26.6011   32.6217 O   0  0  0  0  0  0  0  0  0  0  0  0
   29.8083   26.6770   32.2216 C   0  0  0  0  0  0  0  0  0  0  0  0
   31.0640   27.1553   32.9256 O   0  0  0  0  0  0  0  0  0  0  0  0
   31.2683   26.6965   34.2464 C   0  0  0  0  0  0  0  0  0  0  0  0
   31.0881   26.5816   36.7726 H   0  0  0  0  0  0  0  0  0  0  0  0
   27.9537   25.5540   35.5326 H   0  0  0  0  0  0  0  0  0  0  0  0
   27.0923   27.5306   32.4401 H   0  0  0  0  0  0  0  0  0  0  0  0
   29.6023   27.4559   31.0046 C   0  0  0  0  0  0  0  0  0  0  0  0
   28.4254   27.2772   30.2806 O   0  0  0  0  0  0  0  0  0  0  0  0
   27.6703   27.5729   30.8128 H   0  0  0  0  0  0  0  0  0  0  0  0
   34.0245   23.0845   31.6052 O   0  0  0  0  0  0  0  0  0  0  0  0
   36.3658   22.2104   31.2303 O   0  0  0  0  0  0  0  0  0  0  0  0
   35.2103   22.1484   32.1899 P   0  0  0  0  0  0  0  0  0  0  0  0
   35.6422   22.5922   33.5493 O   0  0  0  0  0  0  0  0  0  0  0  0
   36.3510   22.0122   33.8688 H   0  0  0  0  0  0  0  0  0  0  0  0
   34.6234   20.6749   32.3263 O   0  0  0  0  0  0  0  0  0  0  0  0
   34.2425   19.7969   31.2321 C   0  0  0  0  0  0  0  0  0  0  0  0
   32.8185   19.5469   31.2843 C   0  0  0  0  0  0  0  0  0  0  0  0
   32.0327   20.7726   31.0817 O   0  0  0  0  0  0  0  0  0  0  0  0
   32.3267   18.5092   30.4335 C   0  0  0  0  0  0  0  0  0  0  0  0
   32.4913   18.8387   29.0333 O   0  0  0  0  0  0  0  0  0  0  0  0
   33.1187   17.2322   30.6459 C   0  0  0  0  0  0  0  0  0  0  0  0
   34.5161   17.4661   30.5065 O   0  0  0  0  0  0  0  0  0  0  0  0
   35.0249   18.4971   31.3451 C   0  0  0  0  0  0  0  0  0  0  0  0
   36.3637   18.6655   31.0817 O   0  0  0  0  0  0  0  0  0  0  0  0
   32.1632   21.0943   30.1760 H   0  0  0  0  0  0  0  0  0  0  0  0
   33.4351   18.9413   28.8341 H   0  0  0  0  0  0  0  0  0  0  0  0
   36.4797   18.9385   30.1581 H   0  0  0  0  0  0  0  0  0  0  0  0
 41 42  1  0  0  0
 41 39  1  0  0  0
 42 43  1  0  0  0
 43 44  1  0  0  0
 43 36  1  0  0  0
 39 40  1  0  0  0
 39 37  1  0  0  0
 37 36  1  0  0  0
 37 38  1  0  0  0
 36 35  1  0  0  0
 35 32  1  0  0  0
 31 32  2  0  0  0
 32 33  1  0  0  0
 32 30  1  0  0  0
 11 12  1  0  0  0
 11  5  1  0  0  0
 30  6  1  0  0  0
 27 28  1  0  0  0
 27 21  1  0  0  0
  5  6  1  0  0  0
  5  4  1  0  0  0
  6  2  1  0  0  0
 21 22  1  0  0  0
 21 19  1  0  0  0
  4  1  1  0  0  0
  2  3  1  0  0  0
  2  1  1  0  0  0
 22 23  1  0  0  0
 20 19  1  0  0  0
 19 17  1  0  0  0
  1 14  1  0  0  0
  1  8  1  0  0  0
 14 23  1  0  0  0
 23 16  1  0  0  0
 17 16  1  0  0  0
 17 18  1  0  0  0
  8  9  1  0  0  0
 16 15  1  0  0  0
 15 24  1  0  0  0
 18 25  1  0  0  0
 20 26  1  0  0  0
 28 29  1  0  0  0
  9 10  1  0  0  0
  3  7  1  0  0  0
 12 13  1  0  0  0
 33 34  1  0  0  0
 38 45  1  0  0  0
 40 46  1  0  0  0
 44 47  1  0  0  0
M  END
> <minimizedAffinity>
-9.53711

$$$$
4ZEB_AGR_A_601


 47 49  0  0  0  0  0  0  0  0999 V2000
   32.1764   26.4106   31.5999 C   0  0  0  0  0  0  0  0  0  0  0  0
   32.4379   24.9217   31.5062 C   0  0  0  0  0  0  0  0  0  0  0  0
   33.4079   24.4433   32.4110 O   0  0  0  0  0  0  0  0  0  0  0  0
   30.9138   26.5436   30.9975 O   0  0  0  0  0  0  0  0  0  0  0  0
   30.2688   25.2962   31.0157 C   0  0  0  0  0  0  0  0  0  0  0  0
   31.1773   24.3585   31.7165 C   0  0  0  0  0  0  0  0  0  0  0  0
   33.1235   24.6312   33.3191 H   0  0  0  0  0  0  0  0  0  0  0  0
   33.2767   27.1691   30.8755 C   0  0  0  0  0  0  0  0  0  0  0  0
   34.5079   26.5205   30.7306 O   0  0  0  0  0  0  0  0  0  0  0  0
   34.8985   26.3691   31.6055 H   0  0  0  0  0  0  0  0  0  0  0  0
   28.9654   25.3949   31.7271 C   0  0  0  0  0  0  0  0  0  0  0  0
   28.1665   24.2516   31.6169 O   0  0  0  0  0  0  0  0  0  0  0  0
   28.6229   23.4978   32.0225 H   0  0  0  0  0  0  0  0  0  0  0  0
   32.1986   26.7406   33.0295 O   0  0  0  0  0  0  0  0  0  0  0  0
   34.8845   26.3858   33.7661 O   0  0  0  0  0  0  0  0  0  0  0  0
   34.1254   27.4180   34.3715 C   0  0  0  0  0  0  0  0  0  0  0  0
   33.7898   27.1702   35.8279 C   0  0  0  0  0  0  0  0  0  0  0  0
   34.4212   25.9643   36.3288 O   0  0  0  0  0  0  0  0  0  0  0  0
   32.3975   27.2302   36.2298 C   0  0  0  0  0  0  0  0  0  0  0  0
   32.2082   27.0777   37.6586 O   0  0  0  0  0  0  0  0  0  0  0  0
   31.4775   28.1880   35.4949 C   0  0  0  0  0  0  0  0  0  0  0  0
   32.0988   28.7255   34.2195 O   0  0  0  0  0  0  0  0  0  0  0  0
   32.9495   27.8507   33.5071 C   0  0  0  0  0  0  0  0  0  0  0  0
   35.0595   26.6139   32.8397 H   0  0  0  0  0  0  0  0  0  0  0  0
   34.0302   25.1902   35.8944 H   0  0  0  0  0  0  0  0  0  0  0  0
   32.5598   27.8573   38.1164 H   0  0  0  0  0  0  0  0  0  0  0  0
   30.8764   29.2850   36.2470 C   0  0  0  0  0  0  0  0  0  0  0  0
   29.8654   29.0006   37.1625 O   0  0  0  0  0  0  0  0  0  0  0  0
   30.2256   28.4635   37.8855 H   0  0  0  0  0  0  0  0  0  0  0  0
   31.1010   23.0955   31.0510 O   0  0  0  0  0  0  0  0  0  0  0  0
   29.6485   22.0617   32.8421 O   0  0  0  0  0  0  0  0  0  0  0  0
   30.5668   21.7126   31.7042 P   0  0  0  0  0  0  0  0  0  0  0  0
   29.8496   20.8706   30.7001 O   0  0  0  0  0  0  0  0  0  0  0  0
   29.5440   20.0529   31.1231 H   0  0  0  0  0  0  0  0  0  0  0  0
   31.8442   20.8985   32.1936 O   0  0  0  0  0  0  0  0  0  0  0  0
   32.8402   20.2689   31.3423 C   0  0  0  0  0  0  0  0  0  0  0  0
   32.7345   18.8304   31.4544 C   0  0  0  0  0  0  0  0  0  0  0  0
   31.4420   18.3296   30.9649 O   0  0  0  0  0  0  0  0  0  0  0  0
   33.7990   18.0708   30.8777 C   0  0  0  0  0  0  0  0  0  0  0  0
   33.8520   18.2258   29.4391 O   0  0  0  0  0  0  0  0  0  0  0  0
   35.1390   18.5667   31.3891 C   0  0  0  0  0  0  0  0  0  0  0  0
   35.2741   19.9708   31.1961 O   0  0  0  0  0  0  0  0  0  0  0  0
   34.2227   20.7446   31.7626 C   0  0  0  0  0  0  0  0  0  0  0  0
   34.4349   22.0700   31.4649 O   0  0  0  0  0  0  0  0  0  0  0  0
   31.3793   18.4775   30.0083 H   0  0  0  0  0  0  0  0  0  0  0  0
   34.0199   19.1557   29.2201 H   0  0  0  0  0  0  0  0  0  0  0  0
   34.4190   22.1918   30.5027 H   0  0  0  0  0  0  0  0  0  0  0  0
 41 42  1  0  0  0
 41 39  1  0  0  0
 42 43  1  0  0  0
 43 44  1  0  0  0
 43 36  1  0  0  0
 39 40  1  0  0  0
 39 37  1  0  0  0
 37 36  1  0  0  0
 37 38  1  0  0  0
 36 35  1  0  0  0
 35 32  1  0  0  0
 31 32  2  0  0  0
 32 33  1  0  0  0
 32 30  1  0  0  0
 11 12  1  0  0  0
 11  5  1  0  0  0
 30  6  1  0  0  0
 27 28  1  0  0  0
 27 21  1  0  0  0
  5  6  1  0  0  0
  5  4  1  0  0  0
  6  2  1  0  0  0
 21 22  1  0  0  0
 21 19  1  0  0  0
  4  1  1  0  0  0
  2  3  1  0  0  0
  2  1  1  0  0  0
 22 23  1  0  0  0
 20 19  1  0  0  0
 19 17  1  0  0  0
  1 14  1  0  0  0
  1  8  1  0  0  0
 14 23  1  0  0  0
 23 16  1  0  0  0
 17 16  1  0  0  0
 17 18  1  0  0  0
  8  9  1  0  0  0
 16 15  1  0  0  0
 15 24  1  0  0  0
 18 25  1  0  0  0
 20 26  1  0  0  0
 28 29  1  0  0  0
  9 10  1  0  0  0
  3  7  1  0  0  0
 12 13  1  0  0  0
 33 34  1  0  0  0
 38 45  1  0  0  0
 40 46  1  0  0  0
 44 47  1  0  0  0
M  END
> <minimizedAffinity>
-9.46322

$$$$
4ZEB_AGR_A_601


 47 49  0  0  0  0  0  0  0  0999 V2000
   29.8966   25.7399   32.1739 C   0  0  0  0  0  0  0  0  0  0  0  0
   30.1581   24.4214   31.4759 C   0  0  0  0  0  0  0  0  0  0  0  0
   31.3520   24.3865   30.7264 O   0  0  0  0  0  0  0  0  0  0  0  0
   28.9820   25.3838   33.1796 O   0  0  0  0  0  0  0  0  0  0  0  0
   29.0754   24.0015   33.4090 C   0  0  0  0  0  0  0  0  0  0  0  0
   30.1481   23.4951   32.5211 C   0  0  0  0  0  0  0  0  0  0  0  0
   32.1062   24.5595   31.3114 H   0  0  0  0  0  0  0  0  0  0  0  0
   29.3412   26.7442   31.1770 C   0  0  0  0  0  0  0  0  0  0  0  0
   28.0022   27.1198   31.3308 O   0  0  0  0  0  0  0  0  0  0  0  0
   27.4318   26.3479   31.1909 H   0  0  0  0  0  0  0  0  0  0  0  0
   29.4035   23.7321   34.8354 C   0  0  0  0  0  0  0  0  0  0  0  0
   30.5274   22.9192   35.0193 O   0  0  0  0  0  0  0  0  0  0  0  0
   31.3100   23.3625   34.6561 H   0  0  0  0  0  0  0  0  0  0  0  0
   31.1955   26.2006   32.6776 O   0  0  0  0  0  0  0  0  0  0  0  0
   33.0889   26.4480   30.6195 O   0  0  0  0  0  0  0  0  0  0  0  0
   33.0568   27.4120   31.6577 C   0  0  0  0  0  0  0  0  0  0  0  0
   34.2351   27.3421   32.6073 C   0  0  0  0  0  0  0  0  0  0  0  0
   35.2147   26.3617   32.1795 O   0  0  0  0  0  0  0  0  0  0  0  0
   33.9645   27.2173   34.0268 C   0  0  0  0  0  0  0  0  0  0  0  0
   35.1615   27.2616   34.8427 O   0  0  0  0  0  0  0  0  0  0  0  0
   32.7098   27.8687   34.5795 C   0  0  0  0  0  0  0  0  0  0  0  0
   31.7500   28.2993   33.4866 O   0  0  0  0  0  0  0  0  0  0  0  0
   31.6938   27.4875   32.3314 C   0  0  0  0  0  0  0  0  0  0  0  0
   32.3070   26.5541   30.0554 H   0  0  0  0  0  0  0  0  0  0  0  0
   34.8367   25.4717   32.2570 H   0  0  0  0  0  0  0  0  0  0  0  0
   35.5415   28.1535   34.8112 H   0  0  0  0  0  0  0  0  0  0  0  0
   32.8603   28.9468   35.5519 C   0  0  0  0  0  0  0  0  0  0  0  0
   33.3698   28.6502   36.8143 O   0  0  0  0  0  0  0  0  0  0  0  0
   34.2898   28.3545   36.7303 H   0  0  0  0  0  0  0  0  0  0  0  0
   29.7389   22.2184   32.0244 O   0  0  0  0  0  0  0  0  0  0  0  0
   29.8740   19.7606   32.5964 O   0  0  0  0  0  0  0  0  0  0  0  0
   30.6562   20.8840   31.9751 P   0  0  0  0  0  0  0  0  0  0  0  0
   31.0427   20.5333   30.5754 O   0  0  0  0  0  0  0  0  0  0  0  0
   31.5896   19.7322   30.5822 H   0  0  0  0  0  0  0  0  0  0  0  0
   31.9922   21.2008   32.7806 O   0  0  0  0  0  0  0  0  0  0  0  0
   33.1859   21.8377   32.2489 C   0  0  0  0  0  0  0  0  0  0  0  0
   34.1886   20.8327   31.9707 C   0  0  0  0  0  0  0  0  0  0  0  0
   33.7579   19.8945   30.9242 O   0  0  0  0  0  0  0  0  0  0  0  0
   35.5028   21.3135   31.6801 C   0  0  0  0  0  0  0  0  0  0  0  0
   35.5365   22.0757   30.4496 O   0  0  0  0  0  0  0  0  0  0  0  0
   35.9666   22.2701   32.7630 C   0  0  0  0  0  0  0  0  0  0  0  0
   35.0154   23.3086   32.9720 O   0  0  0  0  0  0  0  0  0  0  0  0
   33.6999   22.8497   33.2617 C   0  0  0  0  0  0  0  0  0  0  0  0
   32.8668   23.9361   33.3878 O   0  0  0  0  0  0  0  0  0  0  0  0
   33.6824   20.3650   30.0793 H   0  0  0  0  0  0  0  0  0  0  0  0
   34.9653   22.8549   30.5361 H   0  0  0  0  0  0  0  0  0  0  0  0
   32.8421   24.4235   32.5495 H   0  0  0  0  0  0  0  0  0  0  0  0
 41 42  1  0  0  0
 41 39  1  0  0  0
 42 43  1  0  0  0
 43 44  1  0  0  0
 43 36  1  0  0  0
 39 40  1  0  0  0
 39 37  1  0  0  0
 37 36  1  0  0  0
 37 38  1  0  0  0
 36 35  1  0  0  0
 35 32  1  0  0  0
 31 32  2  0  0  0
 32 33  1  0  0  0
 32 30  1  0  0  0
 11 12  1  0  0  0
 11  5  1  0  0  0
 30  6  1  0  0  0
 27 28  1  0  0  0
 27 21  1  0  0  0
  5  6  1  0  0  0
  5  4  1  0  0  0
  6  2  1  0  0  0
 21 22  1  0  0  0
 21 19  1  0  0  0
  4  1  1  0  0  0
  2  3  1  0  0  0
  2  1  1  0  0  0
 22 23  1  0  0  0
 20 19  1  0  0  0
 19 17  1  0  0  0
  1 14  1  0  0  0
  1  8  1  0  0  0
 14 23  1  0  0  0
 23 16  1  0  0  0
 17 16  1  0  0  0
 17 18  1  0  0  0
  8  9  1  0  0  0
 16 15  1  0  0  0
 15 24  1  0  0  0
 18 25  1  0  0  0
 20 26  1  0  0  0
 28 29  1  0  0  0
  9 10  1  0  0  0
  3  7  1  0  0  0
 12 13  1  0  0  0
 33 34  1  0  0  0
 38 45  1  0  0  0
 40 46  1  0  0  0
 44 47  1  0  0  0
M  END
> <minimizedAffinity>
-9.32992

$$$$
4ZEB_AGR_A_601


 47 49  0  0  0  0  0  0  0  0999 V2000
   32.7075   27.0598   33.2494 C   0  0  0  0  0  0  0  0  0  0  0  0
   33.3492   25.7268   33.5740 C   0  0  0  0  0  0  0  0  0  0  0  0
   32.4693   24.7791   34.1362 O   0  0  0  0  0  0  0  0  0  0  0  0
   33.5962   27.6132   32.3120 O   0  0  0  0  0  0  0  0  0  0  0  0
   34.3636   26.5802   31.7496 C   0  0  0  0  0  0  0  0  0  0  0  0
   33.8765   25.3152   32.3480 C   0  0  0  0  0  0  0  0  0  0  0  0
   31.7412   24.6077   33.5186 H   0  0  0  0  0  0  0  0  0  0  0  0
   32.5741   27.8852   34.5190 C   0  0  0  0  0  0  0  0  0  0  0  0
   33.0701   27.3216   35.6996 O   0  0  0  0  0  0  0  0  0  0  0  0
   32.5634   26.5229   35.9144 H   0  0  0  0  0  0  0  0  0  0  0  0
   34.2016   26.5580   30.2705 C   0  0  0  0  0  0  0  0  0  0  0  0
   33.8337   27.7895   29.7175 O   0  0  0  0  0  0  0  0  0  0  0  0
   34.5308   28.4419   29.8888 H   0  0  0  0  0  0  0  0  0  0  0  0
   31.3780   26.7532   32.7097 O   0  0  0  0  0  0  0  0  0  0  0  0
   28.9848   28.0326   33.4295 O   0  0  0  0  0  0  0  0  0  0  0  0
   29.2566   27.7791   32.0619 C   0  0  0  0  0  0  0  0  0  0  0  0
   28.3872   26.7029   31.4447 C   0  0  0  0  0  0  0  0  0  0  0  0
   27.3727   26.2336   32.3690 O   0  0  0  0  0  0  0  0  0  0  0  0
   29.0410   25.5888   30.7851 C   0  0  0  0  0  0  0  0  0  0  0  0
   28.1120   24.6777   30.1468 O   0  0  0  0  0  0  0  0  0  0  0  0
   30.3687   25.8409   30.0939 C   0  0  0  0  0  0  0  0  0  0  0  0
   30.9729   27.1808   30.4693 O   0  0  0  0  0  0  0  0  0  0  0  0
   30.7471   27.6347   31.7883 C   0  0  0  0  0  0  0  0  0  0  0  0
   29.5771   28.7293   33.7531 H   0  0  0  0  0  0  0  0  0  0  0  0
   27.7968   25.7589   33.1009 H   0  0  0  0  0  0  0  0  0  0  0  0
   27.6985   25.1170   29.3873 H   0  0  0  0  0  0  0  0  0  0  0  0
   30.4419   25.6586   28.6477 C   0  0  0  0  0  0  0  0  0  0  0  0
   29.4110   26.1544   27.8523 O   0  0  0  0  0  0  0  0  0  0  0  0
   29.3947   27.1225   27.9105 H   0  0  0  0  0  0  0  0  0  0  0  0
   35.0096   24.4729   32.5737 O   0  0  0  0  0  0  0  0  0  0  0  0
   35.2516   22.4808   31.0377 O   0  0  0  0  0  0  0  0  0  0  0  0
   35.0211   22.8560   32.4751 P   0  0  0  0  0  0  0  0  0  0  0  0
   36.0812   22.2593   33.3421 O   0  0  0  0  0  0  0  0  0  0  0  0
   36.0604   21.2930   33.2595 H   0  0  0  0  0  0  0  0  0  0  0  0
   33.6128   22.3414   33.0100 O   0  0  0  0  0  0  0  0  0  0  0  0
   32.6428   21.5591   32.2614 C   0  0  0  0  0  0  0  0  0  0  0  0
   31.3102   21.8476   32.7451 C   0  0  0  0  0  0  0  0  0  0  0  0
   30.9288   23.2487   32.5168 O   0  0  0  0  0  0  0  0  0  0  0  0
   30.2698   20.9809   32.2878 C   0  0  0  0  0  0  0  0  0  0  0  0
   30.0674   21.0913   30.8585 O   0  0  0  0  0  0  0  0  0  0  0  0
   30.6438   19.5309   32.5341 C   0  0  0  0  0  0  0  0  0  0  0  0
   31.9195   19.2287   31.9788 O   0  0  0  0  0  0  0  0  0  0  0  0
   32.9690   20.0819   32.4213 C   0  0  0  0  0  0  0  0  0  0  0  0
   34.1315   19.7282   31.7782 O   0  0  0  0  0  0  0  0  0  0  0  0
   30.8534   23.4121   31.5636 H   0  0  0  0  0  0  0  0  0  0  0  0
   30.8775   20.8257   30.3957 H   0  0  0  0  0  0  0  0  0  0  0  0
   34.0221   19.8499   30.8221 H   0  0  0  0  0  0  0  0  0  0  0  0
 41 42  1  0  0  0
 41 39  1  0  0  0
 42 43  1  0  0  0
 43 44  1  0  0  0
 43 36  1  0  0  0
 39 40  1  0  0  0
 39 37  1  0  0  0
 37 36  1  0  0  0
 37 38  1  0  0  0
 36 35  1  0  0  0
 35 32  1  0  0  0
 31 32  2  0  0  0
 32 33  1  0  0  0
 32 30  1  0  0  0
 11 12  1  0  0  0
 11  5  1  0  0  0
 30  6  1  0  0  0
 27 28  1  0  0  0
 27 21  1  0  0  0
  5  6  1  0  0  0
  5  4  1  0  0  0
  6  2  1  0  0  0
 21 22  1  0  0  0
 21 19  1  0  0  0
  4  1  1  0  0  0
  2  3  1  0  0  0
  2  1  1  0  0  0
 22 23  1  0  0  0
 20 19  1  0  0  0
 19 17  1  0  0  0
  1 14  1  0  0  0
  1  8  1  0  0  0
 14 23  1  0  0  0
 23 16  1  0  0  0
 17 16  1  0  0  0
 17 18  1  0  0  0
  8  9  1  0  0  0
 16 15  1  0  0  0
 15 24  1  0  0  0
 18 25  1  0  0  0
 20 26  1  0  0  0
 28 29  1  0  0  0
  9 10  1  0  0  0
  3  7  1  0  0  0
 12 13  1  0  0  0
 33 34  1  0  0  0
 38 45  1  0  0  0
 40 46  1  0  0  0
 44 47  1  0  0  0
M  END
> <minimizedAffinity>
-9.24925

$$$$
4ZEB_AGR_A_601


 47 49  0  0  0  0  0  0  0  0999 V2000
   29.8750   25.6562   31.7581 C   0  0  0  0  0  0  0  0  0  0  0  0
   29.6530   24.1896   31.4521 C   0  0  0  0  0  0  0  0  0  0  0  0
   30.0328   23.8027   30.1504 O   0  0  0  0  0  0  0  0  0  0  0  0
   29.8899   25.6825   33.1630 O   0  0  0  0  0  0  0  0  0  0  0  0
   30.1698   24.3909   33.6380 C   0  0  0  0  0  0  0  0  0  0  0  0
   30.3863   23.5377   32.4460 C   0  0  0  0  0  0  0  0  0  0  0  0
   30.9765   23.9864   30.0209 H   0  0  0  0  0  0  0  0  0  0  0  0
   28.7531   26.4808   31.1480 C   0  0  0  0  0  0  0  0  0  0  0  0
   27.6633   26.7814   31.9724 O   0  0  0  0  0  0  0  0  0  0  0  0
   27.2095   25.9607   32.2204 H   0  0  0  0  0  0  0  0  0  0  0  0
   31.3824   24.4054   34.5006 C   0  0  0  0  0  0  0  0  0  0  0  0
   32.3147   23.4086   34.1925 O   0  0  0  0  0  0  0  0  0  0  0  0
   32.6419   23.5400   33.2889 H   0  0  0  0  0  0  0  0  0  0  0  0
   31.1548   26.0146   31.1361 O   0  0  0  0  0  0  0  0  0  0  0  0
   32.2783   26.9578   28.7423 O   0  0  0  0  0  0  0  0  0  0  0  0
   32.6222   27.5811   29.9677 C   0  0  0  0  0  0  0  0  0  0  0  0
   34.0430   27.3168   30.4222 C   0  0  0  0  0  0  0  0  0  0  0  0
   34.7930   26.5629   29.4357 O   0  0  0  0  0  0  0  0  0  0  0  0
   34.2474   26.7750   31.7520 C   0  0  0  0  0  0  0  0  0  0  0  0
   35.6462   26.6593   32.1131 O   0  0  0  0  0  0  0  0  0  0  0  0
   33.2667   27.1613   32.8443 C   0  0  0  0  0  0  0  0  0  0  0  0
   32.0182   27.8251   32.2949 O   0  0  0  0  0  0  0  0  0  0  0  0
   31.5582   27.3753   31.0368 C   0  0  0  0  0  0  0  0  0  0  0  0
   31.3592   27.1715   28.5176 H   0  0  0  0  0  0  0  0  0  0  0  0
   34.4295   25.6660   29.3693 H   0  0  0  0  0  0  0  0  0  0  0  0
   36.0266   27.5450   32.2208 H   0  0  0  0  0  0  0  0  0  0  0  0
   33.7655   27.9239   33.9845 C   0  0  0  0  0  0  0  0  0  0  0  0
   34.6264   27.3026   34.8867 O   0  0  0  0  0  0  0  0  0  0  0  0
   35.4589   27.0824   34.4401 H   0  0  0  0  0  0  0  0  0  0  0  0
   29.8023   22.2598   32.7105 O   0  0  0  0  0  0  0  0  0  0  0  0
   29.5455   19.7471   32.7920 O   0  0  0  0  0  0  0  0  0  0  0  0
   30.3054   20.8453   32.1018 P   0  0  0  0  0  0  0  0  0  0  0  0
   30.0909   20.7741   30.6252 O   0  0  0  0  0  0  0  0  0  0  0  0
   30.4020   19.9170   30.2942 H   0  0  0  0  0  0  0  0  0  0  0  0
   31.8719   20.7485   32.3680 O   0  0  0  0  0  0  0  0  0  0  0  0
   32.8675   20.2133   31.4539 C   0  0  0  0  0  0  0  0  0  0  0  0
   32.8754   18.7690   31.5368 C   0  0  0  0  0  0  0  0  0  0  0  0
   31.6007   18.1817   31.0996 O   0  0  0  0  0  0  0  0  0  0  0  0
   33.9629   18.1040   30.8904 C   0  0  0  0  0  0  0  0  0  0  0  0
   33.9309   18.2914   29.4551 O   0  0  0  0  0  0  0  0  0  0  0  0
   35.2864   18.6896   31.3469 C   0  0  0  0  0  0  0  0  0  0  0  0
   35.3063   20.1035   31.1811 O   0  0  0  0  0  0  0  0  0  0  0  0
   34.2302   20.7840   31.8168 C   0  0  0  0  0  0  0  0  0  0  0  0
   34.3275   22.1273   31.5407 O   0  0  0  0  0  0  0  0  0  0  0  0
   31.4785   18.3436   30.1511 H   0  0  0  0  0  0  0  0  0  0  0  0
   34.0176   19.2355   29.2503 H   0  0  0  0  0  0  0  0  0  0  0  0
   34.2536   22.2668   30.5837 H   0  0  0  0  0  0  0  0  0  0  0  0
 41 42  1  0  0  0
 41 39  1  0  0  0
 42 43  1  0  0  0
 43 44  1  0  0  0
 43 36  1  0  0  0
 39 40  1  0  0  0
 39 37  1  0  0  0
 37 36  1  0  0  0
 37 38  1  0  0  0
 36 35  1  0  0  0
 35 32  1  0  0  0
 31 32  2  0  0  0
 32 33  1  0  0  0
 32 30  1  0  0  0
 11 12  1  0  0  0
 11  5  1  0  0  0
 30  6  1  0  0  0
 27 28  1  0  0  0
 27 21  1  0  0  0
  5  6  1  0  0  0
  5  4  1  0  0  0
  6  2  1  0  0  0
 21 22  1  0  0  0
 21 19  1  0  0  0
  4  1  1  0  0  0
  2  3  1  0  0  0
  2  1  1  0  0  0
 22 23  1  0  0  0
 20 19  1  0  0  0
 19 17  1  0  0  0
  1 14  1  0  0  0
  1  8  1  0  0  0
 14 23  1  0  0  0
 23 16  1  0  0  0
 17 16  1  0  0  0
 17 18  1  0  0  0
  8  9  1  0  0  0
 16 15  1  0  0  0
 15 24  1  0  0  0
 18 25  1  0  0  0
 20 26  1  0  0  0
 28 29  1  0  0  0
  9 10  1  0  0  0
  3  7  1  0  0  0
 12 13  1  0  0  0
 33 34  1  0  0  0
 38 45  1  0  0  0
 40 46  1  0  0  0
 44 47  1  0  0  0
M  END
> <minimizedAffinity>
-9.24212

$$$$
4ZEB_AGR_A_601


 47 49  0  0  0  0  0  0  0  0999 V2000
   32.7945   26.1417   32.7465 C   0  0  0  0  0  0  0  0  0  0  0  0
   32.8882   24.7035   32.2809 C   0  0  0  0  0  0  0  0  0  0  0  0
   33.8377   23.9273   32.9769 O   0  0  0  0  0  0  0  0  0  0  0  0
   31.5296   26.5382   32.2802 O   0  0  0  0  0  0  0  0  0  0  0  0
   30.7540   25.3919   32.0421 C   0  0  0  0  0  0  0  0  0  0  0  0
   31.5838   24.2286   32.4346 C   0  0  0  0  0  0  0  0  0  0  0  0
   33.6141   23.9126   33.9207 H   0  0  0  0  0  0  0  0  0  0  0  0
   33.9393   26.9464   32.1525 C   0  0  0  0  0  0  0  0  0  0  0  0
   35.2227   26.3987   32.2547 O   0  0  0  0  0  0  0  0  0  0  0  0
   35.4737   26.3353   33.1895 H   0  0  0  0  0  0  0  0  0  0  0  0
   29.5003   25.4367   32.8427 C   0  0  0  0  0  0  0  0  0  0  0  0
   29.4176   24.4489   33.8303 O   0  0  0  0  0  0  0  0  0  0  0  0
   30.1351   24.5717   34.4714 H   0  0  0  0  0  0  0  0  0  0  0  0
   32.9129   26.1069   34.2085 O   0  0  0  0  0  0  0  0  0  0  0  0
   32.9436   28.7378   35.1882 O   0  0  0  0  0  0  0  0  0  0  0  0
   32.2660   27.7294   35.9178 C   0  0  0  0  0  0  0  0  0  0  0  0
   32.9454   27.3373   37.2139 C   0  0  0  0  0  0  0  0  0  0  0  0
   34.1015   28.1689   37.4894 O   0  0  0  0  0  0  0  0  0  0  0  0
   33.2527   25.9364   37.4299 C   0  0  0  0  0  0  0  0  0  0  0  0
   33.8073   25.6688   38.7419 O   0  0  0  0  0  0  0  0  0  0  0  0
   32.3235   24.8959   36.8314 C   0  0  0  0  0  0  0  0  0  0  0  0
   31.3644   25.4895   35.8170 O   0  0  0  0  0  0  0  0  0  0  0  0
   31.8477   26.5622   35.0345 C   0  0  0  0  0  0  0  0  0  0  0  0
   32.4518   28.9347   34.3756 H   0  0  0  0  0  0  0  0  0  0  0  0
   34.7931   27.9886   36.8336 H   0  0  0  0  0  0  0  0  0  0  0  0
   33.1240   25.8076   39.4162 H   0  0  0  0  0  0  0  0  0  0  0  0
   31.5940   24.0156   37.7386 C   0  0  0  0  0  0  0  0  0  0  0  0
   31.3472   24.4442   39.0412 O   0  0  0  0  0  0  0  0  0  0  0  0
   30.7554   25.2125   39.0221 H   0  0  0  0  0  0  0  0  0  0  0  0
   31.3423   23.1809   31.4923 O   0  0  0  0  0  0  0  0  0  0  0  0
   29.8064   21.8262   32.9728 O   0  0  0  0  0  0  0  0  0  0  0  0
   30.7932   21.6984   31.8458 P   0  0  0  0  0  0  0  0  0  0  0  0
   30.1472   21.0542   30.6630 O   0  0  0  0  0  0  0  0  0  0  0  0
   29.8306   20.1708   30.9087 H   0  0  0  0  0  0  0  0  0  0  0  0
   32.0530   20.8134   32.2504 O   0  0  0  0  0  0  0  0  0  0  0  0
   32.9673   20.1507   31.3350 C   0  0  0  0  0  0  0  0  0  0  0  0
   32.7937   18.7175   31.4291 C   0  0  0  0  0  0  0  0  0  0  0  0
   31.4523   18.2925   31.0036 O   0  0  0  0  0  0  0  0  0  0  0  0
   33.7845   17.9162   30.7820 C   0  0  0  0  0  0  0  0  0  0  0  0
   33.7671   18.0959   29.3454 O   0  0  0  0  0  0  0  0  0  0  0  0
   35.1742   18.3335   31.2265 C   0  0  0  0  0  0  0  0  0  0  0  0
   35.3710   19.7324   31.0496 O   0  0  0  0  0  0  0  0  0  0  0  0
   34.3934   20.5475   31.6859 C   0  0  0  0  0  0  0  0  0  0  0  0
   34.6573   21.8658   31.3988 O   0  0  0  0  0  0  0  0  0  0  0  0
   31.3454   18.4618   30.0545 H   0  0  0  0  0  0  0  0  0  0  0  0
   33.9708   19.0202   29.1327 H   0  0  0  0  0  0  0  0  0  0  0  0
   34.5955   22.0069   30.4411 H   0  0  0  0  0  0  0  0  0  0  0  0
 41 42  1  0  0  0
 41 39  1  0  0  0
 42 43  1  0  0  0
 43 44  1  0  0  0
 43 36  1  0  0  0
 39 40  1  0  0  0
 39 37  1  0  0  0
 37 36  1  0  0  0
 37 38  1  0  0  0
 36 35  1  0  0  0
 35 32  1  0  0  0
 31 32  2  0  0  0
 32 33  1  0  0  0
 32 30  1  0  0  0
 11 12  1  0  0  0
 11  5  1  0  0  0
 30  6  1  0  0  0
 27 28  1  0  0  0
 27 21  1  0  0  0
  5  6  1  0  0  0
  5  4  1  0  0  0
  6  2  1  0  0  0
 21 22  1  0  0  0
 21 19  1  0  0  0
  4  1  1  0  0  0
  2  3  1  0  0  0
  2  1  1  0  0  0
 22 23  1  0  0  0
 20 19  1  0  0  0
 19 17  1  0  0  0
  1 14  1  0  0  0
  1  8  1  0  0  0
 14 23  1  0  0  0
 23 16  1  0  0  0
 17 16  1  0  0  0
 17 18  1  0  0  0
  8  9  1  0  0  0
 16 15  1  0  0  0
 15 24  1  0  0  0
 18 25  1  0  0  0
 20 26  1  0  0  0
 28 29  1  0  0  0
  9 10  1  0  0  0
  3  7  1  0  0  0
 12 13  1  0  0  0
 33 34  1  0  0  0
 38 45  1  0  0  0
 40 46  1  0  0  0
 44 47  1  0  0  0
M  END
> <minimizedAffinity>
-9.10923

$$$$
