4ZEB_AGR_A_601
  RCSB PDB12061716373D
Coordinates from PDB:4ZEB:A:601 Model:1 without hydrogens
 36 38  0  0  0  0            999 V2000
   33.0760   28.9000   36.0110   O 0  0  0  0  0  0  0  0  0  0  0  0
   32.5830   27.7640   36.7000   C 0  0  0  0  0  0  0  0  0  0  0  0
   33.4570   27.3070   37.8500   C 0  0  0  0  0  0  0  0  0  0  0  0
   34.5700   28.2100   38.0730   O 0  0  0  0  0  0  0  0  0  0  0  0
   33.9000   25.9260   37.8670   C 0  0  0  0  0  0  0  0  0  0  0  0
   34.6430   25.5790   39.0620   O 0  0  0  0  0  0  0  0  0  0  0  0
   32.9850   24.8700   37.2740   C 0  0  0  0  0  0  0  0  0  0  0  0
   32.4540   23.8380   38.1590   C 0  0  0  0  0  0  0  0  0  0  0  0
   31.2740   24.0890   38.8560   O 0  0  0  0  0  0  0  0  0  0  0  0
   31.8560   25.4720   36.4590   O 0  0  0  0  0  0  0  0  0  0  0  0
   32.1450   26.6590   35.7490   C 0  0  0  0  0  0  0  0  0  0  0  0
   33.1240   26.3910   34.7520   O 0  0  0  0  0  0  0  0  0  0  0  0
   32.7330   26.1980   33.3510   C 0  0  0  0  0  0  0  0  0  0  0  0
   32.5150   27.5460   32.6830   C 0  0  0  0  0  0  0  0  0  0  0  0
   33.2620   28.6250   33.1680   O 0  0  0  0  0  0  0  0  0  0  0  0
   33.8890   25.4810   32.6850   C 0  0  0  0  0  0  0  0  0  0  0  0
   35.1630   25.9260   33.0940   O 0  0  0  0  0  0  0  0  0  0  0  0
   31.6650   25.3030   33.1690   O 0  0  0  0  0  0  0  0  0  0  0  0
   32.1840   24.0230   32.9150   C 0  0  0  0  0  0  0  0  0  0  0  0
   31.6780   23.0480   33.9190   C 0  0  0  0  0  0  0  0  0  0  0  0
   30.2910   22.8660   33.8900   O 0  0  0  0  0  0  0  0  0  0  0  0
   33.6590   24.1390   32.9960   C 0  0  0  0  0  0  0  0  0  0  0  0
   34.2200   23.3090   31.9760   O 0  0  0  0  0  0  0  0  0  0  0  0
   36.2780   22.2170   30.9970   O 0  0  0  0  0  0  0  0  0  0  0  0
   35.3690   22.1880   32.1940   P 0  0  0  0  0  0  0  0  0  0  0  0
   36.1500   22.4360   33.4430   O 0  0  0  0  0  0  0  0  0  0  0  0
   34.6340   20.7850   32.3540   O 0  0  0  0  0  0  0  0  0  0  0  0
   34.2580   19.8840   31.2770   C 0  0  0  0  0  0  0  0  0  0  0  0
   32.8330   19.6390   31.3250   C 0  0  0  0  0  0  0  0  0  0  0  0
   32.0520   20.8620   31.0900   O 0  0  0  0  0  0  0  0  0  0  0  0
   32.3440   18.5840   30.4940   C 0  0  0  0  0  0  0  0  0  0  0  0
   32.5190   18.8820   29.0880   O 0  0  0  0  0  0  0  0  0  0  0  0
   33.1310   17.3100   30.7400   C 0  0  0  0  0  0  0  0  0  0  0  0
   34.5300   17.5370   30.6050   O 0  0  0  0  0  0  0  0  0  0  0  0
   35.0360   18.5850   31.4240   C 0  0  0  0  0  0  0  0  0  0  0  0
   36.3770   18.7440   31.1660   O 0  0  0  0  0  0  0  0  0  0  0  0
 33 34  1  0  0  0  0
 33 31  1  0  0  0  0
 34 35  1  0  0  0  0
 35 36  1  0  0  0  0
 35 28  1  0  0  0  0
 31 32  1  0  0  0  0
 31 29  1  0  0  0  0
 29 28  1  0  0  0  0
 29 30  1  0  0  0  0
 28 27  1  0  0  0  0
 27 25  1  0  0  0  0
 24 25  2  0  0  0  0
 25 26  1  0  0  0  0
 25 23  1  0  0  0  0
 20 21  1  0  0  0  0
 20 19  1  0  0  0  0
 23 22  1  0  0  0  0
  8  9  1  0  0  0  0
  8  7  1  0  0  0  0
 19 22  1  0  0  0  0
 19 18  1  0  0  0  0
 22 16  1  0  0  0  0
  7 10  1  0  0  0  0
  7  5  1  0  0  0  0
 18 13  1  0  0  0  0
 16 17  1  0  0  0  0
 16 13  1  0  0  0  0
 10 11  1  0  0  0  0
  6  5  1  0  0  0  0
  5  3  1  0  0  0  0
 13 12  1  0  0  0  0
 13 14  1  0  0  0  0
 12 11  1  0  0  0  0
 11  2  1  0  0  0  0
  3  2  1  0  0  0  0
  3  4  1  0  0  0  0
 14 15  1  0  0  0  0
  2  1  1  0  0  0  0
A    1
O2
A    2
C2
A    3
C3
A    4
O3
A    5
C4
A    6
O4
A    7
C5
A    8
C6
A    9
O6
A   10
O5
A   11
C1
A   12
O1
A   13
CBH
A   14
CAO
A   15
OAD
A   16
CBD
A   17
OAK
A   18
OAR
A   19
CBC
A   20
CAN
A   21
OAC
A   22
CBG
A   23
OAU
A   24
O15
A   25
P1
A   26
OAL
A   27
OBA
A   28
CBO
A   29
CBM
A   30
O14
A   31
CBL
A   32
O10
A   33
CBN
A   34
OAX
A   35
C8
A   36
OAH
M  END
>  <InstanceId>
4ZEB_AGR_A_601

>  <ChemCompId>
AGR

>  <PdbId>
4ZEB

>  <ChainId>
A

>  <ResidueNumber>
601

>  <InsertionCode>


>  <Model>
1

>  <AltIds>


>  <MissingHeavyAtoms>
0

>  <ObservedFormula>
C17 O18 P

>  <Name>
[(2R,3S,4S,5S)-2,5-bis(hydroxymethyl)-5-[(2R,3R,4R,5R,6R)-6-(hydroxymethyl)-3,4,5-tris(oxidanyl)oxan-2-yl]oxy-4-oxidanyl-oxolan-3-yl] [(2R,3R,4S,5S)-2,4,5-tris(oxidanyl)oxan-3-yl] hydrogen phosphate

>  <SystematicName>
[(2R,3S,4S,5S)-2,5-bis(hydroxymethyl)-5-[(2R,3R,4R,5R,6R)-6-(hydroxymethyl)-3,4,5-tris(oxidanyl)oxan-2-yl]oxy-4-oxidanyl-oxolan-3-yl] [(2R,3R,4S,5S)-2,4,5-tris(oxidanyl)oxan-3-yl] hydrogen phosphate

>  <Synonyms>
agrocinopine A

>  <Type>
NON-POLYMER

>  <Formula>
C17 H31 O18 P

>  <MolecularWeight>
554.391

>  <ModifiedDate>
2015-08-14

>  <Parent>


>  <OneLetterCode>


>  <SubcomponentList>


>  <AmbiguousFlag>
N

>  <InChI>
InChI=1S/C17H31O18P/c18-1-6-9(23)10(24)11(25)16(31-6)33-17(4-20)14(26)12(7(2-19)32-17)34-36(28,29)35-13-8(22)5(21)3-30-15(13)27/h5-16,18-27H,1-4H2,(H,28,29)/t5-,6+,7+,8-,9-,10+,11+,12+,13+,14-,15+,16+,17-/m0/s1

>  <InChIKey>
BUKOQCAFSQWRGX-FSCBZTLPSA-N

>  <SMILES>
C1[C@@H]([C@@H]([C@H]([C@@H](O1)O)OP(=O)(O)O[C@@H]2[C@H](O[C@@]([C@H]2O)(CO)O[C@@H]3[C@@H]([C@@H]([C@H]([C@H](O3)CO)O)O)O)CO)O)O

$$$$
