3CDB_9HI_A_1


 52 55  0  0  0  0  0  0  0  0999 V2000
   14.3333    6.7945   45.3122 N   0  0  0  0  0  0  0  0  0  0  0  0
   14.5031    5.5633   45.8216 C   0  0  0  0  0  0  0  0  0  0  0  0
   16.1832    6.8622   46.5596 C   0  0  0  0  0  0  0  0  0  0  0  0
   15.6886    5.6014   46.6634 C   0  0  0  0  0  0  0  0  0  0  0  0
   15.3391    7.6282   45.7370 C   0  0  0  0  0  0  0  0  0  0  0  0
   13.4106    2.1637   44.6347 C   0  0  0  0  0  0  0  0  0  0  0  0
   12.7904    3.9647   46.6633 C   0  0  0  0  0  0  0  0  0  0  0  0
   12.1159    2.7539   46.5821 C   0  0  0  0  0  0  0  0  0  0  0  0
   13.7795    4.2695   45.7318 C   0  0  0  0  0  0  0  0  0  0  0  0
   12.4287    1.8601   45.5648 C   0  0  0  0  0  0  0  0  0  0  0  0
   14.0877    3.3737   44.7174 C   0  0  0  0  0  0  0  0  0  0  0  0
   11.7816    0.6964   45.4868 F   0  0  0  0  0  0  0  0  0  0  0  0
   17.7666    2.5972   47.3562 C   0  0  0  0  0  0  0  0  0  0  0  0
   17.5159    2.3767   48.6940 C   0  0  0  0  0  0  0  0  0  0  0  0
   16.2935    4.4741   47.4095 C   0  0  0  0  0  0  0  0  0  0  0  0
   17.1588    3.6509   46.7142 C   0  0  0  0  0  0  0  0  0  0  0  0
   16.0378    4.2599   48.7588 C   0  0  0  0  0  0  0  0  0  0  0  0
   16.6548    3.2023   49.4085 C   0  0  0  0  0  0  0  0  0  0  0  0
   18.1220    1.3464   49.2815 F   0  0  0  0  0  0  0  0  0  0  0  0
   15.5212    9.0730   45.3989 C   0  0  0  0  0  0  0  0  0  0  0  0
   14.2306    9.8815   45.5437 C   0  0  0  0  0  0  0  0  0  0  0  0
   16.1341    9.2015   44.0051 C   0  0  0  0  0  0  0  0  0  0  0  0
   17.5388    7.3468   47.3751 S   0  0  0  0  0  0  0  0  0  0  0  0
   17.6709    8.7698   47.4225 O   0  0  0  0  0  0  0  0  0  0  0  0
   18.6831    6.8653   46.6645 O   0  0  0  0  0  0  0  0  0  0  0  0
   17.6004    6.7531   48.8773 N   0  0  0  0  0  0  0  0  0  0  0  0
   16.7354    6.5106   49.2800 H   0  0  0  0  0  0  0  0  0  0  0  0
   18.5254    5.9556   50.9187 C   0  0  0  0  0  0  0  0  0  0  0  0
   19.6148    5.7196   51.7664 C   0  0  0  0  0  0  0  0  0  0  0  0
   20.0103    6.8890   49.2916 C   0  0  0  0  0  0  0  0  0  0  0  0
   20.9074    6.0713   51.3714 C   0  0  0  0  0  0  0  0  0  0  0  0
   21.0950    6.6559   50.1259 C   0  0  0  0  0  0  0  0  0  0  0  0
   18.7053    6.5450   49.6605 C   0  0  0  0  0  0  0  0  0  0  0  0
   22.5972    4.5854   52.3734 N   0  0  0  0  0  0  0  0  0  0  0  0
   22.5770    6.7641   52.8788 O   0  0  0  0  0  0  0  0  0  0  0  0
   22.0967    5.8241   52.2621 C   0  0  0  0  0  0  0  0  0  0  0  0
   23.3744    4.4189   52.9544 H   0  0  0  0  0  0  0  0  0  0  0  0
   22.1876    3.8422   51.8743 H   0  0  0  0  0  0  0  0  0  0  0  0
   13.2154    7.1166   44.4310 C   0  0  0  0  0  0  0  0  0  0  0  0
   13.6462    6.9705   42.9821 C   0  0  0  0  0  0  0  0  0  0  0  0
   12.5126    6.3962   42.1442 C   0  0  0  0  0  0  0  0  0  0  0  0
   11.3889    7.2585   42.2224 O   0  0  0  0  0  0  0  0  0  0  0  0
   11.6332    8.1384   41.8951 H   0  0  0  0  0  0  0  0  0  0  0  0
   12.9829    6.2921   40.7002 C   0  0  0  0  0  0  0  0  0  0  0  0
   12.6892    4.9277   40.0951 C   0  0  0  0  0  0  0  0  0  0  0  0
   12.8933    4.9801   38.6910 O   0  0  0  0  0  0  0  0  0  0  0  0
   13.8110    5.2348   38.5070 H   0  0  0  0  0  0  0  0  0  0  0  0
   13.6095    3.9032   40.7462 C   0  0  0  0  0  0  0  0  0  0  0  0
   14.2427    2.9990   39.7159 C   0  0  0  0  0  0  0  0  0  0  0  0
   13.5849    2.1348   39.1513 O   0  0  0  0  0  0  0  0  0  0  0  0
   15.5304    3.1441   39.4273 O   0  0  0  0  0  0  0  0  0  0  0  0
   16.0355    3.8051   39.8584 H   0  0  0  0  0  0  0  0  0  0  0  0
 39  1  1  0  0  0
  1  2  1  0  0  0
  1  5  1  0  0  0
 34 36  1  0  0  0
  9  2  1  0  0  0
  2  4  2  0  0  0
 21 20  1  0  0  0
 20  5  1  0  0  0
 20 22  1  0  0  0
 39 40  1  0  0  0
 41 40  1  0  0  0
 41 44  1  0  0  0
 44 45  1  0  0  0
  6 11  2  0  0  0
  6 10  1  0  0  0
 29 28  2  0  0  0
 28 33  1  0  0  0
 31 29  1  0  0  0
  9  7  2  0  0  0
  8  7  1  0  0  0
 14 13  2  0  0  0
 16 13  1  0  0  0
 10  8  2  0  0  0
 32 30  1  0  0  0
 30 33  2  0  0  0
 18 14  1  0  0  0
 14 19  1  0  0  0
 35 36  2  0  0  0
 36 31  1  0  0  0
 31 32  2  0  0  0
 33 26  1  0  0  0
 26 23  1  0  0  0
  3 23  1  0  0  0
 24 23  2  0  0  0
 23 25  2  0  0  0
  5  3  2  0  0  0
  4  3  1  0  0  0
  4 15  1  0  0  0
 17 15  1  0  0  0
 15 16  2  0  0  0
 17 18  2  0  0  0
 11  9  1  0  0  0
 12 10  1  0  0  0
 42 41  1  0  0  0
 46 45  1  0  0  0
 45 48  1  0  0  0
 48 49  1  0  0  0
 50 49  2  0  0  0
 49 51  1  0  0  0
 34 37  1  0  0  0
 34 38  1  0  0  0
 26 27  1  0  0  0
 42 43  1  0  0  0
 46 47  1  0  0  0
 51 52  1  0  0  0
M  END
> <minimizedAffinity>
-9.08316

$$$$
3CDB_9HI_A_1


 52 55  0  0  0  0  0  0  0  0999 V2000
   16.5414    7.2864   47.0113 N   0  0  0  0  0  0  0  0  0  0  0  0
   16.1163    6.3283   47.8511 C   0  0  0  0  0  0  0  0  0  0  0  0
   14.4757    6.7361   46.3692 C   0  0  0  0  0  0  0  0  0  0  0  0
   14.7822    5.9372   47.4240 C   0  0  0  0  0  0  0  0  0  0  0  0
   15.5697    7.5710   46.0829 C   0  0  0  0  0  0  0  0  0  0  0  0
   17.1265    5.5257   51.3860 C   0  0  0  0  0  0  0  0  0  0  0  0
   17.3106    4.3874   48.8534 C   0  0  0  0  0  0  0  0  0  0  0  0
   17.8391    3.7224   49.9516 C   0  0  0  0  0  0  0  0  0  0  0  0
   16.6847    5.6193   49.0259 C   0  0  0  0  0  0  0  0  0  0  0  0
   17.7461    4.2978   51.2133 C   0  0  0  0  0  0  0  0  0  0  0  0
   16.5950    6.1899   50.2879 C   0  0  0  0  0  0  0  0  0  0  0  0
   18.2530    3.6589   52.2687 F   0  0  0  0  0  0  0  0  0  0  0  0
   12.2406    4.5016   49.7268 C   0  0  0  0  0  0  0  0  0  0  0  0
   12.1711    3.1929   49.2982 C   0  0  0  0  0  0  0  0  0  0  0  0
   13.8945    4.9384   48.0627 C   0  0  0  0  0  0  0  0  0  0  0  0
   13.0995    5.3771   49.1045 C   0  0  0  0  0  0  0  0  0  0  0  0
   13.8281    3.6215   47.6231 C   0  0  0  0  0  0  0  0  0  0  0  0
   12.9581    2.7398   48.2451 C   0  0  0  0  0  0  0  0  0  0  0  0
   11.3283    2.3742   49.9254 F   0  0  0  0  0  0  0  0  0  0  0  0
   15.6405    8.5733   44.9760 C   0  0  0  0  0  0  0  0  0  0  0  0
   16.9808    8.5471   44.2392 C   0  0  0  0  0  0  0  0  0  0  0  0
   15.3020    9.9616   45.5173 C   0  0  0  0  0  0  0  0  0  0  0  0
   13.0354    6.6178   45.5636 S   0  0  0  0  0  0  0  0  0  0  0  0
   12.9292    7.5558   44.4895 O   0  0  0  0  0  0  0  0  0  0  0  0
   11.9843    6.9410   46.4784 O   0  0  0  0  0  0  0  0  0  0  0  0
   12.7638    5.1270   45.0010 N   0  0  0  0  0  0  0  0  0  0  0  0
   12.2725    4.5226   45.6031 H   0  0  0  0  0  0  0  0  0  0  0  0
   12.3993    4.9688   42.6555 C   0  0  0  0  0  0  0  0  0  0  0  0
   12.7241    4.4609   41.3915 C   0  0  0  0  0  0  0  0  0  0  0  0
   14.1910    3.7033   43.6103 C   0  0  0  0  0  0  0  0  0  0  0  0
   13.7888    3.5698   41.2398 C   0  0  0  0  0  0  0  0  0  0  0  0
   14.5200    3.1977   42.3601 C   0  0  0  0  0  0  0  0  0  0  0  0
   13.1314    4.5988   43.7912 C   0  0  0  0  0  0  0  0  0  0  0  0
   15.3792    3.2566   39.3850 N   0  0  0  0  0  0  0  0  0  0  0  0
   13.3358    2.3537   39.2761 O   0  0  0  0  0  0  0  0  0  0  0  0
   14.1619    3.0125   39.8910 C   0  0  0  0  0  0  0  0  0  0  0  0
   15.6277    2.8946   38.5039 H   0  0  0  0  0  0  0  0  0  0  0  0
   16.0246    3.7980   39.8946 H   0  0  0  0  0  0  0  0  0  0  0  0
   17.8616    7.8950   47.1411 C   0  0  0  0  0  0  0  0  0  0  0  0
   18.9319    6.8786   46.7835 C   0  0  0  0  0  0  0  0  0  0  0  0
   20.0963    6.9647   47.7600 C   0  0  0  0  0  0  0  0  0  0  0  0
   21.1847    7.6251   47.1343 O   0  0  0  0  0  0  0  0  0  0  0  0
   20.9102    8.5151   46.8630 H   0  0  0  0  0  0  0  0  0  0  0  0
   19.6467    7.7553   48.9807 C   0  0  0  0  0  0  0  0  0  0  0  0
   20.4671    7.4224   50.2176 C   0  0  0  0  0  0  0  0  0  0  0  0
   21.6629    6.7637   49.8279 O   0  0  0  0  0  0  0  0  0  0  0  0
   22.1718    7.3404   49.2367 H   0  0  0  0  0  0  0  0  0  0  0  0
   20.7702    8.7185   50.9584 C   0  0  0  0  0  0  0  0  0  0  0  0
   21.2010    9.8086   50.0065 C   0  0  0  0  0  0  0  0  0  0  0  0
   22.1202    9.6261   49.2190 O   0  0  0  0  0  0  0  0  0  0  0  0
   20.5751   10.9791   50.0325 O   0  0  0  0  0  0  0  0  0  0  0  0
   19.8712   11.1207   50.6346 H   0  0  0  0  0  0  0  0  0  0  0  0
 39  1  1  0  0  0
  1  2  1  0  0  0
  1  5  1  0  0  0
 34 36  1  0  0  0
  9  2  1  0  0  0
  2  4  2  0  0  0
 21 20  1  0  0  0
 20  5  1  0  0  0
 20 22  1  0  0  0
 39 40  1  0  0  0
 41 40  1  0  0  0
 41 44  1  0  0  0
 44 45  1  0  0  0
  6 11  2  0  0  0
  6 10  1  0  0  0
 29 28  2  0  0  0
 28 33  1  0  0  0
 31 29  1  0  0  0
  9  7  2  0  0  0
  8  7  1  0  0  0
 14 13  2  0  0  0
 16 13  1  0  0  0
 10  8  2  0  0  0
 32 30  1  0  0  0
 30 33  2  0  0  0
 18 14  1  0  0  0
 14 19  1  0  0  0
 35 36  2  0  0  0
 36 31  1  0  0  0
 31 32  2  0  0  0
 33 26  1  0  0  0
 26 23  1  0  0  0
  3 23  1  0  0  0
 24 23  2  0  0  0
 23 25  2  0  0  0
  5  3  2  0  0  0
  4  3  1  0  0  0
  4 15  1  0  0  0
 17 15  1  0  0  0
 15 16  2  0  0  0
 17 18  2  0  0  0
 11  9  1  0  0  0
 12 10  1  0  0  0
 42 41  1  0  0  0
 46 45  1  0  0  0
 45 48  1  0  0  0
 48 49  1  0  0  0
 50 49  2  0  0  0
 49 51  1  0  0  0
 34 37  1  0  0  0
 34 38  1  0  0  0
 26 27  1  0  0  0
 42 43  1  0  0  0
 46 47  1  0  0  0
 51 52  1  0  0  0
M  END
> <minimizedAffinity>
-9.03286

$$$$
3CDB_9HI_A_1


 52 55  0  0  0  0  0  0  0  0999 V2000
   14.0246    6.4961   45.1918 N   0  0  0  0  0  0  0  0  0  0  0  0
   14.2460    5.2921   45.7445 C   0  0  0  0  0  0  0  0  0  0  0  0
   15.9221    6.6599   46.3558 C   0  0  0  0  0  0  0  0  0  0  0  0
   15.4639    5.3936   46.5331 C   0  0  0  0  0  0  0  0  0  0  0  0
   15.0260    7.3704   45.5385 C   0  0  0  0  0  0  0  0  0  0  0  0
   13.2545    1.7864   44.8028 C   0  0  0  0  0  0  0  0  0  0  0  0
   12.5458    3.7258   46.6683 C   0  0  0  0  0  0  0  0  0  0  0  0
   11.8987    2.4974   46.6664 C   0  0  0  0  0  0  0  0  0  0  0  0
   13.5517    3.9792   45.7394 C   0  0  0  0  0  0  0  0  0  0  0  0
   12.2557    1.5343   45.7303 C   0  0  0  0  0  0  0  0  0  0  0  0
   13.9041    3.0142   44.8062 C   0  0  0  0  0  0  0  0  0  0  0  0
   11.6350    0.3537   45.7286 F   0  0  0  0  0  0  0  0  0  0  0  0
   17.5471    2.3964   47.2403 C   0  0  0  0  0  0  0  0  0  0  0  0
   17.4453    2.2928   48.6115 C   0  0  0  0  0  0  0  0  0  0  0  0
   16.1270    4.3136   47.2993 C   0  0  0  0  0  0  0  0  0  0  0  0
   16.8915    3.4117   46.5837 C   0  0  0  0  0  0  0  0  0  0  0  0
   16.0217    4.2174   48.6819 C   0  0  0  0  0  0  0  0  0  0  0  0
   16.6873    3.1985   49.3454 C   0  0  0  0  0  0  0  0  0  0  0  0
   18.0935    1.2965   49.2123 F   0  0  0  0  0  0  0  0  0  0  0  0
   15.1578    8.8032   45.1330 C   0  0  0  0  0  0  0  0  0  0  0  0
   14.0408    9.6828   45.6974 C   0  0  0  0  0  0  0  0  0  0  0  0
   15.2605    8.8994   43.6114 C   0  0  0  0  0  0  0  0  0  0  0  0
   17.2978    7.2102   47.0923 S   0  0  0  0  0  0  0  0  0  0  0  0
   18.0768    8.0530   46.2393 O   0  0  0  0  0  0  0  0  0  0  0  0
   18.1228    6.0822   47.3969 O   0  0  0  0  0  0  0  0  0  0  0  0
   16.9884    7.9877   48.4753 N   0  0  0  0  0  0  0  0  0  0  0  0
   17.4908    8.8216   48.6219 H   0  0  0  0  0  0  0  0  0  0  0  0
   16.6420    7.2178   50.6993 C   0  0  0  0  0  0  0  0  0  0  0  0
   15.8011    6.8389   51.7531 C   0  0  0  0  0  0  0  0  0  0  0  0
   14.7219    7.6469   49.3382 C   0  0  0  0  0  0  0  0  0  0  0  0
   14.4136    6.8656   51.5951 C   0  0  0  0  0  0  0  0  0  0  0  0
   13.8824    7.2749   50.3792 C   0  0  0  0  0  0  0  0  0  0  0  0
   16.1148    7.6320   49.4691 C   0  0  0  0  0  0  0  0  0  0  0  0
   12.2141    6.1474   52.4401 N   0  0  0  0  0  0  0  0  0  0  0  0
   13.9153    6.4566   53.8588 O   0  0  0  0  0  0  0  0  0  0  0  0
   13.4868    6.4677   52.7139 C   0  0  0  0  0  0  0  0  0  0  0  0
   11.6046    5.8867   53.1679 H   0  0  0  0  0  0  0  0  0  0  0  0
   11.8890    6.1729   51.5111 H   0  0  0  0  0  0  0  0  0  0  0  0
   12.8635    6.7543   44.3460 C   0  0  0  0  0  0  0  0  0  0  0  0
   12.9483    5.9088   43.0872 C   0  0  0  0  0  0  0  0  0  0  0  0
   12.2264    6.5939   41.9355 C   0  0  0  0  0  0  0  0  0  0  0  0
   12.0937    7.9768   42.2220 O   0  0  0  0  0  0  0  0  0  0  0  0
   12.9731    8.3675   42.3443 H   0  0  0  0  0  0  0  0  0  0  0  0
   13.0496    6.4067   40.6687 C   0  0  0  0  0  0  0  0  0  0  0  0
   12.7373    5.0938   39.9668 C   0  0  0  0  0  0  0  0  0  0  0  0
   12.7880    5.2862   38.5611 O   0  0  0  0  0  0  0  0  0  0  0  0
   13.6719    5.5960   38.3088 H   0  0  0  0  0  0  0  0  0  0  0  0
   13.7549    4.0530   40.4160 C   0  0  0  0  0  0  0  0  0  0  0  0
   13.9141    2.9593   39.3871 C   0  0  0  0  0  0  0  0  0  0  0  0
   12.9563    2.2805   39.0403 O   0  0  0  0  0  0  0  0  0  0  0  0
   15.1112    2.7321   38.8600 O   0  0  0  0  0  0  0  0  0  0  0  0
   15.8455    3.2506   39.1242 H   0  0  0  0  0  0  0  0  0  0  0  0
 39  1  1  0  0  0
  1  2  1  0  0  0
  1  5  1  0  0  0
 34 36  1  0  0  0
  9  2  1  0  0  0
  2  4  2  0  0  0
 21 20  1  0  0  0
 20  5  1  0  0  0
 20 22  1  0  0  0
 39 40  1  0  0  0
 41 40  1  0  0  0
 41 44  1  0  0  0
 44 45  1  0  0  0
  6 11  2  0  0  0
  6 10  1  0  0  0
 29 28  2  0  0  0
 28 33  1  0  0  0
 31 29  1  0  0  0
  9  7  2  0  0  0
  8  7  1  0  0  0
 14 13  2  0  0  0
 16 13  1  0  0  0
 10  8  2  0  0  0
 32 30  1  0  0  0
 30 33  2  0  0  0
 18 14  1  0  0  0
 14 19  1  0  0  0
 35 36  2  0  0  0
 36 31  1  0  0  0
 31 32  2  0  0  0
 33 26  1  0  0  0
 26 23  1  0  0  0
  3 23  1  0  0  0
 24 23  2  0  0  0
 23 25  2  0  0  0
  5  3  2  0  0  0
  4  3  1  0  0  0
  4 15  1  0  0  0
 17 15  1  0  0  0
 15 16  2  0  0  0
 17 18  2  0  0  0
 11  9  1  0  0  0
 12 10  1  0  0  0
 42 41  1  0  0  0
 46 45  1  0  0  0
 45 48  1  0  0  0
 48 49  1  0  0  0
 50 49  2  0  0  0
 49 51  1  0  0  0
 34 37  1  0  0  0
 34 38  1  0  0  0
 26 27  1  0  0  0
 42 43  1  0  0  0
 46 47  1  0  0  0
 51 52  1  0  0  0
M  END
> <minimizedAffinity>
-8.99218

$$$$
3CDB_9HI_A_1


 52 55  0  0  0  0  0  0  0  0999 V2000
   16.6815    7.1148   47.0135 N   0  0  0  0  0  0  0  0  0  0  0  0
   16.1512    6.1709   47.8085 C   0  0  0  0  0  0  0  0  0  0  0  0
   14.5899    6.7794   46.3097 C   0  0  0  0  0  0  0  0  0  0  0  0
   14.7974    5.9192   47.3402 C   0  0  0  0  0  0  0  0  0  0  0  0
   15.7619    7.5197   46.0767 C   0  0  0  0  0  0  0  0  0  0  0  0
   16.7794    5.0414   51.3425 C   0  0  0  0  0  0  0  0  0  0  0  0
   17.3615    4.2104   48.7514 C   0  0  0  0  0  0  0  0  0  0  0  0
   17.8016    3.4611   49.8342 C   0  0  0  0  0  0  0  0  0  0  0  0
   16.6248    5.3720   48.9675 C   0  0  0  0  0  0  0  0  0  0  0  0
   17.5097    3.8833   51.1258 C   0  0  0  0  0  0  0  0  0  0  0  0
   16.3364    5.7897   50.2593 C   0  0  0  0  0  0  0  0  0  0  0  0
   17.9315    3.1634   52.1664 F   0  0  0  0  0  0  0  0  0  0  0  0
   12.9666    2.7525   48.0062 C   0  0  0  0  0  0  0  0  0  0  0  0
   12.0549    3.1436   48.9639 C   0  0  0  0  0  0  0  0  0  0  0  0
   13.8076    4.9844   47.9233 C   0  0  0  0  0  0  0  0  0  0  0  0
   13.8481    3.6729   47.4891 C   0  0  0  0  0  0  0  0  0  0  0  0
   12.8934    5.3857   48.8902 C   0  0  0  0  0  0  0  0  0  0  0  0
   12.0089    4.4575   49.4168 C   0  0  0  0  0  0  0  0  0  0  0  0
   11.2170    2.2247   49.4407 F   0  0  0  0  0  0  0  0  0  0  0  0
   15.9498    8.5495   45.0094 C   0  0  0  0  0  0  0  0  0  0  0  0
   17.2661    8.3795   44.2488 C   0  0  0  0  0  0  0  0  0  0  0  0
   15.8025    9.9463   45.6111 C   0  0  0  0  0  0  0  0  0  0  0  0
   13.1643    6.8221   45.4711 S   0  0  0  0  0  0  0  0  0  0  0  0
   13.1855    7.7709   44.4015 O   0  0  0  0  0  0  0  0  0  0  0  0
   12.1338    7.2538   46.3643 O   0  0  0  0  0  0  0  0  0  0  0  0
   12.7452    5.3722   44.8923 N   0  0  0  0  0  0  0  0  0  0  0  0
   12.1991    4.8117   45.4896 H   0  0  0  0  0  0  0  0  0  0  0  0
   14.1015    3.8965   43.6110 C   0  0  0  0  0  0  0  0  0  0  0  0
   14.4672    3.3048   42.3955 C   0  0  0  0  0  0  0  0  0  0  0  0
   12.3974    5.1372   42.4795 C   0  0  0  0  0  0  0  0  0  0  0  0
   13.7921    3.6333   41.2178 C   0  0  0  0  0  0  0  0  0  0  0  0
   12.7531    4.5528   41.2716 C   0  0  0  0  0  0  0  0  0  0  0  0
   13.0546    4.8253   43.6746 C   0  0  0  0  0  0  0  0  0  0  0  0
   15.3968    3.1805   39.4046 N   0  0  0  0  0  0  0  0  0  0  0  0
   13.3187    2.3606   39.2952 O   0  0  0  0  0  0  0  0  0  0  0  0
   14.1624    3.0079   39.8984 C   0  0  0  0  0  0  0  0  0  0  0  0
   15.6435    2.7738   38.5427 H   0  0  0  0  0  0  0  0  0  0  0  0
   16.0565    3.7140   39.9039 H   0  0  0  0  0  0  0  0  0  0  0  0
   18.0482    7.5946   47.1926 C   0  0  0  0  0  0  0  0  0  0  0  0
   18.0950    8.5934   48.3357 C   0  0  0  0  0  0  0  0  0  0  0  0
   19.4665    8.5837   48.9960 C   0  0  0  0  0  0  0  0  0  0  0  0
   19.7055    9.8458   49.5979 O   0  0  0  0  0  0  0  0  0  0  0  0
   19.0183   10.0243   50.2587 H   0  0  0  0  0  0  0  0  0  0  0  0
   19.4841    7.4942   50.0589 C   0  0  0  0  0  0  0  0  0  0  0  0
   20.7340    6.6308   49.9791 C   0  0  0  0  0  0  0  0  0  0  0  0
   21.8846    7.4530   50.1051 O   0  0  0  0  0  0  0  0  0  0  0  0
   21.8568    7.9200   50.9548 H   0  0  0  0  0  0  0  0  0  0  0  0
   20.6754    5.5934   51.0930 C   0  0  0  0  0  0  0  0  0  0  0  0
   21.6285    4.4516   50.8322 C   0  0  0  0  0  0  0  0  0  0  0  0
   22.6027    4.6014   50.1064 O   0  0  0  0  0  0  0  0  0  0  0  0
   21.3986    3.2715   51.3953 O   0  0  0  0  0  0  0  0  0  0  0  0
   20.6534    3.1549   51.9512 H   0  0  0  0  0  0  0  0  0  0  0  0
 39  1  1  0  0  0
  1  2  1  0  0  0
  1  5  1  0  0  0
 34 36  1  0  0  0
  9  2  1  0  0  0
  2  4  2  0  0  0
 21 20  1  0  0  0
 20  5  1  0  0  0
 20 22  1  0  0  0
 39 40  1  0  0  0
 41 40  1  0  0  0
 41 44  1  0  0  0
 44 45  1  0  0  0
  6 11  2  0  0  0
  6 10  1  0  0  0
 29 28  2  0  0  0
 28 33  1  0  0  0
 31 29  1  0  0  0
  9  7  2  0  0  0
  8  7  1  0  0  0
 14 13  2  0  0  0
 16 13  1  0  0  0
 10  8  2  0  0  0
 32 30  1  0  0  0
 30 33  2  0  0  0
 18 14  1  0  0  0
 14 19  1  0  0  0
 35 36  2  0  0  0
 36 31  1  0  0  0
 31 32  2  0  0  0
 33 26  1  0  0  0
 26 23  1  0  0  0
  3 23  1  0  0  0
 24 23  2  0  0  0
 23 25  2  0  0  0
  5  3  2  0  0  0
  4  3  1  0  0  0
  4 15  1  0  0  0
 17 15  1  0  0  0
 15 16  2  0  0  0
 17 18  2  0  0  0
 11  9  1  0  0  0
 12 10  1  0  0  0
 42 41  1  0  0  0
 46 45  1  0  0  0
 45 48  1  0  0  0
 48 49  1  0  0  0
 50 49  2  0  0  0
 49 51  1  0  0  0
 34 37  1  0  0  0
 34 38  1  0  0  0
 26 27  1  0  0  0
 42 43  1  0  0  0
 46 47  1  0  0  0
 51 52  1  0  0  0
M  END
> <minimizedAffinity>
-8.69547

$$$$
3CDB_9HI_A_1


 52 55  0  0  0  0  0  0  0  0999 V2000
   15.1511    7.5477   47.6637 N   0  0  0  0  0  0  0  0  0  0  0  0
   16.2269    7.2215   48.3987 C   0  0  0  0  0  0  0  0  0  0  0  0
   14.4826    6.0117   49.1389 C   0  0  0  0  0  0  0  0  0  0  0  0
   15.8125    6.1967   49.3440 C   0  0  0  0  0  0  0  0  0  0  0  0
   14.0554    6.8309   48.0795 C   0  0  0  0  0  0  0  0  0  0  0  0
   19.3693    9.1050   49.2572 C   0  0  0  0  0  0  0  0  0  0  0  0
   18.5938    6.9502   47.6765 C   0  0  0  0  0  0  0  0  0  0  0  0
   19.9266    7.3376   47.7136 C   0  0  0  0  0  0  0  0  0  0  0  0
   17.6518    7.6389   48.4362 C   0  0  0  0  0  0  0  0  0  0  0  0
   20.3067    8.4164   48.5031 C   0  0  0  0  0  0  0  0  0  0  0  0
   18.0364    8.7159   49.2226 C   0  0  0  0  0  0  0  0  0  0  0  0
   21.5870    8.7884   48.5399 F   0  0  0  0  0  0  0  0  0  0  0  0
   18.0096    3.6885   50.9886 C   0  0  0  0  0  0  0  0  0  0  0  0
   18.2452    4.2730   52.2150 C   0  0  0  0  0  0  0  0  0  0  0  0
   16.6439    5.5503   50.3853 C   0  0  0  0  0  0  0  0  0  0  0  0
   17.2123    4.3307   50.0701 C   0  0  0  0  0  0  0  0  0  0  0  0
   16.8789    6.1472   51.6183 C   0  0  0  0  0  0  0  0  0  0  0  0
   17.6876    5.5041   52.5423 C   0  0  0  0  0  0  0  0  0  0  0  0
   19.0218    3.6212   53.0786 F   0  0  0  0  0  0  0  0  0  0  0  0
   12.6675    6.8967   47.5279 C   0  0  0  0  0  0  0  0  0  0  0  0
   12.4759    6.0039   46.3006 C   0  0  0  0  0  0  0  0  0  0  0  0
   12.2926    8.3522   47.2521 C   0  0  0  0  0  0  0  0  0  0  0  0
   13.6020    4.9121   50.0066 S   0  0  0  0  0  0  0  0  0  0  0  0
   12.2150    5.2529   50.0765 O   0  0  0  0  0  0  0  0  0  0  0  0
   14.0811    4.9202   51.3543 O   0  0  0  0  0  0  0  0  0  0  0  0
   13.7555    3.4085   49.4334 N   0  0  0  0  0  0  0  0  0  0  0  0
   13.8755    2.7011   50.1075 H   0  0  0  0  0  0  0  0  0  0  0  0
   12.5501    2.4604   47.6148 C   0  0  0  0  0  0  0  0  0  0  0  0
   12.4713    2.0177   46.2886 C   0  0  0  0  0  0  0  0  0  0  0  0
   14.8386    3.0631   47.2642 C   0  0  0  0  0  0  0  0  0  0  0  0
   13.5841    2.0998   45.4485 C   0  0  0  0  0  0  0  0  0  0  0  0
   14.7670    2.6283   45.9479 C   0  0  0  0  0  0  0  0  0  0  0  0
   13.7395    2.9949   48.1272 C   0  0  0  0  0  0  0  0  0  0  0  0
   14.1706    2.3261   43.0668 N   0  0  0  0  0  0  0  0  0  0  0  0
   12.8737    0.6358   43.7478 O   0  0  0  0  0  0  0  0  0  0  0  0
   13.5247    1.6350   44.0169 C   0  0  0  0  0  0  0  0  0  0  0  0
   14.1347    2.0263   42.1298 H   0  0  0  0  0  0  0  0  0  0  0  0
   14.6807    3.1334   43.3062 H   0  0  0  0  0  0  0  0  0  0  0  0
   15.2189    8.5414   46.5969 C   0  0  0  0  0  0  0  0  0  0  0  0
   15.5062    7.8539   45.2736 C   0  0  0  0  0  0  0  0  0  0  0  0
   14.3663    8.0885   44.2925 C   0  0  0  0  0  0  0  0  0  0  0  0
   14.4166    9.4277   43.8274 O   0  0  0  0  0  0  0  0  0  0  0  0
   15.2690    9.5873   43.3929 H   0  0  0  0  0  0  0  0  0  0  0  0
   14.5306    7.1298   43.1215 C   0  0  0  0  0  0  0  0  0  0  0  0
   13.1944    6.6303   42.5933 C   0  0  0  0  0  0  0  0  0  0  0  0
   12.3452    7.7382   42.3343 O   0  0  0  0  0  0  0  0  0  0  0  0
   12.7638    8.3208   41.6815 H   0  0  0  0  0  0  0  0  0  0  0  0
   13.4478    5.8241   41.3259 C   0  0  0  0  0  0  0  0  0  0  0  0
   12.5077    4.6467   41.2255 C   0  0  0  0  0  0  0  0  0  0  0  0
   11.7450    4.3734   42.1431 O   0  0  0  0  0  0  0  0  0  0  0  0
   12.5170    3.8992   40.1284 O   0  0  0  0  0  0  0  0  0  0  0  0
   13.1000    4.1069   39.4250 H   0  0  0  0  0  0  0  0  0  0  0  0
 39  1  1  0  0  0
  1  2  1  0  0  0
  1  5  1  0  0  0
 34 36  1  0  0  0
  9  2  1  0  0  0
  2  4  2  0  0  0
 21 20  1  0  0  0
 20  5  1  0  0  0
 20 22  1  0  0  0
 39 40  1  0  0  0
 41 40  1  0  0  0
 41 44  1  0  0  0
 44 45  1  0  0  0
  6 11  2  0  0  0
  6 10  1  0  0  0
 29 28  2  0  0  0
 28 33  1  0  0  0
 31 29  1  0  0  0
  9  7  2  0  0  0
  8  7  1  0  0  0
 14 13  2  0  0  0
 16 13  1  0  0  0
 10  8  2  0  0  0
 32 30  1  0  0  0
 30 33  2  0  0  0
 18 14  1  0  0  0
 14 19  1  0  0  0
 35 36  2  0  0  0
 36 31  1  0  0  0
 31 32  2  0  0  0
 33 26  1  0  0  0
 26 23  1  0  0  0
  3 23  1  0  0  0
 24 23  2  0  0  0
 23 25  2  0  0  0
  5  3  2  0  0  0
  4  3  1  0  0  0
  4 15  1  0  0  0
 17 15  1  0  0  0
 15 16  2  0  0  0
 17 18  2  0  0  0
 11  9  1  0  0  0
 12 10  1  0  0  0
 42 41  1  0  0  0
 46 45  1  0  0  0
 45 48  1  0  0  0
 48 49  1  0  0  0
 50 49  2  0  0  0
 49 51  1  0  0  0
 34 37  1  0  0  0
 34 38  1  0  0  0
 26 27  1  0  0  0
 42 43  1  0  0  0
 46 47  1  0  0  0
 51 52  1  0  0  0
M  END
> <minimizedAffinity>
-8.59243

$$$$
3CDB_9HI_A_1


 52 55  0  0  0  0  0  0  0  0999 V2000
   14.7962    7.5401   48.5469 N   0  0  0  0  0  0  0  0  0  0  0  0
   13.5712    7.2534   49.0172 C   0  0  0  0  0  0  0  0  0  0  0  0
   14.8942    5.4730   49.3835 C   0  0  0  0  0  0  0  0  0  0  0  0
   13.6291    5.9198   49.5949 C   0  0  0  0  0  0  0  0  0  0  0  0
   15.6443    6.4785   48.7492 C   0  0  0  0  0  0  0  0  0  0  0  0
   10.7567    9.4273   50.2468 C   0  0  0  0  0  0  0  0  0  0  0  0
   11.3468    7.8197   48.0534 C   0  0  0  0  0  0  0  0  0  0  0  0
   10.1306    8.4864   48.1161 C   0  0  0  0  0  0  0  0  0  0  0  0
   12.2689    7.9640   49.0868 C   0  0  0  0  0  0  0  0  0  0  0  0
    9.8411    9.2856   49.2157 C   0  0  0  0  0  0  0  0  0  0  0  0
   11.9748    8.7628   50.1831 C   0  0  0  0  0  0  0  0  0  0  0  0
    8.6732    9.9270   49.2760 F   0  0  0  0  0  0  0  0  0  0  0  0
   10.7171    3.6251   49.8745 C   0  0  0  0  0  0  0  0  0  0  0  0
   10.4486    3.6650   51.2264 C   0  0  0  0  0  0  0  0  0  0  0  0
   12.5146    5.1597   50.2060 C   0  0  0  0  0  0  0  0  0  0  0  0
   11.7552    4.3693   49.3643 C   0  0  0  0  0  0  0  0  0  0  0  0
   12.2519    5.2031   51.5702 C   0  0  0  0  0  0  0  0  0  0  0  0
   11.2101    4.4485   52.0866 C   0  0  0  0  0  0  0  0  0  0  0  0
    9.4353    2.9317   51.6838 F   0  0  0  0  0  0  0  0  0  0  0  0
   17.0881    6.3882   48.3723 C   0  0  0  0  0  0  0  0  0  0  0  0
   17.9147    7.5565   48.9127 C   0  0  0  0  0  0  0  0  0  0  0  0
   17.2154    6.2382   46.8569 C   0  0  0  0  0  0  0  0  0  0  0  0
   15.4002    3.9839   49.8975 S   0  0  0  0  0  0  0  0  0  0  0  0
   15.0712    3.7356   51.2668 O   0  0  0  0  0  0  0  0  0  0  0  0
   16.8279    3.9460   49.8191 O   0  0  0  0  0  0  0  0  0  0  0  0
   14.8199    2.7851   48.9817 N   0  0  0  0  0  0  0  0  0  0  0  0
   14.6212    1.9426   49.4507 H   0  0  0  0  0  0  0  0  0  0  0  0
   15.5894    3.2198   46.7731 C   0  0  0  0  0  0  0  0  0  0  0  0
   15.3941    3.2543   45.3868 C   0  0  0  0  0  0  0  0  0  0  0  0
   13.3554    2.4113   47.0546 C   0  0  0  0  0  0  0  0  0  0  0  0
   14.1718    2.8643   44.8349 C   0  0  0  0  0  0  0  0  0  0  0  0
   13.1557    2.4408   45.6813 C   0  0  0  0  0  0  0  0  0  0  0  0
   14.5698    2.7941   47.6345 C   0  0  0  0  0  0  0  0  0  0  0  0
   14.9589    2.6570   42.5100 N   0  0  0  0  0  0  0  0  0  0  0  0
   12.8136    3.1296   42.9310 O   0  0  0  0  0  0  0  0  0  0  0  0
   13.9374    2.8875   43.3471 C   0  0  0  0  0  0  0  0  0  0  0  0
   14.8106    2.6711   41.5369 H   0  0  0  0  0  0  0  0  0  0  0  0
   15.8573    2.4737   42.8685 H   0  0  0  0  0  0  0  0  0  0  0  0
   15.0990    8.8202   47.9146 C   0  0  0  0  0  0  0  0  0  0  0  0
   14.2899    8.9651   46.6375 C   0  0  0  0  0  0  0  0  0  0  0  0
   15.2109    9.1744   45.4439 C   0  0  0  0  0  0  0  0  0  0  0  0
   16.5236    9.4475   45.9072 O   0  0  0  0  0  0  0  0  0  0  0  0
   16.8379    8.7039   46.4450 H   0  0  0  0  0  0  0  0  0  0  0  0
   15.2141    7.9032   44.6064 C   0  0  0  0  0  0  0  0  0  0  0  0
   14.1947    7.9532   43.4785 C   0  0  0  0  0  0  0  0  0  0  0  0
   14.8720    8.0166   42.2323 O   0  0  0  0  0  0  0  0  0  0  0  0
   15.4398    7.2364   42.1329 H   0  0  0  0  0  0  0  0  0  0  0  0
   13.3184    6.7102   43.5650 C   0  0  0  0  0  0  0  0  0  0  0  0
   12.3207    6.6604   42.4326 C   0  0  0  0  0  0  0  0  0  0  0  0
   11.7848    7.6821   42.0237 O   0  0  0  0  0  0  0  0  0  0  0  0
   12.0209    5.4904   41.8814 O   0  0  0  0  0  0  0  0  0  0  0  0
   12.4301    4.7072   42.1930 H   0  0  0  0  0  0  0  0  0  0  0  0
 39  1  1  0  0  0
  1  2  1  0  0  0
  1  5  1  0  0  0
 34 36  1  0  0  0
  9  2  1  0  0  0
  2  4  2  0  0  0
 21 20  1  0  0  0
 20  5  1  0  0  0
 20 22  1  0  0  0
 39 40  1  0  0  0
 41 40  1  0  0  0
 41 44  1  0  0  0
 44 45  1  0  0  0
  6 11  2  0  0  0
  6 10  1  0  0  0
 29 28  2  0  0  0
 28 33  1  0  0  0
 31 29  1  0  0  0
  9  7  2  0  0  0
  8  7  1  0  0  0
 14 13  2  0  0  0
 16 13  1  0  0  0
 10  8  2  0  0  0
 32 30  1  0  0  0
 30 33  2  0  0  0
 18 14  1  0  0  0
 14 19  1  0  0  0
 35 36  2  0  0  0
 36 31  1  0  0  0
 31 32  2  0  0  0
 33 26  1  0  0  0
 26 23  1  0  0  0
  3 23  1  0  0  0
 24 23  2  0  0  0
 23 25  2  0  0  0
  5  3  2  0  0  0
  4  3  1  0  0  0
  4 15  1  0  0  0
 17 15  1  0  0  0
 15 16  2  0  0  0
 17 18  2  0  0  0
 11  9  1  0  0  0
 12 10  1  0  0  0
 42 41  1  0  0  0
 46 45  1  0  0  0
 45 48  1  0  0  0
 48 49  1  0  0  0
 50 49  2  0  0  0
 49 51  1  0  0  0
 34 37  1  0  0  0
 34 38  1  0  0  0
 26 27  1  0  0  0
 42 43  1  0  0  0
 46 47  1  0  0  0
 51 52  1  0  0  0
M  END
> <minimizedAffinity>
-7.92564

$$$$
3CDB_9HI_A_1


 52 55  0  0  0  0  0  0  0  0999 V2000
   14.8979    6.7313   45.0142 N   0  0  0  0  0  0  0  0  0  0  0  0
   14.7675    5.6900   45.8525 C   0  0  0  0  0  0  0  0  0  0  0  0
   16.0677    7.2298   46.8488 C   0  0  0  0  0  0  0  0  0  0  0  0
   15.4993    6.0156   47.0665 C   0  0  0  0  0  0  0  0  0  0  0  0
   15.6867    7.7028   45.5811 C   0  0  0  0  0  0  0  0  0  0  0  0
   12.1196    3.0480   46.2624 C   0  0  0  0  0  0  0  0  0  0  0  0
   14.7223    3.2627   45.3015 C   0  0  0  0  0  0  0  0  0  0  0  0
   14.0689    2.0383   45.2633 C   0  0  0  0  0  0  0  0  0  0  0  0
   14.0691    4.3798   45.8154 C   0  0  0  0  0  0  0  0  0  0  0  0
   12.7700    1.9374   45.7473 C   0  0  0  0  0  0  0  0  0  0  0  0
   12.7721    4.2737   46.2981 C   0  0  0  0  0  0  0  0  0  0  0  0
   12.1414    0.7616   45.7100 F   0  0  0  0  0  0  0  0  0  0  0  0
   17.1085    3.7063   49.4958 C   0  0  0  0  0  0  0  0  0  0  0  0
   16.1344    3.5834   50.4639 C   0  0  0  0  0  0  0  0  0  0  0  0
   15.6729    5.1611   48.2637 C   0  0  0  0  0  0  0  0  0  0  0  0
   16.8796    4.5008   48.3966 C   0  0  0  0  0  0  0  0  0  0  0  0
   14.6872    5.0444   49.2366 C   0  0  0  0  0  0  0  0  0  0  0  0
   14.9192    4.2492   50.3480 C   0  0  0  0  0  0  0  0  0  0  0  0
   16.3918    2.8049   51.5135 F   0  0  0  0  0  0  0  0  0  0  0  0
   16.0789    9.0149   44.9815 C   0  0  0  0  0  0  0  0  0  0  0  0
   14.8727    9.8666   44.5816 C   0  0  0  0  0  0  0  0  0  0  0  0
   17.0374    8.7808   43.8147 C   0  0  0  0  0  0  0  0  0  0  0  0
   16.9919    7.9880   47.9927 S   0  0  0  0  0  0  0  0  0  0  0  0
   17.2819    9.3460   47.6516 O   0  0  0  0  0  0  0  0  0  0  0  0
   18.2538    7.3181   48.0627 O   0  0  0  0  0  0  0  0  0  0  0  0
   16.3198    7.9369   49.4619 N   0  0  0  0  0  0  0  0  0  0  0  0
   15.4124    8.3122   49.5334 H   0  0  0  0  0  0  0  0  0  0  0  0
   16.0219    7.3264   51.7417 C   0  0  0  0  0  0  0  0  0  0  0  0
   16.5099    6.8257   52.9551 C   0  0  0  0  0  0  0  0  0  0  0  0
   18.1859    7.0324   50.7648 C   0  0  0  0  0  0  0  0  0  0  0  0
   17.8435    6.4271   53.0703 C   0  0  0  0  0  0  0  0  0  0  0  0
   18.6757    6.5331   51.9638 C   0  0  0  0  0  0  0  0  0  0  0  0
   16.8543    7.4370   50.6203 C   0  0  0  0  0  0  0  0  0  0  0  0
   17.5522    5.5434   55.3510 N   0  0  0  0  0  0  0  0  0  0  0  0
   19.6032    5.7670   54.4873 O   0  0  0  0  0  0  0  0  0  0  0  0
   18.3924    5.8809   54.3623 C   0  0  0  0  0  0  0  0  0  0  0  0
   17.9061    5.1860   56.1973 H   0  0  0  0  0  0  0  0  0  0  0  0
   16.5812    5.6530   55.2308 H   0  0  0  0  0  0  0  0  0  0  0  0
   14.2654    6.7460   43.6990 C   0  0  0  0  0  0  0  0  0  0  0  0
   12.7621    6.8958   43.8549 C   0  0  0  0  0  0  0  0  0  0  0  0
   12.0427    6.3594   42.6254 C   0  0  0  0  0  0  0  0  0  0  0  0
   11.0973    7.3185   42.1801 O   0  0  0  0  0  0  0  0  0  0  0  0
   11.5539    8.1468   41.9646 H   0  0  0  0  0  0  0  0  0  0  0  0
   13.0731    6.1060   41.5339 C   0  0  0  0  0  0  0  0  0  0  0  0
   12.7241    4.8956   40.6813 C   0  0  0  0  0  0  0  0  0  0  0  0
   12.6861    5.2763   39.3140 O   0  0  0  0  0  0  0  0  0  0  0  0
   13.5511    5.6289   39.0524 H   0  0  0  0  0  0  0  0  0  0  0  0
   13.7729    3.8174   40.9225 C   0  0  0  0  0  0  0  0  0  0  0  0
   14.0296    3.0100   39.6725 C   0  0  0  0  0  0  0  0  0  0  0  0
   13.1309    2.3672   39.1458 O   0  0  0  0  0  0  0  0  0  0  0  0
   15.2483    2.9966   39.1462 O   0  0  0  0  0  0  0  0  0  0  0  0
   15.9375    3.4880   39.5480 H   0  0  0  0  0  0  0  0  0  0  0  0
 39  1  1  0  0  0
  1  2  1  0  0  0
  1  5  1  0  0  0
 34 36  1  0  0  0
  9  2  1  0  0  0
  2  4  2  0  0  0
 21 20  1  0  0  0
 20  5  1  0  0  0
 20 22  1  0  0  0
 39 40  1  0  0  0
 41 40  1  0  0  0
 41 44  1  0  0  0
 44 45  1  0  0  0
  6 11  2  0  0  0
  6 10  1  0  0  0
 29 28  2  0  0  0
 28 33  1  0  0  0
 31 29  1  0  0  0
  9  7  2  0  0  0
  8  7  1  0  0  0
 14 13  2  0  0  0
 16 13  1  0  0  0
 10  8  2  0  0  0
 32 30  1  0  0  0
 30 33  2  0  0  0
 18 14  1  0  0  0
 14 19  1  0  0  0
 35 36  2  0  0  0
 36 31  1  0  0  0
 31 32  2  0  0  0
 33 26  1  0  0  0
 26 23  1  0  0  0
  3 23  1  0  0  0
 24 23  2  0  0  0
 23 25  2  0  0  0
  5  3  2  0  0  0
  4  3  1  0  0  0
  4 15  1  0  0  0
 17 15  1  0  0  0
 15 16  2  0  0  0
 17 18  2  0  0  0
 11  9  1  0  0  0
 12 10  1  0  0  0
 42 41  1  0  0  0
 46 45  1  0  0  0
 45 48  1  0  0  0
 48 49  1  0  0  0
 50 49  2  0  0  0
 49 51  1  0  0  0
 34 37  1  0  0  0
 34 38  1  0  0  0
 26 27  1  0  0  0
 42 43  1  0  0  0
 46 47  1  0  0  0
 51 52  1  0  0  0
M  END
> <minimizedAffinity>
-7.88992

$$$$
3CDB_9HI_A_1


 52 55  0  0  0  0  0  0  0  0999 V2000
   16.1483    3.7990   49.0890 N   0  0  0  0  0  0  0  0  0  0  0  0
   15.4605    4.5302   49.9814 C   0  0  0  0  0  0  0  0  0  0  0  0
   13.9829    3.4246   48.6974 C   0  0  0  0  0  0  0  0  0  0  0  0
   14.0469    4.2705   49.7582 C   0  0  0  0  0  0  0  0  0  0  0  0
   15.2853    3.1018   48.2787 C   0  0  0  0  0  0  0  0  0  0  0  0
   16.1435    5.8895   53.4231 C   0  0  0  0  0  0  0  0  0  0  0  0
   16.1258    6.7888   50.7897 C   0  0  0  0  0  0  0  0  0  0  0  0
   16.4564    7.6618   51.8174 C   0  0  0  0  0  0  0  0  0  0  0  0
   15.8104    5.4643   51.0817 C   0  0  0  0  0  0  0  0  0  0  0  0
   16.4607    7.2068   53.1307 C   0  0  0  0  0  0  0  0  0  0  0  0
   15.8155    5.0151   52.3949 C   0  0  0  0  0  0  0  0  0  0  0  0
   16.7790    8.0449   54.1183 F   0  0  0  0  0  0  0  0  0  0  0  0
   11.3911    4.7346   52.3183 C   0  0  0  0  0  0  0  0  0  0  0  0
   10.8124    5.9211   51.9202 C   0  0  0  0  0  0  0  0  0  0  0  0
   12.9013    4.8755   50.4758 C   0  0  0  0  0  0  0  0  0  0  0  0
   12.4408    4.2137   51.5983 C   0  0  0  0  0  0  0  0  0  0  0  0
   12.3250    6.0733   50.0697 C   0  0  0  0  0  0  0  0  0  0  0  0
   11.2712    6.6026   50.7984 C   0  0  0  0  0  0  0  0  0  0  0  0
    9.7978    6.3941   52.6419 F   0  0  0  0  0  0  0  0  0  0  0  0
   15.6417    2.1763   47.1601 C   0  0  0  0  0  0  0  0  0  0  0  0
   16.7741    1.2150   47.5258 C   0  0  0  0  0  0  0  0  0  0  0  0
   15.9504    2.9860   45.9015 C   0  0  0  0  0  0  0  0  0  0  0  0
   12.5444    2.8585   48.1075 S   0  0  0  0  0  0  0  0  0  0  0  0
   11.6177    2.5290   49.1455 O   0  0  0  0  0  0  0  0  0  0  0  0
   12.7997    1.6407   47.4019 O   0  0  0  0  0  0  0  0  0  0  0  0
   11.8496    3.8931   47.0782 N   0  0  0  0  0  0  0  0  0  0  0  0
   10.8668    3.9396   47.1124 H   0  0  0  0  0  0  0  0  0  0  0  0
   12.6940    4.2128   44.8774 C   0  0  0  0  0  0  0  0  0  0  0  0
   13.3133    5.0015   43.8998 C   0  0  0  0  0  0  0  0  0  0  0  0
   12.8656    6.0251   46.4298 C   0  0  0  0  0  0  0  0  0  0  0  0
   13.7094    6.3086   44.1923 C   0  0  0  0  0  0  0  0  0  0  0  0
   13.4779    6.8132   45.4650 C   0  0  0  0  0  0  0  0  0  0  0  0
   12.4567    4.7137   46.1641 C   0  0  0  0  0  0  0  0  0  0  0  0
   15.3207    8.0507   43.5320 N   0  0  0  0  0  0  0  0  0  0  0  0
   14.0222    7.0805   41.9908 O   0  0  0  0  0  0  0  0  0  0  0  0
   14.3731    7.1794   43.1578 C   0  0  0  0  0  0  0  0  0  0  0  0
   15.7574    8.6220   42.8595 H   0  0  0  0  0  0  0  0  0  0  0  0
   15.5800    8.1193   44.4792 H   0  0  0  0  0  0  0  0  0  0  0  0
   17.6071    3.8071   49.0466 C   0  0  0  0  0  0  0  0  0  0  0  0
   18.1614    3.3897   50.3975 C   0  0  0  0  0  0  0  0  0  0  0  0
   19.2538    4.3504   50.8453 C   0  0  0  0  0  0  0  0  0  0  0  0
   20.4743    3.6408   50.9833 O   0  0  0  0  0  0  0  0  0  0  0  0
   20.7119    3.2380   50.1334 H   0  0  0  0  0  0  0  0  0  0  0  0
   19.4056    5.4366   49.7896 C   0  0  0  0  0  0  0  0  0  0  0  0
   20.3259    6.5588   50.2451 C   0  0  0  0  0  0  0  0  0  0  0  0
   21.6752    6.1927   49.9979 O   0  0  0  0  0  0  0  0  0  0  0  0
   21.7968    6.0272   49.0499 H   0  0  0  0  0  0  0  0  0  0  0  0
   19.9527    7.8262   49.4868 C   0  0  0  0  0  0  0  0  0  0  0  0
   20.9774    8.1556   48.4276 C   0  0  0  0  0  0  0  0  0  0  0  0
   21.7910    9.0536   48.6002 O   0  0  0  0  0  0  0  0  0  0  0  0
   20.9872    7.4629   47.2951 O   0  0  0  0  0  0  0  0  0  0  0  0
   20.3652    6.7751   47.1612 H   0  0  0  0  0  0  0  0  0  0  0  0
 39  1  1  0  0  0
  1  2  1  0  0  0
  1  5  1  0  0  0
 34 36  1  0  0  0
  9  2  1  0  0  0
  2  4  2  0  0  0
 21 20  1  0  0  0
 20  5  1  0  0  0
 20 22  1  0  0  0
 39 40  1  0  0  0
 41 40  1  0  0  0
 41 44  1  0  0  0
 44 45  1  0  0  0
  6 11  2  0  0  0
  6 10  1  0  0  0
 29 28  2  0  0  0
 28 33  1  0  0  0
 31 29  1  0  0  0
  9  7  2  0  0  0
  8  7  1  0  0  0
 14 13  2  0  0  0
 16 13  1  0  0  0
 10  8  2  0  0  0
 32 30  1  0  0  0
 30 33  2  0  0  0
 18 14  1  0  0  0
 14 19  1  0  0  0
 35 36  2  0  0  0
 36 31  1  0  0  0
 31 32  2  0  0  0
 33 26  1  0  0  0
 26 23  1  0  0  0
  3 23  1  0  0  0
 24 23  2  0  0  0
 23 25  2  0  0  0
  5  3  2  0  0  0
  4  3  1  0  0  0
  4 15  1  0  0  0
 17 15  1  0  0  0
 15 16  2  0  0  0
 17 18  2  0  0  0
 11  9  1  0  0  0
 12 10  1  0  0  0
 42 41  1  0  0  0
 46 45  1  0  0  0
 45 48  1  0  0  0
 48 49  1  0  0  0
 50 49  2  0  0  0
 49 51  1  0  0  0
 34 37  1  0  0  0
 34 38  1  0  0  0
 26 27  1  0  0  0
 42 43  1  0  0  0
 46 47  1  0  0  0
 51 52  1  0  0  0
M  END
> <minimizedAffinity>
-7.84870

$$$$
3CDB_9HI_A_1


 52 55  0  0  0  0  0  0  0  0999 V2000
   13.7144    4.5624   45.5519 N   0  0  0  0  0  0  0  0  0  0  0  0
   14.3891    5.6877   45.8390 C   0  0  0  0  0  0  0  0  0  0  0  0
   15.1416    4.0577   47.1922 C   0  0  0  0  0  0  0  0  0  0  0  0
   15.3463    5.3650   46.8855 C   0  0  0  0  0  0  0  0  0  0  0  0
   14.1411    3.5332   46.3556 C   0  0  0  0  0  0  0  0  0  0  0  0
   14.9446    8.6909   43.6408 C   0  0  0  0  0  0  0  0  0  0  0  0
   13.8057    8.0928   46.1084 C   0  0  0  0  0  0  0  0  0  0  0  0
   13.7951    9.3994   45.6392 C   0  0  0  0  0  0  0  0  0  0  0  0
   14.3814    7.0858   45.3380 C   0  0  0  0  0  0  0  0  0  0  0  0
   14.3680    9.6917   44.4072 C   0  0  0  0  0  0  0  0  0  0  0  0
   14.9529    7.3830   44.1086 C   0  0  0  0  0  0  0  0  0  0  0  0
   14.3572   10.9467   43.9556 F   0  0  0  0  0  0  0  0  0  0  0  0
   16.7023    7.7432   49.4011 C   0  0  0  0  0  0  0  0  0  0  0  0
   17.9658    7.9928   48.9087 C   0  0  0  0  0  0  0  0  0  0  0  0
   16.2899    6.2913   47.5524 C   0  0  0  0  0  0  0  0  0  0  0  0
   15.8650    6.8868   48.7250 C   0  0  0  0  0  0  0  0  0  0  0  0
   17.5630    6.5358   47.0512 C   0  0  0  0  0  0  0  0  0  0  0  0
   18.4101    7.3936   47.7352 C   0  0  0  0  0  0  0  0  0  0  0  0
   18.7479    8.8281   49.5903 F   0  0  0  0  0  0  0  0  0  0  0  0
   13.6478    2.1221   46.3586 C   0  0  0  0  0  0  0  0  0  0  0  0
   13.6235    1.5010   44.9608 C   0  0  0  0  0  0  0  0  0  0  0  0
   12.2856    2.0551   47.0479 C   0  0  0  0  0  0  0  0  0  0  0  0
   16.0361    3.2717   48.3410 S   0  0  0  0  0  0  0  0  0  0  0  0
   17.3373    3.8410   48.5071 O   0  0  0  0  0  0  0  0  0  0  0  0
   16.2444    1.9266   47.9014 O   0  0  0  0  0  0  0  0  0  0  0  0
   15.2891    3.2166   49.7734 N   0  0  0  0  0  0  0  0  0  0  0  0
   15.5298    2.4600   50.3555 H   0  0  0  0  0  0  0  0  0  0  0  0
   14.7543    4.9437   51.3195 C   0  0  0  0  0  0  0  0  0  0  0  0
   13.8530    5.8570   51.8803 C   0  0  0  0  0  0  0  0  0  0  0  0
   13.0412    4.1870   49.8307 C   0  0  0  0  0  0  0  0  0  0  0  0
   12.5396    5.9331   51.4113 C   0  0  0  0  0  0  0  0  0  0  0  0
   12.1432    5.0915   50.3805 C   0  0  0  0  0  0  0  0  0  0  0  0
   14.3630    4.0906   50.2793 C   0  0  0  0  0  0  0  0  0  0  0  0
   10.3197    6.9988   51.4729 N   0  0  0  0  0  0  0  0  0  0  0  0
   11.9012    7.6145   52.9297 O   0  0  0  0  0  0  0  0  0  0  0  0
   11.5518    6.9097   51.9939 C   0  0  0  0  0  0  0  0  0  0  0  0
    9.6706    7.6356   51.8502 H   0  0  0  0  0  0  0  0  0  0  0  0
   10.0641    6.4275   50.7129 H   0  0  0  0  0  0  0  0  0  0  0  0
   12.6809    4.5248   44.5219 C   0  0  0  0  0  0  0  0  0  0  0  0
   13.3268    4.4178   43.1515 C   0  0  0  0  0  0  0  0  0  0  0  0
   12.4506    5.0780   42.0964 C   0  0  0  0  0  0  0  0  0  0  0  0
   12.0214    6.3446   42.5694 O   0  0  0  0  0  0  0  0  0  0  0  0
   12.7951    6.8994   42.7554 H   0  0  0  0  0  0  0  0  0  0  0  0
   13.2713    5.2532   40.8264 C   0  0  0  0  0  0  0  0  0  0  0  0
   12.6976    4.4686   39.6562 C   0  0  0  0  0  0  0  0  0  0  0  0
   13.2269    4.9781   38.4413 O   0  0  0  0  0  0  0  0  0  0  0  0
   14.1937    4.8999   38.4519 H   0  0  0  0  0  0  0  0  0  0  0  0
   13.0564    2.9994   39.8386 C   0  0  0  0  0  0  0  0  0  0  0  0
   14.5507    2.8062   39.9388 C   0  0  0  0  0  0  0  0  0  0  0  0
   15.0717    2.4858   40.9991 O   0  0  0  0  0  0  0  0  0  0  0  0
   15.3040    2.9932   38.8617 O   0  0  0  0  0  0  0  0  0  0  0  0
   14.9070    3.2385   38.0492 H   0  0  0  0  0  0  0  0  0  0  0  0
 39  1  1  0  0  0
  1  2  1  0  0  0
  1  5  1  0  0  0
 34 36  1  0  0  0
  9  2  1  0  0  0
  2  4  2  0  0  0
 21 20  1  0  0  0
 20  5  1  0  0  0
 20 22  1  0  0  0
 39 40  1  0  0  0
 41 40  1  0  0  0
 41 44  1  0  0  0
 44 45  1  0  0  0
  6 11  2  0  0  0
  6 10  1  0  0  0
 29 28  2  0  0  0
 28 33  1  0  0  0
 31 29  1  0  0  0
  9  7  2  0  0  0
  8  7  1  0  0  0
 14 13  2  0  0  0
 16 13  1  0  0  0
 10  8  2  0  0  0
 32 30  1  0  0  0
 30 33  2  0  0  0
 18 14  1  0  0  0
 14 19  1  0  0  0
 35 36  2  0  0  0
 36 31  1  0  0  0
 31 32  2  0  0  0
 33 26  1  0  0  0
 26 23  1  0  0  0
  3 23  1  0  0  0
 24 23  2  0  0  0
 23 25  2  0  0  0
  5  3  2  0  0  0
  4  3  1  0  0  0
  4 15  1  0  0  0
 17 15  1  0  0  0
 15 16  2  0  0  0
 17 18  2  0  0  0
 11  9  1  0  0  0
 12 10  1  0  0  0
 42 41  1  0  0  0
 46 45  1  0  0  0
 45 48  1  0  0  0
 48 49  1  0  0  0
 50 49  2  0  0  0
 49 51  1  0  0  0
 34 37  1  0  0  0
 34 38  1  0  0  0
 26 27  1  0  0  0
 42 43  1  0  0  0
 46 47  1  0  0  0
 51 52  1  0  0  0
M  END
> <minimizedAffinity>
-7.62269

$$$$
3CDB_9HI_A_1


 52 55  0  0  0  0  0  0  0  0999 V2000
   14.0816    6.2775   49.6480 N   0  0  0  0  0  0  0  0  0  0  0  0
   15.4149    6.2581   49.8087 C   0  0  0  0  0  0  0  0  0  0  0  0
   14.9461    7.5309   48.0158 C   0  0  0  0  0  0  0  0  0  0  0  0
   15.9898    7.0980   48.7697 C   0  0  0  0  0  0  0  0  0  0  0  0
   13.7443    7.0464   48.5607 C   0  0  0  0  0  0  0  0  0  0  0  0
   17.8456    3.8253   51.3362 C   0  0  0  0  0  0  0  0  0  0  0  0
   16.6279    6.2425   51.9826 C   0  0  0  0  0  0  0  0  0  0  0  0
   17.5127    5.6524   52.8751 C   0  0  0  0  0  0  0  0  0  0  0  0
   16.3587    5.6242   50.7644 C   0  0  0  0  0  0  0  0  0  0  0  0
   18.1154    4.4437   52.5471 C   0  0  0  0  0  0  0  0  0  0  0  0
   16.9627    4.4169   50.4418 C   0  0  0  0  0  0  0  0  0  0  0  0
   18.9661    3.8768   53.4037 F   0  0  0  0  0  0  0  0  0  0  0  0
   19.3742    8.5947   49.1286 C   0  0  0  0  0  0  0  0  0  0  0  0
   20.0989    7.8955   48.1866 C   0  0  0  0  0  0  0  0  0  0  0  0
   17.4265    7.3568   48.5205 C   0  0  0  0  0  0  0  0  0  0  0  0
   18.0372    8.3211   49.2997 C   0  0  0  0  0  0  0  0  0  0  0  0
   18.1509    6.6459   47.5709 C   0  0  0  0  0  0  0  0  0  0  0  0
   19.4999    6.9162   47.4020 C   0  0  0  0  0  0  0  0  0  0  0  0
   21.3908    8.1885   48.0490 F   0  0  0  0  0  0  0  0  0  0  0  0
   12.3712    7.3243   48.0389 C   0  0  0  0  0  0  0  0  0  0  0  0
   11.4659    7.9862   49.0793 C   0  0  0  0  0  0  0  0  0  0  0  0
   11.7659    6.0396   47.4750 C   0  0  0  0  0  0  0  0  0  0  0  0
   15.1541    8.5335   46.7162 S   0  0  0  0  0  0  0  0  0  0  0  0
   16.0701    9.5979   46.9858 O   0  0  0  0  0  0  0  0  0  0  0  0
   13.8985    9.1541   46.4258 O   0  0  0  0  0  0  0  0  0  0  0  0
   15.6329    7.7375   45.3933 N   0  0  0  0  0  0  0  0  0  0  0  0
   16.5991    7.7568   45.2055 H   0  0  0  0  0  0  0  0  0  0  0  0
   14.7566    7.5277   43.1917 C   0  0  0  0  0  0  0  0  0  0  0  0
   13.9825    6.8607   42.2341 C   0  0  0  0  0  0  0  0  0  0  0  0
   14.1641    5.8670   44.8087 C   0  0  0  0  0  0  0  0  0  0  0  0
   13.2970    5.6908   42.5691 C   0  0  0  0  0  0  0  0  0  0  0  0
   13.3968    5.1995   43.8639 C   0  0  0  0  0  0  0  0  0  0  0  0
   14.8629    7.0393   44.5005 C   0  0  0  0  0  0  0  0  0  0  0  0
   12.7004    5.1193   40.2485 N   0  0  0  0  0  0  0  0  0  0  0  0
   11.5679    4.2173   41.9533 O   0  0  0  0  0  0  0  0  0  0  0  0
   12.4614    4.9516   41.5569 C   0  0  0  0  0  0  0  0  0  0  0  0
   12.1570    4.6384   39.5832 H   0  0  0  0  0  0  0  0  0  0  0  0
   13.4193    5.7235   39.9529 H   0  0  0  0  0  0  0  0  0  0  0  0
   13.1868    5.5489   50.5417 C   0  0  0  0  0  0  0  0  0  0  0  0
   12.9730    4.1401   50.0162 C   0  0  0  0  0  0  0  0  0  0  0  0
   11.6872    3.5509   50.5786 C   0  0  0  0  0  0  0  0  0  0  0  0
   11.4682    2.2718   50.0059 O   0  0  0  0  0  0  0  0  0  0  0  0
   12.2186    1.6926   50.2116 H   0  0  0  0  0  0  0  0  0  0  0  0
   11.8340    3.4213   52.0882 C   0  0  0  0  0  0  0  0  0  0  0  0
   10.5186    3.6499   52.8173 C   0  0  0  0  0  0  0  0  0  0  0  0
    9.5469    4.1284   51.8993 O   0  0  0  0  0  0  0  0  0  0  0  0
    9.4251    3.4786   51.1895 H   0  0  0  0  0  0  0  0  0  0  0  0
   10.0800    2.3330   53.4449 C   0  0  0  0  0  0  0  0  0  0  0  0
    8.8674    1.7669   52.7454 C   0  0  0  0  0  0  0  0  0  0  0  0
    7.7449    1.9309   53.2052 O   0  0  0  0  0  0  0  0  0  0  0  0
    9.0275    1.0791   51.6213 O   0  0  0  0  0  0  0  0  0  0  0  0
    9.8860    0.9525   51.2677 H   0  0  0  0  0  0  0  0  0  0  0  0
 39  1  1  0  0  0
  1  2  1  0  0  0
  1  5  1  0  0  0
 34 36  1  0  0  0
  9  2  1  0  0  0
  2  4  2  0  0  0
 21 20  1  0  0  0
 20  5  1  0  0  0
 20 22  1  0  0  0
 39 40  1  0  0  0
 41 40  1  0  0  0
 41 44  1  0  0  0
 44 45  1  0  0  0
  6 11  2  0  0  0
  6 10  1  0  0  0
 29 28  2  0  0  0
 28 33  1  0  0  0
 31 29  1  0  0  0
  9  7  2  0  0  0
  8  7  1  0  0  0
 14 13  2  0  0  0
 16 13  1  0  0  0
 10  8  2  0  0  0
 32 30  1  0  0  0
 30 33  2  0  0  0
 18 14  1  0  0  0
 14 19  1  0  0  0
 35 36  2  0  0  0
 36 31  1  0  0  0
 31 32  2  0  0  0
 33 26  1  0  0  0
 26 23  1  0  0  0
  3 23  1  0  0  0
 24 23  2  0  0  0
 23 25  2  0  0  0
  5  3  2  0  0  0
  4  3  1  0  0  0
  4 15  1  0  0  0
 17 15  1  0  0  0
 15 16  2  0  0  0
 17 18  2  0  0  0
 11  9  1  0  0  0
 12 10  1  0  0  0
 42 41  1  0  0  0
 46 45  1  0  0  0
 45 48  1  0  0  0
 48 49  1  0  0  0
 50 49  2  0  0  0
 49 51  1  0  0  0
 34 37  1  0  0  0
 34 38  1  0  0  0
 26 27  1  0  0  0
 42 43  1  0  0  0
 46 47  1  0  0  0
 51 52  1  0  0  0
M  END
> <minimizedAffinity>
-7.39023

$$$$
