2QE4_JJ3_A_601


 26 29  0  0  0  0  0  0  0  0999 V2000
   -6.8367    8.3093   26.8395 C   0  0  0  0  0  0  0  0  0  0  0  0
   -6.0070    8.3291   25.6861 C   0  0  0  0  0  0  0  0  0  0  0  0
   -5.9854    7.2386   24.8040 C   0  0  0  0  0  0  0  0  0  0  0  0
   -6.8133    6.0878   25.0588 C   0  0  0  0  0  0  0  0  0  0  0  0
   -6.7549    5.0194   24.1478 O   0  0  0  0  0  0  0  0  0  0  0  0
   -7.9468    4.2001   24.1803 C   0  0  0  0  0  0  0  0  0  0  0  0
   -8.2705    3.6890   25.6271 C   0  0  0  0  0  0  0  0  0  0  0  0
   -7.0817    2.8946   26.2732 C   0  0  0  0  0  0  0  0  0  0  0  0
   -7.1628    3.2078   27.7908 C   0  0  0  0  0  0  0  0  0  0  0  0
   -8.2086    4.3155   27.9784 C   0  0  0  0  0  0  0  0  0  0  0  0
   -8.5565    4.8833   26.5679 C   0  0  0  0  0  0  0  0  0  0  0  0
   -7.6458    6.0768   26.2288 C   0  0  0  0  0  0  0  0  0  0  0  0
   -7.6496    7.1922   27.1040 C   0  0  0  0  0  0  0  0  0  0  0  0
   -6.8485    9.3698   27.6878 O   0  0  0  0  0  0  0  0  0  0  0  0
   -6.3079   10.1150   27.5137 H   0  0  0  0  0  0  0  0  0  0  0  0
   -7.8429    3.0044   23.2286 C   0  0  0  0  0  0  0  0  0  0  0  0
   -6.6656    2.7393   22.4871 C   0  0  0  0  0  0  0  0  0  0  0  0
   -6.6159    1.6220   21.6238 C   0  0  0  0  0  0  0  0  0  0  0  0
   -7.7447    0.7693   21.5079 C   0  0  0  0  0  0  0  0  0  0  0  0
   -7.7160   -0.3109   20.6895 O   0  0  0  0  0  0  0  0  0  0  0  0
   -8.9058    1.0374   22.2424 C   0  0  0  0  0  0  0  0  0  0  0  0
   -8.9559    2.1434   23.0948 C   0  0  0  0  0  0  0  0  0  0  0  0
   -6.9450   -0.5016   20.1924 H   0  0  0  0  0  0  0  0  0  0  0  0
   -5.0844    7.3063   23.5779 C   0  0  0  0  0  0  0  0  0  0  0  0
   -5.5339    8.3480   22.6924 O   0  0  0  0  0  0  0  0  0  0  0  0
   -6.3654    7.7386   21.7032 C   0  0  0  0  0  0  0  0  0  0  0  0
  1  2  1  0  0  0
  1 13  2  0  0  0
  1 14  1  0  0  0
  2  3  2  0  0  0
  3  4  1  0  0  0
  3 24  1  0  0  0
  4  5  1  0  0  0
  4 12  2  0  0  0
  5  6  1  0  0  0
  6  7  1  0  0  0
  6 16  1  0  0  0
  7  8  1  0  0  0
  7 11  1  0  0  0
  8  9  1  0  0  0
  9 10  1  0  0  0
 10 11  1  0  0  0
 11 12  1  0  0  0
 12 13  1  0  0  0
 16 17  1  0  0  0
 16 22  2  0  0  0
 17 18  2  0  0  0
 18 19  1  0  0  0
 19 20  1  0  0  0
 19 21  2  0  0  0
 21 22  1  0  0  0
 24 25  1  0  0  0
 25 26  1  0  0  0
 20 23  1  0  0  0
 14 15  1  0  0  0
M  END
> <minimizedAffinity>
-10.47485

$$$$
2QE4_JJ3_A_601


 26 29  0  0  0  0  0  0  0  0999 V2000
   -6.5364    8.1165   26.8876 C   0  0  0  0  0  0  0  0  0  0  0  0
   -7.6534    7.3137   27.2436 C   0  0  0  0  0  0  0  0  0  0  0  0
   -7.9626    6.1570   26.5127 C   0  0  0  0  0  0  0  0  0  0  0  0
   -7.1419    5.7691   25.3944 C   0  0  0  0  0  0  0  0  0  0  0  0
   -7.4936    4.6041   24.6918 O   0  0  0  0  0  0  0  0  0  0  0  0
   -6.3727    4.0280   23.9813 C   0  0  0  0  0  0  0  0  0  0  0  0
   -5.6784    5.0679   23.0348 C   0  0  0  0  0  0  0  0  0  0  0  0
   -6.6698    5.7079   22.0008 C   0  0  0  0  0  0  0  0  0  0  0  0
   -6.1564    7.1572   21.7913 C   0  0  0  0  0  0  0  0  0  0  0  0
   -5.0575    7.4127   22.8320 C   0  0  0  0  0  0  0  0  0  0  0  0
   -5.0951    6.2398   23.8594 C   0  0  0  0  0  0  0  0  0  0  0  0
   -6.0171    6.5890   25.0412 C   0  0  0  0  0  0  0  0  0  0  0  0
   -5.7259    7.7528   25.7968 C   0  0  0  0  0  0  0  0  0  0  0  0
   -6.2471    9.2353   27.6010 O   0  0  0  0  0  0  0  0  0  0  0  0
   -6.7855    9.4796   28.3279 H   0  0  0  0  0  0  0  0  0  0  0  0
   -6.7845    2.7957   23.1700 C   0  0  0  0  0  0  0  0  0  0  0  0
   -6.1194    2.4320   21.9736 C   0  0  0  0  0  0  0  0  0  0  0  0
   -6.5332    1.2843   21.2609 C   0  0  0  0  0  0  0  0  0  0  0  0
   -7.6103    0.5002   21.7505 C   0  0  0  0  0  0  0  0  0  0  0  0
   -8.0195   -0.6075   21.0850 O   0  0  0  0  0  0  0  0  0  0  0  0
   -8.2644    0.8656   22.9329 C   0  0  0  0  0  0  0  0  0  0  0  0
   -7.8567    2.0016   23.6369 C   0  0  0  0  0  0  0  0  0  0  0  0
   -7.5902   -0.8631   20.2923 H   0  0  0  0  0  0  0  0  0  0  0  0
   -9.1666    5.3247   26.9340 C   0  0  0  0  0  0  0  0  0  0  0  0
   -8.7509    3.9860   27.2600 O   0  0  0  0  0  0  0  0  0  0  0  0
   -8.1345    4.0318   28.5482 C   0  0  0  0  0  0  0  0  0  0  0  0
  1  2  1  0  0  0
  1 13  2  0  0  0
  1 14  1  0  0  0
  2  3  2  0  0  0
  3  4  1  0  0  0
  3 24  1  0  0  0
  4  5  1  0  0  0
  4 12  2  0  0  0
  5  6  1  0  0  0
  6  7  1  0  0  0
  6 16  1  0  0  0
  7  8  1  0  0  0
  7 11  1  0  0  0
  8  9  1  0  0  0
  9 10  1  0  0  0
 10 11  1  0  0  0
 11 12  1  0  0  0
 12 13  1  0  0  0
 16 17  1  0  0  0
 16 22  2  0  0  0
 17 18  2  0  0  0
 18 19  1  0  0  0
 19 20  1  0  0  0
 19 21  2  0  0  0
 21 22  1  0  0  0
 24 25  1  0  0  0
 25 26  1  0  0  0
 20 23  1  0  0  0
 14 15  1  0  0  0
M  END
> <minimizedAffinity>
-9.65124

$$$$
2QE4_JJ3_A_601


 26 29  0  0  0  0  0  0  0  0999 V2000
   -6.5699    8.1363   26.9456 C   0  0  0  0  0  0  0  0  0  0  0  0
   -7.6775    7.3205   27.3015 C   0  0  0  0  0  0  0  0  0  0  0  0
   -7.9885    6.1743   26.5551 C   0  0  0  0  0  0  0  0  0  0  0  0
   -7.1791    5.8104   25.4206 C   0  0  0  0  0  0  0  0  0  0  0  0
   -7.5322    4.6551   24.7028 O   0  0  0  0  0  0  0  0  0  0  0  0
   -6.4166    4.0981   23.9692 C   0  0  0  0  0  0  0  0  0  0  0  0
   -5.7403    5.1582   23.0320 C   0  0  0  0  0  0  0  0  0  0  0  0
   -6.7481    5.8091   22.0210 C   0  0  0  0  0  0  0  0  0  0  0  0
   -6.2462    7.2649   21.8297 C   0  0  0  0  0  0  0  0  0  0  0  0
   -5.1363    7.5100   22.8612 C   0  0  0  0  0  0  0  0  0  0  0  0
   -5.1542    6.3197   23.8691 C   0  0  0  0  0  0  0  0  0  0  0  0
   -6.0638    6.6432   25.0676 C   0  0  0  0  0  0  0  0  0  0  0  0
   -5.7706    7.7961   25.8392 C   0  0  0  0  0  0  0  0  0  0  0  0
   -6.2789    9.2448   27.6742 O   0  0  0  0  0  0  0  0  0  0  0  0
   -6.8098    9.4734   28.4117 H   0  0  0  0  0  0  0  0  0  0  0  0
   -6.8306    2.8770   23.1423 C   0  0  0  0  0  0  0  0  0  0  0  0
   -7.9796    2.1128   23.4613 C   0  0  0  0  0  0  0  0  0  0  0  0
   -8.3233    0.9962   22.6669 C   0  0  0  0  0  0  0  0  0  0  0  0
   -7.5173    0.6493   21.5511 C   0  0  0  0  0  0  0  0  0  0  0  0
   -7.8324   -0.4149   20.7729 O   0  0  0  0  0  0  0  0  0  0  0  0
   -6.3823    1.4078   21.2417 C   0  0  0  0  0  0  0  0  0  0  0  0
   -6.0411    2.5110   22.0283 C   0  0  0  0  0  0  0  0  0  0  0  0
   -8.5895   -0.9309   20.9691 H   0  0  0  0  0  0  0  0  0  0  0  0
   -9.1821    5.3273   26.9768 C   0  0  0  0  0  0  0  0  0  0  0  0
   -8.7586    3.9792   27.2491 O   0  0  0  0  0  0  0  0  0  0  0  0
   -8.0875    3.9886   28.5104 C   0  0  0  0  0  0  0  0  0  0  0  0
  1  2  1  0  0  0
  1 13  2  0  0  0
  1 14  1  0  0  0
  2  3  2  0  0  0
  3  4  1  0  0  0
  3 24  1  0  0  0
  4  5  1  0  0  0
  4 12  2  0  0  0
  5  6  1  0  0  0
  6  7  1  0  0  0
  6 16  1  0  0  0
  7  8  1  0  0  0
  7 11  1  0  0  0
  8  9  1  0  0  0
  9 10  1  0  0  0
 10 11  1  0  0  0
 11 12  1  0  0  0
 12 13  1  0  0  0
 16 17  1  0  0  0
 16 22  2  0  0  0
 17 18  2  0  0  0
 18 19  1  0  0  0
 19 20  1  0  0  0
 19 21  2  0  0  0
 21 22  1  0  0  0
 24 25  1  0  0  0
 25 26  1  0  0  0
 20 23  1  0  0  0
 14 15  1  0  0  0
M  END
> <minimizedAffinity>
-9.50975

$$$$
2QE4_JJ3_A_601


 26 29  0  0  0  0  0  0  0  0999 V2000
   -4.7885    8.1105   26.2523 C   0  0  0  0  0  0  0  0  0  0  0  0
   -5.4054    7.1373   27.0838 C   0  0  0  0  0  0  0  0  0  0  0  0
   -5.9708    5.9797   26.5289 C   0  0  0  0  0  0  0  0  0  0  0  0
   -5.9239    5.7649   25.1054 C   0  0  0  0  0  0  0  0  0  0  0  0
   -6.5064    4.5915   24.5966 O   0  0  0  0  0  0  0  0  0  0  0  0
   -5.9616    4.2177   23.3096 C   0  0  0  0  0  0  0  0  0  0  0  0
   -6.0527    5.3879   22.2695 C   0  0  0  0  0  0  0  0  0  0  0  0
   -7.5165    5.9179   22.0749 C   0  0  0  0  0  0  0  0  0  0  0  0
   -7.3628    7.4346   21.7854 C   0  0  0  0  0  0  0  0  0  0  0  0
   -5.8938    7.8051   22.0315 C   0  0  0  0  0  0  0  0  0  0  0  0
   -5.2130    6.5969   22.7454 C   0  0  0  0  0  0  0  0  0  0  0  0
   -5.3008    6.7559   24.2737 C   0  0  0  0  0  0  0  0  0  0  0  0
   -4.7363    7.9169   24.8600 C   0  0  0  0  0  0  0  0  0  0  0  0
   -4.2458    9.2284   26.8000 O   0  0  0  0  0  0  0  0  0  0  0  0
   -4.2794    9.3596   27.7272 H   0  0  0  0  0  0  0  0  0  0  0  0
   -6.6494    2.9737   22.7389 C   0  0  0  0  0  0  0  0  0  0  0  0
   -6.0959    2.2424   21.6596 C   0  0  0  0  0  0  0  0  0  0  0  0
   -6.7656    1.0991   21.1692 C   0  0  0  0  0  0  0  0  0  0  0  0
   -7.9870    0.6876   21.7639 C   0  0  0  0  0  0  0  0  0  0  0  0
   -8.6427   -0.4093   21.3121 O   0  0  0  0  0  0  0  0  0  0  0  0
   -8.5295    1.4153   22.8295 C   0  0  0  0  0  0  0  0  0  0  0  0
   -7.8684    2.5472   23.3135 C   0  0  0  0  0  0  0  0  0  0  0  0
   -8.2903   -0.9053   20.5995 H   0  0  0  0  0  0  0  0  0  0  0  0
   -6.6169    4.9618   27.4595 C   0  0  0  0  0  0  0  0  0  0  0  0
   -8.0146    5.2622   27.6247 O   0  0  0  0  0  0  0  0  0  0  0  0
   -8.7208    4.0202   27.6315 C   0  0  0  0  0  0  0  0  0  0  0  0
  1  2  1  0  0  0
  1 13  2  0  0  0
  1 14  1  0  0  0
  2  3  2  0  0  0
  3  4  1  0  0  0
  3 24  1  0  0  0
  4  5  1  0  0  0
  4 12  2  0  0  0
  5  6  1  0  0  0
  6  7  1  0  0  0
  6 16  1  0  0  0
  7  8  1  0  0  0
  7 11  1  0  0  0
  8  9  1  0  0  0
  9 10  1  0  0  0
 10 11  1  0  0  0
 11 12  1  0  0  0
 12 13  1  0  0  0
 16 17  1  0  0  0
 16 22  2  0  0  0
 17 18  2  0  0  0
 18 19  1  0  0  0
 19 20  1  0  0  0
 19 21  2  0  0  0
 21 22  1  0  0  0
 24 25  1  0  0  0
 25 26  1  0  0  0
 20 23  1  0  0  0
 14 15  1  0  0  0
M  END
> <minimizedAffinity>
-8.95474

$$$$
2QE4_JJ3_A_601


 26 29  0  0  0  0  0  0  0  0999 V2000
   -7.6893    6.5494   22.8990 C   0  0  0  0  0  0  0  0  0  0  0  0
   -8.3740    5.3061   22.8306 C   0  0  0  0  0  0  0  0  0  0  0  0
   -8.5057    4.5005   23.9713 C   0  0  0  0  0  0  0  0  0  0  0  0
   -7.9510    4.9329   25.2282 C   0  0  0  0  0  0  0  0  0  0  0  0
   -8.1063    4.0900   26.3418 O   0  0  0  0  0  0  0  0  0  0  0  0
   -8.0108    4.8070   27.5948 C   0  0  0  0  0  0  0  0  0  0  0  0
   -6.6845    5.6373   27.6982 C   0  0  0  0  0  0  0  0  0  0  0  0
   -5.3987    4.7585   27.5083 C   0  0  0  0  0  0  0  0  0  0  0  0
   -4.3720    5.6887   26.8095 C   0  0  0  0  0  0  0  0  0  0  0  0
   -5.1112    6.9722   26.4068 C   0  0  0  0  0  0  0  0  0  0  0  0
   -6.6389    6.7178   26.5919 C   0  0  0  0  0  0  0  0  0  0  0  0
   -7.2585    6.1896   25.2859 C   0  0  0  0  0  0  0  0  0  0  0  0
   -7.1399    6.9853   24.1184 C   0  0  0  0  0  0  0  0  0  0  0  0
   -7.5661    7.3207   21.7881 O   0  0  0  0  0  0  0  0  0  0  0  0
   -7.9312    7.0324   20.9747 H   0  0  0  0  0  0  0  0  0  0  0  0
   -8.1189    3.8669   28.7993 C   0  0  0  0  0  0  0  0  0  0  0  0
   -7.9104    2.4711   28.6793 C   0  0  0  0  0  0  0  0  0  0  0  0
   -8.0179    1.6443   29.8198 C   0  0  0  0  0  0  0  0  0  0  0  0
   -8.3301    2.2179   31.0801 C   0  0  0  0  0  0  0  0  0  0  0  0
   -8.4326    1.4432   32.1876 O   0  0  0  0  0  0  0  0  0  0  0  0
   -8.5363    3.5979   31.1920 C   0  0  0  0  0  0  0  0  0  0  0  0
   -8.4319    4.4156   30.0638 C   0  0  0  0  0  0  0  0  0  0  0  0
   -8.2970    0.5181   32.1265 H   0  0  0  0  0  0  0  0  0  0  0  0
   -9.2521    3.1781   23.8516 C   0  0  0  0  0  0  0  0  0  0  0  0
   -8.5659    2.3057   22.9355 O   0  0  0  0  0  0  0  0  0  0  0  0
   -8.5608    0.9988   23.5127 C   0  0  0  0  0  0  0  0  0  0  0  0
  1  2  1  0  0  0
  1 13  2  0  0  0
  1 14  1  0  0  0
  2  3  2  0  0  0
  3  4  1  0  0  0
  3 24  1  0  0  0
  4  5  1  0  0  0
  4 12  2  0  0  0
  5  6  1  0  0  0
  6  7  1  0  0  0
  6 16  1  0  0  0
  7  8  1  0  0  0
  7 11  1  0  0  0
  8  9  1  0  0  0
  9 10  1  0  0  0
 10 11  1  0  0  0
 11 12  1  0  0  0
 12 13  1  0  0  0
 16 17  1  0  0  0
 16 22  2  0  0  0
 17 18  2  0  0  0
 18 19  1  0  0  0
 19 20  1  0  0  0
 19 21  2  0  0  0
 21 22  1  0  0  0
 24 25  1  0  0  0
 25 26  1  0  0  0
 20 23  1  0  0  0
 14 15  1  0  0  0
M  END
> <minimizedAffinity>
-7.48553

$$$$
