2QE4_JJ3_A_601
  RCSB PDB12061706473D
Coordinates from PDB:2QE4:A:601 Model:1 without hydrogens
 24 27  0  0  0  0            999 V2000
   -6.4620    8.4360   26.6260   C 0  0  0  0  0  0  0  0  0  0  0  0
   -5.7230    8.3090   25.4190   C 0  0  0  0  0  0  0  0  0  0  0  0
   -5.8470    7.1600   24.6240   C 0  0  0  0  0  0  0  0  0  0  0  0
   -6.7340    6.0980   25.0240   C 0  0  0  0  0  0  0  0  0  0  0  0
   -6.8220    4.9660   24.1960   O 0  0  0  0  0  0  0  0  0  0  0  0
   -8.0640    4.2460   24.3750   C 0  0  0  0  0  0  0  0  0  0  0  0
   -8.3130    3.8660   25.8760   C 0  0  0  0  0  0  0  0  0  0  0  0
   -7.1390    3.0300   26.4960   C 0  0  0  0  0  0  0  0  0  0  0  0
   -7.0820    3.4560   27.9870   C 0  0  0  0  0  0  0  0  0  0  0  0
   -8.0280    4.6520   28.1620   C 0  0  0  0  0  0  0  0  0  0  0  0
   -8.4400    5.1430   26.7400   C 0  0  0  0  0  0  0  0  0  0  0  0
   -7.4740    6.2350   26.2470   C 0  0  0  0  0  0  0  0  0  0  0  0
   -7.3310    7.4070   27.0320   C 0  0  0  0  0  0  0  0  0  0  0  0
   -8.1190    2.9810   23.5130   C 0  0  0  0  0  0  0  0  0  0  0  0
   -7.0150    2.5600   22.7320   C 0  0  0  0  0  0  0  0  0  0  0  0
   -7.1120    1.3840   21.9550   C 0  0  0  0  0  0  0  0  0  0  0  0
   -8.3140    0.6290   21.9650   C 0  0  0  0  0  0  0  0  0  0  0  0
   -8.4260   -0.5050   21.2310   O 0  0  0  0  0  0  0  0  0  0  0  0
   -9.4020    1.0510   22.7380   C 0  0  0  0  0  0  0  0  0  0  0  0
   -9.3070    2.2150   23.5050   C 0  0  0  0  0  0  0  0  0  0  0  0
   -5.0390    7.0700   23.3360   C 0  0  0  0  0  0  0  0  0  0  0  0
   -5.9120    6.8010   22.2240   O 0  0  0  0  0  0  0  0  0  0  0  0
   -6.0140    8.0040   21.4600   C 0  0  0  0  0  0  0  0  0  0  0  0
   -6.3330    9.5520   27.3890   O 0  0  0  0  0  0  0  0  0  0  0  0
  1  2  1  0  0  0  0
  1 13  2  0  0  0  0
  1 24  1  0  0  0  0
  2  3  2  0  0  0  0
  3  4  1  0  0  0  0
  3 21  1  0  0  0  0
  4  5  1  0  0  0  0
  4 12  2  0  0  0  0
  5  6  1  0  0  0  0
  6  7  1  0  0  0  0
  6 14  1  0  0  0  0
  7  8  1  0  0  0  0
  7 11  1  0  0  0  0
  8  9  1  0  0  0  0
  9 10  1  0  0  0  0
 10 11  1  0  0  0  0
 11 12  1  0  0  0  0
 12 13  1  0  0  0  0
 14 15  1  0  0  0  0
 14 20  2  0  0  0  0
 15 16  2  0  0  0  0
 16 17  1  0  0  0  0
 17 18  1  0  0  0  0
 17 19  2  0  0  0  0
 19 20  1  0  0  0  0
 21 22  1  0  0  0  0
 22 23  1  0  0  0  0
A    1
C1
A    2
C2
A    3
C3
A    4
C4
A    5
O5
A    6
C6
A    7
C8
A    8
C10
A    9
C11
A   10
C12
A   11
C13
A   12
C15
A   13
C16
A   14
C17
A   15
C18
A   16
C19
A   17
C20
A   18
O21
A   19
C22
A   20
C23
A   21
C24
A   22
O25
A   23
C26
A   24
O27
M  END
>  <InstanceId>
2QE4_JJ3_A_601

>  <ChemCompId>
JJ3

>  <PdbId>
2QE4

>  <ChainId>
A

>  <ResidueNumber>
601

>  <InsertionCode>


>  <Model>
1

>  <AltIds>


>  <MissingHeavyAtoms>
0

>  <ObservedFormula>
C20 O4

>  <Name>
(3AS,4R,9BR)-4-(4-HYDROXYPHENYL)-6-(METHOXYMETHYL)-1,2,3,3A,4,9B-HEXAHYDROCYCLOPENTA[C]CHROMEN-8-OL

>  <SystematicName>
(3aS,4R,9bR)-4-(4-hydroxyphenyl)-6-(methoxymethyl)-1,2,3,3a,4,9b-hexahydrocyclopenta[c]chromen-8-ol

>  <Synonyms>


>  <Type>
NON-POLYMER

>  <Formula>
C20 H22 O4

>  <MolecularWeight>
326.386

>  <ModifiedDate>
2011-06-04

>  <Parent>


>  <OneLetterCode>


>  <SubcomponentList>


>  <AmbiguousFlag>


>  <InChI>
InChI=1S/C20H22O4/c1-23-11-13-9-15(22)10-18-16-3-2-4-17(16)19(24-20(13)18)12-5-7-14(21)8-6-12/h5-10,16-17,19,21-22H,2-4,11H2,1H3/t16-,17+,19+/m1/s1

>  <InChIKey>
RHQLNMNKTIOREN-AOIWGVFYSA-N

>  <SMILES>
COCc1cc(cc2c1O[C@H]([C@@H]3[C@H]2CCC3)c4ccc(cc4)O)O

$$$$
