2EPN_NGT_A_1650


 17 18  0  0  0  0  0  0  0  0999 V2000
   23.0471    6.5851   40.4622 C   0  0  0  0  0  0  0  0  0  0  0  0
   24.4113    6.7715   39.7500 C   0  0  0  0  0  0  0  0  0  0  0  0
   25.1285    8.0235   40.2292 C   0  0  0  0  0  0  0  0  0  0  0  0
   24.2494    9.3008   40.2246 C   0  0  0  0  0  0  0  0  0  0  0  0
   23.0269    8.9385   41.0703 C   0  0  0  0  0  0  0  0  0  0  0  0
   24.8858    5.1807   41.4504 C   0  0  0  0  0  0  0  0  0  0  0  0
   25.5689    4.0638   42.1854 C   0  0  0  0  0  0  0  0  0  0  0  0
   25.2155    5.6372   40.2453 N   0  0  0  0  0  0  0  0  0  0  0  0
   23.4443    5.8763   42.1068 S   0  0  0  0  0  0  0  0  0  0  0  0
   26.3344    8.2901   39.4104 O   0  0  0  0  0  0  0  0  0  0  0  0
   24.9531   10.4320   40.7721 O   0  0  0  0  0  0  0  0  0  0  0  0
   22.3236    7.8044   40.5288 O   0  0  0  0  0  0  0  0  0  0  0  0
   26.0695    8.4772   38.4962 H   0  0  0  0  0  0  0  0  0  0  0  0
   25.2305   10.2318   41.6798 H   0  0  0  0  0  0  0  0  0  0  0  0
   22.0351   10.0992   41.1756 C   0  0  0  0  0  0  0  0  0  0  0  0
   21.2303   10.1426   40.0077 O   0  0  0  0  0  0  0  0  0  0  0  0
   21.7957   10.2708   39.2300 H   0  0  0  0  0  0  0  0  0  0  0  0
  1  2  1  0  0  0
  1  9  1  0  0  0
  1 12  1  0  0  0
  2  3  1  0  0  0
  2  8  1  0  0  0
  3  4  1  0  0  0
  3 10  1  0  0  0
  4  5  1  0  0  0
  4 11  1  0  0  0
  5 15  1  0  0  0
  5 12  1  0  0  0
 15 16  1  0  0  0
  6  7  1  0  0  0
  6  8  2  0  0  0
  6  9  1  0  0  0
 10 13  1  0  0  0
 11 14  1  0  0  0
 16 17  1  0  0  0
M  END
> <minimizedAffinity>
-7.10976

$$$$
2EPN_NGT_A_1650


 17 18  0  0  0  0  0  0  0  0999 V2000
   22.3552    7.3358   40.8388 C   0  0  0  0  0  0  0  0  0  0  0  0
   23.1275    8.6765   40.9349 C   0  0  0  0  0  0  0  0  0  0  0  0
   24.5169    8.5691   40.3270 C   0  0  0  0  0  0  0  0  0  0  0  0
   25.3345    7.3480   40.8218 C   0  0  0  0  0  0  0  0  0  0  0  0
   24.4468    6.1368   40.5287 C   0  0  0  0  0  0  0  0  0  0  0  0
   21.7213    8.9806   39.0435 C   0  0  0  0  0  0  0  0  0  0  0  0
   20.9115    9.6723   37.9852 C   0  0  0  0  0  0  0  0  0  0  0  0
   22.3698    9.5745   40.0415 N   0  0  0  0  0  0  0  0  0  0  0  0
   21.7288    7.2522   39.1167 S   0  0  0  0  0  0  0  0  0  0  0  0
   25.3083    9.7932   40.5932 O   0  0  0  0  0  0  0  0  0  0  0  0
   26.6025    7.2486   40.1458 O   0  0  0  0  0  0  0  0  0  0  0  0
   23.1759    6.2353   41.1988 O   0  0  0  0  0  0  0  0  0  0  0  0
   25.4500    9.8852   41.5484 H   0  0  0  0  0  0  0  0  0  0  0  0
   26.4544    7.1747   39.1900 H   0  0  0  0  0  0  0  0  0  0  0  0
   25.1040    4.8236   40.9595 C   0  0  0  0  0  0  0  0  0  0  0  0
   26.1575    5.0969   41.8699 O   0  0  0  0  0  0  0  0  0  0  0  0
   26.8179    5.6624   41.4399 H   0  0  0  0  0  0  0  0  0  0  0  0
  1  2  1  0  0  0
  1  9  1  0  0  0
  1 12  1  0  0  0
  2  3  1  0  0  0
  2  8  1  0  0  0
  3  4  1  0  0  0
  3 10  1  0  0  0
  4  5  1  0  0  0
  4 11  1  0  0  0
  5 15  1  0  0  0
  5 12  1  0  0  0
 15 16  1  0  0  0
  6  7  1  0  0  0
  6  8  2  0  0  0
  6  9  1  0  0  0
 10 13  1  0  0  0
 11 14  1  0  0  0
 16 17  1  0  0  0
M  END
> <minimizedAffinity>
-7.02400

$$$$
2EPN_NGT_A_1650


 17 18  0  0  0  0  0  0  0  0999 V2000
   22.0498    7.2419   39.2511 C   0  0  0  0  0  0  0  0  0  0  0  0
   21.5153    8.4387   40.0789 C   0  0  0  0  0  0  0  0  0  0  0  0
   22.5738    9.5155   40.2574 C   0  0  0  0  0  0  0  0  0  0  0  0
   23.9437    8.9841   40.7528 C   0  0  0  0  0  0  0  0  0  0  0  0
   24.3363    7.9070   39.7395 C   0  0  0  0  0  0  0  0  0  0  0  0
   20.6718    8.8529   37.8962 C   0  0  0  0  0  0  0  0  0  0  0  0
   19.7910    9.3835   36.8021 C   0  0  0  0  0  0  0  0  0  0  0  0
   20.4874    9.0319   39.2013 N   0  0  0  0  0  0  0  0  0  0  0  0
   21.9712    7.7819   37.4998 S   0  0  0  0  0  0  0  0  0  0  0  0
   22.1141   10.5593   41.2032 O   0  0  0  0  0  0  0  0  0  0  0  0
   24.9289   10.0330   40.8160 O   0  0  0  0  0  0  0  0  0  0  0  0
   23.3509    6.8591   39.6697 O   0  0  0  0  0  0  0  0  0  0  0  0
   21.9919   10.1680   42.0823 H   0  0  0  0  0  0  0  0  0  0  0  0
   25.0333   10.4319   39.9379 H   0  0  0  0  0  0  0  0  0  0  0  0
   25.6831    7.2631   40.0764 C   0  0  0  0  0  0  0  0  0  0  0  0
   26.7348    8.1335   39.6893 O   0  0  0  0  0  0  0  0  0  0  0  0
   26.6848    8.2963   38.7344 H   0  0  0  0  0  0  0  0  0  0  0  0
  1  2  1  0  0  0
  1  9  1  0  0  0
  1 12  1  0  0  0
  2  3  1  0  0  0
  2  8  1  0  0  0
  3  4  1  0  0  0
  3 10  1  0  0  0
  4  5  1  0  0  0
  4 11  1  0  0  0
  5 15  1  0  0  0
  5 12  1  0  0  0
 15 16  1  0  0  0
  6  7  1  0  0  0
  6  8  2  0  0  0
  6  9  1  0  0  0
 10 13  1  0  0  0
 11 14  1  0  0  0
 16 17  1  0  0  0
M  END
> <minimizedAffinity>
-6.97863

$$$$
2EPN_NGT_A_1650


 17 18  0  0  0  0  0  0  0  0999 V2000
   23.6359    9.0874   39.6489 C   0  0  0  0  0  0  0  0  0  0  0  0
   22.4617    9.2140   40.6531 C   0  0  0  0  0  0  0  0  0  0  0  0
   21.1296    8.8707   40.0056 C   0  0  0  0  0  0  0  0  0  0  0  0
   20.8720    9.5951   38.6590 C   0  0  0  0  0  0  0  0  0  0  0  0
   22.0800    9.2448   37.7879 C   0  0  0  0  0  0  0  0  0  0  0  0
   23.3940    7.0865   41.1549 C   0  0  0  0  0  0  0  0  0  0  0  0
   23.7531    5.8517   41.9299 C   0  0  0  0  0  0  0  0  0  0  0  0
   22.7226    8.1342   41.6249 N   0  0  0  0  0  0  0  0  0  0  0  0
   24.0067    7.2936   39.5504 S   0  0  0  0  0  0  0  0  0  0  0  0
   20.0024    9.1767   40.9174 O   0  0  0  0  0  0  0  0  0  0  0  0
   19.6399    9.1629   38.0507 O   0  0  0  0  0  0  0  0  0  0  0  0
   23.3143    9.6706   38.3955 O   0  0  0  0  0  0  0  0  0  0  0  0
   19.9710   10.1318   41.0836 H   0  0  0  0  0  0  0  0  0  0  0  0
   19.6707    8.2046   37.9035 H   0  0  0  0  0  0  0  0  0  0  0  0
   21.9945    9.8851   36.4006 C   0  0  0  0  0  0  0  0  0  0  0  0
   21.3439   11.1423   36.4979 O   0  0  0  0  0  0  0  0  0  0  0  0
   20.4493   11.0170   36.8512 H   0  0  0  0  0  0  0  0  0  0  0  0
  1  2  1  0  0  0
  1  9  1  0  0  0
  1 12  1  0  0  0
  2  3  1  0  0  0
  2  8  1  0  0  0
  3  4  1  0  0  0
  3 10  1  0  0  0
  4  5  1  0  0  0
  4 11  1  0  0  0
  5 15  1  0  0  0
  5 12  1  0  0  0
 15 16  1  0  0  0
  6  7  1  0  0  0
  6  8  2  0  0  0
  6  9  1  0  0  0
 10 13  1  0  0  0
 11 14  1  0  0  0
 16 17  1  0  0  0
M  END
> <minimizedAffinity>
-6.32013

$$$$
2EPN_NGT_A_1650


 17 18  0  0  0  0  0  0  0  0999 V2000
   24.8612    8.1701   40.7170 C   0  0  0  0  0  0  0  0  0  0  0  0
   23.3754    7.7690   40.9032 C   0  0  0  0  0  0  0  0  0  0  0  0
   22.7563    7.2870   39.6008 C   0  0  0  0  0  0  0  0  0  0  0  0
   22.9949    8.2328   38.3954 C   0  0  0  0  0  0  0  0  0  0  0  0
   24.5140    8.3993   38.3221 C   0  0  0  0  0  0  0  0  0  0  0  0
   24.5656    5.8662   41.6839 C   0  0  0  0  0  0  0  0  0  0  0  0
   24.8663    4.6019   42.4360 C   0  0  0  0  0  0  0  0  0  0  0  0
   23.4468    6.5799   41.7746 N   0  0  0  0  0  0  0  0  0  0  0  0
   25.7986    6.5933   40.7124 S   0  0  0  0  0  0  0  0  0  0  0  0
   21.2956    7.0882   39.7496 O   0  0  0  0  0  0  0  0  0  0  0  0
   22.4651    7.6815   37.1747 O   0  0  0  0  0  0  0  0  0  0  0  0
   25.0480    8.9454   39.5430 O   0  0  0  0  0  0  0  0  0  0  0  0
   20.8710    7.9396   39.9387 H   0  0  0  0  0  0  0  0  0  0  0  0
   22.8806    6.8224   37.0008 H   0  0  0  0  0  0  0  0  0  0  0  0
   24.9380    9.3165   37.1727 C   0  0  0  0  0  0  0  0  0  0  0  0
   25.1026    8.5497   35.9902 O   0  0  0  0  0  0  0  0  0  0  0  0
   25.7855    7.8760   36.1342 H   0  0  0  0  0  0  0  0  0  0  0  0
  1  2  1  0  0  0
  1  9  1  0  0  0
  1 12  1  0  0  0
  2  3  1  0  0  0
  2  8  1  0  0  0
  3  4  1  0  0  0
  3 10  1  0  0  0
  4  5  1  0  0  0
  4 11  1  0  0  0
  5 15  1  0  0  0
  5 12  1  0  0  0
 15 16  1  0  0  0
  6  7  1  0  0  0
  6  8  2  0  0  0
  6  9  1  0  0  0
 10 13  1  0  0  0
 11 14  1  0  0  0
 16 17  1  0  0  0
M  END
> <minimizedAffinity>
-6.23368

$$$$
2EPN_NGT_A_1650


 17 18  0  0  0  0  0  0  0  0999 V2000
   21.9297    8.0128   40.0698 C   0  0  0  0  0  0  0  0  0  0  0  0
   22.6213    7.3898   38.8302 C   0  0  0  0  0  0  0  0  0  0  0  0
   22.6076    8.3394   37.6429 C   0  0  0  0  0  0  0  0  0  0  0  0
   21.2161    8.9494   37.3329 C   0  0  0  0  0  0  0  0  0  0  0  0
   20.7752    9.6062   38.6425 C   0  0  0  0  0  0  0  0  0  0  0  0
   24.4393    8.1764   40.1429 C   0  0  0  0  0  0  0  0  0  0  0  0
   25.8301    8.3007   40.6948 C   0  0  0  0  0  0  0  0  0  0  0  0
   24.0351    7.2859   39.2412 N   0  0  0  0  0  0  0  0  0  0  0  0
   23.1698    9.1466   40.8060 S   0  0  0  0  0  0  0  0  0  0  0  0
   23.0991    7.6648   36.4186 O   0  0  0  0  0  0  0  0  0  0  0  0
   21.2832    9.9069   36.2590 O   0  0  0  0  0  0  0  0  0  0  0  0
   20.7121    8.6527   39.7200 O   0  0  0  0  0  0  0  0  0  0  0  0
   22.4942    6.9447   36.1812 H   0  0  0  0  0  0  0  0  0  0  0  0
   21.9029   10.6148   36.4952 H   0  0  0  0  0  0  0  0  0  0  0  0
   19.4009   10.2682   38.5205 C   0  0  0  0  0  0  0  0  0  0  0  0
   18.6338    9.9855   39.6803 O   0  0  0  0  0  0  0  0  0  0  0  0
   18.5230    9.0259   39.7687 H   0  0  0  0  0  0  0  0  0  0  0  0
  1  2  1  0  0  0
  1  9  1  0  0  0
  1 12  1  0  0  0
  2  3  1  0  0  0
  2  8  1  0  0  0
  3  4  1  0  0  0
  3 10  1  0  0  0
  4  5  1  0  0  0
  4 11  1  0  0  0
  5 15  1  0  0  0
  5 12  1  0  0  0
 15 16  1  0  0  0
  6  7  1  0  0  0
  6  8  2  0  0  0
  6  9  1  0  0  0
 10 13  1  0  0  0
 11 14  1  0  0  0
 16 17  1  0  0  0
M  END
> <minimizedAffinity>
-5.99353

$$$$
2EPN_NGT_A_1650


 17 18  0  0  0  0  0  0  0  0999 V2000
   21.0377    8.8239   37.8668 C   0  0  0  0  0  0  0  0  0  0  0  0
   20.6442    8.9639   39.3597 C   0  0  0  0  0  0  0  0  0  0  0  0
   21.6985    9.7230   40.1495 C   0  0  0  0  0  0  0  0  0  0  0  0
   23.1453    9.2071   39.9375 C   0  0  0  0  0  0  0  0  0  0  0  0
   23.3630    9.2609   38.4240 C   0  0  0  0  0  0  0  0  0  0  0  0
   19.4055   10.6901   38.2951 C   0  0  0  0  0  0  0  0  0  0  0  0
   18.3290   11.7076   38.0501 C   0  0  0  0  0  0  0  0  0  0  0  0
   19.4619    9.8467   39.3222 N   0  0  0  0  0  0  0  0  0  0  0  0
   20.6281   10.4380   37.0974 S   0  0  0  0  0  0  0  0  0  0  0  0
   21.4030    9.6852   41.6010 O   0  0  0  0  0  0  0  0  0  0  0  0
   24.1068   10.0193   40.6379 O   0  0  0  0  0  0  0  0  0  0  0  0
   22.4001    8.4541   37.7199 O   0  0  0  0  0  0  0  0  0  0  0  0
   21.4519    8.7695   41.9172 H   0  0  0  0  0  0  0  0  0  0  0  0
   24.0406   10.9368   40.3300 H   0  0  0  0  0  0  0  0  0  0  0  0
   24.7599    8.7790   38.0258 C   0  0  0  0  0  0  0  0  0  0  0  0
   25.2538    7.8884   39.0138 O   0  0  0  0  0  0  0  0  0  0  0  0
   25.3018    8.3468   39.8674 H   0  0  0  0  0  0  0  0  0  0  0  0
  1  2  1  0  0  0
  1  9  1  0  0  0
  1 12  1  0  0  0
  2  3  1  0  0  0
  2  8  1  0  0  0
  3  4  1  0  0  0
  3 10  1  0  0  0
  4  5  1  0  0  0
  4 11  1  0  0  0
  5 15  1  0  0  0
  5 12  1  0  0  0
 15 16  1  0  0  0
  6  7  1  0  0  0
  6  8  2  0  0  0
  6  9  1  0  0  0
 10 13  1  0  0  0
 11 14  1  0  0  0
 16 17  1  0  0  0
M  END
> <minimizedAffinity>
-5.71973

$$$$
2EPN_NGT_A_1650


 17 18  0  0  0  0  0  0  0  0999 V2000
   21.8878    8.3417   37.3728 C   0  0  0  0  0  0  0  0  0  0  0  0
   20.6815    8.4379   38.3416 C   0  0  0  0  0  0  0  0  0  0  0  0
   20.9428    9.4257   39.4676 C   0  0  0  0  0  0  0  0  0  0  0  0
   22.3002    9.2225   40.1890 C   0  0  0  0  0  0  0  0  0  0  0  0
   23.3482    9.2778   39.0757 C   0  0  0  0  0  0  0  0  0  0  0  0
   20.0459    9.8308   36.5242 C   0  0  0  0  0  0  0  0  0  0  0  0
   19.1720   10.5893   35.5675 C   0  0  0  0  0  0  0  0  0  0  0  0
   19.6232    9.0484   37.5134 N   0  0  0  0  0  0  0  0  0  0  0  0
   21.7584    9.8094   36.2801 S   0  0  0  0  0  0  0  0  0  0  0  0
   19.8664    9.3678   40.4842 O   0  0  0  0  0  0  0  0  0  0  0  0
   22.5314   10.2400   41.1820 O   0  0  0  0  0  0  0  0  0  0  0  0
   23.1172    8.2652   38.0780 O   0  0  0  0  0  0  0  0  0  0  0  0
   19.8637    8.4927   40.9028 H   0  0  0  0  0  0  0  0  0  0  0  0
   22.5152   11.1132   40.7601 H   0  0  0  0  0  0  0  0  0  0  0  0
   24.7691    9.0919   39.6127 C   0  0  0  0  0  0  0  0  0  0  0  0
   25.0548   10.1090   40.5601 O   0  0  0  0  0  0  0  0  0  0  0  0
   24.9819   10.9774   40.1340 H   0  0  0  0  0  0  0  0  0  0  0  0
  1  2  1  0  0  0
  1  9  1  0  0  0
  1 12  1  0  0  0
  2  3  1  0  0  0
  2  8  1  0  0  0
  3  4  1  0  0  0
  3 10  1  0  0  0
  4  5  1  0  0  0
  4 11  1  0  0  0
  5 15  1  0  0  0
  5 12  1  0  0  0
 15 16  1  0  0  0
  6  7  1  0  0  0
  6  8  2  0  0  0
  6  9  1  0  0  0
 10 13  1  0  0  0
 11 14  1  0  0  0
 16 17  1  0  0  0
M  END
> <minimizedAffinity>
-5.68688

$$$$
2EPN_NGT_A_1650


 17 18  0  0  0  0  0  0  0  0999 V2000
   23.2602    8.3649   38.9587 C   0  0  0  0  0  0  0  0  0  0  0  0
   23.0726    9.0966   40.3124 C   0  0  0  0  0  0  0  0  0  0  0  0
   21.6047    9.2060   40.6930 C   0  0  0  0  0  0  0  0  0  0  0  0
   20.6943    9.7531   39.5633 C   0  0  0  0  0  0  0  0  0  0  0  0
   20.9467    8.8261   38.3726 C   0  0  0  0  0  0  0  0  0  0  0  0
   23.6437    6.8809   40.9539 C   0  0  0  0  0  0  0  0  0  0  0  0
   24.1540    5.7418   41.7883 C   0  0  0  0  0  0  0  0  0  0  0  0
   23.6699    8.1673   41.2912 N   0  0  0  0  0  0  0  0  0  0  0  0
   23.0994    6.5777   39.3400 S   0  0  0  0  0  0  0  0  0  0  0  0
   21.4288   10.0675   41.8856 O   0  0  0  0  0  0  0  0  0  0  0  0
   19.3068    9.7489   39.9503 O   0  0  0  0  0  0  0  0  0  0  0  0
   22.3340    8.8237   37.9861 O   0  0  0  0  0  0  0  0  0  0  0  0
   21.7100   10.9718   41.6755 H   0  0  0  0  0  0  0  0  0  0  0  0
   19.0369    8.8449   40.1760 H   0  0  0  0  0  0  0  0  0  0  0  0
   20.1190    9.2233   37.1481 C   0  0  0  0  0  0  0  0  0  0  0  0
   18.7989    8.7213   37.2850 O   0  0  0  0  0  0  0  0  0  0  0  0
   18.8264    7.7543   37.3561 H   0  0  0  0  0  0  0  0  0  0  0  0
  1  2  1  0  0  0
  1  9  1  0  0  0
  1 12  1  0  0  0
  2  3  1  0  0  0
  2  8  1  0  0  0
  3  4  1  0  0  0
  3 10  1  0  0  0
  4  5  1  0  0  0
  4 11  1  0  0  0
  5 15  1  0  0  0
  5 12  1  0  0  0
 15 16  1  0  0  0
  6  7  1  0  0  0
  6  8  2  0  0  0
  6  9  1  0  0  0
 10 13  1  0  0  0
 11 14  1  0  0  0
 16 17  1  0  0  0
M  END
> <minimizedAffinity>
-5.44021

$$$$
2EPN_NGT_A_1650


 17 18  0  0  0  0  0  0  0  0999 V2000
   24.4509    8.4699   39.3850 C   0  0  0  0  0  0  0  0  0  0  0  0
   23.8240    7.0791   39.6601 C   0  0  0  0  0  0  0  0  0  0  0  0
   24.5138    6.3706   40.8150 C   0  0  0  0  0  0  0  0  0  0  0  0
   26.0606    6.3415   40.7100 C   0  0  0  0  0  0  0  0  0  0  0  0
   26.4714    7.8079   40.5632 C   0  0  0  0  0  0  0  0  0  0  0  0
   22.3376    8.5822   40.7456 C   0  0  0  0  0  0  0  0  0  0  0  0
   21.0763    9.1266   41.3513 C   0  0  0  0  0  0  0  0  0  0  0  0
   22.4678    7.4030   40.1441 N   0  0  0  0  0  0  0  0  0  0  0  0
   23.7422    9.5880   40.6548 S   0  0  0  0  0  0  0  0  0  0  0  0
   24.0334    4.9748   40.9438 O   0  0  0  0  0  0  0  0  0  0  0  0
   26.6606    5.7394   41.8729 O   0  0  0  0  0  0  0  0  0  0  0  0
   25.8690    8.4148   39.4044 O   0  0  0  0  0  0  0  0  0  0  0  0
   24.2779    4.4742   40.1498 H   0  0  0  0  0  0  0  0  0  0  0  0
   26.3980    6.2340   42.6650 H   0  0  0  0  0  0  0  0  0  0  0  0
   27.9883    7.9717   40.4438 C   0  0  0  0  0  0  0  0  0  0  0  0
   28.6312    6.8070   40.9372 O   0  0  0  0  0  0  0  0  0  0  0  0
   28.3931    6.6762   41.8684 H   0  0  0  0  0  0  0  0  0  0  0  0
  1  2  1  0  0  0
  1  9  1  0  0  0
  1 12  1  0  0  0
  2  3  1  0  0  0
  2  8  1  0  0  0
  3  4  1  0  0  0
  3 10  1  0  0  0
  4  5  1  0  0  0
  4 11  1  0  0  0
  5 15  1  0  0  0
  5 12  1  0  0  0
 15 16  1  0  0  0
  6  7  1  0  0  0
  6  8  2  0  0  0
  6  9  1  0  0  0
 10 13  1  0  0  0
 11 14  1  0  0  0
 16 17  1  0  0  0
M  END
> <minimizedAffinity>
-5.35227

$$$$
