2EPN_NGT_A_1650
  RCSB PDB12061705293D
Coordinates from PDB:2EPN:A:1650 Model:1 without hydrogens
 14 15  0  0  0  0            999 V2000
   23.2810    6.4870   40.3750   C 0  0  0  0  0  0  0  0  0  0  0  0
   24.7020    6.7500   39.8140   C 0  0  0  0  0  0  0  0  0  0  0  0
   25.3080    8.0190   40.3920   C 0  0  0  0  0  0  0  0  0  0  0  0
   24.3770    9.2570   40.3220   C 0  0  0  0  0  0  0  0  0  0  0  0
   23.0910    8.8210   41.0270   C 0  0  0  0  0  0  0  0  0  0  0  0
   22.0420    9.9350   41.0520   C 0  0  0  0  0  0  0  0  0  0  0  0
   25.0690    5.1380   41.5210   C 0  0  0  0  0  0  0  0  0  0  0  0
   25.7220    4.0330   42.3000   C 0  0  0  0  0  0  0  0  0  0  0  0
   25.5010    5.6390   40.3670   N 0  0  0  0  0  0  0  0  0  0  0  0
   23.5370    5.7540   42.0370   S 0  0  0  0  0  0  0  0  0  0  0  0
   26.5790    8.3580   39.7100   O 0  0  0  0  0  0  0  0  0  0  0  0
   24.9680   10.4030   40.9640   O 0  0  0  0  0  0  0  0  0  0  0  0
   22.5000    7.6720   40.3910   O 0  0  0  0  0  0  0  0  0  0  0  0
   21.6320   10.2300   39.7260   O 0  0  0  0  0  0  0  0  0  0  0  0
  1  2  1  0  0  0  0
  1 10  1  0  0  0  0
  1 13  1  0  0  0  0
  2  3  1  0  0  0  0
  2  9  1  0  0  0  0
  3  4  1  0  0  0  0
  3 11  1  0  0  0  0
  4  5  1  0  0  0  0
  4 12  1  0  0  0  0
  5  6  1  0  0  0  0
  5 13  1  0  0  0  0
  6 14  1  0  0  0  0
  7  8  1  0  0  0  0
  7  9  2  0  0  0  0
  7 10  1  0  0  0  0
A    1
C1
A    2
C2
A    3
C3
A    4
C4
A    5
C5
A    6
C6
A    7
C7
A    8
C8
A    9
N2
A   10
S1
A   11
O3
A   12
O4
A   13
O5
A   14
O6
M  END
>  <InstanceId>
2EPN_NGT_A_1650

>  <ChemCompId>
NGT

>  <PdbId>
2EPN

>  <ChainId>
A

>  <ResidueNumber>
1650

>  <InsertionCode>


>  <Model>
1

>  <AltIds>


>  <MissingHeavyAtoms>
0

>  <ObservedFormula>
C8 N O4 S

>  <Name>
3AR,5R,6S,7R,7AR-5-HYDROXYMETHYL-2-METHYL-5,6,7,7A-TETRAHYDRO-3AH-PYRANO[3,2-D]THIAZOLE-6,7-DIOL

>  <SystematicName>
(3aR,5R,6S,7R,7aR)-5-(hydroxymethyl)-2-methyl-5,6,7,7a-tetrahydro-3aH-pyrano[5,6-d][1,3]thiazole-6,7-diol

>  <Synonyms>


>  <Type>
NON-POLYMER

>  <Formula>
C8 H13 N O4 S

>  <MolecularWeight>
219.258

>  <ModifiedDate>
2011-06-04

>  <Parent>


>  <OneLetterCode>


>  <SubcomponentList>


>  <AmbiguousFlag>
N

>  <InChI>
InChI=1S/C8H13NO4S/c1-3-9-5-7(12)6(11)4(2-10)13-8(5)14-3/h4-8,10-12H,2H2,1H3/t4-,5-,6-,7-,8-/m1/s1

>  <InChIKey>
DRHXTSWSUAJOJZ-FMDGEEDCSA-N

>  <SMILES>
CC1=N[C@@H]2[C@H]([C@@H]([C@H](O[C@@H]2S1)CO)O)O

$$$$
