4DMW_UDP_A_602
  RCSB PDB12061712143D
Coordinates from PDB:4DMW:A:602 Model:1 without hydrogens
 25 26  0  0  0  0            999 V2000
    6.3050   27.2570   18.0250   N 0  0  0  0  0  0  0  0  0  0  0  0
    4.9930   26.9780   18.3420   C 0  0  0  0  0  0  0  0  0  0  0  0
    4.3260   25.9570   17.6910   N 0  0  0  0  0  0  0  0  0  0  0  0
    4.9710   25.2060   16.7210   C 0  0  0  0  0  0  0  0  0  0  0  0
    6.3020   25.4940   16.4130   C 0  0  0  0  0  0  0  0  0  0  0  0
    6.8640   26.6730   16.9140   C 0  0  0  0  0  0  0  0  0  0  0  0
    4.4270   27.6460   19.2030   O 0  0  0  0  0  0  0  0  0  0  0  0
    4.3690   24.2920   16.1480   O 0  0  0  0  0  0  0  0  0  0  0  0
    6.9690   28.3440   18.7520   C 0  0  0  0  0  0  0  0  0  0  0  0
    7.4760   27.7480   20.0460   C 0  0  0  0  0  0  0  0  0  0  0  0
    7.2660   28.7250   21.0540   O 0  0  0  0  0  0  0  0  0  0  0  0
    8.9460   27.4820   19.7530   C 0  0  0  0  0  0  0  0  0  0  0  0
    9.2780   28.6670   18.8430   C 0  0  0  0  0  0  0  0  0  0  0  0
    8.0980   28.8410   18.0600   O 0  0  0  0  0  0  0  0  0  0  0  0
    9.7480   27.4380   20.9210   O 0  0  0  0  0  0  0  0  0  0  0  0
   10.4920   28.4290   17.9420   C 0  0  0  0  0  0  0  0  0  0  0  0
   10.1870   27.4200   16.9990   O 0  0  0  0  0  0  0  0  0  0  0  0
   11.3580   26.5430   16.3130   P 0  0  0  0  0  0  0  0  0  0  0  0
   10.7930   25.2890   15.7220   O 0  0  0  0  0  0  0  0  0  0  0  0
   12.3500   26.1990   17.3680   O 0  0  0  0  0  0  0  0  0  0  0  0
   11.9690   27.5560   15.2090   O 0  0  0  0  0  0  0  0  0  0  0  0
   13.4880   28.1070   15.0500   P 0  0  0  0  0  0  0  0  0  0  0  0
   13.6520   28.7700   13.7290   O 0  0  0  0  0  0  0  0  0  0  0  0
   14.4890   27.0190   15.1070   O 0  0  0  0  0  0  0  0  0  0  0  0
   13.8110   29.0900   16.1170   O 0  0  0  0  0  0  0  0  0  0  0  0
  1  2  1  0  0  0  0
  1  6  1  0  0  0  0
  1  9  1  0  0  0  0
  2  3  1  0  0  0  0
  2  7  2  0  0  0  0
  3  4  1  0  0  0  0
  4  5  1  0  0  0  0
  4  8  2  0  0  0  0
  5  6  2  0  0  0  0
  9 10  1  0  0  0  0
  9 14  1  0  0  0  0
 10 11  1  0  0  0  0
 10 12  1  0  0  0  0
 12 13  1  0  0  0  0
 12 15  1  0  0  0  0
 13 14  1  0  0  0  0
 13 16  1  0  0  0  0
 16 17  1  0  0  0  0
 17 18  1  0  0  0  0
 18 19  2  0  0  0  0
 18 20  1  0  0  0  0
 18 21  1  0  0  0  0
 21 22  1  0  0  0  0
 22 23  2  0  0  0  0
 22 24  1  0  0  0  0
 22 25  1  0  0  0  0
A    1
N1
A    2
C2
A    3
N3
A    4
C4
A    5
C5
A    6
C6
A    7
O2
A    8
O4
A    9
C1'
A   10
C2'
A   11
O2'
A   12
C3'
A   13
C4'
A   14
O4'
A   15
O3'
A   16
C5'
A   17
O5'
A   18
PA
A   19
O1A
A   20
O2A
A   21
O3A
A   22
PB
A   23
O1B
A   24
O2B
A   25
O3B
M  END
>  <InstanceId>
4DMW_UDP_A_602

>  <ChemCompId>
UDP

>  <PdbId>
4DMW

>  <ChainId>
A

>  <ResidueNumber>
602

>  <InsertionCode>


>  <Model>
1

>  <AltIds>


>  <MissingHeavyAtoms>
0

>  <ObservedFormula>
C9 N2 O12 P2

>  <Name>
URIDINE-5'-DIPHOSPHATE

>  <SystematicName>
[(2R,3S,4R,5R)-5-(2,4-dioxopyrimidin-1-yl)-3,4-dihydroxy-oxolan-2-yl]methyl phosphono hydrogen phosphate

>  <Synonyms>


>  <Type>
RNA LINKING

>  <Formula>
C9 H14 N2 O12 P2

>  <MolecularWeight>
404.161

>  <ModifiedDate>
2011-06-04

>  <Parent>


>  <OneLetterCode>
N

>  <SubcomponentList>


>  <AmbiguousFlag>
N

>  <InChI>
InChI=1S/C9H14N2O12P2/c12-5-1-2-11(9(15)10-5)8-7(14)6(13)4(22-8)3-21-25(19,20)23-24(16,17)18/h1-2,4,6-8,13-14H,3H2,(H,19,20)(H,10,12,15)(H2,16,17,18)/t4-,6-,7-,8-/m1/s1

>  <InChIKey>
XCCTYIAWTASOJW-XVFCMESISA-N

>  <SMILES>
C1=CN(C(=O)NC1=O)[C@H]2[C@@H]([C@@H]([C@H](O2)CO[P@@](=O)(O)OP(=O)(O)O)O)O

$$$$
