5NVX_4YY_C_301


 39 42  0  0  0  0  0  0  0  0999 V2000
   12.0348   53.9168   92.1897 C   0  0  0  0  0  0  0  0  0  0  0  0
   10.8845   53.6692   91.8576 O   0  0  0  0  0  0  0  0  0  0  0  0
   12.9980   54.2011   91.2772 N   0  0  0  0  0  0  0  0  0  0  0  0
   14.4349   54.5764   91.4562 C   0  0  0  0  0  0  0  0  0  0  0  0
   14.8059   55.2954   90.1555 C   0  0  0  0  0  0  0  0  0  0  0  0
   14.3727   56.6668   90.1824 O   0  0  0  0  0  0  0  0  0  0  0  0
   14.0164   54.5488   89.1066 C   0  0  0  0  0  0  0  0  0  0  0  0
   12.6842   54.1932   89.7853 C   0  0  0  0  0  0  0  0  0  0  0  0
   13.4156   56.7006   90.3366 H   0  0  0  0  0  0  0  0  0  0  0  0
   12.2823   52.9334   89.3009 C   0  0  0  0  0  0  0  0  0  0  0  0
   12.6806   51.9115   89.8452 O   0  0  0  0  0  0  0  0  0  0  0  0
   11.5210   52.9340   88.1804 N   0  0  0  0  0  0  0  0  0  0  0  0
   11.2404   53.8012   87.8084 H   0  0  0  0  0  0  0  0  0  0  0  0
   11.0887   51.7019   87.4857 C   0  0  0  0  0  0  0  0  0  0  0  0
   11.7981   51.4927   86.2528 C   0  0  0  0  0  0  0  0  0  0  0  0
   12.3445   52.5828   85.5854 C   0  0  0  0  0  0  0  0  0  0  0  0
   13.0520   52.4204   84.3898 C   0  0  0  0  0  0  0  0  0  0  0  0
   11.9885   50.2261   85.6819 C   0  0  0  0  0  0  0  0  0  0  0  0
   12.7009   50.0606   84.4805 C   0  0  0  0  0  0  0  0  0  0  0  0
   13.2494   51.1556   83.8194 C   0  0  0  0  0  0  0  0  0  0  0  0
   13.9339   50.9788   82.6669 C   0  0  0  0  0  0  0  0  0  0  0  0
   13.4081   50.0499   81.3399 S   0  0  0  0  0  0  0  0  0  0  0  0
   14.7542   50.3371   80.4043 C   0  0  0  0  0  0  0  0  0  0  0  0
   15.5856   51.1226   81.0976 N   0  0  0  0  0  0  0  0  0  0  0  0
   15.1470   51.4716   82.3244 C   0  0  0  0  0  0  0  0  0  0  0  0
   16.0217   52.3874   83.1896 C   0  0  0  0  0  0  0  0  0  0  0  0
   12.3924   53.9885   93.6984 C   0  0  0  0  0  0  0  0  0  0  0  0
   11.1868   55.7652   94.9792 C   0  0  0  0  0  0  0  0  0  0  0  0
   12.1351   56.5307   95.1017 O   0  0  0  0  0  0  0  0  0  0  0  0
   11.2225   54.5673   94.3878 N   0  0  0  0  0  0  0  0  0  0  0  0
   10.4006   54.0260   94.4141 H   0  0  0  0  0  0  0  0  0  0  0  0
    9.8213   56.4043   97.1212 C   0  0  0  0  0  0  0  0  0  0  0  0
    9.5600   57.5048   96.1042 C   0  0  0  0  0  0  0  0  0  0  0  0
    9.8339   56.0965   95.6269 C   0  0  0  0  0  0  0  0  0  0  0  0
    8.8321   55.4386   95.1760 F   0  0  0  0  0  0  0  0  0  0  0  0
   12.7490   52.6063   94.3080 C   0  0  0  0  0  0  0  0  0  0  0  0
   11.4404   51.9679   94.7801 C   0  0  0  0  0  0  0  0  0  0  0  0
   13.6870   52.7877   95.5002 C   0  0  0  0  0  0  0  0  0  0  0  0
   13.4272   51.6501   93.2817 C   0  0  0  0  0  0  0  0  0  0  0  0
 24 23  2  0  0  0
 24 25  1  0  0  0
 23 22  1  0  0  0
 26 25  1  0  0  0
 25 21  2  0  0  0
 22 21  1  0  0  0
 21 20  1  0  0  0
 20 17  2  0  0  0
 20 19  1  0  0  0
 17 16  1  0  0  0
 19 18  2  0  0  0
 16 15  2  0  0  0
 18 15  1  0  0  0
 15 14  1  0  0  0
 14 12  1  0  0  0
 12 10  1  0  0  0
  7  8  1  0  0  0
  7  5  1  0  0  0
 10 11  2  0  0  0
 10  8  1  0  0  0
  8  3  1  0  0  0
  5  6  1  0  0  0
  5  4  1  0  0  0
  3  4  1  0  0  0
  3  1  1  0  0  0
  2  1  2  0  0  0
  1 27  1  0  0  0
 38 36  1  0  0  0
 27 36  1  0  0  0
 27 30  1  0  0  0
 39 36  1  0  0  0
 36 37  1  0  0  0
 30 28  1  0  0  0
 28 29  2  0  0  0
 28 34  1  0  0  0
 35 34  1  0  0  0
 34 33  1  0  0  0
 34 32  1  0  0  0
 33 32  1  0  0  0
 30 31  1  0  0  0
  6  9  1  0  0  0
 12 13  1  0  0  0
M  END
> <minimizedAffinity>
-9.39167

$$$$
5NVX_4YY_C_301


 39 42  0  0  0  0  0  0  0  0999 V2000
   12.0622   53.8777   92.1487 C   0  0  0  0  0  0  0  0  0  0  0  0
   10.9211   53.5995   91.8092 O   0  0  0  0  0  0  0  0  0  0  0  0
   13.0191   54.2037   91.2436 N   0  0  0  0  0  0  0  0  0  0  0  0
   14.4432   54.6204   91.4328 C   0  0  0  0  0  0  0  0  0  0  0  0
   14.7961   55.3680   90.1431 C   0  0  0  0  0  0  0  0  0  0  0  0
   14.3209   56.7249   90.1868 O   0  0  0  0  0  0  0  0  0  0  0  0
   14.0332   54.6118   89.0815 C   0  0  0  0  0  0  0  0  0  0  0  0
   12.7104   54.2063   89.7506 C   0  0  0  0  0  0  0  0  0  0  0  0
   13.3627   56.7273   90.3380 H   0  0  0  0  0  0  0  0  0  0  0  0
   12.3490   52.9414   89.2480 C   0  0  0  0  0  0  0  0  0  0  0  0
   12.6844   51.9259   89.8440 O   0  0  0  0  0  0  0  0  0  0  0  0
   11.7014   52.9289   88.0581 N   0  0  0  0  0  0  0  0  0  0  0  0
   11.4649   53.7919   87.6475 H   0  0  0  0  0  0  0  0  0  0  0  0
   11.3305   51.6887   87.3428 C   0  0  0  0  0  0  0  0  0  0  0  0
   12.0420   51.5403   86.1022 C   0  0  0  0  0  0  0  0  0  0  0  0
   12.6473   52.6504   85.5247 C   0  0  0  0  0  0  0  0  0  0  0  0
   13.3587   52.5458   84.3250 C   0  0  0  0  0  0  0  0  0  0  0  0
   12.1771   50.3134   85.4366 C   0  0  0  0  0  0  0  0  0  0  0  0
   12.8933   50.2060   84.2309 C   0  0  0  0  0  0  0  0  0  0  0  0
   13.5009   51.3204   83.6601 C   0  0  0  0  0  0  0  0  0  0  0  0
   14.1882   51.1993   82.5020 C   0  0  0  0  0  0  0  0  0  0  0  0
   15.8415   51.5509   82.2946 S   0  0  0  0  0  0  0  0  0  0  0  0
   15.8826   51.1623   80.6768 C   0  0  0  0  0  0  0  0  0  0  0  0
   14.6562   50.7771   80.3078 N   0  0  0  0  0  0  0  0  0  0  0  0
   13.7342   50.7970   81.2920 C   0  0  0  0  0  0  0  0  0  0  0  0
   12.3012   50.3534   80.9721 C   0  0  0  0  0  0  0  0  0  0  0  0
   12.4127   53.9400   93.6595 C   0  0  0  0  0  0  0  0  0  0  0  0
   11.2238   55.7246   94.9450 C   0  0  0  0  0  0  0  0  0  0  0  0
   12.1825   56.4750   95.0803 O   0  0  0  0  0  0  0  0  0  0  0  0
   11.2463   54.5308   94.3447 N   0  0  0  0  0  0  0  0  0  0  0  0
   10.4163   54.0015   94.3609 H   0  0  0  0  0  0  0  0  0  0  0  0
    9.8423   56.3114   97.0917 C   0  0  0  0  0  0  0  0  0  0  0  0
    9.6347   57.4647   96.1219 C   0  0  0  0  0  0  0  0  0  0  0  0
    9.8712   56.0710   95.5853 C   0  0  0  0  0  0  0  0  0  0  0  0
    8.8567   55.4677   95.0887 F   0  0  0  0  0  0  0  0  0  0  0  0
   12.7490   52.5514   94.2663 C   0  0  0  0  0  0  0  0  0  0  0  0
   13.6416   52.7939   95.4859 C   0  0  0  0  0  0  0  0  0  0  0  0
   13.5030   51.7034   93.2432 C   0  0  0  0  0  0  0  0  0  0  0  0
   11.4819   51.7692   94.7245 C   0  0  0  0  0  0  0  0  0  0  0  0
 24 23  2  0  0  0
 24 25  1  0  0  0
 23 22  1  0  0  0
 26 25  1  0  0  0
 25 21  2  0  0  0
 22 21  1  0  0  0
 21 20  1  0  0  0
 20 17  2  0  0  0
 20 19  1  0  0  0
 17 16  1  0  0  0
 19 18  2  0  0  0
 16 15  2  0  0  0
 18 15  1  0  0  0
 15 14  1  0  0  0
 14 12  1  0  0  0
 12 10  1  0  0  0
  7  8  1  0  0  0
  7  5  1  0  0  0
 10 11  2  0  0  0
 10  8  1  0  0  0
  8  3  1  0  0  0
  5  6  1  0  0  0
  5  4  1  0  0  0
  3  4  1  0  0  0
  3  1  1  0  0  0
  2  1  2  0  0  0
  1 27  1  0  0  0
 38 36  1  0  0  0
 27 36  1  0  0  0
 27 30  1  0  0  0
 39 36  1  0  0  0
 36 37  1  0  0  0
 30 28  1  0  0  0
 28 29  2  0  0  0
 28 34  1  0  0  0
 35 34  1  0  0  0
 34 33  1  0  0  0
 34 32  1  0  0  0
 33 32  1  0  0  0
 30 31  1  0  0  0
  6  9  1  0  0  0
 12 13  1  0  0  0
M  END
> <minimizedAffinity>
-9.22113

$$$$
5NVX_4YY_C_301


 39 42  0  0  0  0  0  0  0  0999 V2000
   10.5607   51.2408   83.6613 C   0  0  0  0  0  0  0  0  0  0  0  0
   10.8746   51.9587   84.5998 O   0  0  0  0  0  0  0  0  0  0  0  0
    9.3609   51.3598   83.0390 N   0  0  0  0  0  0  0  0  0  0  0  0
    8.7947   50.6351   81.8592 C   0  0  0  0  0  0  0  0  0  0  0  0
    7.7095   51.5727   81.3208 C   0  0  0  0  0  0  0  0  0  0  0  0
    8.2813   52.6057   80.4992 O   0  0  0  0  0  0  0  0  0  0  0  0
    7.1361   52.1969   82.5707 C   0  0  0  0  0  0  0  0  0  0  0  0
    8.3365   52.3852   83.5117 C   0  0  0  0  0  0  0  0  0  0  0  0
    8.9419   53.0977   81.0114 H   0  0  0  0  0  0  0  0  0  0  0  0
    7.8850   52.1649   84.8274 C   0  0  0  0  0  0  0  0  0  0  0  0
    7.0189   51.3278   85.0465 O   0  0  0  0  0  0  0  0  0  0  0  0
    8.3986   52.9754   85.7838 N   0  0  0  0  0  0  0  0  0  0  0  0
    9.0955   53.6200   85.5231 H   0  0  0  0  0  0  0  0  0  0  0  0
    7.9686   52.9440   87.1986 C   0  0  0  0  0  0  0  0  0  0  0  0
    9.0694   53.1143   88.1077 C   0  0  0  0  0  0  0  0  0  0  0  0
   10.2148   52.3435   87.9457 C   0  0  0  0  0  0  0  0  0  0  0  0
   11.3120   52.4872   88.8014 C   0  0  0  0  0  0  0  0  0  0  0  0
    9.0605   54.0425   89.1588 C   0  0  0  0  0  0  0  0  0  0  0  0
   10.1633   54.1894   90.0193 C   0  0  0  0  0  0  0  0  0  0  0  0
   11.3091   53.4178   89.8491 C   0  0  0  0  0  0  0  0  0  0  0  0
   12.3616   53.5736   90.6835 C   0  0  0  0  0  0  0  0  0  0  0  0
   12.4915   52.9030   92.2435 S   0  0  0  0  0  0  0  0  0  0  0  0
   13.9939   53.5429   92.5645 C   0  0  0  0  0  0  0  0  0  0  0  0
   14.3809   54.2558   91.5012 N   0  0  0  0  0  0  0  0  0  0  0  0
   13.4997   54.2774   90.4803 C   0  0  0  0  0  0  0  0  0  0  0  0
   13.8614   55.0530   89.2074 C   0  0  0  0  0  0  0  0  0  0  0  0
   11.5888   50.2173   83.1094 C   0  0  0  0  0  0  0  0  0  0  0  0
   13.6692   51.0217   81.9800 C   0  0  0  0  0  0  0  0  0  0  0  0
   13.4506   50.5155   80.8862 O   0  0  0  0  0  0  0  0  0  0  0  0
   12.8938   50.9054   83.0623 N   0  0  0  0  0  0  0  0  0  0  0  0
   13.2200   51.3125   83.8972 H   0  0  0  0  0  0  0  0  0  0  0  0
   16.2877   51.0203   82.0485 C   0  0  0  0  0  0  0  0  0  0  0  0
   15.8867   52.1158   81.0723 C   0  0  0  0  0  0  0  0  0  0  0  0
   14.9791   51.7824   82.2348 C   0  0  0  0  0  0  0  0  0  0  0  0
   14.9474   52.6257   83.1980 F   0  0  0  0  0  0  0  0  0  0  0  0
   11.6888   48.9283   83.9685 C   0  0  0  0  0  0  0  0  0  0  0  0
   11.8786   47.7546   83.0043 C   0  0  0  0  0  0  0  0  0  0  0  0
   10.4003   48.7305   84.7650 C   0  0  0  0  0  0  0  0  0  0  0  0
   12.8890   48.9556   84.9615 C   0  0  0  0  0  0  0  0  0  0  0  0
 24 23  2  0  0  0
 24 25  1  0  0  0
 23 22  1  0  0  0
 26 25  1  0  0  0
 25 21  2  0  0  0
 22 21  1  0  0  0
 21 20  1  0  0  0
 20 17  2  0  0  0
 20 19  1  0  0  0
 17 16  1  0  0  0
 19 18  2  0  0  0
 16 15  2  0  0  0
 18 15  1  0  0  0
 15 14  1  0  0  0
 14 12  1  0  0  0
 12 10  1  0  0  0
  7  8  1  0  0  0
  7  5  1  0  0  0
 10 11  2  0  0  0
 10  8  1  0  0  0
  8  3  1  0  0  0
  5  6  1  0  0  0
  5  4  1  0  0  0
  3  4  1  0  0  0
  3  1  1  0  0  0
  2  1  2  0  0  0
  1 27  1  0  0  0
 38 36  1  0  0  0
 27 36  1  0  0  0
 27 30  1  0  0  0
 39 36  1  0  0  0
 36 37  1  0  0  0
 30 28  1  0  0  0
 28 29  2  0  0  0
 28 34  1  0  0  0
 35 34  1  0  0  0
 34 33  1  0  0  0
 34 32  1  0  0  0
 33 32  1  0  0  0
 30 31  1  0  0  0
  6  9  1  0  0  0
 12 13  1  0  0  0
M  END
> <minimizedAffinity>
-7.27038

$$$$
5NVX_4YY_C_301


 39 42  0  0  0  0  0  0  0  0999 V2000
   10.4533   53.7894   93.1601 C   0  0  0  0  0  0  0  0  0  0  0  0
    9.4109   54.1076   92.6060 O   0  0  0  0  0  0  0  0  0  0  0  0
   11.6290   53.7178   92.4867 N   0  0  0  0  0  0  0  0  0  0  0  0
   13.0118   53.4041   92.9633 C   0  0  0  0  0  0  0  0  0  0  0  0
   13.9295   54.0212   91.9033 C   0  0  0  0  0  0  0  0  0  0  0  0
   14.0985   55.4323   92.1255 O   0  0  0  0  0  0  0  0  0  0  0  0
   13.1666   53.8120   90.6167 C   0  0  0  0  0  0  0  0  0  0  0  0
   11.6888   54.0064   90.9909 C   0  0  0  0  0  0  0  0  0  0  0  0
   13.2306   55.8655   92.1276 H   0  0  0  0  0  0  0  0  0  0  0  0
   10.9310   53.1093   90.2134 C   0  0  0  0  0  0  0  0  0  0  0  0
   10.8576   51.9302   90.5347 O   0  0  0  0  0  0  0  0  0  0  0  0
   10.3807   53.6101   89.0813 N   0  0  0  0  0  0  0  0  0  0  0  0
   10.4837   54.5721   88.8994 H   0  0  0  0  0  0  0  0  0  0  0  0
    9.6334   52.7893   88.1039 C   0  0  0  0  0  0  0  0  0  0  0  0
   10.4382   52.4226   86.9703 C   0  0  0  0  0  0  0  0  0  0  0  0
   11.3413   51.3722   87.0847 C   0  0  0  0  0  0  0  0  0  0  0  0
   12.1339   50.9767   86.0021 C   0  0  0  0  0  0  0  0  0  0  0  0
   10.3514   53.0654   85.7270 C   0  0  0  0  0  0  0  0  0  0  0  0
   11.1465   52.6682   84.6369 C   0  0  0  0  0  0  0  0  0  0  0  0
   12.0457   51.6127   84.7565 C   0  0  0  0  0  0  0  0  0  0  0  0
   12.8005   51.2417   83.6978 C   0  0  0  0  0  0  0  0  0  0  0  0
   12.3770   50.0557   82.5515 S   0  0  0  0  0  0  0  0  0  0  0  0
   13.7677   50.2058   81.6496 C   0  0  0  0  0  0  0  0  0  0  0  0
   14.5369   51.1399   82.2192 N   0  0  0  0  0  0  0  0  0  0  0  0
   14.0187   51.7030   83.3299 C   0  0  0  0  0  0  0  0  0  0  0  0
   14.8177   52.7997   84.0448 C   0  0  0  0  0  0  0  0  0  0  0  0
   10.4544   53.5367   94.6915 C   0  0  0  0  0  0  0  0  0  0  0  0
   10.7013   55.9263   95.3838 C   0  0  0  0  0  0  0  0  0  0  0  0
   11.8453   56.0829   94.9747 O   0  0  0  0  0  0  0  0  0  0  0  0
   10.0031   54.7880   95.3314 N   0  0  0  0  0  0  0  0  0  0  0  0
    9.1143   54.7836   95.7546 H   0  0  0  0  0  0  0  0  0  0  0  0
    8.4770   57.2044   95.9130 C   0  0  0  0  0  0  0  0  0  0  0  0
    9.0250   56.7295   97.2501 C   0  0  0  0  0  0  0  0  0  0  0  0
    9.9810   57.0616   96.1266 C   0  0  0  0  0  0  0  0  0  0  0  0
   10.6427   58.1520   96.2400 F   0  0  0  0  0  0  0  0  0  0  0  0
    9.5432   52.3540   95.1162 C   0  0  0  0  0  0  0  0  0  0  0  0
    8.1635   52.9361   95.4335 C   0  0  0  0  0  0  0  0  0  0  0  0
   10.1111   51.6792   96.3637 C   0  0  0  0  0  0  0  0  0  0  0  0
    9.3853   51.2810   93.9977 C   0  0  0  0  0  0  0  0  0  0  0  0
 24 23  2  0  0  0
 24 25  1  0  0  0
 23 22  1  0  0  0
 26 25  1  0  0  0
 25 21  2  0  0  0
 22 21  1  0  0  0
 21 20  1  0  0  0
 20 17  2  0  0  0
 20 19  1  0  0  0
 17 16  1  0  0  0
 19 18  2  0  0  0
 16 15  2  0  0  0
 18 15  1  0  0  0
 15 14  1  0  0  0
 14 12  1  0  0  0
 12 10  1  0  0  0
  7  8  1  0  0  0
  7  5  1  0  0  0
 10 11  2  0  0  0
 10  8  1  0  0  0
  8  3  1  0  0  0
  5  6  1  0  0  0
  5  4  1  0  0  0
  3  4  1  0  0  0
  3  1  1  0  0  0
  2  1  2  0  0  0
  1 27  1  0  0  0
 38 36  1  0  0  0
 27 36  1  0  0  0
 27 30  1  0  0  0
 39 36  1  0  0  0
 36 37  1  0  0  0
 30 28  1  0  0  0
 28 29  2  0  0  0
 28 34  1  0  0  0
 35 34  1  0  0  0
 34 33  1  0  0  0
 34 32  1  0  0  0
 33 32  1  0  0  0
 30 31  1  0  0  0
  6  9  1  0  0  0
 12 13  1  0  0  0
M  END
> <minimizedAffinity>
-7.05957

$$$$
5NVX_4YY_C_301


 39 42  0  0  0  0  0  0  0  0999 V2000
   11.3843   52.8927   93.0428 C   0  0  0  0  0  0  0  0  0  0  0  0
   12.1640   53.5745   93.6923 O   0  0  0  0  0  0  0  0  0  0  0  0
   10.0552   52.8701   93.3145 N   0  0  0  0  0  0  0  0  0  0  0  0
    8.9290   52.1610   92.6316 C   0  0  0  0  0  0  0  0  0  0  0  0
    7.6812   52.9556   93.0292 C   0  0  0  0  0  0  0  0  0  0  0  0
    7.5325   54.1275   92.2084 O   0  0  0  0  0  0  0  0  0  0  0  0
    7.9758   53.3809   94.4481 C   0  0  0  0  0  0  0  0  0  0  0  0
    9.4829   53.6807   94.4719 C   0  0  0  0  0  0  0  0  0  0  0  0
    8.3299   54.6752   92.2794 H   0  0  0  0  0  0  0  0  0  0  0  0
    9.9753   53.2888   95.7318 C   0  0  0  0  0  0  0  0  0  0  0  0
    9.4163   52.3978   96.3586 O   0  0  0  0  0  0  0  0  0  0  0  0
   11.0208   54.0003   96.2176 N   0  0  0  0  0  0  0  0  0  0  0  0
   11.4148   54.6983   95.6461 H   0  0  0  0  0  0  0  0  0  0  0  0
   11.6021   53.7847   97.5604 C   0  0  0  0  0  0  0  0  0  0  0  0
   12.7298   52.8933   97.5305 C   0  0  0  0  0  0  0  0  0  0  0  0
   13.4076   52.6889   96.3342 C   0  0  0  0  0  0  0  0  0  0  0  0
   14.5165   51.8391   96.2655 C   0  0  0  0  0  0  0  0  0  0  0  0
   13.2047   52.2177   98.6638 C   0  0  0  0  0  0  0  0  0  0  0  0
   14.3204   51.3639   98.5971 C   0  0  0  0  0  0  0  0  0  0  0  0
   14.9976   51.1669   97.3972 C   0  0  0  0  0  0  0  0  0  0  0  0
   16.0702   50.3450   97.3510 C   0  0  0  0  0  0  0  0  0  0  0  0
   16.0735   48.7617   96.7237 S   0  0  0  0  0  0  0  0  0  0  0  0
   17.6829   48.4735   97.0343 C   0  0  0  0  0  0  0  0  0  0  0  0
   18.2002   49.5649   97.6086 N   0  0  0  0  0  0  0  0  0  0  0  0
   17.3306   50.5809   97.7841 C   0  0  0  0  0  0  0  0  0  0  0  0
   17.8339   51.8840   98.4176 C   0  0  0  0  0  0  0  0  0  0  0  0
   11.9096   52.0907   91.8221 C   0  0  0  0  0  0  0  0  0  0  0  0
   12.5829   53.6727   90.0070 C   0  0  0  0  0  0  0  0  0  0  0  0
   11.5301   53.6395   89.3818 O   0  0  0  0  0  0  0  0  0  0  0  0
   12.8579   52.9693   91.1096 N   0  0  0  0  0  0  0  0  0  0  0  0
   13.7683   53.0432   91.4769 H   0  0  0  0  0  0  0  0  0  0  0  0
   13.9215   55.9241   89.9807 C   0  0  0  0  0  0  0  0  0  0  0  0
   14.9042   54.8481   90.4170 C   0  0  0  0  0  0  0  0  0  0  0  0
   13.7721   54.4903   89.4808 C   0  0  0  0  0  0  0  0  0  0  0  0
   14.0842   54.2822   88.2564 F   0  0  0  0  0  0  0  0  0  0  0  0
   12.6011   50.7586   92.2182 C   0  0  0  0  0  0  0  0  0  0  0  0
   14.0273   51.1009   92.6560 C   0  0  0  0  0  0  0  0  0  0  0  0
   12.6490   49.8175   91.0157 C   0  0  0  0  0  0  0  0  0  0  0  0
   11.8814   50.0301   93.3924 C   0  0  0  0  0  0  0  0  0  0  0  0
 24 23  2  0  0  0
 24 25  1  0  0  0
 23 22  1  0  0  0
 26 25  1  0  0  0
 25 21  2  0  0  0
 22 21  1  0  0  0
 21 20  1  0  0  0
 20 17  2  0  0  0
 20 19  1  0  0  0
 17 16  1  0  0  0
 19 18  2  0  0  0
 16 15  2  0  0  0
 18 15  1  0  0  0
 15 14  1  0  0  0
 14 12  1  0  0  0
 12 10  1  0  0  0
  7  8  1  0  0  0
  7  5  1  0  0  0
 10 11  2  0  0  0
 10  8  1  0  0  0
  8  3  1  0  0  0
  5  6  1  0  0  0
  5  4  1  0  0  0
  3  4  1  0  0  0
  3  1  1  0  0  0
  2  1  2  0  0  0
  1 27  1  0  0  0
 38 36  1  0  0  0
 27 36  1  0  0  0
 27 30  1  0  0  0
 39 36  1  0  0  0
 36 37  1  0  0  0
 30 28  1  0  0  0
 28 29  2  0  0  0
 28 34  1  0  0  0
 35 34  1  0  0  0
 34 33  1  0  0  0
 34 32  1  0  0  0
 33 32  1  0  0  0
 30 31  1  0  0  0
  6  9  1  0  0  0
 12 13  1  0  0  0
M  END
> <minimizedAffinity>
-6.87300

$$$$
5NVX_4YY_C_301


 39 42  0  0  0  0  0  0  0  0999 V2000
   11.6155   52.7466   90.6313 C   0  0  0  0  0  0  0  0  0  0  0  0
   12.3395   51.7661   90.5357 O   0  0  0  0  0  0  0  0  0  0  0  0
   10.7250   53.0761   89.6620 N   0  0  0  0  0  0  0  0  0  0  0  0
    9.7212   54.1829   89.5910 C   0  0  0  0  0  0  0  0  0  0  0  0
    8.6879   53.6955   88.5706 C   0  0  0  0  0  0  0  0  0  0  0  0
    7.7496   52.7904   89.1786 O   0  0  0  0  0  0  0  0  0  0  0  0
    9.5215   52.9391   87.5637 C   0  0  0  0  0  0  0  0  0  0  0  0
   10.6141   52.2427   88.3902 C   0  0  0  0  0  0  0  0  0  0  0  0
    8.2284   52.0438   89.5712 H   0  0  0  0  0  0  0  0  0  0  0  0
   11.7918   52.2339   87.6180 C   0  0  0  0  0  0  0  0  0  0  0  0
   12.5682   51.2902   87.6942 O   0  0  0  0  0  0  0  0  0  0  0  0
   12.0348   53.3423   86.8779 N   0  0  0  0  0  0  0  0  0  0  0  0
   11.3553   54.0547   86.8692 H   0  0  0  0  0  0  0  0  0  0  0  0
   13.2659   53.5398   86.0824 C   0  0  0  0  0  0  0  0  0  0  0  0
   13.2890   52.7221   84.9000 C   0  0  0  0  0  0  0  0  0  0  0  0
   14.4881   52.5342   84.2226 C   0  0  0  0  0  0  0  0  0  0  0  0
   14.5552   51.7366   83.0755 C   0  0  0  0  0  0  0  0  0  0  0  0
   12.1528   52.0775   84.3901 C   0  0  0  0  0  0  0  0  0  0  0  0
   12.2186   51.2739   83.2376 C   0  0  0  0  0  0  0  0  0  0  0  0
   13.4232   51.0861   82.5664 C   0  0  0  0  0  0  0  0  0  0  0  0
   13.4696   50.3080   81.4615 C   0  0  0  0  0  0  0  0  0  0  0  0
   12.3821   49.0501   81.0944 S   0  0  0  0  0  0  0  0  0  0  0  0
   13.1064   48.6315   79.6556 C   0  0  0  0  0  0  0  0  0  0  0  0
   14.1581   49.4359   79.4672 N   0  0  0  0  0  0  0  0  0  0  0  0
   14.3605   50.3446   80.4432 C   0  0  0  0  0  0  0  0  0  0  0  0
   15.5313   51.3262   80.3085 C   0  0  0  0  0  0  0  0  0  0  0  0
   11.6535   53.5970   91.9292 C   0  0  0  0  0  0  0  0  0  0  0  0
    9.6973   53.1709   93.4267 C   0  0  0  0  0  0  0  0  0  0  0  0
    9.0635   54.1775   93.1345 O   0  0  0  0  0  0  0  0  0  0  0  0
   10.9045   52.8448   92.9549 N   0  0  0  0  0  0  0  0  0  0  0  0
   11.3293   52.0360   93.3218 H   0  0  0  0  0  0  0  0  0  0  0  0
   10.1066   51.8452   95.6485 C   0  0  0  0  0  0  0  0  0  0  0  0
    8.8877   52.7218   95.8927 C   0  0  0  0  0  0  0  0  0  0  0  0
    9.1699   52.2063   94.4995 C   0  0  0  0  0  0  0  0  0  0  0  0
    8.4120   51.2674   94.0707 F   0  0  0  0  0  0  0  0  0  0  0  0
   13.0949   53.8941   92.4227 C   0  0  0  0  0  0  0  0  0  0  0  0
   12.9816   54.8909   93.5789 C   0  0  0  0  0  0  0  0  0  0  0  0
   13.9159   54.5143   91.2935 C   0  0  0  0  0  0  0  0  0  0  0  0
   13.8331   52.6209   92.9339 C   0  0  0  0  0  0  0  0  0  0  0  0
 24 23  2  0  0  0
 24 25  1  0  0  0
 23 22  1  0  0  0
 26 25  1  0  0  0
 25 21  2  0  0  0
 22 21  1  0  0  0
 21 20  1  0  0  0
 20 17  2  0  0  0
 20 19  1  0  0  0
 17 16  1  0  0  0
 19 18  2  0  0  0
 16 15  2  0  0  0
 18 15  1  0  0  0
 15 14  1  0  0  0
 14 12  1  0  0  0
 12 10  1  0  0  0
  7  8  1  0  0  0
  7  5  1  0  0  0
 10 11  2  0  0  0
 10  8  1  0  0  0
  8  3  1  0  0  0
  5  6  1  0  0  0
  5  4  1  0  0  0
  3  4  1  0  0  0
  3  1  1  0  0  0
  2  1  2  0  0  0
  1 27  1  0  0  0
 38 36  1  0  0  0
 27 36  1  0  0  0
 27 30  1  0  0  0
 39 36  1  0  0  0
 36 37  1  0  0  0
 30 28  1  0  0  0
 28 29  2  0  0  0
 28 34  1  0  0  0
 35 34  1  0  0  0
 34 33  1  0  0  0
 34 32  1  0  0  0
 33 32  1  0  0  0
 30 31  1  0  0  0
  6  9  1  0  0  0
 12 13  1  0  0  0
M  END
> <minimizedAffinity>
-6.71343

$$$$
5NVX_4YY_C_301


 39 42  0  0  0  0  0  0  0  0999 V2000
   12.0552   52.3299   94.1273 C   0  0  0  0  0  0  0  0  0  0  0  0
   11.0168   52.0234   93.5594 O   0  0  0  0  0  0  0  0  0  0  0  0
   12.8739   51.3968   94.6751 N   0  0  0  0  0  0  0  0  0  0  0  0
   14.1953   51.5370   95.3620 C   0  0  0  0  0  0  0  0  0  0  0  0
   14.8404   50.1536   95.2336 C   0  0  0  0  0  0  0  0  0  0  0  0
   15.4515   49.9873   93.9420 O   0  0  0  0  0  0  0  0  0  0  0  0
   13.6674   49.2094   95.3498 C   0  0  0  0  0  0  0  0  0  0  0  0
   12.5101   49.9171   94.6277 C   0  0  0  0  0  0  0  0  0  0  0  0
   14.7866   50.1257   93.2495 H   0  0  0  0  0  0  0  0  0  0  0  0
   11.3231   49.6065   95.3191 C   0  0  0  0  0  0  0  0  0  0  0  0
   10.5136   48.8292   94.8294 O   0  0  0  0  0  0  0  0  0  0  0  0
   11.1117   50.2704   96.4809 N   0  0  0  0  0  0  0  0  0  0  0  0
   11.8168   50.8755   96.8065 H   0  0  0  0  0  0  0  0  0  0  0  0
    9.8788   50.1353   97.2864 C   0  0  0  0  0  0  0  0  0  0  0  0
    9.2562   51.4044   97.5489 C   0  0  0  0  0  0  0  0  0  0  0  0
    8.4614   51.9909   96.5709 C   0  0  0  0  0  0  0  0  0  0  0  0
    7.8287   53.2187   96.7913 C   0  0  0  0  0  0  0  0  0  0  0  0
    9.3938   52.0903   98.7643 C   0  0  0  0  0  0  0  0  0  0  0  0
    8.7572   53.3243   98.9883 C   0  0  0  0  0  0  0  0  0  0  0  0
    7.9591   53.9042   98.0066 C   0  0  0  0  0  0  0  0  0  0  0  0
    7.3518   55.0896   98.2392 C   0  0  0  0  0  0  0  0  0  0  0  0
    5.7686   55.2869   98.8349 S   0  0  0  0  0  0  0  0  0  0  0  0
    5.8031   56.9508   98.8233 C   0  0  0  0  0  0  0  0  0  0  0  0
    6.9989   57.3413   98.3694 N   0  0  0  0  0  0  0  0  0  0  0  0
    7.8410   56.3373   98.0498 C   0  0  0  0  0  0  0  0  0  0  0  0
    9.2447   56.6840   97.5379 C   0  0  0  0  0  0  0  0  0  0  0  0
   12.4957   53.8180   94.1565 C   0  0  0  0  0  0  0  0  0  0  0  0
   13.3625   54.0660   91.8246 C   0  0  0  0  0  0  0  0  0  0  0  0
   14.4180   53.4679   91.9932 O   0  0  0  0  0  0  0  0  0  0  0  0
   12.4434   54.3065   92.7646 N   0  0  0  0  0  0  0  0  0  0  0  0
   11.6673   54.8548   92.5074 H   0  0  0  0  0  0  0  0  0  0  0  0
   13.8943   55.9089   90.0407 C   0  0  0  0  0  0  0  0  0  0  0  0
   14.0274   54.5724   89.3267 C   0  0  0  0  0  0  0  0  0  0  0  0
   13.0465   54.7147   90.4685 C   0  0  0  0  0  0  0  0  0  0  0  0
   11.8055   54.7607   90.1563 F   0  0  0  0  0  0  0  0  0  0  0  0
   11.6058   54.7005   95.0722 C   0  0  0  0  0  0  0  0  0  0  0  0
   10.1904   54.6747   94.4900 C   0  0  0  0  0  0  0  0  0  0  0  0
   12.1276   56.1364   95.0803 C   0  0  0  0  0  0  0  0  0  0  0  0
   11.5494   54.1828   96.5406 C   0  0  0  0  0  0  0  0  0  0  0  0
 24 23  2  0  0  0
 24 25  1  0  0  0
 23 22  1  0  0  0
 26 25  1  0  0  0
 25 21  2  0  0  0
 22 21  1  0  0  0
 21 20  1  0  0  0
 20 17  2  0  0  0
 20 19  1  0  0  0
 17 16  1  0  0  0
 19 18  2  0  0  0
 16 15  2  0  0  0
 18 15  1  0  0  0
 15 14  1  0  0  0
 14 12  1  0  0  0
 12 10  1  0  0  0
  7  8  1  0  0  0
  7  5  1  0  0  0
 10 11  2  0  0  0
 10  8  1  0  0  0
  8  3  1  0  0  0
  5  6  1  0  0  0
  5  4  1  0  0  0
  3  4  1  0  0  0
  3  1  1  0  0  0
  2  1  2  0  0  0
  1 27  1  0  0  0
 38 36  1  0  0  0
 27 36  1  0  0  0
 27 30  1  0  0  0
 39 36  1  0  0  0
 36 37  1  0  0  0
 30 28  1  0  0  0
 28 29  2  0  0  0
 28 34  1  0  0  0
 35 34  1  0  0  0
 34 33  1  0  0  0
 34 32  1  0  0  0
 33 32  1  0  0  0
 30 31  1  0  0  0
  6  9  1  0  0  0
 12 13  1  0  0  0
M  END
> <minimizedAffinity>
-6.52041

$$$$
5NVX_4YY_C_301


 39 42  0  0  0  0  0  0  0  0999 V2000
   11.3546   52.8384   90.7901 C   0  0  0  0  0  0  0  0  0  0  0  0
   11.6550   51.8218   91.3993 O   0  0  0  0  0  0  0  0  0  0  0  0
   12.2133   53.8822   90.6717 N   0  0  0  0  0  0  0  0  0  0  0  0
   12.0790   55.1816   89.9429 C   0  0  0  0  0  0  0  0  0  0  0  0
   13.5221   55.6442   89.7194 C   0  0  0  0  0  0  0  0  0  0  0  0
   14.1043   54.9863   88.5804 O   0  0  0  0  0  0  0  0  0  0  0  0
   14.2331   55.1863   90.9706 C   0  0  0  0  0  0  0  0  0  0  0  0
   13.5894   53.8369   91.3265 C   0  0  0  0  0  0  0  0  0  0  0  0
   14.0636   54.0254   88.7063 H   0  0  0  0  0  0  0  0  0  0  0  0
   13.5420   53.7447   92.7310 C   0  0  0  0  0  0  0  0  0  0  0  0
   13.8650   52.7036   93.2885 O   0  0  0  0  0  0  0  0  0  0  0  0
   13.0510   54.8223   93.3889 N   0  0  0  0  0  0  0  0  0  0  0  0
   12.8184   55.6222   92.8642 H   0  0  0  0  0  0  0  0  0  0  0  0
   12.8455   54.8619   94.8530 C   0  0  0  0  0  0  0  0  0  0  0  0
   11.6151   55.5121   95.2143 C   0  0  0  0  0  0  0  0  0  0  0  0
   10.4368   54.7753   95.2470 C   0  0  0  0  0  0  0  0  0  0  0  0
    9.2213   55.3676   95.6049 C   0  0  0  0  0  0  0  0  0  0  0  0
   11.5362   56.8694   95.5582 C   0  0  0  0  0  0  0  0  0  0  0  0
   10.3151   57.4664   95.9197 C   0  0  0  0  0  0  0  0  0  0  0  0
    9.1396   56.7221   95.9549 C   0  0  0  0  0  0  0  0  0  0  0  0
    7.9745   57.3109   96.3074 C   0  0  0  0  0  0  0  0  0  0  0  0
    7.1378   58.4728   95.3854 S   0  0  0  0  0  0  0  0  0  0  0  0
    5.8903   58.6648   96.4701 C   0  0  0  0  0  0  0  0  0  0  0  0
    6.1157   57.8595   97.5137 N   0  0  0  0  0  0  0  0  0  0  0  0
    7.2441   57.1253   97.4317 C   0  0  0  0  0  0  0  0  0  0  0  0
    7.5804   56.1560   98.5718 C   0  0  0  0  0  0  0  0  0  0  0  0
    9.9859   52.9125   90.0619 C   0  0  0  0  0  0  0  0  0  0  0  0
    9.8834   52.0188   87.7292 C   0  0  0  0  0  0  0  0  0  0  0  0
    9.7100   53.0923   87.1654 O   0  0  0  0  0  0  0  0  0  0  0  0
    9.9817   51.8381   89.0497 N   0  0  0  0  0  0  0  0  0  0  0  0
   10.0575   50.9117   89.3743 H   0  0  0  0  0  0  0  0  0  0  0  0
    8.5917   49.9226   86.8356 C   0  0  0  0  0  0  0  0  0  0  0  0
    9.1439   50.6375   85.6118 C   0  0  0  0  0  0  0  0  0  0  0  0
    9.8946   50.7118   86.9223 C   0  0  0  0  0  0  0  0  0  0  0  0
   10.9699   50.0216   87.0073 F   0  0  0  0  0  0  0  0  0  0  0  0
    8.7748   52.7561   91.0202 C   0  0  0  0  0  0  0  0  0  0  0  0
    9.1228   53.4953   92.3147 C   0  0  0  0  0  0  0  0  0  0  0  0
    8.5379   51.2779   91.3252 C   0  0  0  0  0  0  0  0  0  0  0  0
    7.4622   53.3613   90.4390 C   0  0  0  0  0  0  0  0  0  0  0  0
 24 23  2  0  0  0
 24 25  1  0  0  0
 23 22  1  0  0  0
 26 25  1  0  0  0
 25 21  2  0  0  0
 22 21  1  0  0  0
 21 20  1  0  0  0
 20 17  2  0  0  0
 20 19  1  0  0  0
 17 16  1  0  0  0
 19 18  2  0  0  0
 16 15  2  0  0  0
 18 15  1  0  0  0
 15 14  1  0  0  0
 14 12  1  0  0  0
 12 10  1  0  0  0
  7  8  1  0  0  0
  7  5  1  0  0  0
 10 11  2  0  0  0
 10  8  1  0  0  0
  8  3  1  0  0  0
  5  6  1  0  0  0
  5  4  1  0  0  0
  3  4  1  0  0  0
  3  1  1  0  0  0
  2  1  2  0  0  0
  1 27  1  0  0  0
 38 36  1  0  0  0
 27 36  1  0  0  0
 27 30  1  0  0  0
 39 36  1  0  0  0
 36 37  1  0  0  0
 30 28  1  0  0  0
 28 29  2  0  0  0
 28 34  1  0  0  0
 35 34  1  0  0  0
 34 33  1  0  0  0
 34 32  1  0  0  0
 33 32  1  0  0  0
 30 31  1  0  0  0
  6  9  1  0  0  0
 12 13  1  0  0  0
M  END
> <minimizedAffinity>
-6.41051

$$$$
5NVX_4YY_C_301


 39 42  0  0  0  0  0  0  0  0999 V2000
   11.3268   51.0799   86.1358 C   0  0  0  0  0  0  0  0  0  0  0  0
   12.3061   51.7717   85.8969 O   0  0  0  0  0  0  0  0  0  0  0  0
   10.4183   51.4275   87.0817 N   0  0  0  0  0  0  0  0  0  0  0  0
    9.1415   50.7700   87.5003 C   0  0  0  0  0  0  0  0  0  0  0  0
    8.3341   51.8914   88.1613 C   0  0  0  0  0  0  0  0  0  0  0  0
    7.6734   52.7024   87.1739 O   0  0  0  0  0  0  0  0  0  0  0  0
    9.3898   52.7197   88.8543 C   0  0  0  0  0  0  0  0  0  0  0  0
   10.6031   52.6930   87.9115 C   0  0  0  0  0  0  0  0  0  0  0  0
    8.3314   53.0642   86.5598 H   0  0  0  0  0  0  0  0  0  0  0  0
   11.7630   52.6785   88.7102 C   0  0  0  0  0  0  0  0  0  0  0  0
   12.2255   51.6142   89.1005 O   0  0  0  0  0  0  0  0  0  0  0  0
   12.2607   53.8857   89.0711 N   0  0  0  0  0  0  0  0  0  0  0  0
   11.8308   54.6939   88.7089 H   0  0  0  0  0  0  0  0  0  0  0  0
   13.4151   54.0548   89.9800 C   0  0  0  0  0  0  0  0  0  0  0  0
   13.0129   54.1938   91.3534 C   0  0  0  0  0  0  0  0  0  0  0  0
   13.9389   54.6251   92.2962 C   0  0  0  0  0  0  0  0  0  0  0  0
   13.5845   54.7846   93.6398 C   0  0  0  0  0  0  0  0  0  0  0  0
   11.7110   53.9298   91.8026 C   0  0  0  0  0  0  0  0  0  0  0  0
   11.3524   54.0910   93.1530 C   0  0  0  0  0  0  0  0  0  0  0  0
   12.2830   54.5276   94.0914 C   0  0  0  0  0  0  0  0  0  0  0  0
   11.9210   54.6800   95.3852 C   0  0  0  0  0  0  0  0  0  0  0  0
   11.7853   53.4231   96.5262 S   0  0  0  0  0  0  0  0  0  0  0  0
   11.3181   54.4051   97.7862 C   0  0  0  0  0  0  0  0  0  0  0  0
   11.2646   55.6639   97.3378 N   0  0  0  0  0  0  0  0  0  0  0  0
   11.5884   55.8183   96.0376 C   0  0  0  0  0  0  0  0  0  0  0  0
   11.5756   57.2285   95.4346 C   0  0  0  0  0  0  0  0  0  0  0  0
   11.0663   49.8095   85.2828 C   0  0  0  0  0  0  0  0  0  0  0  0
   11.2007   50.7291   82.9618 C   0  0  0  0  0  0  0  0  0  0  0  0
   10.0825   51.2284   82.9340 O   0  0  0  0  0  0  0  0  0  0  0  0
   11.7181   50.0306   83.9770 N   0  0  0  0  0  0  0  0  0  0  0  0
   12.6075   49.6304   83.8427 H   0  0  0  0  0  0  0  0  0  0  0  0
   13.6078   50.9045   81.9439 C   0  0  0  0  0  0  0  0  0  0  0  0
   13.0118   49.6107   81.4103 C   0  0  0  0  0  0  0  0  0  0  0  0
   12.1037   50.7793   81.7202 C   0  0  0  0  0  0  0  0  0  0  0  0
   11.6256   51.4159   80.7173 F   0  0  0  0  0  0  0  0  0  0  0  0
   11.6038   48.5108   85.9415 C   0  0  0  0  0  0  0  0  0  0  0  0
   10.3902   47.6543   86.3112 C   0  0  0  0  0  0  0  0  0  0  0  0
   12.3902   48.8534   87.2057 C   0  0  0  0  0  0  0  0  0  0  0  0
   12.5232   47.6870   84.9910 C   0  0  0  0  0  0  0  0  0  0  0  0
 24 23  2  0  0  0
 24 25  1  0  0  0
 23 22  1  0  0  0
 26 25  1  0  0  0
 25 21  2  0  0  0
 22 21  1  0  0  0
 21 20  1  0  0  0
 20 17  2  0  0  0
 20 19  1  0  0  0
 17 16  1  0  0  0
 19 18  2  0  0  0
 16 15  2  0  0  0
 18 15  1  0  0  0
 15 14  1  0  0  0
 14 12  1  0  0  0
 12 10  1  0  0  0
  7  8  1  0  0  0
  7  5  1  0  0  0
 10 11  2  0  0  0
 10  8  1  0  0  0
  8  3  1  0  0  0
  5  6  1  0  0  0
  5  4  1  0  0  0
  3  4  1  0  0  0
  3  1  1  0  0  0
  2  1  2  0  0  0
  1 27  1  0  0  0
 38 36  1  0  0  0
 27 36  1  0  0  0
 27 30  1  0  0  0
 39 36  1  0  0  0
 36 37  1  0  0  0
 30 28  1  0  0  0
 28 29  2  0  0  0
 28 34  1  0  0  0
 35 34  1  0  0  0
 34 33  1  0  0  0
 34 32  1  0  0  0
 33 32  1  0  0  0
 30 31  1  0  0  0
  6  9  1  0  0  0
 12 13  1  0  0  0
M  END
> <minimizedAffinity>
-6.39219

$$$$
