3DJP_UA3_A_125
  RCSB PDB12061708203D
Coordinates from PDB:3DJP:A:125 Model:1 without hydrogens
 21 22  0  0  0  0            999 V2000
   29.8500   39.5820    6.6920   N 0  0  0  0  0  0  0  0  0  0  0  0
   29.5960   38.5630    5.7440   C 0  0  0  0  0  0  0  0  0  0  0  0
   29.4950   37.3800    6.1200   O 0  0  0  0  0  0  0  0  0  0  0  0
   29.4910   38.8800    4.4460   N 0  0  0  0  0  0  0  0  0  0  0  0
   29.6270   40.1420    4.0100   C 0  0  0  0  0  0  0  0  0  0  0  0
   29.5410   40.3830    2.7830   O 0  0  0  0  0  0  0  0  0  0  0  0
   29.8570   41.1750    4.9190   C 0  0  0  0  0  0  0  0  0  0  0  0
   29.9470   40.8560    6.2740   C 0  0  0  0  0  0  0  0  0  0  0  0
   30.7980   42.6090    9.0280   O 0  0  0  0  0  0  0  0  0  0  0  0
   30.6840   41.9340   10.2880   C 0  0  0  0  0  0  0  0  0  0  0  0
   30.2010   40.4960   10.1070   C 0  0  0  0  0  0  0  0  0  0  0  0
   29.4660   40.4010    8.8850   O 0  0  0  0  0  0  0  0  0  0  0  0
   31.3140   39.4540   10.0530   C 0  0  0  0  0  0  0  0  0  0  0  0
   31.1090   38.4530   11.0250   O 0  0  0  0  0  0  0  0  0  0  0  0
   31.1200   38.6360    8.7970   C 0  0  0  0  0  0  0  0  0  0  0  0
   32.3370   38.5620    8.0840   O 0  0  0  0  0  0  0  0  0  0  0  0
   29.8890   39.2580    8.1270   C 0  0  0  0  0  0  0  0  0  0  0  0
   32.2810   39.8300   12.9660   O 0  0  0  0  0  0  0  0  0  0  0  0
   32.2010   38.2390   12.1790   P 0  0  0  0  0  0  0  0  0  0  0  0
   33.6240   37.8620   11.5530   O 0  0  0  0  0  0  0  0  0  0  0  0
   31.7100   36.9470   13.2920   O 0  0  0  0  0  0  0  0  0  0  0  0
  1  2  1  0  0  0  0
  1  8  1  0  0  0  0
  1 17  1  0  0  0  0
  2  3  2  0  0  0  0
  2  4  1  0  0  0  0
  4  5  1  0  0  0  0
  5  6  2  0  0  0  0
  5  7  1  0  0  0  0
  7  8  2  0  0  0  0
  9 10  1  0  0  0  0
 10 11  1  0  0  0  0
 11 12  1  0  0  0  0
 11 13  1  0  0  0  0
 12 17  1  0  0  0  0
 13 14  1  0  0  0  0
 13 15  1  0  0  0  0
 14 19  1  0  0  0  0
 15 16  1  0  0  0  0
 15 17  1  0  0  0  0
 18 19  1  0  0  0  0
 19 20  2  0  0  0  0
 19 21  1  0  0  0  0
A    1
N1
A    2
C2
A    3
O2
A    4
N3
A    5
C4
A    6
O4
A    7
C5
A    8
C6
A    9
O5'
A   10
C5'
A   11
C4'
A   12
O4'
A   13
C3'
A   14
O3'
A   15
C2'
A   16
O2'
A   17
C1'
A   18
O3P
A   19
P
A   20
O1P
A   21
O2P
M  END
>  <InstanceId>
3DJP_UA3_A_125

>  <ChemCompId>
UA3

>  <PdbId>
3DJP

>  <ChainId>
A

>  <ResidueNumber>
125

>  <InsertionCode>


>  <Model>
1

>  <AltIds>


>  <MissingHeavyAtoms>
0

>  <ObservedFormula>
C9 N2 O9 P

>  <Name>
URACIL ARABINOSE-3'-PHOSPHATE

>  <SystematicName>
[(3S,4S,5R)-5-(2,4-dioxopyrimidin-1-yl)-4-hydroxy-2-(hydroxymethyl)oxolan-3-yl] dihydrogen phosphate

>  <Synonyms>
1-(3-O-PHOSPHONO-BETA-L-ARABINOFURANOSYL)PYRIMIDINE-2,4(1H,3H)-DIONE

>  <Type>
NON-POLYMER

>  <Formula>
C9 H13 N2 O9 P

>  <MolecularWeight>
324.181

>  <ModifiedDate>
2011-06-04

>  <Parent>


>  <OneLetterCode>


>  <SubcomponentList>


>  <AmbiguousFlag>
N

>  <InChI>
InChI=1S/C9H13N2O9P/c12-3-4-7(20-21(16,17)18)6(14)8(19-4)11-2-1-5(13)10-9(11)15/h1-2,4,6-8,12,14H,3H2,(H,10,13,15)(H2,16,17,18)/t4-,6+,7-,8-/m1/s1

>  <InChIKey>
FOGRQMPFHUHIGU-PXBUCIJWSA-N

>  <SMILES>
C1=CN(C(=O)NC1=O)[C@H]2[C@H]([C@@H](C(O2)CO)OP(=O)(O)O)O

$$$$
