5NEA_8V8_A_302


 18 19  0  0  0  0  0  0  0  0999 V2000
   -5.6446    4.3884   14.9429 C   0  0  0  0  0  0  0  0  0  0  0  0
   -3.4407    3.4533   15.0611 C   0  0  0  0  0  0  0  0  0  0  0  0
   -3.9269    2.3785   15.7837 C   0  0  0  0  0  0  0  0  0  0  0  0
   -6.1420    3.3207   15.6743 C   0  0  0  0  0  0  0  0  0  0  0  0
   -4.2867    4.4767   14.6403 C   0  0  0  0  0  0  0  0  0  0  0  0
   -5.2780    2.3155   16.0895 C   0  0  0  0  0  0  0  0  0  0  0  0
   -3.7554    5.5916   13.8542 C   0  0  0  0  0  0  0  0  0  0  0  0
   -3.9907    6.0936   12.6266 C   0  0  0  0  0  0  0  0  0  0  0  0
   -3.2346    7.2207   12.4078 N   0  0  0  0  0  0  0  0  0  0  0  0
   -2.5558    7.3374   13.5002 C   0  0  0  0  0  0  0  0  0  0  0  0
   -2.6682    6.2755   14.3622 O   0  0  0  0  0  0  0  0  0  0  0  0
   -1.6001    8.4049   13.8750 C   0  0  0  0  0  0  0  0  0  0  0  0
   -5.9026    0.9154   16.9728 S   0  0  0  0  0  0  0  0  0  0  0  0
   -5.4049   -0.2469   16.2948 O   0  0  0  0  0  0  0  0  0  0  0  0
   -5.5412    1.1045   18.3543 O   0  0  0  0  0  0  0  0  0  0  0  0
   -7.5072    0.9273   16.8661 N   0  0  0  0  0  0  0  0  0  0  0  0
   -7.8737    1.7499   17.3450 H   0  0  0  0  0  0  0  0  0  0  0  0
   -7.8831    0.0849   17.3014 H   0  0  0  0  0  0  0  0  0  0  0  0
  9  8  1  0  0  0
  9 10  2  0  0  0
  8  7  2  0  0  0
 10 12  1  0  0  0
 10 11  1  0  0  0
  7 11  1  0  0  0
  7  5  1  0  0  0
  5  2  2  0  0  0
  5  1  1  0  0  0
  2  3  1  0  0  0
  1  4  2  0  0  0
  3  6  2  0  0  0
  4  6  1  0  0  0
  6 13  1  0  0  0
 16 13  1  0  0  0
 15 13  2  0  0  0
 13 14  2  0  0  0
 16 17  1  0  0  0
 16 18  1  0  0  0
M  END
> <minimizedAffinity>
-7.02870

$$$$
5NEA_8V8_A_302


 18 19  0  0  0  0  0  0  0  0999 V2000
   -6.2206    4.6787   15.0293 C   0  0  0  0  0  0  0  0  0  0  0  0
   -4.2004    3.4606   14.6041 C   0  0  0  0  0  0  0  0  0  0  0  0
   -4.5970    2.4773   15.4926 C   0  0  0  0  0  0  0  0  0  0  0  0
   -6.6246    3.7040   15.9287 C   0  0  0  0  0  0  0  0  0  0  0  0
   -4.9978    4.5779   14.3676 C   0  0  0  0  0  0  0  0  0  0  0  0
   -5.8093    2.6022   16.1540 C   0  0  0  0  0  0  0  0  0  0  0  0
   -4.5707    5.5937   13.4036 C   0  0  0  0  0  0  0  0  0  0  0  0
   -3.4754    6.3618   13.2462 C   0  0  0  0  0  0  0  0  0  0  0  0
   -3.5718    7.1197   12.1034 N   0  0  0  0  0  0  0  0  0  0  0  0
   -4.7307    6.7982   11.6328 C   0  0  0  0  0  0  0  0  0  0  0  0
   -5.4920    6.0172   12.4657 O   0  0  0  0  0  0  0  0  0  0  0  0
   -5.3689    7.2567   10.3775 C   0  0  0  0  0  0  0  0  0  0  0  0
   -6.3336    1.3187   17.2532 S   0  0  0  0  0  0  0  0  0  0  0  0
   -6.0913    1.7994   18.5830 O   0  0  0  0  0  0  0  0  0  0  0  0
   -7.6862    0.9873   16.8851 O   0  0  0  0  0  0  0  0  0  0  0  0
   -5.4110    0.0268   16.9956 N   0  0  0  0  0  0  0  0  0  0  0  0
   -5.5743   -0.3249   16.0522 H   0  0  0  0  0  0  0  0  0  0  0  0
   -5.6443   -0.6983   17.6740 H   0  0  0  0  0  0  0  0  0  0  0  0
  9  8  1  0  0  0
  9 10  2  0  0  0
  8  7  2  0  0  0
 10 12  1  0  0  0
 10 11  1  0  0  0
  7 11  1  0  0  0
  7  5  1  0  0  0
  5  2  2  0  0  0
  5  1  1  0  0  0
  2  3  1  0  0  0
  1  4  2  0  0  0
  3  6  2  0  0  0
  4  6  1  0  0  0
  6 13  1  0  0  0
 16 13  1  0  0  0
 15 13  2  0  0  0
 13 14  2  0  0  0
 16 17  1  0  0  0
 16 18  1  0  0  0
M  END
> <minimizedAffinity>
-6.92070

$$$$
5NEA_8V8_A_302


 18 19  0  0  0  0  0  0  0  0999 V2000
   -5.6914    4.3603   14.7435 C   0  0  0  0  0  0  0  0  0  0  0  0
   -3.6251    3.1953   15.0887 C   0  0  0  0  0  0  0  0  0  0  0  0
   -4.2553    2.3173   15.9522 C   0  0  0  0  0  0  0  0  0  0  0  0
   -6.3319    3.4920   15.6142 C   0  0  0  0  0  0  0  0  0  0  0  0
   -4.3281    4.2332   14.4815 C   0  0  0  0  0  0  0  0  0  0  0  0
   -5.6087    2.4687   16.2137 C   0  0  0  0  0  0  0  0  0  0  0  0
   -3.6471    5.1350   13.5507 C   0  0  0  0  0  0  0  0  0  0  0  0
   -4.0047    6.2190   12.8354 C   0  0  0  0  0  0  0  0  0  0  0  0
   -2.9257    6.7314   12.1550 N   0  0  0  0  0  0  0  0  0  0  0  0
   -1.9689    5.9218   12.4659 C   0  0  0  0  0  0  0  0  0  0  0  0
   -2.3640    4.8055   13.1596 O   0  0  0  0  0  0  0  0  0  0  0  0
   -0.5431    5.9945   12.0720 C   0  0  0  0  0  0  0  0  0  0  0  0
   -6.4198    1.3147   17.2816 S   0  0  0  0  0  0  0  0  0  0  0  0
   -6.3318    1.8573   18.6068 O   0  0  0  0  0  0  0  0  0  0  0  0
   -7.7286    1.0870   16.7249 O   0  0  0  0  0  0  0  0  0  0  0  0
   -5.6057   -0.0715   17.2367 N   0  0  0  0  0  0  0  0  0  0  0  0
   -5.6607   -0.4679   16.2985 H   0  0  0  0  0  0  0  0  0  0  0  0
   -6.0107   -0.7256   17.9065 H   0  0  0  0  0  0  0  0  0  0  0  0
  9  8  1  0  0  0
  9 10  2  0  0  0
  8  7  2  0  0  0
 10 12  1  0  0  0
 10 11  1  0  0  0
  7 11  1  0  0  0
  7  5  1  0  0  0
  5  2  2  0  0  0
  5  1  1  0  0  0
  2  3  1  0  0  0
  1  4  2  0  0  0
  3  6  2  0  0  0
  4  6  1  0  0  0
  6 13  1  0  0  0
 16 13  1  0  0  0
 15 13  2  0  0  0
 13 14  2  0  0  0
 16 17  1  0  0  0
 16 18  1  0  0  0
M  END
> <minimizedAffinity>
-6.72266

$$$$
5NEA_8V8_A_302


 18 19  0  0  0  0  0  0  0  0999 V2000
   -4.0806    1.1752   13.9258 C   0  0  0  0  0  0  0  0  0  0  0  0
   -5.1654    3.3127   13.9245 C   0  0  0  0  0  0  0  0  0  0  0  0
   -5.8257    2.9871   15.0957 C   0  0  0  0  0  0  0  0  0  0  0  0
   -4.7436    0.8342   15.0948 C   0  0  0  0  0  0  0  0  0  0  0  0
   -4.2941    2.4112   13.3176 C   0  0  0  0  0  0  0  0  0  0  0  0
   -5.6134    1.7467   15.6780 C   0  0  0  0  0  0  0  0  0  0  0  0
   -3.5858    2.7865   12.0925 C   0  0  0  0  0  0  0  0  0  0  0  0
   -3.9333    3.3619   10.9252 C   0  0  0  0  0  0  0  0  0  0  0  0
   -2.8310    3.5439   10.1244 N   0  0  0  0  0  0  0  0  0  0  0  0
   -1.8691    3.0477   10.8288 C   0  0  0  0  0  0  0  0  0  0  0  0
   -2.2697    2.3876   11.9633 O   0  0  0  0  0  0  0  0  0  0  0  0
   -0.4242    3.0068   10.5062 C   0  0  0  0  0  0  0  0  0  0  0  0
   -6.4239    1.3537   17.2008 S   0  0  0  0  0  0  0  0  0  0  0  0
   -6.2126    2.4728   18.0733 O   0  0  0  0  0  0  0  0  0  0  0  0
   -7.7789    0.9972   16.8669 O   0  0  0  0  0  0  0  0  0  0  0  0
   -5.7055    0.0623   17.8352 N   0  0  0  0  0  0  0  0  0  0  0  0
   -5.8486   -0.7412   17.2234 H   0  0  0  0  0  0  0  0  0  0  0  0
   -6.1060   -0.1333   18.7527 H   0  0  0  0  0  0  0  0  0  0  0  0
  9  8  1  0  0  0
  9 10  2  0  0  0
  8  7  2  0  0  0
 10 12  1  0  0  0
 10 11  1  0  0  0
  7 11  1  0  0  0
  7  5  1  0  0  0
  5  2  2  0  0  0
  5  1  1  0  0  0
  2  3  1  0  0  0
  1  4  2  0  0  0
  3  6  2  0  0  0
  4  6  1  0  0  0
  6 13  1  0  0  0
 16 13  1  0  0  0
 15 13  2  0  0  0
 13 14  2  0  0  0
 16 17  1  0  0  0
 16 18  1  0  0  0
M  END
> <minimizedAffinity>
-6.71094

$$$$
5NEA_8V8_A_302


 18 19  0  0  0  0  0  0  0  0999 V2000
   -3.6343    3.3999   13.8380 C   0  0  0  0  0  0  0  0  0  0  0  0
   -4.2044    1.4510   12.5642 C   0  0  0  0  0  0  0  0  0  0  0  0
   -3.7302    2.0547   11.4134 C   0  0  0  0  0  0  0  0  0  0  0  0
   -3.1644    4.0187   12.6897 C   0  0  0  0  0  0  0  0  0  0  0  0
   -4.1741    2.1156   13.7880 C   0  0  0  0  0  0  0  0  0  0  0  0
   -3.2116    3.3391   11.4792 C   0  0  0  0  0  0  0  0  0  0  0  0
   -4.6571    1.4479   14.9980 C   0  0  0  0  0  0  0  0  0  0  0  0
   -4.5738    0.2006   15.4998 C   0  0  0  0  0  0  0  0  0  0  0  0
   -5.1693    0.1322   16.7369 N   0  0  0  0  0  0  0  0  0  0  0  0
   -5.6099    1.3324   16.9192 C   0  0  0  0  0  0  0  0  0  0  0  0
   -5.5111    2.1529   15.8236 O   0  0  0  0  0  0  0  0  0  0  0  0
   -6.3001    1.8840   18.1078 C   0  0  0  0  0  0  0  0  0  0  0  0
   -2.5632    4.0884   10.0134 S   0  0  0  0  0  0  0  0  0  0  0  0
   -1.9509    5.3192   10.4239 O   0  0  0  0  0  0  0  0  0  0  0  0
   -1.7365    3.0969    9.3744 O   0  0  0  0  0  0  0  0  0  0  0  0
   -3.7930    4.4256    9.0336 N   0  0  0  0  0  0  0  0  0  0  0  0
   -4.2373    3.5576    8.7344 H   0  0  0  0  0  0  0  0  0  0  0  0
   -3.4486    4.9304    8.2169 H   0  0  0  0  0  0  0  0  0  0  0  0
  9  8  1  0  0  0
  9 10  2  0  0  0
  8  7  2  0  0  0
 10 12  1  0  0  0
 10 11  1  0  0  0
  7 11  1  0  0  0
  7  5  1  0  0  0
  5  2  2  0  0  0
  5  1  1  0  0  0
  2  3  1  0  0  0
  1  4  2  0  0  0
  3  6  2  0  0  0
  4  6  1  0  0  0
  6 13  1  0  0  0
 16 13  1  0  0  0
 15 13  2  0  0  0
 13 14  2  0  0  0
 16 17  1  0  0  0
 16 18  1  0  0  0
M  END
> <minimizedAffinity>
-6.49697

$$$$
5NEA_8V8_A_302


 18 19  0  0  0  0  0  0  0  0999 V2000
   -5.8847    4.7140   14.2235 C   0  0  0  0  0  0  0  0  0  0  0  0
   -3.7534    4.1901   13.2598 C   0  0  0  0  0  0  0  0  0  0  0  0
   -3.6294    3.1026   14.1056 C   0  0  0  0  0  0  0  0  0  0  0  0
   -5.7676    3.6320   15.0824 C   0  0  0  0  0  0  0  0  0  0  0  0
   -4.8737    5.0162   13.3126 C   0  0  0  0  0  0  0  0  0  0  0  0
   -4.6378    2.8265   15.0165 C   0  0  0  0  0  0  0  0  0  0  0  0
   -4.9963    6.1465   12.3903 C   0  0  0  0  0  0  0  0  0  0  0  0
   -4.1418    7.0364   11.8496 C   0  0  0  0  0  0  0  0  0  0  0  0
   -4.7960    7.8704   10.9742 N   0  0  0  0  0  0  0  0  0  0  0  0
   -6.0210    7.4675   11.0423 C   0  0  0  0  0  0  0  0  0  0  0  0
   -6.2681    6.5453   12.0280 O   0  0  0  0  0  0  0  0  0  0  0  0
   -7.1900    7.9568   10.2758 C   0  0  0  0  0  0  0  0  0  0  0  0
   -4.4961    1.4071   16.0632 S   0  0  0  0  0  0  0  0  0  0  0  0
   -5.1144    0.3206   15.3591 O   0  0  0  0  0  0  0  0  0  0  0  0
   -3.1033    1.2881   16.4105 O   0  0  0  0  0  0  0  0  0  0  0  0
   -5.3284    1.6891   17.4100 N   0  0  0  0  0  0  0  0  0  0  0  0
   -4.8982    2.4604   17.9203 H   0  0  0  0  0  0  0  0  0  0  0  0
   -5.3254    0.8521   17.9931 H   0  0  0  0  0  0  0  0  0  0  0  0
  9  8  1  0  0  0
  9 10  2  0  0  0
  8  7  2  0  0  0
 10 12  1  0  0  0
 10 11  1  0  0  0
  7 11  1  0  0  0
  7  5  1  0  0  0
  5  2  2  0  0  0
  5  1  1  0  0  0
  2  3  1  0  0  0
  1  4  2  0  0  0
  3  6  2  0  0  0
  4  6  1  0  0  0
  6 13  1  0  0  0
 16 13  1  0  0  0
 15 13  2  0  0  0
 13 14  2  0  0  0
 16 17  1  0  0  0
 16 18  1  0  0  0
M  END
> <minimizedAffinity>
-6.44699

$$$$
5NEA_8V8_A_302


 18 19  0  0  0  0  0  0  0  0999 V2000
   -5.3557    3.4048   14.0374 C   0  0  0  0  0  0  0  0  0  0  0  0
   -4.0535    1.4252   13.6755 C   0  0  0  0  0  0  0  0  0  0  0  0
   -4.5424    0.8795   14.8490 C   0  0  0  0  0  0  0  0  0  0  0  0
   -5.8456    2.8721   15.2200 C   0  0  0  0  0  0  0  0  0  0  0  0
   -4.4425    2.6959   13.2584 C   0  0  0  0  0  0  0  0  0  0  0  0
   -5.4377    1.6058   15.6196 C   0  0  0  0  0  0  0  0  0  0  0  0
   -3.9329    3.2434   11.9999 C   0  0  0  0  0  0  0  0  0  0  0  0
   -4.1274    2.9782   10.6936 C   0  0  0  0  0  0  0  0  0  0  0  0
   -3.4262    3.8614    9.9074 N   0  0  0  0  0  0  0  0  0  0  0  0
   -2.8175    4.6054   10.7698 C   0  0  0  0  0  0  0  0  0  0  0  0
   -2.9170    4.1766   12.0696 O   0  0  0  0  0  0  0  0  0  0  0  0
   -1.9472    5.7767   10.5167 C   0  0  0  0  0  0  0  0  0  0  0  0
   -6.0963    0.8843   17.0947 S   0  0  0  0  0  0  0  0  0  0  0  0
   -5.7697   -0.5118   17.0441 O   0  0  0  0  0  0  0  0  0  0  0  0
   -5.5900    1.6623   18.1961 O   0  0  0  0  0  0  0  0  0  0  0  0
   -7.6965    1.0411   17.0613 N   0  0  0  0  0  0  0  0  0  0  0  0
   -7.9419    2.0305   17.0968 H   0  0  0  0  0  0  0  0  0  0  0  0
   -8.1020    0.5612   17.8648 H   0  0  0  0  0  0  0  0  0  0  0  0
  9  8  1  0  0  0
  9 10  2  0  0  0
  8  7  2  0  0  0
 10 12  1  0  0  0
 10 11  1  0  0  0
  7 11  1  0  0  0
  7  5  1  0  0  0
  5  2  2  0  0  0
  5  1  1  0  0  0
  2  3  1  0  0  0
  1  4  2  0  0  0
  3  6  2  0  0  0
  4  6  1  0  0  0
  6 13  1  0  0  0
 16 13  1  0  0  0
 15 13  2  0  0  0
 13 14  2  0  0  0
 16 17  1  0  0  0
 16 18  1  0  0  0
M  END
> <minimizedAffinity>
-6.30183

$$$$
5NEA_8V8_A_302


 18 19  0  0  0  0  0  0  0  0999 V2000
   -4.6488    4.6952   14.7083 C   0  0  0  0  0  0  0  0  0  0  0  0
   -2.4833    3.6749   14.8320 C   0  0  0  0  0  0  0  0  0  0  0  0
   -1.9040    4.8249   14.3264 C   0  0  0  0  0  0  0  0  0  0  0  0
   -4.0806    5.8499   14.1925 C   0  0  0  0  0  0  0  0  0  0  0  0
   -3.8608    3.5884   15.0199 C   0  0  0  0  0  0  0  0  0  0  0  0
   -2.7053    5.9104   14.0068 C   0  0  0  0  0  0  0  0  0  0  0  0
   -4.4500    2.3711   15.5808 C   0  0  0  0  0  0  0  0  0  0  0  0
   -4.0046    1.1279   15.8462 C   0  0  0  0  0  0  0  0  0  0  0  0
   -4.9869    0.3760   16.4458 N   0  0  0  0  0  0  0  0  0  0  0  0
   -5.9913    1.1864   16.4935 C   0  0  0  0  0  0  0  0  0  0  0  0
   -5.8118    2.3639   15.8118 O   0  0  0  0  0  0  0  0  0  0  0  0
   -7.3284    0.9539   17.0862 C   0  0  0  0  0  0  0  0  0  0  0  0
   -1.9543    7.3952   13.4053 S   0  0  0  0  0  0  0  0  0  0  0  0
   -2.0447    8.3548   14.4680 O   0  0  0  0  0  0  0  0  0  0  0  0
   -0.6455    7.0308   12.9267 O   0  0  0  0  0  0  0  0  0  0  0  0
   -2.8171    7.9260   12.1562 N   0  0  0  0  0  0  0  0  0  0  0  0
   -2.7608    7.2516   11.3930 H   0  0  0  0  0  0  0  0  0  0  0  0
   -2.4472    8.8240   11.8445 H   0  0  0  0  0  0  0  0  0  0  0  0
  9  8  1  0  0  0
  9 10  2  0  0  0
  8  7  2  0  0  0
 10 12  1  0  0  0
 10 11  1  0  0  0
  7 11  1  0  0  0
  7  5  1  0  0  0
  5  2  2  0  0  0
  5  1  1  0  0  0
  2  3  1  0  0  0
  1  4  2  0  0  0
  3  6  2  0  0  0
  4  6  1  0  0  0
  6 13  1  0  0  0
 16 13  1  0  0  0
 15 13  2  0  0  0
 13 14  2  0  0  0
 16 17  1  0  0  0
 16 18  1  0  0  0
M  END
> <minimizedAffinity>
-6.26197

$$$$
5NEA_8V8_A_302


 18 19  0  0  0  0  0  0  0  0999 V2000
   -4.1771    4.5271   13.2930 C   0  0  0  0  0  0  0  0  0  0  0  0
   -4.5446    2.5572   11.9776 C   0  0  0  0  0  0  0  0  0  0  0  0
   -4.5242    1.7799   13.1218 C   0  0  0  0  0  0  0  0  0  0  0  0
   -4.1457    3.7573   14.4457 C   0  0  0  0  0  0  0  0  0  0  0  0
   -4.3612    3.9364   12.0439 C   0  0  0  0  0  0  0  0  0  0  0  0
   -4.3236    2.3828   14.3543 C   0  0  0  0  0  0  0  0  0  0  0  0
   -4.4126    4.7431   10.8232 C   0  0  0  0  0  0  0  0  0  0  0  0
   -3.7128    4.7824    9.6729 C   0  0  0  0  0  0  0  0  0  0  0  0
   -4.2373    5.7199    8.8152 N   0  0  0  0  0  0  0  0  0  0  0  0
   -5.2140    6.2255    9.4919 C   0  0  0  0  0  0  0  0  0  0  0  0
   -5.2731    5.8234   10.8027 O   0  0  0  0  0  0  0  0  0  0  0  0
   -6.1891    7.2546    9.0634 C   0  0  0  0  0  0  0  0  0  0  0  0
   -4.3458    1.3902   15.8188 S   0  0  0  0  0  0  0  0  0  0  0  0
   -3.0262    1.4619   16.3773 O   0  0  0  0  0  0  0  0  0  0  0  0
   -5.4493    1.8581   16.6176 O   0  0  0  0  0  0  0  0  0  0  0  0
   -4.6431   -0.1315   15.3917 N   0  0  0  0  0  0  0  0  0  0  0  0
   -5.5796   -0.1958   14.9926 H   0  0  0  0  0  0  0  0  0  0  0  0
   -4.5814   -0.7334   16.2128 H   0  0  0  0  0  0  0  0  0  0  0  0
  9  8  1  0  0  0
  9 10  2  0  0  0
  8  7  2  0  0  0
 10 12  1  0  0  0
 10 11  1  0  0  0
  7 11  1  0  0  0
  7  5  1  0  0  0
  5  2  2  0  0  0
  5  1  1  0  0  0
  2  3  1  0  0  0
  1  4  2  0  0  0
  3  6  2  0  0  0
  4  6  1  0  0  0
  6 13  1  0  0  0
 16 13  1  0  0  0
 15 13  2  0  0  0
 13 14  2  0  0  0
 16 17  1  0  0  0
 16 18  1  0  0  0
M  END
> <minimizedAffinity>
-6.10930

$$$$
5NEA_8V8_A_302


 18 19  0  0  0  0  0  0  0  0999 V2000
   -4.8276    2.1546   12.6184 C   0  0  0  0  0  0  0  0  0  0  0  0
   -3.4460    3.7675   13.7298 C   0  0  0  0  0  0  0  0  0  0  0  0
   -2.5753    3.7740   12.6549 C   0  0  0  0  0  0  0  0  0  0  0  0
   -3.9575    2.1459   11.5390 C   0  0  0  0  0  0  0  0  0  0  0  0
   -4.5757    2.9527   13.7332 C   0  0  0  0  0  0  0  0  0  0  0  0
   -2.8332    2.9614   11.5612 C   0  0  0  0  0  0  0  0  0  0  0  0
   -5.4977    2.9810   14.8701 C   0  0  0  0  0  0  0  0  0  0  0  0
   -6.2200    3.9329   15.4918 C   0  0  0  0  0  0  0  0  0  0  0  0
   -6.9857    3.3867   16.4943 N   0  0  0  0  0  0  0  0  0  0  0  0
   -6.6750    2.1339   16.4539 C   0  0  0  0  0  0  0  0  0  0  0  0
   -5.6287    1.8285   15.6200 O   0  0  0  0  0  0  0  0  0  0  0  0
   -7.2252    1.0269   17.2696 C   0  0  0  0  0  0  0  0  0  0  0  0
   -1.7421    3.0089   10.1693 S   0  0  0  0  0  0  0  0  0  0  0  0
   -1.6207    1.6576    9.7028 O   0  0  0  0  0  0  0  0  0  0  0  0
   -2.2711    3.9965    9.2640 O   0  0  0  0  0  0  0  0  0  0  0  0
   -0.3008    3.5112   10.6759 N   0  0  0  0  0  0  0  0  0  0  0  0
   -0.3738    4.4719   11.0105 H   0  0  0  0  0  0  0  0  0  0  0  0
    0.3644    3.4697    9.9037 H   0  0  0  0  0  0  0  0  0  0  0  0
  9  8  1  0  0  0
  9 10  2  0  0  0
  8  7  2  0  0  0
 10 12  1  0  0  0
 10 11  1  0  0  0
  7 11  1  0  0  0
  7  5  1  0  0  0
  5  2  2  0  0  0
  5  1  1  0  0  0
  2  3  1  0  0  0
  1  4  2  0  0  0
  3  6  2  0  0  0
  4  6  1  0  0  0
  6 13  1  0  0  0
 16 13  1  0  0  0
 15 13  2  0  0  0
 13 14  2  0  0  0
 16 17  1  0  0  0
 16 18  1  0  0  0
M  END
> <minimizedAffinity>
-6.03419

$$$$
