2V59_LZK_A_1446
  RCSB PDB12061707023D
Coordinates from PDB:2V59:A:1446 Model:1 without hydrogens
 22 24  0  0  0  0            999 V2000
    1.7550  -27.6250   24.7720   N 0  0  0  0  0  0  0  0  0  0  0  0
    2.0570  -26.3060   24.8230   C 0  0  0  0  0  0  0  0  0  0  0  0
    3.1760  -25.8710   24.2040   N 0  0  0  0  0  0  0  0  0  0  0  0
    1.2530  -25.4350   25.4900   N 0  0  0  0  0  0  0  0  0  0  0  0
    1.5510  -24.1250   25.5510   C 0  0  0  0  0  0  0  0  0  0  0  0
    2.7020  -23.6590   24.9180   C 0  0  0  0  0  0  0  0  0  0  0  0
    3.5160  -24.5660   24.2400   C 0  0  0  0  0  0  0  0  0  0  0  0
    4.6420  -24.1490   23.6170   N 0  0  0  0  0  0  0  0  0  0  0  0
    5.0080  -22.8470   23.6290   C 0  0  0  0  0  0  0  0  0  0  0  0
    6.1470  -22.4920   22.9830   N 0  0  0  0  0  0  0  0  0  0  0  0
    3.0590  -22.3150   24.9540   C 0  0  0  0  0  0  0  0  0  0  0  0
    4.2270  -21.9060   24.3030   C 0  0  0  0  0  0  0  0  0  0  0  0
    4.6160  -20.4660   24.3160   C 0  0  0  0  0  0  0  0  0  0  0  0
    5.8060  -20.0590   24.9190   C 0  0  0  0  0  0  0  0  0  0  0  0
    6.6120  -20.9990   25.5160   O 0  0  0  0  0  0  0  0  0  0  0  0
    8.0100  -20.7950   25.6930   C 0  0  0  0  0  0  0  0  0  0  0  0
    3.7760  -19.5320   23.7100   C 0  0  0  0  0  0  0  0  0  0  0  0
    2.6070  -19.9620   23.1190   O 0  0  0  0  0  0  0  0  0  0  0  0
    1.5660  -19.0770   22.6980   C 0  0  0  0  0  0  0  0  0  0  0  0
    4.1330  -18.1790   23.7180   C 0  0  0  0  0  0  0  0  0  0  0  0
    5.3220  -17.7690   24.3230   C 0  0  0  0  0  0  0  0  0  0  0  0
    6.1600  -18.7060   24.9250   C 0  0  0  0  0  0  0  0  0  0  0  0
  1  2  1  0  0  0  0
  2  3  1  0  0  0  0
  2  4  2  0  0  0  0
  3  7  2  0  0  0  0
  4  5  1  0  0  0  0
  5  6  2  0  0  0  0
  6  7  1  0  0  0  0
  6 11  1  0  0  0  0
  7  8  1  0  0  0  0
  8  9  2  0  0  0  0
  9 10  1  0  0  0  0
  9 12  1  0  0  0  0
 11 12  2  0  0  0  0
 12 13  1  0  0  0  0
 13 14  1  0  0  0  0
 13 17  2  0  0  0  0
 14 15  1  0  0  0  0
 14 22  2  0  0  0  0
 15 16  1  0  0  0  0
 17 18  1  0  0  0  0
 17 20  1  0  0  0  0
 18 19  1  0  0  0  0
 20 21  2  0  0  0  0
 21 22  1  0  0  0  0
A    1
N20
A    2
C19
A    3
N17
A    4
N18
A    5
C16
A    6
C11
A    7
C15
A    8
N12
A    9
C6
A   10
N13
A   11
C5
A   12
C2
A   13
C1
A   14
C4
A   15
O1
A   16
C45
A   17
C3
A   18
O7
A   19
C43
A   20
C7
A   21
C14
A   22
C9
M  END
>  <InstanceId>
2V59_LZK_A_1446

>  <ChemCompId>
LZK

>  <PdbId>
2V59

>  <ChainId>
A

>  <ResidueNumber>
1446

>  <InsertionCode>


>  <Model>
1

>  <AltIds>


>  <MissingHeavyAtoms>
0

>  <ObservedFormula>
C15 N5 O2

>  <Name>
6-(2,6-DIMETHOXYPHENYL)PYRIDO[2,3-D]PYRIMIDINE-2,7-DIAMINE

>  <SystematicName>
6-(2,6-dimethoxyphenyl)pyrido[6,5-d]pyrimidine-2,7-diamine

>  <Synonyms>


>  <Type>
non-polymer

>  <Formula>
C15 H15 N5 O2

>  <MolecularWeight>
297.312

>  <ModifiedDate>
2011-06-04

>  <Parent>


>  <OneLetterCode>


>  <SubcomponentList>


>  <AmbiguousFlag>


>  <InChI>
InChI=1S/C15H15N5O2/c1-21-10-4-3-5-11(22-2)12(10)9-6-8-7-18-15(17)20-14(8)19-13(9)16/h3-7H,1-2H3,(H4,16,17,18,19,20)

>  <InChIKey>
LRPHIAJXODIASX-UHFFFAOYSA-N

>  <SMILES>
COc1cccc(c1c2cc3cnc(nc3nc2N)N)OC

$$$$
