5ZC5_09I_U_301
  RCSB PDB12151803133D
Coordinates from PDB:5ZC5:U:301 Model:1 without hydrogens
 30 33  0  0  0  0            999 V2000
   -2.2560  -32.8620  -31.9880   C 0  0  0  0  0  0  0  0  0  0  0  0
   -1.5530  -32.6110  -28.4000   C 0  0  0  0  0  0  0  0  0  0  0  0
   -4.3240  -31.5930  -31.8980   C 0  0  0  0  0  0  0  0  0  0  0  0
   -2.1040  -32.7060  -30.6090   C 0  0  0  0  0  0  0  0  0  0  0  0
   -3.0590  -32.0050  -29.9210   C 0  0  0  0  0  0  0  0  0  0  0  0
    1.8390  -28.6920  -27.7530   C 0  0  0  0  0  0  0  0  0  0  0  0
   -0.1080  -29.2920  -25.5870   C 0  0  0  0  0  0  0  0  0  0  0  0
   -1.0310  -32.7210  -27.0250   C 0  0  0  0  0  0  0  0  0  0  0  0
   -1.4700  -37.8430  -25.7890   C 0  0  0  0  0  0  0  0  0  0  0  0
   -0.4030  -29.7890  -27.9850   C 0  0  0  0  0  0  0  0  0  0  0  0
   -3.3730  -32.3080  -32.6260   C 0  0  0  0  0  0  0  0  0  0  0  0
   -0.9370  -35.7010  -24.8730   C 0  0  0  0  0  0  0  0  0  0  0  0
   -1.1270  -33.1170  -29.6260   C 0  0  0  0  0  0  0  0  0  0  0  0
    1.0350  -29.7720  -28.4780   C 0  0  0  0  0  0  0  0  0  0  0  0
   -4.1740  -31.4300  -30.5200   C 0  0  0  0  0  0  0  0  0  0  0  0
   -1.3320  -33.5430  -32.6870   F 0  0  0  0  0  0  0  0  0  0  0  0
   -2.7430  -31.9660  -28.6470   O 0  0  0  0  0  0  0  0  0  0  0  0
   -0.5710  -31.6720  -26.2170   C 0  0  0  0  0  0  0  0  0  0  0  0
   -0.3930  -30.3100  -26.6060   N 0  0  0  0  0  0  0  0  0  0  0  0
    2.3880  -29.2070  -26.4190   C 0  0  0  0  0  0  0  0  0  0  0  0
    1.3900  -29.3080  -25.2560   C 0  0  0  0  0  0  0  0  0  0  0  0
   -0.2120  -32.0170  -24.9390   N 0  0  0  0  0  0  0  0  0  0  0  0
   -0.3150  -33.2750  -24.4550   C 0  0  0  0  0  0  0  0  0  0  0  0
    0.0550  -33.5460  -23.1800   N 0  0  0  0  0  0  0  0  0  0  0  0
   -0.8090  -34.2760  -25.2790   C 0  0  0  0  0  0  0  0  0  0  0  0
   -1.1490  -33.9730  -26.5450   N 0  0  0  0  0  0  0  0  0  0  0  0
   -0.8090  -36.0180  -23.7030   O 0  0  0  0  0  0  0  0  0  0  0  0
   -1.0920  -36.5760  -25.8860   N 0  0  0  0  0  0  0  0  0  0  0  0
   -1.5350  -38.5710  -26.9050   N 0  0  0  0  0  0  0  0  0  0  0  0
   -1.7670  -38.3800  -24.6090   N 0  0  0  0  0  0  0  0  0  0  0  0
 16  1  1  0  0  0  0
 11  1  2  0  0  0  0
 11  3  1  0  0  0  0
  1  4  1  0  0  0  0
  3 15  2  0  0  0  0
  4  5  2  0  0  0  0
  4 13  1  0  0  0  0
 15  5  1  0  0  0  0
  5 17  1  0  0  0  0
 13  2  2  0  0  0  0
 17  2  1  0  0  0  0
 14 10  1  0  0  0  0
 14  6  1  0  0  0  0
  2  8  1  0  0  0  0
 10 19  1  0  0  0  0
  6 20  1  0  0  0  0
  8 26  2  0  0  0  0
  8 18  1  0  0  0  0
 29  9  2  0  0  0  0
 19 18  1  0  0  0  0
 19  7  1  0  0  0  0
 26 25  1  0  0  0  0
 20 21  1  0  0  0  0
 18 22  2  0  0  0  0
 28  9  1  0  0  0  0
 28 12  1  0  0  0  0
  9 30  1  0  0  0  0
  7 21  1  0  0  0  0
 25 12  1  0  0  0  0
 25 23  2  0  0  0  0
 22 23  1  0  0  0  0
 12 27  2  0  0  0  0
 23 24  1  0  0  0  0
A    1
C5
A    2
C8
A    3
C3
A    4
C6
A    5
C1
A    6
C17
A    7
C14
A    8
C9
A    9
C20
A   10
C19
A   11
C4
A   12
C13
A   13
C7
A   14
C18
A   15
C2
A   16
F1
A   17
O1
A   18
C12
A   19
N3
A   20
C16
A   21
C15
A   22
N2
A   23
C11
A   24
N4
A   25
C10
A   26
N1
A   27
O2
A   28
N5
A   29
N7
A   30
N6
M  END
>  <InstanceId>
5ZC5_09I_U_301

>  <ChemCompId>
09I

>  <PdbId>
5ZC5

>  <ChainId>
U

>  <ResidueNumber>
301

>  <InsertionCode>


>  <Model>
1

>  <AltIds>


>  <MissingHeavyAtoms>
0

>  <ObservedFormula>
C20 N7 O2 F

>  <Name>
3-azanyl-5-(azepan-1-yl)-N-carbamimidoyl-6-(4-fluoranyl-1-benzofuran-2-yl)pyrazine-2-carboxamide

>  <SystematicName>
3-azanyl-5-(azepan-1-yl)-~{N}-carbamimidoyl-6-(4-fluoranyl-1-benzofuran-2-yl)pyrazine-2-carboxamide

>  <Synonyms>


>  <Type>
NON-POLYMER

>  <Formula>
C20 H22 F N7 O2

>  <MolecularWeight>
411.433

>  <ModifiedDate>
2018-12-14

>  <Parent>


>  <OneLetterCode>


>  <SubcomponentList>


>  <AmbiguousFlag>
N

>  <InChI>
InChI=1S/C20H22FN7O2/c21-12-6-5-7-13-11(12)10-14(30-13)15-18(28-8-3-1-2-4-9-28)26-17(22)16(25-15)19(29)27-20(23)24/h5-7,10H,1-4,8-9H2,(H2,22,26)(H4,23,24,27,29)

>  <InChIKey>
ITMHCPYYAUUUAC-UHFFFAOYSA-N

>  <SMILES>
[H]/N=C(/N)\NC(=O)c1c(nc(c(n1)c2cc3c(o2)cccc3F)N4CCCCCC4)N

$$$$
