1UPF_URF_D_999
  RCSB PDB12061704143D
Coordinates from PDB:1UPF:D:999 Model:1 without hydrogens
  9  9  0  0  0  0            999 V2000
  -11.0790   93.1800   91.1850   N 0  0  0  0  0  0  0  0  0  0  0  0
  -11.8850   92.4550   90.3070   C 0  0  0  0  0  0  0  0  0  0  0  0
  -12.9710   93.1540   89.8210   N 0  0  0  0  0  0  0  0  0  0  0  0
  -13.3400   94.4400   90.1190   C 0  0  0  0  0  0  0  0  0  0  0  0
  -12.4510   95.1420   91.0140   C 0  0  0  0  0  0  0  0  0  0  0  0
  -11.4040   94.4940   91.5440   C 0  0  0  0  0  0  0  0  0  0  0  0
  -11.6340   91.3100   89.9460   O 0  0  0  0  0  0  0  0  0  0  0  0
  -14.3240   94.9090   89.5490   O 0  0  0  0  0  0  0  0  0  0  0  0
  -12.7720   96.3290   91.4570   F 0  0  0  0  0  0  0  0  0  0  0  0
  1  2  1  0  0  0  0
  1  6  1  0  0  0  0
  2  3  1  0  0  0  0
  2  7  2  0  0  0  0
  3  4  1  0  0  0  0
  4  5  1  0  0  0  0
  4  8  2  0  0  0  0
  5  6  2  0  0  0  0
  5  9  1  0  0  0  0
A    1
N1
A    2
C2
A    3
N3
A    4
C4
A    5
C5
A    6
C6
A    7
O2
A    8
O4
A    9
F5
M  END
>  <InstanceId>
1UPF_URF_D_999

>  <ChemCompId>
URF

>  <PdbId>
1UPF

>  <ChainId>
D

>  <ResidueNumber>
999

>  <InsertionCode>


>  <Model>
1

>  <AltIds>


>  <MissingHeavyAtoms>
0

>  <ObservedFormula>
C4 N2 O2 F

>  <Name>
5-FLUOROURACIL

>  <SystematicName>
5-fluoro-1H-pyrimidine-2,4-dione

>  <Synonyms>


>  <Type>
NON-POLYMER

>  <Formula>
C4 H3 F N2 O2

>  <MolecularWeight>
130.077

>  <ModifiedDate>
2011-06-04

>  <Parent>


>  <OneLetterCode>


>  <SubcomponentList>


>  <AmbiguousFlag>
N

>  <InChI>
InChI=1S/C4H3FN2O2/c5-2-1-6-4(9)7-3(2)8/h1H,(H2,6,7,8,9)

>  <InChIKey>
GHASVSINZRGABV-UHFFFAOYSA-N

>  <SMILES>
C1=C(C(=O)NC(=O)N1)F

$$$$
