4CPS_1T8_B_1202


 58 61  0  0  0  0  0  0  0  0999 V2000
   14.8635   23.1964    5.4731 C   0  0  0  0  0  0  0  0  0  0  0  0
   13.3551   23.3720    5.6631 C   0  0  0  0  0  0  0  0  0  0  0  0
   12.6226   22.7881    4.4494 C   0  0  0  0  0  0  0  0  0  0  0  0
    7.0458   23.6113    2.8989 C   0  0  0  0  0  0  0  0  0  0  0  0
    8.2690   22.9735    3.0793 C   0  0  0  0  0  0  0  0  0  0  0  0
    9.4493   23.5897    2.6733 C   0  0  0  0  0  0  0  0  0  0  0  0
   10.6824   22.9764    2.9044 C   0  0  0  0  0  0  0  0  0  0  0  0
    9.3889   24.7956    1.9921 C   0  0  0  0  0  0  0  0  0  0  0  0
    8.1670   25.4398    1.8286 C   0  0  0  0  0  0  0  0  0  0  0  0
    6.9835   24.8321    2.2330 C   0  0  0  0  0  0  0  0  0  0  0  0
    5.7698   25.5114    2.0639 C   0  0  0  0  0  0  0  0  0  0  0  0
    4.8792   25.2491    3.1092 C   0  0  0  0  0  0  0  0  0  0  0  0
    4.8278   26.0464    4.2563 C   0  0  0  0  0  0  0  0  0  0  0  0
    5.8932   26.8674    4.6431 C   0  0  0  0  0  0  0  0  0  0  0  0
    6.8442   26.0854    5.4679 N   0  0  0  0  0  0  0  0  0  0  0  0
    8.1519   26.5390    5.6587 C   0  0  0  0  0  0  0  0  0  0  0  0
    8.4629   27.6049    5.1125 O   0  0  0  0  0  0  0  0  0  0  0  0
    9.0938   25.6535    6.2404 C   0  0  0  0  0  0  0  0  0  0  0  0
   10.1876   25.3246    5.2836 N   0  0  0  0  0  0  0  0  0  0  0  0
   10.6177   24.0053    5.1030 C   0  0  0  0  0  0  0  0  0  0  0  0
   10.1668   23.1243    5.8475 O   0  0  0  0  0  0  0  0  0  0  0  0
   11.4653   23.6987    4.0174 C   0  0  0  0  0  0  0  0  0  0  0  0
   12.0265   24.9087    3.4811 O   0  0  0  0  0  0  0  0  0  0  0  0
    6.5531   25.2418    5.8835 H   0  0  0  0  0  0  0  0  0  0  0  0
   10.6149   26.0476    4.7698 H   0  0  0  0  0  0  0  0  0  0  0  0
   11.3109   25.5005    3.2010 H   0  0  0  0  0  0  0  0  0  0  0  0
    9.6300   26.1917    7.5882 C   0  0  0  0  0  0  0  0  0  0  0  0
    8.6888   25.8026    8.7348 C   0  0  0  0  0  0  0  0  0  0  0  0
   11.0378   25.6663    7.8806 C   0  0  0  0  0  0  0  0  0  0  0  0
   15.3576   21.9925    6.1468 N   0  0  0  0  0  0  0  0  0  0  0  0
   15.9542   21.3238    5.3554 N   0  0  0  0  0  0  0  0  0  0  0  0
   15.3961   20.1728    4.9205 C   0  0  0  0  0  0  0  0  0  0  0  0
   14.3298   19.7193    5.3505 O   0  0  0  0  0  0  0  0  0  0  0  0
   16.8376   21.6072    5.0260 H   0  0  0  0  0  0  0  0  0  0  0  0
   16.3758   19.2914    4.1234 C   0  0  0  0  0  0  0  0  0  0  0  0
   15.7088   18.5266    2.9813 C   0  0  0  0  0  0  0  0  0  0  0  0
   14.8264   19.4754    2.1598 C   0  0  0  0  0  0  0  0  0  0  0  0
   14.8430   17.4159    3.5649 C   0  0  0  0  0  0  0  0  0  0  0  0
   16.7647   17.9259    2.0647 C   0  0  0  0  0  0  0  0  0  0  0  0
   17.0532   18.3419    5.0177 N   0  0  0  0  0  0  0  0  0  0  0  0
   18.2362   18.6481    5.5463 C   0  0  0  0  0  0  0  0  0  0  0  0
   18.8049   19.6876    5.2029 O   0  0  0  0  0  0  0  0  0  0  0  0
   16.6311   17.4773    5.2264 H   0  0  0  0  0  0  0  0  0  0  0  0
   18.8192   17.7761    6.4159 O   0  0  0  0  0  0  0  0  0  0  0  0
   18.6676   16.4203    5.9879 C   0  0  0  0  0  0  0  0  0  0  0  0
   16.2411   22.4236    7.2388 C   0  0  0  0  0  0  0  0  0  0  0  0
   16.4061   21.4331    8.2061 C   0  0  0  0  0  0  0  0  0  0  0  0
   15.2874   20.8150    8.7468 C   0  0  0  0  0  0  0  0  0  0  0  0
   15.4286   19.7382    9.6145 C   0  0  0  0  0  0  0  0  0  0  0  0
   17.6690   20.9380    8.5002 C   0  0  0  0  0  0  0  0  0  0  0  0
   17.8145   19.9021    9.4191 C   0  0  0  0  0  0  0  0  0  0  0  0
   16.6959   19.3161   10.0002 C   0  0  0  0  0  0  0  0  0  0  0  0
   18.0859   17.7449   11.2005 C   0  0  0  0  0  0  0  0  0  0  0  0
   16.8806   18.0638   10.5855 C   0  0  0  0  0  0  0  0  0  0  0  0
   15.8487   17.1300   10.5617 C   0  0  0  0  0  0  0  0  0  0  0  0
   16.0323   15.8641   11.1070 C   0  0  0  0  0  0  0  0  0  0  0  0
   17.2670   15.5192   11.6645 N   0  0  0  0  0  0  0  0  0  0  0  0
   18.2986   16.4649   11.7016 C   0  0  0  0  0  0  0  0  0  0  0  0
  4  5  1  0  0  0
  4 10  2  0  0  0
  5  6  2  0  0  0
  6  7  1  0  0  0
  6  8  1  0  0  0
  7 22  1  0  0  0
  8  9  2  0  0  0
  9 10  1  0  0  0
 10 11  1  0  0  0
 11 12  1  0  0  0
 12 13  2  0  0  0
 13 14  1  0  0  0
 14 15  1  0  0  0
 15 16  1  0  0  0
 16 17  2  0  0  0
 16 18  1  0  0  0
 18 27  1  0  0  0
 18 19  1  0  0  0
 27 28  1  0  0  0
 27 29  1  0  0  0
 19 20  1  0  0  0
 20 21  2  0  0  0
 20 22  1  0  0  0
 22 23  1  0  0  0
 22  3  1  0  0  0
  3  2  1  0  0  0
  2  1  1  0  0  0
  1 30  1  0  0  0
 30 31  1  0  0  0
 30 46  1  0  0  0
 31 32  1  0  0  0
 32 33  2  0  0  0
 32 35  1  0  0  0
 35 36  1  0  0  0
 35 40  1  0  0  0
 36 37  1  0  0  0
 36 38  1  0  0  0
 36 39  1  0  0  0
 40 41  1  0  0  0
 41 42  2  0  0  0
 41 44  1  0  0  0
 44 45  1  0  0  0
 46 47  1  0  0  0
 47 48  1  0  0  0
 47 50  2  0  0  0
 48 49  2  0  0  0
 49 52  1  0  0  0
 50 51  1  0  0  0
 51 52  2  0  0  0
 52 53  1  0  0  0
 53 54  1  0  0  0
 53 58  2  0  0  0
 54 55  2  0  0  0
 55 56  1  0  0  0
 56 57  2  0  0  0
 57 58  1  0  0  0
 15 24  1  0  0  0
 19 25  1  0  0  0
 23 26  1  0  0  0
 31 34  1  0  0  0
 40 43  1  0  0  0
M  END
> <minimizedAffinity>
-12.51398

$$$$
4CPS_1T8_B_1202


 58 61  0  0  0  0  0  0  0  0999 V2000
   12.5618   24.4417    4.5472 C   0  0  0  0  0  0  0  0  0  0  0  0
   13.1444   23.0626    4.8650 C   0  0  0  0  0  0  0  0  0  0  0  0
   13.3591   22.9423    6.3782 C   0  0  0  0  0  0  0  0  0  0  0  0
   16.7845   19.2352    9.3289 C   0  0  0  0  0  0  0  0  0  0  0  0
   15.7078   20.0677    9.0401 C   0  0  0  0  0  0  0  0  0  0  0  0
   15.9249   21.3570    8.5622 C   0  0  0  0  0  0  0  0  0  0  0  0
   14.8461   22.1741    8.2182 C   0  0  0  0  0  0  0  0  0  0  0  0
   17.2206   21.8427    8.4771 C   0  0  0  0  0  0  0  0  0  0  0  0
   18.2958   21.0033    8.7492 C   0  0  0  0  0  0  0  0  0  0  0  0
   18.0876   19.7135    9.2252 C   0  0  0  0  0  0  0  0  0  0  0  0
   19.1913   18.8889    9.4803 C   0  0  0  0  0  0  0  0  0  0  0  0
   18.9205   17.5517    9.1753 C   0  0  0  0  0  0  0  0  0  0  0  0
   19.1810   17.0124    7.9122 C   0  0  0  0  0  0  0  0  0  0  0  0
   19.3170   17.8130    6.7723 C   0  0  0  0  0  0  0  0  0  0  0  0
   17.9815   18.0544    6.1771 N   0  0  0  0  0  0  0  0  0  0  0  0
   17.7882   19.1087    5.2807 C   0  0  0  0  0  0  0  0  0  0  0  0
   18.7720   19.8122    5.0192 O   0  0  0  0  0  0  0  0  0  0  0  0
   16.4603   19.4571    4.9271 C   0  0  0  0  0  0  0  0  0  0  0  0
   16.1214   20.8317    5.3914 N   0  0  0  0  0  0  0  0  0  0  0  0
   14.9117   21.0970    6.0429 C   0  0  0  0  0  0  0  0  0  0  0  0
   14.0632   20.1977    6.1134 O   0  0  0  0  0  0  0  0  0  0  0  0
   14.7347   22.3381    6.6904 C   0  0  0  0  0  0  0  0  0  0  0  0
   15.7398   23.2657    6.2478 O   0  0  0  0  0  0  0  0  0  0  0  0
   17.2265   17.4689    6.4145 H   0  0  0  0  0  0  0  0  0  0  0  0
   16.7592   21.5657    5.2371 H   0  0  0  0  0  0  0  0  0  0  0  0
   16.6197   22.9032    6.4358 H   0  0  0  0  0  0  0  0  0  0  0  0
   16.2007   19.2638    3.4142 C   0  0  0  0  0  0  0  0  0  0  0  0
   17.2732   18.3582    2.7964 C   0  0  0  0  0  0  0  0  0  0  0  0
   14.8151   18.6663    3.1558 C   0  0  0  0  0  0  0  0  0  0  0  0
   11.1036   24.3952    4.4106 N   0  0  0  0  0  0  0  0  0  0  0  0
   10.6288   25.3075    5.0201 N   0  0  0  0  0  0  0  0  0  0  0  0
   10.0073   25.0563    6.1932 C   0  0  0  0  0  0  0  0  0  0  0  0
    9.8263   23.9209    6.6470 O   0  0  0  0  0  0  0  0  0  0  0  0
   10.6896   26.2268    4.6729 H   0  0  0  0  0  0  0  0  0  0  0  0
    9.2193   26.2662    6.7291 C   0  0  0  0  0  0  0  0  0  0  0  0
    9.2348   26.3707    8.2533 C   0  0  0  0  0  0  0  0  0  0  0  0
   10.6034   25.9376    8.7947 C   0  0  0  0  0  0  0  0  0  0  0  0
    8.1571   25.4571    8.8258 C   0  0  0  0  0  0  0  0  0  0  0  0
    8.9719   27.8065    8.6837 C   0  0  0  0  0  0  0  0  0  0  0  0
    7.8284   26.2207    6.2562 N   0  0  0  0  0  0  0  0  0  0  0  0
    7.4614   26.9263    5.1885 C   0  0  0  0  0  0  0  0  0  0  0  0
    8.2695   27.6941    4.6599 O   0  0  0  0  0  0  0  0  0  0  0  0
    7.1665   25.6672    6.7302 H   0  0  0  0  0  0  0  0  0  0  0  0
    6.1802   26.8254    4.7358 O   0  0  0  0  0  0  0  0  0  0  0  0
    5.2398   26.7859    5.8120 C   0  0  0  0  0  0  0  0  0  0  0  0
   10.7864   24.5004    2.9798 C   0  0  0  0  0  0  0  0  0  0  0  0
    9.4196   24.3789    2.7322 C   0  0  0  0  0  0  0  0  0  0  0  0
    8.7047   23.3569    3.3406 C   0  0  0  0  0  0  0  0  0  0  0  0
    7.3219   23.2926    3.2131 C   0  0  0  0  0  0  0  0  0  0  0  0
    8.7391   25.3662    2.0332 C   0  0  0  0  0  0  0  0  0  0  0  0
    7.3624   25.2671    1.8502 C   0  0  0  0  0  0  0  0  0  0  0  0
    6.6523   24.2150    2.4171 C   0  0  0  0  0  0  0  0  0  0  0  0
    4.5699   25.1060    1.5735 C   0  0  0  0  0  0  0  0  0  0  0  0
    5.2694   24.3645    2.5188 C   0  0  0  0  0  0  0  0  0  0  0  0
    4.5837   23.7604    3.5686 C   0  0  0  0  0  0  0  0  0  0  0  0
    3.2106   23.9331    3.7043 C   0  0  0  0  0  0  0  0  0  0  0  0
    2.5170   24.7350    2.7931 N   0  0  0  0  0  0  0  0  0  0  0  0
    3.2058   25.3290    1.7290 C   0  0  0  0  0  0  0  0  0  0  0  0
  4  5  1  0  0  0
  4 10  2  0  0  0
  5  6  2  0  0  0
  6  7  1  0  0  0
  6  8  1  0  0  0
  7 22  1  0  0  0
  8  9  2  0  0  0
  9 10  1  0  0  0
 10 11  1  0  0  0
 11 12  1  0  0  0
 12 13  2  0  0  0
 13 14  1  0  0  0
 14 15  1  0  0  0
 15 16  1  0  0  0
 16 17  2  0  0  0
 16 18  1  0  0  0
 18 27  1  0  0  0
 18 19  1  0  0  0
 27 28  1  0  0  0
 27 29  1  0  0  0
 19 20  1  0  0  0
 20 21  2  0  0  0
 20 22  1  0  0  0
 22 23  1  0  0  0
 22  3  1  0  0  0
  3  2  1  0  0  0
  2  1  1  0  0  0
  1 30  1  0  0  0
 30 31  1  0  0  0
 30 46  1  0  0  0
 31 32  1  0  0  0
 32 33  2  0  0  0
 32 35  1  0  0  0
 35 36  1  0  0  0
 35 40  1  0  0  0
 36 37  1  0  0  0
 36 38  1  0  0  0
 36 39  1  0  0  0
 40 41  1  0  0  0
 41 42  2  0  0  0
 41 44  1  0  0  0
 44 45  1  0  0  0
 46 47  1  0  0  0
 47 48  1  0  0  0
 47 50  2  0  0  0
 48 49  2  0  0  0
 49 52  1  0  0  0
 50 51  1  0  0  0
 51 52  2  0  0  0
 52 53  1  0  0  0
 53 54  1  0  0  0
 53 58  2  0  0  0
 54 55  2  0  0  0
 55 56  1  0  0  0
 56 57  2  0  0  0
 57 58  1  0  0  0
 15 24  1  0  0  0
 19 25  1  0  0  0
 23 26  1  0  0  0
 31 34  1  0  0  0
 40 43  1  0  0  0
M  END
> <minimizedAffinity>
-12.24126

$$$$
4CPS_1T8_B_1202


 58 61  0  0  0  0  0  0  0  0999 V2000
   11.8242   24.2260    8.7114 C   0  0  0  0  0  0  0  0  0  0  0  0
   13.3277   24.0406    8.4945 C   0  0  0  0  0  0  0  0  0  0  0  0
   13.5583   23.2862    7.1798 C   0  0  0  0  0  0  0  0  0  0  0  0
   17.0568   19.0924    9.2670 C   0  0  0  0  0  0  0  0  0  0  0  0
   16.0367   20.0374    9.2216 C   0  0  0  0  0  0  0  0  0  0  0  0
   16.2960   21.3304    8.7758 C   0  0  0  0  0  0  0  0  0  0  0  0
   15.2623   22.2640    8.6760 C   0  0  0  0  0  0  0  0  0  0  0  0
   17.5985   21.7000    8.4783 C   0  0  0  0  0  0  0  0  0  0  0  0
   18.6135   20.7493    8.5072 C   0  0  0  0  0  0  0  0  0  0  0  0
   18.3626   19.4552    8.9495 C   0  0  0  0  0  0  0  0  0  0  0  0
   19.4040   18.5178    8.9571 C   0  0  0  0  0  0  0  0  0  0  0  0
   18.9481   17.2343    8.6419 C   0  0  0  0  0  0  0  0  0  0  0  0
   18.9234   16.7588    7.3275 C   0  0  0  0  0  0  0  0  0  0  0  0
   18.9357   17.6178    6.2226 C   0  0  0  0  0  0  0  0  0  0  0  0
   17.5474   18.0198    5.8951 N   0  0  0  0  0  0  0  0  0  0  0  0
   17.3066   19.1447    5.1021 C   0  0  0  0  0  0  0  0  0  0  0  0
   18.2949   19.7710    4.6993 O   0  0  0  0  0  0  0  0  0  0  0  0
   15.9797   19.6360    5.0155 C   0  0  0  0  0  0  0  0  0  0  0  0
   15.8709   21.0020    5.6008 N   0  0  0  0  0  0  0  0  0  0  0  0
   14.8298   21.3329    6.4754 C   0  0  0  0  0  0  0  0  0  0  0  0
   13.9200   20.5124    6.6562 O   0  0  0  0  0  0  0  0  0  0  0  0
   14.8985   22.5390    7.2044 C   0  0  0  0  0  0  0  0  0  0  0  0
   15.8984   23.3981    6.6309 O   0  0  0  0  0  0  0  0  0  0  0  0
   16.7909   17.4913    6.2380 H   0  0  0  0  0  0  0  0  0  0  0  0
   16.5427   21.6830    5.3684 H   0  0  0  0  0  0  0  0  0  0  0  0
   16.7559   22.9448    6.6363 H   0  0  0  0  0  0  0  0  0  0  0  0
   15.4369   19.5687    3.5683 C   0  0  0  0  0  0  0  0  0  0  0  0
   14.6730   18.2583    3.3414 C   0  0  0  0  0  0  0  0  0  0  0  0
   14.5211   20.7555    3.2580 C   0  0  0  0  0  0  0  0  0  0  0  0
   11.2947   25.3354    7.9137 N   0  0  0  0  0  0  0  0  0  0  0  0
   10.5478   24.8971    7.0895 N   0  0  0  0  0  0  0  0  0  0  0  0
   10.9065   24.9516    5.7880 C   0  0  0  0  0  0  0  0  0  0  0  0
   11.9351   25.5019    5.3799 O   0  0  0  0  0  0  0  0  0  0  0  0
    9.6855   24.5030    7.3548 H   0  0  0  0  0  0  0  0  0  0  0  0
    9.7522   24.6035    4.8296 C   0  0  0  0  0  0  0  0  0  0  0  0
   10.0961   23.4813    3.8515 C   0  0  0  0  0  0  0  0  0  0  0  0
   10.8783   24.0467    2.6588 C   0  0  0  0  0  0  0  0  0  0  0  0
    8.8047   22.8463    3.3486 C   0  0  0  0  0  0  0  0  0  0  0  0
   10.9513   22.4279    4.5406 C   0  0  0  0  0  0  0  0  0  0  0  0
    9.3340   25.7956    4.0785 N   0  0  0  0  0  0  0  0  0  0  0  0
    8.0832   26.2419    4.1741 C   0  0  0  0  0  0  0  0  0  0  0  0
    7.2535   25.5930    4.8164 O   0  0  0  0  0  0  0  0  0  0  0  0
    9.9803   26.2653    3.5033 H   0  0  0  0  0  0  0  0  0  0  0  0
    7.7334   27.3804    3.5123 O   0  0  0  0  0  0  0  0  0  0  0  0
    7.9623   27.2668    2.1056 C   0  0  0  0  0  0  0  0  0  0  0  0
   10.5901   26.2450    8.8274 C   0  0  0  0  0  0  0  0  0  0  0  0
    9.2807   26.4939    8.4182 C   0  0  0  0  0  0  0  0  0  0  0  0
    8.2760   25.6026    8.7675 C   0  0  0  0  0  0  0  0  0  0  0  0
    6.9467   25.8939    8.4839 C   0  0  0  0  0  0  0  0  0  0  0  0
    8.9451   27.7031    7.8249 C   0  0  0  0  0  0  0  0  0  0  0  0
    7.6218   27.9670    7.4817 C   0  0  0  0  0  0  0  0  0  0  0  0
    6.6211   27.0513    7.7859 C   0  0  0  0  0  0  0  0  0  0  0  0
    4.9330   28.5279    6.8848 C   0  0  0  0  0  0  0  0  0  0  0  0
    5.3343   27.2601    7.2900 C   0  0  0  0  0  0  0  0  0  0  0  0
    4.4488   26.1908    7.1919 C   0  0  0  0  0  0  0  0  0  0  0  0
    3.1506   26.3915    6.7359 C   0  0  0  0  0  0  0  0  0  0  0  0
    2.7249   27.6782    6.3932 N   0  0  0  0  0  0  0  0  0  0  0  0
    3.6216   28.7499    6.4777 C   0  0  0  0  0  0  0  0  0  0  0  0
  4  5  1  0  0  0
  4 10  2  0  0  0
  5  6  2  0  0  0
  6  7  1  0  0  0
  6  8  1  0  0  0
  7 22  1  0  0  0
  8  9  2  0  0  0
  9 10  1  0  0  0
 10 11  1  0  0  0
 11 12  1  0  0  0
 12 13  2  0  0  0
 13 14  1  0  0  0
 14 15  1  0  0  0
 15 16  1  0  0  0
 16 17  2  0  0  0
 16 18  1  0  0  0
 18 27  1  0  0  0
 18 19  1  0  0  0
 27 28  1  0  0  0
 27 29  1  0  0  0
 19 20  1  0  0  0
 20 21  2  0  0  0
 20 22  1  0  0  0
 22 23  1  0  0  0
 22  3  1  0  0  0
  3  2  1  0  0  0
  2  1  1  0  0  0
  1 30  1  0  0  0
 30 31  1  0  0  0
 30 46  1  0  0  0
 31 32  1  0  0  0
 32 33  2  0  0  0
 32 35  1  0  0  0
 35 36  1  0  0  0
 35 40  1  0  0  0
 36 37  1  0  0  0
 36 38  1  0  0  0
 36 39  1  0  0  0
 40 41  1  0  0  0
 41 42  2  0  0  0
 41 44  1  0  0  0
 44 45  1  0  0  0
 46 47  1  0  0  0
 47 48  1  0  0  0
 47 50  2  0  0  0
 48 49  2  0  0  0
 49 52  1  0  0  0
 50 51  1  0  0  0
 51 52  2  0  0  0
 52 53  1  0  0  0
 53 54  1  0  0  0
 53 58  2  0  0  0
 54 55  2  0  0  0
 55 56  1  0  0  0
 56 57  2  0  0  0
 57 58  1  0  0  0
 15 24  1  0  0  0
 19 25  1  0  0  0
 23 26  1  0  0  0
 31 34  1  0  0  0
 40 43  1  0  0  0
M  END
> <minimizedAffinity>
-11.86410

$$$$
4CPS_1T8_B_1202


 58 61  0  0  0  0  0  0  0  0999 V2000
   14.4243   20.4057    6.2077 C   0  0  0  0  0  0  0  0  0  0  0  0
   13.6511   21.2743    5.2129 C   0  0  0  0  0  0  0  0  0  0  0  0
   13.5597   22.7048    5.7570 C   0  0  0  0  0  0  0  0  0  0  0  0
    8.4616   23.0261    2.9129 C   0  0  0  0  0  0  0  0  0  0  0  0
    9.6484   22.4940    3.4070 C   0  0  0  0  0  0  0  0  0  0  0  0
   10.8466   23.1853    3.2520 C   0  0  0  0  0  0  0  0  0  0  0  0
   12.0293   22.6804    3.7964 C   0  0  0  0  0  0  0  0  0  0  0  0
   10.8667   24.3558    2.5094 C   0  0  0  0  0  0  0  0  0  0  0  0
    9.6768   24.8951    2.0317 C   0  0  0  0  0  0  0  0  0  0  0  0
    8.4754   24.2118    2.1838 C   0  0  0  0  0  0  0  0  0  0  0  0
    7.2924   24.7865    1.7005 C   0  0  0  0  0  0  0  0  0  0  0  0
    6.2007   24.4949    2.5239 C   0  0  0  0  0  0  0  0  0  0  0  0
    5.8270   25.3289    3.5817 C   0  0  0  0  0  0  0  0  0  0  0  0
    6.7135   26.2455    4.1587 C   0  0  0  0  0  0  0  0  0  0  0  0
    7.4944   25.5730    5.2235 N   0  0  0  0  0  0  0  0  0  0  0  0
    8.6867   26.1352    5.6867 C   0  0  0  0  0  0  0  0  0  0  0  0
    9.0446   27.2006    5.1691 O   0  0  0  0  0  0  0  0  0  0  0  0
    9.5230   25.3495    6.5192 C   0  0  0  0  0  0  0  0  0  0  0  0
   10.8309   25.0715    5.8618 N   0  0  0  0  0  0  0  0  0  0  0  0
   11.3797   23.7843    5.8594 C   0  0  0  0  0  0  0  0  0  0  0  0
   10.8269   22.8996    6.5269 O   0  0  0  0  0  0  0  0  0  0  0  0
   12.4777   23.5041    5.0186 C   0  0  0  0  0  0  0  0  0  0  0  0
   13.0661   24.7332    4.5605 O   0  0  0  0  0  0  0  0  0  0  0  0
    7.1714   24.7255    5.6066 H   0  0  0  0  0  0  0  0  0  0  0  0
   11.3171   25.8058    5.4217 H   0  0  0  0  0  0  0  0  0  0  0  0
   12.3981   25.2557    4.0897 H   0  0  0  0  0  0  0  0  0  0  0  0
    9.6894   25.9794    7.9225 C   0  0  0  0  0  0  0  0  0  0  0  0
    8.5044   25.6077    8.8222 C   0  0  0  0  0  0  0  0  0  0  0  0
   10.9953   25.5332    8.5852 C   0  0  0  0  0  0  0  0  0  0  0  0
   15.8654   20.6638    6.1460 N   0  0  0  0  0  0  0  0  0  0  0  0
   16.4163   19.9770    6.9548 N   0  0  0  0  0  0  0  0  0  0  0  0
   16.8833   20.5478    8.0868 C   0  0  0  0  0  0  0  0  0  0  0  0
   16.8475   21.7628    8.3106 O   0  0  0  0  0  0  0  0  0  0  0  0
   16.5279   19.0114    6.7985 H   0  0  0  0  0  0  0  0  0  0  0  0
   17.7944   19.6115    8.9025 C   0  0  0  0  0  0  0  0  0  0  0  0
   17.0401   18.7984    9.9532 C   0  0  0  0  0  0  0  0  0  0  0  0
   17.5786   19.1222   11.3529 C   0  0  0  0  0  0  0  0  0  0  0  0
   17.2389   17.3136    9.6707 C   0  0  0  0  0  0  0  0  0  0  0  0
   15.5564   19.1343    9.9115 C   0  0  0  0  0  0  0  0  0  0  0  0
   18.8646   20.3795    9.5543 N   0  0  0  0  0  0  0  0  0  0  0  0
   20.0640   20.4728    8.9837 C   0  0  0  0  0  0  0  0  0  0  0  0
   20.3009   19.8299    7.9577 O   0  0  0  0  0  0  0  0  0  0  0  0
   18.6943   20.8262   10.4149 H   0  0  0  0  0  0  0  0  0  0  0  0
   21.0235   21.2356    9.5787 O   0  0  0  0  0  0  0  0  0  0  0  0
   21.0574   21.0350   10.9940 C   0  0  0  0  0  0  0  0  0  0  0  0
   16.3188   20.3377    4.7869 C   0  0  0  0  0  0  0  0  0  0  0  0
   16.9414   19.0917    4.7232 C   0  0  0  0  0  0  0  0  0  0  0  0
   16.3133   18.0491    4.0567 C   0  0  0  0  0  0  0  0  0  0  0  0
   16.9691   16.8380    3.8679 C   0  0  0  0  0  0  0  0  0  0  0  0
   18.2495   18.9339    5.1597 C   0  0  0  0  0  0  0  0  0  0  0  0
   18.8834   17.7011    5.0291 C   0  0  0  0  0  0  0  0  0  0  0  0
   18.2355   16.6404    4.4066 C   0  0  0  0  0  0  0  0  0  0  0  0
   20.1850   15.2360    4.6692 C   0  0  0  0  0  0  0  0  0  0  0  0
   19.0278   15.8026    5.1911 C   0  0  0  0  0  0  0  0  0  0  0  0
   18.6625   15.5387    6.5080 C   0  0  0  0  0  0  0  0  0  0  0  0
   19.4217   14.6747    7.2894 C   0  0  0  0  0  0  0  0  0  0  0  0
   20.5474   14.0508    6.7436 N   0  0  0  0  0  0  0  0  0  0  0  0
   20.9221   14.3295    5.4240 C   0  0  0  0  0  0  0  0  0  0  0  0
  4  5  1  0  0  0
  4 10  2  0  0  0
  5  6  2  0  0  0
  6  7  1  0  0  0
  6  8  1  0  0  0
  7 22  1  0  0  0
  8  9  2  0  0  0
  9 10  1  0  0  0
 10 11  1  0  0  0
 11 12  1  0  0  0
 12 13  2  0  0  0
 13 14  1  0  0  0
 14 15  1  0  0  0
 15 16  1  0  0  0
 16 17  2  0  0  0
 16 18  1  0  0  0
 18 27  1  0  0  0
 18 19  1  0  0  0
 27 28  1  0  0  0
 27 29  1  0  0  0
 19 20  1  0  0  0
 20 21  2  0  0  0
 20 22  1  0  0  0
 22 23  1  0  0  0
 22  3  1  0  0  0
  3  2  1  0  0  0
  2  1  1  0  0  0
  1 30  1  0  0  0
 30 31  1  0  0  0
 30 46  1  0  0  0
 31 32  1  0  0  0
 32 33  2  0  0  0
 32 35  1  0  0  0
 35 36  1  0  0  0
 35 40  1  0  0  0
 36 37  1  0  0  0
 36 38  1  0  0  0
 36 39  1  0  0  0
 40 41  1  0  0  0
 41 42  2  0  0  0
 41 44  1  0  0  0
 44 45  1  0  0  0
 46 47  1  0  0  0
 47 48  1  0  0  0
 47 50  2  0  0  0
 48 49  2  0  0  0
 49 52  1  0  0  0
 50 51  1  0  0  0
 51 52  2  0  0  0
 52 53  1  0  0  0
 53 54  1  0  0  0
 53 58  2  0  0  0
 54 55  2  0  0  0
 55 56  1  0  0  0
 56 57  2  0  0  0
 57 58  1  0  0  0
 15 24  1  0  0  0
 19 25  1  0  0  0
 23 26  1  0  0  0
 31 34  1  0  0  0
 40 43  1  0  0  0
M  END
> <minimizedAffinity>
-11.45089

$$$$
4CPS_1T8_B_1202


 58 61  0  0  0  0  0  0  0  0999 V2000
   15.0191   22.9553    6.0574 C   0  0  0  0  0  0  0  0  0  0  0  0
   14.0143   23.6889    5.1662 C   0  0  0  0  0  0  0  0  0  0  0  0
   12.7054   22.8920    5.1199 C   0  0  0  0  0  0  0  0  0  0  0  0
    7.2399   23.4554    3.1214 C   0  0  0  0  0  0  0  0  0  0  0  0
    8.4523   22.8594    3.4538 C   0  0  0  0  0  0  0  0  0  0  0  0
    9.6532   23.4417    3.0585 C   0  0  0  0  0  0  0  0  0  0  0  0
   10.8719   22.8760    3.4391 C   0  0  0  0  0  0  0  0  0  0  0  0
    9.6310   24.5613    2.2412 C   0  0  0  0  0  0  0  0  0  0  0  0
    8.4187   25.1656    1.9249 C   0  0  0  0  0  0  0  0  0  0  0  0
    7.2147   24.5914    2.3174 C   0  0  0  0  0  0  0  0  0  0  0  0
    6.0108   25.2301    1.9920 C   0  0  0  0  0  0  0  0  0  0  0  0
    5.0538   25.0761    2.9995 C   0  0  0  0  0  0  0  0  0  0  0  0
    4.9205   25.9980    4.0419 C   0  0  0  0  0  0  0  0  0  0  0  0
    5.9524   26.8725    4.4015 C   0  0  0  0  0  0  0  0  0  0  0  0
    6.8509   26.2028    5.3712 N   0  0  0  0  0  0  0  0  0  0  0  0
    8.1400   26.6934    5.5945 C   0  0  0  0  0  0  0  0  0  0  0  0
    8.4801   27.6945    4.9515 O   0  0  0  0  0  0  0  0  0  0  0  0
    9.0463   25.8931    6.3346 C   0  0  0  0  0  0  0  0  0  0  0  0
   10.2039   25.4727    5.4959 N   0  0  0  0  0  0  0  0  0  0  0  0
   10.6535   24.1476    5.4963 C   0  0  0  0  0  0  0  0  0  0  0  0
   10.1592   23.3509    6.3054 O   0  0  0  0  0  0  0  0  0  0  0  0
   11.5739   23.7312    4.5112 C   0  0  0  0  0  0  0  0  0  0  0  0
   12.1621   24.8799    3.8779 O   0  0  0  0  0  0  0  0  0  0  0  0
    6.5379   25.4080    5.8606 H   0  0  0  0  0  0  0  0  0  0  0  0
   10.6601   26.1384    4.9320 H   0  0  0  0  0  0  0  0  0  0  0  0
   11.4631   25.4260    3.4853 H   0  0  0  0  0  0  0  0  0  0  0  0
    9.4875   26.5887    7.6442 C   0  0  0  0  0  0  0  0  0  0  0  0
    8.4911   27.6887    8.0305 C   0  0  0  0  0  0  0  0  0  0  0  0
    9.6156   25.5868    8.7946 C   0  0  0  0  0  0  0  0  0  0  0  0
   14.6868   21.5345    6.1924 N   0  0  0  0  0  0  0  0  0  0  0  0
   15.5213   20.8871    5.6321 N   0  0  0  0  0  0  0  0  0  0  0  0
   15.1748   20.1893    4.5284 C   0  0  0  0  0  0  0  0  0  0  0  0
   14.0189   20.1121    4.0974 O   0  0  0  0  0  0  0  0  0  0  0  0
   16.4459   20.8630    5.9696 H   0  0  0  0  0  0  0  0  0  0  0  0
   16.2653   19.2019    4.0724 C   0  0  0  0  0  0  0  0  0  0  0  0
   15.7687   18.1839    3.0471 C   0  0  0  0  0  0  0  0  0  0  0  0
   16.9241   17.2745    2.6091 C   0  0  0  0  0  0  0  0  0  0  0  0
   15.2262   18.9262    1.8312 C   0  0  0  0  0  0  0  0  0  0  0  0
   14.6714   17.3210    3.6530 C   0  0  0  0  0  0  0  0  0  0  0  0
   16.8307   18.4942    5.2298 N   0  0  0  0  0  0  0  0  0  0  0  0
   18.0697   18.7613    5.6376 C   0  0  0  0  0  0  0  0  0  0  0  0
   18.7736   19.5315    4.9793 O   0  0  0  0  0  0  0  0  0  0  0  0
   16.2919   17.8209    5.7048 H   0  0  0  0  0  0  0  0  0  0  0  0
   18.5525   18.1330    6.7460 O   0  0  0  0  0  0  0  0  0  0  0  0
   18.8664   16.7630    6.4837 C   0  0  0  0  0  0  0  0  0  0  0  0
   14.6552   21.2184    7.6269 C   0  0  0  0  0  0  0  0  0  0  0  0
   15.9105   20.8588    8.1157 C   0  0  0  0  0  0  0  0  0  0  0  0
   17.0049   21.6682    7.8453 C   0  0  0  0  0  0  0  0  0  0  0  0
   18.2385   21.4016    8.4280 C   0  0  0  0  0  0  0  0  0  0  0  0
   16.0438   19.8067    9.0112 C   0  0  0  0  0  0  0  0  0  0  0  0
   17.2928   19.4997    9.5444 C   0  0  0  0  0  0  0  0  0  0  0  0
   18.4004   20.2801    9.2335 C   0  0  0  0  0  0  0  0  0  0  0  0
   19.8008   18.9533   10.6896 C   0  0  0  0  0  0  0  0  0  0  0  0
   19.5177   20.1597   10.0595 C   0  0  0  0  0  0  0  0  0  0  0  0
   20.3599   21.2518   10.2476 C   0  0  0  0  0  0  0  0  0  0  0  0
   21.4554   21.1575   11.0988 C   0  0  0  0  0  0  0  0  0  0  0  0
   21.7016   19.9654   11.7861 N   0  0  0  0  0  0  0  0  0  0  0  0
   20.8626   18.8632   11.5837 C   0  0  0  0  0  0  0  0  0  0  0  0
  4  5  1  0  0  0
  4 10  2  0  0  0
  5  6  2  0  0  0
  6  7  1  0  0  0
  6  8  1  0  0  0
  7 22  1  0  0  0
  8  9  2  0  0  0
  9 10  1  0  0  0
 10 11  1  0  0  0
 11 12  1  0  0  0
 12 13  2  0  0  0
 13 14  1  0  0  0
 14 15  1  0  0  0
 15 16  1  0  0  0
 16 17  2  0  0  0
 16 18  1  0  0  0
 18 27  1  0  0  0
 18 19  1  0  0  0
 27 28  1  0  0  0
 27 29  1  0  0  0
 19 20  1  0  0  0
 20 21  2  0  0  0
 20 22  1  0  0  0
 22 23  1  0  0  0
 22  3  1  0  0  0
  3  2  1  0  0  0
  2  1  1  0  0  0
  1 30  1  0  0  0
 30 31  1  0  0  0
 30 46  1  0  0  0
 31 32  1  0  0  0
 32 33  2  0  0  0
 32 35  1  0  0  0
 35 36  1  0  0  0
 35 40  1  0  0  0
 36 37  1  0  0  0
 36 38  1  0  0  0
 36 39  1  0  0  0
 40 41  1  0  0  0
 41 42  2  0  0  0
 41 44  1  0  0  0
 44 45  1  0  0  0
 46 47  1  0  0  0
 47 48  1  0  0  0
 47 50  2  0  0  0
 48 49  2  0  0  0
 49 52  1  0  0  0
 50 51  1  0  0  0
 51 52  2  0  0  0
 52 53  1  0  0  0
 53 54  1  0  0  0
 53 58  2  0  0  0
 54 55  2  0  0  0
 55 56  1  0  0  0
 56 57  2  0  0  0
 57 58  1  0  0  0
 15 24  1  0  0  0
 19 25  1  0  0  0
 23 26  1  0  0  0
 31 34  1  0  0  0
 40 43  1  0  0  0
M  END
> <minimizedAffinity>
-11.06268

$$$$
4CPS_1T8_B_1202


 58 61  0  0  0  0  0  0  0  0999 V2000
   17.9807   19.9848    7.8372 C   0  0  0  0  0  0  0  0  0  0  0  0
   16.5637   19.9126    8.4107 C   0  0  0  0  0  0  0  0  0  0  0  0
   16.0996   21.3243    8.7878 C   0  0  0  0  0  0  0  0  0  0  0  0
   11.9393   21.1702    4.6828 C   0  0  0  0  0  0  0  0  0  0  0  0
   12.9062   20.7227    5.5775 C   0  0  0  0  0  0  0  0  0  0  0  0
   14.1654   21.3153    5.6057 C   0  0  0  0  0  0  0  0  0  0  0  0
   15.1183   20.9060    6.5408 C   0  0  0  0  0  0  0  0  0  0  0  0
   14.4846   22.2821    4.6647 C   0  0  0  0  0  0  0  0  0  0  0  0
   13.5112   22.7404    3.7830 C   0  0  0  0  0  0  0  0  0  0  0  0
   12.2503   22.1551    3.7497 C   0  0  0  0  0  0  0  0  0  0  0  0
   11.2884   22.6462    2.8571 C   0  0  0  0  0  0  0  0  0  0  0  0
   10.0016   22.5922    3.4009 C   0  0  0  0  0  0  0  0  0  0  0  0
    9.4550   23.6603    4.1183 C   0  0  0  0  0  0  0  0  0  0  0  0
   10.2510   24.6518    4.7032 C   0  0  0  0  0  0  0  0  0  0  0  0
   10.6697   24.2139    6.0556 N   0  0  0  0  0  0  0  0  0  0  0  0
   11.7549   24.8234    6.6906 C   0  0  0  0  0  0  0  0  0  0  0  0
   12.3324   25.7274    6.0737 O   0  0  0  0  0  0  0  0  0  0  0  0
   12.2746   24.2200    7.8634 C   0  0  0  0  0  0  0  0  0  0  0  0
   13.6731   23.7504    7.6543 N   0  0  0  0  0  0  0  0  0  0  0  0
   14.0784   22.4779    8.0719 C   0  0  0  0  0  0  0  0  0  0  0  0
   13.2928   21.7913    8.7392 O   0  0  0  0  0  0  0  0  0  0  0  0
   15.3208   21.9716    7.6348 C   0  0  0  0  0  0  0  0  0  0  0  0
   16.1210   23.0399    7.1008 O   0  0  0  0  0  0  0  0  0  0  0  0
   10.1806   23.4898    6.5091 H   0  0  0  0  0  0  0  0  0  0  0  0
   14.3228   24.3454    7.2149 H   0  0  0  0  0  0  0  0  0  0  0  0
   15.6468   23.4643    6.3687 H   0  0  0  0  0  0  0  0  0  0  0  0
   12.1412   25.1492    9.0932 C   0  0  0  0  0  0  0  0  0  0  0  0
   10.7649   25.8256    9.1090 C   0  0  0  0  0  0  0  0  0  0  0  0
   12.3490   24.3806   10.4008 C   0  0  0  0  0  0  0  0  0  0  0  0
   18.8742   19.0162    8.4780 N   0  0  0  0  0  0  0  0  0  0  0  0
   18.2237   18.0976    8.8809 N   0  0  0  0  0  0  0  0  0  0  0  0
   18.7275   17.3232    9.8668 C   0  0  0  0  0  0  0  0  0  0  0  0
   19.8644   17.4556   10.3332 O   0  0  0  0  0  0  0  0  0  0  0  0
   17.3356   17.9085    8.5005 H   0  0  0  0  0  0  0  0  0  0  0  0
   17.9138   16.0361   10.0977 C   0  0  0  0  0  0  0  0  0  0  0  0
   17.1212   16.0480   11.4038 C   0  0  0  0  0  0  0  0  0  0  0  0
   15.6249   15.8778   11.1106 C   0  0  0  0  0  0  0  0  0  0  0  0
   17.3455   17.3802   12.1100 C   0  0  0  0  0  0  0  0  0  0  0  0
   17.5749   14.9076   12.3035 C   0  0  0  0  0  0  0  0  0  0  0  0
   18.7968   14.8614   10.0722 N   0  0  0  0  0  0  0  0  0  0  0  0
   18.8467   14.0852    8.9917 C   0  0  0  0  0  0  0  0  0  0  0  0
   18.0757   14.2997    8.0528 O   0  0  0  0  0  0  0  0  0  0  0  0
   19.3527   14.6480   10.8562 H   0  0  0  0  0  0  0  0  0  0  0  0
   19.7133   13.0340    8.9703 O   0  0  0  0  0  0  0  0  0  0  0  0
   19.5267   12.2173    7.8116 C   0  0  0  0  0  0  0  0  0  0  0  0
   19.8433   18.5680    7.4686 C   0  0  0  0  0  0  0  0  0  0  0  0
   19.2247   18.1625    6.2867 C   0  0  0  0  0  0  0  0  0  0  0  0
   18.9050   16.8238    6.1091 C   0  0  0  0  0  0  0  0  0  0  0  0
   18.1735   16.4161    4.9995 C   0  0  0  0  0  0  0  0  0  0  0  0
   18.7675   19.1011    5.3721 C   0  0  0  0  0  0  0  0  0  0  0  0
   18.0913   18.6867    4.2277 C   0  0  0  0  0  0  0  0  0  0  0  0
   17.8153   17.3396    4.0239 C   0  0  0  0  0  0  0  0  0  0  0  0
   16.6412   17.8436    1.9722 C   0  0  0  0  0  0  0  0  0  0  0  0
   16.6410   17.6798    3.3527 C   0  0  0  0  0  0  0  0  0  0  0  0
   15.4592   17.8482    4.0684 C   0  0  0  0  0  0  0  0  0  0  0  0
   14.2898   18.2254    3.4174 C   0  0  0  0  0  0  0  0  0  0  0  0
   14.3048   18.4571    2.0388 N   0  0  0  0  0  0  0  0  0  0  0  0
   15.4907   18.2721    1.3183 C   0  0  0  0  0  0  0  0  0  0  0  0
  4  5  1  0  0  0
  4 10  2  0  0  0
  5  6  2  0  0  0
  6  7  1  0  0  0
  6  8  1  0  0  0
  7 22  1  0  0  0
  8  9  2  0  0  0
  9 10  1  0  0  0
 10 11  1  0  0  0
 11 12  1  0  0  0
 12 13  2  0  0  0
 13 14  1  0  0  0
 14 15  1  0  0  0
 15 16  1  0  0  0
 16 17  2  0  0  0
 16 18  1  0  0  0
 18 27  1  0  0  0
 18 19  1  0  0  0
 27 28  1  0  0  0
 27 29  1  0  0  0
 19 20  1  0  0  0
 20 21  2  0  0  0
 20 22  1  0  0  0
 22 23  1  0  0  0
 22  3  1  0  0  0
  3  2  1  0  0  0
  2  1  1  0  0  0
  1 30  1  0  0  0
 30 31  1  0  0  0
 30 46  1  0  0  0
 31 32  1  0  0  0
 32 33  2  0  0  0
 32 35  1  0  0  0
 35 36  1  0  0  0
 35 40  1  0  0  0
 36 37  1  0  0  0
 36 38  1  0  0  0
 36 39  1  0  0  0
 40 41  1  0  0  0
 41 42  2  0  0  0
 41 44  1  0  0  0
 44 45  1  0  0  0
 46 47  1  0  0  0
 47 48  1  0  0  0
 47 50  2  0  0  0
 48 49  2  0  0  0
 49 52  1  0  0  0
 50 51  1  0  0  0
 51 52  2  0  0  0
 52 53  1  0  0  0
 53 54  1  0  0  0
 53 58  2  0  0  0
 54 55  2  0  0  0
 55 56  1  0  0  0
 56 57  2  0  0  0
 57 58  1  0  0  0
 15 24  1  0  0  0
 19 25  1  0  0  0
 23 26  1  0  0  0
 31 34  1  0  0  0
 40 43  1  0  0  0
M  END
> <minimizedAffinity>
-10.91342

$$$$
4CPS_1T8_B_1202


 58 61  0  0  0  0  0  0  0  0999 V2000
   14.6923   23.5549    8.0406 C   0  0  0  0  0  0  0  0  0  0  0  0
   15.0082   22.0708    8.2401 C   0  0  0  0  0  0  0  0  0  0  0  0
   16.4729   21.8124    7.8682 C   0  0  0  0  0  0  0  0  0  0  0  0
   19.4138   17.7093    4.9188 C   0  0  0  0  0  0  0  0  0  0  0  0
   18.9079   18.9593    5.2612 C   0  0  0  0  0  0  0  0  0  0  0  0
   17.5525   19.1175    5.5360 C   0  0  0  0  0  0  0  0  0  0  0  0
   17.0525   20.3589    5.9347 C   0  0  0  0  0  0  0  0  0  0  0  0
   16.6924   18.0441    5.3628 C   0  0  0  0  0  0  0  0  0  0  0  0
   17.2025   16.7915    5.0378 C   0  0  0  0  0  0  0  0  0  0  0  0
   18.5554   16.6245    4.7636 C   0  0  0  0  0  0  0  0  0  0  0  0
   19.0401   15.3480    4.4493 C   0  0  0  0  0  0  0  0  0  0  0  0
   20.3268   15.1431    4.9561 C   0  0  0  0  0  0  0  0  0  0  0  0
   20.5454   14.5930    6.2226 C   0  0  0  0  0  0  0  0  0  0  0  0
   19.5634   14.6019    7.2198 C   0  0  0  0  0  0  0  0  0  0  0  0
   19.6396   15.8744    7.9755 N   0  0  0  0  0  0  0  0  0  0  0  0
   18.5589   16.3001    8.7522 C   0  0  0  0  0  0  0  0  0  0  0  0
   17.5589   15.5715    8.7719 O   0  0  0  0  0  0  0  0  0  0  0  0
   18.5724   17.6249    9.2565 C   0  0  0  0  0  0  0  0  0  0  0  0
   17.4604   18.4326    8.6811 N   0  0  0  0  0  0  0  0  0  0  0  0
   17.6833   19.7247    8.1923 C   0  0  0  0  0  0  0  0  0  0  0  0
   18.7948   20.2432    8.3638 O   0  0  0  0  0  0  0  0  0  0  0  0
   16.6784   20.3564    7.4292 C   0  0  0  0  0  0  0  0  0  0  0  0
   15.4314   19.6606    7.5953 O   0  0  0  0  0  0  0  0  0  0  0  0
   20.4559   16.4228    7.9301 H   0  0  0  0  0  0  0  0  0  0  0  0
   16.5537   18.0509    8.6441 H   0  0  0  0  0  0  0  0  0  0  0  0
   15.5385   18.7357    7.3230 H   0  0  0  0  0  0  0  0  0  0  0  0
   18.5810   17.6492   10.8034 C   0  0  0  0  0  0  0  0  0  0  0  0
   19.5741   18.6980   11.3189 C   0  0  0  0  0  0  0  0  0  0  0  0
   17.1880   17.9427   11.3665 C   0  0  0  0  0  0  0  0  0  0  0  0
   13.3470   23.7535    7.4948 N   0  0  0  0  0  0  0  0  0  0  0  0
   13.1864   23.0021    6.5788 N   0  0  0  0  0  0  0  0  0  0  0  0
   13.1282   23.5031    5.3255 C   0  0  0  0  0  0  0  0  0  0  0  0
   13.1526   24.7111    5.0652 O   0  0  0  0  0  0  0  0  0  0  0  0
   13.0980   22.0341    6.7354 H   0  0  0  0  0  0  0  0  0  0  0  0
   12.6552   22.4708    4.2850 C   0  0  0  0  0  0  0  0  0  0  0  0
   13.7580   21.5111    3.8409 C   0  0  0  0  0  0  0  0  0  0  0  0
   13.6096   20.1689    4.5691 C   0  0  0  0  0  0  0  0  0  0  0  0
   15.1138   22.1191    4.1813 C   0  0  0  0  0  0  0  0  0  0  0  0
   13.6678   21.2655    2.3418 C   0  0  0  0  0  0  0  0  0  0  0  0
   12.0954   23.1504    3.1082 N   0  0  0  0  0  0  0  0  0  0  0  0
   10.7792   23.3157    2.9942 C   0  0  0  0  0  0  0  0  0  0  0  0
   10.0279   22.8083    3.8309 O   0  0  0  0  0  0  0  0  0  0  0  0
   12.6951   23.4843    2.4024 H   0  0  0  0  0  0  0  0  0  0  0  0
   10.2872   23.9973    1.9219 O   0  0  0  0  0  0  0  0  0  0  0  0
    8.9351   24.4117    2.1325 C   0  0  0  0  0  0  0  0  0  0  0  0
   12.3846   23.4800    8.5708 C   0  0  0  0  0  0  0  0  0  0  0  0
   11.3599   24.4245    8.6148 C   0  0  0  0  0  0  0  0  0  0  0  0
   11.6399   25.7148    9.0421 C   0  0  0  0  0  0  0  0  0  0  0  0
   10.6677   26.7059    8.9720 C   0  0  0  0  0  0  0  0  0  0  0  0
   10.1148   24.1401    8.0711 C   0  0  0  0  0  0  0  0  0  0  0  0
    9.1203   25.1145    8.0605 C   0  0  0  0  0  0  0  0  0  0  0  0
    9.3851   26.3937    8.5358 C   0  0  0  0  0  0  0  0  0  0  0  0
    7.1543   27.1205    7.9551 C   0  0  0  0  0  0  0  0  0  0  0  0
    8.4495   26.7846    7.5781 C   0  0  0  0  0  0  0  0  0  0  0  0
    8.8170   26.8472    6.2371 C   0  0  0  0  0  0  0  0  0  0  0  0
    7.8843   27.1976    5.2672 C   0  0  0  0  0  0  0  0  0  0  0  0
    6.5639   27.4689    5.6379 N   0  0  0  0  0  0  0  0  0  0  0  0
    6.1999   27.4207    6.9887 C   0  0  0  0  0  0  0  0  0  0  0  0
  4  5  1  0  0  0
  4 10  2  0  0  0
  5  6  2  0  0  0
  6  7  1  0  0  0
  6  8  1  0  0  0
  7 22  1  0  0  0
  8  9  2  0  0  0
  9 10  1  0  0  0
 10 11  1  0  0  0
 11 12  1  0  0  0
 12 13  2  0  0  0
 13 14  1  0  0  0
 14 15  1  0  0  0
 15 16  1  0  0  0
 16 17  2  0  0  0
 16 18  1  0  0  0
 18 27  1  0  0  0
 18 19  1  0  0  0
 27 28  1  0  0  0
 27 29  1  0  0  0
 19 20  1  0  0  0
 20 21  2  0  0  0
 20 22  1  0  0  0
 22 23  1  0  0  0
 22  3  1  0  0  0
  3  2  1  0  0  0
  2  1  1  0  0  0
  1 30  1  0  0  0
 30 31  1  0  0  0
 30 46  1  0  0  0
 31 32  1  0  0  0
 32 33  2  0  0  0
 32 35  1  0  0  0
 35 36  1  0  0  0
 35 40  1  0  0  0
 36 37  1  0  0  0
 36 38  1  0  0  0
 36 39  1  0  0  0
 40 41  1  0  0  0
 41 42  2  0  0  0
 41 44  1  0  0  0
 44 45  1  0  0  0
 46 47  1  0  0  0
 47 48  1  0  0  0
 47 50  2  0  0  0
 48 49  2  0  0  0
 49 52  1  0  0  0
 50 51  1  0  0  0
 51 52  2  0  0  0
 52 53  1  0  0  0
 53 54  1  0  0  0
 53 58  2  0  0  0
 54 55  2  0  0  0
 55 56  1  0  0  0
 56 57  2  0  0  0
 57 58  1  0  0  0
 15 24  1  0  0  0
 19 25  1  0  0  0
 23 26  1  0  0  0
 31 34  1  0  0  0
 40 43  1  0  0  0
M  END
> <minimizedAffinity>
-10.78350

$$$$
4CPS_1T8_B_1202


 58 61  0  0  0  0  0  0  0  0999 V2000
   16.5844   22.0218    8.0974 C   0  0  0  0  0  0  0  0  0  0  0  0
   17.6402   20.9182    8.0017 C   0  0  0  0  0  0  0  0  0  0  0  0
   18.3437   20.7744    9.3563 C   0  0  0  0  0  0  0  0  0  0  0  0
   19.9579   15.2039    8.6166 C   0  0  0  0  0  0  0  0  0  0  0  0
   19.6185   16.5162    8.3032 C   0  0  0  0  0  0  0  0  0  0  0  0
   18.4659   17.0895    8.8329 C   0  0  0  0  0  0  0  0  0  0  0  0
   18.1532   18.4239    8.5652 C   0  0  0  0  0  0  0  0  0  0  0  0
   17.6032   16.3109    9.5887 C   0  0  0  0  0  0  0  0  0  0  0  0
   17.9531   15.0049    9.9155 C   0  0  0  0  0  0  0  0  0  0  0  0
   19.1035   14.4253    9.3921 C   0  0  0  0  0  0  0  0  0  0  0  0
   19.4338   13.1111    9.7485 C   0  0  0  0  0  0  0  0  0  0  0  0
   20.8166   12.9356    9.8566 C   0  0  0  0  0  0  0  0  0  0  0  0
   21.4949   13.1216   11.0648 C   0  0  0  0  0  0  0  0  0  0  0  0
   20.9598   13.8805   12.1120 C   0  0  0  0  0  0  0  0  0  0  0  0
   21.3151   15.3063   11.9194 N   0  0  0  0  0  0  0  0  0  0  0  0
   20.6059   16.3072   12.5883 C   0  0  0  0  0  0  0  0  0  0  0  0
   19.6862   15.9437   13.3321 O   0  0  0  0  0  0  0  0  0  0  0  0
   20.8088   17.6539   12.1948 C   0  0  0  0  0  0  0  0  0  0  0  0
   19.5625   18.2450   11.6313 N   0  0  0  0  0  0  0  0  0  0  0  0
   19.5860   18.9848   10.4438 C   0  0  0  0  0  0  0  0  0  0  0  0
   20.6807   19.2559    9.9322 O   0  0  0  0  0  0  0  0  0  0  0  0
   18.3683   19.3081    9.8083 C   0  0  0  0  0  0  0  0  0  0  0  0
   17.2748   19.1040   10.7190 O   0  0  0  0  0  0  0  0  0  0  0  0
   22.0549   15.5495   11.3170 H   0  0  0  0  0  0  0  0  0  0  0  0
   18.7082   18.1128   12.1024 H   0  0  0  0  0  0  0  0  0  0  0  0
   17.2712   18.1813   11.0182 H   0  0  0  0  0  0  0  0  0  0  0  0
   21.3982   18.5044   13.3450 C   0  0  0  0  0  0  0  0  0  0  0  0
   22.5095   19.4217   12.8200 C   0  0  0  0  0  0  0  0  0  0  0  0
   20.3184   19.3476   14.0281 C   0  0  0  0  0  0  0  0  0  0  0  0
   15.4873   21.8052    7.1504 N   0  0  0  0  0  0  0  0  0  0  0  0
   15.8054   20.9486    6.3794 N   0  0  0  0  0  0  0  0  0  0  0  0
   15.7132   21.1955    5.0543 C   0  0  0  0  0  0  0  0  0  0  0  0
   15.2421   22.2345    4.5788 O   0  0  0  0  0  0  0  0  0  0  0  0
   16.1292   20.0777    6.7048 H   0  0  0  0  0  0  0  0  0  0  0  0
   15.8951   19.9326    4.1918 C   0  0  0  0  0  0  0  0  0  0  0  0
   14.5735   19.3146    3.7383 C   0  0  0  0  0  0  0  0  0  0  0  0
   13.4244   19.8354    4.6113 C   0  0  0  0  0  0  0  0  0  0  0  0
   14.6600   17.7988    3.8752 C   0  0  0  0  0  0  0  0  0  0  0  0
   14.2913   19.6835    2.2892 C   0  0  0  0  0  0  0  0  0  0  0  0
   16.6817   18.9259    4.9185 N   0  0  0  0  0  0  0  0  0  0  0  0
   17.8016   18.4403    4.3868 C   0  0  0  0  0  0  0  0  0  0  0  0
   18.1211   18.7652    3.2403 O   0  0  0  0  0  0  0  0  0  0  0  0
   16.3797   18.6099    5.8006 H   0  0  0  0  0  0  0  0  0  0  0  0
   18.5431   17.5493    5.1028 O   0  0  0  0  0  0  0  0  0  0  0  0
   18.1228   16.2026    4.8702 C   0  0  0  0  0  0  0  0  0  0  0  0
   14.3048   21.4008    7.9231 C   0  0  0  0  0  0  0  0  0  0  0  0
   13.3166   22.3844    7.9287 C   0  0  0  0  0  0  0  0  0  0  0  0
   13.2437   23.2716    8.9933 C   0  0  0  0  0  0  0  0  0  0  0  0
   12.3532   24.3385    8.9607 C   0  0  0  0  0  0  0  0  0  0  0  0
   12.5266   22.5967    6.8073 C   0  0  0  0  0  0  0  0  0  0  0  0
   11.5889   23.6259    6.8006 C   0  0  0  0  0  0  0  0  0  0  0  0
   11.4801   24.4844    7.8886 C   0  0  0  0  0  0  0  0  0  0  0  0
    9.7699   25.7685    6.7625 C   0  0  0  0  0  0  0  0  0  0  0  0
   10.5940   25.5611    7.8627 C   0  0  0  0  0  0  0  0  0  0  0  0
   10.5280   26.4289    8.9489 C   0  0  0  0  0  0  0  0  0  0  0  0
    9.6774   27.5285    8.9205 C   0  0  0  0  0  0  0  0  0  0  0  0
    8.8985   27.7764    7.7864 N   0  0  0  0  0  0  0  0  0  0  0  0
    8.9547   26.8938    6.7012 C   0  0  0  0  0  0  0  0  0  0  0  0
  4  5  1  0  0  0
  4 10  2  0  0  0
  5  6  2  0  0  0
  6  7  1  0  0  0
  6  8  1  0  0  0
  7 22  1  0  0  0
  8  9  2  0  0  0
  9 10  1  0  0  0
 10 11  1  0  0  0
 11 12  1  0  0  0
 12 13  2  0  0  0
 13 14  1  0  0  0
 14 15  1  0  0  0
 15 16  1  0  0  0
 16 17  2  0  0  0
 16 18  1  0  0  0
 18 27  1  0  0  0
 18 19  1  0  0  0
 27 28  1  0  0  0
 27 29  1  0  0  0
 19 20  1  0  0  0
 20 21  2  0  0  0
 20 22  1  0  0  0
 22 23  1  0  0  0
 22  3  1  0  0  0
  3  2  1  0  0  0
  2  1  1  0  0  0
  1 30  1  0  0  0
 30 31  1  0  0  0
 30 46  1  0  0  0
 31 32  1  0  0  0
 32 33  2  0  0  0
 32 35  1  0  0  0
 35 36  1  0  0  0
 35 40  1  0  0  0
 36 37  1  0  0  0
 36 38  1  0  0  0
 36 39  1  0  0  0
 40 41  1  0  0  0
 41 42  2  0  0  0
 41 44  1  0  0  0
 44 45  1  0  0  0
 46 47  1  0  0  0
 47 48  1  0  0  0
 47 50  2  0  0  0
 48 49  2  0  0  0
 49 52  1  0  0  0
 50 51  1  0  0  0
 51 52  2  0  0  0
 52 53  1  0  0  0
 53 54  1  0  0  0
 53 58  2  0  0  0
 54 55  2  0  0  0
 55 56  1  0  0  0
 56 57  2  0  0  0
 57 58  1  0  0  0
 15 24  1  0  0  0
 19 25  1  0  0  0
 23 26  1  0  0  0
 31 34  1  0  0  0
 40 43  1  0  0  0
M  END
> <minimizedAffinity>
-10.76922

$$$$
4CPS_1T8_B_1202


 58 61  0  0  0  0  0  0  0  0999 V2000
   17.6960   20.8044    7.8682 C   0  0  0  0  0  0  0  0  0  0  0  0
   17.7304   19.7295    8.9570 C   0  0  0  0  0  0  0  0  0  0  0  0
   18.7902   18.6815    8.5977 C   0  0  0  0  0  0  0  0  0  0  0  0
   16.9280   15.1276   12.8504 C   0  0  0  0  0  0  0  0  0  0  0  0
   16.9235   16.1602   11.9180 C   0  0  0  0  0  0  0  0  0  0  0  0
   17.9930   17.0485   11.8481 C   0  0  0  0  0  0  0  0  0  0  0  0
   18.0167   18.0508   10.8761 C   0  0  0  0  0  0  0  0  0  0  0  0
   19.0126   16.9621   12.7834 C   0  0  0  0  0  0  0  0  0  0  0  0
   19.0241   15.9186   13.7031 C   0  0  0  0  0  0  0  0  0  0  0  0
   17.9606   15.0260   13.7783 C   0  0  0  0  0  0  0  0  0  0  0  0
   18.0069   13.9793   14.7087 C   0  0  0  0  0  0  0  0  0  0  0  0
   17.4084   12.8176   14.2118 C   0  0  0  0  0  0  0  0  0  0  0  0
   18.1383   11.8450   13.5222 C   0  0  0  0  0  0  0  0  0  0  0  0
   19.3680   12.1251   12.9154 C   0  0  0  0  0  0  0  0  0  0  0  0
   19.1360   12.6409   11.5457 N   0  0  0  0  0  0  0  0  0  0  0  0
   20.1414   13.3426   10.8758 C   0  0  0  0  0  0  0  0  0  0  0  0
   21.2105   13.5051   11.4774 O   0  0  0  0  0  0  0  0  0  0  0  0
   19.8038   14.0263    9.6807 C   0  0  0  0  0  0  0  0  0  0  0  0
   19.9720   15.4987    9.8355 N   0  0  0  0  0  0  0  0  0  0  0  0
   18.9867   16.3892    9.3947 C   0  0  0  0  0  0  0  0  0  0  0  0
   18.0261   15.9444    8.7518 O   0  0  0  0  0  0  0  0  0  0  0  0
   19.0578   17.7439    9.7828 C   0  0  0  0  0  0  0  0  0  0  0  0
   20.3692   18.0355   10.2945 O   0  0  0  0  0  0  0  0  0  0  0  0
   18.2687   12.4883   11.1054 H   0  0  0  0  0  0  0  0  0  0  0  0
   20.7901   15.8510   10.2550 H   0  0  0  0  0  0  0  0  0  0  0  0
   20.5598   17.4528   11.0462 H   0  0  0  0  0  0  0  0  0  0  0  0
   20.5780   13.4683    8.4629 C   0  0  0  0  0  0  0  0  0  0  0  0
   19.6157   13.1633    7.3083 C   0  0  0  0  0  0  0  0  0  0  0  0
   21.6545   14.4472    7.9873 C   0  0  0  0  0  0  0  0  0  0  0  0
   16.4367   20.7767    7.1195 N   0  0  0  0  0  0  0  0  0  0  0  0
   16.5482   20.0167    6.2033 N   0  0  0  0  0  0  0  0  0  0  0  0
   16.1937   20.4285    4.9663 C   0  0  0  0  0  0  0  0  0  0  0  0
   15.6816   21.5277    4.7271 O   0  0  0  0  0  0  0  0  0  0  0  0
   16.8927   19.1058    6.3478 H   0  0  0  0  0  0  0  0  0  0  0  0
   16.1346   19.2795    3.9423 C   0  0  0  0  0  0  0  0  0  0  0  0
   14.7160   18.7778    3.6777 C   0  0  0  0  0  0  0  0  0  0  0  0
   13.7207   19.5203    4.5787 C   0  0  0  0  0  0  0  0  0  0  0  0
   14.6511   17.2855    3.9820 C   0  0  0  0  0  0  0  0  0  0  0  0
   14.3352   19.0222    2.2248 C   0  0  0  0  0  0  0  0  0  0  0  0
   16.9757   18.1578    4.3833 N   0  0  0  0  0  0  0  0  0  0  0  0
   18.0222   17.7786    3.6528 C   0  0  0  0  0  0  0  0  0  0  0  0
   18.2223   18.3080    2.5565 O   0  0  0  0  0  0  0  0  0  0  0  0
   16.7647   17.6856    5.2210 H   0  0  0  0  0  0  0  0  0  0  0  0
   18.8196   16.7725    4.1093 O   0  0  0  0  0  0  0  0  0  0  0  0
   18.2485   16.1180    5.2450 C   0  0  0  0  0  0  0  0  0  0  0  0
   15.3804   20.3346    8.0402 C   0  0  0  0  0  0  0  0  0  0  0  0
   14.5326   21.3779    8.4103 C   0  0  0  0  0  0  0  0  0  0  0  0
   14.2792   21.6058    9.7555 C   0  0  0  0  0  0  0  0  0  0  0  0
   13.5439   22.7159   10.1550 C   0  0  0  0  0  0  0  0  0  0  0  0
   14.0869   22.2930    7.4667 C   0  0  0  0  0  0  0  0  0  0  0  0
   13.2957   23.3692    7.8595 C   0  0  0  0  0  0  0  0  0  0  0  0
   12.9988   23.5696    9.2027 C   0  0  0  0  0  0  0  0  0  0  0  0
   11.7825   25.5916    8.6792 C   0  0  0  0  0  0  0  0  0  0  0  0
   11.9213   24.2111    8.5922 C   0  0  0  0  0  0  0  0  0  0  0  0
   10.9833   23.4656    7.8838 C   0  0  0  0  0  0  0  0  0  0  0  0
    9.8834   24.0872    7.3031 C   0  0  0  0  0  0  0  0  0  0  0  0
    9.7067   25.4663    7.4485 N   0  0  0  0  0  0  0  0  0  0  0  0
   10.6592   26.2167    8.1480 C   0  0  0  0  0  0  0  0  0  0  0  0
  4  5  1  0  0  0
  4 10  2  0  0  0
  5  6  2  0  0  0
  6  7  1  0  0  0
  6  8  1  0  0  0
  7 22  1  0  0  0
  8  9  2  0  0  0
  9 10  1  0  0  0
 10 11  1  0  0  0
 11 12  1  0  0  0
 12 13  2  0  0  0
 13 14  1  0  0  0
 14 15  1  0  0  0
 15 16  1  0  0  0
 16 17  2  0  0  0
 16 18  1  0  0  0
 18 27  1  0  0  0
 18 19  1  0  0  0
 27 28  1  0  0  0
 27 29  1  0  0  0
 19 20  1  0  0  0
 20 21  2  0  0  0
 20 22  1  0  0  0
 22 23  1  0  0  0
 22  3  1  0  0  0
  3  2  1  0  0  0
  2  1  1  0  0  0
  1 30  1  0  0  0
 30 31  1  0  0  0
 30 46  1  0  0  0
 31 32  1  0  0  0
 32 33  2  0  0  0
 32 35  1  0  0  0
 35 36  1  0  0  0
 35 40  1  0  0  0
 36 37  1  0  0  0
 36 38  1  0  0  0
 36 39  1  0  0  0
 40 41  1  0  0  0
 41 42  2  0  0  0
 41 44  1  0  0  0
 44 45  1  0  0  0
 46 47  1  0  0  0
 47 48  1  0  0  0
 47 50  2  0  0  0
 48 49  2  0  0  0
 49 52  1  0  0  0
 50 51  1  0  0  0
 51 52  2  0  0  0
 52 53  1  0  0  0
 53 54  1  0  0  0
 53 58  2  0  0  0
 54 55  2  0  0  0
 55 56  1  0  0  0
 56 57  2  0  0  0
 57 58  1  0  0  0
 15 24  1  0  0  0
 19 25  1  0  0  0
 23 26  1  0  0  0
 31 34  1  0  0  0
 40 43  1  0  0  0
M  END
> <minimizedAffinity>
-10.47620

$$$$
4CPS_1T8_B_1202


 58 61  0  0  0  0  0  0  0  0999 V2000
   16.1507   21.8526    7.8528 C   0  0  0  0  0  0  0  0  0  0  0  0
   16.1033   20.4830    8.5341 C   0  0  0  0  0  0  0  0  0  0  0  0
   17.1088   19.5464    7.8542 C   0  0  0  0  0  0  0  0  0  0  0  0
   19.0918   17.9103   13.1053 C   0  0  0  0  0  0  0  0  0  0  0  0
   18.2609   18.4745   12.1425 C   0  0  0  0  0  0  0  0  0  0  0  0
   18.7856   19.3230   11.1717 C   0  0  0  0  0  0  0  0  0  0  0  0
   17.9638   19.8454   10.1708 C   0  0  0  0  0  0  0  0  0  0  0  0
   20.1221   19.6861   11.2345 C   0  0  0  0  0  0  0  0  0  0  0  0
   20.9545   19.1072   12.1867 C   0  0  0  0  0  0  0  0  0  0  0  0
   20.4388   18.2573   13.1589 C   0  0  0  0  0  0  0  0  0  0  0  0
   21.3050   17.6819   14.0980 C   0  0  0  0  0  0  0  0  0  0  0  0
   20.9125   16.3838   14.4378 C   0  0  0  0  0  0  0  0  0  0  0  0
   21.3865   15.2627   13.7503 C   0  0  0  0  0  0  0  0  0  0  0  0
   21.9192   15.3489   12.4590 C   0  0  0  0  0  0  0  0  0  0  0  0
   20.8236   15.2505   11.4659 N   0  0  0  0  0  0  0  0  0  0  0  0
   21.0211   15.6820   10.1517 C   0  0  0  0  0  0  0  0  0  0  0  0
   22.1360   16.1401    9.8716 O   0  0  0  0  0  0  0  0  0  0  0  0
   19.8905   15.8010    9.3049 C   0  0  0  0  0  0  0  0  0  0  0  0
   19.6662   17.2173    8.9002 N   0  0  0  0  0  0  0  0  0  0  0  0
   18.3904   17.7900    8.9501 C   0  0  0  0  0  0  0  0  0  0  0  0
   17.4212   17.0644    9.2110 O   0  0  0  0  0  0  0  0  0  0  0  0
   18.2556   19.1874    8.8087 C   0  0  0  0  0  0  0  0  0  0  0  0
   19.4698   19.7420    8.2751 O   0  0  0  0  0  0  0  0  0  0  0  0
   19.9520   14.8792   11.7336 H   0  0  0  0  0  0  0  0  0  0  0  0
   20.4283   17.7592    8.5925 H   0  0  0  0  0  0  0  0  0  0  0  0
   20.2098   19.5266    8.8640 H   0  0  0  0  0  0  0  0  0  0  0  0
   19.9812   14.8469    8.0903 C   0  0  0  0  0  0  0  0  0  0  0  0
   20.6816   15.5390    6.9146 C   0  0  0  0  0  0  0  0  0  0  0  0
   20.7283   13.5586    8.4449 C   0  0  0  0  0  0  0  0  0  0  0  0
   14.8203   22.2879    7.4192 N   0  0  0  0  0  0  0  0  0  0  0  0
   14.4321   21.5500    6.5624 N   0  0  0  0  0  0  0  0  0  0  0  0
   14.5555   21.9266    5.2708 C   0  0  0  0  0  0  0  0  0  0  0  0
   14.9779   23.0318    4.9133 O   0  0  0  0  0  0  0  0  0  0  0  0
   14.0292   20.6821    6.7942 H   0  0  0  0  0  0  0  0  0  0  0  0
   13.7814   21.0148    4.3004 C   0  0  0  0  0  0  0  0  0  0  0  0
   14.6308   19.8810    3.7285 C   0  0  0  0  0  0  0  0  0  0  0  0
   14.5619   19.8959    2.1959 C   0  0  0  0  0  0  0  0  0  0  0  0
   14.0944   18.5496    4.2417 C   0  0  0  0  0  0  0  0  0  0  0  0
   16.0827   20.0471    4.1532 C   0  0  0  0  0  0  0  0  0  0  0  0
   13.2147   21.8050    3.1983 N   0  0  0  0  0  0  0  0  0  0  0  0
   11.9970   22.3318    3.3098 C   0  0  0  0  0  0  0  0  0  0  0  0
   11.3095   22.0697    4.3002 O   0  0  0  0  0  0  0  0  0  0  0  0
   13.7368   21.9452    2.3755 H   0  0  0  0  0  0  0  0  0  0  0  0
   11.5148   23.1064    2.2980 O   0  0  0  0  0  0  0  0  0  0  0  0
   10.0867   23.0701    2.2376 C   0  0  0  0  0  0  0  0  0  0  0  0
   13.9332   22.2432    8.5896 C   0  0  0  0  0  0  0  0  0  0  0  0
   12.8841   23.1562    8.4916 C   0  0  0  0  0  0  0  0  0  0  0  0
   11.8955   22.9590    7.5378 C   0  0  0  0  0  0  0  0  0  0  0  0
   10.7744   23.7803    7.5059 C   0  0  0  0  0  0  0  0  0  0  0  0
   12.7235   24.1511    9.4461 C   0  0  0  0  0  0  0  0  0  0  0  0
   11.6340   25.0151    9.3752 C   0  0  0  0  0  0  0  0  0  0  0  0
   10.6690   24.8495    8.3884 C   0  0  0  0  0  0  0  0  0  0  0  0
    9.3778   26.6887    9.2783 C   0  0  0  0  0  0  0  0  0  0  0  0
    9.8286   25.9453    8.1935 C   0  0  0  0  0  0  0  0  0  0  0  0
    9.4454   26.3025    6.9040 C   0  0  0  0  0  0  0  0  0  0  0  0
    8.5770   27.3687    6.6976 C   0  0  0  0  0  0  0  0  0  0  0  0
    8.0689   28.0739    7.7926 N   0  0  0  0  0  0  0  0  0  0  0  0
    8.4676   27.7231    9.0878 C   0  0  0  0  0  0  0  0  0  0  0  0
  4  5  1  0  0  0
  4 10  2  0  0  0
  5  6  2  0  0  0
  6  7  1  0  0  0
  6  8  1  0  0  0
  7 22  1  0  0  0
  8  9  2  0  0  0
  9 10  1  0  0  0
 10 11  1  0  0  0
 11 12  1  0  0  0
 12 13  2  0  0  0
 13 14  1  0  0  0
 14 15  1  0  0  0
 15 16  1  0  0  0
 16 17  2  0  0  0
 16 18  1  0  0  0
 18 27  1  0  0  0
 18 19  1  0  0  0
 27 28  1  0  0  0
 27 29  1  0  0  0
 19 20  1  0  0  0
 20 21  2  0  0  0
 20 22  1  0  0  0
 22 23  1  0  0  0
 22  3  1  0  0  0
  3  2  1  0  0  0
  2  1  1  0  0  0
  1 30  1  0  0  0
 30 31  1  0  0  0
 30 46  1  0  0  0
 31 32  1  0  0  0
 32 33  2  0  0  0
 32 35  1  0  0  0
 35 36  1  0  0  0
 35 40  1  0  0  0
 36 37  1  0  0  0
 36 38  1  0  0  0
 36 39  1  0  0  0
 40 41  1  0  0  0
 41 42  2  0  0  0
 41 44  1  0  0  0
 44 45  1  0  0  0
 46 47  1  0  0  0
 47 48  1  0  0  0
 47 50  2  0  0  0
 48 49  2  0  0  0
 49 52  1  0  0  0
 50 51  1  0  0  0
 51 52  2  0  0  0
 52 53  1  0  0  0
 53 54  1  0  0  0
 53 58  2  0  0  0
 54 55  2  0  0  0
 55 56  1  0  0  0
 56 57  2  0  0  0
 57 58  1  0  0  0
 15 24  1  0  0  0
 19 25  1  0  0  0
 23 26  1  0  0  0
 31 34  1  0  0  0
 40 43  1  0  0  0
M  END
> <minimizedAffinity>
-10.38408

$$$$
