4CPS_1T8_B_1202
  RCSB PDB12061712053D
Coordinates from PDB:4CPS:B:1202 Model:1 without hydrogens
 53 56  0  0  0  0            999 V2000
    7.8720   23.5280    2.8200   C 0  0  0  0  0  0  0  0  0  0  0  0
    9.1330   23.0550    3.1690   C 0  0  0  0  0  0  0  0  0  0  0  0
   10.2630   23.8370    2.9470   C 0  0  0  0  0  0  0  0  0  0  0  0
   11.5230   23.3880    3.3480   C 0  0  0  0  0  0  0  0  0  0  0  0
   10.1350   25.0450    2.2790   C 0  0  0  0  0  0  0  0  0  0  0  0
    8.8720   25.5240    1.9470   C 0  0  0  0  0  0  0  0  0  0  0  0
    7.7380   24.7500    2.1670   C 0  0  0  0  0  0  0  0  0  0  0  0
    6.4790   25.2650    1.8310   C 0  0  0  0  0  0  0  0  0  0  0  0
    5.4930   24.8520    2.7320   C 0  0  0  0  0  0  0  0  0  0  0  0
    5.1690   25.5980    3.8690   C 0  0  0  0  0  0  0  0  0  0  0  0
    6.0450   26.5420    4.4170   C 0  0  0  0  0  0  0  0  0  0  0  0
    6.9670   25.8690    5.3620   N 0  0  0  0  0  0  0  0  0  0  0  0
    8.1590   26.4880    5.7470   C 0  0  0  0  0  0  0  0  0  0  0  0
    8.3950   27.6030    5.2650   O 0  0  0  0  0  0  0  0  0  0  0  0
    9.1210   25.7190    6.4490   C 0  0  0  0  0  0  0  0  0  0  0  0
    9.3800   26.2810    7.8670   C 0  0  0  0  0  0  0  0  0  0  0  0
   10.6920   25.7250    8.4340   C 0  0  0  0  0  0  0  0  0  0  0  0
    9.4320   27.8110    7.8620   C 0  0  0  0  0  0  0  0  0  0  0  0
   10.3750   25.5710    5.6580   N 0  0  0  0  0  0  0  0  0  0  0  0
   11.0040   24.3280    5.5260   C 0  0  0  0  0  0  0  0  0  0  0  0
   10.5770   23.3710    6.1860   O 0  0  0  0  0  0  0  0  0  0  0  0
   12.0320   24.1730    4.5720   C 0  0  0  0  0  0  0  0  0  0  0  0
   12.4920   25.4640    4.1380   O 0  0  0  0  0  0  0  0  0  0  0  0
   13.2300   23.4130    5.1570   C 0  0  0  0  0  0  0  0  0  0  0  0
   13.7190   24.0740    6.4510   C 0  0  0  0  0  0  0  0  0  0  0  0
   15.1740   23.6720    6.7030   C 0  0  0  0  0  0  0  0  0  0  0  0
   15.2830   22.2760    7.1350   N 0  0  0  0  0  0  0  0  0  0  0  0
   15.8670   21.6560    6.2960   N 0  0  0  0  0  0  0  0  0  0  0  0
   15.2300   20.6410    5.6720   C 0  0  0  0  0  0  0  0  0  0  0  0
   14.0940   20.2550    5.9690   O 0  0  0  0  0  0  0  0  0  0  0  0
   16.1730   19.7700    4.8210   C 0  0  0  0  0  0  0  0  0  0  0  0
   15.4710   19.0860    3.6490   C 0  0  0  0  0  0  0  0  0  0  0  0
   14.6080   17.9250    4.1600   C 0  0  0  0  0  0  0  0  0  0  0  0
   16.5220   18.5440    2.6870   C 0  0  0  0  0  0  0  0  0  0  0  0
   14.5740   20.0780    2.9230   C 0  0  0  0  0  0  0  0  0  0  0  0
   16.8270   18.7550    5.6590   N 0  0  0  0  0  0  0  0  0  0  0  0
   18.1550   18.7120    5.7440   C 0  0  0  0  0  0  0  0  0  0  0  0
   18.8340   19.4630    5.0390   O 0  0  0  0  0  0  0  0  0  0  0  0
   18.7370   17.7980    6.5700   O 0  0  0  0  0  0  0  0  0  0  0  0
   20.0130   18.2430    7.0370   C 0  0  0  0  0  0  0  0  0  0  0  0
   16.0200   22.2590    8.4060   C 0  0  0  0  0  0  0  0  0  0  0  0
   16.2210   20.9640    8.8820   C 0  0  0  0  0  0  0  0  0  0  0  0
   17.5140   20.4740    9.0000   C 0  0  0  0  0  0  0  0  0  0  0  0
   17.7470   19.2380    9.5920   C 0  0  0  0  0  0  0  0  0  0  0  0
   15.1630   20.2320    9.4030   C 0  0  0  0  0  0  0  0  0  0  0  0
   15.3880   18.9660    9.9370   C 0  0  0  0  0  0  0  0  0  0  0  0
   16.6780   18.4530   10.0090   C 0  0  0  0  0  0  0  0  0  0  0  0
   15.8710   16.4540   11.1020   C 0  0  0  0  0  0  0  0  0  0  0  0
   16.9200   17.2070   10.5870   C 0  0  0  0  0  0  0  0  0  0  0  0
   18.2190   16.7100   10.6410   C 0  0  0  0  0  0  0  0  0  0  0  0
   18.4800   15.4870   11.2490   C 0  0  0  0  0  0  0  0  0  0  0  0
   17.4350   14.7610   11.8280   N 0  0  0  0  0  0  0  0  0  0  0  0
   16.1270   15.2550   11.7590   C 0  0  0  0  0  0  0  0  0  0  0  0
  1  2  1  0  0  0  0
  1  7  2  0  0  0  0
  2  3  2  0  0  0  0
  3  4  1  0  0  0  0
  3  5  1  0  0  0  0
  4 22  1  0  0  0  0
  5  6  2  0  0  0  0
  6  7  1  0  0  0  0
  7  8  1  0  0  0  0
  8  9  1  0  0  0  0
  9 10  2  0  0  0  0
 10 11  1  0  0  0  0
 11 12  1  0  0  0  0
 12 13  1  0  0  0  0
 13 14  2  0  0  0  0
 13 15  1  0  0  0  0
 15 16  1  0  0  0  0
 15 19  1  0  0  0  0
 16 17  1  0  0  0  0
 16 18  1  0  0  0  0
 19 20  1  0  0  0  0
 20 21  2  0  0  0  0
 20 22  1  0  0  0  0
 22 23  1  0  0  0  0
 22 24  1  0  0  0  0
 24 25  1  0  0  0  0
 25 26  1  0  0  0  0
 26 27  1  0  0  0  0
 27 28  1  0  0  0  0
 27 41  1  0  0  0  0
 28 29  1  0  0  0  0
 29 30  2  0  0  0  0
 29 31  1  0  0  0  0
 31 32  1  0  0  0  0
 31 36  1  0  0  0  0
 32 33  1  0  0  0  0
 32 34  1  0  0  0  0
 32 35  1  0  0  0  0
 36 37  1  0  0  0  0
 37 38  2  0  0  0  0
 37 39  1  0  0  0  0
 39 40  1  0  0  0  0
 41 42  1  0  0  0  0
 42 43  1  0  0  0  0
 42 45  2  0  0  0  0
 43 44  2  0  0  0  0
 44 47  1  0  0  0  0
 45 46  1  0  0  0  0
 46 47  2  0  0  0  0
 47 48  1  0  0  0  0
 48 49  1  0  0  0  0
 48 53  2  0  0  0  0
 49 50  2  0  0  0  0
 50 51  1  0  0  0  0
 51 52  2  0  0  0  0
 52 53  1  0  0  0  0
A    1
CAR
A    2
CAT
A    3
CBS
A    4
CBF
A    5
CAU
A    6
CAS
A    7
CBQ
A    8
CBB
A    9
CAM
A   10
CAL
A   11
CAZ
A   12
NBH
A   13
C
A   14
O
A   15
CA
A   16
CB
A   17
CG1
A   18
CG2
A   19
N
A   20
CBP
A   21
OAJ
A   22
CCA
A   23
OAK
A   24
CBD
A   25
CBA
A   26
CBC
A   27
NBY
A   28
NBK
A   29
CBO
A   30
OAI
A   31
CBX
A   32
CBZ
A   33
CAD
A   34
CAE
A   35
CAF
A   36
NBI
A   37
CBM
A   38
OAG
A   39
OBL
A   40
CAA
A   41
CBE
A   42
CBR
A   43
CAW
A   44
CAY
A   45
CAV
A   46
CAX
A   47
CBU
A   48
CBT
A   49
CAQ
A   50
CAO
A   51
CAN
A   52
NBG
A   53
CAP
M  END
>  <InstanceId>
4CPS_1T8_B_1202

>  <ChemCompId>
1T8

>  <PdbId>
4CPS

>  <ChainId>
B

>  <ResidueNumber>
1202

>  <InsertionCode>


>  <Model>
1

>  <AltIds>


>  <MissingHeavyAtoms>
0

>  <ObservedFormula>
C41 N6 O6

>  <Name>
methyl [(2S)-1-(2-{3-[(3R,6S,10Z)-3-hydroxy-4,7-dioxo-6-(propan-2-yl)-5,8-diazabicyclo[11.2.2]heptadeca-1(15),10,13,16-tetraen-3-yl]propyl}-2-[4-(pyridin-3-yl)benzyl]hydrazinyl)-3,3-dimethyl-1-oxobutan-2-yl]carbamate

>  <SystematicName>
methyl N-[(2S)-3,3-dimethyl-1-[2-[3-[(3Z,8S,11R)-11-oxidanyl-7,10-bis(oxidanylidene)-8-propan-2-yl-6,9-diazabicyclo[11.2.2]heptadeca-1(16),3,13(17),14-tetraen-11-yl]propyl]-2-[(4-pyridin-3-ylphenyl)methyl]hydrazinyl]-1-oxidanylidene-butan-2-yl]carbamate

>  <Synonyms>


>  <Type>
non-polymer

>  <Formula>
C41 H54 N6 O6

>  <MolecularWeight>
726.904

>  <ModifiedDate>
2014-12-12

>  <Parent>


>  <OneLetterCode>


>  <SubcomponentList>


>  <AmbiguousFlag>
N

>  <InChI>
InChI=1S/C41H54N6O6/c1-28(2)34-36(48)43-23-8-7-11-29-13-15-30(16-14-29)25-41(52,38(50)44-34)21-10-24-47(46-37(49)35(40(3,4)5)45-39(51)53-6)27-31-17-19-32(20-18-31)33-12-9-22-42-26-33/h7-9,12-20,22,26,28,34-35,52H,10-11,21,23-25,27H2,1-6H3,(H,43,48)(H,44,50)(H,45,51)(H,46,49)/b8-7-/t34-,35+,41+/m0/s1

>  <InChIKey>
NKAIBDUEJMTLGH-UGLCWRDGSA-N

>  <SMILES>
CC(C)[C@H]1C(=O)NC/C=C\Cc2ccc(cc2)C[C@@](C(=O)N1)(CCCN(Cc3ccc(cc3)c4cccnc4)NC(=O)[C@H](C(C)(C)C)NC(=O)OC)O

$$$$
