4O61_CIT_A_302
  RCSB PDB12061714003D
Coordinates from PDB:4O61:A:302 Model:1 without hydrogens
 13 12  0  0  0  0            999 V2000
   15.7350    3.4530    3.6840   C 0  0  0  0  0  0  0  0  0  0  0  0
   15.9230    4.0820    2.6070   O 0  0  0  0  0  0  0  0  0  0  0  0
   14.7670    3.6830    4.4320   O 0  0  0  0  0  0  0  0  0  0  0  0
   16.7280    2.3660    4.0950   C 0  0  0  0  0  0  0  0  0  0  0  0
   18.0970    2.4690    3.3420   C 0  0  0  0  0  0  0  0  0  0  0  0
   17.9510    2.7320    1.8980   O 0  0  0  0  0  0  0  0  0  0  0  0
   18.9410    3.6230    3.8880   C 0  0  0  0  0  0  0  0  0  0  0  0
   20.3450    3.7750    3.2910   C 0  0  0  0  0  0  0  0  0  0  0  0
   20.8330    4.9330    3.2480   O 0  0  0  0  0  0  0  0  0  0  0  0
   20.9820    2.7820    2.8900   O 0  0  0  0  0  0  0  0  0  0  0  0
   18.8150    1.1410    3.6600   C 0  0  0  0  0  0  0  0  0  0  0  0
   19.0800    0.3350    2.7630   O 0  0  0  0  0  0  0  0  0  0  0  0
   19.1640    0.8840    4.8380   O 0  0  0  0  0  0  0  0  0  0  0  0
  1  2  2  0  0  0  0
  1  3  1  0  0  0  0
  1  4  1  0  0  0  0
  4  5  1  0  0  0  0
  5  6  1  0  0  0  0
  5  7  1  0  0  0  0
  5 11  1  0  0  0  0
  7  8  1  0  0  0  0
  8  9  2  0  0  0  0
  8 10  1  0  0  0  0
 11 12  2  0  0  0  0
 11 13  1  0  0  0  0
A    1
C1
A    2
O1
A    3
O2
A    4
C2
A    5
C3
A    6
O7
A    7
C4
A    8
C5
A    9
O3
A   10
O4
A   11
C6
A   12
O5
A   13
O6
M  END
>  <InstanceId>
4O61_CIT_A_302

>  <ChemCompId>
CIT

>  <PdbId>
4O61

>  <ChainId>
A

>  <ResidueNumber>
302

>  <InsertionCode>


>  <Model>
1

>  <AltIds>


>  <MissingHeavyAtoms>
0

>  <ObservedFormula>
C6 O7

>  <Name>
CITRIC ACID

>  <SystematicName>
2-hydroxypropane-1,2,3-tricarboxylic acid

>  <Synonyms>


>  <Type>
NON-POLYMER

>  <Formula>
C6 H8 O7

>  <MolecularWeight>
192.124

>  <ModifiedDate>
2011-06-04

>  <Parent>


>  <OneLetterCode>


>  <SubcomponentList>


>  <AmbiguousFlag>
N

>  <InChI>
InChI=1S/C6H8O7/c7-3(8)1-6(13,5(11)12)2-4(9)10/h13H,1-2H2,(H,7,8)(H,9,10)(H,11,12)

>  <InChIKey>
KRKNYBCHXYNGOX-UHFFFAOYSA-N

>  <SMILES>
C(C(=O)O)C(CC(=O)O)(C(=O)O)O

$$$$
