3V7X_D7A_A_2002


 28 29  0  0  0  0  0  0  0  0999 V2000
   17.7182    7.5827   13.0111 N   0  0  0  0  0  0  0  0  0  0  0  0
   16.8369    6.5974   12.8337 C   0  0  0  0  0  0  0  0  0  0  0  0
   16.3777    6.3856   11.6805 O   0  0  0  0  0  0  0  0  0  0  0  0
   18.1257    7.7220   13.8965 H   0  0  0  0  0  0  0  0  0  0  0  0
   16.3653    5.8219   13.9298 C   0  0  0  0  0  0  0  0  0  0  0  0
   17.0876    4.7289   14.3564 C   0  0  0  0  0  0  0  0  0  0  0  0
   16.5991    3.9120   15.3756 C   0  0  0  0  0  0  0  0  0  0  0  0
   15.1617    6.1197   14.5788 C   0  0  0  0  0  0  0  0  0  0  0  0
   14.6650    5.2911   15.6218 C   0  0  0  0  0  0  0  0  0  0  0  0
   15.4042    4.1684   16.0047 C   0  0  0  0  0  0  0  0  0  0  0  0
   14.7561    3.0879   17.2464 S   0  0  0  0  0  0  0  0  0  0  0  0
   14.9709    3.7993   18.5208 O   0  0  0  0  0  0  0  0  0  0  0  0
   13.3736    2.8423   16.8730 O   0  0  0  0  0  0  0  0  0  0  0  0
   15.5838    1.7126   17.2291 N   0  0  0  0  0  0  0  0  0  0  0  0
   15.4261    1.2321   16.3433 H   0  0  0  0  0  0  0  0  0  0  0  0
   15.2728    1.1190   17.9980 H   0  0  0  0  0  0  0  0  0  0  0  0
   18.0897    8.4752   11.8739 C   0  0  0  0  0  0  0  0  0  0  0  0
   17.3548    9.7998   11.9987 C   0  0  0  0  0  0  0  0  0  0  0  0
   15.2174   10.7831    9.1319 C   0  0  0  0  0  0  0  0  0  0  0  0
   16.3540   10.5655    9.9030 C   0  0  0  0  0  0  0  0  0  0  0  0
   13.9384   10.4063    9.5486 C   0  0  0  0  0  0  0  0  0  0  0  0
   13.8323    9.7664   10.7684 C   0  0  0  0  0  0  0  0  0  0  0  0
   14.9666    9.5410   11.5244 C   0  0  0  0  0  0  0  0  0  0  0  0
   16.2470    9.9408   11.1349 C   0  0  0  0  0  0  0  0  0  0  0  0
   15.9017   12.6227    7.9059 C   0  0  0  0  0  0  0  0  0  0  0  0
   15.2241   11.3620    7.9303 O   0  0  0  0  0  0  0  0  0  0  0  0
   12.9522   10.7657    8.7335 O   0  0  0  0  0  0  0  0  0  0  0  0
   12.0480    9.7659    8.2824 C   0  0  0  0  0  0  0  0  0  0  0  0
 28 27  1  0  0  0
 22 23  2  0  0  0
 22 21  1  0  0  0
 23 24  1  0  0  0
 17  1  1  0  0  0
 17 18  1  0  0  0
 27 21  1  0  0  0
 21 19  2  0  0  0
  1  2  1  0  0  0
  3  2  2  0  0  0
  2  5  1  0  0  0
 24 18  1  0  0  0
 24 20  2  0  0  0
 19 20  1  0  0  0
 19 26  1  0  0  0
  5  8  2  0  0  0
  5  6  1  0  0  0
  8  9  1  0  0  0
  6  7  2  0  0  0
 25 26  1  0  0  0
  9 10  2  0  0  0
  7 10  1  0  0  0
 10 11  1  0  0  0
 14 11  1  0  0  0
 13 11  2  0  0  0
 11 12  2  0  0  0
  1  4  1  0  0  0
 14 15  1  0  0  0
 14 16  1  0  0  0
M  END
> <minimizedAffinity>
-7.18965

$$$$
3V7X_D7A_A_2002


 28 29  0  0  0  0  0  0  0  0999 V2000
   18.3810    7.0714   13.0189 N   0  0  0  0  0  0  0  0  0  0  0  0
   17.0813    7.0788   13.3192 C   0  0  0  0  0  0  0  0  0  0  0  0
   16.3547    8.0064   12.8752 O   0  0  0  0  0  0  0  0  0  0  0  0
   18.9476    6.3222   13.3137 H   0  0  0  0  0  0  0  0  0  0  0  0
   16.5154    6.0930   14.1754 C   0  0  0  0  0  0  0  0  0  0  0  0
   15.2671    6.2958   14.7220 C   0  0  0  0  0  0  0  0  0  0  0  0
   14.7329    5.3781   15.6260 C   0  0  0  0  0  0  0  0  0  0  0  0
   17.2062    4.9222   14.5079 C   0  0  0  0  0  0  0  0  0  0  0  0
   16.6606    3.9828   15.4250 C   0  0  0  0  0  0  0  0  0  0  0  0
   15.4081    4.2376   15.9904 C   0  0  0  0  0  0  0  0  0  0  0  0
   14.7564    3.1147   17.1919 S   0  0  0  0  0  0  0  0  0  0  0  0
   14.9248    3.8015   18.4866 O   0  0  0  0  0  0  0  0  0  0  0  0
   13.3890    2.8465   16.7802 O   0  0  0  0  0  0  0  0  0  0  0  0
   15.6158    1.7592   17.1637 N   0  0  0  0  0  0  0  0  0  0  0  0
   15.4900    1.2956   16.2639 H   0  0  0  0  0  0  0  0  0  0  0  0
   15.3008    1.1413   17.9116 H   0  0  0  0  0  0  0  0  0  0  0  0
   18.9803    8.1934   12.2382 C   0  0  0  0  0  0  0  0  0  0  0  0
   19.5615    7.6623   10.9382 C   0  0  0  0  0  0  0  0  0  0  0  0
   22.8978    6.1320   10.4070 C   0  0  0  0  0  0  0  0  0  0  0  0
   21.5396    6.3931   10.2625 C   0  0  0  0  0  0  0  0  0  0  0  0
   23.7231    6.8727   11.2565 C   0  0  0  0  0  0  0  0  0  0  0  0
   23.1447    7.9207   11.9465 C   0  0  0  0  0  0  0  0  0  0  0  0
   21.7976    8.1838   11.7889 C   0  0  0  0  0  0  0  0  0  0  0  0
   20.9542    7.4317   10.9680 C   0  0  0  0  0  0  0  0  0  0  0  0
   23.5612    5.3344    8.3384 C   0  0  0  0  0  0  0  0  0  0  0  0
   23.5502    5.1654    9.7598 O   0  0  0  0  0  0  0  0  0  0  0  0
   24.9757    6.4376   11.3446 O   0  0  0  0  0  0  0  0  0  0  0  0
   25.7208    6.7508   12.5140 C   0  0  0  0  0  0  0  0  0  0  0  0
 28 27  1  0  0  0
 22 23  2  0  0  0
 22 21  1  0  0  0
 23 24  1  0  0  0
 17  1  1  0  0  0
 17 18  1  0  0  0
 27 21  1  0  0  0
 21 19  2  0  0  0
  1  2  1  0  0  0
  3  2  2  0  0  0
  2  5  1  0  0  0
 24 18  1  0  0  0
 24 20  2  0  0  0
 19 20  1  0  0  0
 19 26  1  0  0  0
  5  8  2  0  0  0
  5  6  1  0  0  0
  8  9  1  0  0  0
  6  7  2  0  0  0
 25 26  1  0  0  0
  9 10  2  0  0  0
  7 10  1  0  0  0
 10 11  1  0  0  0
 14 11  1  0  0  0
 13 11  2  0  0  0
 11 12  2  0  0  0
  1  4  1  0  0  0
 14 15  1  0  0  0
 14 16  1  0  0  0
M  END
> <minimizedAffinity>
-7.18573

$$$$
3V7X_D7A_A_2002


 28 29  0  0  0  0  0  0  0  0999 V2000
   18.2403    8.2723   14.4676 N   0  0  0  0  0  0  0  0  0  0  0  0
   17.1076    7.6912   14.0693 C   0  0  0  0  0  0  0  0  0  0  0  0
   16.4084    8.2524   13.1851 O   0  0  0  0  0  0  0  0  0  0  0  0
   18.8227    7.8163   15.1172 H   0  0  0  0  0  0  0  0  0  0  0  0
   16.6486    6.4826   14.6641 C   0  0  0  0  0  0  0  0  0  0  0  0
   15.3173    6.3424   14.9904 C   0  0  0  0  0  0  0  0  0  0  0  0
   14.8665    5.1976   15.6468 C   0  0  0  0  0  0  0  0  0  0  0  0
   17.5214    5.4291   14.9589 C   0  0  0  0  0  0  0  0  0  0  0  0
   17.0624    4.2590   15.6231 C   0  0  0  0  0  0  0  0  0  0  0  0
   15.7128    4.1649   15.9738 C   0  0  0  0  0  0  0  0  0  0  0  0
   15.1482    2.7482   16.8702 S   0  0  0  0  0  0  0  0  0  0  0  0
   15.7103    1.5911   16.1480 O   0  0  0  0  0  0  0  0  0  0  0  0
   15.6066    2.9373   18.2360 O   0  0  0  0  0  0  0  0  0  0  0  0
   13.5441    2.7060   16.8287 N   0  0  0  0  0  0  0  0  0  0  0  0
   13.1697    3.5108   17.3311 H   0  0  0  0  0  0  0  0  0  0  0  0
   13.2151    1.8470   17.2693 H   0  0  0  0  0  0  0  0  0  0  0  0
   18.6289    9.6105   13.9330 C   0  0  0  0  0  0  0  0  0  0  0  0
   19.1833   10.4715   15.0561 C   0  0  0  0  0  0  0  0  0  0  0  0
   21.4507   13.3912   14.7575 C   0  0  0  0  0  0  0  0  0  0  0  0
   20.9770   12.1328   15.1124 C   0  0  0  0  0  0  0  0  0  0  0  0
   20.7356   14.2624   13.9324 C   0  0  0  0  0  0  0  0  0  0  0  0
   19.5242   13.8171   13.4394 C   0  0  0  0  0  0  0  0  0  0  0  0
   19.0646   12.5607   13.7846 C   0  0  0  0  0  0  0  0  0  0  0  0
   19.7537   11.6922   14.6340 C   0  0  0  0  0  0  0  0  0  0  0  0
   22.7670   13.9424   16.5793 C   0  0  0  0  0  0  0  0  0  0  0  0
   22.6201   13.8937   15.1562 O   0  0  0  0  0  0  0  0  0  0  0  0
   21.2889   15.4588   13.7632 O   0  0  0  0  0  0  0  0  0  0  0  0
   20.6030   16.5990   14.2634 C   0  0  0  0  0  0  0  0  0  0  0  0
 28 27  1  0  0  0
 22 23  2  0  0  0
 22 21  1  0  0  0
 23 24  1  0  0  0
 17  1  1  0  0  0
 17 18  1  0  0  0
 27 21  1  0  0  0
 21 19  2  0  0  0
  1  2  1  0  0  0
  3  2  2  0  0  0
  2  5  1  0  0  0
 24 18  1  0  0  0
 24 20  2  0  0  0
 19 20  1  0  0  0
 19 26  1  0  0  0
  5  8  2  0  0  0
  5  6  1  0  0  0
  8  9  1  0  0  0
  6  7  2  0  0  0
 25 26  1  0  0  0
  9 10  2  0  0  0
  7 10  1  0  0  0
 10 11  1  0  0  0
 14 11  1  0  0  0
 13 11  2  0  0  0
 11 12  2  0  0  0
  1  4  1  0  0  0
 14 15  1  0  0  0
 14 16  1  0  0  0
M  END
> <minimizedAffinity>
-7.07624

$$$$
3V7X_D7A_A_2002


 28 29  0  0  0  0  0  0  0  0999 V2000
   18.1986    8.2451   14.3615 N   0  0  0  0  0  0  0  0  0  0  0  0
   17.0513    7.6807   13.9814 C   0  0  0  0  0  0  0  0  0  0  0  0
   16.3506    8.2481   13.1024 O   0  0  0  0  0  0  0  0  0  0  0  0
   18.7815    7.7834   15.0068 H   0  0  0  0  0  0  0  0  0  0  0  0
   16.5796    6.4840   14.5900 C   0  0  0  0  0  0  0  0  0  0  0  0
   15.2495    6.3667   14.9298 C   0  0  0  0  0  0  0  0  0  0  0  0
   14.7875    5.2340   15.5994 C   0  0  0  0  0  0  0  0  0  0  0  0
   17.4390    5.4195   14.8848 C   0  0  0  0  0  0  0  0  0  0  0  0
   16.9685    4.2616   15.5624 C   0  0  0  0  0  0  0  0  0  0  0  0
   15.6210    4.1910   15.9265 C   0  0  0  0  0  0  0  0  0  0  0  0
   15.0434    2.7900   16.8392 S   0  0  0  0  0  0  0  0  0  0  0  0
   13.5740    2.8349   16.7174 O   0  0  0  0  0  0  0  0  0  0  0  0
   15.7018    1.6367   16.2498 O   0  0  0  0  0  0  0  0  0  0  0  0
   15.4808    2.9481   18.3756 N   0  0  0  0  0  0  0  0  0  0  0  0
   16.4979    2.9153   18.4446 H   0  0  0  0  0  0  0  0  0  0  0  0
   15.0781    2.1880   18.9237 H   0  0  0  0  0  0  0  0  0  0  0  0
   18.6030    9.5730   13.8133 C   0  0  0  0  0  0  0  0  0  0  0  0
   19.8440   10.0713   14.5357 C   0  0  0  0  0  0  0  0  0  0  0  0
   19.4512   13.6580   13.6781 C   0  0  0  0  0  0  0  0  0  0  0  0
   19.1741   12.2992   13.7824 C   0  0  0  0  0  0  0  0  0  0  0  0
   20.5764   14.2463   14.2604 C   0  0  0  0  0  0  0  0  0  0  0  0
   21.4153   13.4251   14.9889 C   0  0  0  0  0  0  0  0  0  0  0  0
   21.1280   12.0782   15.1002 C   0  0  0  0  0  0  0  0  0  0  0  0
   20.0244   11.4710   14.4968 C   0  0  0  0  0  0  0  0  0  0  0  0
   18.0908   13.9993   11.8373 C   0  0  0  0  0  0  0  0  0  0  0  0
   18.6851   14.5330   13.0252 O   0  0  0  0  0  0  0  0  0  0  0  0
   20.7391   15.5375   13.9917 O   0  0  0  0  0  0  0  0  0  0  0  0
   21.0234   16.4226   15.0672 C   0  0  0  0  0  0  0  0  0  0  0  0
 28 27  1  0  0  0
 22 23  2  0  0  0
 22 21  1  0  0  0
 23 24  1  0  0  0
 17  1  1  0  0  0
 17 18  1  0  0  0
 27 21  1  0  0  0
 21 19  2  0  0  0
  1  2  1  0  0  0
  3  2  2  0  0  0
  2  5  1  0  0  0
 24 18  1  0  0  0
 24 20  2  0  0  0
 19 20  1  0  0  0
 19 26  1  0  0  0
  5  8  2  0  0  0
  5  6  1  0  0  0
  8  9  1  0  0  0
  6  7  2  0  0  0
 25 26  1  0  0  0
  9 10  2  0  0  0
  7 10  1  0  0  0
 10 11  1  0  0  0
 14 11  1  0  0  0
 13 11  2  0  0  0
 11 12  2  0  0  0
  1  4  1  0  0  0
 14 15  1  0  0  0
 14 16  1  0  0  0
M  END
> <minimizedAffinity>
-7.00220

$$$$
3V7X_D7A_A_2002


 28 29  0  0  0  0  0  0  0  0999 V2000
   16.2956    8.1304   13.1277 N   0  0  0  0  0  0  0  0  0  0  0  0
   16.8738    6.9499   13.3545 C   0  0  0  0  0  0  0  0  0  0  0  0
   17.8426    6.5931   12.6336 O   0  0  0  0  0  0  0  0  0  0  0  0
   15.5742    8.4443   13.7195 H   0  0  0  0  0  0  0  0  0  0  0  0
   16.3809    6.0660   14.3549 C   0  0  0  0  0  0  0  0  0  0  0  0
   17.1413    4.9875   14.7509 C   0  0  0  0  0  0  0  0  0  0  0  0
   16.6392    4.0672   15.6706 C   0  0  0  0  0  0  0  0  0  0  0  0
   15.1203    6.2420   14.9368 C   0  0  0  0  0  0  0  0  0  0  0  0
   14.6092    5.3078   15.8786 C   0  0  0  0  0  0  0  0  0  0  0  0
   15.3912    4.2041   16.2302 C   0  0  0  0  0  0  0  0  0  0  0  0
   14.7323    2.9950   17.3407 S   0  0  0  0  0  0  0  0  0  0  0  0
   14.9251    3.5679   18.6864 O   0  0  0  0  0  0  0  0  0  0  0  0
   13.3565    2.7845   16.9234 O   0  0  0  0  0  0  0  0  0  0  0  0
   15.5680    1.6329   17.1894 N   0  0  0  0  0  0  0  0  0  0  0  0
   15.4254    1.2485   16.2554 H   0  0  0  0  0  0  0  0  0  0  0  0
   15.2499    0.9596   17.8864 H   0  0  0  0  0  0  0  0  0  0  0  0
   16.7371    8.9777   11.9811 C   0  0  0  0  0  0  0  0  0  0  0  0
   15.7746    8.8092   10.8168 C   0  0  0  0  0  0  0  0  0  0  0  0
   13.7075   11.2261    8.9090 C   0  0  0  0  0  0  0  0  0  0  0  0
   14.1661   10.0209    9.4296 C   0  0  0  0  0  0  0  0  0  0  0  0
   14.2588   12.4601    9.2623 C   0  0  0  0  0  0  0  0  0  0  0  0
   15.2810   12.4545   10.1918 C   0  0  0  0  0  0  0  0  0  0  0  0
   15.7237   11.2552   10.7156 C   0  0  0  0  0  0  0  0  0  0  0  0
   15.2036   10.0122   10.3476 C   0  0  0  0  0  0  0  0  0  0  0  0
   11.8418   10.1941    8.0092 C   0  0  0  0  0  0  0  0  0  0  0  0
   12.7070   11.3343    8.0337 O   0  0  0  0  0  0  0  0  0  0  0  0
   13.7641   13.5056    8.6080 O   0  0  0  0  0  0  0  0  0  0  0  0
   13.5588   14.7169    9.3232 C   0  0  0  0  0  0  0  0  0  0  0  0
 28 27  1  0  0  0
 22 23  2  0  0  0
 22 21  1  0  0  0
 23 24  1  0  0  0
 17  1  1  0  0  0
 17 18  1  0  0  0
 27 21  1  0  0  0
 21 19  2  0  0  0
  1  2  1  0  0  0
  3  2  2  0  0  0
  2  5  1  0  0  0
 24 18  1  0  0  0
 24 20  2  0  0  0
 19 20  1  0  0  0
 19 26  1  0  0  0
  5  8  2  0  0  0
  5  6  1  0  0  0
  8  9  1  0  0  0
  6  7  2  0  0  0
 25 26  1  0  0  0
  9 10  2  0  0  0
  7 10  1  0  0  0
 10 11  1  0  0  0
 14 11  1  0  0  0
 13 11  2  0  0  0
 11 12  2  0  0  0
  1  4  1  0  0  0
 14 15  1  0  0  0
 14 16  1  0  0  0
M  END
> <minimizedAffinity>
-6.94415

$$$$
3V7X_D7A_A_2002


 28 29  0  0  0  0  0  0  0  0999 V2000
   16.0005    7.9242   12.5976 N   0  0  0  0  0  0  0  0  0  0  0  0
   16.7287    7.5874   13.6632 C   0  0  0  0  0  0  0  0  0  0  0  0
   17.8007    8.2063   13.8939 O   0  0  0  0  0  0  0  0  0  0  0  0
   15.1337    7.4857   12.4380 H   0  0  0  0  0  0  0  0  0  0  0  0
   16.3462    6.5079   14.5079 C   0  0  0  0  0  0  0  0  0  0  0  0
   17.2569    5.5194   14.8107 C   0  0  0  0  0  0  0  0  0  0  0  0
   16.8749    4.4140   15.5703 C   0  0  0  0  0  0  0  0  0  0  0  0
   15.0500    6.4007   15.0247 C   0  0  0  0  0  0  0  0  0  0  0  0
   14.6605    5.2772   15.8038 C   0  0  0  0  0  0  0  0  0  0  0  0
   15.5986    4.2735   16.0608 C   0  0  0  0  0  0  0  0  0  0  0  0
   15.1017    2.8347   16.9620 S   0  0  0  0  0  0  0  0  0  0  0  0
   15.5855    3.0601   18.3372 O   0  0  0  0  0  0  0  0  0  0  0  0
   13.6612    2.7427   16.7950 O   0  0  0  0  0  0  0  0  0  0  0  0
   15.8133    1.5447   16.3247 N   0  0  0  0  0  0  0  0  0  0  0  0
   15.4697    1.4012   15.3751 H   0  0  0  0  0  0  0  0  0  0  0  0
   15.5997    0.7239   16.8913 H   0  0  0  0  0  0  0  0  0  0  0  0
   16.4937    8.9628   11.6458 C   0  0  0  0  0  0  0  0  0  0  0  0
   15.3222    9.7760   11.1199 C   0  0  0  0  0  0  0  0  0  0  0  0
   17.1550   12.9764   10.7299 C   0  0  0  0  0  0  0  0  0  0  0  0
   16.9153   11.6219   10.9337 C   0  0  0  0  0  0  0  0  0  0  0  0
   16.1411   13.8837   10.4136 C   0  0  0  0  0  0  0  0  0  0  0  0
   14.8616   13.3810   10.2749 C   0  0  0  0  0  0  0  0  0  0  0  0
   14.6315   12.0321   10.4655 C   0  0  0  0  0  0  0  0  0  0  0  0
   15.6299   11.1194   10.8135 C   0  0  0  0  0  0  0  0  0  0  0  0
   19.3015   12.7894   11.5744 C   0  0  0  0  0  0  0  0  0  0  0  0
   18.3580   13.5469   10.8095 O   0  0  0  0  0  0  0  0  0  0  0  0
   16.5253   15.1537   10.3386 O   0  0  0  0  0  0  0  0  0  0  0  0
   16.0078   16.0751   11.2893 C   0  0  0  0  0  0  0  0  0  0  0  0
 28 27  1  0  0  0
 22 23  2  0  0  0
 22 21  1  0  0  0
 23 24  1  0  0  0
 17  1  1  0  0  0
 17 18  1  0  0  0
 27 21  1  0  0  0
 21 19  2  0  0  0
  1  2  1  0  0  0
  3  2  2  0  0  0
  2  5  1  0  0  0
 24 18  1  0  0  0
 24 20  2  0  0  0
 19 20  1  0  0  0
 19 26  1  0  0  0
  5  8  2  0  0  0
  5  6  1  0  0  0
  8  9  1  0  0  0
  6  7  2  0  0  0
 25 26  1  0  0  0
  9 10  2  0  0  0
  7 10  1  0  0  0
 10 11  1  0  0  0
 14 11  1  0  0  0
 13 11  2  0  0  0
 11 12  2  0  0  0
  1  4  1  0  0  0
 14 15  1  0  0  0
 14 16  1  0  0  0
M  END
> <minimizedAffinity>
-6.82023

$$$$
3V7X_D7A_A_2002


 28 29  0  0  0  0  0  0  0  0999 V2000
   17.9004    7.5379   13.1581 N   0  0  0  0  0  0  0  0  0  0  0  0
   16.7832    6.8199   13.0335 C   0  0  0  0  0  0  0  0  0  0  0  0
   16.0965    6.9315   11.9839 O   0  0  0  0  0  0  0  0  0  0  0  0
   18.4742    7.4179   13.9490 H   0  0  0  0  0  0  0  0  0  0  0  0
   16.3257    5.9770   14.0848 C   0  0  0  0  0  0  0  0  0  0  0  0
   17.0280    4.8348   14.4016 C   0  0  0  0  0  0  0  0  0  0  0  0
   16.5497    3.9569   15.3739 C   0  0  0  0  0  0  0  0  0  0  0  0
   15.1549    6.2586   14.7978 C   0  0  0  0  0  0  0  0  0  0  0  0
   14.6688    5.3674   15.7932 C   0  0  0  0  0  0  0  0  0  0  0  0
   15.3856    4.1985   16.0636 C   0  0  0  0  0  0  0  0  0  0  0  0
   14.7473    3.0455   17.2437 S   0  0  0  0  0  0  0  0  0  0  0  0
   14.9183    3.7049   18.5522 O   0  0  0  0  0  0  0  0  0  0  0  0
   13.3795    2.7776   16.8333 O   0  0  0  0  0  0  0  0  0  0  0  0
   15.6151    1.6965   17.1814 N   0  0  0  0  0  0  0  0  0  0  0  0
   15.4874    1.2517   16.2724 H   0  0  0  0  0  0  0  0  0  0  0  0
   15.3079    1.0604   17.9173 H   0  0  0  0  0  0  0  0  0  0  0  0
   18.2848    8.5224   12.1042 C   0  0  0  0  0  0  0  0  0  0  0  0
   19.7089    8.9984   12.3401 C   0  0  0  0  0  0  0  0  0  0  0  0
   23.0015    7.5107   11.5037 C   0  0  0  0  0  0  0  0  0  0  0  0
   22.0557    8.3965   12.0084 C   0  0  0  0  0  0  0  0  0  0  0  0
   22.6560    6.2952   10.9082 C   0  0  0  0  0  0  0  0  0  0  0  0
   21.3135    5.9727   10.8592 C   0  0  0  0  0  0  0  0  0  0  0  0
   20.3791    6.8506   11.3741 C   0  0  0  0  0  0  0  0  0  0  0  0
   20.7078    8.0831   11.9430 C   0  0  0  0  0  0  0  0  0  0  0  0
   24.7127    8.7547   12.4416 C   0  0  0  0  0  0  0  0  0  0  0  0
   24.3185    7.7194   11.5351 O   0  0  0  0  0  0  0  0  0  0  0  0
   23.6736    5.6082   10.3998 O   0  0  0  0  0  0  0  0  0  0  0  0
   23.6821    5.3445    9.0029 C   0  0  0  0  0  0  0  0  0  0  0  0
 28 27  1  0  0  0
 22 23  2  0  0  0
 22 21  1  0  0  0
 23 24  1  0  0  0
 17  1  1  0  0  0
 17 18  1  0  0  0
 27 21  1  0  0  0
 21 19  2  0  0  0
  1  2  1  0  0  0
  3  2  2  0  0  0
  2  5  1  0  0  0
 24 18  1  0  0  0
 24 20  2  0  0  0
 19 20  1  0  0  0
 19 26  1  0  0  0
  5  8  2  0  0  0
  5  6  1  0  0  0
  8  9  1  0  0  0
  6  7  2  0  0  0
 25 26  1  0  0  0
  9 10  2  0  0  0
  7 10  1  0  0  0
 10 11  1  0  0  0
 14 11  1  0  0  0
 13 11  2  0  0  0
 11 12  2  0  0  0
  1  4  1  0  0  0
 14 15  1  0  0  0
 14 16  1  0  0  0
M  END
> <minimizedAffinity>
-6.75944

$$$$
3V7X_D7A_A_2002


 28 29  0  0  0  0  0  0  0  0999 V2000
   18.4752    7.1893   13.2468 N   0  0  0  0  0  0  0  0  0  0  0  0
   17.1819    7.2236   13.5716 C   0  0  0  0  0  0  0  0  0  0  0  0
   16.4550    8.1366   13.0988 O   0  0  0  0  0  0  0  0  0  0  0  0
   19.0409    6.4491   13.5654 H   0  0  0  0  0  0  0  0  0  0  0  0
   16.6243    6.2847   14.4841 C   0  0  0  0  0  0  0  0  0  0  0  0
   17.3941    5.2405   14.9482 C   0  0  0  0  0  0  0  0  0  0  0  0
   16.8395    4.2671   15.7787 C   0  0  0  0  0  0  0  0  0  0  0  0
   15.2937    6.3717   14.9089 C   0  0  0  0  0  0  0  0  0  0  0  0
   14.7283    5.3832   15.7600 C   0  0  0  0  0  0  0  0  0  0  0  0
   15.5265    4.3164   16.1821 C   0  0  0  0  0  0  0  0  0  0  0  0
   14.8105    3.0404   17.1764 S   0  0  0  0  0  0  0  0  0  0  0  0
   14.9544    3.5138   18.5661 O   0  0  0  0  0  0  0  0  0  0  0  0
   13.4507    2.8783   16.6907 O   0  0  0  0  0  0  0  0  0  0  0  0
   15.6376    1.6816   16.9615 N   0  0  0  0  0  0  0  0  0  0  0  0
   15.5291    1.3663   15.9975 H   0  0  0  0  0  0  0  0  0  0  0  0
   15.2844    0.9647   17.5954 H   0  0  0  0  0  0  0  0  0  0  0  0
   19.0690    8.2675   12.4027 C   0  0  0  0  0  0  0  0  0  0  0  0
   19.8281    9.2487   13.2809 C   0  0  0  0  0  0  0  0  0  0  0  0
   18.3285   12.3828   11.9837 C   0  0  0  0  0  0  0  0  0  0  0  0
   18.6420   11.0332   12.1025 C   0  0  0  0  0  0  0  0  0  0  0  0
   18.7503   13.3405   12.9090 C   0  0  0  0  0  0  0  0  0  0  0  0
   19.4828   12.8952   13.9925 C   0  0  0  0  0  0  0  0  0  0  0  0
   19.7801   11.5513   14.1123 C   0  0  0  0  0  0  0  0  0  0  0  0
   19.3925   10.5878   13.1784 C   0  0  0  0  0  0  0  0  0  0  0  0
   16.5255   12.0562   10.5701 C   0  0  0  0  0  0  0  0  0  0  0  0
   17.6011   12.9009   10.9930 O   0  0  0  0  0  0  0  0  0  0  0  0
   18.4399   14.5955   12.6013 O   0  0  0  0  0  0  0  0  0  0  0  0
   19.4852   15.5572   12.5440 C   0  0  0  0  0  0  0  0  0  0  0  0
 28 27  1  0  0  0
 22 23  2  0  0  0
 22 21  1  0  0  0
 23 24  1  0  0  0
 17  1  1  0  0  0
 17 18  1  0  0  0
 27 21  1  0  0  0
 21 19  2  0  0  0
  1  2  1  0  0  0
  3  2  2  0  0  0
  2  5  1  0  0  0
 24 18  1  0  0  0
 24 20  2  0  0  0
 19 20  1  0  0  0
 19 26  1  0  0  0
  5  8  2  0  0  0
  5  6  1  0  0  0
  8  9  1  0  0  0
  6  7  2  0  0  0
 25 26  1  0  0  0
  9 10  2  0  0  0
  7 10  1  0  0  0
 10 11  1  0  0  0
 14 11  1  0  0  0
 13 11  2  0  0  0
 11 12  2  0  0  0
  1  4  1  0  0  0
 14 15  1  0  0  0
 14 16  1  0  0  0
M  END
> <minimizedAffinity>
-6.60798

$$$$
3V7X_D7A_A_2002


 28 29  0  0  0  0  0  0  0  0999 V2000
   18.1870    7.2325   11.8358 N   0  0  0  0  0  0  0  0  0  0  0  0
   18.8697    6.5406   10.9223 C   0  0  0  0  0  0  0  0  0  0  0  0
   18.2468    5.7706   10.1447 O   0  0  0  0  0  0  0  0  0  0  0  0
   18.6558    7.8788   12.4119 H   0  0  0  0  0  0  0  0  0  0  0  0
   20.2890    6.6135   10.8490 C   0  0  0  0  0  0  0  0  0  0  0  0
   21.0540    5.5750   11.3331 C   0  0  0  0  0  0  0  0  0  0  0  0
   22.4456    5.6657   11.3425 C   0  0  0  0  0  0  0  0  0  0  0  0
   20.9425    7.7327   10.3208 C   0  0  0  0  0  0  0  0  0  0  0  0
   22.3612    7.8245   10.3246 C   0  0  0  0  0  0  0  0  0  0  0  0
   23.1065    6.7691   10.8576 C   0  0  0  0  0  0  0  0  0  0  0  0
   24.8682    6.9082   10.9388 S   0  0  0  0  0  0  0  0  0  0  0  0
   25.2297    6.3994   12.2754 O   0  0  0  0  0  0  0  0  0  0  0  0
   25.3759    6.1539    9.8054 O   0  0  0  0  0  0  0  0  0  0  0  0
   25.2794    8.4536   10.8003 N   0  0  0  0  0  0  0  0  0  0  0  0
   25.0239    8.7916    9.8725 H   0  0  0  0  0  0  0  0  0  0  0  0
   26.2862    8.5507   10.9321 H   0  0  0  0  0  0  0  0  0  0  0  0
   16.7160    7.0316   11.9888 C   0  0  0  0  0  0  0  0  0  0  0  0
   16.3136    7.2612   13.4364 C   0  0  0  0  0  0  0  0  0  0  0  0
   16.4095    3.7253   14.5513 C   0  0  0  0  0  0  0  0  0  0  0  0
   16.7321    4.8899   13.8631 C   0  0  0  0  0  0  0  0  0  0  0  0
   15.4488    3.6882   15.5646 C   0  0  0  0  0  0  0  0  0  0  0  0
   14.8309    4.8787   15.8957 C   0  0  0  0  0  0  0  0  0  0  0  0
   15.1648    6.0353   15.2177 C   0  0  0  0  0  0  0  0  0  0  0  0
   16.0998    6.0809   14.1811 C   0  0  0  0  0  0  0  0  0  0  0  0
   16.9380    2.1391   12.9512 C   0  0  0  0  0  0  0  0  0  0  0  0
   16.9743    2.5383   14.3254 O   0  0  0  0  0  0  0  0  0  0  0  0
   15.1984    2.4803   16.0588 O   0  0  0  0  0  0  0  0  0  0  0  0
   15.2391    2.3036   17.4688 C   0  0  0  0  0  0  0  0  0  0  0  0
 28 27  1  0  0  0
 22 23  2  0  0  0
 22 21  1  0  0  0
 23 24  1  0  0  0
 17  1  1  0  0  0
 17 18  1  0  0  0
 27 21  1  0  0  0
 21 19  2  0  0  0
  1  2  1  0  0  0
  3  2  2  0  0  0
  2  5  1  0  0  0
 24 18  1  0  0  0
 24 20  2  0  0  0
 19 20  1  0  0  0
 19 26  1  0  0  0
  5  8  2  0  0  0
  5  6  1  0  0  0
  8  9  1  0  0  0
  6  7  2  0  0  0
 25 26  1  0  0  0
  9 10  2  0  0  0
  7 10  1  0  0  0
 10 11  1  0  0  0
 14 11  1  0  0  0
 13 11  2  0  0  0
 11 12  2  0  0  0
  1  4  1  0  0  0
 14 15  1  0  0  0
 14 16  1  0  0  0
M  END
> <minimizedAffinity>
-6.59917

$$$$
3V7X_D7A_A_2002


 28 29  0  0  0  0  0  0  0  0999 V2000
   18.1851    8.0558   14.0328 N   0  0  0  0  0  0  0  0  0  0  0  0
   17.0758    7.3762   13.7381 C   0  0  0  0  0  0  0  0  0  0  0  0
   16.3972    7.7160   12.7333 O   0  0  0  0  0  0  0  0  0  0  0  0
   18.7530    7.7651   14.7826 H   0  0  0  0  0  0  0  0  0  0  0  0
   16.6171    6.3151   14.5681 C   0  0  0  0  0  0  0  0  0  0  0  0
   17.4832    5.3079   14.9334 C   0  0  0  0  0  0  0  0  0  0  0  0
   17.0294    4.2200   15.6786 C   0  0  0  0  0  0  0  0  0  0  0  0
   15.2903    6.2450   15.0077 C   0  0  0  0  0  0  0  0  0  0  0  0
   14.8273    5.1394   15.7722 C   0  0  0  0  0  0  0  0  0  0  0  0
   15.7232    4.1159   16.0936 C   0  0  0  0  0  0  0  0  0  0  0  0
   15.1379    2.6991   16.9764 S   0  0  0  0  0  0  0  0  0  0  0  0
   15.6954    1.5413   16.2520 O   0  0  0  0  0  0  0  0  0  0  0  0
   15.5862    2.8756   18.3472 O   0  0  0  0  0  0  0  0  0  0  0  0
   13.5339    2.6720   16.9209 N   0  0  0  0  0  0  0  0  0  0  0  0
   13.1626    3.4772   17.4250 H   0  0  0  0  0  0  0  0  0  0  0  0
   13.1931    1.8134   17.3534 H   0  0  0  0  0  0  0  0  0  0  0  0
   18.5694    9.2548   13.2314 C   0  0  0  0  0  0  0  0  0  0  0  0
   20.0657    9.2372   12.9651 C   0  0  0  0  0  0  0  0  0  0  0  0
   22.7766   11.6067   13.8542 C   0  0  0  0  0  0  0  0  0  0  0  0
   22.0638   10.6329   13.1631 C   0  0  0  0  0  0  0  0  0  0  0  0
   22.2606   12.2721   14.9688 C   0  0  0  0  0  0  0  0  0  0  0  0
   20.9754   11.9499   15.3602 C   0  0  0  0  0  0  0  0  0  0  0  0
   20.2669   10.9910   14.6618 C   0  0  0  0  0  0  0  0  0  0  0  0
   20.7820   10.2952   13.5658 C   0  0  0  0  0  0  0  0  0  0  0  0
   24.9031   10.9288   13.2425 C   0  0  0  0  0  0  0  0  0  0  0  0
   24.0074   12.0072   13.5323 O   0  0  0  0  0  0  0  0  0  0  0  0
   23.1034   13.1091   15.5647 O   0  0  0  0  0  0  0  0  0  0  0  0
   22.5666   14.1812   16.3283 C   0  0  0  0  0  0  0  0  0  0  0  0
 28 27  1  0  0  0
 22 23  2  0  0  0
 22 21  1  0  0  0
 23 24  1  0  0  0
 17  1  1  0  0  0
 17 18  1  0  0  0
 27 21  1  0  0  0
 21 19  2  0  0  0
  1  2  1  0  0  0
  3  2  2  0  0  0
  2  5  1  0  0  0
 24 18  1  0  0  0
 24 20  2  0  0  0
 19 20  1  0  0  0
 19 26  1  0  0  0
  5  8  2  0  0  0
  5  6  1  0  0  0
  8  9  1  0  0  0
  6  7  2  0  0  0
 25 26  1  0  0  0
  9 10  2  0  0  0
  7 10  1  0  0  0
 10 11  1  0  0  0
 14 11  1  0  0  0
 13 11  2  0  0  0
 11 12  2  0  0  0
  1  4  1  0  0  0
 14 15  1  0  0  0
 14 16  1  0  0  0
M  END
> <minimizedAffinity>
-6.52220

$$$$
