3GY3_PNT_A_246
  RCSB PDB12061708483D
Coordinates from PDB:3GY3:A:246 Model:1 without hydrogens
 25 26  0  0  0  0            999 V2000
   -9.6230   21.1830   50.0110   C 0  0  0  0  0  0  0  0  0  0  0  0
   -9.6360   19.9500   49.3440   C 0  0  0  0  0  0  0  0  0  0  0  0
   -9.1680   18.8130   49.9850   C 0  0  0  0  0  0  0  0  0  0  0  0
   -8.6880   18.9130   51.2910   C 0  0  0  0  0  0  0  0  0  0  0  0
   -8.6590   20.1490   51.9470   C 0  0  0  0  0  0  0  0  0  0  0  0
   -9.1160   21.2900   51.3060   C 0  0  0  0  0  0  0  0  0  0  0  0
  -10.6310   22.3540   48.1270   C 0  0  0  0  0  0  0  0  0  0  0  0
  -11.3130   23.7070   47.9560   C 0  0  0  0  0  0  0  0  0  0  0  0
   -8.1870   17.7040   52.0120   C 0  0  0  0  0  0  0  0  0  0  0  0
  -12.5790   23.8290   48.8010   C 0  0  0  0  0  0  0  0  0  0  0  0
  -13.3640   25.5950   51.6180   C 0  0  0  0  0  0  0  0  0  0  0  0
  -14.5970   26.2610   51.5370   C 0  0  0  0  0  0  0  0  0  0  0  0
  -15.6400   25.9190   52.3850   C 0  0  0  0  0  0  0  0  0  0  0  0
  -15.4450   24.9150   53.3170   C 0  0  0  0  0  0  0  0  0  0  0  0
  -14.2130   24.2490   53.4130   C 0  0  0  0  0  0  0  0  0  0  0  0
  -13.1620   24.5850   52.5550   C 0  0  0  0  0  0  0  0  0  0  0  0
  -12.5390   26.3230   49.4130   C 0  0  0  0  0  0  0  0  0  0  0  0
  -13.1980   25.2060   48.5920   C 0  0  0  0  0  0  0  0  0  0  0  0
  -16.5630   24.5160   54.2220   C 0  0  0  0  0  0  0  0  0  0  0  0
  -10.0520   22.3380   49.4220   O 0  0  0  0  0  0  0  0  0  0  0  0
  -12.3390   25.9400   50.7820   O 0  0  0  0  0  0  0  0  0  0  0  0
   -8.5890   16.5530   51.6950   N 0  0  0  0  0  0  0  0  0  0  0  0
   -7.3320   17.8570   53.0220   N 0  0  0  0  0  0  0  0  0  0  0  0
  -17.3890   25.3750   54.6390   N 0  0  0  0  0  0  0  0  0  0  0  0
  -16.6890   23.2220   54.5320   N 0  0  0  0  0  0  0  0  0  0  0  0
  1  2  2  0  0  0  0
  1  6  1  0  0  0  0
  1 20  1  0  0  0  0
  2  3  1  0  0  0  0
  3  4  2  0  0  0  0
  4  5  1  0  0  0  0
  4  9  1  0  0  0  0
  5  6  2  0  0  0  0
  7  8  1  0  0  0  0
  7 20  1  0  0  0  0
  8 10  1  0  0  0  0
  9 22  2  0  0  0  0
  9 23  1  0  0  0  0
 10 18  1  0  0  0  0
 11 12  2  0  0  0  0
 11 16  1  0  0  0  0
 11 21  1  0  0  0  0
 12 13  1  0  0  0  0
 13 14  2  0  0  0  0
 14 15  1  0  0  0  0
 14 19  1  0  0  0  0
 15 16  2  0  0  0  0
 17 18  1  0  0  0  0
 17 21  1  0  0  0  0
 19 24  2  0  0  0  0
 19 25  1  0  0  0  0
A    1
C1
A    2
C2
A    3
C3
A    4
C4
A    5
C5
A    6
C6
A    7
C7
A    8
C8
A    9
C9
A   10
C10
A   11
C1'
A   12
C2'
A   13
C3'
A   14
C4'
A   15
C5'
A   16
C6'
A   17
C7'
A   18
C8'
A   19
C9'
A   20
O1
A   21
O1'
A   22
N1
A   23
N2
A   24
N1'
A   25
N2'
M  END
>  <InstanceId>
3GY3_PNT_A_246

>  <ChemCompId>
PNT

>  <PdbId>
3GY3

>  <ChainId>
A

>  <ResidueNumber>
246

>  <InsertionCode>


>  <Model>
1

>  <AltIds>


>  <MissingHeavyAtoms>
0

>  <ObservedFormula>
C19 N4 O2

>  <Name>
1,5-BIS(4-AMIDINOPHENOXY)PENTANE

>  <SystematicName>
4-[5-(4-carbamimidoylphenoxy)pentoxy]benzenecarboximidamide

>  <Synonyms>


>  <Type>
NON-POLYMER

>  <Formula>
C19 H24 N4 O2

>  <MolecularWeight>
340.419

>  <ModifiedDate>
2011-06-04

>  <Parent>


>  <OneLetterCode>


>  <SubcomponentList>


>  <AmbiguousFlag>
N

>  <InChI>
InChI=1S/C19H24N4O2/c20-18(21)14-4-8-16(9-5-14)24-12-2-1-3-13-25-17-10-6-15(7-11-17)19(22)23/h4-11H,1-3,12-13H2,(H3,20,21)(H3,22,23)

>  <InChIKey>
XDRYMKDFEDOLFX-UHFFFAOYSA-N

>  <SMILES>
c1cc(ccc1C(=N)N)OCCCCCOc2ccc(cc2)C(=N)N

$$$$
