5OEI_OOG_A_401
  RCSB PDB12061719183D
Coordinates from PDB:5OEI:A:401 Model:1 without hydrogens
 11 10  0  0  0  0            999 V2000
   11.3580  194.2010   86.3540   C 0  0  0  0  0  0  0  0  0  0  0  0
   10.0720  194.5930   85.6440   C 0  0  0  0  0  0  0  0  0  0  0  0
    9.1620  193.3750   85.4450   C 0  0  0  0  0  0  0  0  0  0  0  0
    7.0500  192.4510   84.2830   C 0  0  0  0  0  0  0  0  0  0  0  0
    7.4040  191.2670   84.5940   O 0  0  0  0  0  0  0  0  0  0  0  0
    5.9420  192.6960   83.7700   O 0  0  0  0  0  0  0  0  0  0  0  0
    7.9110  193.6220   84.6530   C 0  0  0  0  0  0  0  0  0  0  0  0
   12.4080  195.3290   86.3940   C 0  0  0  0  0  0  0  0  0  0  0  0
   13.2280  195.4030   85.4030   O 0  0  0  0  0  0  0  0  0  0  0  0
   12.4630  196.1390   87.4000   O 0  0  0  0  0  0  0  0  0  0  0  0
    7.5320  194.7870   84.4250   O 0  0  0  0  0  0  0  0  0  0  0  0
  1  2  1  0  0  0  0
  1  8  1  0  0  0  0
  2  3  1  0  0  0  0
  3  7  1  0  0  0  0
  4  5  1  0  0  0  0
  4  6  2  0  0  0  0
  4  7  1  0  0  0  0
  7 11  2  0  0  0  0
  8  9  2  0  0  0  0
  8 10  1  0  0  0  0
A    1
C2
A    2
C3
A    3
C4
A    4
C6
A    5
O4
A    6
O3
A    7
C5
A    8
C1
A    9
O1
A   10
O2
A   11
O5
M  END
>  <InstanceId>
5OEI_OOG_A_401

>  <ChemCompId>
OOG

>  <PdbId>
5OEI

>  <ChainId>
A

>  <ResidueNumber>
401

>  <InsertionCode>


>  <Model>
1

>  <AltIds>


>  <MissingHeavyAtoms>
0

>  <ObservedFormula>
C6 O5

>  <Name>
2-OXOADIPIC ACID

>  <SystematicName>
2-oxidanylidenehexanedioic acid

>  <Synonyms>


>  <Type>
non-polymer

>  <Formula>
C6 H8 O5

>  <MolecularWeight>
160.125

>  <ModifiedDate>
2015-01-23

>  <Parent>


>  <OneLetterCode>


>  <SubcomponentList>


>  <AmbiguousFlag>
N

>  <InChI>
InChI=1S/C6H8O5/c7-4(6(10)11)2-1-3-5(8)9/h1-3H2,(H,8,9)(H,10,11)

>  <InChIKey>
FGSBNBBHOZHUBO-UHFFFAOYSA-N

>  <SMILES>
C(CC(=O)C(=O)O)CC(=O)O

$$$$
