4AZG_OAN_A_2040
  RCSB PDB12061711453D
Coordinates from PDB:4AZG:A:2040 Model:1 without hydrogens
 25 26  0  0  0  0            999 V2000
   18.2330   34.4060   57.3620   C 0  0  0  0  0  0  0  0  0  0  0  0
   19.2330   34.6110   56.2180   C 0  0  0  0  0  0  0  0  0  0  0  0
   19.5060   33.6890   55.4360   O 0  0  0  0  0  0  0  0  0  0  0  0
   19.6990   35.8610   56.1330   N 0  0  0  0  0  0  0  0  0  0  0  0
   20.6400   36.3360   55.1070   C 0  0  0  0  0  0  0  0  0  0  0  0
   19.8810   36.5170   53.7740   C 0  0  0  0  0  0  0  0  0  0  0  0
   19.2890   37.8250   53.6570   O 0  0  0  0  0  0  0  0  0  0  0  0
   20.7800   36.1850   52.5830   C 0  0  0  0  0  0  0  0  0  0  0  0
   20.0260   36.3530   51.3990   O 0  0  0  0  0  0  0  0  0  0  0  0
   21.2440   34.7310   52.6860   C 0  0  0  0  0  0  0  0  0  0  0  0
   22.1890   34.2630   51.6220   C 0  0  0  0  0  0  0  0  0  0  0  0
   23.4270   34.9610   51.7330   O 0  0  0  0  0  0  0  0  0  0  0  0
   22.0140   34.5160   53.8430   O 0  0  0  0  0  0  0  0  0  0  0  0
   21.8240   35.3540   54.9340   C 0  0  0  0  0  0  0  0  0  0  0  0
   22.7520   35.2680   55.8920   N 0  0  0  0  0  0  0  0  0  0  0  0
   23.7790   34.3930   55.6050   O 0  0  0  0  0  0  0  0  0  0  0  0
   24.9000   34.6160   56.3480   C 0  0  0  0  0  0  0  0  0  0  0  0
   25.7440   33.7260   56.4790   O 0  0  0  0  0  0  0  0  0  0  0  0
   25.0010   35.8200   56.9170   N 0  0  0  0  0  0  0  0  0  0  0  0
   25.9740   36.2340   57.7500   C 0  0  0  0  0  0  0  0  0  0  0  0
   25.6230   36.4920   59.0910   C 0  0  0  0  0  0  0  0  0  0  0  0
   26.5700   36.9280   60.0100   C 0  0  0  0  0  0  0  0  0  0  0  0
   27.8790   37.1220   59.5790   C 0  0  0  0  0  0  0  0  0  0  0  0
   28.2490   36.8740   58.2410   C 0  0  0  0  0  0  0  0  0  0  0  0
   27.2990   36.4260   57.3130   C 0  0  0  0  0  0  0  0  0  0  0  0
  1  2  1  0  0  0  0
  2  3  2  0  0  0  0
  2  4  1  0  0  0  0
  4  5  1  0  0  0  0
  5  6  1  0  0  0  0
  5 14  1  0  0  0  0
  6  7  1  0  0  0  0
  6  8  1  0  0  0  0
  8  9  1  0  0  0  0
  8 10  1  0  0  0  0
 10 11  1  0  0  0  0
 10 13  1  0  0  0  0
 11 12  1  0  0  0  0
 13 14  1  0  0  0  0
 14 15  2  0  0  0  0
 15 16  1  0  0  0  0
 16 17  1  0  0  0  0
 17 18  2  0  0  0  0
 17 19  1  0  0  0  0
 19 20  1  0  0  0  0
 20 21  2  0  0  0  0
 20 25  1  0  0  0  0
 21 22  1  0  0  0  0
 22 23  2  0  0  0  0
 23 24  1  0  0  0  0
 24 25  2  0  0  0  0
A    1
CAH
A    2
CAG
A    3
OAN
A    4
NAI
A    5
CAB
A    6
CAC
A    7
OAJ
A    8
CAD
A    9
OAK
A   10
CAE
A   11
CAF
A   12
OAM
A   13
OAL
A   14
CAA
A   15
NAY
A   16
OAQ
A   17
CAP
A   18
OAR
A   19
NAO
A   20
CAS
A   21
CAT
A   22
CAU
A   23
CAV
A   24
CAW
A   25
CAX
M  END
>  <InstanceId>
4AZG_OAN_A_2040

>  <ChemCompId>
OAN

>  <PdbId>
4AZG

>  <ChainId>
A

>  <ResidueNumber>
2040

>  <InsertionCode>


>  <Model>
1

>  <AltIds>


>  <MissingHeavyAtoms>
0

>  <ObservedFormula>
C15 N3 O7

>  <Name>
O-(2-ACETAMIDO-2-DEOXY D-GLUCOPYRANOSYLIDENE) AMINO-N-PHENYLCARBAMATE

>  <SystematicName>
[(Z)-[(3R,4R,5S,6R)-3-acetamido-6-(hydroxymethyl)-4,5-bis(oxidanyl)oxan-2-ylidene]amino] N-phenylcarbamate

>  <Synonyms>
PUGNAc

>  <Type>
NON-POLYMER

>  <Formula>
C15 H19 N3 O7

>  <MolecularWeight>
353.327

>  <ModifiedDate>
2011-08-15

>  <Parent>


>  <OneLetterCode>


>  <SubcomponentList>


>  <AmbiguousFlag>
N

>  <InChI>
InChI=1S/C15H19N3O7/c1-8(20)16-11-13(22)12(21)10(7-19)24-14(11)18-25-15(23)17-9-5-3-2-4-6-9/h2-6,10-13,19,21-22H,7H2,1H3,(H,16,20)(H,17,23)/b18-14-/t10-,11-,12-,13-/m1/s1

>  <InChIKey>
PBLNJFVQMUMOJY-JXZOILRNSA-N

>  <SMILES>
CC(=O)N[C@@H]\1[C@H]([C@@H]([C@H](O/C1=N\OC(=O)Nc2ccccc2)CO)O)O

$$$$
