4AZG_OAN_A_2040


 30 31  0  0  0  0  0  0  0  0999 V2000
   20.8025   36.5261   55.1536 C   0  0  0  0  0  0  0  0  0  0  0  0
   19.9579   36.5539   53.8607 C   0  0  0  0  0  0  0  0  0  0  0  0
   19.2394   37.7927   53.7054 O   0  0  0  0  0  0  0  0  0  0  0  0
   20.8177   36.2316   52.6385 C   0  0  0  0  0  0  0  0  0  0  0  0
   19.9875   36.2561   51.4945 O   0  0  0  0  0  0  0  0  0  0  0  0
   21.4220   34.8352   52.7959 C   0  0  0  0  0  0  0  0  0  0  0  0
   22.2711   34.7637   53.9147 O   0  0  0  0  0  0  0  0  0  0  0  0
   22.0628   35.6472   54.9657 C   0  0  0  0  0  0  0  0  0  0  0  0
   23.0458   35.7060   55.8693 N   0  0  0  0  0  0  0  0  0  0  0  0
   19.8707   38.5245   53.6232 H   0  0  0  0  0  0  0  0  0  0  0  0
   19.2774   35.6031   51.5962 H   0  0  0  0  0  0  0  0  0  0  0  0
   18.4930   34.6220   57.5293 C   0  0  0  0  0  0  0  0  0  0  0  0
   19.3217   34.8622   56.2619 C   0  0  0  0  0  0  0  0  0  0  0  0
   19.3134   34.0457   55.3295 O   0  0  0  0  0  0  0  0  0  0  0  0
   19.9682   36.0322   56.2599 N   0  0  0  0  0  0  0  0  0  0  0  0
   19.8797   36.6045   57.0561 H   0  0  0  0  0  0  0  0  0  0  0  0
   22.3473   34.3898   51.7052 C   0  0  0  0  0  0  0  0  0  0  0  0
   23.6793   34.8018   52.0021 O   0  0  0  0  0  0  0  0  0  0  0  0
   23.7109   35.7689   52.0709 H   0  0  0  0  0  0  0  0  0  0  0  0
   24.1337   34.9120   55.5711 O   0  0  0  0  0  0  0  0  0  0  0  0
   25.1545   35.0390   56.4657 C   0  0  0  0  0  0  0  0  0  0  0  0
   25.7623   34.0401   56.8585 O   0  0  0  0  0  0  0  0  0  0  0  0
   25.4229   36.2790   56.8826 N   0  0  0  0  0  0  0  0  0  0  0  0
   24.9071   37.0073   56.4669 H   0  0  0  0  0  0  0  0  0  0  0  0
   26.3279   36.6334   57.8140 C   0  0  0  0  0  0  0  0  0  0  0  0
   25.8512   36.9604   59.1000 C   0  0  0  0  0  0  0  0  0  0  0  0
   26.7226   37.3415   60.1134 C   0  0  0  0  0  0  0  0  0  0  0  0
   28.0840   37.4104   59.8327 C   0  0  0  0  0  0  0  0  0  0  0  0
   28.5800   37.0918   58.5516 C   0  0  0  0  0  0  0  0  0  0  0  0
   27.7056   36.6988   57.5292 C   0  0  0  0  0  0  0  0  0  0  0  0
 12 13  1  0  0  0
 13 14  2  0  0  0
 13 15  1  0  0  0
 15  1  1  0  0  0
  1  2  1  0  0  0
  1  8  1  0  0  0
  2  3  1  0  0  0
  2  4  1  0  0  0
  4  5  1  0  0  0
  4  6  1  0  0  0
  6 17  1  0  0  0
  6  7  1  0  0  0
 17 18  1  0  0  0
  7  8  1  0  0  0
  8  9  2  0  0  0
  9 20  1  0  0  0
 20 21  1  0  0  0
 21 22  2  0  0  0
 21 23  1  0  0  0
 23 25  1  0  0  0
 25 26  2  0  0  0
 25 30  1  0  0  0
 26 27  1  0  0  0
 27 28  2  0  0  0
 28 29  1  0  0  0
 29 30  2  0  0  0
 15 16  1  0  0  0
  3 10  1  0  0  0
  5 11  1  0  0  0
 18 19  1  0  0  0
 23 24  1  0  0  0
M  END
> <minimizedAffinity>
-8.84899

$$$$
4AZG_OAN_A_2040


 30 31  0  0  0  0  0  0  0  0999 V2000
   24.3100   38.0075   53.5960 C   0  0  0  0  0  0  0  0  0  0  0  0
   22.8639   38.2701   54.0709 C   0  0  0  0  0  0  0  0  0  0  0  0
   22.5635   39.6766   54.1515 O   0  0  0  0  0  0  0  0  0  0  0  0
   21.8572   37.5169   53.2014 C   0  0  0  0  0  0  0  0  0  0  0  0
   20.5595   37.7835   53.6949 O   0  0  0  0  0  0  0  0  0  0  0  0
   22.1336   36.0149   53.2887 C   0  0  0  0  0  0  0  0  0  0  0  0
   23.4105   35.6957   52.7933 O   0  0  0  0  0  0  0  0  0  0  0  0
   24.3964   36.6735   52.8156 C   0  0  0  0  0  0  0  0  0  0  0  0
   25.4935   36.3984   52.1035 N   0  0  0  0  0  0  0  0  0  0  0  0
   22.6263   40.0718   53.2679 H   0  0  0  0  0  0  0  0  0  0  0  0
   20.4990   37.4940   54.6187 H   0  0  0  0  0  0  0  0  0  0  0  0
   26.6335   38.7911   56.5270 C   0  0  0  0  0  0  0  0  0  0  0  0
   25.6939   39.0952   55.3542 C   0  0  0  0  0  0  0  0  0  0  0  0
   25.4868   40.2610   54.9880 O   0  0  0  0  0  0  0  0  0  0  0  0
   25.2037   38.0004   54.7644 N   0  0  0  0  0  0  0  0  0  0  0  0
   25.4591   37.1265   55.1389 H   0  0  0  0  0  0  0  0  0  0  0  0
   21.2687   35.1344   52.4397 C   0  0  0  0  0  0  0  0  0  0  0  0
   22.0323   34.6014   51.3604 O   0  0  0  0  0  0  0  0  0  0  0  0
   22.3761   35.3282   50.8176 H   0  0  0  0  0  0  0  0  0  0  0  0
   25.4351   35.2032   51.4174 O   0  0  0  0  0  0  0  0  0  0  0  0
   25.7292   34.1217   52.1936 C   0  0  0  0  0  0  0  0  0  0  0  0
   26.8553   33.9966   52.6812 O   0  0  0  0  0  0  0  0  0  0  0  0
   24.7472   33.2326   52.3632 N   0  0  0  0  0  0  0  0  0  0  0  0
   23.8738   33.4570   51.9684 H   0  0  0  0  0  0  0  0  0  0  0  0
   24.8316   32.0605   53.0198 C   0  0  0  0  0  0  0  0  0  0  0  0
   24.6376   32.0761   54.4163 C   0  0  0  0  0  0  0  0  0  0  0  0
   24.7148   30.9078   55.1651 C   0  0  0  0  0  0  0  0  0  0  0  0
   25.0036   29.7136   54.5115 C   0  0  0  0  0  0  0  0  0  0  0  0
   25.2054   29.6779   53.1162 C   0  0  0  0  0  0  0  0  0  0  0  0
   25.1201   30.8523   52.3562 C   0  0  0  0  0  0  0  0  0  0  0  0
 12 13  1  0  0  0
 13 14  2  0  0  0
 13 15  1  0  0  0
 15  1  1  0  0  0
  1  2  1  0  0  0
  1  8  1  0  0  0
  2  3  1  0  0  0
  2  4  1  0  0  0
  4  5  1  0  0  0
  4  6  1  0  0  0
  6 17  1  0  0  0
  6  7  1  0  0  0
 17 18  1  0  0  0
  7  8  1  0  0  0
  8  9  2  0  0  0
  9 20  1  0  0  0
 20 21  1  0  0  0
 21 22  2  0  0  0
 21 23  1  0  0  0
 23 25  1  0  0  0
 25 26  2  0  0  0
 25 30  1  0  0  0
 26 27  1  0  0  0
 27 28  2  0  0  0
 28 29  1  0  0  0
 29 30  2  0  0  0
 15 16  1  0  0  0
  3 10  1  0  0  0
  5 11  1  0  0  0
 18 19  1  0  0  0
 23 24  1  0  0  0
M  END
> <minimizedAffinity>
-8.09660

$$$$
4AZG_OAN_A_2040


 30 31  0  0  0  0  0  0  0  0999 V2000
   23.2984   34.7921   54.0230 C   0  0  0  0  0  0  0  0  0  0  0  0
   22.3440   35.3893   52.9656 C   0  0  0  0  0  0  0  0  0  0  0  0
   21.1933   34.5537   52.7359 O   0  0  0  0  0  0  0  0  0  0  0  0
   21.9504   36.8208   53.3300 C   0  0  0  0  0  0  0  0  0  0  0  0
   21.0938   37.3151   52.3198 O   0  0  0  0  0  0  0  0  0  0  0  0
   23.2064   37.6913   53.3997 C   0  0  0  0  0  0  0  0  0  0  0  0
   24.0860   37.2483   54.4036 O   0  0  0  0  0  0  0  0  0  0  0  0
   24.0375   35.9153   54.7900 C   0  0  0  0  0  0  0  0  0  0  0  0
   24.7021   35.6183   55.9109 N   0  0  0  0  0  0  0  0  0  0  0  0
   20.6736   34.4876   53.5523 H   0  0  0  0  0  0  0  0  0  0  0  0
   21.5539   37.2926   51.4661 H   0  0  0  0  0  0  0  0  0  0  0  0
   25.6449   31.9782   52.9369 C   0  0  0  0  0  0  0  0  0  0  0  0
   24.6068   32.6862   53.8154 C   0  0  0  0  0  0  0  0  0  0  0  0
   24.2127   32.1768   54.8743 O   0  0  0  0  0  0  0  0  0  0  0  0
   24.2479   33.8888   53.3550 N   0  0  0  0  0  0  0  0  0  0  0  0
   24.6479   34.1916   52.5079 H   0  0  0  0  0  0  0  0  0  0  0  0
   22.9991   39.1172   53.8093 C   0  0  0  0  0  0  0  0  0  0  0  0
   23.8709   39.4423   54.8893 O   0  0  0  0  0  0  0  0  0  0  0  0
   23.6802   38.8636   55.6441 H   0  0  0  0  0  0  0  0  0  0  0  0
   25.2820   36.7073   56.5278 O   0  0  0  0  0  0  0  0  0  0  0  0
   26.4244   36.3981   57.2042 C   0  0  0  0  0  0  0  0  0  0  0  0
   26.9073   35.2661   57.1203 O   0  0  0  0  0  0  0  0  0  0  0  0
   26.9501   37.3724   57.9512 N   0  0  0  0  0  0  0  0  0  0  0  0
   26.5090   38.2514   57.9065 H   0  0  0  0  0  0  0  0  0  0  0  0
   28.0222   37.2735   58.7590 C   0  0  0  0  0  0  0  0  0  0  0  0
   27.8149   37.4273   60.1452 C   0  0  0  0  0  0  0  0  0  0  0  0
   28.8725   37.3445   61.0430 C   0  0  0  0  0  0  0  0  0  0  0  0
   30.1534   37.1202   60.5472 C   0  0  0  0  0  0  0  0  0  0  0  0
   30.3822   36.9684   59.1639 C   0  0  0  0  0  0  0  0  0  0  0  0
   29.3172   37.0426   58.2558 C   0  0  0  0  0  0  0  0  0  0  0  0
 12 13  1  0  0  0
 13 14  2  0  0  0
 13 15  1  0  0  0
 15  1  1  0  0  0
  1  2  1  0  0  0
  1  8  1  0  0  0
  2  3  1  0  0  0
  2  4  1  0  0  0
  4  5  1  0  0  0
  4  6  1  0  0  0
  6 17  1  0  0  0
  6  7  1  0  0  0
 17 18  1  0  0  0
  7  8  1  0  0  0
  8  9  2  0  0  0
  9 20  1  0  0  0
 20 21  1  0  0  0
 21 22  2  0  0  0
 21 23  1  0  0  0
 23 25  1  0  0  0
 25 26  2  0  0  0
 25 30  1  0  0  0
 26 27  1  0  0  0
 27 28  2  0  0  0
 28 29  1  0  0  0
 29 30  2  0  0  0
 15 16  1  0  0  0
  3 10  1  0  0  0
  5 11  1  0  0  0
 18 19  1  0  0  0
 23 24  1  0  0  0
M  END
> <minimizedAffinity>
-7.88143

$$$$
4AZG_OAN_A_2040


 30 31  0  0  0  0  0  0  0  0999 V2000
   26.2828   33.6053   51.4638 C   0  0  0  0  0  0  0  0  0  0  0  0
   27.5573   33.6764   50.5941 C   0  0  0  0  0  0  0  0  0  0  0  0
   27.6126   32.6163   49.6203 O   0  0  0  0  0  0  0  0  0  0  0  0
   27.7045   35.0553   49.9508 C   0  0  0  0  0  0  0  0  0  0  0  0
   28.8929   35.0617   49.1850 O   0  0  0  0  0  0  0  0  0  0  0  0
   27.8017   36.1193   51.0455 C   0  0  0  0  0  0  0  0  0  0  0  0
   26.6334   36.1632   51.8272 O   0  0  0  0  0  0  0  0  0  0  0  0
   25.8491   35.0206   51.9164 C   0  0  0  0  0  0  0  0  0  0  0  0
   24.6365   35.1973   52.4500 N   0  0  0  0  0  0  0  0  0  0  0  0
   26.8684   32.7039   49.0044 H   0  0  0  0  0  0  0  0  0  0  0  0
   29.6495   34.8691   49.7606 H   0  0  0  0  0  0  0  0  0  0  0  0
   26.7117   30.7467   53.9633 C   0  0  0  0  0  0  0  0  0  0  0  0
   26.4223   31.3999   52.6068 C   0  0  0  0  0  0  0  0  0  0  0  0
   26.0594   30.7206   51.6357 O   0  0  0  0  0  0  0  0  0  0  0  0
   26.5395   32.7315   52.6189 N   0  0  0  0  0  0  0  0  0  0  0  0
   26.8177   33.1580   53.4614 H   0  0  0  0  0  0  0  0  0  0  0  0
   27.8876   37.5402   50.5788 C   0  0  0  0  0  0  0  0  0  0  0  0
   27.7533   37.5929   49.1606 O   0  0  0  0  0  0  0  0  0  0  0  0
   28.4659   37.0793   48.7491 H   0  0  0  0  0  0  0  0  0  0  0  0
   24.3482   36.5070   52.7731 O   0  0  0  0  0  0  0  0  0  0  0  0
   23.2821   36.6323   53.6134 C   0  0  0  0  0  0  0  0  0  0  0  0
   23.2447   37.5522   54.4343 O   0  0  0  0  0  0  0  0  0  0  0  0
   22.3266   35.7066   53.4965 N   0  0  0  0  0  0  0  0  0  0  0  0
   22.4362   35.0459   52.7749 H   0  0  0  0  0  0  0  0  0  0  0  0
   21.2288   35.5859   54.2660 C   0  0  0  0  0  0  0  0  0  0  0  0
   21.2910   34.7021   55.3628 C   0  0  0  0  0  0  0  0  0  0  0  0
   20.1971   34.5188   56.2003 C   0  0  0  0  0  0  0  0  0  0  0  0
   19.0238   35.2162   55.9286 C   0  0  0  0  0  0  0  0  0  0  0  0
   18.9400   36.1012   54.8339 C   0  0  0  0  0  0  0  0  0  0  0  0
   20.0435   36.2955   53.9919 C   0  0  0  0  0  0  0  0  0  0  0  0
 12 13  1  0  0  0
 13 14  2  0  0  0
 13 15  1  0  0  0
 15  1  1  0  0  0
  1  2  1  0  0  0
  1  8  1  0  0  0
  2  3  1  0  0  0
  2  4  1  0  0  0
  4  5  1  0  0  0
  4  6  1  0  0  0
  6 17  1  0  0  0
  6  7  1  0  0  0
 17 18  1  0  0  0
  7  8  1  0  0  0
  8  9  2  0  0  0
  9 20  1  0  0  0
 20 21  1  0  0  0
 21 22  2  0  0  0
 21 23  1  0  0  0
 23 25  1  0  0  0
 25 26  2  0  0  0
 25 30  1  0  0  0
 26 27  1  0  0  0
 27 28  2  0  0  0
 28 29  1  0  0  0
 29 30  2  0  0  0
 15 16  1  0  0  0
  3 10  1  0  0  0
  5 11  1  0  0  0
 18 19  1  0  0  0
 23 24  1  0  0  0
M  END
> <minimizedAffinity>
-7.68533

$$$$
4AZG_OAN_A_2040


 30 31  0  0  0  0  0  0  0  0999 V2000
   27.4346   34.1574   52.0481 C   0  0  0  0  0  0  0  0  0  0  0  0
   28.5898   34.5284   51.0922 C   0  0  0  0  0  0  0  0  0  0  0  0
   29.6430   33.5457   51.1026 O   0  0  0  0  0  0  0  0  0  0  0  0
   28.0676   34.7954   49.6805 C   0  0  0  0  0  0  0  0  0  0  0  0
   29.1655   35.1446   48.8612 O   0  0  0  0  0  0  0  0  0  0  0  0
   27.0735   35.9575   49.7176 C   0  0  0  0  0  0  0  0  0  0  0  0
   25.9523   35.6521   50.5098 O   0  0  0  0  0  0  0  0  0  0  0  0
   26.0881   34.7084   51.5195 C   0  0  0  0  0  0  0  0  0  0  0  0
   24.9440   34.2755   52.0579 N   0  0  0  0  0  0  0  0  0  0  0  0
   29.2975   32.6981   50.7815 H   0  0  0  0  0  0  0  0  0  0  0  0
   29.5996   35.9337   49.2213 H   0  0  0  0  0  0  0  0  0  0  0  0
   28.5711   34.8004   55.6395 C   0  0  0  0  0  0  0  0  0  0  0  0
   28.4484   34.0349   54.3168 C   0  0  0  0  0  0  0  0  0  0  0  0
   28.9313   32.9007   54.1885 O   0  0  0  0  0  0  0  0  0  0  0  0
   27.7357   34.6817   53.3890 N   0  0  0  0  0  0  0  0  0  0  0  0
   27.3873   35.5731   53.6199 H   0  0  0  0  0  0  0  0  0  0  0  0
   26.4182   36.3070   48.4166 C   0  0  0  0  0  0  0  0  0  0  0  0
   27.4108   36.6354   47.4475 O   0  0  0  0  0  0  0  0  0  0  0  0
   27.9269   37.3957   47.7581 H   0  0  0  0  0  0  0  0  0  0  0  0
   23.8112   34.8044   51.4751 O   0  0  0  0  0  0  0  0  0  0  0  0
   22.6781   34.5802   52.1993 C   0  0  0  0  0  0  0  0  0  0  0  0
   21.8976   33.6845   51.8675 O   0  0  0  0  0  0  0  0  0  0  0  0
   22.4765   35.3866   53.2445 N   0  0  0  0  0  0  0  0  0  0  0  0
   23.1885   36.0359   53.4465 H   0  0  0  0  0  0  0  0  0  0  0  0
   21.3979   35.4010   54.0497 C   0  0  0  0  0  0  0  0  0  0  0  0
   21.4468   34.6235   55.2249 C   0  0  0  0  0  0  0  0  0  0  0  0
   20.3709   34.5818   56.1037 C   0  0  0  0  0  0  0  0  0  0  0  0
   19.2283   35.3144   55.7957 C   0  0  0  0  0  0  0  0  0  0  0  0
   19.1581   36.0945   54.6230 C   0  0  0  0  0  0  0  0  0  0  0  0
   20.2440   36.1461   53.7384 C   0  0  0  0  0  0  0  0  0  0  0  0
 12 13  1  0  0  0
 13 14  2  0  0  0
 13 15  1  0  0  0
 15  1  1  0  0  0
  1  2  1  0  0  0
  1  8  1  0  0  0
  2  3  1  0  0  0
  2  4  1  0  0  0
  4  5  1  0  0  0
  4  6  1  0  0  0
  6 17  1  0  0  0
  6  7  1  0  0  0
 17 18  1  0  0  0
  7  8  1  0  0  0
  8  9  2  0  0  0
  9 20  1  0  0  0
 20 21  1  0  0  0
 21 22  2  0  0  0
 21 23  1  0  0  0
 23 25  1  0  0  0
 25 26  2  0  0  0
 25 30  1  0  0  0
 26 27  1  0  0  0
 27 28  2  0  0  0
 28 29  1  0  0  0
 29 30  2  0  0  0
 15 16  1  0  0  0
  3 10  1  0  0  0
  5 11  1  0  0  0
 18 19  1  0  0  0
 23 24  1  0  0  0
M  END
> <minimizedAffinity>
-7.67594

$$$$
4AZG_OAN_A_2040


 30 31  0  0  0  0  0  0  0  0999 V2000
   21.6065   35.5002   54.8225 C   0  0  0  0  0  0  0  0  0  0  0  0
   21.2126   35.1076   53.3815 C   0  0  0  0  0  0  0  0  0  0  0  0
   20.2509   36.0165   52.8124 O   0  0  0  0  0  0  0  0  0  0  0  0
   22.4509   34.9548   52.4982 C   0  0  0  0  0  0  0  0  0  0  0  0
   22.0268   34.5801   51.2027 O   0  0  0  0  0  0  0  0  0  0  0  0
   23.3529   33.8607   53.0721 C   0  0  0  0  0  0  0  0  0  0  0  0
   23.8150   34.1948   54.3576 O   0  0  0  0  0  0  0  0  0  0  0  0
   23.0614   35.0697   55.1291 C   0  0  0  0  0  0  0  0  0  0  0  0
   23.6724   35.5465   56.2180 N   0  0  0  0  0  0  0  0  0  0  0  0
   20.6421   36.9016   52.7465 H   0  0  0  0  0  0  0  0  0  0  0  0
   21.5356   33.7451   51.2521 H   0  0  0  0  0  0  0  0  0  0  0  0
   18.6194   34.4264   56.9504 C   0  0  0  0  0  0  0  0  0  0  0  0
   19.3627   35.1985   55.8539 C   0  0  0  0  0  0  0  0  0  0  0  0
   18.7866   36.0660   55.1817 O   0  0  0  0  0  0  0  0  0  0  0  0
   20.6585   34.8832   55.7629 N   0  0  0  0  0  0  0  0  0  0  0  0
   21.0032   34.1880   56.3688 H   0  0  0  0  0  0  0  0  0  0  0  0
   24.6469   33.6283   52.3540 C   0  0  0  0  0  0  0  0  0  0  0  0
   24.9579   34.7562   51.5395 O   0  0  0  0  0  0  0  0  0  0  0  0
   24.2518   34.8888   50.8877 H   0  0  0  0  0  0  0  0  0  0  0  0
   24.9786   35.1269   56.3607 O   0  0  0  0  0  0  0  0  0  0  0  0
   25.8270   36.1254   56.7371 C   0  0  0  0  0  0  0  0  0  0  0  0
   26.3336   36.1172   57.8617 O   0  0  0  0  0  0  0  0  0  0  0  0
   26.0442   37.0865   55.8356 N   0  0  0  0  0  0  0  0  0  0  0  0
   25.6262   36.9674   54.9521 H   0  0  0  0  0  0  0  0  0  0  0  0
   26.7769   38.2016   56.0132 C   0  0  0  0  0  0  0  0  0  0  0  0
   26.0877   39.4061   56.2626 C   0  0  0  0  0  0  0  0  0  0  0  0
   26.7735   40.6002   56.4506 C   0  0  0  0  0  0  0  0  0  0  0  0
   28.1630   40.5915   56.3736 C   0  0  0  0  0  0  0  0  0  0  0  0
   28.8705   39.3982   56.1205 C   0  0  0  0  0  0  0  0  0  0  0  0
   28.1833   38.1903   55.9388 C   0  0  0  0  0  0  0  0  0  0  0  0
 12 13  1  0  0  0
 13 14  2  0  0  0
 13 15  1  0  0  0
 15  1  1  0  0  0
  1  2  1  0  0  0
  1  8  1  0  0  0
  2  3  1  0  0  0
  2  4  1  0  0  0
  4  5  1  0  0  0
  4  6  1  0  0  0
  6 17  1  0  0  0
  6  7  1  0  0  0
 17 18  1  0  0  0
  7  8  1  0  0  0
  8  9  2  0  0  0
  9 20  1  0  0  0
 20 21  1  0  0  0
 21 22  2  0  0  0
 21 23  1  0  0  0
 23 25  1  0  0  0
 25 26  2  0  0  0
 25 30  1  0  0  0
 26 27  1  0  0  0
 27 28  2  0  0  0
 28 29  1  0  0  0
 29 30  2  0  0  0
 15 16  1  0  0  0
  3 10  1  0  0  0
  5 11  1  0  0  0
 18 19  1  0  0  0
 23 24  1  0  0  0
M  END
> <minimizedAffinity>
-7.63065

$$$$
4AZG_OAN_A_2040


 30 31  0  0  0  0  0  0  0  0999 V2000
   22.1692   36.3807   53.9105 C   0  0  0  0  0  0  0  0  0  0  0  0
   21.6201   35.2927   52.9615 C   0  0  0  0  0  0  0  0  0  0  0  0
   20.5959   35.8004   52.0850 O   0  0  0  0  0  0  0  0  0  0  0  0
   22.7534   34.6171   52.1896 C   0  0  0  0  0  0  0  0  0  0  0  0
   22.1903   33.6248   51.3549 O   0  0  0  0  0  0  0  0  0  0  0  0
   23.7198   33.9601   53.1767 C   0  0  0  0  0  0  0  0  0  0  0  0
   24.3199   34.9109   54.0215 O   0  0  0  0  0  0  0  0  0  0  0  0
   23.6516   36.1046   54.2605 C   0  0  0  0  0  0  0  0  0  0  0  0
   24.3769   37.0603   54.8494 N   0  0  0  0  0  0  0  0  0  0  0  0
   20.9723   36.4853   51.5105 H   0  0  0  0  0  0  0  0  0  0  0  0
   21.7124   32.9786   51.8980 H   0  0  0  0  0  0  0  0  0  0  0  0
   20.0701   35.6909   57.0285 C   0  0  0  0  0  0  0  0  0  0  0  0
   20.9775   35.3557   55.8389 C   0  0  0  0  0  0  0  0  0  0  0  0
   21.2749   34.1820   55.5739 O   0  0  0  0  0  0  0  0  0  0  0  0
   21.3350   36.4252   55.1213 N   0  0  0  0  0  0  0  0  0  0  0  0
   21.0172   37.3062   55.4249 H   0  0  0  0  0  0  0  0  0  0  0  0
   24.9274   33.3041   52.5804 C   0  0  0  0  0  0  0  0  0  0  0  0
   24.6203   31.9590   52.2220 O   0  0  0  0  0  0  0  0  0  0  0  0
   24.3494   31.4674   53.0132 H   0  0  0  0  0  0  0  0  0  0  0  0
   25.6933   36.7129   55.0711 O   0  0  0  0  0  0  0  0  0  0  0  0
   26.2177   37.2785   56.1951 C   0  0  0  0  0  0  0  0  0  0  0  0
   26.1359   38.4966   56.3720 O   0  0  0  0  0  0  0  0  0  0  0  0
   26.8205   36.4465   57.0483 N   0  0  0  0  0  0  0  0  0  0  0  0
   26.7849   35.4870   56.8307 H   0  0  0  0  0  0  0  0  0  0  0  0
   27.4717   36.7878   58.1759 C   0  0  0  0  0  0  0  0  0  0  0  0
   26.6965   37.1103   59.3086 C   0  0  0  0  0  0  0  0  0  0  0  0
   27.2953   37.4780   60.5076 C   0  0  0  0  0  0  0  0  0  0  0  0
   28.6844   37.5378   60.5696 C   0  0  0  0  0  0  0  0  0  0  0  0
   29.4772   37.2235   59.4465 C   0  0  0  0  0  0  0  0  0  0  0  0
   28.8776   36.8439   58.2379 C   0  0  0  0  0  0  0  0  0  0  0  0
 12 13  1  0  0  0
 13 14  2  0  0  0
 13 15  1  0  0  0
 15  1  1  0  0  0
  1  2  1  0  0  0
  1  8  1  0  0  0
  2  3  1  0  0  0
  2  4  1  0  0  0
  4  5  1  0  0  0
  4  6  1  0  0  0
  6 17  1  0  0  0
  6  7  1  0  0  0
 17 18  1  0  0  0
  7  8  1  0  0  0
  8  9  2  0  0  0
  9 20  1  0  0  0
 20 21  1  0  0  0
 21 22  2  0  0  0
 21 23  1  0  0  0
 23 25  1  0  0  0
 25 26  2  0  0  0
 25 30  1  0  0  0
 26 27  1  0  0  0
 27 28  2  0  0  0
 28 29  1  0  0  0
 29 30  2  0  0  0
 15 16  1  0  0  0
  3 10  1  0  0  0
  5 11  1  0  0  0
 18 19  1  0  0  0
 23 24  1  0  0  0
M  END
> <minimizedAffinity>
-7.44182

$$$$
4AZG_OAN_A_2040


 30 31  0  0  0  0  0  0  0  0999 V2000
   23.3698   36.8551   53.8739 C   0  0  0  0  0  0  0  0  0  0  0  0
   22.6433   38.1574   53.4717 C   0  0  0  0  0  0  0  0  0  0  0  0
   21.2742   38.1784   53.9189 O   0  0  0  0  0  0  0  0  0  0  0  0
   23.4206   39.3860   53.9444 C   0  0  0  0  0  0  0  0  0  0  0  0
   22.7162   40.5406   53.5331 O   0  0  0  0  0  0  0  0  0  0  0  0
   24.8101   39.3856   53.3047 C   0  0  0  0  0  0  0  0  0  0  0  0
   25.5583   38.2612   53.6969 O   0  0  0  0  0  0  0  0  0  0  0  0
   24.8801   37.1153   54.0914 C   0  0  0  0  0  0  0  0  0  0  0  0
   25.6276   36.1846   54.6927 N   0  0  0  0  0  0  0  0  0  0  0  0
   21.2502   38.1521   54.8882 H   0  0  0  0  0  0  0  0  0  0  0  0
   22.6303   40.5399   52.5669 H   0  0  0  0  0  0  0  0  0  0  0  0
   22.1216   34.0618   51.5840 C   0  0  0  0  0  0  0  0  0  0  0  0
   22.0695   35.0565   52.7496 C   0  0  0  0  0  0  0  0  0  0  0  0
   21.1224   35.0538   53.5491 O   0  0  0  0  0  0  0  0  0  0  0  0
   23.1483   35.8417   52.8309 N   0  0  0  0  0  0  0  0  0  0  0  0
   23.8446   35.7339   52.1434 H   0  0  0  0  0  0  0  0  0  0  0  0
   25.7263   40.4970   53.7163 C   0  0  0  0  0  0  0  0  0  0  0  0
   25.2590   41.7329   53.1812 O   0  0  0  0  0  0  0  0  0  0  0  0
   25.2393   41.6791   52.2129 H   0  0  0  0  0  0  0  0  0  0  0  0
   26.9463   36.5485   54.8695 O   0  0  0  0  0  0  0  0  0  0  0  0
   27.4109   36.2957   56.1259 C   0  0  0  0  0  0  0  0  0  0  0  0
   27.6017   35.1340   56.4942 O   0  0  0  0  0  0  0  0  0  0  0  0
   27.6178   37.3612   56.9040 N   0  0  0  0  0  0  0  0  0  0  0  0
   27.4788   38.2443   56.4916 H   0  0  0  0  0  0  0  0  0  0  0  0
   27.9972   37.3493   58.1955 C   0  0  0  0  0  0  0  0  0  0  0  0
   26.9903   37.4662   59.1756 C   0  0  0  0  0  0  0  0  0  0  0  0
   27.3030   37.4679   60.5297 C   0  0  0  0  0  0  0  0  0  0  0  0
   28.6388   37.3663   60.9067 C   0  0  0  0  0  0  0  0  0  0  0  0
   29.6609   37.2532   59.9417 C   0  0  0  0  0  0  0  0  0  0  0  0
   29.3491   37.2425   58.5753 C   0  0  0  0  0  0  0  0  0  0  0  0
 12 13  1  0  0  0
 13 14  2  0  0  0
 13 15  1  0  0  0
 15  1  1  0  0  0
  1  2  1  0  0  0
  1  8  1  0  0  0
  2  3  1  0  0  0
  2  4  1  0  0  0
  4  5  1  0  0  0
  4  6  1  0  0  0
  6 17  1  0  0  0
  6  7  1  0  0  0
 17 18  1  0  0  0
  7  8  1  0  0  0
  8  9  2  0  0  0
  9 20  1  0  0  0
 20 21  1  0  0  0
 21 22  2  0  0  0
 21 23  1  0  0  0
 23 25  1  0  0  0
 25 26  2  0  0  0
 25 30  1  0  0  0
 26 27  1  0  0  0
 27 28  2  0  0  0
 28 29  1  0  0  0
 29 30  2  0  0  0
 15 16  1  0  0  0
  3 10  1  0  0  0
  5 11  1  0  0  0
 18 19  1  0  0  0
 23 24  1  0  0  0
M  END
> <minimizedAffinity>
-7.27877

$$$$
4AZG_OAN_A_2040


 30 31  0  0  0  0  0  0  0  0999 V2000
   22.9010   34.8603   54.3987 C   0  0  0  0  0  0  0  0  0  0  0  0
   21.9569   35.3416   53.2749 C   0  0  0  0  0  0  0  0  0  0  0  0
   20.6807   34.6745   53.3120 O   0  0  0  0  0  0  0  0  0  0  0  0
   21.8103   36.8631   53.2976 C   0  0  0  0  0  0  0  0  0  0  0  0
   20.9516   37.2408   52.2400 O   0  0  0  0  0  0  0  0  0  0  0  0
   23.1816   37.5090   53.0920 C   0  0  0  0  0  0  0  0  0  0  0  0
   24.0699   37.1753   54.1300 O   0  0  0  0  0  0  0  0  0  0  0  0
   23.8600   35.9955   54.8318 C   0  0  0  0  0  0  0  0  0  0  0  0
   24.5679   35.8641   55.9579 N   0  0  0  0  0  0  0  0  0  0  0  0
   20.2292   34.8863   54.1440 H   0  0  0  0  0  0  0  0  0  0  0  0
   21.3282   36.9450   51.3964 H   0  0  0  0  0  0  0  0  0  0  0  0
   24.9434   32.2458   52.5022 C   0  0  0  0  0  0  0  0  0  0  0  0
   24.2836   33.6068   52.7534 C   0  0  0  0  0  0  0  0  0  0  0  0
   24.3149   34.4996   51.8943 O   0  0  0  0  0  0  0  0  0  0  0  0
   23.6467   33.6836   53.9262 N   0  0  0  0  0  0  0  0  0  0  0  0
   23.6791   32.8961   54.5161 H   0  0  0  0  0  0  0  0  0  0  0  0
   23.2216   39.0054   53.1508 C   0  0  0  0  0  0  0  0  0  0  0  0
   22.9157   39.5486   51.8688 O   0  0  0  0  0  0  0  0  0  0  0  0
   23.5685   39.2382   51.2220 H   0  0  0  0  0  0  0  0  0  0  0  0
   25.3521   36.9575   56.2615 O   0  0  0  0  0  0  0  0  0  0  0  0
   26.6862   36.7224   56.1091 C   0  0  0  0  0  0  0  0  0  0  0  0
   27.4082   37.5701   55.5782 O   0  0  0  0  0  0  0  0  0  0  0  0
   27.1309   35.5410   56.5450 N   0  0  0  0  0  0  0  0  0  0  0  0
   26.4761   34.9606   56.9962 H   0  0  0  0  0  0  0  0  0  0  0  0
   28.3843   35.0639   56.4295 C   0  0  0  0  0  0  0  0  0  0  0  0
   29.3385   35.4924   57.3750 C   0  0  0  0  0  0  0  0  0  0  0  0
   30.6544   35.0490   57.3188 C   0  0  0  0  0  0  0  0  0  0  0  0
   31.0229   34.1790   56.2969 C   0  0  0  0  0  0  0  0  0  0  0  0
   30.0846   33.7425   55.3390 C   0  0  0  0  0  0  0  0  0  0  0  0
   28.7545   34.1805   55.3970 C   0  0  0  0  0  0  0  0  0  0  0  0
 12 13  1  0  0  0
 13 14  2  0  0  0
 13 15  1  0  0  0
 15  1  1  0  0  0
  1  2  1  0  0  0
  1  8  1  0  0  0
  2  3  1  0  0  0
  2  4  1  0  0  0
  4  5  1  0  0  0
  4  6  1  0  0  0
  6 17  1  0  0  0
  6  7  1  0  0  0
 17 18  1  0  0  0
  7  8  1  0  0  0
  8  9  2  0  0  0
  9 20  1  0  0  0
 20 21  1  0  0  0
 21 22  2  0  0  0
 21 23  1  0  0  0
 23 25  1  0  0  0
 25 26  2  0  0  0
 25 30  1  0  0  0
 26 27  1  0  0  0
 27 28  2  0  0  0
 28 29  1  0  0  0
 29 30  2  0  0  0
 15 16  1  0  0  0
  3 10  1  0  0  0
  5 11  1  0  0  0
 18 19  1  0  0  0
 23 24  1  0  0  0
M  END
> <minimizedAffinity>
-7.04369

$$$$
4AZG_OAN_A_2040


 30 31  0  0  0  0  0  0  0  0999 V2000
   26.2514   39.0971   50.7994 C   0  0  0  0  0  0  0  0  0  0  0  0
   27.2697   39.4944   49.7080 C   0  0  0  0  0  0  0  0  0  0  0  0
   27.9013   40.7588   49.9861 O   0  0  0  0  0  0  0  0  0  0  0  0
   28.2911   38.3799   49.4809 C   0  0  0  0  0  0  0  0  0  0  0  0
   29.1808   38.7955   48.4639 O   0  0  0  0  0  0  0  0  0  0  0  0
   27.5664   37.1098   49.0320 C   0  0  0  0  0  0  0  0  0  0  0  0
   26.6786   36.6462   50.0193 O   0  0  0  0  0  0  0  0  0  0  0  0
   26.1640   37.5574   50.9323 C   0  0  0  0  0  0  0  0  0  0  0  0
   25.5434   37.0230   51.9885 N   0  0  0  0  0  0  0  0  0  0  0  0
   28.4102   40.6920   50.8091 H   0  0  0  0  0  0  0  0  0  0  0  0
   28.6821   38.9746   47.6514 H   0  0  0  0  0  0  0  0  0  0  0  0
   23.0605   41.1744   50.4727 C   0  0  0  0  0  0  0  0  0  0  0  0
   24.4729   40.8294   50.9595 C   0  0  0  0  0  0  0  0  0  0  0  0
   25.0595   41.5508   51.7790 O   0  0  0  0  0  0  0  0  0  0  0  0
   24.9419   39.6787   50.4667 N   0  0  0  0  0  0  0  0  0  0  0  0
   24.3697   39.1849   49.8358 H   0  0  0  0  0  0  0  0  0  0  0  0
   28.4237   35.8987   48.8263 C   0  0  0  0  0  0  0  0  0  0  0  0
   29.0603   35.9669   47.5526 O   0  0  0  0  0  0  0  0  0  0  0  0
   28.3864   36.0016   46.8558 H   0  0  0  0  0  0  0  0  0  0  0  0
   25.5688   35.6442   52.0191 O   0  0  0  0  0  0  0  0  0  0  0  0
   24.4296   35.0957   52.5289 C   0  0  0  0  0  0  0  0  0  0  0  0
   24.1414   33.9224   52.2801 O   0  0  0  0  0  0  0  0  0  0  0  0
   23.6692   35.9015   53.2746 N   0  0  0  0  0  0  0  0  0  0  0  0
   24.0195   36.8050   53.4484 H   0  0  0  0  0  0  0  0  0  0  0  0
   22.4719   35.6027   53.8124 C   0  0  0  0  0  0  0  0  0  0  0  0
   21.3207   35.8943   53.0523 C   0  0  0  0  0  0  0  0  0  0  0  0
   20.0490   35.6206   53.5413 C   0  0  0  0  0  0  0  0  0  0  0  0
   19.9273   35.0629   54.8106 C   0  0  0  0  0  0  0  0  0  0  0  0
   21.0662   34.7682   55.5883 C   0  0  0  0  0  0  0  0  0  0  0  0
   22.3509   35.0346   55.0954 C   0  0  0  0  0  0  0  0  0  0  0  0
 12 13  1  0  0  0
 13 14  2  0  0  0
 13 15  1  0  0  0
 15  1  1  0  0  0
  1  2  1  0  0  0
  1  8  1  0  0  0
  2  3  1  0  0  0
  2  4  1  0  0  0
  4  5  1  0  0  0
  4  6  1  0  0  0
  6 17  1  0  0  0
  6  7  1  0  0  0
 17 18  1  0  0  0
  7  8  1  0  0  0
  8  9  2  0  0  0
  9 20  1  0  0  0
 20 21  1  0  0  0
 21 22  2  0  0  0
 21 23  1  0  0  0
 23 25  1  0  0  0
 25 26  2  0  0  0
 25 30  1  0  0  0
 26 27  1  0  0  0
 27 28  2  0  0  0
 28 29  1  0  0  0
 29 30  2  0  0  0
 15 16  1  0  0  0
  3 10  1  0  0  0
  5 11  1  0  0  0
 18 19  1  0  0  0
 23 24  1  0  0  0
M  END
> <minimizedAffinity>
-6.63212

$$$$
