3BVB_017_B_401


 42 45  0  0  0  0  0  0  0  0999 V2000
   13.8302   62.3395   18.0529 C   0  0  0  0  0  0  0  0  0  0  0  0
   14.9830   61.6732   18.5915 O   0  0  0  0  0  0  0  0  0  0  0  0
   15.4586   61.2213   17.8770 H   0  0  0  0  0  0  0  0  0  0  0  0
   12.7752   61.3517   17.4658 C   0  0  0  0  0  0  0  0  0  0  0  0
   11.4254   61.9935   17.4867 N   0  0  0  0  0  0  0  0  0  0  0  0
   10.7081   62.5291   16.0313 S   0  0  0  0  0  0  0  0  0  0  0  0
   11.7652   62.7358   15.0628 O   0  0  0  0  0  0  0  0  0  0  0  0
    9.7612   63.5643   16.4335 O   0  0  0  0  0  0  0  0  0  0  0  0
    8.4393   57.4902   13.8267 N   0  0  0  0  0  0  0  0  0  0  0  0
    8.8268   58.7158   14.3506 C   0  0  0  0  0  0  0  0  0  0  0  0
   10.1314   59.1831   14.2011 C   0  0  0  0  0  0  0  0  0  0  0  0
   10.5415   60.3871   14.7167 C   0  0  0  0  0  0  0  0  0  0  0  0
    9.6575   61.1724   15.4317 C   0  0  0  0  0  0  0  0  0  0  0  0
    8.3204   60.7531   15.5533 C   0  0  0  0  0  0  0  0  0  0  0  0
    7.9332   59.4959   15.0781 C   0  0  0  0  0  0  0  0  0  0  0  0
    9.0819   56.9487   13.3139 H   0  0  0  0  0  0  0  0  0  0  0  0
    7.5217   57.1624   13.9680 H   0  0  0  0  0  0  0  0  0  0  0  0
   10.5642   61.7650   18.6658 C   0  0  0  0  0  0  0  0  0  0  0  0
   10.7981   62.6056   19.9481 C   0  0  0  0  0  0  0  0  0  0  0  0
    9.8290   63.8141   19.9092 C   0  0  0  0  0  0  0  0  0  0  0  0
   10.3452   61.6912   21.1072 C   0  0  0  0  0  0  0  0  0  0  0  0
   14.2984   63.3872   17.0378 C   0  0  0  0  0  0  0  0  0  0  0  0
   15.1532   64.3629   17.7605 N   0  0  0  0  0  0  0  0  0  0  0  0
   14.6632   65.5880   18.0899 C   0  0  0  0  0  0  0  0  0  0  0  0
   13.5462   66.0440   17.8332 O   0  0  0  0  0  0  0  0  0  0  0  0
   16.0768   64.1223   18.0018 H   0  0  0  0  0  0  0  0  0  0  0  0
   15.6326   66.2347   18.7998 O   0  0  0  0  0  0  0  0  0  0  0  0
   15.1898   67.4063   19.5642 C   0  0  0  0  0  0  0  0  0  0  0  0
   15.3901   67.0665   21.0445 C   0  0  0  0  0  0  0  0  0  0  0  0
   16.8017   67.1903   21.2807 O   0  0  0  0  0  0  0  0  0  0  0  0
   17.3028   68.2541   20.4362 C   0  0  0  0  0  0  0  0  0  0  0  0
   18.4352   67.7810   19.7704 O   0  0  0  0  0  0  0  0  0  0  0  0
   18.1671   67.6429   18.3958 C   0  0  0  0  0  0  0  0  0  0  0  0
   17.0065   68.6020   18.0758 C   0  0  0  0  0  0  0  0  0  0  0  0
   16.1981   68.5389   19.3923 C   0  0  0  0  0  0  0  0  0  0  0  0
   15.1117   62.8494   15.8360 C   0  0  0  0  0  0  0  0  0  0  0  0
   16.9008   64.3504   14.8017 C   0  0  0  0  0  0  0  0  0  0  0  0
   17.3589   65.3986   14.0056 C   0  0  0  0  0  0  0  0  0  0  0  0
   16.3850   66.1465   13.3548 C   0  0  0  0  0  0  0  0  0  0  0  0
   15.0537   65.8041   13.4586 C   0  0  0  0  0  0  0  0  0  0  0  0
   14.6159   64.7618   14.2550 C   0  0  0  0  0  0  0  0  0  0  0  0
   15.5687   63.9731   14.9146 C   0  0  0  0  0  0  0  0  0  0  0  0
  9 10  1  0  0  0
 10 11  2  0  0  0
 10 15  1  0  0  0
 11 12  1  0  0  0
 12 13  2  0  0  0
 13 14  1  0  0  0
 13  6  1  0  0  0
 14 15  2  0  0  0
  6  7  2  0  0  0
  6  8  2  0  0  0
  6  5  1  0  0  0
  5 18  1  0  0  0
  5  4  1  0  0  0
 18 19  1  0  0  0
 19 20  1  0  0  0
 19 21  1  0  0  0
  4  1  1  0  0  0
  1  2  1  0  0  0
  1 22  1  0  0  0
 22 23  1  0  0  0
 22 36  1  0  0  0
 23 24  1  0  0  0
 24 25  2  0  0  0
 24 27  1  0  0  0
 27 28  1  0  0  0
 28 29  1  0  0  0
 28 35  1  0  0  0
 29 30  1  0  0  0
 30 31  1  0  0  0
 31 32  1  0  0  0
 31 35  1  0  0  0
 32 33  1  0  0  0
 33 34  1  0  0  0
 34 35  1  0  0  0
 36 42  1  0  0  0
 37 38  2  0  0  0
 37 42  1  0  0  0
 38 39  1  0  0  0
 39 40  2  0  0  0
 40 41  1  0  0  0
 41 42  2  0  0  0
  9 16  1  0  0  0
  9 17  1  0  0  0
  2  3  1  0  0  0
 23 26  1  0  0  0
M  END
> <minimizedAffinity>
-10.13482

$$$$
3BVB_017_B_401


 42 45  0  0  0  0  0  0  0  0999 V2000
   12.4011   62.1077   16.5821 C   0  0  0  0  0  0  0  0  0  0  0  0
   12.6012   60.7997   16.0234 O   0  0  0  0  0  0  0  0  0  0  0  0
   12.8926   60.1915   16.7205 H   0  0  0  0  0  0  0  0  0  0  0  0
   13.7191   62.7505   17.1143 C   0  0  0  0  0  0  0  0  0  0  0  0
   13.6500   64.2350   16.9542 N   0  0  0  0  0  0  0  0  0  0  0  0
   13.6336   65.2460   18.3316 S   0  0  0  0  0  0  0  0  0  0  0  0
   13.6866   64.4001   19.5063 O   0  0  0  0  0  0  0  0  0  0  0  0
   12.5742   66.2170   18.0769 O   0  0  0  0  0  0  0  0  0  0  0  0
   17.9247   69.3280   18.8987 N   0  0  0  0  0  0  0  0  0  0  0  0
   17.0191   68.2995   18.6781 C   0  0  0  0  0  0  0  0  0  0  0  0
   15.6538   68.4841   18.8895 C   0  0  0  0  0  0  0  0  0  0  0  0
   14.7393   67.4811   18.6868 C   0  0  0  0  0  0  0  0  0  0  0  0
   15.1615   66.2294   18.2810 C   0  0  0  0  0  0  0  0  0  0  0  0
   16.5264   66.0277   18.0079 C   0  0  0  0  0  0  0  0  0  0  0  0
   17.4534   67.0390   18.2795 C   0  0  0  0  0  0  0  0  0  0  0  0
   17.6034   70.2149   19.1805 H   0  0  0  0  0  0  0  0  0  0  0  0
   18.8885   69.1707   18.7733 H   0  0  0  0  0  0  0  0  0  0  0  0
   14.0309   64.8128   15.6484 C   0  0  0  0  0  0  0  0  0  0  0  0
   14.5978   63.8816   14.5452 C   0  0  0  0  0  0  0  0  0  0  0  0
   14.0356   64.3597   13.1826 C   0  0  0  0  0  0  0  0  0  0  0  0
   16.1170   64.1586   14.5375 C   0  0  0  0  0  0  0  0  0  0  0  0
   11.3039   62.0236   17.6481 C   0  0  0  0  0  0  0  0  0  0  0  0
   10.4250   60.8787   17.2994 N   0  0  0  0  0  0  0  0  0  0  0  0
    9.3161   61.0760   16.5373 C   0  0  0  0  0  0  0  0  0  0  0  0
    8.8938   62.1443   16.0880 O   0  0  0  0  0  0  0  0  0  0  0  0
   10.6457   59.9746   17.6206 H   0  0  0  0  0  0  0  0  0  0  0  0
    8.7501   59.8533   16.3213 O   0  0  0  0  0  0  0  0  0  0  0  0
    8.4903   59.5089   14.9188 C   0  0  0  0  0  0  0  0  0  0  0  0
    9.3192   58.2573   14.6130 C   0  0  0  0  0  0  0  0  0  0  0  0
    8.6113   57.1674   15.2252 O   0  0  0  0  0  0  0  0  0  0  0  0
    7.1949   57.4561   15.1465 C   0  0  0  0  0  0  0  0  0  0  0  0
    6.6419   57.2581   16.4131 O   0  0  0  0  0  0  0  0  0  0  0  0
    6.2411   58.4892   16.9650 C   0  0  0  0  0  0  0  0  0  0  0  0
    6.0010   59.4439   15.7818 C   0  0  0  0  0  0  0  0  0  0  0  0
    7.0751   58.9543   14.7830 C   0  0  0  0  0  0  0  0  0  0  0  0
   11.7883   61.8182   19.1036 C   0  0  0  0  0  0  0  0  0  0  0  0
   10.3919   61.6086   21.2319 C   0  0  0  0  0  0  0  0  0  0  0  0
    9.4394   62.0268   22.1593 C   0  0  0  0  0  0  0  0  0  0  0  0
    8.7923   63.2240   21.8777 C   0  0  0  0  0  0  0  0  0  0  0  0
    9.1427   63.9655   20.7696 C   0  0  0  0  0  0  0  0  0  0  0  0
   10.0891   63.5345   19.8579 C   0  0  0  0  0  0  0  0  0  0  0  0
   10.7760   62.3400   20.1152 C   0  0  0  0  0  0  0  0  0  0  0  0
  9 10  1  0  0  0
 10 11  2  0  0  0
 10 15  1  0  0  0
 11 12  1  0  0  0
 12 13  2  0  0  0
 13 14  1  0  0  0
 13  6  1  0  0  0
 14 15  2  0  0  0
  6  7  2  0  0  0
  6  8  2  0  0  0
  6  5  1  0  0  0
  5 18  1  0  0  0
  5  4  1  0  0  0
 18 19  1  0  0  0
 19 20  1  0  0  0
 19 21  1  0  0  0
  4  1  1  0  0  0
  1  2  1  0  0  0
  1 22  1  0  0  0
 22 23  1  0  0  0
 22 36  1  0  0  0
 23 24  1  0  0  0
 24 25  2  0  0  0
 24 27  1  0  0  0
 27 28  1  0  0  0
 28 29  1  0  0  0
 28 35  1  0  0  0
 29 30  1  0  0  0
 30 31  1  0  0  0
 31 32  1  0  0  0
 31 35  1  0  0  0
 32 33  1  0  0  0
 33 34  1  0  0  0
 34 35  1  0  0  0
 36 42  1  0  0  0
 37 38  2  0  0  0
 37 42  1  0  0  0
 38 39  1  0  0  0
 39 40  2  0  0  0
 40 41  1  0  0  0
 41 42  2  0  0  0
  9 16  1  0  0  0
  9 17  1  0  0  0
  2  3  1  0  0  0
 23 26  1  0  0  0
M  END
> <minimizedAffinity>
-9.88902

$$$$
3BVB_017_B_401


 42 45  0  0  0  0  0  0  0  0999 V2000
   11.0241   61.9013   16.5001 C   0  0  0  0  0  0  0  0  0  0  0  0
   11.5447   62.2265   15.2016 O   0  0  0  0  0  0  0  0  0  0  0  0
   11.4476   63.1786   15.0434 H   0  0  0  0  0  0  0  0  0  0  0  0
    9.4881   62.1468   16.6192 C   0  0  0  0  0  0  0  0  0  0  0  0
    8.7571   60.8704   16.3538 N   0  0  0  0  0  0  0  0  0  0  0  0
    8.1815   60.5227   14.7830 S   0  0  0  0  0  0  0  0  0  0  0  0
    9.2886   60.0022   14.0075 O   0  0  0  0  0  0  0  0  0  0  0  0
    7.3991   61.6929   14.3979 O   0  0  0  0  0  0  0  0  0  0  0  0
    5.1149   55.4245   14.8392 N   0  0  0  0  0  0  0  0  0  0  0  0
    5.7045   56.6806   14.8753 C   0  0  0  0  0  0  0  0  0  0  0  0
    6.8612   56.9547   14.1474 C   0  0  0  0  0  0  0  0  0  0  0  0
    7.4678   58.1855   14.1727 C   0  0  0  0  0  0  0  0  0  0  0  0
    6.9480   59.1987   14.9555 C   0  0  0  0  0  0  0  0  0  0  0  0
    5.7519   58.9690   15.6589 C   0  0  0  0  0  0  0  0  0  0  0  0
    5.1807   57.6925   15.6740 C   0  0  0  0  0  0  0  0  0  0  0  0
    5.4962   54.7179   14.2695 H   0  0  0  0  0  0  0  0  0  0  0  0
    4.3155   55.2401   15.3834 H   0  0  0  0  0  0  0  0  0  0  0  0
    8.9214   59.7611   17.3164 C   0  0  0  0  0  0  0  0  0  0  0  0
    8.3185   59.8977   18.7389 C   0  0  0  0  0  0  0  0  0  0  0  0
    7.1192   60.8755   18.6564 C   0  0  0  0  0  0  0  0  0  0  0  0
    7.7491   58.4992   19.0620 C   0  0  0  0  0  0  0  0  0  0  0  0
   11.8344   62.6581   17.5575 C   0  0  0  0  0  0  0  0  0  0  0  0
   12.9898   63.2897   16.8715 N   0  0  0  0  0  0  0  0  0  0  0  0
   14.2571   62.8855   17.1547 C   0  0  0  0  0  0  0  0  0  0  0  0
   14.6079   62.0323   17.9736 O   0  0  0  0  0  0  0  0  0  0  0  0
   12.8382   64.0029   16.2099 H   0  0  0  0  0  0  0  0  0  0  0  0
   15.0971   63.5808   16.3345 O   0  0  0  0  0  0  0  0  0  0  0  0
   14.7134   64.9696   16.0568 C   0  0  0  0  0  0  0  0  0  0  0  0
   15.6428   65.8573   16.8905 C   0  0  0  0  0  0  0  0  0  0  0  0
   16.9026   65.8517   16.1999 O   0  0  0  0  0  0  0  0  0  0  0  0
   16.6318   65.7659   14.7803 C   0  0  0  0  0  0  0  0  0  0  0  0
   17.4328   64.7541   14.2474 O   0  0  0  0  0  0  0  0  0  0  0  0
   16.6360   63.6659   13.8455 C   0  0  0  0  0  0  0  0  0  0  0  0
   15.2272   64.2267   13.5810 C   0  0  0  0  0  0  0  0  0  0  0  0
   15.1496   65.3470   14.6440 C   0  0  0  0  0  0  0  0  0  0  0  0
   11.0772   63.7696   18.3233 C   0  0  0  0  0  0  0  0  0  0  0  0
   10.9495   62.1109   20.2613 C   0  0  0  0  0  0  0  0  0  0  0  0
   10.4055   61.5771   21.4281 C   0  0  0  0  0  0  0  0  0  0  0  0
    9.2677   62.2062   21.9190 C   0  0  0  0  0  0  0  0  0  0  0  0
    8.7687   63.3328   21.3008 C   0  0  0  0  0  0  0  0  0  0  0  0
    9.3197   63.8483   20.1419 C   0  0  0  0  0  0  0  0  0  0  0  0
   10.4779   63.2519   19.6246 C   0  0  0  0  0  0  0  0  0  0  0  0
  9 10  1  0  0  0
 10 11  2  0  0  0
 10 15  1  0  0  0
 11 12  1  0  0  0
 12 13  2  0  0  0
 13 14  1  0  0  0
 13  6  1  0  0  0
 14 15  2  0  0  0
  6  7  2  0  0  0
  6  8  2  0  0  0
  6  5  1  0  0  0
  5 18  1  0  0  0
  5  4  1  0  0  0
 18 19  1  0  0  0
 19 20  1  0  0  0
 19 21  1  0  0  0
  4  1  1  0  0  0
  1  2  1  0  0  0
  1 22  1  0  0  0
 22 23  1  0  0  0
 22 36  1  0  0  0
 23 24  1  0  0  0
 24 25  2  0  0  0
 24 27  1  0  0  0
 27 28  1  0  0  0
 28 29  1  0  0  0
 28 35  1  0  0  0
 29 30  1  0  0  0
 30 31  1  0  0  0
 31 32  1  0  0  0
 31 35  1  0  0  0
 32 33  1  0  0  0
 33 34  1  0  0  0
 34 35  1  0  0  0
 36 42  1  0  0  0
 37 38  2  0  0  0
 37 42  1  0  0  0
 38 39  1  0  0  0
 39 40  2  0  0  0
 40 41  1  0  0  0
 41 42  2  0  0  0
  9 16  1  0  0  0
  9 17  1  0  0  0
  2  3  1  0  0  0
 23 26  1  0  0  0
M  END
> <minimizedAffinity>
-9.71549

$$$$
3BVB_017_B_401


 42 45  0  0  0  0  0  0  0  0999 V2000
   13.4388   62.2190   18.1847 C   0  0  0  0  0  0  0  0  0  0  0  0
   14.6566   61.5563   18.5599 O   0  0  0  0  0  0  0  0  0  0  0  0
   15.0468   61.1312   17.7802 H   0  0  0  0  0  0  0  0  0  0  0  0
   12.3319   61.2313   17.7022 C   0  0  0  0  0  0  0  0  0  0  0  0
   11.0081   61.9251   17.7064 N   0  0  0  0  0  0  0  0  0  0  0  0
   10.4821   62.7601   19.1013 S   0  0  0  0  0  0  0  0  0  0  0  0
   10.2473   64.1410   18.7324 O   0  0  0  0  0  0  0  0  0  0  0  0
   11.3986   62.3465   20.1592 O   0  0  0  0  0  0  0  0  0  0  0  0
    5.4066   61.1469   21.7536 N   0  0  0  0  0  0  0  0  0  0  0  0
    6.5577   61.4220   21.0283 C   0  0  0  0  0  0  0  0  0  0  0  0
    7.6510   62.0498   21.6227 C   0  0  0  0  0  0  0  0  0  0  0  0
    8.7968   62.3401   20.9255 C   0  0  0  0  0  0  0  0  0  0  0  0
    8.8880   62.0306   19.5818 C   0  0  0  0  0  0  0  0  0  0  0  0
    7.8225   61.3485   18.9672 C   0  0  0  0  0  0  0  0  0  0  0  0
    6.6376   61.1164   19.6731 C   0  0  0  0  0  0  0  0  0  0  0  0
    5.3639   61.3685   22.7119 H   0  0  0  0  0  0  0  0  0  0  0  0
    4.6328   60.7303   21.3097 H   0  0  0  0  0  0  0  0  0  0  0  0
   10.3863   62.2461   16.4047 C   0  0  0  0  0  0  0  0  0  0  0  0
    9.6451   61.1295   15.6240 C   0  0  0  0  0  0  0  0  0  0  0  0
    8.3511   61.7414   15.0304 C   0  0  0  0  0  0  0  0  0  0  0  0
   10.5772   60.7902   14.4406 C   0  0  0  0  0  0  0  0  0  0  0  0
   13.7671   63.3007   17.1505 C   0  0  0  0  0  0  0  0  0  0  0  0
   14.8186   64.1736   17.7312 N   0  0  0  0  0  0  0  0  0  0  0  0
   14.4983   65.0843   18.6891 C   0  0  0  0  0  0  0  0  0  0  0  0
   13.3814   65.3230   19.1551 O   0  0  0  0  0  0  0  0  0  0  0  0
   15.7498   64.0929   17.4221 H   0  0  0  0  0  0  0  0  0  0  0  0
   15.6590   65.6851   19.0812 O   0  0  0  0  0  0  0  0  0  0  0  0
   15.5679   67.1202   19.3736 C   0  0  0  0  0  0  0  0  0  0  0  0
   16.2574   67.3380   20.7241 C   0  0  0  0  0  0  0  0  0  0  0  0
   17.6666   67.2743   20.4520 O   0  0  0  0  0  0  0  0  0  0  0  0
   17.8900   67.8218   19.1305 C   0  0  0  0  0  0  0  0  0  0  0  0
   18.6939   66.9270   18.4217 O   0  0  0  0  0  0  0  0  0  0  0  0
   17.9553   66.3293   17.3835 C   0  0  0  0  0  0  0  0  0  0  0  0
   16.8029   67.2944   17.0520 C   0  0  0  0  0  0  0  0  0  0  0  0
   16.5046   67.8904   18.4472 C   0  0  0  0  0  0  0  0  0  0  0  0
   14.2798   62.7945   15.7808 C   0  0  0  0  0  0  0  0  0  0  0  0
   14.4998   64.9689   14.4591 C   0  0  0  0  0  0  0  0  0  0  0  0
   15.1943   65.9444   13.7460 C   0  0  0  0  0  0  0  0  0  0  0  0
   16.5544   65.7224   13.5669 C   0  0  0  0  0  0  0  0  0  0  0  0
   17.1648   64.6231   14.1319 C   0  0  0  0  0  0  0  0  0  0  0  0
   16.4600   63.6632   14.8350 C   0  0  0  0  0  0  0  0  0  0  0  0
   15.0890   63.8593   15.0516 C   0  0  0  0  0  0  0  0  0  0  0  0
  9 10  1  0  0  0
 10 11  2  0  0  0
 10 15  1  0  0  0
 11 12  1  0  0  0
 12 13  2  0  0  0
 13 14  1  0  0  0
 13  6  1  0  0  0
 14 15  2  0  0  0
  6  7  2  0  0  0
  6  8  2  0  0  0
  6  5  1  0  0  0
  5 18  1  0  0  0
  5  4  1  0  0  0
 18 19  1  0  0  0
 19 20  1  0  0  0
 19 21  1  0  0  0
  4  1  1  0  0  0
  1  2  1  0  0  0
  1 22  1  0  0  0
 22 23  1  0  0  0
 22 36  1  0  0  0
 23 24  1  0  0  0
 24 25  2  0  0  0
 24 27  1  0  0  0
 27 28  1  0  0  0
 28 29  1  0  0  0
 28 35  1  0  0  0
 29 30  1  0  0  0
 30 31  1  0  0  0
 31 32  1  0  0  0
 31 35  1  0  0  0
 32 33  1  0  0  0
 33 34  1  0  0  0
 34 35  1  0  0  0
 36 42  1  0  0  0
 37 38  2  0  0  0
 37 42  1  0  0  0
 38 39  1  0  0  0
 39 40  2  0  0  0
 40 41  1  0  0  0
 41 42  2  0  0  0
  9 16  1  0  0  0
  9 17  1  0  0  0
  2  3  1  0  0  0
 23 26  1  0  0  0
M  END
> <minimizedAffinity>
-9.62805

$$$$
3BVB_017_B_401


 42 45  0  0  0  0  0  0  0  0999 V2000
   12.4925   61.8623   15.8052 C   0  0  0  0  0  0  0  0  0  0  0  0
   13.2230   61.7239   17.0342 O   0  0  0  0  0  0  0  0  0  0  0  0
   12.7259   62.1420   17.7546 H   0  0  0  0  0  0  0  0  0  0  0  0
   12.3457   63.3465   15.3481 C   0  0  0  0  0  0  0  0  0  0  0  0
   13.0700   64.2371   16.3054 N   0  0  0  0  0  0  0  0  0  0  0  0
   12.2425   64.9189   17.6358 S   0  0  0  0  0  0  0  0  0  0  0  0
   11.8879   63.8434   18.5390 O   0  0  0  0  0  0  0  0  0  0  0  0
   11.2740   65.8395   17.0490 O   0  0  0  0  0  0  0  0  0  0  0  0
   16.3548   67.3704   21.1682 N   0  0  0  0  0  0  0  0  0  0  0  0
   15.3787   66.9350   20.2825 C   0  0  0  0  0  0  0  0  0  0  0  0
   14.6684   65.7584   20.5148 C   0  0  0  0  0  0  0  0  0  0  0  0
   13.7047   65.3022   19.6506 C   0  0  0  0  0  0  0  0  0  0  0  0
   13.4248   66.0019   18.4923 C   0  0  0  0  0  0  0  0  0  0  0  0
   14.0867   67.2204   18.2571 C   0  0  0  0  0  0  0  0  0  0  0  0
   15.1101   67.6398   19.1132 C   0  0  0  0  0  0  0  0  0  0  0  0
   16.5344   66.8619   21.9918 H   0  0  0  0  0  0  0  0  0  0  0  0
   16.8676   68.1878   20.9727 H   0  0  0  0  0  0  0  0  0  0  0  0
   14.5456   64.1656   16.3422 C   0  0  0  0  0  0  0  0  0  0  0  0
   15.3635   64.8058   15.1904 C   0  0  0  0  0  0  0  0  0  0  0  0
   16.4915   65.6589   15.8236 C   0  0  0  0  0  0  0  0  0  0  0  0
   16.0360   63.6144   14.4744 C   0  0  0  0  0  0  0  0  0  0  0  0
   11.1463   61.1455   15.9510 C   0  0  0  0  0  0  0  0  0  0  0  0
   10.5384   61.5866   17.2319 N   0  0  0  0  0  0  0  0  0  0  0  0
    9.8409   60.7046   17.9967 C   0  0  0  0  0  0  0  0  0  0  0  0
    9.6024   59.5200   17.7486 O   0  0  0  0  0  0  0  0  0  0  0  0
   10.6406   62.5199   17.5282 H   0  0  0  0  0  0  0  0  0  0  0  0
    9.4649   61.3616   19.1319 O   0  0  0  0  0  0  0  0  0  0  0  0
    8.1379   61.9869   19.0979 C   0  0  0  0  0  0  0  0  0  0  0  0
    7.1146   60.8523   19.2099 C   0  0  0  0  0  0  0  0  0  0  0  0
    7.1211   60.4627   20.5927 O   0  0  0  0  0  0  0  0  0  0  0  0
    7.3728   61.6462   21.3875 C   0  0  0  0  0  0  0  0  0  0  0  0
    8.3878   61.3477   22.2986 O   0  0  0  0  0  0  0  0  0  0  0  0
    9.5566   62.0610   21.9732 C   0  0  0  0  0  0  0  0  0  0  0  0
    9.1090   63.2950   21.1694 C   0  0  0  0  0  0  0  0  0  0  0  0
    7.8884   62.7268   20.4090 C   0  0  0  0  0  0  0  0  0  0  0  0
   10.1152   61.4062   14.8267 C   0  0  0  0  0  0  0  0  0  0  0  0
    9.4377   59.0227   14.2072 C   0  0  0  0  0  0  0  0  0  0  0  0
    8.5374   57.9713   14.0451 C   0  0  0  0  0  0  0  0  0  0  0  0
    7.2091   58.2484   14.3456 C   0  0  0  0  0  0  0  0  0  0  0  0
    6.8455   59.4840   14.8372 C   0  0  0  0  0  0  0  0  0  0  0  0
    7.7518   60.5173   14.9898 C   0  0  0  0  0  0  0  0  0  0  0  0
    9.1040   60.2726   14.7132 C   0  0  0  0  0  0  0  0  0  0  0  0
  9 10  1  0  0  0
 10 11  2  0  0  0
 10 15  1  0  0  0
 11 12  1  0  0  0
 12 13  2  0  0  0
 13 14  1  0  0  0
 13  6  1  0  0  0
 14 15  2  0  0  0
  6  7  2  0  0  0
  6  8  2  0  0  0
  6  5  1  0  0  0
  5 18  1  0  0  0
  5  4  1  0  0  0
 18 19  1  0  0  0
 19 20  1  0  0  0
 19 21  1  0  0  0
  4  1  1  0  0  0
  1  2  1  0  0  0
  1 22  1  0  0  0
 22 23  1  0  0  0
 22 36  1  0  0  0
 23 24  1  0  0  0
 24 25  2  0  0  0
 24 27  1  0  0  0
 27 28  1  0  0  0
 28 29  1  0  0  0
 28 35  1  0  0  0
 29 30  1  0  0  0
 30 31  1  0  0  0
 31 32  1  0  0  0
 31 35  1  0  0  0
 32 33  1  0  0  0
 33 34  1  0  0  0
 34 35  1  0  0  0
 36 42  1  0  0  0
 37 38  2  0  0  0
 37 42  1  0  0  0
 38 39  1  0  0  0
 39 40  2  0  0  0
 40 41  1  0  0  0
 41 42  2  0  0  0
  9 16  1  0  0  0
  9 17  1  0  0  0
  2  3  1  0  0  0
 23 26  1  0  0  0
M  END
> <minimizedAffinity>
-9.56764

$$$$
3BVB_017_B_401


 42 45  0  0  0  0  0  0  0  0999 V2000
   10.2849   61.2547   16.1938 C   0  0  0  0  0  0  0  0  0  0  0  0
   10.7820   61.3244   14.8481 O   0  0  0  0  0  0  0  0  0  0  0  0
   11.1091   60.4518   14.5786 H   0  0  0  0  0  0  0  0  0  0  0  0
   11.3980   60.9322   17.2381 C   0  0  0  0  0  0  0  0  0  0  0  0
   11.6922   62.1543   18.0469 N   0  0  0  0  0  0  0  0  0  0  0  0
   13.2964   62.7266   18.1831 S   0  0  0  0  0  0  0  0  0  0  0  0
   14.1783   61.5780   18.2164 O   0  0  0  0  0  0  0  0  0  0  0  0
   13.2486   63.7447   19.2277 O   0  0  0  0  0  0  0  0  0  0  0  0
   15.5048   66.2381   13.9180 N   0  0  0  0  0  0  0  0  0  0  0  0
   14.8757   65.3897   14.8187 C   0  0  0  0  0  0  0  0  0  0  0  0
   15.1654   65.4426   16.1811 C   0  0  0  0  0  0  0  0  0  0  0  0
   14.5636   64.6093   17.0905 C   0  0  0  0  0  0  0  0  0  0  0  0
   13.6525   63.6614   16.6653 C   0  0  0  0  0  0  0  0  0  0  0  0
   13.2996   63.6196   15.3044 C   0  0  0  0  0  0  0  0  0  0  0  0
   13.9671   64.4310   14.3812 C   0  0  0  0  0  0  0  0  0  0  0  0
   16.1455   66.9119   14.2415 H   0  0  0  0  0  0  0  0  0  0  0  0
   15.3101   66.1661   12.9556 H   0  0  0  0  0  0  0  0  0  0  0  0
   10.5768   63.0768   18.3450 C   0  0  0  0  0  0  0  0  0  0  0  0
    9.7186   62.8413   19.6153 C   0  0  0  0  0  0  0  0  0  0  0  0
   10.5643   62.0126   20.6149 C   0  0  0  0  0  0  0  0  0  0  0  0
    9.5284   64.2455   20.2288 C   0  0  0  0  0  0  0  0  0  0  0  0
    9.1195   60.2609   16.2358 C   0  0  0  0  0  0  0  0  0  0  0  0
    8.5365   60.3090   17.6005 N   0  0  0  0  0  0  0  0  0  0  0  0
    8.2337   59.1561   18.2552 C   0  0  0  0  0  0  0  0  0  0  0  0
    8.3571   58.0015   17.8392 O   0  0  0  0  0  0  0  0  0  0  0  0
    8.3687   61.1777   18.0325 H   0  0  0  0  0  0  0  0  0  0  0  0
    7.7867   59.5010   19.4975 O   0  0  0  0  0  0  0  0  0  0  0  0
    6.7092   60.4963   19.5347 C   0  0  0  0  0  0  0  0  0  0  0  0
    5.4270   59.7716   19.1130 C   0  0  0  0  0  0  0  0  0  0  0  0
    5.0288   58.9970   20.2555 O   0  0  0  0  0  0  0  0  0  0  0  0
    5.3995   59.7347   21.4447 C   0  0  0  0  0  0  0  0  0  0  0  0
    6.0766   58.8638   22.3006 O   0  0  0  0  0  0  0  0  0  0  0  0
    7.4326   59.2295   22.3908 C   0  0  0  0  0  0  0  0  0  0  0  0
    7.5091   60.7251   22.0353 C   0  0  0  0  0  0  0  0  0  0  0  0
    6.3800   60.8384   20.9849 C   0  0  0  0  0  0  0  0  0  0  0  0
    7.9749   60.5167   15.2261 C   0  0  0  0  0  0  0  0  0  0  0  0
    5.8464   59.1545   15.5971 C   0  0  0  0  0  0  0  0  0  0  0  0
    5.0371   58.0260   15.4797 C   0  0  0  0  0  0  0  0  0  0  0  0
    5.5896   56.9411   14.8096 C   0  0  0  0  0  0  0  0  0  0  0  0
    6.8448   57.0311   14.2468 C   0  0  0  0  0  0  0  0  0  0  0  0
    7.6358   58.1583   14.3747 C   0  0  0  0  0  0  0  0  0  0  0  0
    7.1079   59.2798   15.0292 C   0  0  0  0  0  0  0  0  0  0  0  0
  9 10  1  0  0  0
 10 11  2  0  0  0
 10 15  1  0  0  0
 11 12  1  0  0  0
 12 13  2  0  0  0
 13 14  1  0  0  0
 13  6  1  0  0  0
 14 15  2  0  0  0
  6  7  2  0  0  0
  6  8  2  0  0  0
  6  5  1  0  0  0
  5 18  1  0  0  0
  5  4  1  0  0  0
 18 19  1  0  0  0
 19 20  1  0  0  0
 19 21  1  0  0  0
  4  1  1  0  0  0
  1  2  1  0  0  0
  1 22  1  0  0  0
 22 23  1  0  0  0
 22 36  1  0  0  0
 23 24  1  0  0  0
 24 25  2  0  0  0
 24 27  1  0  0  0
 27 28  1  0  0  0
 28 29  1  0  0  0
 28 35  1  0  0  0
 29 30  1  0  0  0
 30 31  1  0  0  0
 31 32  1  0  0  0
 31 35  1  0  0  0
 32 33  1  0  0  0
 33 34  1  0  0  0
 34 35  1  0  0  0
 36 42  1  0  0  0
 37 38  2  0  0  0
 37 42  1  0  0  0
 38 39  1  0  0  0
 39 40  2  0  0  0
 40 41  1  0  0  0
 41 42  2  0  0  0
  9 16  1  0  0  0
  9 17  1  0  0  0
  2  3  1  0  0  0
 23 26  1  0  0  0
M  END
> <minimizedAffinity>
-9.50537

$$$$
3BVB_017_B_401


 42 45  0  0  0  0  0  0  0  0999 V2000
   12.4277   62.0949   16.8764 C   0  0  0  0  0  0  0  0  0  0  0  0
   12.6068   60.8553   16.1732 O   0  0  0  0  0  0  0  0  0  0  0  0
   12.8509   60.1588   16.8027 H   0  0  0  0  0  0  0  0  0  0  0  0
   13.7441   62.6214   17.5271 C   0  0  0  0  0  0  0  0  0  0  0  0
   14.1887   63.8610   16.8201 N   0  0  0  0  0  0  0  0  0  0  0  0
   14.4987   63.8254   15.1402 S   0  0  0  0  0  0  0  0  0  0  0  0
   13.3203   64.3202   14.4586 O   0  0  0  0  0  0  0  0  0  0  0  0
   15.0909   62.5149   14.8913 O   0  0  0  0  0  0  0  0  0  0  0  0
   18.1180   68.1251   13.1877 N   0  0  0  0  0  0  0  0  0  0  0  0
   17.3857   67.0806   13.7350 C   0  0  0  0  0  0  0  0  0  0  0  0
   16.2781   66.5531   13.0734 C   0  0  0  0  0  0  0  0  0  0  0  0
   15.5329   65.5265   13.5970 C   0  0  0  0  0  0  0  0  0  0  0  0
   15.8562   64.9941   14.8305 C   0  0  0  0  0  0  0  0  0  0  0  0
   16.9999   65.4688   15.4974 C   0  0  0  0  0  0  0  0  0  0  0  0
   17.7116   66.5570   14.9823 C   0  0  0  0  0  0  0  0  0  0  0  0
   17.8762   68.4858   12.3041 H   0  0  0  0  0  0  0  0  0  0  0  0
   18.8791   68.5053   13.6831 H   0  0  0  0  0  0  0  0  0  0  0  0
   13.9369   65.1628   17.4727 C   0  0  0  0  0  0  0  0  0  0  0  0
   14.8902   65.6421   18.5984 C   0  0  0  0  0  0  0  0  0  0  0  0
   15.0804   67.1721   18.4426 C   0  0  0  0  0  0  0  0  0  0  0  0
   14.1045   65.4081   19.9070 C   0  0  0  0  0  0  0  0  0  0  0  0
   11.2875   61.9262   17.8859 C   0  0  0  0  0  0  0  0  0  0  0  0
   10.4843   60.7506   17.4647 N   0  0  0  0  0  0  0  0  0  0  0  0
    9.3751   60.9208   16.6964 C   0  0  0  0  0  0  0  0  0  0  0  0
    8.8945   61.9840   16.2962 O   0  0  0  0  0  0  0  0  0  0  0  0
   10.7553   59.8458   17.7422 H   0  0  0  0  0  0  0  0  0  0  0  0
    8.8871   59.6795   16.4086 O   0  0  0  0  0  0  0  0  0  0  0  0
    8.6089   59.4154   14.9923 C   0  0  0  0  0  0  0  0  0  0  0  0
    9.3357   58.1145   14.6369 C   0  0  0  0  0  0  0  0  0  0  0  0
    8.5383   57.0611   15.2013 O   0  0  0  0  0  0  0  0  0  0  0  0
    7.1504   57.4667   15.1307 C   0  0  0  0  0  0  0  0  0  0  0  0
    6.5754   57.2621   16.3865 O   0  0  0  0  0  0  0  0  0  0  0  0
    6.2721   58.4977   16.9881 C   0  0  0  0  0  0  0  0  0  0  0  0
    6.1173   59.5168   15.8450 C   0  0  0  0  0  0  0  0  0  0  0  0
    7.1543   58.9834   14.8297 C   0  0  0  0  0  0  0  0  0  0  0  0
   11.7132   61.7022   19.3569 C   0  0  0  0  0  0  0  0  0  0  0  0
   10.3230   61.5726   21.4956 C   0  0  0  0  0  0  0  0  0  0  0  0
    9.3525   62.0101   22.3951 C   0  0  0  0  0  0  0  0  0  0  0  0
    8.6573   63.1591   22.0377 C   0  0  0  0  0  0  0  0  0  0  0  0
    8.9788   63.8416   20.8839 C   0  0  0  0  0  0  0  0  0  0  0  0
    9.9436   63.3921   20.0009 C   0  0  0  0  0  0  0  0  0  0  0  0
   10.6786   62.2459   20.3338 C   0  0  0  0  0  0  0  0  0  0  0  0
  9 10  1  0  0  0
 10 11  2  0  0  0
 10 15  1  0  0  0
 11 12  1  0  0  0
 12 13  2  0  0  0
 13 14  1  0  0  0
 13  6  1  0  0  0
 14 15  2  0  0  0
  6  7  2  0  0  0
  6  8  2  0  0  0
  6  5  1  0  0  0
  5 18  1  0  0  0
  5  4  1  0  0  0
 18 19  1  0  0  0
 19 20  1  0  0  0
 19 21  1  0  0  0
  4  1  1  0  0  0
  1  2  1  0  0  0
  1 22  1  0  0  0
 22 23  1  0  0  0
 22 36  1  0  0  0
 23 24  1  0  0  0
 24 25  2  0  0  0
 24 27  1  0  0  0
 27 28  1  0  0  0
 28 29  1  0  0  0
 28 35  1  0  0  0
 29 30  1  0  0  0
 30 31  1  0  0  0
 31 32  1  0  0  0
 31 35  1  0  0  0
 32 33  1  0  0  0
 33 34  1  0  0  0
 34 35  1  0  0  0
 36 42  1  0  0  0
 37 38  2  0  0  0
 37 42  1  0  0  0
 38 39  1  0  0  0
 39 40  2  0  0  0
 40 41  1  0  0  0
 41 42  2  0  0  0
  9 16  1  0  0  0
  9 17  1  0  0  0
  2  3  1  0  0  0
 23 26  1  0  0  0
M  END
> <minimizedAffinity>
-9.46364

$$$$
3BVB_017_B_401


 42 45  0  0  0  0  0  0  0  0999 V2000
   13.0354   61.7405   18.2992 C   0  0  0  0  0  0  0  0  0  0  0  0
   13.9183   60.6422   18.5774 O   0  0  0  0  0  0  0  0  0  0  0  0
   13.4376   59.8063   18.4718 H   0  0  0  0  0  0  0  0  0  0  0  0
   11.8611   61.8512   19.3201 C   0  0  0  0  0  0  0  0  0  0  0  0
   11.3527   63.2566   19.3448 N   0  0  0  0  0  0  0  0  0  0  0  0
    9.6789   63.5656   19.1943 S   0  0  0  0  0  0  0  0  0  0  0  0
    9.2733   63.1828   17.8575 O   0  0  0  0  0  0  0  0  0  0  0  0
    9.4883   64.9017   19.7498 O   0  0  0  0  0  0  0  0  0  0  0  0
    6.0912   59.7489   22.0155 N   0  0  0  0  0  0  0  0  0  0  0  0
    7.0003   60.6558   21.4886 C   0  0  0  0  0  0  0  0  0  0  0  0
    6.7271   61.3473   20.3096 C   0  0  0  0  0  0  0  0  0  0  0  0
    7.6126   62.2426   19.7639 C   0  0  0  0  0  0  0  0  0  0  0  0
    8.8331   62.4685   20.3713 C   0  0  0  0  0  0  0  0  0  0  0  0
    9.1152   61.8263   21.5904 C   0  0  0  0  0  0  0  0  0  0  0  0
    8.2315   60.8699   22.1007 C   0  0  0  0  0  0  0  0  0  0  0  0
    5.2237   59.6074   21.5720 H   0  0  0  0  0  0  0  0  0  0  0  0
    6.3138   59.2471   22.8328 H   0  0  0  0  0  0  0  0  0  0  0  0
   12.2229   64.3015   19.9236 C   0  0  0  0  0  0  0  0  0  0  0  0
   13.4018   64.8563   19.0822 C   0  0  0  0  0  0  0  0  0  0  0  0
   12.8369   65.9339   18.1226 C   0  0  0  0  0  0  0  0  0  0  0  0
   14.3082   65.5795   20.1019 C   0  0  0  0  0  0  0  0  0  0  0  0
   12.5576   61.6308   16.8476 C   0  0  0  0  0  0  0  0  0  0  0  0
   11.2738   60.8848   16.8521 N   0  0  0  0  0  0  0  0  0  0  0  0
   10.6684   60.5597   15.6785 C   0  0  0  0  0  0  0  0  0  0  0  0
   11.0443   60.8380   14.5371 O   0  0  0  0  0  0  0  0  0  0  0  0
   10.8598   60.6249   17.7067 H   0  0  0  0  0  0  0  0  0  0  0  0
    9.5595   59.8257   15.9843 O   0  0  0  0  0  0  0  0  0  0  0  0
    8.6912   59.4795   14.8533 C   0  0  0  0  0  0  0  0  0  0  0  0
    9.1718   58.1223   14.3298 C   0  0  0  0  0  0  0  0  0  0  0  0
    8.6810   57.1516   15.2684 O   0  0  0  0  0  0  0  0  0  0  0  0
    7.4060   57.6208   15.7684 C   0  0  0  0  0  0  0  0  0  0  0  0
    7.4285   57.5321   17.1617 O   0  0  0  0  0  0  0  0  0  0  0  0
    7.4352   58.8198   17.7295 C   0  0  0  0  0  0  0  0  0  0  0  0
    6.8166   59.7645   16.6836 C   0  0  0  0  0  0  0  0  0  0  0  0
    7.3031   59.1112   15.3693 C   0  0  0  0  0  0  0  0  0  0  0  0
   12.3205   62.9704   16.1098 C   0  0  0  0  0  0  0  0  0  0  0  0
   14.8149   63.1975   15.6096 C   0  0  0  0  0  0  0  0  0  0  0  0
   15.9162   63.5566   14.8347 C   0  0  0  0  0  0  0  0  0  0  0  0
   15.6379   64.1605   13.6144 C   0  0  0  0  0  0  0  0  0  0  0  0
   14.3349   64.3208   13.1935 C   0  0  0  0  0  0  0  0  0  0  0  0
   13.2532   63.9607   13.9763 C   0  0  0  0  0  0  0  0  0  0  0  0
   13.4924   63.3334   15.2068 C   0  0  0  0  0  0  0  0  0  0  0  0
  9 10  1  0  0  0
 10 11  2  0  0  0
 10 15  1  0  0  0
 11 12  1  0  0  0
 12 13  2  0  0  0
 13 14  1  0  0  0
 13  6  1  0  0  0
 14 15  2  0  0  0
  6  7  2  0  0  0
  6  8  2  0  0  0
  6  5  1  0  0  0
  5 18  1  0  0  0
  5  4  1  0  0  0
 18 19  1  0  0  0
 19 20  1  0  0  0
 19 21  1  0  0  0
  4  1  1  0  0  0
  1  2  1  0  0  0
  1 22  1  0  0  0
 22 23  1  0  0  0
 22 36  1  0  0  0
 23 24  1  0  0  0
 24 25  2  0  0  0
 24 27  1  0  0  0
 27 28  1  0  0  0
 28 29  1  0  0  0
 28 35  1  0  0  0
 29 30  1  0  0  0
 30 31  1  0  0  0
 31 32  1  0  0  0
 31 35  1  0  0  0
 32 33  1  0  0  0
 33 34  1  0  0  0
 34 35  1  0  0  0
 36 42  1  0  0  0
 37 38  2  0  0  0
 37 42  1  0  0  0
 38 39  1  0  0  0
 39 40  2  0  0  0
 40 41  1  0  0  0
 41 42  2  0  0  0
  9 16  1  0  0  0
  9 17  1  0  0  0
  2  3  1  0  0  0
 23 26  1  0  0  0
M  END
> <minimizedAffinity>
-9.45274

$$$$
3BVB_017_B_401


 42 45  0  0  0  0  0  0  0  0999 V2000
   12.4964   63.3484   16.6627 C   0  0  0  0  0  0  0  0  0  0  0  0
   11.8449   64.4954   16.0945 O   0  0  0  0  0  0  0  0  0  0  0  0
   11.8910   64.4471   15.1268 H   0  0  0  0  0  0  0  0  0  0  0  0
   14.0264   63.3058   16.3615 C   0  0  0  0  0  0  0  0  0  0  0  0
   14.5962   64.6827   16.4785 N   0  0  0  0  0  0  0  0  0  0  0  0
   14.7216   65.4314   18.0092 S   0  0  0  0  0  0  0  0  0  0  0  0
   14.9689   64.3971   18.9926 O   0  0  0  0  0  0  0  0  0  0  0  0
   13.5965   66.3589   18.0712 O   0  0  0  0  0  0  0  0  0  0  0  0
   18.8004   69.7142   18.6572 N   0  0  0  0  0  0  0  0  0  0  0  0
   17.9427   68.6520   18.4064 C   0  0  0  0  0  0  0  0  0  0  0  0
   16.5852   68.7346   18.7117 C   0  0  0  0  0  0  0  0  0  0  0  0
   15.7184   67.6959   18.4813 C   0  0  0  0  0  0  0  0  0  0  0  0
   16.1847   66.5085   17.9502 C   0  0  0  0  0  0  0  0  0  0  0  0
   17.5388   66.4136   17.5819 C   0  0  0  0  0  0  0  0  0  0  0  0
   18.4221   67.4560   17.8809 C   0  0  0  0  0  0  0  0  0  0  0  0
   18.4475   70.5546   19.0292 H   0  0  0  0  0  0  0  0  0  0  0  0
   19.7617   69.6271   18.4631 H   0  0  0  0  0  0  0  0  0  0  0  0
   15.4250   65.1899   15.3650 C   0  0  0  0  0  0  0  0  0  0  0  0
   15.9688   64.1913   14.3102 C   0  0  0  0  0  0  0  0  0  0  0  0
   15.3579   64.5686   12.9370 C   0  0  0  0  0  0  0  0  0  0  0  0
   17.4833   64.4832   14.2346 C   0  0  0  0  0  0  0  0  0  0  0  0
   11.7605   62.0866   16.2003 C   0  0  0  0  0  0  0  0  0  0  0  0
   10.7364   61.7623   17.2254 N   0  0  0  0  0  0  0  0  0  0  0  0
   11.1123   61.4830   18.5022 C   0  0  0  0  0  0  0  0  0  0  0  0
   12.2592   61.4306   18.9531 O   0  0  0  0  0  0  0  0  0  0  0  0
    9.7830   61.7493   16.9801 H   0  0  0  0  0  0  0  0  0  0  0  0
    9.9723   61.2957   19.2284 O   0  0  0  0  0  0  0  0  0  0  0  0
    8.7520   61.8834   18.6640 C   0  0  0  0  0  0  0  0  0  0  0  0
    7.7094   60.7623   18.6085 C   0  0  0  0  0  0  0  0  0  0  0  0
    7.2500   60.5963   19.9595 O   0  0  0  0  0  0  0  0  0  0  0  0
    7.2691   61.8949   20.5990 C   0  0  0  0  0  0  0  0  0  0  0  0
    7.9194   61.7627   21.8275 O   0  0  0  0  0  0  0  0  0  0  0  0
    9.1545   62.4367   21.7973 C   0  0  0  0  0  0  0  0  0  0  0  0
    9.0375   63.5199   20.7099 C   0  0  0  0  0  0  0  0  0  0  0  0
    8.1136   62.8166   19.6889 C   0  0  0  0  0  0  0  0  0  0  0  0
   11.0424   62.1845   14.8328 C   0  0  0  0  0  0  0  0  0  0  0  0
    8.6212   61.3726   14.8783 C   0  0  0  0  0  0  0  0  0  0  0  0
    7.6123   60.4151   14.7908 C   0  0  0  0  0  0  0  0  0  0  0  0
    8.0246   59.1074   14.5647 C   0  0  0  0  0  0  0  0  0  0  0  0
    9.3589   58.8166   14.3760 C   0  0  0  0  0  0  0  0  0  0  0  0
   10.3478   59.7789   14.4685 C   0  0  0  0  0  0  0  0  0  0  0  0
    9.9711   61.1126   14.6789 C   0  0  0  0  0  0  0  0  0  0  0  0
  9 10  1  0  0  0
 10 11  2  0  0  0
 10 15  1  0  0  0
 11 12  1  0  0  0
 12 13  2  0  0  0
 13 14  1  0  0  0
 13  6  1  0  0  0
 14 15  2  0  0  0
  6  7  2  0  0  0
  6  8  2  0  0  0
  6  5  1  0  0  0
  5 18  1  0  0  0
  5  4  1  0  0  0
 18 19  1  0  0  0
 19 20  1  0  0  0
 19 21  1  0  0  0
  4  1  1  0  0  0
  1  2  1  0  0  0
  1 22  1  0  0  0
 22 23  1  0  0  0
 22 36  1  0  0  0
 23 24  1  0  0  0
 24 25  2  0  0  0
 24 27  1  0  0  0
 27 28  1  0  0  0
 28 29  1  0  0  0
 28 35  1  0  0  0
 29 30  1  0  0  0
 30 31  1  0  0  0
 31 32  1  0  0  0
 31 35  1  0  0  0
 32 33  1  0  0  0
 33 34  1  0  0  0
 34 35  1  0  0  0
 36 42  1  0  0  0
 37 38  2  0  0  0
 37 42  1  0  0  0
 38 39  1  0  0  0
 39 40  2  0  0  0
 40 41  1  0  0  0
 41 42  2  0  0  0
  9 16  1  0  0  0
  9 17  1  0  0  0
  2  3  1  0  0  0
 23 26  1  0  0  0
M  END
> <minimizedAffinity>
-9.33056

$$$$
3BVB_017_B_401


 42 45  0  0  0  0  0  0  0  0999 V2000
   14.6643   64.1569   17.3244 C   0  0  0  0  0  0  0  0  0  0  0  0
   15.0139   63.2672   18.3965 O   0  0  0  0  0  0  0  0  0  0  0  0
   15.1765   63.7810   19.2030 H   0  0  0  0  0  0  0  0  0  0  0  0
   15.8265   65.1194   16.9286 C   0  0  0  0  0  0  0  0  0  0  0  0
   16.1573   64.9336   15.4829 N   0  0  0  0  0  0  0  0  0  0  0  0
   17.6798   65.4239   14.8819 S   0  0  0  0  0  0  0  0  0  0  0  0
   18.1894   64.3620   14.0388 O   0  0  0  0  0  0  0  0  0  0  0  0
   18.3921   65.9542   16.0401 O   0  0  0  0  0  0  0  0  0  0  0  0
   17.8116   70.6625   12.0643 N   0  0  0  0  0  0  0  0  0  0  0  0
   17.6530   69.4125   12.6468 C   0  0  0  0  0  0  0  0  0  0  0  0
   18.3055   69.0828   13.8336 C   0  0  0  0  0  0  0  0  0  0  0  0
   18.1719   67.8515   14.4249 C   0  0  0  0  0  0  0  0  0  0  0  0
   17.3879   66.8796   13.8331 C   0  0  0  0  0  0  0  0  0  0  0  0
   16.6745   67.2000   12.6641 C   0  0  0  0  0  0  0  0  0  0  0  0
   16.8700   68.4359   12.0391 C   0  0  0  0  0  0  0  0  0  0  0  0
   18.3686   71.3440   12.5054 H   0  0  0  0  0  0  0  0  0  0  0  0
   17.3670   70.8675   11.2102 H   0  0  0  0  0  0  0  0  0  0  0  0
   15.3633   63.9582   14.7069 C   0  0  0  0  0  0  0  0  0  0  0  0
   14.3045   64.4756   13.6984 C   0  0  0  0  0  0  0  0  0  0  0  0
   14.7672   64.0760   12.2745 C   0  0  0  0  0  0  0  0  0  0  0  0
   13.0302   63.6619   14.0122 C   0  0  0  0  0  0  0  0  0  0  0  0
   13.3768   64.8972   17.7009 C   0  0  0  0  0  0  0  0  0  0  0  0
   12.2443   63.9567   17.5069 N   0  0  0  0  0  0  0  0  0  0  0  0
   11.0702   64.3999   16.9830 C   0  0  0  0  0  0  0  0  0  0  0  0
   10.7841   65.5525   16.6496 O   0  0  0  0  0  0  0  0  0  0  0  0
   12.3436   63.0100   17.7582 H   0  0  0  0  0  0  0  0  0  0  0  0
   10.2491   63.3176   16.8557 O   0  0  0  0  0  0  0  0  0  0  0  0
   10.6607   62.1144   17.5878 C   0  0  0  0  0  0  0  0  0  0  0  0
    9.6083   61.8808   18.6763 C   0  0  0  0  0  0  0  0  0  0  0  0
    8.4691   61.3273   17.9982 O   0  0  0  0  0  0  0  0  0  0  0  0
    8.9545   60.5127   16.9043 C   0  0  0  0  0  0  0  0  0  0  0  0
    8.2518   60.8718   15.7525 O   0  0  0  0  0  0  0  0  0  0  0  0
    9.1085   61.5217   14.8446 C   0  0  0  0  0  0  0  0  0  0  0  0
   10.5371   61.0554   15.1777 C   0  0  0  0  0  0  0  0  0  0  0  0
   10.4431   60.8841   16.7116 C   0  0  0  0  0  0  0  0  0  0  0  0
   13.3020   65.4304   19.1519 C   0  0  0  0  0  0  0  0  0  0  0  0
   15.1874   66.4491   20.5415 C   0  0  0  0  0  0  0  0  0  0  0  0
   16.1438   67.4146   20.8507 C   0  0  0  0  0  0  0  0  0  0  0  0
   16.2013   68.5152   20.0042 C   0  0  0  0  0  0  0  0  0  0  0  0
   15.3897   68.5863   18.8921 C   0  0  0  0  0  0  0  0  0  0  0  0
   14.4441   67.6200   18.6011 C   0  0  0  0  0  0  0  0  0  0  0  0
   14.3664   66.4862   19.4216 C   0  0  0  0  0  0  0  0  0  0  0  0
  9 10  1  0  0  0
 10 11  2  0  0  0
 10 15  1  0  0  0
 11 12  1  0  0  0
 12 13  2  0  0  0
 13 14  1  0  0  0
 13  6  1  0  0  0
 14 15  2  0  0  0
  6  7  2  0  0  0
  6  8  2  0  0  0
  6  5  1  0  0  0
  5 18  1  0  0  0
  5  4  1  0  0  0
 18 19  1  0  0  0
 19 20  1  0  0  0
 19 21  1  0  0  0
  4  1  1  0  0  0
  1  2  1  0  0  0
  1 22  1  0  0  0
 22 23  1  0  0  0
 22 36  1  0  0  0
 23 24  1  0  0  0
 24 25  2  0  0  0
 24 27  1  0  0  0
 27 28  1  0  0  0
 28 29  1  0  0  0
 28 35  1  0  0  0
 29 30  1  0  0  0
 30 31  1  0  0  0
 31 32  1  0  0  0
 31 35  1  0  0  0
 32 33  1  0  0  0
 33 34  1  0  0  0
 34 35  1  0  0  0
 36 42  1  0  0  0
 37 38  2  0  0  0
 37 42  1  0  0  0
 38 39  1  0  0  0
 39 40  2  0  0  0
 40 41  1  0  0  0
 41 42  2  0  0  0
  9 16  1  0  0  0
  9 17  1  0  0  0
  2  3  1  0  0  0
 23 26  1  0  0  0
M  END
> <minimizedAffinity>
-9.32500

$$$$
