5ZAF_28I_U_301
  RCSB PDB12151803133D
Coordinates from PDB:5ZAF:U:301 Model:1 without hydrogens
 25 27  0  0  0  0            999 V2000
   -0.4850   31.6850   26.4990   C 0  0  0  0  0  0  0  0  0  0  0  0
   -0.9980   32.7240   27.2850   C 0  0  0  0  0  0  0  0  0  0  0  0
   -1.7390   38.3060   24.6030   N 0  0  0  0  0  0  0  0  0  0  0  0
   -1.6390   37.7510   25.8020   C 0  0  0  0  0  0  0  0  0  0  0  0
   -1.5630   33.1070   30.8940   C 0  0  0  0  0  0  0  0  0  0  0  0
   -2.3460   31.8010   29.2770   C 0  0  0  0  0  0  0  0  0  0  0  0
   -0.3780   29.2070   26.1790   C 0  0  0  0  0  0  0  0  0  0  0  0
    1.0100   28.6140   25.9060   C 0  0  0  0  0  0  0  0  0  0  0  0
    1.7990   28.0880   28.2630   C 0  0  0  0  0  0  0  0  0  0  0  0
   -0.1400   33.3680   23.3120   N 0  0  0  0  0  0  0  0  0  0  0  0
   -0.4350   33.1710   24.6270   C 0  0  0  0  0  0  0  0  0  0  0  0
   -1.2230   35.8010   23.7520   O 0  0  0  0  0  0  0  0  0  0  0  0
   -1.2320   35.5600   24.9480   C 0  0  0  0  0  0  0  0  0  0  0  0
   -1.3890   36.4550   25.9320   N 0  0  0  0  0  0  0  0  0  0  0  0
   -1.7620   38.4400   26.8500   N 0  0  0  0  0  0  0  0  0  0  0  0
   -0.9570   34.1780   25.4270   C 0  0  0  0  0  0  0  0  0  0  0  0
   -0.2060   31.9600   25.1870   N 0  0  0  0  0  0  0  0  0  0  0  0
   -1.2290   33.9290   26.7270   N 0  0  0  0  0  0  0  0  0  0  0  0
   -1.3970   32.6460   28.7170   C 0  0  0  0  0  0  0  0  0  0  0  0
   -0.9330   33.4580   29.7180   C 0  0  0  0  0  0  0  0  0  0  0  0
   -2.4390   32.0840   30.6200   O 0  0  0  0  0  0  0  0  0  0  0  0
   -0.1450   30.4030   26.9880   N 0  0  0  0  0  0  0  0  0  0  0  0
    0.6330   30.3260   28.2510   C 0  0  0  0  0  0  0  0  0  0  0  0
    0.6890   28.9330   28.8770   C 0  0  0  0  0  0  0  0  0  0  0  0
    1.3780   27.5230   26.9120   C 0  0  0  0  0  0  0  0  0  0  0  0
 10 11  1  0  0  0  0
 12 13  2  0  0  0  0
  3  4  2  0  0  0  0
 11 17  2  0  0  0  0
 11 16  1  0  0  0  0
 13 16  1  0  0  0  0
 13 14  1  0  0  0  0
 17  1  1  0  0  0  0
 16 18  2  0  0  0  0
  4 14  1  0  0  0  0
  4 15  1  0  0  0  0
  8  7  1  0  0  0  0
  8 25  1  0  0  0  0
  7 22  1  0  0  0  0
  1 22  1  0  0  0  0
  1  2  2  0  0  0  0
 18  2  1  0  0  0  0
 25  9  1  0  0  0  0
 22 23  1  0  0  0  0
  2 19  1  0  0  0  0
 23 24  1  0  0  0  0
  9 24  1  0  0  0  0
 19  6  2  0  0  0  0
 19 20  1  0  0  0  0
  6 21  1  0  0  0  0
 20  5  2  0  0  0  0
 21  5  1  0  0  0  0
A    1
C1
A    2
C2
A    3
N6
A    4
C7
A    5
C9
A    6
C10
A    7
C11
A    8
C12
A    9
C14
A   10
N3
A   11
C4
A   12
O1
A   13
C6
A   14
N5
A   15
N7
A   16
C3
A   17
N1
A   18
N2
A   19
C5
A   20
C8
A   21
O2
A   22
N4
A   23
C16
A   24
C15
A   25
C13
M  END
>  <InstanceId>
5ZAF_28I_U_301

>  <ChemCompId>
28I

>  <PdbId>
5ZAF

>  <ChainId>
U

>  <ResidueNumber>
301

>  <InsertionCode>


>  <Model>
1

>  <AltIds>


>  <MissingHeavyAtoms>
0

>  <ObservedFormula>
C16 N7 O2

>  <Name>
3-azanyl-5-(azepan-1-yl)-N-carbamimidoyl-6-(furan-3-yl)pyrazine-2-carboxamide

>  <SystematicName>
3-azanyl-5-(azepan-1-yl)-~{N}-carbamimidoyl-6-(furan-3-yl)pyrazine-2-carboxamide

>  <Synonyms>


>  <Type>
NON-POLYMER

>  <Formula>
C16 H21 N7 O2

>  <MolecularWeight>
343.384

>  <ModifiedDate>
2018-12-14

>  <Parent>


>  <OneLetterCode>


>  <SubcomponentList>


>  <AmbiguousFlag>
N

>  <InChI>
InChI=1S/C16H21N7O2/c17-13-12(15(24)22-16(18)19)20-11(10-5-8-25-9-10)14(21-13)23-6-3-1-2-4-7-23/h5,8-9H,1-4,6-7H2,(H2,17,21)(H4,18,19,22,24)

>  <InChIKey>
XTKNHHMMUHAGKV-UHFFFAOYSA-N

>  <SMILES>
[H]/N=C(\N)/NC(=O)c1c(nc(c(n1)c2ccoc2)N3CCCCCC3)N

$$$$
