2WJG_GDP_A_200
  RCSB PDB12061707163D
Coordinates from PDB:2WJG:A:200 Model:1 without hydrogens
 28 30  0  0  0  0            999 V2000
   -7.5630   25.9100  -19.0170   P 0  0  0  0  0  0  0  0  0  0  0  0
   -8.4760   27.1210  -18.9600   O 0  0  0  0  0  0  0  0  0  0  0  0
   -8.3690   24.6790  -18.6650   O 0  0  0  0  0  0  0  0  0  0  0  0
   -6.4330   26.1080  -18.0200   O 0  0  0  0  0  0  0  0  0  0  0  0
   -6.9220   25.6130  -20.4570   O 0  0  0  0  0  0  0  0  0  0  0  0
   -6.7230   26.6880  -21.6380   P 0  0  0  0  0  0  0  0  0  0  0  0
   -5.9680   27.9350  -21.2680   O 0  0  0  0  0  0  0  0  0  0  0  0
   -8.0690   27.0330  -22.2390   O 0  0  0  0  0  0  0  0  0  0  0  0
   -5.8060   25.7750  -22.6040   O 0  0  0  0  0  0  0  0  0  0  0  0
   -4.5320   25.3640  -22.1040   C 0  0  0  0  0  0  0  0  0  0  0  0
   -3.6540   24.9750  -23.2810   C 0  0  0  0  0  0  0  0  0  0  0  0
   -4.2450   23.8810  -23.9930   O 0  0  0  0  0  0  0  0  0  0  0  0
   -3.5810   26.1390  -24.2490   C 0  0  0  0  0  0  0  0  0  0  0  0
   -2.2350   26.1760  -24.7270   O 0  0  0  0  0  0  0  0  0  0  0  0
   -4.5350   25.7580  -25.3580   C 0  0  0  0  0  0  0  0  0  0  0  0
   -4.1710   26.2730  -26.6410   O 0  0  0  0  0  0  0  0  0  0  0  0
   -4.3930   24.2570  -25.3580   C 0  0  0  0  0  0  0  0  0  0  0  0
   -5.6040   23.6470  -25.9170   N 0  0  0  0  0  0  0  0  0  0  0  0
   -6.8760   23.9660  -25.6400   C 0  0  0  0  0  0  0  0  0  0  0  0
   -7.7220   23.1740  -26.3450   N 0  0  0  0  0  0  0  0  0  0  0  0
   -6.9740   22.3250  -27.0840   C 0  0  0  0  0  0  0  0  0  0  0  0
   -7.2300   21.2320  -28.0600   C 0  0  0  0  0  0  0  0  0  0  0  0
   -8.4120   20.8940  -28.3620   O 0  0  0  0  0  0  0  0  0  0  0  0
   -6.1560   20.6200  -28.5960   N 0  0  0  0  0  0  0  0  0  0  0  0
   -4.8900   20.9760  -28.2730   C 0  0  0  0  0  0  0  0  0  0  0  0
   -3.8570   20.3210  -28.8340   N 0  0  0  0  0  0  0  0  0  0  0  0
   -4.5840   21.9710  -27.3990   N 0  0  0  0  0  0  0  0  0  0  0  0
   -5.5780   22.6480  -26.7840   C 0  0  0  0  0  0  0  0  0  0  0  0
  1  2  2  0  0  0  0
  1  3  1  0  0  0  0
  1  4  1  0  0  0  0
  1  5  1  0  0  0  0
  5  6  1  0  0  0  0
  6  7  2  0  0  0  0
  6  8  1  0  0  0  0
  6  9  1  0  0  0  0
  9 10  1  0  0  0  0
 10 11  1  0  0  0  0
 11 12  1  0  0  0  0
 11 13  1  0  0  0  0
 12 17  1  0  0  0  0
 13 14  1  0  0  0  0
 13 15  1  0  0  0  0
 15 16  1  0  0  0  0
 15 17  1  0  0  0  0
 17 18  1  0  0  0  0
 18 19  1  0  0  0  0
 18 28  1  0  0  0  0
 19 20  2  0  0  0  0
 20 21  1  0  0  0  0
 21 22  1  0  0  0  0
 21 28  2  0  0  0  0
 22 23  2  0  0  0  0
 22 24  1  0  0  0  0
 24 25  1  0  0  0  0
 25 26  1  0  0  0  0
 25 27  2  0  0  0  0
 27 28  1  0  0  0  0
A    1
PB
A    2
O1B
A    3
O2B
A    4
O3B
A    5
O3A
A    6
PA
A    7
O1A
A    8
O2A
A    9
O5'
A   10
C5'
A   11
C4'
A   12
O4'
A   13
C3'
A   14
O3'
A   15
C2'
A   16
O2'
A   17
C1'
A   18
N9
A   19
C8
A   20
N7
A   21
C5
A   22
C6
A   23
O6
A   24
N1
A   25
C2
A   26
N2
A   27
N3
A   28
C4
M  END
>  <InstanceId>
2WJG_GDP_A_200

>  <ChemCompId>
GDP

>  <PdbId>
2WJG

>  <ChainId>
A

>  <ResidueNumber>
200

>  <InsertionCode>


>  <Model>
1

>  <AltIds>


>  <MissingHeavyAtoms>
0

>  <ObservedFormula>
C10 N5 O11 P2

>  <Name>
GUANOSINE-5'-DIPHOSPHATE

>  <SystematicName>
[(2R,3S,4R,5R)-5-(2-azanyl-6-oxidanylidene-1H-purin-9-yl)-3,4-bis(oxidanyl)oxolan-2-yl]methyl phosphono hydrogen phosphate

>  <Synonyms>


>  <Type>
RNA LINKING

>  <Formula>
C10 H15 N5 O11 P2

>  <MolecularWeight>
443.201

>  <ModifiedDate>
2014-05-12

>  <Parent>
G

>  <OneLetterCode>
G

>  <SubcomponentList>


>  <AmbiguousFlag>
N

>  <InChI>
InChI=1S/C10H15N5O11P2/c11-10-13-7-4(8(18)14-10)12-2-15(7)9-6(17)5(16)3(25-9)1-24-28(22,23)26-27(19,20)21/h2-3,5-6,9,16-17H,1H2,(H,22,23)(H2,19,20,21)(H3,11,13,14,18)/t3-,5-,6-,9-/m1/s1

>  <InChIKey>
QGWNDRXFNXRZMB-UUOKFMHZSA-N

>  <SMILES>
c1nc2c(n1[C@H]3[C@@H]([C@@H]([C@H](O3)CO[P@](=O)(O)OP(=O)(O)O)O)O)N=C(NC2=O)N

$$$$
