4IJ1_17C_A_401


 22 23  0  0  0  0  0  0  0  0999 V2000
    4.7068    2.6832   30.5018 N   0  0  0  0  0  0  0  0  0  0  0  0
    4.0299    2.1321   30.0465 H   0  0  0  0  0  0  0  0  0  0  0  0
    8.1609    1.9502   29.3885 C   0  0  0  0  0  0  0  0  0  0  0  0
    8.6100    1.1693   30.4442 C   0  0  0  0  0  0  0  0  0  0  0  0
    6.8672    2.4591   29.4137 C   0  0  0  0  0  0  0  0  0  0  0  0
    7.7616    0.9052   31.5132 C   0  0  0  0  0  0  0  0  0  0  0  0
    5.9883    2.1920   30.4676 C   0  0  0  0  0  0  0  0  0  0  0  0
    6.4636    1.4110   31.5278 C   0  0  0  0  0  0  0  0  0  0  0  0
    4.4616    0.6253   32.5854 O   0  0  0  0  0  0  0  0  0  0  0  0
    6.1033    1.2611   33.8640 O   0  0  0  0  0  0  0  0  0  0  0  0
    5.6207    1.0757   32.7225 C   0  0  0  0  0  0  0  0  0  0  0  0
    4.1099    0.4903   31.7274 H   0  0  0  0  0  0  0  0  0  0  0  0
    4.5161    6.0661   31.9752 C   0  0  0  0  0  0  0  0  0  0  0  0
    3.1555    6.1380   32.2550 C   0  0  0  0  0  0  0  0  0  0  0  0
    5.0490    4.9269   31.3871 C   0  0  0  0  0  0  0  0  0  0  0  0
    2.3259    5.0632   31.9383 C   0  0  0  0  0  0  0  0  0  0  0  0
    4.2373    3.8354   31.0822 C   0  0  0  0  0  0  0  0  0  0  0  0
    2.8734    3.9253   31.3537 C   0  0  0  0  0  0  0  0  0  0  0  0
    2.0452    1.6997   31.6549 O   0  0  0  0  0  0  0  0  0  0  0  0
    1.1202    2.9613   30.1114 O   0  0  0  0  0  0  0  0  0  0  0  0
    1.9627    2.7846   31.0191 C   0  0  0  0  0  0  0  0  0  0  0  0
    2.6878    1.5997   32.3294 H   0  0  0  0  0  0  0  0  0  0  0  0
 11  9  1  0  0  0
 21 19  1  0  0  0
 10 11  2  0  0  0
 20 21  2  0  0  0
  4  3  2  0  0  0
  3  5  1  0  0  0
 15 13  2  0  0  0
 13 14  1  0  0  0
  6  4  1  0  0  0
 16 14  2  0  0  0
  7  5  2  0  0  0
 17 15  1  0  0  0
  6  8  2  0  0  0
 18 16  1  0  0  0
  7  1  1  0  0  0
  1 17  1  0  0  0
 11  8  1  0  0  0
 21 18  1  0  0  0
  8  7  1  0  0  0
 17 18  2  0  0  0
  9 12  1  0  0  0
 19 22  1  0  0  0
  1  2  1  0  0  0
M  END
> <minimizedAffinity>
-7.74196

$$$$
4IJ1_17C_A_401


 22 23  0  0  0  0  0  0  0  0999 V2000
    4.7385    2.5929   30.5225 N   0  0  0  0  0  0  0  0  0  0  0  0
    4.0594    2.0068   30.1167 H   0  0  0  0  0  0  0  0  0  0  0  0
    4.6004    6.0320   31.8866 C   0  0  0  0  0  0  0  0  0  0  0  0
    3.2430    6.1486   32.1504 C   0  0  0  0  0  0  0  0  0  0  0  0
    5.0937    4.8535   31.3379 C   0  0  0  0  0  0  0  0  0  0  0  0
    2.3934    5.0864   31.8636 C   0  0  0  0  0  0  0  0  0  0  0  0
    4.2633    3.7641   31.0584 C   0  0  0  0  0  0  0  0  0  0  0  0
    2.8957    3.9052   31.3221 C   0  0  0  0  0  0  0  0  0  0  0  0
    1.9332    1.7408   31.6870 O   0  0  0  0  0  0  0  0  0  0  0  0
    1.0483    2.9996   30.1486 O   0  0  0  0  0  0  0  0  0  0  0  0
    1.9048    2.8138   31.0442 C   0  0  0  0  0  0  0  0  0  0  0  0
    2.5777    1.6117   32.3548 H   0  0  0  0  0  0  0  0  0  0  0  0
    8.1978    1.8939   29.4290 C   0  0  0  0  0  0  0  0  0  0  0  0
    8.6433    1.1206   30.4959 C   0  0  0  0  0  0  0  0  0  0  0  0
    6.9037    2.3967   29.4232 C   0  0  0  0  0  0  0  0  0  0  0  0
    7.7871    0.8555   31.5638 C   0  0  0  0  0  0  0  0  0  0  0  0
    6.0281    2.1247   30.4733 C   0  0  0  0  0  0  0  0  0  0  0  0
    6.4908    1.3613   31.5434 C   0  0  0  0  0  0  0  0  0  0  0  0
    4.4367    0.5981   32.5066 O   0  0  0  0  0  0  0  0  0  0  0  0
    6.0332    1.2838   33.8522 O   0  0  0  0  0  0  0  0  0  0  0  0
    5.5900    1.0666   32.7027 C   0  0  0  0  0  0  0  0  0  0  0  0
    4.1348    0.4470   31.6325 H   0  0  0  0  0  0  0  0  0  0  0  0
 11  9  1  0  0  0
 21 19  1  0  0  0
 10 11  2  0  0  0
 20 21  2  0  0  0
  4  3  2  0  0  0
  3  5  1  0  0  0
 15 13  2  0  0  0
 13 14  1  0  0  0
  6  4  1  0  0  0
 16 14  2  0  0  0
  7  5  2  0  0  0
 17 15  1  0  0  0
  6  8  2  0  0  0
 18 16  1  0  0  0
  7  1  1  0  0  0
  1 17  1  0  0  0
 11  8  1  0  0  0
 21 18  1  0  0  0
  8  7  1  0  0  0
 17 18  2  0  0  0
  9 12  1  0  0  0
 19 22  1  0  0  0
  1  2  1  0  0  0
M  END
> <minimizedAffinity>
-7.72501

$$$$
4IJ1_17C_A_401


 22 23  0  0  0  0  0  0  0  0999 V2000
    4.0627    2.7195   31.1301 N   0  0  0  0  0  0  0  0  0  0  0  0
    3.4035    2.1587   30.6610 H   0  0  0  0  0  0  0  0  0  0  0  0
    6.9408    1.0053   32.7067 C   0  0  0  0  0  0  0  0  0  0  0  0
    7.8377    0.9842   31.6480 C   0  0  0  0  0  0  0  0  0  0  0  0
    5.6845    1.5743   32.5302 C   0  0  0  0  0  0  0  0  0  0  0  0
    7.4698    1.5321   30.4246 C   0  0  0  0  0  0  0  0  0  0  0  0
    5.2975    2.1491   31.3159 C   0  0  0  0  0  0  0  0  0  0  0  0
    6.2125    2.1086   30.2571 C   0  0  0  0  0  0  0  0  0  0  0  0
    4.8752    2.3240   28.2800 O   0  0  0  0  0  0  0  0  0  0  0  0
    6.7003    3.5019   28.4050 O   0  0  0  0  0  0  0  0  0  0  0  0
    5.9027    2.6734   28.9024 C   0  0  0  0  0  0  0  0  0  0  0  0
    4.2851    1.7037   28.6607 H   0  0  0  0  0  0  0  0  0  0  0  0
    3.9611    6.2715   32.1423 C   0  0  0  0  0  0  0  0  0  0  0  0
    2.5874    6.4569   32.2577 C   0  0  0  0  0  0  0  0  0  0  0  0
    4.4698    5.0366   31.7630 C   0  0  0  0  0  0  0  0  0  0  0  0
    1.7209    5.3990   31.9862 C   0  0  0  0  0  0  0  0  0  0  0  0
    3.6186    3.9626   31.5072 C   0  0  0  0  0  0  0  0  0  0  0  0
    2.2438    4.1650   31.6118 C   0  0  0  0  0  0  0  0  0  0  0  0
    0.9188    2.2754   32.2471 O   0  0  0  0  0  0  0  0  0  0  0  0
    0.8830    2.9208   30.1467 O   0  0  0  0  0  0  0  0  0  0  0  0
    1.2940    3.0442   31.3218 C   0  0  0  0  0  0  0  0  0  0  0  0
    1.2458    2.3949   33.1171 H   0  0  0  0  0  0  0  0  0  0  0  0
 11  9  1  0  0  0
 21 19  1  0  0  0
 10 11  2  0  0  0
 20 21  2  0  0  0
  4  3  2  0  0  0
  3  5  1  0  0  0
 15 13  2  0  0  0
 13 14  1  0  0  0
  6  4  1  0  0  0
 16 14  2  0  0  0
  7  5  2  0  0  0
 17 15  1  0  0  0
  6  8  2  0  0  0
 18 16  1  0  0  0
  7  1  1  0  0  0
  1 17  1  0  0  0
 11  8  1  0  0  0
 21 18  1  0  0  0
  8  7  1  0  0  0
 17 18  2  0  0  0
  9 12  1  0  0  0
 19 22  1  0  0  0
  1  2  1  0  0  0
M  END
> <minimizedAffinity>
-7.71173

$$$$
4IJ1_17C_A_401


 22 23  0  0  0  0  0  0  0  0999 V2000
    4.0223    2.6824   31.1785 N   0  0  0  0  0  0  0  0  0  0  0  0
    3.3446    2.0959   30.7711 H   0  0  0  0  0  0  0  0  0  0  0  0
    4.0299    6.2822   32.0441 C   0  0  0  0  0  0  0  0  0  0  0  0
    2.6672    6.5238   32.1465 C   0  0  0  0  0  0  0  0  0  0  0  0
    4.4775    5.0079   31.7140 C   0  0  0  0  0  0  0  0  0  0  0  0
    1.7667    5.4897   31.9185 C   0  0  0  0  0  0  0  0  0  0  0  0
    3.5932    3.9466   31.4989 C   0  0  0  0  0  0  0  0  0  0  0  0
    2.2224    4.2131   31.5968 C   0  0  0  0  0  0  0  0  0  0  0  0
    1.0116    2.2308   32.1869 O   0  0  0  0  0  0  0  0  0  0  0  0
    0.4786    3.2314   30.3298 O   0  0  0  0  0  0  0  0  0  0  0  0
    1.1785    3.1606   31.3667 C   0  0  0  0  0  0  0  0  0  0  0  0
    1.5402    2.1868   32.9593 H   0  0  0  0  0  0  0  0  0  0  0  0
    6.9526    0.9767   32.6465 C   0  0  0  0  0  0  0  0  0  0  0  0
    7.8219    0.9995   31.5610 C   0  0  0  0  0  0  0  0  0  0  0  0
    5.6826    1.5268   32.5360 C   0  0  0  0  0  0  0  0  0  0  0  0
    7.4123    1.5728   30.3580 C   0  0  0  0  0  0  0  0  0  0  0  0
    5.2641    2.1219   31.3468 C   0  0  0  0  0  0  0  0  0  0  0  0
    6.1387    2.1253   30.2619 C   0  0  0  0  0  0  0  0  0  0  0  0
    6.3581    3.7066   28.4784 O   0  0  0  0  0  0  0  0  0  0  0  0
    4.7373    2.2262   28.3719 O   0  0  0  0  0  0  0  0  0  0  0  0
    5.7191    2.7326   28.9590 C   0  0  0  0  0  0  0  0  0  0  0  0
    7.0893    4.0627   28.9437 H   0  0  0  0  0  0  0  0  0  0  0  0
 11  9  1  0  0  0
 21 19  1  0  0  0
 10 11  2  0  0  0
 20 21  2  0  0  0
  4  3  2  0  0  0
  3  5  1  0  0  0
 15 13  2  0  0  0
 13 14  1  0  0  0
  6  4  1  0  0  0
 16 14  2  0  0  0
  7  5  2  0  0  0
 17 15  1  0  0  0
  6  8  2  0  0  0
 18 16  1  0  0  0
  7  1  1  0  0  0
  1 17  1  0  0  0
 11  8  1  0  0  0
 21 18  1  0  0  0
  8  7  1  0  0  0
 17 18  2  0  0  0
  9 12  1  0  0  0
 19 22  1  0  0  0
  1  2  1  0  0  0
M  END
> <minimizedAffinity>
-7.59807

$$$$
4IJ1_17C_A_401


 22 23  0  0  0  0  0  0  0  0999 V2000
    8.1206    2.0424   28.7118 N   0  0  0  0  0  0  0  0  0  0  0  0
    7.6433    2.7269   28.1894 H   0  0  0  0  0  0  0  0  0  0  0  0
   11.2594    0.1487   28.1932 C   0  0  0  0  0  0  0  0  0  0  0  0
   11.6500    0.6349   26.9536 C   0  0  0  0  0  0  0  0  0  0  0  0
   10.0825    0.6110   28.7715 C   0  0  0  0  0  0  0  0  0  0  0  0
   10.8608    1.5779   26.3054 C   0  0  0  0  0  0  0  0  0  0  0  0
    9.2815    1.5731   28.1491 C   0  0  0  0  0  0  0  0  0  0  0  0
    9.6873    2.0434   26.8945 C   0  0  0  0  0  0  0  0  0  0  0  0
    7.6485    3.0571   26.1464 O   0  0  0  0  0  0  0  0  0  0  0  0
    9.5237    3.9093   25.4449 O   0  0  0  0  0  0  0  0  0  0  0  0
    8.8994    3.0591   26.1214 C   0  0  0  0  0  0  0  0  0  0  0  0
    7.1911    2.4171   26.6554 H   0  0  0  0  0  0  0  0  0  0  0  0
    7.5934    0.8626   32.1733 C   0  0  0  0  0  0  0  0  0  0  0  0
    6.2157    1.0195   32.2813 C   0  0  0  0  0  0  0  0  0  0  0  0
    8.2450    1.2028   30.9954 C   0  0  0  0  0  0  0  0  0  0  0  0
    5.4899    1.5249   31.2036 C   0  0  0  0  0  0  0  0  0  0  0  0
    7.5321    1.6907   29.9013 C   0  0  0  0  0  0  0  0  0  0  0  0
    6.1543    1.8574   30.0269 C   0  0  0  0  0  0  0  0  0  0  0  0
    5.6973    3.4786   28.3261 O   0  0  0  0  0  0  0  0  0  0  0  0
    4.3631    1.7412   28.5024 O   0  0  0  0  0  0  0  0  0  0  0  0
    5.3548    2.4016   28.8836 C   0  0  0  0  0  0  0  0  0  0  0  0
    6.4458    3.9493   28.6363 H   0  0  0  0  0  0  0  0  0  0  0  0
 11  9  1  0  0  0
 21 19  1  0  0  0
 10 11  2  0  0  0
 20 21  2  0  0  0
  4  3  2  0  0  0
  3  5  1  0  0  0
 15 13  2  0  0  0
 13 14  1  0  0  0
  6  4  1  0  0  0
 16 14  2  0  0  0
  7  5  2  0  0  0
 17 15  1  0  0  0
  6  8  2  0  0  0
 18 16  1  0  0  0
  7  1  1  0  0  0
  1 17  1  0  0  0
 11  8  1  0  0  0
 21 18  1  0  0  0
  8  7  1  0  0  0
 17 18  2  0  0  0
  9 12  1  0  0  0
 19 22  1  0  0  0
  1  2  1  0  0  0
M  END
> <minimizedAffinity>
-7.40809

$$$$
4IJ1_17C_A_401


 22 23  0  0  0  0  0  0  0  0999 V2000
    8.0331    2.0992   28.8873 N   0  0  0  0  0  0  0  0  0  0  0  0
    7.5887    2.8098   28.3707 H   0  0  0  0  0  0  0  0  0  0  0  0
    7.4876    0.9278   32.3568 C   0  0  0  0  0  0  0  0  0  0  0  0
    6.1090    1.0524   32.4554 C   0  0  0  0  0  0  0  0  0  0  0  0
    8.1256    1.2842   31.1740 C   0  0  0  0  0  0  0  0  0  0  0  0
    5.3829    1.5313   31.3711 C   0  0  0  0  0  0  0  0  0  0  0  0
    7.4162    1.7499   30.0629 C   0  0  0  0  0  0  0  0  0  0  0  0
    6.0276    1.8783   30.1858 C   0  0  0  0  0  0  0  0  0  0  0  0
    5.3165    3.5415   28.6137 O   0  0  0  0  0  0  0  0  0  0  0  0
    4.2801    1.6284   28.6067 O   0  0  0  0  0  0  0  0  0  0  0  0
    5.1635    2.3867   29.0699 C   0  0  0  0  0  0  0  0  0  0  0  0
    5.9800    4.1008   28.9670 H   0  0  0  0  0  0  0  0  0  0  0  0
   11.1489    0.1867   28.3531 C   0  0  0  0  0  0  0  0  0  0  0  0
   11.5009    0.6360   27.0847 C   0  0  0  0  0  0  0  0  0  0  0  0
    9.9959    0.6583   28.9661 C   0  0  0  0  0  0  0  0  0  0  0  0
   10.6888    1.5589   26.4272 C   0  0  0  0  0  0  0  0  0  0  0  0
    9.1832    1.5963   28.3313 C   0  0  0  0  0  0  0  0  0  0  0  0
    9.5385    2.0275   27.0547 C   0  0  0  0  0  0  0  0  0  0  0  0
    7.4541    3.1144   26.6037 O   0  0  0  0  0  0  0  0  0  0  0  0
    9.2280    3.7384   25.4664 O   0  0  0  0  0  0  0  0  0  0  0  0
    8.6797    3.0159   26.3281 C   0  0  0  0  0  0  0  0  0  0  0  0
    7.0741    2.5578   27.2547 H   0  0  0  0  0  0  0  0  0  0  0  0
 11  9  1  0  0  0
 21 19  1  0  0  0
 10 11  2  0  0  0
 20 21  2  0  0  0
  4  3  2  0  0  0
  3  5  1  0  0  0
 15 13  2  0  0  0
 13 14  1  0  0  0
  6  4  1  0  0  0
 16 14  2  0  0  0
  7  5  2  0  0  0
 17 15  1  0  0  0
  6  8  2  0  0  0
 18 16  1  0  0  0
  7  1  1  0  0  0
  1 17  1  0  0  0
 11  8  1  0  0  0
 21 18  1  0  0  0
  8  7  1  0  0  0
 17 18  2  0  0  0
  9 12  1  0  0  0
 19 22  1  0  0  0
  1  2  1  0  0  0
M  END
> <minimizedAffinity>
-7.17974

$$$$
4IJ1_17C_A_401


 22 23  0  0  0  0  0  0  0  0999 V2000
    5.1000    4.1738   30.9430 N   0  0  0  0  0  0  0  0  0  0  0  0
    5.4755    4.8608   30.3461 H   0  0  0  0  0  0  0  0  0  0  0  0
    6.9655    1.5886   32.8255 C   0  0  0  0  0  0  0  0  0  0  0  0
    7.6585    0.9708   31.7940 C   0  0  0  0  0  0  0  0  0  0  0  0
    6.1097    2.6465   32.5397 C   0  0  0  0  0  0  0  0  0  0  0  0
    7.4892    1.4169   30.4884 C   0  0  0  0  0  0  0  0  0  0  0  0
    5.9370    3.1264   31.2379 C   0  0  0  0  0  0  0  0  0  0  0  0
    6.6368    2.4832   30.2102 C   0  0  0  0  0  0  0  0  0  0  0  0
    5.3977    2.9622   28.2154 O   0  0  0  0  0  0  0  0  0  0  0  0
    7.5627    3.1662   28.1398 O   0  0  0  0  0  0  0  0  0  0  0  0
    6.5158    2.8948   28.7727 C   0  0  0  0  0  0  0  0  0  0  0  0
    4.6208    2.7572   28.6975 H   0  0  0  0  0  0  0  0  0  0  0  0
    1.4674    3.8253   31.5210 C   0  0  0  0  0  0  0  0  0  0  0  0
    1.2299    4.9569   32.2941 C   0  0  0  0  0  0  0  0  0  0  0  0
    2.7494    3.5457   31.0673 C   0  0  0  0  0  0  0  0  0  0  0  0
    2.2854    5.8086   32.6170 C   0  0  0  0  0  0  0  0  0  0  0  0
    3.8125    4.3973   31.3641 C   0  0  0  0  0  0  0  0  0  0  0  0
    3.5647    5.5198   32.1518 C   0  0  0  0  0  0  0  0  0  0  0  0
    5.0804    6.5262   33.7073 O   0  0  0  0  0  0  0  0  0  0  0  0
    5.2085    7.1108   31.5927 O   0  0  0  0  0  0  0  0  0  0  0  0
    4.6835    6.4469   32.5139 C   0  0  0  0  0  0  0  0  0  0  0  0
    4.6653    6.0151   34.3740 H   0  0  0  0  0  0  0  0  0  0  0  0
 11  9  1  0  0  0
 21 19  1  0  0  0
 10 11  2  0  0  0
 20 21  2  0  0  0
  4  3  2  0  0  0
  3  5  1  0  0  0
 15 13  2  0  0  0
 13 14  1  0  0  0
  6  4  1  0  0  0
 16 14  2  0  0  0
  7  5  2  0  0  0
 17 15  1  0  0  0
  6  8  2  0  0  0
 18 16  1  0  0  0
  7  1  1  0  0  0
  1 17  1  0  0  0
 11  8  1  0  0  0
 21 18  1  0  0  0
  8  7  1  0  0  0
 17 18  2  0  0  0
  9 12  1  0  0  0
 19 22  1  0  0  0
  1  2  1  0  0  0
M  END
> <minimizedAffinity>
-7.17775

$$$$
4IJ1_17C_A_401


 22 23  0  0  0  0  0  0  0  0999 V2000
    4.7686    3.6670   31.7888 N   0  0  0  0  0  0  0  0  0  0  0  0
    4.4397    3.1261   32.5428 H   0  0  0  0  0  0  0  0  0  0  0  0
    2.5513    6.3028   30.4310 C   0  0  0  0  0  0  0  0  0  0  0  0
    2.8618    7.3590   31.2758 C   0  0  0  0  0  0  0  0  0  0  0  0
    3.1793    5.0750   30.6084 C   0  0  0  0  0  0  0  0  0  0  0  0
    3.7966    7.1771   32.2885 C   0  0  0  0  0  0  0  0  0  0  0  0
    4.1368    4.8721   31.6068 C   0  0  0  0  0  0  0  0  0  0  0  0
    4.4286    5.9468   32.4552 C   0  0  0  0  0  0  0  0  0  0  0  0
    5.0739    6.0305   34.7618 O   0  0  0  0  0  0  0  0  0  0  0  0
    6.6112    5.5674   33.2932 O   0  0  0  0  0  0  0  0  0  0  0  0
    5.4216    5.8429   33.5747 C   0  0  0  0  0  0  0  0  0  0  0  0
    4.1819    6.2361   34.9618 H   0  0  0  0  0  0  0  0  0  0  0  0
    7.4065    3.1099   29.2624 C   0  0  0  0  0  0  0  0  0  0  0  0
    7.8956    1.8776   29.6826 C   0  0  0  0  0  0  0  0  0  0  0  0
    6.3703    3.7228   29.9539 C   0  0  0  0  0  0  0  0  0  0  0  0
    7.3451    1.2606   30.8051 C   0  0  0  0  0  0  0  0  0  0  0  0
    5.7950    3.1106   31.0664 C   0  0  0  0  0  0  0  0  0  0  0  0
    6.3036    1.8831   31.4865 C   0  0  0  0  0  0  0  0  0  0  0  0
    4.5694    0.7146   32.6512 O   0  0  0  0  0  0  0  0  0  0  0  0
    6.4492    1.1274   33.7122 O   0  0  0  0  0  0  0  0  0  0  0  0
    5.7302    1.2035   32.6913 C   0  0  0  0  0  0  0  0  0  0  0  0
    4.0565    0.7888   31.8706 H   0  0  0  0  0  0  0  0  0  0  0  0
 11  9  1  0  0  0
 21 19  1  0  0  0
 10 11  2  0  0  0
 20 21  2  0  0  0
  4  3  2  0  0  0
  3  5  1  0  0  0
 15 13  2  0  0  0
 13 14  1  0  0  0
  6  4  1  0  0  0
 16 14  2  0  0  0
  7  5  2  0  0  0
 17 15  1  0  0  0
  6  8  2  0  0  0
 18 16  1  0  0  0
  7  1  1  0  0  0
  1 17  1  0  0  0
 11  8  1  0  0  0
 21 18  1  0  0  0
  8  7  1  0  0  0
 17 18  2  0  0  0
  9 12  1  0  0  0
 19 22  1  0  0  0
  1  2  1  0  0  0
M  END
> <minimizedAffinity>
-7.15719

$$$$
4IJ1_17C_A_401


 22 23  0  0  0  0  0  0  0  0999 V2000
    5.0322    4.0942   30.8671 N   0  0  0  0  0  0  0  0  0  0  0  0
    5.3695    4.7122   30.1791 H   0  0  0  0  0  0  0  0  0  0  0  0
    1.4031    3.8253   31.5488 C   0  0  0  0  0  0  0  0  0  0  0  0
    1.2042    4.9565   32.3276 C   0  0  0  0  0  0  0  0  0  0  0  0
    2.6767    3.5360   31.0719 C   0  0  0  0  0  0  0  0  0  0  0  0
    2.2799    5.7865   32.6212 C   0  0  0  0  0  0  0  0  0  0  0  0
    3.7709    4.3649   31.3369 C   0  0  0  0  0  0  0  0  0  0  0  0
    3.5518    5.4955   32.1328 C   0  0  0  0  0  0  0  0  0  0  0  0
    4.9169    6.6889   33.7002 O   0  0  0  0  0  0  0  0  0  0  0  0
    5.2978    6.9975   31.5803 O   0  0  0  0  0  0  0  0  0  0  0  0
    4.6517    6.4466   32.5018 C   0  0  0  0  0  0  0  0  0  0  0  0
    4.4277    6.2716   34.3818 H   0  0  0  0  0  0  0  0  0  0  0  0
    6.9523    1.6268   32.8361 C   0  0  0  0  0  0  0  0  0  0  0  0
    7.6587    0.9939   31.8188 C   0  0  0  0  0  0  0  0  0  0  0  0
    6.0700    2.6565   32.5378 C   0  0  0  0  0  0  0  0  0  0  0  0
    7.4746    1.3935   30.4958 C   0  0  0  0  0  0  0  0  0  0  0  0
    5.8888    3.0819   31.2227 C   0  0  0  0  0  0  0  0  0  0  0  0
    6.5911    2.4301   30.2108 C   0  0  0  0  0  0  0  0  0  0  0  0
    7.3910    3.2419   28.1059 O   0  0  0  0  0  0  0  0  0  0  0  0
    5.2579    2.7485   28.2957 O   0  0  0  0  0  0  0  0  0  0  0  0
    6.4067    2.8401   28.7824 C   0  0  0  0  0  0  0  0  0  0  0  0
    8.2389    3.2990   28.5007 H   0  0  0  0  0  0  0  0  0  0  0  0
 11  9  1  0  0  0
 21 19  1  0  0  0
 10 11  2  0  0  0
 20 21  2  0  0  0
  4  3  2  0  0  0
  3  5  1  0  0  0
 15 13  2  0  0  0
 13 14  1  0  0  0
  6  4  1  0  0  0
 16 14  2  0  0  0
  7  5  2  0  0  0
 17 15  1  0  0  0
  6  8  2  0  0  0
 18 16  1  0  0  0
  7  1  1  0  0  0
  1 17  1  0  0  0
 11  8  1  0  0  0
 21 18  1  0  0  0
  8  7  1  0  0  0
 17 18  2  0  0  0
  9 12  1  0  0  0
 19 22  1  0  0  0
  1  2  1  0  0  0
M  END
> <minimizedAffinity>
-7.14986

$$$$
4IJ1_17C_A_401


 22 23  0  0  0  0  0  0  0  0999 V2000
    5.0327    3.9218   31.9046 N   0  0  0  0  0  0  0  0  0  0  0  0
    5.3421    4.1298   32.8158 H   0  0  0  0  0  0  0  0  0  0  0  0
    7.4004    3.1076   29.1773 C   0  0  0  0  0  0  0  0  0  0  0  0
    7.7706    1.8190   29.5357 C   0  0  0  0  0  0  0  0  0  0  0  0
    6.4976    3.8074   29.9701 C   0  0  0  0  0  0  0  0  0  0  0  0
    7.2345    1.2436   30.6819 C   0  0  0  0  0  0  0  0  0  0  0  0
    5.9296    3.2441   31.1167 C   0  0  0  0  0  0  0  0  0  0  0  0
    6.3237    1.9472   31.4670 C   0  0  0  0  0  0  0  0  0  0  0  0
    4.6308    0.8010   32.7176 O   0  0  0  0  0  0  0  0  0  0  0  0
    6.5580    1.1228   33.6750 O   0  0  0  0  0  0  0  0  0  0  0  0
    5.7991    1.2472   32.6856 C   0  0  0  0  0  0  0  0  0  0  0  0
    4.0712    0.8992   31.9724 H   0  0  0  0  0  0  0  0  0  0  0  0
    1.4899    3.9923   30.8580 C   0  0  0  0  0  0  0  0  0  0  0  0
    1.2100    5.3448   31.0224 C   0  0  0  0  0  0  0  0  0  0  0  0
    2.7544    3.5000   31.1518 C   0  0  0  0  0  0  0  0  0  0  0  0
    2.2028    6.2056   31.4884 C   0  0  0  0  0  0  0  0  0  0  0  0
    3.7644    4.3501   31.5997 C   0  0  0  0  0  0  0  0  0  0  0  0
    3.4675    5.7004   31.7745 C   0  0  0  0  0  0  0  0  0  0  0  0
    4.6727    6.8169   33.5153 O   0  0  0  0  0  0  0  0  0  0  0  0
    5.2310    7.2224   31.4288 O   0  0  0  0  0  0  0  0  0  0  0  0
    4.5171    6.6428   32.2770 C   0  0  0  0  0  0  0  0  0  0  0  0
    4.1208    6.3673   34.1246 H   0  0  0  0  0  0  0  0  0  0  0  0
 11  9  1  0  0  0
 21 19  1  0  0  0
 10 11  2  0  0  0
 20 21  2  0  0  0
  4  3  2  0  0  0
  3  5  1  0  0  0
 15 13  2  0  0  0
 13 14  1  0  0  0
  6  4  1  0  0  0
 16 14  2  0  0  0
  7  5  2  0  0  0
 17 15  1  0  0  0
  6  8  2  0  0  0
 18 16  1  0  0  0
  7  1  1  0  0  0
  1 17  1  0  0  0
 11  8  1  0  0  0
 21 18  1  0  0  0
  8  7  1  0  0  0
 17 18  2  0  0  0
  9 12  1  0  0  0
 19 22  1  0  0  0
  1  2  1  0  0  0
M  END
> <minimizedAffinity>
-6.75958

$$$$
