1HII_C20_B_101
  RCSB PDB12061702433D
Coordinates from PDB:1HII:B:101 Model:1 without hydrogens
 41 42  0  0  0  0            999 V2000
   18.5420   37.2270   14.9940   C 0  0  0  0  0  0  0  0  0  0  0  0
   18.3210   35.7700   15.4160   C 0  0  0  0  0  0  0  0  0  0  0  0
   19.2440   35.1110   15.9210   O 0  0  0  0  0  0  0  0  0  0  0  0
   17.0980   35.2760   15.2240   N 0  0  0  0  0  0  0  0  0  0  0  0
   16.7940   33.8680   15.4550   C 0  0  0  0  0  0  0  0  0  0  0  0
   15.7730   33.7170   16.6220   C 0  0  0  0  0  0  0  0  0  0  0  0
   15.4020   32.2400   16.8690   C 0  0  0  0  0  0  0  0  0  0  0  0
   16.3580   34.3410   17.9120   C 0  0  0  0  0  0  0  0  0  0  0  0
   16.3040   33.1480   14.1830   C 0  0  0  0  0  0  0  0  0  0  0  0
   15.1630   33.3560   13.7360   O 0  0  0  0  0  0  0  0  0  0  0  0
   17.1730   32.3130   13.6100   N 0  0  0  0  0  0  0  0  0  0  0  0
   16.8530   31.5330   12.4160   C 0  0  0  0  0  0  0  0  0  0  0  0
   17.7130   31.9960   11.2530   C 0  0  0  0  0  0  0  0  0  0  0  0
   17.6700   33.4940   11.0540   C 0  0  0  0  0  0  0  0  0  0  0  0
   18.4790   34.3980   11.9090   C 0  0  0  0  0  0  0  0  0  0  0  0
   18.3810   35.7740   11.6930   C 0  0  0  0  0  0  0  0  0  0  0  0
   17.5500   36.2990   10.6790   C 0  0  0  0  0  0  0  0  0  0  0  0
   16.7770   35.4720    9.8500   C 0  0  0  0  0  0  0  0  0  0  0  0
   16.8120   34.0850    9.9990   C 0  0  0  0  0  0  0  0  0  0  0  0
   17.0720   30.0150   12.6290   C 0  0  0  0  0  0  0  0  0  0  0  0
   18.3390   29.7460   13.2150   O 0  0  0  0  0  0  0  0  0  0  0  0
   16.1060   29.4240   13.6140   C 0  0  0  0  0  0  0  0  0  0  0  0
   14.8080   29.2300   13.0570   N 0  0  0  0  0  0  0  0  0  0  0  0
   14.1370   28.4210   14.0490   C 0  0  0  0  0  0  0  0  0  0  0  0
   12.6830   28.3790   13.6560   C 0  0  0  0  0  0  0  0  0  0  0  0
   11.7870   28.8730   14.7750   C 0  0  0  0  0  0  0  0  0  0  0  0
   10.3390   28.7930   14.4040   C 0  0  0  0  0  0  0  0  0  0  0  0
    9.9760   27.3850   14.0500   C 0  0  0  0  0  0  0  0  0  0  0  0
   10.8670   26.8390   12.9540   C 0  0  0  0  0  0  0  0  0  0  0  0
   12.2990   26.9450   13.3510   C 0  0  0  0  0  0  0  0  0  0  0  0
   14.9400   28.5650   11.7760   N 0  0  0  0  0  0  0  0  0  0  0  0
   14.2880   28.9960   10.6920   C 0  0  0  0  0  0  0  0  0  0  0  0
   13.7430   30.1070   10.6230   O 0  0  0  0  0  0  0  0  0  0  0  0
   14.2410   28.0360    9.5010   C 0  0  0  0  0  0  0  0  0  0  0  0
   12.9790   27.3040    9.4800   N 0  0  0  0  0  0  0  0  0  0  0  0
   14.4680   28.8090    8.1670   C 0  0  0  0  0  0  0  0  0  0  0  0
   15.7200   29.6820    8.2410   C 0  0  0  0  0  0  0  0  0  0  0  0
   14.6300   27.8130    7.0280   C 0  0  0  0  0  0  0  0  0  0  0  0
   12.9290   25.9810    9.6210   C 0  0  0  0  0  0  0  0  0  0  0  0
   13.9430   25.2760    9.7600   O 0  0  0  0  0  0  0  0  0  0  0  0
   11.5790   25.2880    9.5900   C 0  0  0  0  0  0  0  0  0  0  0  0
  1  2  1  0  0  0  0
  2  3  2  0  0  0  0
  2  4  1  0  0  0  0
  4  5  1  0  0  0  0
  5  6  1  0  0  0  0
  5  9  1  0  0  0  0
  6  7  1  0  0  0  0
  6  8  1  0  0  0  0
  9 10  2  0  0  0  0
  9 11  1  0  0  0  0
 11 12  1  0  0  0  0
 12 13  1  0  0  0  0
 12 20  1  0  0  0  0
 13 14  1  0  0  0  0
 14 15  2  0  0  0  0
 14 19  1  0  0  0  0
 15 16  1  0  0  0  0
 16 17  2  0  0  0  0
 17 18  1  0  0  0  0
 18 19  2  0  0  0  0
 20 21  1  0  0  0  0
 20 22  1  0  0  0  0
 22 23  1  0  0  0  0
 23 24  1  0  0  0  0
 23 31  1  0  0  0  0
 24 25  1  0  0  0  0
 25 26  1  0  0  0  0
 25 30  1  0  0  0  0
 26 27  1  0  0  0  0
 27 28  1  0  0  0  0
 28 29  1  0  0  0  0
 29 30  1  0  0  0  0
 31 32  1  0  0  0  0
 32 33  2  0  0  0  0
 32 34  1  0  0  0  0
 34 35  1  0  0  0  0
 34 36  1  0  0  0  0
 35 39  1  0  0  0  0
 36 37  1  0  0  0  0
 36 38  1  0  0  0  0
 39 40  2  0  0  0  0
 39 41  1  0  0  0  0
A    1
C1
A    2
C2
A    3
O3
A    4
N4
A    5
C5
A    6
C6
A    7
C7
A    8
C8
A    9
C9
A   10
O10
A   11
N11
A   12
C12
A   13
C13
A   14
C14
A   15
C15
A   16
C16
A   17
C17
A   18
C18
A   19
C19
A   20
C20
A   21
O21
A   22
C22
A   23
N23
A   24
C24
A   25
C25
A   26
C26
A   27
C27
A   28
C28
A   29
C29
A   30
C30
A   31
N31
A   32
C32
A   33
O33
A   34
C34
A   35
N35
A   36
C36
A   37
C37
A   38
C38
A   39
C39
A   40
O40
A   41
C41
M  END
>  <InstanceId>
1HII_C20_B_101

>  <ChemCompId>
C20

>  <PdbId>
1HII

>  <ChainId>
B

>  <ResidueNumber>
101

>  <InsertionCode>


>  <Model>
1

>  <AltIds>


>  <MissingHeavyAtoms>
0

>  <ObservedFormula>
C31 N5 O5

>  <Name>
ACETYL-NH-VAL-CYCLOHEXYL-CH2[NCH2CHOH]CH2-BENZYL-VAL-NH-ACETYL

>  <SystematicName>
(2S)-2-acetamido-N-[(2S,3S)-4-[[[(2S)-2-acetamido-3-methyl-butanoyl]amino]-(cyclohexylmethyl)amino]-3-hydroxy-1-phenyl-butan-2-yl]-3-methyl-butanamide

>  <Synonyms>
CGP 53820

>  <Type>
NON-POLYMER

>  <Formula>
C31 H51 N5 O5

>  <MolecularWeight>
573.767

>  <ModifiedDate>
2011-06-04

>  <Parent>


>  <OneLetterCode>


>  <SubcomponentList>


>  <AmbiguousFlag>
N

>  <InChI>
InChI=1S/C31H51N5O5/c1-20(2)28(32-22(5)37)30(40)34-26(17-24-13-9-7-10-14-24)27(39)19-36(18-25-15-11-8-12-16-25)35-31(41)29(21(3)4)33-23(6)38/h7,9-10,13-14,20-21,25-29,39H,8,11-12,15-19H2,1-6H3,(H,32,37)(H,33,38)(H,34,40)(H,35,41)/t26-,27-,28-,29-/m0/s1

>  <InChIKey>
JNBVLGDICHLLTN-DZUOILHNSA-N

>  <SMILES>
CC(C)[C@@H](C(=O)N[C@@H](Cc1ccccc1)[C@H](C[N@](CC2CCCCC2)NC(=O)[C@H](C(C)C)NC(=O)C)O)NC(=O)C

$$$$
