1HII_C20_B_101


 46 47  0  0  0  0  0  0  0  0999 V2000
   16.5482   30.0099   13.0543 C   0  0  0  0  0  0  0  0  0  0  0  0
   17.5573   29.0114   13.1317 O   0  0  0  0  0  0  0  0  0  0  0  0
   17.5736   28.5036   12.3054 H   0  0  0  0  0  0  0  0  0  0  0  0
   15.1386   29.3859   12.9088 C   0  0  0  0  0  0  0  0  0  0  0  0
   14.2530   28.8077   10.6922 C   0  0  0  0  0  0  0  0  0  0  0  0
   13.5295   29.8170   10.6401 O   0  0  0  0  0  0  0  0  0  0  0  0
   15.0331   28.5200   11.7360 N   0  0  0  0  0  0  0  0  0  0  0  0
   15.5603   27.6888   11.7152 H   0  0  0  0  0  0  0  0  0  0  0  0
   14.2848   27.8014    9.5248 C   0  0  0  0  0  0  0  0  0  0  0  0
   11.5084   25.1938    9.7341 C   0  0  0  0  0  0  0  0  0  0  0  0
   12.9131   25.8035    9.8042 C   0  0  0  0  0  0  0  0  0  0  0  0
   13.8726   25.1348   10.2206 O   0  0  0  0  0  0  0  0  0  0  0  0
   13.0349   27.0624    9.3835 N   0  0  0  0  0  0  0  0  0  0  0  0
   12.2608   27.5053    8.9664 H   0  0  0  0  0  0  0  0  0  0  0  0
   14.6576   28.4998    8.1831 C   0  0  0  0  0  0  0  0  0  0  0  0
   15.9279   29.3641    8.3226 C   0  0  0  0  0  0  0  0  0  0  0  0
   14.8582   27.4348    7.0779 C   0  0  0  0  0  0  0  0  0  0  0  0
   14.8192   28.5932   14.1642 C   0  0  0  0  0  0  0  0  0  0  0  0
   13.3333   28.4431   14.3988 C   0  0  0  0  0  0  0  0  0  0  0  0
   12.6205   27.2064   13.9921 C   0  0  0  0  0  0  0  0  0  0  0  0
   11.2439   27.1345   14.2139 C   0  0  0  0  0  0  0  0  0  0  0  0
   10.5436   28.1984   14.8241 C   0  0  0  0  0  0  0  0  0  0  0  0
   11.1881   29.3783   15.2254 C   0  0  0  0  0  0  0  0  0  0  0  0
   12.5619   29.5360   15.0384 C   0  0  0  0  0  0  0  0  0  0  0  0
   16.9519   30.8132   11.8525 C   0  0  0  0  0  0  0  0  0  0  0  0
   17.2244   32.1756   12.1725 N   0  0  0  0  0  0  0  0  0  0  0  0
   17.2799   32.3186   13.6137 N   0  0  0  0  0  0  0  0  0  0  0  0
   16.3914   33.0629   14.2789 C   0  0  0  0  0  0  0  0  0  0  0  0
   15.3320   33.4669   13.7784 O   0  0  0  0  0  0  0  0  0  0  0  0
   17.9898   31.8561   14.1150 H   0  0  0  0  0  0  0  0  0  0  0  0
   16.7422   33.4058   15.7286 C   0  0  0  0  0  0  0  0  0  0  0  0
   16.8951   34.8474   15.8936 N   0  0  0  0  0  0  0  0  0  0  0  0
   18.0841   35.4426   15.8248 C   0  0  0  0  0  0  0  0  0  0  0  0
   19.1432   34.8201   15.6365 O   0  0  0  0  0  0  0  0  0  0  0  0
   18.1654   36.9474   16.0052 C   0  0  0  0  0  0  0  0  0  0  0  0
   16.0952   35.3964   16.0607 H   0  0  0  0  0  0  0  0  0  0  0  0
   15.6648   32.8371   16.7005 C   0  0  0  0  0  0  0  0  0  0  0  0
   15.5035   31.3278   16.5238 C   0  0  0  0  0  0  0  0  0  0  0  0
   16.0798   33.1222   18.1365 C   0  0  0  0  0  0  0  0  0  0  0  0
   18.4951   32.4214   11.5293 C   0  0  0  0  0  0  0  0  0  0  0  0
   18.3446   33.7083   10.7602 C   0  0  0  0  0  0  0  0  0  0  0  0
   18.0584   34.8791   11.6801 C   0  0  0  0  0  0  0  0  0  0  0  0
   17.8662   36.1521   10.9163 C   0  0  0  0  0  0  0  0  0  0  0  0
   16.7492   35.9976    9.9324 C   0  0  0  0  0  0  0  0  0  0  0  0
   16.9789   34.8189    9.0098 C   0  0  0  0  0  0  0  0  0  0  0  0
   17.1780   33.5732    9.8022 C   0  0  0  0  0  0  0  0  0  0  0  0
 10 11  1  0  0  0
 11 12  2  0  0  0
 11 13  1  0  0  0
 13  9  1  0  0  0
  9 15  1  0  0  0
  9  5  1  0  0  0
 15 16  1  0  0  0
 15 17  1  0  0  0
  5  6  2  0  0  0
  5  7  1  0  0  0
  7  4  1  0  0  0
  4 18  1  0  0  0
  4  1  1  0  0  0
 18 19  1  0  0  0
 19 20  2  0  0  0
 19 24  1  0  0  0
 20 21  1  0  0  0
 21 22  2  0  0  0
 22 23  1  0  0  0
 23 24  2  0  0  0
  1  2  1  0  0  0
  1 25  1  0  0  0
 25 26  1  0  0  0
 26 40  1  0  0  0
 26 27  1  0  0  0
 40 41  1  0  0  0
 41 42  1  0  0  0
 41 46  1  0  0  0
 42 43  1  0  0  0
 43 44  1  0  0  0
 44 45  1  0  0  0
 45 46  1  0  0  0
 27 28  1  0  0  0
 28 29  2  0  0  0
 28 31  1  0  0  0
 31 32  1  0  0  0
 31 37  1  0  0  0
 32 33  1  0  0  0
 37 38  1  0  0  0
 37 39  1  0  0  0
 33 34  2  0  0  0
 33 35  1  0  0  0
 13 14  1  0  0  0
  7  8  1  0  0  0
  2  3  1  0  0  0
 27 30  1  0  0  0
 32 36  1  0  0  0
M  END
> <minimizedAffinity>
-10.56324

$$$$
1HII_C20_B_101


 46 47  0  0  0  0  0  0  0  0999 V2000
   16.9354   30.1594   12.8201 C   0  0  0  0  0  0  0  0  0  0  0  0
   18.1479   29.7053   13.4074 O   0  0  0  0  0  0  0  0  0  0  0  0
   18.2277   30.0662   14.3043 H   0  0  0  0  0  0  0  0  0  0  0  0
   16.9196   31.6998   12.6635 C   0  0  0  0  0  0  0  0  0  0  0  0
   16.4189   33.1804   14.5580 C   0  0  0  0  0  0  0  0  0  0  0  0
   15.2690   33.4247   14.1542 O   0  0  0  0  0  0  0  0  0  0  0  0
   17.2705   32.3876   13.9045 N   0  0  0  0  0  0  0  0  0  0  0  0
   18.1741   32.2606   14.2741 H   0  0  0  0  0  0  0  0  0  0  0  0
   16.9413   33.8021   15.8683 C   0  0  0  0  0  0  0  0  0  0  0  0
   18.5479   37.2192   15.3273 C   0  0  0  0  0  0  0  0  0  0  0  0
   18.4313   35.7133   15.5889 C   0  0  0  0  0  0  0  0  0  0  0  0
   19.4470   35.0028   15.6571 O   0  0  0  0  0  0  0  0  0  0  0  0
   17.1983   35.2332   15.7500 N   0  0  0  0  0  0  0  0  0  0  0  0
   16.4410   35.8610   15.7902 H   0  0  0  0  0  0  0  0  0  0  0  0
   15.9733   33.5203   17.0560 C   0  0  0  0  0  0  0  0  0  0  0  0
   15.5648   32.0339   17.1199 C   0  0  0  0  0  0  0  0  0  0  0  0
   16.6407   33.9457   18.3862 C   0  0  0  0  0  0  0  0  0  0  0  0
   17.8914   32.0929   11.5646 C   0  0  0  0  0  0  0  0  0  0  0  0
   17.6370   33.4835   11.0290 C   0  0  0  0  0  0  0  0  0  0  0  0
   16.8556   33.6874    9.7837 C   0  0  0  0  0  0  0  0  0  0  0  0
   16.6725   34.9936    9.3256 C   0  0  0  0  0  0  0  0  0  0  0  0
   17.1985   36.0980   10.0313 C   0  0  0  0  0  0  0  0  0  0  0  0
   17.9365   35.9402   11.2142 C   0  0  0  0  0  0  0  0  0  0  0  0
   18.1702   34.6695   11.7414 C   0  0  0  0  0  0  0  0  0  0  0  0
   15.8864   29.6641   13.7724 C   0  0  0  0  0  0  0  0  0  0  0  0
   14.7009   29.2371   13.1054 N   0  0  0  0  0  0  0  0  0  0  0  0
   15.0544   28.7338   11.7931 N   0  0  0  0  0  0  0  0  0  0  0  0
   14.4021   29.1234   10.6937 C   0  0  0  0  0  0  0  0  0  0  0  0
   13.6444   30.1038   10.6640 O   0  0  0  0  0  0  0  0  0  0  0  0
   15.7935   28.0887   11.7094 H   0  0  0  0  0  0  0  0  0  0  0  0
   14.6361   28.2881    9.4329 C   0  0  0  0  0  0  0  0  0  0  0  0
   13.4210   27.5731    9.0569 N   0  0  0  0  0  0  0  0  0  0  0  0
   13.2186   26.3011    9.3943 C   0  0  0  0  0  0  0  0  0  0  0  0
   14.0480   25.6290   10.0306 O   0  0  0  0  0  0  0  0  0  0  0  0
   11.9290   25.6231    8.9688 C   0  0  0  0  0  0  0  0  0  0  0  0
   12.7302   28.0453    8.5382 H   0  0  0  0  0  0  0  0  0  0  0  0
   15.1451   29.1888    8.2675 C   0  0  0  0  0  0  0  0  0  0  0  0
   16.4192   29.9344    8.6621 C   0  0  0  0  0  0  0  0  0  0  0  0
   15.4393   28.3223    7.0516 C   0  0  0  0  0  0  0  0  0  0  0  0
   14.1750   28.2151   13.9816 C   0  0  0  0  0  0  0  0  0  0  0  0
   12.6941   28.4687   14.0959 C   0  0  0  0  0  0  0  0  0  0  0  0
   12.1612   28.0647   15.4567 C   0  0  0  0  0  0  0  0  0  0  0  0
   10.6828   28.2755   15.5596 C   0  0  0  0  0  0  0  0  0  0  0  0
    9.9775   27.5016   14.4905 C   0  0  0  0  0  0  0  0  0  0  0  0
   10.4997   27.8520   13.1129 C   0  0  0  0  0  0  0  0  0  0  0  0
   11.9733   27.6424   13.0498 C   0  0  0  0  0  0  0  0  0  0  0  0
 10 11  1  0  0  0
 11 12  2  0  0  0
 11 13  1  0  0  0
 13  9  1  0  0  0
  9 15  1  0  0  0
  9  5  1  0  0  0
 15 16  1  0  0  0
 15 17  1  0  0  0
  5  6  2  0  0  0
  5  7  1  0  0  0
  7  4  1  0  0  0
  4 18  1  0  0  0
  4  1  1  0  0  0
 18 19  1  0  0  0
 19 20  2  0  0  0
 19 24  1  0  0  0
 20 21  1  0  0  0
 21 22  2  0  0  0
 22 23  1  0  0  0
 23 24  2  0  0  0
  1  2  1  0  0  0
  1 25  1  0  0  0
 25 26  1  0  0  0
 26 40  1  0  0  0
 26 27  1  0  0  0
 40 41  1  0  0  0
 41 42  1  0  0  0
 41 46  1  0  0  0
 42 43  1  0  0  0
 43 44  1  0  0  0
 44 45  1  0  0  0
 45 46  1  0  0  0
 27 28  1  0  0  0
 28 29  2  0  0  0
 28 31  1  0  0  0
 31 32  1  0  0  0
 31 37  1  0  0  0
 32 33  1  0  0  0
 37 38  1  0  0  0
 37 39  1  0  0  0
 33 34  2  0  0  0
 33 35  1  0  0  0
 13 14  1  0  0  0
  7  8  1  0  0  0
  2  3  1  0  0  0
 27 30  1  0  0  0
 32 36  1  0  0  0
M  END
> <minimizedAffinity>
-10.49543

$$$$
1HII_C20_B_101


 46 47  0  0  0  0  0  0  0  0999 V2000
   15.4953   29.8015   13.3513 C   0  0  0  0  0  0  0  0  0  0  0  0
   15.9435   28.6698   14.0857 O   0  0  0  0  0  0  0  0  0  0  0  0
   16.4715   28.0975   13.5073 H   0  0  0  0  0  0  0  0  0  0  0  0
   14.5603   29.3920   12.1870 C   0  0  0  0  0  0  0  0  0  0  0  0
   12.5314   28.0175   12.3499 C   0  0  0  0  0  0  0  0  0  0  0  0
   13.0095   27.1040   11.6558 O   0  0  0  0  0  0  0  0  0  0  0  0
   13.1920   29.1412   12.6357 N   0  0  0  0  0  0  0  0  0  0  0  0
   12.7382   29.8310   13.1719 H   0  0  0  0  0  0  0  0  0  0  0  0
   11.1074   27.9026   12.9291 C   0  0  0  0  0  0  0  0  0  0  0  0
    8.2054   26.1786   11.1522 C   0  0  0  0  0  0  0  0  0  0  0  0
    8.9487   27.1377   12.0889 C   0  0  0  0  0  0  0  0  0  0  0  0
    8.3300   28.0040   12.7276 O   0  0  0  0  0  0  0  0  0  0  0  0
   10.2681   26.9727   12.1814 N   0  0  0  0  0  0  0  0  0  0  0  0
   10.6874   26.2029   11.7332 H   0  0  0  0  0  0  0  0  0  0  0  0
   11.1375   27.5147   14.4376 C   0  0  0  0  0  0  0  0  0  0  0  0
   12.4944   26.9027   14.8432 C   0  0  0  0  0  0  0  0  0  0  0  0
   10.8367   28.7617   15.3038 C   0  0  0  0  0  0  0  0  0  0  0  0
   14.5652   30.4931   11.1410 C   0  0  0  0  0  0  0  0  0  0  0  0
   14.7097   29.9615    9.7332 C   0  0  0  0  0  0  0  0  0  0  0  0
   16.0267   29.9696    9.0489 C   0  0  0  0  0  0  0  0  0  0  0  0
   16.0940   29.4864    7.7406 C   0  0  0  0  0  0  0  0  0  0  0  0
   14.9480   28.9856    7.0848 C   0  0  0  0  0  0  0  0  0  0  0  0
   13.6897   28.9585    7.7051 C   0  0  0  0  0  0  0  0  0  0  0  0
   13.5313   29.4251    9.0106 C   0  0  0  0  0  0  0  0  0  0  0  0
   16.7726   30.4286   12.8739 C   0  0  0  0  0  0  0  0  0  0  0  0
   16.7192   31.8533   12.8851 N   0  0  0  0  0  0  0  0  0  0  0  0
   17.0649   32.3270   14.2105 N   0  0  0  0  0  0  0  0  0  0  0  0
   16.3161   33.2311   14.8491 C   0  0  0  0  0  0  0  0  0  0  0  0
   15.1689   33.5373   14.4939 O   0  0  0  0  0  0  0  0  0  0  0  0
   17.8713   31.9740   14.6513 H   0  0  0  0  0  0  0  0  0  0  0  0
   16.9485   33.8925   16.0759 C   0  0  0  0  0  0  0  0  0  0  0  0
   17.2046   35.3065   15.8231 N   0  0  0  0  0  0  0  0  0  0  0  0
   18.4249   35.7642   15.5505 C   0  0  0  0  0  0  0  0  0  0  0  0
   19.4291   35.0330   15.5105 O   0  0  0  0  0  0  0  0  0  0  0  0
   18.6146   37.2486   15.2970 C   0  0  0  0  0  0  0  0  0  0  0  0
   16.4527   35.9412   15.8550 H   0  0  0  0  0  0  0  0  0  0  0  0
   16.0431   33.6976   17.3292 C   0  0  0  0  0  0  0  0  0  0  0  0
   15.7104   32.2220   17.5459 C   0  0  0  0  0  0  0  0  0  0  0  0
   16.7657   34.2244   18.5605 C   0  0  0  0  0  0  0  0  0  0  0  0
   17.6851   32.2310   11.8785 C   0  0  0  0  0  0  0  0  0  0  0  0
   17.2113   33.5387   11.2989 C   0  0  0  0  0  0  0  0  0  0  0  0
   17.1686   33.4958    9.7838 C   0  0  0  0  0  0  0  0  0  0  0  0
   16.7390   34.8067    9.2026 C   0  0  0  0  0  0  0  0  0  0  0  0
   17.6623   35.8954    9.6517 C   0  0  0  0  0  0  0  0  0  0  0  0
   17.7590   35.9560   11.1617 C   0  0  0  0  0  0  0  0  0  0  0  0
   18.1765   34.6337   11.7065 C   0  0  0  0  0  0  0  0  0  0  0  0
 10 11  1  0  0  0
 11 12  2  0  0  0
 11 13  1  0  0  0
 13  9  1  0  0  0
  9 15  1  0  0  0
  9  5  1  0  0  0
 15 16  1  0  0  0
 15 17  1  0  0  0
  5  6  2  0  0  0
  5  7  1  0  0  0
  7  4  1  0  0  0
  4 18  1  0  0  0
  4  1  1  0  0  0
 18 19  1  0  0  0
 19 20  2  0  0  0
 19 24  1  0  0  0
 20 21  1  0  0  0
 21 22  2  0  0  0
 22 23  1  0  0  0
 23 24  2  0  0  0
  1  2  1  0  0  0
  1 25  1  0  0  0
 25 26  1  0  0  0
 26 40  1  0  0  0
 26 27  1  0  0  0
 40 41  1  0  0  0
 41 42  1  0  0  0
 41 46  1  0  0  0
 42 43  1  0  0  0
 43 44  1  0  0  0
 44 45  1  0  0  0
 45 46  1  0  0  0
 27 28  1  0  0  0
 28 29  2  0  0  0
 28 31  1  0  0  0
 31 32  1  0  0  0
 31 37  1  0  0  0
 32 33  1  0  0  0
 37 38  1  0  0  0
 37 39  1  0  0  0
 33 34  2  0  0  0
 33 35  1  0  0  0
 13 14  1  0  0  0
  7  8  1  0  0  0
  2  3  1  0  0  0
 27 30  1  0  0  0
 32 36  1  0  0  0
M  END
> <minimizedAffinity>
-10.22918

$$$$
1HII_C20_B_101


 46 47  0  0  0  0  0  0  0  0999 V2000
   16.5855   29.7854   12.6256 C   0  0  0  0  0  0  0  0  0  0  0  0
   17.4462   28.7991   13.1800 O   0  0  0  0  0  0  0  0  0  0  0  0
   17.0162   27.9309   13.1322 H   0  0  0  0  0  0  0  0  0  0  0  0
   15.2712   29.9148   13.4341 C   0  0  0  0  0  0  0  0  0  0  0  0
   13.0225   28.9514   13.2170 C   0  0  0  0  0  0  0  0  0  0  0  0
   12.4596   30.0206   13.5084 O   0  0  0  0  0  0  0  0  0  0  0  0
   14.3489   28.8110   13.1746 N   0  0  0  0  0  0  0  0  0  0  0  0
   14.7222   27.9258   12.9593 H   0  0  0  0  0  0  0  0  0  0  0  0
   12.1969   27.6924   12.8860 C   0  0  0  0  0  0  0  0  0  0  0  0
   13.5256   24.7321   10.8804 C   0  0  0  0  0  0  0  0  0  0  0  0
   12.5247   25.7284   11.4766 C   0  0  0  0  0  0  0  0  0  0  0  0
   11.3258   25.6884   11.1568 O   0  0  0  0  0  0  0  0  0  0  0  0
   13.0129   26.6077   12.3514 N   0  0  0  0  0  0  0  0  0  0  0  0
   13.9489   26.5229   12.6445 H   0  0  0  0  0  0  0  0  0  0  0  0
   11.3862   27.2034   14.1233 C   0  0  0  0  0  0  0  0  0  0  0  0
   12.1104   27.5293   15.4459 C   0  0  0  0  0  0  0  0  0  0  0  0
    9.9795   27.8489   14.1145 C   0  0  0  0  0  0  0  0  0  0  0  0
   15.6070   29.9677   14.9143 C   0  0  0  0  0  0  0  0  0  0  0  0
   15.4417   31.3506   15.5023 C   0  0  0  0  0  0  0  0  0  0  0  0
   15.6377   31.5878   16.9542 C   0  0  0  0  0  0  0  0  0  0  0  0
   15.4493   32.8821   17.4431 C   0  0  0  0  0  0  0  0  0  0  0  0
   15.0984   33.9461   16.5834 C   0  0  0  0  0  0  0  0  0  0  0  0
   14.9112   33.7569   15.2058 C   0  0  0  0  0  0  0  0  0  0  0  0
   15.0759   32.4950   14.6333 C   0  0  0  0  0  0  0  0  0  0  0  0
   16.3574   29.2941   11.2259 C   0  0  0  0  0  0  0  0  0  0  0  0
   16.0824   30.3540   10.3129 N   0  0  0  0  0  0  0  0  0  0  0  0
   16.7523   31.5551   10.7704 N   0  0  0  0  0  0  0  0  0  0  0  0
   16.0754   32.6747   11.0428 C   0  0  0  0  0  0  0  0  0  0  0  0
   14.8437   32.7095   11.1761 O   0  0  0  0  0  0  0  0  0  0  0  0
   17.7302   31.5459   10.8833 H   0  0  0  0  0  0  0  0  0  0  0  0
   16.9059   33.9517   11.1911 C   0  0  0  0  0  0  0  0  0  0  0  0
   17.5216   34.0141   12.5124 N   0  0  0  0  0  0  0  0  0  0  0  0
   17.7038   35.1678   13.1515 C   0  0  0  0  0  0  0  0  0  0  0  0
   17.3845   36.2674   12.6681 O   0  0  0  0  0  0  0  0  0  0  0  0
   18.3503   35.1546   14.5246 C   0  0  0  0  0  0  0  0  0  0  0  0
   17.8111   33.1781   12.9443 H   0  0  0  0  0  0  0  0  0  0  0  0
   17.9779   34.0401   10.0635 C   0  0  0  0  0  0  0  0  0  0  0  0
   17.8048   35.3129    9.2358 C   0  0  0  0  0  0  0  0  0  0  0  0
   19.3663   34.0440   10.6864 C   0  0  0  0  0  0  0  0  0  0  0  0
   16.6026   29.8576    9.0592 C   0  0  0  0  0  0  0  0  0  0  0  0
   15.4380   29.2472    8.3234 C   0  0  0  0  0  0  0  0  0  0  0  0
   14.6740   28.2716    9.1972 C   0  0  0  0  0  0  0  0  0  0  0  0
   13.5417   27.6312    8.4566 C   0  0  0  0  0  0  0  0  0  0  0  0
   14.0560   26.9255    7.2413 C   0  0  0  0  0  0  0  0  0  0  0  0
   14.8527   27.8568    6.3519 C   0  0  0  0  0  0  0  0  0  0  0  0
   15.9621   28.4848    7.1229 C   0  0  0  0  0  0  0  0  0  0  0  0
 10 11  1  0  0  0
 11 12  2  0  0  0
 11 13  1  0  0  0
 13  9  1  0  0  0
  9 15  1  0  0  0
  9  5  1  0  0  0
 15 16  1  0  0  0
 15 17  1  0  0  0
  5  6  2  0  0  0
  5  7  1  0  0  0
  7  4  1  0  0  0
  4 18  1  0  0  0
  4  1  1  0  0  0
 18 19  1  0  0  0
 19 20  2  0  0  0
 19 24  1  0  0  0
 20 21  1  0  0  0
 21 22  2  0  0  0
 22 23  1  0  0  0
 23 24  2  0  0  0
  1  2  1  0  0  0
  1 25  1  0  0  0
 25 26  1  0  0  0
 26 40  1  0  0  0
 26 27  1  0  0  0
 40 41  1  0  0  0
 41 42  1  0  0  0
 41 46  1  0  0  0
 42 43  1  0  0  0
 43 44  1  0  0  0
 44 45  1  0  0  0
 45 46  1  0  0  0
 27 28  1  0  0  0
 28 29  2  0  0  0
 28 31  1  0  0  0
 31 32  1  0  0  0
 31 37  1  0  0  0
 32 33  1  0  0  0
 37 38  1  0  0  0
 37 39  1  0  0  0
 33 34  2  0  0  0
 33 35  1  0  0  0
 13 14  1  0  0  0
  7  8  1  0  0  0
  2  3  1  0  0  0
 27 30  1  0  0  0
 32 36  1  0  0  0
M  END
> <minimizedAffinity>
-9.96639

$$$$
1HII_C20_B_101


 46 47  0  0  0  0  0  0  0  0999 V2000
   16.9238   30.1711   12.5063 C   0  0  0  0  0  0  0  0  0  0  0  0
   17.9257   29.6038   13.3402 O   0  0  0  0  0  0  0  0  0  0  0  0
   17.7799   29.8841   14.2573 H   0  0  0  0  0  0  0  0  0  0  0  0
   16.9981   31.7177   12.4970 C   0  0  0  0  0  0  0  0  0  0  0  0
   16.4241   33.0993   14.4448 C   0  0  0  0  0  0  0  0  0  0  0  0
   15.3615   33.4976   13.9377 O   0  0  0  0  0  0  0  0  0  0  0  0
   17.2644   32.2687   13.8244 N   0  0  0  0  0  0  0  0  0  0  0  0
   18.0996   32.0163   14.2804 H   0  0  0  0  0  0  0  0  0  0  0  0
   16.8448   33.5607   15.8542 C   0  0  0  0  0  0  0  0  0  0  0  0
   18.2835   37.0908   15.7148 C   0  0  0  0  0  0  0  0  0  0  0  0
   18.2400   35.5589   15.7469 C   0  0  0  0  0  0  0  0  0  0  0  0
   19.2798   34.8938   15.6133 O   0  0  0  0  0  0  0  0  0  0  0  0
   17.0437   35.0035   15.9390 N   0  0  0  0  0  0  0  0  0  0  0  0
   16.2739   35.5822   16.1435 H   0  0  0  0  0  0  0  0  0  0  0  0
   15.8259   33.0884   16.9340 C   0  0  0  0  0  0  0  0  0  0  0  0
   15.5575   31.5719   16.8418 C   0  0  0  0  0  0  0  0  0  0  0  0
   16.3531   33.4502   18.3436 C   0  0  0  0  0  0  0  0  0  0  0  0
   18.0868   32.1524   11.5314 C   0  0  0  0  0  0  0  0  0  0  0  0
   17.8060   33.4972   10.9005 C   0  0  0  0  0  0  0  0  0  0  0  0
   17.1792   33.5913    9.5585 C   0  0  0  0  0  0  0  0  0  0  0  0
   16.9648   34.8605    9.0174 C   0  0  0  0  0  0  0  0  0  0  0  0
   17.3160   36.0289    9.7285 C   0  0  0  0  0  0  0  0  0  0  0  0
   17.9047   35.9750   11.0010 C   0  0  0  0  0  0  0  0  0  0  0  0
   18.1577   34.7478   11.6151 C   0  0  0  0  0  0  0  0  0  0  0  0
   15.6473   29.6571   13.1055 C   0  0  0  0  0  0  0  0  0  0  0  0
   14.8879   28.8759   12.1859 N   0  0  0  0  0  0  0  0  0  0  0  0
   13.8023   28.2327   12.8989 N   0  0  0  0  0  0  0  0  0  0  0  0
   13.0764   27.2594   12.3406 C   0  0  0  0  0  0  0  0  0  0  0  0
   13.4168   26.6637   11.3084 O   0  0  0  0  0  0  0  0  0  0  0  0
   13.5945   28.5200   13.8174 H   0  0  0  0  0  0  0  0  0  0  0  0
   11.7691   26.8956   13.0483 C   0  0  0  0  0  0  0  0  0  0  0  0
   11.4436   27.8865   14.0686 N   0  0  0  0  0  0  0  0  0  0  0  0
   11.8921   27.7852   15.3182 C   0  0  0  0  0  0  0  0  0  0  0  0
   12.5974   26.8399   15.7100 O   0  0  0  0  0  0  0  0  0  0  0  0
   11.5130   28.8556   16.3253 C   0  0  0  0  0  0  0  0  0  0  0  0
   10.8754   28.6530   13.8259 H   0  0  0  0  0  0  0  0  0  0  0  0
   10.6117   26.7471   12.0154 C   0  0  0  0  0  0  0  0  0  0  0  0
   10.2171   25.2819   11.8353 C   0  0  0  0  0  0  0  0  0  0  0  0
    9.3986   27.5266   12.5015 C   0  0  0  0  0  0  0  0  0  0  0  0
   14.4329   29.8484   11.2184 C   0  0  0  0  0  0  0  0  0  0  0  0
   14.7195   29.2667    9.8584 C   0  0  0  0  0  0  0  0  0  0  0  0
   15.7980   30.0472    9.1326 C   0  0  0  0  0  0  0  0  0  0  0  0
   16.0558   29.4982    7.7641 C   0  0  0  0  0  0  0  0  0  0  0  0
   14.7943   29.5106    6.9590 C   0  0  0  0  0  0  0  0  0  0  0  0
   13.6782   28.7660    7.6613 C   0  0  0  0  0  0  0  0  0  0  0  0
   13.4570   29.3298    9.0224 C   0  0  0  0  0  0  0  0  0  0  0  0
 10 11  1  0  0  0
 11 12  2  0  0  0
 11 13  1  0  0  0
 13  9  1  0  0  0
  9 15  1  0  0  0
  9  5  1  0  0  0
 15 16  1  0  0  0
 15 17  1  0  0  0
  5  6  2  0  0  0
  5  7  1  0  0  0
  7  4  1  0  0  0
  4 18  1  0  0  0
  4  1  1  0  0  0
 18 19  1  0  0  0
 19 20  2  0  0  0
 19 24  1  0  0  0
 20 21  1  0  0  0
 21 22  2  0  0  0
 22 23  1  0  0  0
 23 24  2  0  0  0
  1  2  1  0  0  0
  1 25  1  0  0  0
 25 26  1  0  0  0
 26 40  1  0  0  0
 26 27  1  0  0  0
 40 41  1  0  0  0
 41 42  1  0  0  0
 41 46  1  0  0  0
 42 43  1  0  0  0
 43 44  1  0  0  0
 44 45  1  0  0  0
 45 46  1  0  0  0
 27 28  1  0  0  0
 28 29  2  0  0  0
 28 31  1  0  0  0
 31 32  1  0  0  0
 31 37  1  0  0  0
 32 33  1  0  0  0
 37 38  1  0  0  0
 37 39  1  0  0  0
 33 34  2  0  0  0
 33 35  1  0  0  0
 13 14  1  0  0  0
  7  8  1  0  0  0
  2  3  1  0  0  0
 27 30  1  0  0  0
 32 36  1  0  0  0
M  END
> <minimizedAffinity>
-9.91129

$$$$
1HII_C20_B_101


 46 47  0  0  0  0  0  0  0  0999 V2000
   16.7841   29.4368   12.7206 C   0  0  0  0  0  0  0  0  0  0  0  0
   18.0707   29.7229   13.2533 O   0  0  0  0  0  0  0  0  0  0  0  0
   18.0539   30.5876   13.6924 H   0  0  0  0  0  0  0  0  0  0  0  0
   16.3770   30.4603   11.6323 C   0  0  0  0  0  0  0  0  0  0  0  0
   16.3212   32.9157   11.6185 C   0  0  0  0  0  0  0  0  0  0  0  0
   15.1669   32.9571   11.1594 O   0  0  0  0  0  0  0  0  0  0  0  0
   16.9731   31.7759   11.8567 N   0  0  0  0  0  0  0  0  0  0  0  0
   17.8952   31.8232   12.1984 H   0  0  0  0  0  0  0  0  0  0  0  0
   17.0870   34.2143   11.9405 C   0  0  0  0  0  0  0  0  0  0  0  0
   18.9380   34.9466   15.1945 C   0  0  0  0  0  0  0  0  0  0  0  0
   18.2427   35.1961   13.8513 C   0  0  0  0  0  0  0  0  0  0  0  0
   18.0560   36.3529   13.4412 O   0  0  0  0  0  0  0  0  0  0  0  0
   17.8761   34.1148   13.1635 N   0  0  0  0  0  0  0  0  0  0  0  0
   18.1449   33.2256   13.4894 H   0  0  0  0  0  0  0  0  0  0  0  0
   17.9873   34.6533   10.7473 C   0  0  0  0  0  0  0  0  0  0  0  0
   19.3302   33.8940   10.7352 C   0  0  0  0  0  0  0  0  0  0  0  0
   17.2355   34.4248    9.4138 C   0  0  0  0  0  0  0  0  0  0  0  0
   16.7996   29.9288   10.2739 C   0  0  0  0  0  0  0  0  0  0  0  0
   15.6272   29.6836    9.3514 C   0  0  0  0  0  0  0  0  0  0  0  0
   15.8381   29.4364    7.9032 C   0  0  0  0  0  0  0  0  0  0  0  0
   14.7155   29.2388    7.0968 C   0  0  0  0  0  0  0  0  0  0  0  0
   13.4118   29.2550    7.6393 C   0  0  0  0  0  0  0  0  0  0  0  0
   13.1782   29.4802    9.0044 C   0  0  0  0  0  0  0  0  0  0  0  0
   14.2427   29.6903    9.8819 C   0  0  0  0  0  0  0  0  0  0  0  0
   15.8933   29.4908   13.9274 C   0  0  0  0  0  0  0  0  0  0  0  0
   14.5719   29.9235   13.6120 N   0  0  0  0  0  0  0  0  0  0  0  0
   13.8271   28.8047   13.0697 N   0  0  0  0  0  0  0  0  0  0  0  0
   12.5093   28.6835   13.2563 C   0  0  0  0  0  0  0  0  0  0  0  0
   11.7925   29.6080   13.6657 O   0  0  0  0  0  0  0  0  0  0  0  0
   14.3037   28.1169   12.5511 H   0  0  0  0  0  0  0  0  0  0  0  0
   11.9001   27.3175   12.9322 C   0  0  0  0  0  0  0  0  0  0  0  0
   10.6481   27.4736   12.1994 N   0  0  0  0  0  0  0  0  0  0  0  0
    9.4634   27.3140   12.7858 C   0  0  0  0  0  0  0  0  0  0  0  0
    9.3365   27.0046   13.9827 O   0  0  0  0  0  0  0  0  0  0  0  0
    8.2030   27.4938   11.9595 C   0  0  0  0  0  0  0  0  0  0  0  0
   10.6802   27.7037   11.2427 H   0  0  0  0  0  0  0  0  0  0  0  0
   12.9146   26.4415   12.1372 C   0  0  0  0  0  0  0  0  0  0  0  0
   13.0137   25.0364   12.7296 C   0  0  0  0  0  0  0  0  0  0  0  0
   12.4611   26.3333   10.6887 C   0  0  0  0  0  0  0  0  0  0  0  0
   14.0594   30.3828   14.8829 C   0  0  0  0  0  0  0  0  0  0  0  0
   14.9695   31.4950   15.3356 C   0  0  0  0  0  0  0  0  0  0  0  0
   15.0333   31.5845   16.8479 C   0  0  0  0  0  0  0  0  0  0  0  0
   15.9032   32.7151   17.3016 C   0  0  0  0  0  0  0  0  0  0  0  0
   15.4008   34.0079   16.7394 C   0  0  0  0  0  0  0  0  0  0  0  0
   15.2926   33.9540   15.2299 C   0  0  0  0  0  0  0  0  0  0  0  0
   14.4311   32.8120   14.8138 C   0  0  0  0  0  0  0  0  0  0  0  0
 10 11  1  0  0  0
 11 12  2  0  0  0
 11 13  1  0  0  0
 13  9  1  0  0  0
  9 15  1  0  0  0
  9  5  1  0  0  0
 15 16  1  0  0  0
 15 17  1  0  0  0
  5  6  2  0  0  0
  5  7  1  0  0  0
  7  4  1  0  0  0
  4 18  1  0  0  0
  4  1  1  0  0  0
 18 19  1  0  0  0
 19 20  2  0  0  0
 19 24  1  0  0  0
 20 21  1  0  0  0
 21 22  2  0  0  0
 22 23  1  0  0  0
 23 24  2  0  0  0
  1  2  1  0  0  0
  1 25  1  0  0  0
 25 26  1  0  0  0
 26 40  1  0  0  0
 26 27  1  0  0  0
 40 41  1  0  0  0
 41 42  1  0  0  0
 41 46  1  0  0  0
 42 43  1  0  0  0
 43 44  1  0  0  0
 44 45  1  0  0  0
 45 46  1  0  0  0
 27 28  1  0  0  0
 28 29  2  0  0  0
 28 31  1  0  0  0
 31 32  1  0  0  0
 31 37  1  0  0  0
 32 33  1  0  0  0
 37 38  1  0  0  0
 37 39  1  0  0  0
 33 34  2  0  0  0
 33 35  1  0  0  0
 13 14  1  0  0  0
  7  8  1  0  0  0
  2  3  1  0  0  0
 27 30  1  0  0  0
 32 36  1  0  0  0
M  END
> <minimizedAffinity>
-9.72796

$$$$
1HII_C20_B_101


 46 47  0  0  0  0  0  0  0  0999 V2000
   16.3440   29.7846   12.0547 C   0  0  0  0  0  0  0  0  0  0  0  0
   17.2133   28.6653   12.1673 O   0  0  0  0  0  0  0  0  0  0  0  0
   18.1340   28.9628   12.0986 H   0  0  0  0  0  0  0  0  0  0  0  0
   16.4700   30.4675   10.6707 C   0  0  0  0  0  0  0  0  0  0  0  0
   14.9771   28.7866    9.6819 C   0  0  0  0  0  0  0  0  0  0  0  0
   14.2973   28.6788   10.7169 O   0  0  0  0  0  0  0  0  0  0  0  0
   16.0317   29.5980    9.5807 N   0  0  0  0  0  0  0  0  0  0  0  0
   16.5362   29.6114    8.7354 H   0  0  0  0  0  0  0  0  0  0  0  0
   14.6340   27.9614    8.4258 C   0  0  0  0  0  0  0  0  0  0  0  0
   11.7196   25.5020    8.5222 C   0  0  0  0  0  0  0  0  0  0  0  0
   13.1291   26.0481    8.2668 C   0  0  0  0  0  0  0  0  0  0  0  0
   14.0307   25.3020    7.8525 O   0  0  0  0  0  0  0  0  0  0  0  0
   13.3124   27.3479    8.4981 N   0  0  0  0  0  0  0  0  0  0  0  0
   12.5354   27.9087    8.7238 H   0  0  0  0  0  0  0  0  0  0  0  0
   14.7655   28.8172    7.1307 C   0  0  0  0  0  0  0  0  0  0  0  0
   15.0367   27.9397    5.8911 C   0  0  0  0  0  0  0  0  0  0  0  0
   13.4773   29.6493    6.9213 C   0  0  0  0  0  0  0  0  0  0  0  0
   15.6461   31.7433   10.6745 C   0  0  0  0  0  0  0  0  0  0  0  0
   16.4891   32.9844   10.4893 C   0  0  0  0  0  0  0  0  0  0  0  0
   16.8071   33.8661   11.6400 C   0  0  0  0  0  0  0  0  0  0  0  0
   17.5713   35.0106   11.4034 C   0  0  0  0  0  0  0  0  0  0  0  0
   18.0474   35.3191   10.1102 C   0  0  0  0  0  0  0  0  0  0  0  0
   17.7697   34.5039    9.0025 C   0  0  0  0  0  0  0  0  0  0  0  0
   17.0101   33.3425    9.1481 C   0  0  0  0  0  0  0  0  0  0  0  0
   16.7830   30.6745   13.1808 C   0  0  0  0  0  0  0  0  0  0  0  0
   16.1149   30.3769   14.4046 N   0  0  0  0  0  0  0  0  0  0  0  0
   16.5035   31.3533   15.4027 N   0  0  0  0  0  0  0  0  0  0  0  0
   16.0867   32.6215   15.3422 C   0  0  0  0  0  0  0  0  0  0  0  0
   15.1610   32.9991   14.6096 O   0  0  0  0  0  0  0  0  0  0  0  0
   17.0892   31.0753   16.1436 H   0  0  0  0  0  0  0  0  0  0  0  0
   16.8175   33.6205   16.2423 C   0  0  0  0  0  0  0  0  0  0  0  0
   16.9945   34.8964   15.5569 N   0  0  0  0  0  0  0  0  0  0  0  0
   18.1989   35.4264   15.3537 C   0  0  0  0  0  0  0  0  0  0  0  0
   19.2495   34.8901   15.7451 O   0  0  0  0  0  0  0  0  0  0  0  0
   18.3052   36.7572   14.6317 C   0  0  0  0  0  0  0  0  0  0  0  0
   16.1996   35.3799   15.2351 H   0  0  0  0  0  0  0  0  0  0  0  0
   16.0536   33.8035   17.5883 C   0  0  0  0  0  0  0  0  0  0  0  0
   15.6390   32.4550   18.1754 C   0  0  0  0  0  0  0  0  0  0  0  0
   16.9534   34.5181   18.5859 C   0  0  0  0  0  0  0  0  0  0  0  0
   14.7163   30.4562   14.0487 C   0  0  0  0  0  0  0  0  0  0  0  0
   14.0067   29.4048   14.8619 C   0  0  0  0  0  0  0  0  0  0  0  0
   13.7353   28.1559   14.0461 C   0  0  0  0  0  0  0  0  0  0  0  0
   12.9927   27.1252   14.8380 C   0  0  0  0  0  0  0  0  0  0  0  0
   11.7015   27.6929   15.3379 C   0  0  0  0  0  0  0  0  0  0  0  0
   11.9224   28.9612   16.1353 C   0  0  0  0  0  0  0  0  0  0  0  0
   12.6733   29.9587   15.3225 C   0  0  0  0  0  0  0  0  0  0  0  0
 10 11  1  0  0  0
 11 12  2  0  0  0
 11 13  1  0  0  0
 13  9  1  0  0  0
  9 15  1  0  0  0
  9  5  1  0  0  0
 15 16  1  0  0  0
 15 17  1  0  0  0
  5  6  2  0  0  0
  5  7  1  0  0  0
  7  4  1  0  0  0
  4 18  1  0  0  0
  4  1  1  0  0  0
 18 19  1  0  0  0
 19 20  2  0  0  0
 19 24  1  0  0  0
 20 21  1  0  0  0
 21 22  2  0  0  0
 22 23  1  0  0  0
 23 24  2  0  0  0
  1  2  1  0  0  0
  1 25  1  0  0  0
 25 26  1  0  0  0
 26 40  1  0  0  0
 26 27  1  0  0  0
 40 41  1  0  0  0
 41 42  1  0  0  0
 41 46  1  0  0  0
 42 43  1  0  0  0
 43 44  1  0  0  0
 44 45  1  0  0  0
 45 46  1  0  0  0
 27 28  1  0  0  0
 28 29  2  0  0  0
 28 31  1  0  0  0
 31 32  1  0  0  0
 31 37  1  0  0  0
 32 33  1  0  0  0
 37 38  1  0  0  0
 37 39  1  0  0  0
 33 34  2  0  0  0
 33 35  1  0  0  0
 13 14  1  0  0  0
  7  8  1  0  0  0
  2  3  1  0  0  0
 27 30  1  0  0  0
 32 36  1  0  0  0
M  END
> <minimizedAffinity>
-9.52622

$$$$
1HII_C20_B_101


 46 47  0  0  0  0  0  0  0  0999 V2000
   16.6876   29.8383   13.2789 C   0  0  0  0  0  0  0  0  0  0  0  0
   17.5645   28.7289   13.1318 O   0  0  0  0  0  0  0  0  0  0  0  0
   17.4378   28.3305   12.2565 H   0  0  0  0  0  0  0  0  0  0  0  0
   15.2028   29.4033   13.2185 C   0  0  0  0  0  0  0  0  0  0  0  0
   13.6768   29.0101   11.3347 C   0  0  0  0  0  0  0  0  0  0  0  0
   12.7722   29.7031   11.8313 O   0  0  0  0  0  0  0  0  0  0  0  0
   14.8518   28.8036   11.9326 N   0  0  0  0  0  0  0  0  0  0  0  0
   15.5106   28.2224   11.4884 H   0  0  0  0  0  0  0  0  0  0  0  0
   13.4833   28.3268    9.9665 C   0  0  0  0  0  0  0  0  0  0  0  0
   16.2285   28.8508    7.3703 C   0  0  0  0  0  0  0  0  0  0  0  0
   14.8361   28.8720    8.0111 C   0  0  0  0  0  0  0  0  0  0  0  0
   13.8836   29.4224    7.4358 O   0  0  0  0  0  0  0  0  0  0  0  0
   14.7165   28.2612    9.1898 N   0  0  0  0  0  0  0  0  0  0  0  0
   15.4805   27.7525    9.5457 H   0  0  0  0  0  0  0  0  0  0  0  0
   12.8642   26.9058   10.1238 C   0  0  0  0  0  0  0  0  0  0  0  0
   12.5598   26.2605    8.7559 C   0  0  0  0  0  0  0  0  0  0  0  0
   13.8257   26.0039   10.9349 C   0  0  0  0  0  0  0  0  0  0  0  0
   14.9338   28.4135   14.3385 C   0  0  0  0  0  0  0  0  0  0  0  0
   13.4737   28.3509   14.7254 C   0  0  0  0  0  0  0  0  0  0  0  0
   12.6321   27.1933   14.3322 C   0  0  0  0  0  0  0  0  0  0  0  0
   11.2848   27.2018   14.6988 C   0  0  0  0  0  0  0  0  0  0  0  0
   10.7337   28.2710   15.4387 C   0  0  0  0  0  0  0  0  0  0  0  0
   11.5028   29.3770   15.8309 C   0  0  0  0  0  0  0  0  0  0  0  0
   12.8573   29.4520   15.5039 C   0  0  0  0  0  0  0  0  0  0  0  0
   17.0744   30.7348   12.1390 C   0  0  0  0  0  0  0  0  0  0  0  0
   16.8299   32.1111   12.4192 N   0  0  0  0  0  0  0  0  0  0  0  0
   17.0558   32.3515   13.8305 N   0  0  0  0  0  0  0  0  0  0  0  0
   16.2426   33.1331   14.5474 C   0  0  0  0  0  0  0  0  0  0  0  0
   15.1250   33.4953   14.1527 O   0  0  0  0  0  0  0  0  0  0  0  0
   17.8274   31.9286   14.2721 H   0  0  0  0  0  0  0  0  0  0  0  0
   16.7597   33.5753   15.9183 C   0  0  0  0  0  0  0  0  0  0  0  0
   16.9620   35.0200   15.9500 N   0  0  0  0  0  0  0  0  0  0  0  0
   18.1636   35.5674   15.7796 C   0  0  0  0  0  0  0  0  0  0  0  0
   19.1945   34.8963   15.6020 O   0  0  0  0  0  0  0  0  0  0  0  0
   18.2970   37.0787   15.8241 C   0  0  0  0  0  0  0  0  0  0  0  0
   16.1868   35.6075   16.1021 H   0  0  0  0  0  0  0  0  0  0  0  0
   15.7844   33.1166   17.0439 C   0  0  0  0  0  0  0  0  0  0  0  0
   15.5575   31.6062   16.9960 C   0  0  0  0  0  0  0  0  0  0  0  0
   16.3707   33.4827   18.3996 C   0  0  0  0  0  0  0  0  0  0  0  0
   17.7757   32.7976   11.5689 C   0  0  0  0  0  0  0  0  0  0  0  0
   17.2019   34.1659   11.3065 C   0  0  0  0  0  0  0  0  0  0  0  0
   17.1605   34.4797    9.8236 C   0  0  0  0  0  0  0  0  0  0  0  0
   16.6305   35.8548    9.5611 C   0  0  0  0  0  0  0  0  0  0  0  0
   17.4678   36.8726   10.2700 C   0  0  0  0  0  0  0  0  0  0  0  0
   17.5616   36.5811   11.7530 C   0  0  0  0  0  0  0  0  0  0  0  0
   18.0804   35.2027   11.9773 C   0  0  0  0  0  0  0  0  0  0  0  0
 10 11  1  0  0  0
 11 12  2  0  0  0
 11 13  1  0  0  0
 13  9  1  0  0  0
  9 15  1  0  0  0
  9  5  1  0  0  0
 15 16  1  0  0  0
 15 17  1  0  0  0
  5  6  2  0  0  0
  5  7  1  0  0  0
  7  4  1  0  0  0
  4 18  1  0  0  0
  4  1  1  0  0  0
 18 19  1  0  0  0
 19 20  2  0  0  0
 19 24  1  0  0  0
 20 21  1  0  0  0
 21 22  2  0  0  0
 22 23  1  0  0  0
 23 24  2  0  0  0
  1  2  1  0  0  0
  1 25  1  0  0  0
 25 26  1  0  0  0
 26 40  1  0  0  0
 26 27  1  0  0  0
 40 41  1  0  0  0
 41 42  1  0  0  0
 41 46  1  0  0  0
 42 43  1  0  0  0
 43 44  1  0  0  0
 44 45  1  0  0  0
 45 46  1  0  0  0
 27 28  1  0  0  0
 28 29  2  0  0  0
 28 31  1  0  0  0
 31 32  1  0  0  0
 31 37  1  0  0  0
 32 33  1  0  0  0
 37 38  1  0  0  0
 37 39  1  0  0  0
 33 34  2  0  0  0
 33 35  1  0  0  0
 13 14  1  0  0  0
  7  8  1  0  0  0
  2  3  1  0  0  0
 27 30  1  0  0  0
 32 36  1  0  0  0
M  END
> <minimizedAffinity>
-9.46272

$$$$
1HII_C20_B_101


 46 47  0  0  0  0  0  0  0  0999 V2000
   16.4986   29.8883   13.0676 C   0  0  0  0  0  0  0  0  0  0  0  0
   17.7540   29.2213   13.0837 O   0  0  0  0  0  0  0  0  0  0  0  0
   18.4684   29.8772   13.1015 H   0  0  0  0  0  0  0  0  0  0  0  0
   16.3242   30.7444   11.7892 C   0  0  0  0  0  0  0  0  0  0  0  0
   16.4749   33.1836   11.5460 C   0  0  0  0  0  0  0  0  0  0  0  0
   15.3127   33.2834   11.1169 O   0  0  0  0  0  0  0  0  0  0  0  0
   17.0365   32.0180   11.8724 N   0  0  0  0  0  0  0  0  0  0  0  0
   17.9709   32.0157   12.1826 H   0  0  0  0  0  0  0  0  0  0  0  0
   17.3582   34.4346   11.7233 C   0  0  0  0  0  0  0  0  0  0  0  0
   19.4261   35.1644   14.8445 C   0  0  0  0  0  0  0  0  0  0  0  0
   18.6161   35.4173   13.5679 C   0  0  0  0  0  0  0  0  0  0  0  0
   18.3454   36.5748   13.2098 O   0  0  0  0  0  0  0  0  0  0  0  0
   18.2454   34.3392   12.8774 N   0  0  0  0  0  0  0  0  0  0  0  0
   18.5791   33.4551   13.1536 H   0  0  0  0  0  0  0  0  0  0  0  0
   18.1763   34.7396   10.4329 C   0  0  0  0  0  0  0  0  0  0  0  0
   19.5131   33.9698   10.4087 C   0  0  0  0  0  0  0  0  0  0  0  0
   17.3345   34.3826    9.1841 C   0  0  0  0  0  0  0  0  0  0  0  0
   16.8246   29.9520   10.5940 C   0  0  0  0  0  0  0  0  0  0  0  0
   15.7436   29.6947    9.5690 C   0  0  0  0  0  0  0  0  0  0  0  0
   14.3243   29.5544    9.9798 C   0  0  0  0  0  0  0  0  0  0  0  0
   13.3733   29.2951    8.9909 C   0  0  0  0  0  0  0  0  0  0  0  0
   13.7409   29.1849    7.6318 C   0  0  0  0  0  0  0  0  0  0  0  0
   15.0724   29.3179    7.2095 C   0  0  0  0  0  0  0  0  0  0  0  0
   16.0877   29.5745    8.1318 C   0  0  0  0  0  0  0  0  0  0  0  0
   16.5345   30.7173   14.3182 C   0  0  0  0  0  0  0  0  0  0  0  0
   15.2377   30.9260   14.8726 N   0  0  0  0  0  0  0  0  0  0  0  0
   14.3591   29.8623   14.4286 N   0  0  0  0  0  0  0  0  0  0  0  0
   13.3005   30.1064   13.6503 C   0  0  0  0  0  0  0  0  0  0  0  0
   13.1310   31.1767   13.0487 O   0  0  0  0  0  0  0  0  0  0  0  0
   14.5468   28.9369   14.7072 H   0  0  0  0  0  0  0  0  0  0  0  0
   12.2749   28.9774   13.5246 C   0  0  0  0  0  0  0  0  0  0  0  0
   12.9372   27.6774   13.5367 N   0  0  0  0  0  0  0  0  0  0  0  0
   12.6344   26.7237   12.6583 C   0  0  0  0  0  0  0  0  0  0  0  0
   11.7615   26.8605   11.7843 O   0  0  0  0  0  0  0  0  0  0  0  0
   13.3665   25.3962   12.7315 C   0  0  0  0  0  0  0  0  0  0  0  0
   13.6286   27.5000   14.2148 H   0  0  0  0  0  0  0  0  0  0  0  0
   11.2089   29.0791   14.6568 C   0  0  0  0  0  0  0  0  0  0  0  0
    9.8705   28.4932   14.2092 C   0  0  0  0  0  0  0  0  0  0  0  0
   11.6962   28.3141   15.8787 C   0  0  0  0  0  0  0  0  0  0  0  0
   15.4771   30.9054   16.2978 C   0  0  0  0  0  0  0  0  0  0  0  0
   15.4877   32.3422   16.7516 C   0  0  0  0  0  0  0  0  0  0  0  0
   16.2145   33.2348   15.7646 C   0  0  0  0  0  0  0  0  0  0  0  0
   16.2642   34.6558   16.2325 C   0  0  0  0  0  0  0  0  0  0  0  0
   16.9305   34.7337   17.5702 C   0  0  0  0  0  0  0  0  0  0  0  0
   16.2543   33.8331   18.5824 C   0  0  0  0  0  0  0  0  0  0  0  0
   16.2117   32.4312   18.0801 C   0  0  0  0  0  0  0  0  0  0  0  0
 10 11  1  0  0  0
 11 12  2  0  0  0
 11 13  1  0  0  0
 13  9  1  0  0  0
  9 15  1  0  0  0
  9  5  1  0  0  0
 15 16  1  0  0  0
 15 17  1  0  0  0
  5  6  2  0  0  0
  5  7  1  0  0  0
  7  4  1  0  0  0
  4 18  1  0  0  0
  4  1  1  0  0  0
 18 19  1  0  0  0
 19 20  2  0  0  0
 19 24  1  0  0  0
 20 21  1  0  0  0
 21 22  2  0  0  0
 22 23  1  0  0  0
 23 24  2  0  0  0
  1  2  1  0  0  0
  1 25  1  0  0  0
 25 26  1  0  0  0
 26 40  1  0  0  0
 26 27  1  0  0  0
 40 41  1  0  0  0
 41 42  1  0  0  0
 41 46  1  0  0  0
 42 43  1  0  0  0
 43 44  1  0  0  0
 44 45  1  0  0  0
 45 46  1  0  0  0
 27 28  1  0  0  0
 28 29  2  0  0  0
 28 31  1  0  0  0
 31 32  1  0  0  0
 31 37  1  0  0  0
 32 33  1  0  0  0
 37 38  1  0  0  0
 37 39  1  0  0  0
 33 34  2  0  0  0
 33 35  1  0  0  0
 13 14  1  0  0  0
  7  8  1  0  0  0
  2  3  1  0  0  0
 27 30  1  0  0  0
 32 36  1  0  0  0
M  END
> <minimizedAffinity>
-9.21454

$$$$
1HII_C20_B_101


 46 47  0  0  0  0  0  0  0  0999 V2000
   16.2295   29.7176   13.4786 C   0  0  0  0  0  0  0  0  0  0  0  0
   17.3338   28.9684   12.9884 O   0  0  0  0  0  0  0  0  0  0  0  0
   17.3363   28.9929   12.0188 H   0  0  0  0  0  0  0  0  0  0  0  0
   14.8802   29.1025   13.0326 C   0  0  0  0  0  0  0  0  0  0  0  0
   14.2246   28.6912   10.7017 C   0  0  0  0  0  0  0  0  0  0  0  0
   13.3427   29.5669   10.7213 O   0  0  0  0  0  0  0  0  0  0  0  0
   14.9865   28.3968   11.7570 N   0  0  0  0  0  0  0  0  0  0  0  0
   15.6486   27.6731   11.6728 H   0  0  0  0  0  0  0  0  0  0  0  0
   14.4896   27.8699    9.4244 C   0  0  0  0  0  0  0  0  0  0  0  0
   12.0786   25.3263    7.9183 C   0  0  0  0  0  0  0  0  0  0  0  0
   13.3942   26.0525    8.2210 C   0  0  0  0  0  0  0  0  0  0  0  0
   14.4717   25.6174    7.7840 O   0  0  0  0  0  0  0  0  0  0  0  0
   13.3039   27.1629    8.9527 N   0  0  0  0  0  0  0  0  0  0  0  0
   12.4134   27.5153    9.1809 H   0  0  0  0  0  0  0  0  0  0  0  0
   15.0792   28.7594    8.2894 C   0  0  0  0  0  0  0  0  0  0  0  0
   13.9688   29.4233    7.4488 C   0  0  0  0  0  0  0  0  0  0  0  0
   16.0025   29.8413    8.8998 C   0  0  0  0  0  0  0  0  0  0  0  0
   14.3942   28.1485   14.1097 C   0  0  0  0  0  0  0  0  0  0  0  0
   12.8937   28.1860   14.2902 C   0  0  0  0  0  0  0  0  0  0  0  0
   12.2475   29.2790   15.0588 C   0  0  0  0  0  0  0  0  0  0  0  0
   10.8599   29.2482   15.2109 C   0  0  0  0  0  0  0  0  0  0  0  0
   10.0827   28.2178   14.6376 C   0  0  0  0  0  0  0  0  0  0  0  0
   10.6615   27.1734   13.9007 C   0  0  0  0  0  0  0  0  0  0  0  0
   12.0419   27.1243   13.7023 C   0  0  0  0  0  0  0  0  0  0  0  0
   16.4600   31.0846   12.9036 C   0  0  0  0  0  0  0  0  0  0  0  0
   16.4415   32.1059   13.8982 N   0  0  0  0  0  0  0  0  0  0  0  0
   17.0603   33.3002   13.3584 N   0  0  0  0  0  0  0  0  0  0  0  0
   16.7807   33.7393   12.1275 C   0  0  0  0  0  0  0  0  0  0  0  0
   15.8154   33.3346   11.4639 O   0  0  0  0  0  0  0  0  0  0  0  0
   17.7024   33.8003   13.9121 H   0  0  0  0  0  0  0  0  0  0  0  0
   17.7265   34.7959   11.5520 C   0  0  0  0  0  0  0  0  0  0  0  0
   18.9906   34.8062   12.2807 N   0  0  0  0  0  0  0  0  0  0  0  0
   19.2043   35.6232   13.3101 C   0  0  0  0  0  0  0  0  0  0  0  0
   18.3602   36.4426   13.7108 O   0  0  0  0  0  0  0  0  0  0  0  0
   20.5445   35.5765   14.0209 C   0  0  0  0  0  0  0  0  0  0  0  0
   19.7069   34.1906   12.0029 H   0  0  0  0  0  0  0  0  0  0  0  0
   17.9541   34.5541   10.0294 C   0  0  0  0  0  0  0  0  0  0  0  0
   17.7229   35.8337    9.2266 C   0  0  0  0  0  0  0  0  0  0  0  0
   19.3828   34.0824    9.8015 C   0  0  0  0  0  0  0  0  0  0  0  0
   15.0334   32.2739   14.1774 C   0  0  0  0  0  0  0  0  0  0  0  0
   14.9283   32.6735   15.6264 C   0  0  0  0  0  0  0  0  0  0  0  0
   16.0607   33.5950   16.0358 C   0  0  0  0  0  0  0  0  0  0  0  0
   15.9836   33.9603   17.4853 C   0  0  0  0  0  0  0  0  0  0  0  0
   16.0074   32.7245   18.3290 C   0  0  0  0  0  0  0  0  0  0  0  0
   14.9090   31.7596   17.9344 C   0  0  0  0  0  0  0  0  0  0  0  0
   15.0085   31.4275   16.4855 C   0  0  0  0  0  0  0  0  0  0  0  0
 10 11  1  0  0  0
 11 12  2  0  0  0
 11 13  1  0  0  0
 13  9  1  0  0  0
  9 15  1  0  0  0
  9  5  1  0  0  0
 15 16  1  0  0  0
 15 17  1  0  0  0
  5  6  2  0  0  0
  5  7  1  0  0  0
  7  4  1  0  0  0
  4 18  1  0  0  0
  4  1  1  0  0  0
 18 19  1  0  0  0
 19 20  2  0  0  0
 19 24  1  0  0  0
 20 21  1  0  0  0
 21 22  2  0  0  0
 22 23  1  0  0  0
 23 24  2  0  0  0
  1  2  1  0  0  0
  1 25  1  0  0  0
 25 26  1  0  0  0
 26 40  1  0  0  0
 26 27  1  0  0  0
 40 41  1  0  0  0
 41 42  1  0  0  0
 41 46  1  0  0  0
 42 43  1  0  0  0
 43 44  1  0  0  0
 44 45  1  0  0  0
 45 46  1  0  0  0
 27 28  1  0  0  0
 28 29  2  0  0  0
 28 31  1  0  0  0
 31 32  1  0  0  0
 31 37  1  0  0  0
 32 33  1  0  0  0
 37 38  1  0  0  0
 37 39  1  0  0  0
 33 34  2  0  0  0
 33 35  1  0  0  0
 13 14  1  0  0  0
  7  8  1  0  0  0
  2  3  1  0  0  0
 27 30  1  0  0  0
 32 36  1  0  0  0
M  END
> <minimizedAffinity>
-9.04929

$$$$
