5TT3_EZL_A_303


 18 19  0  0  0  0  0  0  0  0999 V2000
   52.3945   41.6695   90.3803 C   0  0  0  0  0  0  0  0  0  0  0  0
   53.0795   42.7426   89.7378 C   0  0  0  0  0  0  0  0  0  0  0  0
   54.4542   42.8694   89.8796 C   0  0  0  0  0  0  0  0  0  0  0  0
   55.1647   41.9450   90.6530 C   0  0  0  0  0  0  0  0  0  0  0  0
   50.6630   42.9243   89.2027 C   0  0  0  0  0  0  0  0  0  0  0  0
   50.8516   41.7872   90.0374 N   0  0  0  0  0  0  0  0  0  0  0  0
   52.0372   43.5777   88.9723 S   0  0  0  0  0  0  0  0  0  0  0  0
   54.4875   40.8845   91.2891 C   0  0  0  0  0  0  0  0  0  0  0  0
   53.1028   40.7549   91.1463 C   0  0  0  0  0  0  0  0  0  0  0  0
   48.9245   44.5224   87.6943 N   0  0  0  0  0  0  0  0  0  0  0  0
   48.1318   43.4156   89.8428 O   0  0  0  0  0  0  0  0  0  0  0  0
   48.4037   42.0650   88.1001 O   0  0  0  0  0  0  0  0  0  0  0  0
   48.9892   43.2304   88.7043 S   0  0  0  0  0  0  0  0  0  0  0  0
   47.9574   44.6877   87.4153 H   0  0  0  0  0  0  0  0  0  0  0  0
   49.4900   44.3354   86.8663 H   0  0  0  0  0  0  0  0  0  0  0  0
   56.4745   42.4337   90.5284 O   0  0  0  0  0  0  0  0  0  0  0  0
   56.6968   43.1764   89.3523 C   0  0  0  0  0  0  0  0  0  0  0  0
   57.9141   42.6339   88.6361 C   0  0  0  0  0  0  0  0  0  0  0  0
 10 13  1  0  0  0
  1  2  2  0  0  0
  1  6  1  0  0  0
  1  9  1  0  0  0
  2  3  1  0  0  0
  2  7  1  0  0  0
  3  4  2  0  0  0
  4  8  1  0  0  0
  4 16  1  0  0  0
 17 16  1  0  0  0
 17 18  1  0  0  0
 11 13  2  0  0  0
 12 13  2  0  0  0
 13  5  1  0  0  0
  5  6  2  0  0  0
  5  7  1  0  0  0
  8  9  2  0  0  0
 10 14  1  0  0  0
 10 15  1  0  0  0
M  END
> <minimizedAffinity>
-6.34973

$$$$
5TT3_EZL_A_303


 18 19  0  0  0  0  0  0  0  0999 V2000
   50.9396   42.3815   89.0572 C   0  0  0  0  0  0  0  0  0  0  0  0
   52.1029   42.4892   88.2395 C   0  0  0  0  0  0  0  0  0  0  0  0
   52.0189   43.0938   86.9931 C   0  0  0  0  0  0  0  0  0  0  0  0
   50.7935   43.5952   86.5413 C   0  0  0  0  0  0  0  0  0  0  0  0
   52.7335   41.3493   90.3517 C   0  0  0  0  0  0  0  0  0  0  0  0
   51.3443   41.6534   90.4056 N   0  0  0  0  0  0  0  0  0  0  0  0
   53.2782   41.8529   89.0033 S   0  0  0  0  0  0  0  0  0  0  0  0
   49.6429   43.4879   87.3491 C   0  0  0  0  0  0  0  0  0  0  0  0
   49.7262   42.8802   88.6055 C   0  0  0  0  0  0  0  0  0  0  0  0
   54.3356   41.5492   92.6419 N   0  0  0  0  0  0  0  0  0  0  0  0
   54.1017   39.3345   91.4131 O   0  0  0  0  0  0  0  0  0  0  0  0
   52.3334   39.9797   92.5928 O   0  0  0  0  0  0  0  0  0  0  0  0
   53.3857   40.5254   91.7800 S   0  0  0  0  0  0  0  0  0  0  0  0
   54.7041   41.0638   93.4598 H   0  0  0  0  0  0  0  0  0  0  0  0
   53.7839   42.3525   92.9432 H   0  0  0  0  0  0  0  0  0  0  0  0
   51.1524   44.1005   85.2820 O   0  0  0  0  0  0  0  0  0  0  0  0
   51.9768   45.2412   85.3390 C   0  0  0  0  0  0  0  0  0  0  0  0
   51.1344   46.4565   85.6593 C   0  0  0  0  0  0  0  0  0  0  0  0
 10 13  1  0  0  0
  1  2  2  0  0  0
  1  6  1  0  0  0
  1  9  1  0  0  0
  2  3  1  0  0  0
  2  7  1  0  0  0
  3  4  2  0  0  0
  4  8  1  0  0  0
  4 16  1  0  0  0
 17 16  1  0  0  0
 17 18  1  0  0  0
 11 13  2  0  0  0
 12 13  2  0  0  0
 13  5  1  0  0  0
  5  6  2  0  0  0
  5  7  1  0  0  0
  8  9  2  0  0  0
 10 14  1  0  0  0
 10 15  1  0  0  0
M  END
> <minimizedAffinity>
-6.29852

$$$$
5TT3_EZL_A_303


 18 19  0  0  0  0  0  0  0  0999 V2000
   51.1525   43.3500   88.3291 C   0  0  0  0  0  0  0  0  0  0  0  0
   52.4382   42.7905   88.0694 C   0  0  0  0  0  0  0  0  0  0  0  0
   52.8375   41.6378   88.7311 C   0  0  0  0  0  0  0  0  0  0  0  0
   51.9785   41.0280   89.6518 C   0  0  0  0  0  0  0  0  0  0  0  0
   52.1716   44.8224   86.6699 C   0  0  0  0  0  0  0  0  0  0  0  0
   50.9841   44.6475   87.4345 N   0  0  0  0  0  0  0  0  0  0  0  0
   53.1375   43.6778   87.0238 S   0  0  0  0  0  0  0  0  0  0  0  0
   50.7077   41.5816   89.9095 C   0  0  0  0  0  0  0  0  0  0  0  0
   50.3036   42.7422   89.2428 C   0  0  0  0  0  0  0  0  0  0  0  0
   53.1974   47.3828   86.1756 N   0  0  0  0  0  0  0  0  0  0  0  0
   50.8550   46.7547   85.4085 O   0  0  0  0  0  0  0  0  0  0  0  0
   52.5264   45.8605   84.2501 O   0  0  0  0  0  0  0  0  0  0  0  0
   52.1810   46.2325   85.5949 S   0  0  0  0  0  0  0  0  0  0  0  0
   53.1936   48.1875   85.5489 H   0  0  0  0  0  0  0  0  0  0  0  0
   54.1421   47.0029   86.2355 H   0  0  0  0  0  0  0  0  0  0  0  0
   52.7549   39.9352   90.0678 O   0  0  0  0  0  0  0  0  0  0  0  0
   53.8405   40.2879   90.8931 C   0  0  0  0  0  0  0  0  0  0  0  0
   53.3434   40.5393   92.2998 C   0  0  0  0  0  0  0  0  0  0  0  0
 10 13  1  0  0  0
  1  2  2  0  0  0
  1  6  1  0  0  0
  1  9  1  0  0  0
  2  3  1  0  0  0
  2  7  1  0  0  0
  3  4  2  0  0  0
  4  8  1  0  0  0
  4 16  1  0  0  0
 17 16  1  0  0  0
 17 18  1  0  0  0
 11 13  2  0  0  0
 12 13  2  0  0  0
 13  5  1  0  0  0
  5  6  2  0  0  0
  5  7  1  0  0  0
  8  9  2  0  0  0
 10 14  1  0  0  0
 10 15  1  0  0  0
M  END
> <minimizedAffinity>
-6.28069

$$$$
5TT3_EZL_A_303


 18 19  0  0  0  0  0  0  0  0999 V2000
   52.8753   42.8013   87.5545 C   0  0  0  0  0  0  0  0  0  0  0  0
   52.1345   42.8657   88.7714 C   0  0  0  0  0  0  0  0  0  0  0  0
   52.1567   41.7935   89.6523 C   0  0  0  0  0  0  0  0  0  0  0  0
   52.9046   40.6519   89.3444 C   0  0  0  0  0  0  0  0  0  0  0  0
   51.7947   44.9902   87.5348 C   0  0  0  0  0  0  0  0  0  0  0  0
   52.6570   44.1589   86.7662 N   0  0  0  0  0  0  0  0  0  0  0  0
   51.4249   44.2308   88.8212 S   0  0  0  0  0  0  0  0  0  0  0  0
   53.6362   40.5877   88.1408 C   0  0  0  0  0  0  0  0  0  0  0  0
   53.6158   41.6675   87.2529 C   0  0  0  0  0  0  0  0  0  0  0  0
   52.8122   47.3862   86.4975 N   0  0  0  0  0  0  0  0  0  0  0  0
   50.5525   47.3351   87.6641 O   0  0  0  0  0  0  0  0  0  0  0  0
   50.6172   46.4290   85.6368 O   0  0  0  0  0  0  0  0  0  0  0  0
   51.4252   46.5690   86.8172 S   0  0  0  0  0  0  0  0  0  0  0  0
   52.5861   48.2915   86.0856 H   0  0  0  0  0  0  0  0  0  0  0  0
   53.3810   46.8478   85.8441 H   0  0  0  0  0  0  0  0  0  0  0  0
   52.6517   39.8484   90.4670 O   0  0  0  0  0  0  0  0  0  0  0  0
   52.9797   40.4607   91.6923 C   0  0  0  0  0  0  0  0  0  0  0  0
   54.4061   40.1173   92.0617 C   0  0  0  0  0  0  0  0  0  0  0  0
 10 13  1  0  0  0
  1  2  2  0  0  0
  1  6  1  0  0  0
  1  9  1  0  0  0
  2  3  1  0  0  0
  2  7  1  0  0  0
  3  4  2  0  0  0
  4  8  1  0  0  0
  4 16  1  0  0  0
 17 16  1  0  0  0
 17 18  1  0  0  0
 11 13  2  0  0  0
 12 13  2  0  0  0
 13  5  1  0  0  0
  5  6  2  0  0  0
  5  7  1  0  0  0
  8  9  2  0  0  0
 10 14  1  0  0  0
 10 15  1  0  0  0
M  END
> <minimizedAffinity>
-6.24115

$$$$
5TT3_EZL_A_303


 18 19  0  0  0  0  0  0  0  0999 V2000
   51.3110   44.3345   88.3045 C   0  0  0  0  0  0  0  0  0  0  0  0
   52.6791   44.7014   88.1391 C   0  0  0  0  0  0  0  0  0  0  0  0
   53.0058   45.8646   87.4563 C   0  0  0  0  0  0  0  0  0  0  0  0
   51.9927   46.6740   86.9311 C   0  0  0  0  0  0  0  0  0  0  0  0
   52.5878   42.5716   89.4097 C   0  0  0  0  0  0  0  0  0  0  0  0
   51.2548   42.9743   89.1161 N   0  0  0  0  0  0  0  0  0  0  0  0
   53.5430   43.6235   88.8185 S   0  0  0  0  0  0  0  0  0  0  0  0
   50.6400   46.3109   87.0936 C   0  0  0  0  0  0  0  0  0  0  0  0
   50.3094   45.1400   87.7822 C   0  0  0  0  0  0  0  0  0  0  0  0
   54.0213   41.1377   91.3437 N   0  0  0  0  0  0  0  0  0  0  0  0
   52.8449   39.9276   89.4407 O   0  0  0  0  0  0  0  0  0  0  0  0
   51.5262   40.7511   91.0275 O   0  0  0  0  0  0  0  0  0  0  0  0
   52.7399   41.0585   90.3214 S   0  0  0  0  0  0  0  0  0  0  0  0
   54.0977   40.2622   91.8616 H   0  0  0  0  0  0  0  0  0  0  0  0
   53.8875   41.9090   91.9976 H   0  0  0  0  0  0  0  0  0  0  0  0
   52.7430   47.7047   86.3440 O   0  0  0  0  0  0  0  0  0  0  0  0
   53.3918   47.3298   85.1513 C   0  0  0  0  0  0  0  0  0  0  0  0
   52.4161   47.4157   83.9982 C   0  0  0  0  0  0  0  0  0  0  0  0
 10 13  1  0  0  0
  1  2  2  0  0  0
  1  6  1  0  0  0
  1  9  1  0  0  0
  2  3  1  0  0  0
  2  7  1  0  0  0
  3  4  2  0  0  0
  4  8  1  0  0  0
  4 16  1  0  0  0
 17 16  1  0  0  0
 17 18  1  0  0  0
 11 13  2  0  0  0
 12 13  2  0  0  0
 13  5  1  0  0  0
  5  6  2  0  0  0
  5  7  1  0  0  0
  8  9  2  0  0  0
 10 14  1  0  0  0
 10 15  1  0  0  0
M  END
> <minimizedAffinity>
-6.17227

$$$$
5TT3_EZL_A_303


 18 19  0  0  0  0  0  0  0  0999 V2000
   52.3841   42.4185   87.7087 C   0  0  0  0  0  0  0  0  0  0  0  0
   53.3331   41.3615   87.8348 C   0  0  0  0  0  0  0  0  0  0  0  0
   53.3381   40.5684   88.9736 C   0  0  0  0  0  0  0  0  0  0  0  0
   52.4131   40.8080   89.9956 C   0  0  0  0  0  0  0  0  0  0  0  0
   53.7033   42.4904   85.6560 C   0  0  0  0  0  0  0  0  0  0  0  0
   52.6221   43.1381   86.3167 N   0  0  0  0  0  0  0  0  0  0  0  0
   54.2019   41.3523   86.5640 S   0  0  0  0  0  0  0  0  0  0  0  0
   51.4754   41.8536   89.8716 C   0  0  0  0  0  0  0  0  0  0  0  0
   51.4684   42.6527   88.7244 C   0  0  0  0  0  0  0  0  0  0  0  0
   53.1676   42.5060   82.9056 N   0  0  0  0  0  0  0  0  0  0  0  0
   55.5191   42.9443   83.7705 O   0  0  0  0  0  0  0  0  0  0  0  0
   54.0557   44.5894   84.0658 O   0  0  0  0  0  0  0  0  0  0  0  0
   54.1287   43.1538   84.0676 S   0  0  0  0  0  0  0  0  0  0  0  0
   53.4221   42.8954   81.9978 H   0  0  0  0  0  0  0  0  0  0  0  0
   52.1927   42.7264   83.1088 H   0  0  0  0  0  0  0  0  0  0  0  0
   52.7628   39.8114   90.9199 O   0  0  0  0  0  0  0  0  0  0  0  0
   53.9877   40.0453   91.5748 C   0  0  0  0  0  0  0  0  0  0  0  0
   53.7800   41.0463   92.6901 C   0  0  0  0  0  0  0  0  0  0  0  0
 10 13  1  0  0  0
  1  2  2  0  0  0
  1  6  1  0  0  0
  1  9  1  0  0  0
  2  3  1  0  0  0
  2  7  1  0  0  0
  3  4  2  0  0  0
  4  8  1  0  0  0
  4 16  1  0  0  0
 17 16  1  0  0  0
 17 18  1  0  0  0
 11 13  2  0  0  0
 12 13  2  0  0  0
 13  5  1  0  0  0
  5  6  2  0  0  0
  5  7  1  0  0  0
  8  9  2  0  0  0
 10 14  1  0  0  0
 10 15  1  0  0  0
M  END
> <minimizedAffinity>
-6.16648

$$$$
5TT3_EZL_A_303


 18 19  0  0  0  0  0  0  0  0999 V2000
   55.6087   42.3762   88.0734 C   0  0  0  0  0  0  0  0  0  0  0  0
   56.2588   42.7886   89.2738 C   0  0  0  0  0  0  0  0  0  0  0  0
   57.4846   43.4361   89.2094 C   0  0  0  0  0  0  0  0  0  0  0  0
   58.0802   43.6818   87.9676 C   0  0  0  0  0  0  0  0  0  0  0  0
   54.1196   41.6867   89.8808 C   0  0  0  0  0  0  0  0  0  0  0  0
   54.2429   41.6728   88.4631 N   0  0  0  0  0  0  0  0  0  0  0  0
   55.3653   42.3810   90.4592 S   0  0  0  0  0  0  0  0  0  0  0  0
   57.4382   43.2732   86.7806 C   0  0  0  0  0  0  0  0  0  0  0  0
   56.2027   42.6219   86.8439 C   0  0  0  0  0  0  0  0  0  0  0  0
   52.8386   40.5695   92.1085 N   0  0  0  0  0  0  0  0  0  0  0  0
   52.2731   39.7806   89.7574 O   0  0  0  0  0  0  0  0  0  0  0  0
   51.5009   41.7866   90.3184 O   0  0  0  0  0  0  0  0  0  0  0  0
   52.6446   40.9398   90.5214 S   0  0  0  0  0  0  0  0  0  0  0  0
   51.9841   40.1411   92.4646 H   0  0  0  0  0  0  0  0  0  0  0  0
   53.0368   41.4207   92.6345 H   0  0  0  0  0  0  0  0  0  0  0  0
   59.2625   44.3313   88.3551 O   0  0  0  0  0  0  0  0  0  0  0  0
   59.1402   45.7315   88.4475 C   0  0  0  0  0  0  0  0  0  0  0  0
   60.0280   46.2427   89.5609 C   0  0  0  0  0  0  0  0  0  0  0  0
 10 13  1  0  0  0
  1  2  2  0  0  0
  1  6  1  0  0  0
  1  9  1  0  0  0
  2  3  1  0  0  0
  2  7  1  0  0  0
  3  4  2  0  0  0
  4  8  1  0  0  0
  4 16  1  0  0  0
 17 16  1  0  0  0
 17 18  1  0  0  0
 11 13  2  0  0  0
 12 13  2  0  0  0
 13  5  1  0  0  0
  5  6  2  0  0  0
  5  7  1  0  0  0
  8  9  2  0  0  0
 10 14  1  0  0  0
 10 15  1  0  0  0
M  END
> <minimizedAffinity>
-5.83530

$$$$
5TT3_EZL_A_303


 18 19  0  0  0  0  0  0  0  0999 V2000
   54.1404   44.2483   88.9520 C   0  0  0  0  0  0  0  0  0  0  0  0
   55.3893   43.7187   89.3918 C   0  0  0  0  0  0  0  0  0  0  0  0
   56.5609   44.4252   89.1591 C   0  0  0  0  0  0  0  0  0  0  0  0
   56.5144   45.6546   88.4929 C   0  0  0  0  0  0  0  0  0  0  0  0
   53.5963   42.1236   90.0240 C   0  0  0  0  0  0  0  0  0  0  0  0
   52.9967   43.2284   89.3566 N   0  0  0  0  0  0  0  0  0  0  0  0
   55.1143   42.3701   90.0814 S   0  0  0  0  0  0  0  0  0  0  0  0
   55.2799   46.1779   88.0570 C   0  0  0  0  0  0  0  0  0  0  0  0
   54.0986   45.4679   88.2918 C   0  0  0  0  0  0  0  0  0  0  0  0
   52.7782   40.4566   92.1224 N   0  0  0  0  0  0  0  0  0  0  0  0
   52.5332   39.7101   89.7032 O   0  0  0  0  0  0  0  0  0  0  0  0
   51.1063   41.2702   90.3852 O   0  0  0  0  0  0  0  0  0  0  0  0
   52.4730   40.8614   90.5615 S   0  0  0  0  0  0  0  0  0  0  0  0
   52.1261   39.7306   92.4191 H   0  0  0  0  0  0  0  0  0  0  0  0
   52.6644   41.2788   92.7153 H   0  0  0  0  0  0  0  0  0  0  0  0
   57.8729   46.0065   88.4734 O   0  0  0  0  0  0  0  0  0  0  0  0
   58.7460   44.9232   88.6934 C   0  0  0  0  0  0  0  0  0  0  0  0
   60.1649   45.3488   88.3855 C   0  0  0  0  0  0  0  0  0  0  0  0
 10 13  1  0  0  0
  1  2  2  0  0  0
  1  6  1  0  0  0
  1  9  1  0  0  0
  2  3  1  0  0  0
  2  7  1  0  0  0
  3  4  2  0  0  0
  4  8  1  0  0  0
  4 16  1  0  0  0
 17 16  1  0  0  0
 17 18  1  0  0  0
 11 13  2  0  0  0
 12 13  2  0  0  0
 13  5  1  0  0  0
  5  6  2  0  0  0
  5  7  1  0  0  0
  8  9  2  0  0  0
 10 14  1  0  0  0
 10 15  1  0  0  0
M  END
> <minimizedAffinity>
-5.80013

$$$$
5TT3_EZL_A_303


 18 19  0  0  0  0  0  0  0  0999 V2000
   54.7649   43.5038   89.5645 C   0  0  0  0  0  0  0  0  0  0  0  0
   53.6388   44.0907   88.9156 C   0  0  0  0  0  0  0  0  0  0  0  0
   52.3982   43.4732   88.9898 C   0  0  0  0  0  0  0  0  0  0  0  0
   52.2552   42.2763   89.7000 C   0  0  0  0  0  0  0  0  0  0  0  0
   55.6160   45.5346   88.5105 C   0  0  0  0  0  0  0  0  0  0  0  0
   56.0266   44.4274   89.3047 N   0  0  0  0  0  0  0  0  0  0  0  0
   54.1109   45.3840   88.2272 S   0  0  0  0  0  0  0  0  0  0  0  0
   53.3686   41.6953   90.3408 C   0  0  0  0  0  0  0  0  0  0  0  0
   54.6189   42.3169   90.2678 C   0  0  0  0  0  0  0  0  0  0  0  0
   58.3506   45.9392   88.0522 N   0  0  0  0  0  0  0  0  0  0  0  0
   56.9130   47.7933   89.0345 O   0  0  0  0  0  0  0  0  0  0  0  0
   56.6118   47.3752   86.8736 O   0  0  0  0  0  0  0  0  0  0  0  0
   56.8949   46.6949   88.1077 S   0  0  0  0  0  0  0  0  0  0  0  0
   59.0768   46.6167   87.8198 H   0  0  0  0  0  0  0  0  0  0  0  0
   58.3274   45.2084   87.3410 H   0  0  0  0  0  0  0  0  0  0  0  0
   50.8881   42.0137   89.5207 O   0  0  0  0  0  0  0  0  0  0  0  0
   50.1104   43.1665   89.2968 C   0  0  0  0  0  0  0  0  0  0  0  0
   48.7404   42.7615   88.7987 C   0  0  0  0  0  0  0  0  0  0  0  0
 10 13  1  0  0  0
  1  2  2  0  0  0
  1  6  1  0  0  0
  1  9  1  0  0  0
  2  3  1  0  0  0
  2  7  1  0  0  0
  3  4  2  0  0  0
  4  8  1  0  0  0
  4 16  1  0  0  0
 17 16  1  0  0  0
 17 18  1  0  0  0
 11 13  2  0  0  0
 12 13  2  0  0  0
 13  5  1  0  0  0
  5  6  2  0  0  0
  5  7  1  0  0  0
  8  9  2  0  0  0
 10 14  1  0  0  0
 10 15  1  0  0  0
M  END
> <minimizedAffinity>
-5.60261

$$$$
5TT3_EZL_A_303


 18 19  0  0  0  0  0  0  0  0999 V2000
   53.8854   45.1973   89.0767 C   0  0  0  0  0  0  0  0  0  0  0  0
   53.3340   43.9494   88.6616 C   0  0  0  0  0  0  0  0  0  0  0  0
   51.9600   43.8122   88.5227 C   0  0  0  0  0  0  0  0  0  0  0  0
   51.1191   44.8977   88.7910 C   0  0  0  0  0  0  0  0  0  0  0  0
   55.8026   43.7180   88.7669 C   0  0  0  0  0  0  0  0  0  0  0  0
   55.4619   45.0475   89.1433 N   0  0  0  0  0  0  0  0  0  0  0  0
   54.4986   42.9658   88.4474 S   0  0  0  0  0  0  0  0  0  0  0  0
   51.6640   46.1313   89.2024 C   0  0  0  0  0  0  0  0  0  0  0  0
   53.0481   46.2713   89.3416 C   0  0  0  0  0  0  0  0  0  0  0  0
   58.4141   44.7337   88.7468 N   0  0  0  0  0  0  0  0  0  0  0  0
   57.8911   42.4816   87.6865 O   0  0  0  0  0  0  0  0  0  0  0  0
   57.8880   42.5311   89.9074 O   0  0  0  0  0  0  0  0  0  0  0  0
   57.5364   43.3472   88.7776 S   0  0  0  0  0  0  0  0  0  0  0  0
   59.4085   44.5068   88.7533 H   0  0  0  0  0  0  0  0  0  0  0  0
   58.1885   45.2971   89.5666 H   0  0  0  0  0  0  0  0  0  0  0  0
   49.8584   44.3373   88.5329 O   0  0  0  0  0  0  0  0  0  0  0  0
   49.5602   43.2134   89.3279 C   0  0  0  0  0  0  0  0  0  0  0  0
   48.4470   42.4191   88.6806 C   0  0  0  0  0  0  0  0  0  0  0  0
 10 13  1  0  0  0
  1  2  2  0  0  0
  1  6  1  0  0  0
  1  9  1  0  0  0
  2  3  1  0  0  0
  2  7  1  0  0  0
  3  4  2  0  0  0
  4  8  1  0  0  0
  4 16  1  0  0  0
 17 16  1  0  0  0
 17 18  1  0  0  0
 11 13  2  0  0  0
 12 13  2  0  0  0
 13  5  1  0  0  0
  5  6  2  0  0  0
  5  7  1  0  0  0
  8  9  2  0  0  0
 10 14  1  0  0  0
 10 15  1  0  0  0
M  END
> <minimizedAffinity>
-5.43482

$$$$
