5QA8_JSX_A_301


 18 19  0  0  0  0  0  0  0  0999 V2000
   27.6491  -10.7061  -19.5472 C   0  0  0  0  0  0  0  0  0  0  0  0
   28.1295   -9.9175  -20.5883 C   0  0  0  0  0  0  0  0  0  0  0  0
   28.1831  -10.4031  -21.8955 C   0  0  0  0  0  0  0  0  0  0  0  0
   27.7388  -11.7029  -22.1384 C   0  0  0  0  0  0  0  0  0  0  0  0
   27.2609  -12.4927  -21.1077 C   0  0  0  0  0  0  0  0  0  0  0  0
   27.2158  -11.9988  -19.8177 C   0  0  0  0  0  0  0  0  0  0  0  0
   29.7903   -8.0141  -25.0673 C   0  0  0  0  0  0  0  0  0  0  0  0
   30.3391   -7.2779  -26.0781 O   0  0  0  0  0  0  0  0  0  0  0  0
   29.0290   -9.1351  -25.3580 C   0  0  0  0  0  0  0  0  0  0  0  0
   28.4980   -9.8935  -24.3302 C   0  0  0  0  0  0  0  0  0  0  0  0
   30.0057   -7.6542  -23.7459 C   0  0  0  0  0  0  0  0  0  0  0  0
   29.4708   -8.4197  -22.7265 C   0  0  0  0  0  0  0  0  0  0  0  0
   28.7134   -9.5575  -22.9949 C   0  0  0  0  0  0  0  0  0  0  0  0
   30.1916   -7.5237  -26.9702 H   0  0  0  0  0  0  0  0  0  0  0  0
   27.5950  -10.1559  -18.1437 C   0  0  0  0  0  0  0  0  0  0  0  0
   27.8675   -8.9402  -17.9825 O   0  0  0  0  0  0  0  0  0  0  0  0
   27.2796  -10.9440  -17.2187 O   0  0  0  0  0  0  0  0  0  0  0  0
   27.0886  -11.8407  -17.4120 H   0  0  0  0  0  0  0  0  0  0  0  0
  8  7  1  0  0  0
  9  7  2  0  0  0
  9 10  1  0  0  0
  7 11  1  0  0  0
 10 13  2  0  0  0
 11 12  2  0  0  0
 13 12  1  0  0  0
 13  3  1  0  0  0
  4  3  2  0  0  0
  4  5  1  0  0  0
  3  2  1  0  0  0
  5  6  2  0  0  0
  2  1  2  0  0  0
  6  1  1  0  0  0
  1 15  1  0  0  0
 15 16  2  0  0  0
 15 17  1  0  0  0
  8 14  1  0  0  0
 17 18  1  0  0  0
M  END
> <minimizedAffinity>
-7.66679

$$$$
5QA8_JSX_A_301


 18 19  0  0  0  0  0  0  0  0999 V2000
   30.2799   -9.5327  -24.3310 C   0  0  0  0  0  0  0  0  0  0  0  0
   29.8700   -9.7367  -23.0168 C   0  0  0  0  0  0  0  0  0  0  0  0
   28.6440  -10.3379  -22.7288 C   0  0  0  0  0  0  0  0  0  0  0  0
   27.8345  -10.7356  -23.7930 C   0  0  0  0  0  0  0  0  0  0  0  0
   28.2356  -10.5349  -25.1019 C   0  0  0  0  0  0  0  0  0  0  0  0
   29.4516   -9.9362  -25.3718 C   0  0  0  0  0  0  0  0  0  0  0  0
   27.4778  -10.9381  -18.6507 C   0  0  0  0  0  0  0  0  0  0  0  0
   27.1470  -11.1439  -17.3418 O   0  0  0  0  0  0  0  0  0  0  0  0
   28.0095   -9.7222  -19.0503 C   0  0  0  0  0  0  0  0  0  0  0  0
   28.3686   -9.5276  -20.3719 C   0  0  0  0  0  0  0  0  0  0  0  0
   27.2996  -11.9490  -19.5824 C   0  0  0  0  0  0  0  0  0  0  0  0
   27.6625  -11.7440  -20.9006 C   0  0  0  0  0  0  0  0  0  0  0  0
   28.2106  -10.5348  -21.3222 C   0  0  0  0  0  0  0  0  0  0  0  0
   27.2687  -10.4586  -16.7145 H   0  0  0  0  0  0  0  0  0  0  0  0
   31.6128   -8.8868  -24.6165 C   0  0  0  0  0  0  0  0  0  0  0  0
   31.6388   -7.9444  -25.4468 O   0  0  0  0  0  0  0  0  0  0  0  0
   32.6182   -9.3272  -24.0072 O   0  0  0  0  0  0  0  0  0  0  0  0
   32.5252  -10.0347  -23.3999 H   0  0  0  0  0  0  0  0  0  0  0  0
  8  7  1  0  0  0
  9  7  2  0  0  0
  9 10  1  0  0  0
  7 11  1  0  0  0
 10 13  2  0  0  0
 11 12  2  0  0  0
 13 12  1  0  0  0
 13  3  1  0  0  0
  4  3  2  0  0  0
  4  5  1  0  0  0
  3  2  1  0  0  0
  5  6  2  0  0  0
  2  1  2  0  0  0
  6  1  1  0  0  0
  1 15  1  0  0  0
 15 16  2  0  0  0
 15 17  1  0  0  0
  8 14  1  0  0  0
 17 18  1  0  0  0
M  END
> <minimizedAffinity>
-7.23688

$$$$
5QA8_JSX_A_301


 18 19  0  0  0  0  0  0  0  0999 V2000
   27.4956  -10.8173  -18.9857 C   0  0  0  0  0  0  0  0  0  0  0  0
   27.7098  -11.3575  -20.2502 C   0  0  0  0  0  0  0  0  0  0  0  0
   27.0926  -12.5466  -20.6405 C   0  0  0  0  0  0  0  0  0  0  0  0
   26.2484  -13.1846  -19.7315 C   0  0  0  0  0  0  0  0  0  0  0  0
   26.0318  -12.6535  -18.4723 C   0  0  0  0  0  0  0  0  0  0  0  0
   26.6518  -11.4760  -18.0992 C   0  0  0  0  0  0  0  0  0  0  0  0
   27.9001  -14.2232  -24.4990 C   0  0  0  0  0  0  0  0  0  0  0  0
   28.1988  -14.7666  -25.7157 O   0  0  0  0  0  0  0  0  0  0  0  0
   27.4130  -15.0262  -23.4798 C   0  0  0  0  0  0  0  0  0  0  0  0
   27.1377  -14.4765  -22.2407 C   0  0  0  0  0  0  0  0  0  0  0  0
   28.0982  -12.8700  -24.2719 C   0  0  0  0  0  0  0  0  0  0  0  0
   27.8203  -12.3312  -23.0294 C   0  0  0  0  0  0  0  0  0  0  0  0
   27.3423  -13.1215  -21.9867 C   0  0  0  0  0  0  0  0  0  0  0  0
   28.0638  -15.6816  -25.8661 H   0  0  0  0  0  0  0  0  0  0  0  0
   28.1692   -9.5270  -18.5898 C   0  0  0  0  0  0  0  0  0  0  0  0
   29.0229   -9.0486  -19.3776 O   0  0  0  0  0  0  0  0  0  0  0  0
   27.8368   -9.0053  -17.4973 O   0  0  0  0  0  0  0  0  0  0  0  0
   27.1911   -9.4182  -16.9583 H   0  0  0  0  0  0  0  0  0  0  0  0
  8  7  1  0  0  0
  9  7  2  0  0  0
  9 10  1  0  0  0
  7 11  1  0  0  0
 10 13  2  0  0  0
 11 12  2  0  0  0
 13 12  1  0  0  0
 13  3  1  0  0  0
  4  3  2  0  0  0
  4  5  1  0  0  0
  3  2  1  0  0  0
  5  6  2  0  0  0
  2  1  2  0  0  0
  6  1  1  0  0  0
  1 15  1  0  0  0
 15 16  2  0  0  0
 15 17  1  0  0  0
  8 14  1  0  0  0
 17 18  1  0  0  0
M  END
> <minimizedAffinity>
-6.62824

$$$$
5QA8_JSX_A_301


 18 19  0  0  0  0  0  0  0  0999 V2000
   28.4416  -10.2193  -24.7088 C   0  0  0  0  0  0  0  0  0  0  0  0
   28.0959  -10.6012  -23.4160 C   0  0  0  0  0  0  0  0  0  0  0  0
   28.4057   -9.7962  -22.3190 C   0  0  0  0  0  0  0  0  0  0  0  0
   29.0705   -8.5914  -22.5477 C   0  0  0  0  0  0  0  0  0  0  0  0
   29.4180   -8.2061  -23.8304 C   0  0  0  0  0  0  0  0  0  0  0  0
   29.1063   -9.0148  -24.9069 C   0  0  0  0  0  0  0  0  0  0  0  0
   27.2868  -10.9852  -18.3585 C   0  0  0  0  0  0  0  0  0  0  0  0
   26.8908  -11.3445  -17.1019 O   0  0  0  0  0  0  0  0  0  0  0  0
   27.0195  -11.8154  -19.4356 C   0  0  0  0  0  0  0  0  0  0  0  0
   27.3982  -11.4346  -20.7103 C   0  0  0  0  0  0  0  0  0  0  0  0
   27.9425   -9.7814  -18.5656 C   0  0  0  0  0  0  0  0  0  0  0  0
   28.3159   -9.4104  -19.8440 C   0  0  0  0  0  0  0  0  0  0  0  0
   28.0462  -10.2228  -20.9429 C   0  0  0  0  0  0  0  0  0  0  0  0
   26.4478  -12.1588  -16.9652 H   0  0  0  0  0  0  0  0  0  0  0  0
   28.0895  -11.1037  -25.8790 C   0  0  0  0  0  0  0  0  0  0  0  0
   27.6314  -10.5521  -26.9105 O   0  0  0  0  0  0  0  0  0  0  0  0
   28.2759  -12.3390  -25.7548 O   0  0  0  0  0  0  0  0  0  0  0  0
   28.6218  -12.6825  -24.9546 H   0  0  0  0  0  0  0  0  0  0  0  0
  8  7  1  0  0  0
  9  7  2  0  0  0
  9 10  1  0  0  0
  7 11  1  0  0  0
 10 13  2  0  0  0
 11 12  2  0  0  0
 13 12  1  0  0  0
 13  3  1  0  0  0
  4  3  2  0  0  0
  4  5  1  0  0  0
  3  2  1  0  0  0
  5  6  2  0  0  0
  2  1  2  0  0  0
  6  1  1  0  0  0
  1 15  1  0  0  0
 15 16  2  0  0  0
 15 17  1  0  0  0
  8 14  1  0  0  0
 17 18  1  0  0  0
M  END
> <minimizedAffinity>
-6.61719

$$$$
5QA8_JSX_A_301


 18 19  0  0  0  0  0  0  0  0999 V2000
   25.8506  -10.6989  -20.9673 C   0  0  0  0  0  0  0  0  0  0  0  0
   26.5243  -10.2739  -22.1085 C   0  0  0  0  0  0  0  0  0  0  0  0
   27.8235   -9.7703  -22.0336 C   0  0  0  0  0  0  0  0  0  0  0  0
   28.4377   -9.7045  -20.7828 C   0  0  0  0  0  0  0  0  0  0  0  0
   27.7733  -10.1245  -19.6441 C   0  0  0  0  0  0  0  0  0  0  0  0
   26.4859  -10.6191  -19.7337 C   0  0  0  0  0  0  0  0  0  0  0  0
   29.9211   -8.4789  -25.5383 C   0  0  0  0  0  0  0  0  0  0  0  0
   30.6238   -8.0933  -26.6440 O   0  0  0  0  0  0  0  0  0  0  0  0
   29.1006   -9.5946  -25.5904 C   0  0  0  0  0  0  0  0  0  0  0  0
   28.4120   -9.9974  -24.4603 C   0  0  0  0  0  0  0  0  0  0  0  0
   30.0379   -7.7670  -24.3544 C   0  0  0  0  0  0  0  0  0  0  0  0
   29.3456   -8.1789  -23.2308 C   0  0  0  0  0  0  0  0  0  0  0  0
   28.5254   -9.3045  -23.2564 C   0  0  0  0  0  0  0  0  0  0  0  0
   30.5427   -8.5765  -27.4427 H   0  0  0  0  0  0  0  0  0  0  0  0
   24.4490  -11.2459  -21.0754 C   0  0  0  0  0  0  0  0  0  0  0  0
   24.2072  -12.3460  -20.5191 O   0  0  0  0  0  0  0  0  0  0  0  0
   23.6053  -10.5697  -21.7135 O   0  0  0  0  0  0  0  0  0  0  0  0
   23.8558   -9.7555  -22.1038 H   0  0  0  0  0  0  0  0  0  0  0  0
  8  7  1  0  0  0
  9  7  2  0  0  0
  9 10  1  0  0  0
  7 11  1  0  0  0
 10 13  2  0  0  0
 11 12  2  0  0  0
 13 12  1  0  0  0
 13  3  1  0  0  0
  4  3  2  0  0  0
  4  5  1  0  0  0
  3  2  1  0  0  0
  5  6  2  0  0  0
  2  1  2  0  0  0
  6  1  1  0  0  0
  1 15  1  0  0  0
 15 16  2  0  0  0
 15 17  1  0  0  0
  8 14  1  0  0  0
 17 18  1  0  0  0
M  END
> <minimizedAffinity>
-6.58639

$$$$
5QA8_JSX_A_301


 18 19  0  0  0  0  0  0  0  0999 V2000
   29.0598   -9.3235  -23.2005 C   0  0  0  0  0  0  0  0  0  0  0  0
   28.5998   -9.6028  -21.9171 C   0  0  0  0  0  0  0  0  0  0  0  0
   28.0040  -10.8280  -21.6152 C   0  0  0  0  0  0  0  0  0  0  0  0
   27.8817  -11.7741  -22.6330 C   0  0  0  0  0  0  0  0  0  0  0  0
   28.3361  -11.5026  -23.9114 C   0  0  0  0  0  0  0  0  0  0  0  0
   28.9222  -10.2838  -24.1959 C   0  0  0  0  0  0  0  0  0  0  0  0
   26.4770  -11.5914  -17.6863 C   0  0  0  0  0  0  0  0  0  0  0  0
   25.9524  -11.8146  -16.4453 O   0  0  0  0  0  0  0  0  0  0  0  0
   26.2780  -12.5140  -18.7013 C   0  0  0  0  0  0  0  0  0  0  0  0
   26.7879  -12.2706  -19.9639 C   0  0  0  0  0  0  0  0  0  0  0  0
   27.1961  -10.4340  -17.9417 C   0  0  0  0  0  0  0  0  0  0  0  0
   27.7007  -10.2006  -19.2075 C   0  0  0  0  0  0  0  0  0  0  0  0
   27.5020  -11.1075  -20.2460 C   0  0  0  0  0  0  0  0  0  0  0  0
   25.4669  -12.5979  -16.2759 H   0  0  0  0  0  0  0  0  0  0  0  0
   29.7065   -7.9940  -23.5001 C   0  0  0  0  0  0  0  0  0  0  0  0
   30.1731   -7.8186  -24.6533 O   0  0  0  0  0  0  0  0  0  0  0  0
   29.7396   -7.1397  -22.5807 O   0  0  0  0  0  0  0  0  0  0  0  0
   29.3711   -7.3390  -21.7426 H   0  0  0  0  0  0  0  0  0  0  0  0
  8  7  1  0  0  0
  9  7  2  0  0  0
  9 10  1  0  0  0
  7 11  1  0  0  0
 10 13  2  0  0  0
 11 12  2  0  0  0
 13 12  1  0  0  0
 13  3  1  0  0  0
  4  3  2  0  0  0
  4  5  1  0  0  0
  3  2  1  0  0  0
  5  6  2  0  0  0
  2  1  2  0  0  0
  6  1  1  0  0  0
  1 15  1  0  0  0
 15 16  2  0  0  0
 15 17  1  0  0  0
  8 14  1  0  0  0
 17 18  1  0  0  0
M  END
> <minimizedAffinity>
-6.56634

$$$$
5QA8_JSX_A_301


 18 19  0  0  0  0  0  0  0  0999 V2000
   27.7993  -10.4415  -19.5642 C   0  0  0  0  0  0  0  0  0  0  0  0
   27.3806  -11.6337  -20.1474 C   0  0  0  0  0  0  0  0  0  0  0  0
   27.6162  -11.8981  -21.4971 C   0  0  0  0  0  0  0  0  0  0  0  0
   28.2876  -10.9373  -22.2534 C   0  0  0  0  0  0  0  0  0  0  0  0
   28.7057   -9.7494  -21.6802 C   0  0  0  0  0  0  0  0  0  0  0  0
   28.4634   -9.5007  -20.3425 C   0  0  0  0  0  0  0  0  0  0  0  0
   26.2090  -15.5107  -23.3194 C   0  0  0  0  0  0  0  0  0  0  0  0
   25.7319  -16.6382  -23.9243 O   0  0  0  0  0  0  0  0  0  0  0  0
   27.2583  -14.8071  -23.8894 C   0  0  0  0  0  0  0  0  0  0  0  0
   27.7202  -13.6504  -23.2876 C   0  0  0  0  0  0  0  0  0  0  0  0
   25.6358  -15.0548  -22.1423 C   0  0  0  0  0  0  0  0  0  0  0  0
   26.1049  -13.8971  -21.5498 C   0  0  0  0  0  0  0  0  0  0  0  0
   27.1497  -13.1669  -22.1116 C   0  0  0  0  0  0  0  0  0  0  0  0
   26.1215  -16.9437  -24.7198 H   0  0  0  0  0  0  0  0  0  0  0  0
   27.5386  -10.1820  -18.1013 C   0  0  0  0  0  0  0  0  0  0  0  0
   27.7342   -9.0180  -17.6711 O   0  0  0  0  0  0  0  0  0  0  0  0
   27.1402  -11.1434  -17.3991 O   0  0  0  0  0  0  0  0  0  0  0  0
   27.0156  -11.9871  -17.7873 H   0  0  0  0  0  0  0  0  0  0  0  0
  8  7  1  0  0  0
  9  7  2  0  0  0
  9 10  1  0  0  0
  7 11  1  0  0  0
 10 13  2  0  0  0
 11 12  2  0  0  0
 13 12  1  0  0  0
 13  3  1  0  0  0
  4  3  2  0  0  0
  4  5  1  0  0  0
  3  2  1  0  0  0
  5  6  2  0  0  0
  2  1  2  0  0  0
  6  1  1  0  0  0
  1 15  1  0  0  0
 15 16  2  0  0  0
 15 17  1  0  0  0
  8 14  1  0  0  0
 17 18  1  0  0  0
M  END
> <minimizedAffinity>
-6.47632

$$$$
5QA8_JSX_A_301


 18 19  0  0  0  0  0  0  0  0999 V2000
   25.6828  -10.9769  -19.0202 C   0  0  0  0  0  0  0  0  0  0  0  0
   26.7695  -10.6080  -19.8074 C   0  0  0  0  0  0  0  0  0  0  0  0
   26.6418  -10.4596  -21.1891 C   0  0  0  0  0  0  0  0  0  0  0  0
   25.3930  -10.6871  -21.7675 C   0  0  0  0  0  0  0  0  0  0  0  0
   24.3086  -11.0551  -20.9908 C   0  0  0  0  0  0  0  0  0  0  0  0
   24.4509  -11.2002  -19.6238 C   0  0  0  0  0  0  0  0  0  0  0  0
   29.9680   -9.3777  -23.6624 C   0  0  0  0  0  0  0  0  0  0  0  0
   31.0020   -9.0363  -24.4865 O   0  0  0  0  0  0  0  0  0  0  0  0
   29.1284   -8.3972  -23.1579 C   0  0  0  0  0  0  0  0  0  0  0  0
   28.0658   -8.7503  -22.3457 C   0  0  0  0  0  0  0  0  0  0  0  0
   29.7425  -10.7071  -23.3401 C   0  0  0  0  0  0  0  0  0  0  0  0
   28.6771  -11.0488  -22.5280 C   0  0  0  0  0  0  0  0  0  0  0  0
   27.8129  -10.0817  -22.0202 C   0  0  0  0  0  0  0  0  0  0  0  0
   31.1518   -8.1369  -24.7024 H   0  0  0  0  0  0  0  0  0  0  0  0
   25.8447  -11.1243  -17.5277 C   0  0  0  0  0  0  0  0  0  0  0  0
   24.8112  -11.0453  -16.8179 O   0  0  0  0  0  0  0  0  0  0  0  0
   27.0021  -11.3186  -17.0818 O   0  0  0  0  0  0  0  0  0  0  0  0
   27.7292  -11.3666  -17.6708 H   0  0  0  0  0  0  0  0  0  0  0  0
  8  7  1  0  0  0
  9  7  2  0  0  0
  9 10  1  0  0  0
  7 11  1  0  0  0
 10 13  2  0  0  0
 11 12  2  0  0  0
 13 12  1  0  0  0
 13  3  1  0  0  0
  4  3  2  0  0  0
  4  5  1  0  0  0
  3  2  1  0  0  0
  5  6  2  0  0  0
  2  1  2  0  0  0
  6  1  1  0  0  0
  1 15  1  0  0  0
 15 16  2  0  0  0
 15 17  1  0  0  0
  8 14  1  0  0  0
 17 18  1  0  0  0
M  END
> <minimizedAffinity>
-6.46097

$$$$
5QA8_JSX_A_301


 18 19  0  0  0  0  0  0  0  0999 V2000
   25.7423  -11.2026  -19.0038 C   0  0  0  0  0  0  0  0  0  0  0  0
   26.6485  -10.7504  -19.9584 C   0  0  0  0  0  0  0  0  0  0  0  0
   26.2444  -10.4833  -21.2670 C   0  0  0  0  0  0  0  0  0  0  0  0
   24.9035  -10.6773  -21.5993 C   0  0  0  0  0  0  0  0  0  0  0  0
   23.9975  -11.1276  -20.6554 C   0  0  0  0  0  0  0  0  0  0  0  0
   24.4129  -11.3900  -19.3637 C   0  0  0  0  0  0  0  0  0  0  0  0
   29.1380   -9.1845  -24.1465 C   0  0  0  0  0  0  0  0  0  0  0  0
   30.0914   -8.7936  -25.0427 O   0  0  0  0  0  0  0  0  0  0  0  0
   28.4289  -10.3572  -24.3533 C   0  0  0  0  0  0  0  0  0  0  0  0
   27.4834  -10.7634  -23.4289 C   0  0  0  0  0  0  0  0  0  0  0  0
   28.8865   -8.4200  -23.0177 C   0  0  0  0  0  0  0  0  0  0  0  0
   27.9397   -8.8357  -22.0999 C   0  0  0  0  0  0  0  0  0  0  0  0
   27.2243  -10.0172  -22.2806 C   0  0  0  0  0  0  0  0  0  0  0  0
   30.2590   -9.3125  -25.8046 H   0  0  0  0  0  0  0  0  0  0  0  0
   26.2025  -11.4779  -17.5939 C   0  0  0  0  0  0  0  0  0  0  0  0
   25.4718  -12.2015  -16.8723 O   0  0  0  0  0  0  0  0  0  0  0  0
   27.2890  -10.9693  -17.2239 O   0  0  0  0  0  0  0  0  0  0  0  0
   27.7837  -10.4384  -17.8167 H   0  0  0  0  0  0  0  0  0  0  0  0
  8  7  1  0  0  0
  9  7  2  0  0  0
  9 10  1  0  0  0
  7 11  1  0  0  0
 10 13  2  0  0  0
 11 12  2  0  0  0
 13 12  1  0  0  0
 13  3  1  0  0  0
  4  3  2  0  0  0
  4  5  1  0  0  0
  3  2  1  0  0  0
  5  6  2  0  0  0
  2  1  2  0  0  0
  6  1  1  0  0  0
  1 15  1  0  0  0
 15 16  2  0  0  0
 15 17  1  0  0  0
  8 14  1  0  0  0
 17 18  1  0  0  0
M  END
> <minimizedAffinity>
-6.41674

$$$$
5QA8_JSX_A_301


 18 19  0  0  0  0  0  0  0  0999 V2000
   23.4290  -12.8892  -21.2534 C   0  0  0  0  0  0  0  0  0  0  0  0
   24.4858  -11.9969  -21.0991 C   0  0  0  0  0  0  0  0  0  0  0  0
   25.7832  -12.3431  -21.4786 C   0  0  0  0  0  0  0  0  0  0  0  0
   25.9992  -13.6094  -22.0224 C   0  0  0  0  0  0  0  0  0  0  0  0
   24.9532  -14.5018  -22.1777 C   0  0  0  0  0  0  0  0  0  0  0  0
   23.6738  -14.1455  -21.7953 C   0  0  0  0  0  0  0  0  0  0  0  0
   28.9677   -9.5212  -20.9807 C   0  0  0  0  0  0  0  0  0  0  0  0
   29.9565   -8.5901  -20.8388 O   0  0  0  0  0  0  0  0  0  0  0  0
   28.0507   -9.7222  -19.9611 C   0  0  0  0  0  0  0  0  0  0  0  0
   27.0343  -10.6470  -20.1202 C   0  0  0  0  0  0  0  0  0  0  0  0
   28.8657  -10.2576  -22.1509 C   0  0  0  0  0  0  0  0  0  0  0  0
   27.8455  -11.1787  -22.2995 C   0  0  0  0  0  0  0  0  0  0  0  0
   26.9052  -11.3881  -21.2935 C   0  0  0  0  0  0  0  0  0  0  0  0
   30.0228   -8.0941  -20.0466 H   0  0  0  0  0  0  0  0  0  0  0  0
   22.0341  -12.4889  -20.8417 C   0  0  0  0  0  0  0  0  0  0  0  0
   21.1198  -13.3404  -20.9731 O   0  0  0  0  0  0  0  0  0  0  0  0
   21.8681  -11.3292  -20.3906 O   0  0  0  0  0  0  0  0  0  0  0  0
   22.5973  -10.7450  -20.3201 H   0  0  0  0  0  0  0  0  0  0  0  0
  8  7  1  0  0  0
  9  7  2  0  0  0
  9 10  1  0  0  0
  7 11  1  0  0  0
 10 13  2  0  0  0
 11 12  2  0  0  0
 13 12  1  0  0  0
 13  3  1  0  0  0
  4  3  2  0  0  0
  4  5  1  0  0  0
  3  2  1  0  0  0
  5  6  2  0  0  0
  2  1  2  0  0  0
  6  1  1  0  0  0
  1 15  1  0  0  0
 15 16  2  0  0  0
 15 17  1  0  0  0
  8 14  1  0  0  0
 17 18  1  0  0  0
M  END
> <minimizedAffinity>
-6.22893

$$$$
