5QA8_JSX_A_301
  RCSB PDB01131817383D
Coordinates from PDB:5QA8:A:301 Model:1 without hydrogens
 16 17  0  0  0  0            999 V2000
   28.1910  -14.2530  -23.7410   C 0  0  0  0  0  0  0  0  0  0  0  0
   28.9440  -14.8150  -24.7320   O 0  0  0  0  0  0  0  0  0  0  0  0
   27.9150  -12.8950  -23.7630   C 0  0  0  0  0  0  0  0  0  0  0  0
   25.3800  -11.6880  -18.4510   C 0  0  0  0  0  0  0  0  0  0  0  0
   25.9330  -11.3880  -17.0800   C 0  0  0  0  0  0  0  0  0  0  0  0
   26.2030  -12.2330  -19.4320   C 0  0  0  0  0  0  0  0  0  0  0  0
   27.1290  -12.3350  -22.7720   C 0  0  0  0  0  0  0  0  0  0  0  0
   27.6850  -15.0400  -22.7180   C 0  0  0  0  0  0  0  0  0  0  0  0
   26.9000  -14.4700  -21.7330   C 0  0  0  0  0  0  0  0  0  0  0  0
   26.5990  -13.1100  -21.7420   C 0  0  0  0  0  0  0  0  0  0  0  0
   25.7150  -12.5130  -20.7090   C 0  0  0  0  0  0  0  0  0  0  0  0
   24.3770  -12.2300  -20.9840   C 0  0  0  0  0  0  0  0  0  0  0  0
   23.5530  -11.6890  -20.0130   C 0  0  0  0  0  0  0  0  0  0  0  0
   24.0500  -11.4190  -18.7520   C 0  0  0  0  0  0  0  0  0  0  0  0
   27.1310  -11.0180  -17.0020   O 0  0  0  0  0  0  0  0  0  0  0  0
   25.1640  -11.5240  -16.0970   O 0  0  0  0  0  0  0  0  0  0  0  0
  2  1  1  0  0  0  0
  3  1  2  0  0  0  0
  3  7  1  0  0  0  0
  1  8  1  0  0  0  0
  7 10  2  0  0  0  0
  8  9  2  0  0  0  0
 10  9  1  0  0  0  0
 10 11  1  0  0  0  0
 12 11  2  0  0  0  0
 12 13  1  0  0  0  0
 11  6  1  0  0  0  0
 13 14  2  0  0  0  0
  6  4  2  0  0  0  0
 14  4  1  0  0  0  0
  4  5  1  0  0  0  0
  5 15  2  0  0  0  0
  5 16  1  0  0  0  0
A    1
C
A    2
O
A    3
C1
A    4
C10
A    5
C11
A    6
C12
A    7
C2
A    8
C3
A    9
C4
A   10
C5
A   11
C6
A   12
C7
A   13
C8
A   14
C9
A   15
O1
A   16
O2
M  END
>  <InstanceId>
5QA8_JSX_A_301

>  <ChemCompId>
JSX

>  <PdbId>
5QA8

>  <ChainId>
A

>  <ResidueNumber>
301

>  <InsertionCode>


>  <Model>
1

>  <AltIds>


>  <MissingHeavyAtoms>
0

>  <ObservedFormula>
C13 O3

>  <Name>
3-(4-hydroxyphenyl)benzoic acid

>  <SystematicName>
3-(4-hydroxyphenyl)benzoic acid

>  <Synonyms>


>  <Type>
NON-POLYMER

>  <Formula>
C13 H10 O3

>  <MolecularWeight>
214.217

>  <ModifiedDate>
2018-01-05

>  <Parent>


>  <OneLetterCode>


>  <SubcomponentList>


>  <AmbiguousFlag>
N

>  <InChI>
InChI=1S/C13H10O3/c14-12-6-4-9(5-7-12)10-2-1-3-11(8-10)13(15)16/h1-8,14H,(H,15,16)

>  <InChIKey>
WINNQOZTIDYENK-UHFFFAOYSA-N

>  <SMILES>
c1cc(cc(c1)C(=O)O)c2ccc(cc2)O

$$$$
