2XC4_IVK_A_1246
  RCSB PDB12061707243D
Coordinates from PDB:2XC4:A:1246 Model:1 without hydrogens
 37 40  0  0  0  0            999 V2000
   -3.9090   11.8950   24.8310   C 0  0  0  0  0  0  0  0  0  0  0  0
   -3.8030   12.0200   23.3060   C 0  0  0  0  0  0  0  0  0  0  0  0
   -4.7210   13.2440   23.0170   C 0  0  0  0  0  0  0  0  0  0  0  0
   -4.3020   14.1740   24.1020   N 0  0  0  0  0  0  0  0  0  0  0  0
   -3.8610   13.3480   25.2830   C 0  0  0  0  0  0  0  0  0  0  0  0
   -2.7400   11.0360   25.2640   C 0  0  0  0  0  0  0  0  0  0  0  0
   -4.1260   10.7380   22.5450   C 0  0  0  0  0  0  0  0  0  0  0  0
   -5.1580   10.7090   21.6840   N 0  0  0  0  0  0  0  0  0  0  0  0
   -3.4270    9.7120   22.6660   O 0  0  0  0  0  0  0  0  0  0  0  0
   -1.6090   11.2460   24.8610   O 0  0  0  0  0  0  0  0  0  0  0  0
   -3.0440   10.0840   26.1430   N 0  0  0  0  0  0  0  0  0  0  0  0
   -2.2850    9.0370   26.6440   C 0  0  0  0  0  0  0  0  0  0  0  0
   -0.9600    6.7770   27.4370   C 0  0  0  0  0  0  0  0  0  0  0  0
   -1.9990    7.2350   28.2140   C 0  0  0  0  0  0  0  0  0  0  0  0
   -0.5750    7.4530   26.2720   C 0  0  0  0  0  0  0  0  0  0  0  0
   -2.6990    8.3530   27.7940   C 0  0  0  0  0  0  0  0  0  0  0  0
   -0.0750    5.3720   27.9200  Cl 0  0  0  0  0  0  0  0  0  0  0  0
   -5.4960    9.5860   20.8900   C 0  0  0  0  0  0  0  0  0  0  0  0
   -6.7340    8.9570   20.9530   C 0  0  0  0  0  0  0  0  0  0  0  0
   -6.0800    7.4370   19.1720   C 0  0  0  0  0  0  0  0  0  0  0  0
   -4.8520    8.0840   19.0950   C 0  0  0  0  0  0  0  0  0  0  0  0
   -7.0080    7.8860   20.1100   C 0  0  0  0  0  0  0  0  0  0  0  0
   -4.5690    9.1370   19.9500   C 0  0  0  0  0  0  0  0  0  0  0  0
   -6.3720    6.3640   18.2930   N 0  0  0  0  0  0  0  0  0  0  0  0
   -6.2610    5.0650   18.6570   C 0  0  0  0  0  0  0  0  0  0  0  0
   -6.9000    4.3420   16.4650   C 0  0  0  0  0  0  0  0  0  0  0  0
   -7.0400    5.6510   16.1050   C 0  0  0  0  0  0  0  0  0  0  0  0
   -6.4940    4.0550   17.7840   C 0  0  0  0  0  0  0  0  0  0  0  0
   -6.7570    6.6650   17.0250   C 0  0  0  0  0  0  0  0  0  0  0  0
   -6.8420    7.8290   16.6640   O 0  0  0  0  0  0  0  0  0  0  0  0
   -3.3820    9.7880   19.8760   F 0  0  0  0  0  0  0  0  0  0  0  0
   -5.3490   15.1010   24.5290   C 0  0  0  0  0  0  0  0  0  0  0  0
   -4.6260   16.2930   25.1560   C 0  0  0  0  0  0  0  0  0  0  0  0
   -5.5370   17.3350   25.3690   F 0  0  0  0  0  0  0  0  0  0  0  0
   -3.6040   16.7060   24.3030   F 0  0  0  0  0  0  0  0  0  0  0  0
   -4.0480   15.9250   26.3800   F 0  0  0  0  0  0  0  0  0  0  0  0
   -1.2620    8.5660   25.8520   C 0  0  0  0  0  0  0  0  0  0  0  0
  1  2  1  0  0  0  0
  1  5  1  0  0  0  0
  1  6  1  0  0  0  0
  2  3  1  0  0  0  0
  2  7  1  0  0  0  0
  3  4  1  0  0  0  0
  4  5  1  0  0  0  0
  4 32  1  0  0  0  0
  6 10  2  0  0  0  0
  6 11  1  0  0  0  0
  7  8  1  0  0  0  0
  7  9  2  0  0  0  0
  8 18  1  0  0  0  0
 11 12  1  0  0  0  0
 12 16  1  0  0  0  0
 12 37  2  0  0  0  0
 13 14  1  0  0  0  0
 13 15  2  0  0  0  0
 13 17  1  0  0  0  0
 14 16  2  0  0  0  0
 15 37  1  0  0  0  0
 18 19  1  0  0  0  0
 18 23  2  0  0  0  0
 19 22  2  0  0  0  0
 20 21  2  0  0  0  0
 20 22  1  0  0  0  0
 20 24  1  0  0  0  0
 21 23  1  0  0  0  0
 23 31  1  0  0  0  0
 24 25  1  0  0  0  0
 24 29  1  0  0  0  0
 25 28  2  0  0  0  0
 26 27  2  0  0  0  0
 26 28  1  0  0  0  0
 27 29  1  0  0  0  0
 29 30  2  0  0  0  0
 32 33  1  0  0  0  0
 33 34  1  0  0  0  0
 33 35  1  0  0  0  0
 33 36  1  0  0  0  0
A    1
C1
A    2
C2
A    3
C3
A    4
N4
A    5
C5
A    6
C6
A    7
C7
A    8
N8
A    9
O9
A   10
O10
A   11
N11
A   12
C12
A   13
C14
A   14
C15
A   15
C16
A   16
C17
A   17
CL1
A   18
C19
A   19
C20
A   20
C21
A   21
C22
A   22
C23
A   23
C24
A   24
N25
A   25
C26
A   26
C27
A   27
C28
A   28
C29
A   29
C30
A   30
O31
A   31
F32
A   32
C33
A   33
C34
A   34
F35
A   35
F36
A   36
F30
A   37
C35
M  END
>  <InstanceId>
2XC4_IVK_A_1246

>  <ChemCompId>
IVK

>  <PdbId>
2XC4

>  <ChainId>
A

>  <ResidueNumber>
1246

>  <InsertionCode>


>  <Model>
1

>  <AltIds>


>  <MissingHeavyAtoms>
0

>  <ObservedFormula>
C25 N4 O3 F4 Cl

>  <Name>
(3R,4R)-N-(4-CHLOROPHENYL)-N'-[2-FLUORO-4-(2-OXOPYRIDIN-1(2H)-YL)PHENYL]-1-(2,2,2-TRIFLUOROETHYL)PYRROLIDINE-3,4-DICARBOXAMIDE

>  <SystematicName>
(1S,3R,4R)-N'-(4-chlorophenyl)-N-[2-fluoro-4-(2-oxopyridin-1-yl)phenyl]-1-(2,2,2-trifluoroethyl)pyrrolidine-3,4-dicarboxamide

>  <Synonyms>


>  <Type>
NON-POLYMER

>  <Formula>
C25 H21 Cl F4 N4 O3

>  <MolecularWeight>
536.906

>  <ModifiedDate>
2011-06-04

>  <Parent>


>  <OneLetterCode>


>  <SubcomponentList>


>  <AmbiguousFlag>
N

>  <InChI>
InChI=1S/C25H21ClF4N4O3/c26-15-4-6-16(7-5-15)31-23(36)18-12-33(14-25(28,29)30)13-19(18)24(37)32-21-9-8-17(11-20(21)27)34-10-2-1-3-22(34)35/h1-11,18-19H,12-14H2,(H,31,36)(H,32,37)/t18-,19-/m0/s1

>  <InChIKey>
TYMJFUUUNPEDQB-OALUTQOASA-N

>  <SMILES>
c1cc(ccc1NC(=O)[C@H]2C[N@@](C[C@@H]2C(=O)Nc3ccc(cc3F)N4C=CC=CC4=O)CC(F)(F)F)Cl

$$$$
