1BWB_146_B_641


 68 76  0  0  0  0  0  0  0  0999 V2000
   -8.9829   15.5752   27.8525 C   0  0  0  0  0  0  0  0  0  0  0  0
   -8.9063   17.9245   26.9843 C   0  0  0  0  0  0  0  0  0  0  0  0
  -10.3244   18.4493   27.1022 C   0  0  0  0  0  0  0  0  0  0  0  0
  -10.8524   18.1599   28.4891 C   0  0  0  0  0  0  0  0  0  0  0  0
  -11.0977   16.6796   28.6400 C   0  0  0  0  0  0  0  0  0  0  0  0
   -8.7282   16.4661   26.8575 N   0  0  0  0  0  0  0  0  0  0  0  0
   -9.9139   15.7992   28.8033 N   0  0  0  0  0  0  0  0  0  0  0  0
   -8.3498   14.5288   27.8920 O   0  0  0  0  0  0  0  0  0  0  0  0
  -10.2538   19.8371   26.8785 O   0  0  0  0  0  0  0  0  0  0  0  0
  -12.0853   18.7822   28.6870 O   0  0  0  0  0  0  0  0  0  0  0  0
   -9.6534   20.2388   27.5258 H   0  0  0  0  0  0  0  0  0  0  0  0
  -12.7255   18.4439   28.0415 H   0  0  0  0  0  0  0  0  0  0  0  0
   -7.9829   16.0108   25.6727 C   0  0  0  0  0  0  0  0  0  0  0  0
   -8.5953   16.3338   24.3225 C   0  0  0  0  0  0  0  0  0  0  0  0
   -7.7509   16.7241   23.2733 C   0  0  0  0  0  0  0  0  0  0  0  0
   -8.2864   16.9487   21.9920 C   0  0  0  0  0  0  0  0  0  0  0  0
   -9.6619   16.8019   21.7663 C   0  0  0  0  0  0  0  0  0  0  0  0
  -10.5180   16.4214   22.8140 C   0  0  0  0  0  0  0  0  0  0  0  0
   -9.9800   16.1888   24.0923 C   0  0  0  0  0  0  0  0  0  0  0  0
   -7.3991   17.3055   20.8438 C   0  0  0  0  0  0  0  0  0  0  0  0
   -6.2967   16.5409   20.7575 N   0  0  0  0  0  0  0  0  0  0  0  0
   -7.6630   18.1770   20.0345 O   0  0  0  0  0  0  0  0  0  0  0  0
   -6.0686   15.9845   21.5370 H   0  0  0  0  0  0  0  0  0  0  0  0
   -5.4056   16.4704   19.5917 C   0  0  0  0  0  0  0  0  0  0  0  0
   -4.4766   16.6382   16.1336 C   0  0  0  0  0  0  0  0  0  0  0  0
   -3.2460   16.1903   15.6108 C   0  0  0  0  0  0  0  0  0  0  0  0
   -2.2465   15.6323   16.4413 C   0  0  0  0  0  0  0  0  0  0  0  0
   -2.4406   15.5005   17.8276 C   0  0  0  0  0  0  0  0  0  0  0  0
   -3.6542   15.9333   18.3950 C   0  0  0  0  0  0  0  0  0  0  0  0
   -4.7106   16.5209   17.5191 C   0  0  0  0  0  0  0  0  0  0  0  0
   -5.7591   16.8287   18.3418 N   0  0  0  0  0  0  0  0  0  0  0  0
   -4.1659   15.9415   19.6660 N   0  0  0  0  0  0  0  0  0  0  0  0
   -6.6133   17.2364   18.0711 H   0  0  0  0  0  0  0  0  0  0  0  0
   -9.9058   14.9347   29.9870 C   0  0  0  0  0  0  0  0  0  0  0  0
   -9.7821   15.6393   31.3122 C   0  0  0  0  0  0  0  0  0  0  0  0
  -10.5783   15.1753   32.3701 C   0  0  0  0  0  0  0  0  0  0  0  0
  -10.4567   15.7753   33.6441 C   0  0  0  0  0  0  0  0  0  0  0  0
   -9.5287   16.8187   33.8590 C   0  0  0  0  0  0  0  0  0  0  0  0
   -8.7250   17.2805   32.7963 C   0  0  0  0  0  0  0  0  0  0  0  0
   -8.8607   16.6965   31.5232 C   0  0  0  0  0  0  0  0  0  0  0  0
  -11.3397   15.3382   34.7701 C   0  0  0  0  0  0  0  0  0  0  0  0
  -11.4556   14.0016   34.9183 N   0  0  0  0  0  0  0  0  0  0  0  0
  -11.8897   16.1291   35.5154 O   0  0  0  0  0  0  0  0  0  0  0  0
  -11.1245   13.4217   34.1948 H   0  0  0  0  0  0  0  0  0  0  0  0
  -12.0532   13.3630   36.1090 C   0  0  0  0  0  0  0  0  0  0  0  0
  -13.0228   10.5621   38.1476 C   0  0  0  0  0  0  0  0  0  0  0  0
  -14.1515   10.5279   39.0027 C   0  0  0  0  0  0  0  0  0  0  0  0
  -14.9969   11.6580   39.1544 C   0  0  0  0  0  0  0  0  0  0  0  0
  -14.7395   12.8643   38.4559 C   0  0  0  0  0  0  0  0  0  0  0  0
  -13.6183   12.9341   37.5815 C   0  0  0  0  0  0  0  0  0  0  0  0
  -12.7360   11.7387   37.4262 C   0  0  0  0  0  0  0  0  0  0  0  0
  -11.7920   12.0944   36.5073 N   0  0  0  0  0  0  0  0  0  0  0  0
  -13.1099   13.8993   36.7347 N   0  0  0  0  0  0  0  0  0  0  0  0
  -13.4590   14.8117   36.6132 H   0  0  0  0  0  0  0  0  0  0  0  0
   -7.8980   18.4745   28.0345 C   0  0  0  0  0  0  0  0  0  0  0  0
   -6.4951   18.6829   27.4997 C   0  0  0  0  0  0  0  0  0  0  0  0
   -6.2819   19.3465   26.2655 C   0  0  0  0  0  0  0  0  0  0  0  0
   -4.9599   19.5731   25.8068 C   0  0  0  0  0  0  0  0  0  0  0  0
   -3.8517   19.1348   26.5759 C   0  0  0  0  0  0  0  0  0  0  0  0
   -4.0646   18.4692   27.8065 C   0  0  0  0  0  0  0  0  0  0  0  0
   -5.3865   18.2426   28.2652 C   0  0  0  0  0  0  0  0  0  0  0  0
  -12.0530   16.0749   27.5827 C   0  0  0  0  0  0  0  0  0  0  0  0
  -12.8921   14.9239   28.0896 C   0  0  0  0  0  0  0  0  0  0  0  0
  -13.8845   15.1685   29.0785 C   0  0  0  0  0  0  0  0  0  0  0  0
  -14.6087   14.0846   29.6165 C   0  0  0  0  0  0  0  0  0  0  0  0
  -14.3445   12.7757   29.1550 C   0  0  0  0  0  0  0  0  0  0  0  0
  -13.3700   12.5374   28.1622 C   0  0  0  0  0  0  0  0  0  0  0  0
  -12.6370   13.6083   27.6228 C   0  0  0  0  0  0  0  0  0  0  0  0
  1  6  1  0  0  0
  1  7  1  0  0  0
  1  8  2  0  0  0
 13 14  1  0  0  0
 13  6  1  0  0  0
  2  3  1  0  0  0
  2 55  1  0  0  0
  2  6  1  0  0  0
  3  4  1  0  0  0
  3  9  1  0  0  0
  4  5  1  0  0  0
  4 10  1  0  0  0
  5 62  1  0  0  0
  5  7  1  0  0  0
 34 35  1  0  0  0
 34  7  1  0  0  0
 14 15  2  0  0  0
 14 19  1  0  0  0
 15 16  1  0  0  0
 16 17  2  0  0  0
 16 20  1  0  0  0
 17 18  1  0  0  0
 18 19  2  0  0  0
 20 21  1  0  0  0
 20 22  2  0  0  0
 24 21  1  0  0  0
 24 31  1  0  0  0
 24 32  2  0  0  0
 25 26  1  0  0  0
 25 30  2  0  0  0
 26 27  2  0  0  0
 27 28  1  0  0  0
 28 29  2  0  0  0
 29 30  1  0  0  0
 29 32  1  0  0  0
 30 31  1  0  0  0
 55 56  1  0  0  0
 56 57  2  0  0  0
 56 61  1  0  0  0
 57 58  1  0  0  0
 58 59  2  0  0  0
 59 60  1  0  0  0
 60 61  2  0  0  0
 62 63  1  0  0  0
 63 64  2  0  0  0
 63 68  1  0  0  0
 64 65  1  0  0  0
 65 66  2  0  0  0
 66 67  1  0  0  0
 67 68  2  0  0  0
 35 36  2  0  0  0
 35 40  1  0  0  0
 36 37  1  0  0  0
 37 38  2  0  0  0
 37 41  1  0  0  0
 38 39  1  0  0  0
 39 40  2  0  0  0
 41 42  1  0  0  0
 41 43  2  0  0  0
 45 42  1  0  0  0
 45 52  2  0  0  0
 45 53  1  0  0  0
 46 47  2  0  0  0
 46 51  1  0  0  0
 47 48  1  0  0  0
 48 49  2  0  0  0
 49 50  1  0  0  0
 50 51  2  0  0  0
 50 53  1  0  0  0
 51 52  1  0  0  0
 21 23  1  0  0  0
 31 33  1  0  0  0
 42 44  1  0  0  0
 53 54  1  0  0  0
  9 11  1  0  0  0
 10 12  1  0  0  0
M  END
> <minimizedAffinity>
-15.18938

$$$$
1BWB_146_B_641


 68 76  0  0  0  0  0  0  0  0999 V2000
   -8.9621   15.6083   27.8486 C   0  0  0  0  0  0  0  0  0  0  0  0
  -11.0349   16.7091   28.7264 C   0  0  0  0  0  0  0  0  0  0  0  0
  -10.7917   18.2005   28.5946 C   0  0  0  0  0  0  0  0  0  0  0  0
  -10.2915   18.5056   27.2007 C   0  0  0  0  0  0  0  0  0  0  0  0
   -8.8846   17.9863   27.0416 C   0  0  0  0  0  0  0  0  0  0  0  0
   -9.8538   15.8348   28.8497 N   0  0  0  0  0  0  0  0  0  0  0  0
   -8.7054   16.5208   26.8882 N   0  0  0  0  0  0  0  0  0  0  0  0
   -8.3655   14.5406   27.8122 O   0  0  0  0  0  0  0  0  0  0  0  0
  -12.0311   18.8264   28.8243 O   0  0  0  0  0  0  0  0  0  0  0  0
  -10.2252   19.8833   26.9914 O   0  0  0  0  0  0  0  0  0  0  0  0
  -12.6827   18.4978   28.1852 H   0  0  0  0  0  0  0  0  0  0  0  0
   -9.6091   20.2778   27.6284 H   0  0  0  0  0  0  0  0  0  0  0  0
   -9.8157   14.9713   30.0410 C   0  0  0  0  0  0  0  0  0  0  0  0
   -9.7738   15.6740   31.3852 C   0  0  0  0  0  0  0  0  0  0  0  0
  -10.6157   15.2211   32.4112 C   0  0  0  0  0  0  0  0  0  0  0  0
  -10.5353   15.8034   33.6892 C   0  0  0  0  0  0  0  0  0  0  0  0
   -9.6309   16.8458   33.9342 C   0  0  0  0  0  0  0  0  0  0  0  0
   -8.7905   17.3139   32.9096 C   0  0  0  0  0  0  0  0  0  0  0  0
   -8.8658   16.7249   31.6348 C   0  0  0  0  0  0  0  0  0  0  0  0
  -11.3779   15.2973   34.8148 C   0  0  0  0  0  0  0  0  0  0  0  0
  -11.4542   13.9563   34.8694 N   0  0  0  0  0  0  0  0  0  0  0  0
  -11.9138   16.0229   35.6336 O   0  0  0  0  0  0  0  0  0  0  0  0
  -11.1451   13.4520   34.0824 H   0  0  0  0  0  0  0  0  0  0  0  0
  -11.9624   13.1839   36.0112 C   0  0  0  0  0  0  0  0  0  0  0  0
  -13.6256   12.6218   39.1364 C   0  0  0  0  0  0  0  0  0  0  0  0
  -13.5664   11.4203   39.8720 C   0  0  0  0  0  0  0  0  0  0  0  0
  -12.8305   10.3040   39.4111 C   0  0  0  0  0  0  0  0  0  0  0  0
  -12.1246   10.3478   38.1959 C   0  0  0  0  0  0  0  0  0  0  0  0
  -12.1538   11.5268   37.4271 C   0  0  0  0  0  0  0  0  0  0  0  0
  -12.9289   12.7063   37.9135 C   0  0  0  0  0  0  0  0  0  0  0  0
  -12.7586   13.6866   36.9750 N   0  0  0  0  0  0  0  0  0  0  0  0
  -11.5874   11.9075   36.2391 N   0  0  0  0  0  0  0  0  0  0  0  0
  -13.1458   14.5915   36.9992 H   0  0  0  0  0  0  0  0  0  0  0  0
   -7.9682   16.0774   25.7014 C   0  0  0  0  0  0  0  0  0  0  0  0
   -8.6453   16.3242   24.3792 C   0  0  0  0  0  0  0  0  0  0  0  0
   -7.8376   16.7112   23.2993 C   0  0  0  0  0  0  0  0  0  0  0  0
   -8.4252   16.9041   22.0283 C   0  0  0  0  0  0  0  0  0  0  0  0
   -9.8089   16.6904   21.8388 C   0  0  0  0  0  0  0  0  0  0  0  0
  -10.6188   16.2962   22.9237 C   0  0  0  0  0  0  0  0  0  0  0  0
  -10.0369   16.1237   24.1933 C   0  0  0  0  0  0  0  0  0  0  0  0
   -7.5937   17.3768   20.8778 C   0  0  0  0  0  0  0  0  0  0  0  0
   -6.3792   16.7966   20.7754 N   0  0  0  0  0  0  0  0  0  0  0  0
   -7.9939   18.2021   20.0765 O   0  0  0  0  0  0  0  0  0  0  0  0
   -6.0509   16.2646   21.5360 H   0  0  0  0  0  0  0  0  0  0  0  0
   -5.5168   16.9178   19.5820 C   0  0  0  0  0  0  0  0  0  0  0  0
   -2.5618   16.2742   17.6339 C   0  0  0  0  0  0  0  0  0  0  0  0
   -1.9847   17.1754   16.7058 C   0  0  0  0  0  0  0  0  0  0  0  0
   -2.5771   18.4367   16.4358 C   0  0  0  0  0  0  0  0  0  0  0  0
   -3.7713   18.8390   17.0849 C   0  0  0  0  0  0  0  0  0  0  0  0
   -4.3765   17.9629   18.0298 C   0  0  0  0  0  0  0  0  0  0  0  0
   -3.7441   16.6388   18.3094 C   0  0  0  0  0  0  0  0  0  0  0  0
   -4.5177   16.0568   19.2711 N   0  0  0  0  0  0  0  0  0  0  0  0
   -5.4793   18.0441   18.8570 N   0  0  0  0  0  0  0  0  0  0  0  0
   -6.1192   18.7908   18.9051 H   0  0  0  0  0  0  0  0  0  0  0  0
  -12.0204   16.0960   27.6896 C   0  0  0  0  0  0  0  0  0  0  0  0
  -12.7838   14.8886   28.1963 C   0  0  0  0  0  0  0  0  0  0  0  0
  -13.8939   15.0453   29.0635 C   0  0  0  0  0  0  0  0  0  0  0  0
  -14.6230   13.9060   29.4873 C   0  0  0  0  0  0  0  0  0  0  0  0
  -14.2431   12.6112   29.0503 C   0  0  0  0  0  0  0  0  0  0  0  0
  -13.1327   12.4543   28.1872 C   0  0  0  0  0  0  0  0  0  0  0  0
  -12.4036   13.5936   27.7633 C   0  0  0  0  0  0  0  0  0  0  0  0
   -7.8776   18.5264   28.0858 C   0  0  0  0  0  0  0  0  0  0  0  0
   -6.4798   18.7374   27.5497 C   0  0  0  0  0  0  0  0  0  0  0  0
   -6.3057   19.3849   26.2955 C   0  0  0  0  0  0  0  0  0  0  0  0
   -5.0101   19.5055   25.7518 C   0  0  0  0  0  0  0  0  0  0  0  0
   -3.9059   18.9921   26.4682 C   0  0  0  0  0  0  0  0  0  0  0  0
   -4.0797   18.3638   27.7200 C   0  0  0  0  0  0  0  0  0  0  0  0
   -5.3664   18.2315   28.2696 C   0  0  0  0  0  0  0  0  0  0  0  0
  1  6  1  0  0  0
  1  7  1  0  0  0
  1  8  2  0  0  0
 13 14  1  0  0  0
 13  6  1  0  0  0
  2  3  1  0  0  0
  2 55  1  0  0  0
  2  6  1  0  0  0
  3  4  1  0  0  0
  3  9  1  0  0  0
  4  5  1  0  0  0
  4 10  1  0  0  0
  5 62  1  0  0  0
  5  7  1  0  0  0
 34 35  1  0  0  0
 34  7  1  0  0  0
 14 15  2  0  0  0
 14 19  1  0  0  0
 15 16  1  0  0  0
 16 17  2  0  0  0
 16 20  1  0  0  0
 17 18  1  0  0  0
 18 19  2  0  0  0
 20 21  1  0  0  0
 20 22  2  0  0  0
 24 21  1  0  0  0
 24 31  1  0  0  0
 24 32  2  0  0  0
 25 26  1  0  0  0
 25 30  2  0  0  0
 26 27  2  0  0  0
 27 28  1  0  0  0
 28 29  2  0  0  0
 29 30  1  0  0  0
 29 32  1  0  0  0
 30 31  1  0  0  0
 55 56  1  0  0  0
 56 57  2  0  0  0
 56 61  1  0  0  0
 57 58  1  0  0  0
 58 59  2  0  0  0
 59 60  1  0  0  0
 60 61  2  0  0  0
 62 63  1  0  0  0
 63 64  2  0  0  0
 63 68  1  0  0  0
 64 65  1  0  0  0
 65 66  2  0  0  0
 66 67  1  0  0  0
 67 68  2  0  0  0
 35 36  2  0  0  0
 35 40  1  0  0  0
 36 37  1  0  0  0
 37 38  2  0  0  0
 37 41  1  0  0  0
 38 39  1  0  0  0
 39 40  2  0  0  0
 41 42  1  0  0  0
 41 43  2  0  0  0
 45 42  1  0  0  0
 45 52  2  0  0  0
 45 53  1  0  0  0
 46 47  2  0  0  0
 46 51  1  0  0  0
 47 48  1  0  0  0
 48 49  2  0  0  0
 49 50  1  0  0  0
 50 51  2  0  0  0
 50 53  1  0  0  0
 51 52  1  0  0  0
 21 23  1  0  0  0
 31 33  1  0  0  0
 42 44  1  0  0  0
 53 54  1  0  0  0
  9 11  1  0  0  0
 10 12  1  0  0  0
M  END
> <minimizedAffinity>
-15.15030

$$$$
1BWB_146_B_641


 68 76  0  0  0  0  0  0  0  0999 V2000
   -8.8646   15.5785   27.7676 C   0  0  0  0  0  0  0  0  0  0  0  0
   -8.9063   18.0042   27.1406 C   0  0  0  0  0  0  0  0  0  0  0  0
  -10.3516   18.4393   27.2899 C   0  0  0  0  0  0  0  0  0  0  0  0
  -10.8760   17.9841   28.6330 C   0  0  0  0  0  0  0  0  0  0  0  0
  -11.0428   16.4852   28.6310 C   0  0  0  0  0  0  0  0  0  0  0  0
   -8.6489   16.5775   26.8707 N   0  0  0  0  0  0  0  0  0  0  0  0
   -9.8149   15.6562   28.7224 N   0  0  0  0  0  0  0  0  0  0  0  0
   -8.1766   14.5682   27.7111 O   0  0  0  0  0  0  0  0  0  0  0  0
  -10.3535   19.8443   27.2076 O   0  0  0  0  0  0  0  0  0  0  0  0
  -12.1423   18.5176   28.8743 O   0  0  0  0  0  0  0  0  0  0  0  0
   -9.7816   20.2096   27.9006 H   0  0  0  0  0  0  0  0  0  0  0  0
  -12.7574   18.2130   28.1889 H   0  0  0  0  0  0  0  0  0  0  0  0
   -7.8694   16.2839   25.6573 C   0  0  0  0  0  0  0  0  0  0  0  0
   -8.5730   16.5042   24.3310 C   0  0  0  0  0  0  0  0  0  0  0  0
   -7.8544   17.0762   23.2714 C   0  0  0  0  0  0  0  0  0  0  0  0
   -8.4610   17.2140   22.0097 C   0  0  0  0  0  0  0  0  0  0  0  0
   -9.7855   16.7993   21.8144 C   0  0  0  0  0  0  0  0  0  0  0  0
  -10.5176   16.2347   22.8729 C   0  0  0  0  0  0  0  0  0  0  0  0
   -9.9069   16.0894   24.1315 C   0  0  0  0  0  0  0  0  0  0  0  0
   -7.6965   17.7637   20.8494 C   0  0  0  0  0  0  0  0  0  0  0  0
   -6.3905   17.4458   20.8660 N   0  0  0  0  0  0  0  0  0  0  0  0
   -8.2086   18.4043   19.9485 O   0  0  0  0  0  0  0  0  0  0  0  0
   -6.0229   17.0819   21.7037 H   0  0  0  0  0  0  0  0  0  0  0  0
   -5.4683   17.5987   19.7326 C   0  0  0  0  0  0  0  0  0  0  0  0
   -3.1336   19.2606   17.5792 C   0  0  0  0  0  0  0  0  0  0  0  0
   -2.7005   18.7661   16.3317 C   0  0  0  0  0  0  0  0  0  0  0  0
   -3.1615   17.5295   15.8235 C   0  0  0  0  0  0  0  0  0  0  0  0
   -4.0748   16.7402   16.5444 C   0  0  0  0  0  0  0  0  0  0  0  0
   -4.5361   17.1933   17.7950 C   0  0  0  0  0  0  0  0  0  0  0  0
   -4.0515   18.4993   18.3317 C   0  0  0  0  0  0  0  0  0  0  0  0
   -4.6763   18.6709   19.5363 N   0  0  0  0  0  0  0  0  0  0  0  0
   -5.4098   16.6994   18.7278 N   0  0  0  0  0  0  0  0  0  0  0  0
   -4.5676   19.4358   20.1465 H   0  0  0  0  0  0  0  0  0  0  0  0
   -9.7713   14.6783   29.8134 C   0  0  0  0  0  0  0  0  0  0  0  0
  -10.7468   14.9067   30.9376 C   0  0  0  0  0  0  0  0  0  0  0  0
  -11.7084   13.9128   31.1737 C   0  0  0  0  0  0  0  0  0  0  0  0
  -12.6112   14.0634   32.2509 C   0  0  0  0  0  0  0  0  0  0  0  0
  -12.5358   15.1930   33.0962 C   0  0  0  0  0  0  0  0  0  0  0  0
  -11.5653   16.1887   32.8612 C   0  0  0  0  0  0  0  0  0  0  0  0
  -10.6798   16.0480   31.7767 C   0  0  0  0  0  0  0  0  0  0  0  0
  -13.6839   13.0466   32.4827 C   0  0  0  0  0  0  0  0  0  0  0  0
  -13.3041   11.7646   32.2979 N   0  0  0  0  0  0  0  0  0  0  0  0
  -14.8079   13.3507   32.8398 O   0  0  0  0  0  0  0  0  0  0  0  0
  -12.4412   11.5929   31.8561 H   0  0  0  0  0  0  0  0  0  0  0  0
  -14.1152   10.6054   32.7237 C   0  0  0  0  0  0  0  0  0  0  0  0
  -16.3447    7.8329   32.1913 C   0  0  0  0  0  0  0  0  0  0  0  0
  -17.3046    7.3677   33.1234 C   0  0  0  0  0  0  0  0  0  0  0  0
  -17.4361    7.9618   34.4058 C   0  0  0  0  0  0  0  0  0  0  0  0
  -16.6081    9.0423   34.8009 C   0  0  0  0  0  0  0  0  0  0  0  0
  -15.6367    9.5420   33.8881 C   0  0  0  0  0  0  0  0  0  0  0  0
  -15.5077    8.9122   32.5397 C   0  0  0  0  0  0  0  0  0  0  0  0
  -14.5404    9.6239   31.8917 N   0  0  0  0  0  0  0  0  0  0  0  0
  -14.7233   10.5773   33.9174 N   0  0  0  0  0  0  0  0  0  0  0  0
  -14.5510   11.1824   34.6747 H   0  0  0  0  0  0  0  0  0  0  0  0
   -7.9387   18.4976   28.2553 C   0  0  0  0  0  0  0  0  0  0  0  0
   -6.5132   18.7165   27.7889 C   0  0  0  0  0  0  0  0  0  0  0  0
   -6.2284   19.6072   26.7238 C   0  0  0  0  0  0  0  0  0  0  0  0
   -4.8842   19.8335   26.3350 C   0  0  0  0  0  0  0  0  0  0  0  0
   -3.8252   19.1690   27.0047 C   0  0  0  0  0  0  0  0  0  0  0  0
   -4.1096   18.2769   28.0658 C   0  0  0  0  0  0  0  0  0  0  0  0
   -5.4537   18.0507   28.4547 C   0  0  0  0  0  0  0  0  0  0  0  0
  -11.9545   15.9410   27.5046 C   0  0  0  0  0  0  0  0  0  0  0  0
  -12.9050   14.8516   27.9466 C   0  0  0  0  0  0  0  0  0  0  0  0
  -14.0544   15.1978   28.7093 C   0  0  0  0  0  0  0  0  0  0  0  0
  -14.8958   14.1766   29.1971 C   0  0  0  0  0  0  0  0  0  0  0  0
  -14.5894   12.8278   28.9093 C   0  0  0  0  0  0  0  0  0  0  0  0
  -13.4568   12.4877   28.1389 C   0  0  0  0  0  0  0  0  0  0  0  0
  -12.6068   13.4957   27.6525 C   0  0  0  0  0  0  0  0  0  0  0  0
  1  6  1  0  0  0
  1  7  1  0  0  0
  1  8  2  0  0  0
 13 14  1  0  0  0
 13  6  1  0  0  0
  2  3  1  0  0  0
  2 55  1  0  0  0
  2  6  1  0  0  0
  3  4  1  0  0  0
  3  9  1  0  0  0
  4  5  1  0  0  0
  4 10  1  0  0  0
  5 62  1  0  0  0
  5  7  1  0  0  0
 34 35  1  0  0  0
 34  7  1  0  0  0
 14 15  2  0  0  0
 14 19  1  0  0  0
 15 16  1  0  0  0
 16 17  2  0  0  0
 16 20  1  0  0  0
 17 18  1  0  0  0
 18 19  2  0  0  0
 20 21  1  0  0  0
 20 22  2  0  0  0
 24 21  1  0  0  0
 24 31  1  0  0  0
 24 32  2  0  0  0
 25 26  1  0  0  0
 25 30  2  0  0  0
 26 27  2  0  0  0
 27 28  1  0  0  0
 28 29  2  0  0  0
 29 30  1  0  0  0
 29 32  1  0  0  0
 30 31  1  0  0  0
 55 56  1  0  0  0
 56 57  2  0  0  0
 56 61  1  0  0  0
 57 58  1  0  0  0
 58 59  2  0  0  0
 59 60  1  0  0  0
 60 61  2  0  0  0
 62 63  1  0  0  0
 63 64  2  0  0  0
 63 68  1  0  0  0
 64 65  1  0  0  0
 65 66  2  0  0  0
 66 67  1  0  0  0
 67 68  2  0  0  0
 35 36  2  0  0  0
 35 40  1  0  0  0
 36 37  1  0  0  0
 37 38  2  0  0  0
 37 41  1  0  0  0
 38 39  1  0  0  0
 39 40  2  0  0  0
 41 42  1  0  0  0
 41 43  2  0  0  0
 45 42  1  0  0  0
 45 52  2  0  0  0
 45 53  1  0  0  0
 46 47  2  0  0  0
 46 51  1  0  0  0
 47 48  1  0  0  0
 48 49  2  0  0  0
 49 50  1  0  0  0
 50 51  2  0  0  0
 50 53  1  0  0  0
 51 52  1  0  0  0
 21 23  1  0  0  0
 31 33  1  0  0  0
 42 44  1  0  0  0
 53 54  1  0  0  0
  9 11  1  0  0  0
 10 12  1  0  0  0
M  END
> <minimizedAffinity>
-13.60937

$$$$
1BWB_146_B_641


 68 76  0  0  0  0  0  0  0  0999 V2000
   -9.0129   15.4752   27.7589 C   0  0  0  0  0  0  0  0  0  0  0  0
  -11.1241   16.4891   28.6498 C   0  0  0  0  0  0  0  0  0  0  0  0
  -10.8974   17.9887   28.6276 C   0  0  0  0  0  0  0  0  0  0  0  0
  -10.3624   18.3948   27.2729 C   0  0  0  0  0  0  0  0  0  0  0  0
   -8.9447   17.9039   27.1193 C   0  0  0  0  0  0  0  0  0  0  0  0
   -9.9353   15.6220   28.7470 N   0  0  0  0  0  0  0  0  0  0  0  0
   -8.7416   16.4546   26.8711 N   0  0  0  0  0  0  0  0  0  0  0  0
   -8.4012   14.4195   27.6667 O   0  0  0  0  0  0  0  0  0  0  0  0
  -12.1511   18.5831   28.8637 O   0  0  0  0  0  0  0  0  0  0  0  0
  -10.3088   19.7843   27.1605 O   0  0  0  0  0  0  0  0  0  0  0  0
  -12.7799   18.2918   28.1850 H   0  0  0  0  0  0  0  0  0  0  0  0
   -9.7162   20.1411   27.8405 H   0  0  0  0  0  0  0  0  0  0  0  0
   -9.9190   14.6790   29.8770 C   0  0  0  0  0  0  0  0  0  0  0  0
  -11.0815   14.7663   30.8483 C   0  0  0  0  0  0  0  0  0  0  0  0
  -11.8315   13.6109   31.1104 C   0  0  0  0  0  0  0  0  0  0  0  0
  -12.8609   13.6485   32.0684 C   0  0  0  0  0  0  0  0  0  0  0  0
  -13.1507   14.8404   32.7466 C   0  0  0  0  0  0  0  0  0  0  0  0
  -12.4117   16.0064   32.4831 C   0  0  0  0  0  0  0  0  0  0  0  0
  -11.3771   15.9651   31.5314 C   0  0  0  0  0  0  0  0  0  0  0  0
  -13.6336   12.4158   32.4098 C   0  0  0  0  0  0  0  0  0  0  0  0
  -12.9157   11.2841   32.3044 N   0  0  0  0  0  0  0  0  0  0  0  0
  -14.7914   12.4303   32.7885 O   0  0  0  0  0  0  0  0  0  0  0  0
  -12.0545   11.3359   31.8303 H   0  0  0  0  0  0  0  0  0  0  0  0
  -13.3153    9.9761   32.8410 C   0  0  0  0  0  0  0  0  0  0  0  0
  -14.8088    6.7175   32.8202 C   0  0  0  0  0  0  0  0  0  0  0  0
  -15.0140    5.9217   33.9659 C   0  0  0  0  0  0  0  0  0  0  0  0
  -14.6223    6.3591   35.2525 C   0  0  0  0  0  0  0  0  0  0  0  0
  -14.0106    7.6108   35.4420 C   0  0  0  0  0  0  0  0  0  0  0  0
  -13.7859    8.4407   34.3272 C   0  0  0  0  0  0  0  0  0  0  0  0
  -14.2003    7.9808   32.9689 C   0  0  0  0  0  0  0  0  0  0  0  0
  -13.8692    8.9907   32.1078 N   0  0  0  0  0  0  0  0  0  0  0  0
  -13.2432    9.6873   34.1575 N   0  0  0  0  0  0  0  0  0  0  0  0
  -14.0096    8.9965   31.1334 H   0  0  0  0  0  0  0  0  0  0  0  0
   -7.9656   16.1024   25.6785 C   0  0  0  0  0  0  0  0  0  0  0  0
   -8.6367   16.3700   24.3574 C   0  0  0  0  0  0  0  0  0  0  0  0
   -7.8283   16.8014   23.2950 C   0  0  0  0  0  0  0  0  0  0  0  0
   -8.4092   17.0156   22.0243 C   0  0  0  0  0  0  0  0  0  0  0  0
   -9.7866   16.7790   21.8172 C   0  0  0  0  0  0  0  0  0  0  0  0
  -10.5971   16.3401   22.8844 C   0  0  0  0  0  0  0  0  0  0  0  0
  -10.0223   16.1463   24.1541 C   0  0  0  0  0  0  0  0  0  0  0  0
   -7.5781   17.5349   20.8938 C   0  0  0  0  0  0  0  0  0  0  0  0
   -6.3291   17.0278   20.8242 N   0  0  0  0  0  0  0  0  0  0  0  0
   -8.0060   18.3337   20.0800 O   0  0  0  0  0  0  0  0  0  0  0  0
   -5.9893   16.5176   21.5945 H   0  0  0  0  0  0  0  0  0  0  0  0
   -5.4451   17.1982   19.6527 C   0  0  0  0  0  0  0  0  0  0  0  0
   -4.0828   16.2768   16.4533 C   0  0  0  0  0  0  0  0  0  0  0  0
   -2.7559   16.5320   16.0279 C   0  0  0  0  0  0  0  0  0  0  0  0
   -1.8388   17.2345   16.8526 C   0  0  0  0  0  0  0  0  0  0  0  0
   -2.2199   17.7089   18.1329 C   0  0  0  0  0  0  0  0  0  0  0  0
   -3.5431   17.4649   18.5978 C   0  0  0  0  0  0  0  0  0  0  0  0
   -4.5003   16.7222   17.7238 C   0  0  0  0  0  0  0  0  0  0  0  0
   -5.6509   16.6109   18.4489 N   0  0  0  0  0  0  0  0  0  0  0  0
   -4.2213   17.7311   19.7709 N   0  0  0  0  0  0  0  0  0  0  0  0
   -3.8709   18.2214   20.5494 H   0  0  0  0  0  0  0  0  0  0  0  0
  -12.0718   15.9375   27.5454 C   0  0  0  0  0  0  0  0  0  0  0  0
  -13.0021   14.8378   28.0171 C   0  0  0  0  0  0  0  0  0  0  0  0
  -14.1427   15.1412   28.8018 C   0  0  0  0  0  0  0  0  0  0  0  0
  -15.0256   14.1032   29.1922 C   0  0  0  0  0  0  0  0  0  0  0  0
  -14.7692   12.7633   28.8040 C   0  0  0  0  0  0  0  0  0  0  0  0
  -13.6285   12.4598   28.0234 C   0  0  0  0  0  0  0  0  0  0  0  0
  -12.7456   13.4978   27.6330 C   0  0  0  0  0  0  0  0  0  0  0  0
   -7.9748   18.3823   28.2267 C   0  0  0  0  0  0  0  0  0  0  0  0
   -6.5761   18.6852   27.7392 C   0  0  0  0  0  0  0  0  0  0  0  0
   -5.4615   18.2484   28.5069 C   0  0  0  0  0  0  0  0  0  0  0  0
   -4.1585   18.6040   28.1013 C   0  0  0  0  0  0  0  0  0  0  0  0
   -3.9821   19.3776   26.9323 C   0  0  0  0  0  0  0  0  0  0  0  0
   -5.0891   19.7965   26.1635 C   0  0  0  0  0  0  0  0  0  0  0  0
   -6.3930   19.4542   26.5607 C   0  0  0  0  0  0  0  0  0  0  0  0
  1  6  1  0  0  0
  1  7  1  0  0  0
  1  8  2  0  0  0
 13 14  1  0  0  0
 13  6  1  0  0  0
  2  3  1  0  0  0
  2 55  1  0  0  0
  2  6  1  0  0  0
  3  4  1  0  0  0
  3  9  1  0  0  0
  4  5  1  0  0  0
  4 10  1  0  0  0
  5 62  1  0  0  0
  5  7  1  0  0  0
 34 35  1  0  0  0
 34  7  1  0  0  0
 14 15  2  0  0  0
 14 19  1  0  0  0
 15 16  1  0  0  0
 16 17  2  0  0  0
 16 20  1  0  0  0
 17 18  1  0  0  0
 18 19  2  0  0  0
 20 21  1  0  0  0
 20 22  2  0  0  0
 24 21  1  0  0  0
 24 31  1  0  0  0
 24 32  2  0  0  0
 25 26  1  0  0  0
 25 30  2  0  0  0
 26 27  2  0  0  0
 27 28  1  0  0  0
 28 29  2  0  0  0
 29 30  1  0  0  0
 29 32  1  0  0  0
 30 31  1  0  0  0
 55 56  1  0  0  0
 56 57  2  0  0  0
 56 61  1  0  0  0
 57 58  1  0  0  0
 58 59  2  0  0  0
 59 60  1  0  0  0
 60 61  2  0  0  0
 62 63  1  0  0  0
 63 64  2  0  0  0
 63 68  1  0  0  0
 64 65  1  0  0  0
 65 66  2  0  0  0
 66 67  1  0  0  0
 67 68  2  0  0  0
 35 36  2  0  0  0
 35 40  1  0  0  0
 36 37  1  0  0  0
 37 38  2  0  0  0
 37 41  1  0  0  0
 38 39  1  0  0  0
 39 40  2  0  0  0
 41 42  1  0  0  0
 41 43  2  0  0  0
 45 42  1  0  0  0
 45 52  2  0  0  0
 45 53  1  0  0  0
 46 47  2  0  0  0
 46 51  1  0  0  0
 47 48  1  0  0  0
 48 49  2  0  0  0
 49 50  1  0  0  0
 50 51  2  0  0  0
 50 53  1  0  0  0
 51 52  1  0  0  0
 21 23  1  0  0  0
 31 33  1  0  0  0
 42 44  1  0  0  0
 53 54  1  0  0  0
  9 11  1  0  0  0
 10 12  1  0  0  0
M  END
> <minimizedAffinity>
-13.54604

$$$$
