4TKH_MYR_A_200


 17 16  0  0  0  0  0  0  0  0999 V2000
   -7.6189  -24.7357    3.5366 C   0  0  0  0  0  0  0  0  0  0  0  0
   -8.3208  -24.6214    2.1911 C   0  0  0  0  0  0  0  0  0  0  0  0
   -7.3770  -24.6634    0.9910 C   0  0  0  0  0  0  0  0  0  0  0  0
   -6.9492  -23.2987    0.5099 C   0  0  0  0  0  0  0  0  0  0  0  0
   -8.0545  -22.3978    0.0419 C   0  0  0  0  0  0  0  0  0  0  0  0
   -8.2218  -22.2472   -1.4266 C   0  0  0  0  0  0  0  0  0  0  0  0
   -7.8917  -23.1695   -2.2214 O   0  0  0  0  0  0  0  0  0  0  0  0
   -8.7228  -21.1379   -1.8364 O   0  0  0  0  0  0  0  0  0  0  0  0
   -8.9574  -20.4732   -1.2190 H   0  0  0  0  0  0  0  0  0  0  0  0
   -7.5728  -23.5033    4.3885 C   0  0  0  0  0  0  0  0  0  0  0  0
   -6.1585  -23.0226    4.6314 C   0  0  0  0  0  0  0  0  0  0  0  0
   -6.0764  -22.1294    5.8586 C   0  0  0  0  0  0  0  0  0  0  0  0
   -7.2992  -21.3910    6.1575 C   0  0  0  0  0  0  0  0  0  0  0  0
   -7.3557  -19.9900    6.0210 C   0  0  0  0  0  0  0  0  0  0  0  0
   -6.2157  -19.3600    5.4568 C   0  0  0  0  0  0  0  0  0  0  0  0
   -6.4299  -18.5911    4.1827 C   0  0  0  0  0  0  0  0  0  0  0  0
   -6.8750  -19.4384    3.0270 C   0  0  0  0  0  0  0  0  0  0  0  0
  6  7  2  0  0  0
  6  8  1  0  0  0
  6  5  1  0  0  0
  5  4  1  0  0  0
  4  3  1  0  0  0
  3  2  1  0  0  0
  2  1  1  0  0  0
  1 10  1  0  0  0
 10 11  1  0  0  0
 11 12  1  0  0  0
 12 13  1  0  0  0
 13 14  1  0  0  0
 14 15  1  0  0  0
 15 16  1  0  0  0
 16 17  1  0  0  0
  8  9  1  0  0  0
M  END
> <minimizedAffinity>
-5.83304

$$$$
4TKH_MYR_A_200


 17 16  0  0  0  0  0  0  0  0999 V2000
   -8.0996  -24.7784    3.1667 C   0  0  0  0  0  0  0  0  0  0  0  0
   -7.8480  -24.6892    1.6684 C   0  0  0  0  0  0  0  0  0  0  0  0
   -7.9053  -23.2684    1.1110 C   0  0  0  0  0  0  0  0  0  0  0  0
   -6.6680  -22.8687    0.3454 C   0  0  0  0  0  0  0  0  0  0  0  0
   -6.8625  -21.8065   -0.6968 C   0  0  0  0  0  0  0  0  0  0  0  0
   -7.9125  -22.0526   -1.7186 C   0  0  0  0  0  0  0  0  0  0  0  0
   -7.9320  -23.1177   -2.3943 O   0  0  0  0  0  0  0  0  0  0  0  0
   -8.7942  -21.1309   -1.8691 O   0  0  0  0  0  0  0  0  0  0  0  0
   -8.7505  -20.3516   -1.3507 H   0  0  0  0  0  0  0  0  0  0  0  0
   -6.9428  -25.1838    4.0294 C   0  0  0  0  0  0  0  0  0  0  0  0
   -6.4498  -24.0506    4.9029 C   0  0  0  0  0  0  0  0  0  0  0  0
   -7.4134  -22.8751    4.8877 C   0  0  0  0  0  0  0  0  0  0  0  0
   -6.8546  -21.6229    5.3871 C   0  0  0  0  0  0  0  0  0  0  0  0
   -6.7597  -20.4866    4.5598 C   0  0  0  0  0  0  0  0  0  0  0  0
   -7.8994  -20.1766    3.7727 C   0  0  0  0  0  0  0  0  0  0  0  0
   -7.6479  -19.7945    2.3404 C   0  0  0  0  0  0  0  0  0  0  0  0
   -8.8969  -19.6301    1.5253 C   0  0  0  0  0  0  0  0  0  0  0  0
  6  7  2  0  0  0
  6  8  1  0  0  0
  6  5  1  0  0  0
  5  4  1  0  0  0
  4  3  1  0  0  0
  3  2  1  0  0  0
  2  1  1  0  0  0
  1 10  1  0  0  0
 10 11  1  0  0  0
 11 12  1  0  0  0
 12 13  1  0  0  0
 13 14  1  0  0  0
 14 15  1  0  0  0
 15 16  1  0  0  0
 16 17  1  0  0  0
  8  9  1  0  0  0
M  END
> <minimizedAffinity>
-5.82162

$$$$
4TKH_MYR_A_200


 17 16  0  0  0  0  0  0  0  0999 V2000
   -9.1954  -21.1774   -0.4257 C   0  0  0  0  0  0  0  0  0  0  0  0
   -8.9179  -20.0490    0.5571 C   0  0  0  0  0  0  0  0  0  0  0  0
   -8.1587  -20.4858    1.8084 C   0  0  0  0  0  0  0  0  0  0  0  0
   -6.9040  -19.6876    2.0641 C   0  0  0  0  0  0  0  0  0  0  0  0
   -6.3833  -18.9020    0.8962 C   0  0  0  0  0  0  0  0  0  0  0  0
   -6.2998  -17.4281    1.0619 C   0  0  0  0  0  0  0  0  0  0  0  0
   -5.2283  -16.8029    0.8327 O   0  0  0  0  0  0  0  0  0  0  0  0
   -7.3718  -16.8315    1.4420 O   0  0  0  0  0  0  0  0  0  0  0  0
   -8.1510  -17.3261    1.6038 H   0  0  0  0  0  0  0  0  0  0  0  0
   -8.1861  -21.3997   -1.5113 C   0  0  0  0  0  0  0  0  0  0  0  0
   -7.7461  -22.8449   -1.6025 C   0  0  0  0  0  0  0  0  0  0  0  0
   -6.3983  -23.0605   -0.9335 C   0  0  0  0  0  0  0  0  0  0  0  0
   -6.4647  -23.3163    0.5017 C   0  0  0  0  0  0  0  0  0  0  0  0
   -7.0330  -24.5034    1.0043 C   0  0  0  0  0  0  0  0  0  0  0  0
   -8.1987  -24.3619    1.8017 C   0  0  0  0  0  0  0  0  0  0  0  0
   -8.1901  -25.0489    3.1390 C   0  0  0  0  0  0  0  0  0  0  0  0
   -6.8210  -25.2147    3.7301 C   0  0  0  0  0  0  0  0  0  0  0  0
  6  7  2  0  0  0
  6  8  1  0  0  0
  6  5  1  0  0  0
  5  4  1  0  0  0
  4  3  1  0  0  0
  3  2  1  0  0  0
  2  1  1  0  0  0
  1 10  1  0  0  0
 10 11  1  0  0  0
 11 12  1  0  0  0
 12 13  1  0  0  0
 13 14  1  0  0  0
 14 15  1  0  0  0
 15 16  1  0  0  0
 16 17  1  0  0  0
  8  9  1  0  0  0
M  END
> <minimizedAffinity>
-5.80359

$$$$
4TKH_MYR_A_200


 17 16  0  0  0  0  0  0  0  0999 V2000
   -8.1625  -19.9797    2.7363 C   0  0  0  0  0  0  0  0  0  0  0  0
   -7.0082  -20.6203    1.9791 C   0  0  0  0  0  0  0  0  0  0  0  0
   -7.3334  -21.9927    1.3930 C   0  0  0  0  0  0  0  0  0  0  0  0
   -6.4400  -22.3862    0.2425 C   0  0  0  0  0  0  0  0  0  0  0  0
   -6.6294  -21.6053   -1.0250 C   0  0  0  0  0  0  0  0  0  0  0  0
   -7.8264  -21.9315   -1.8422 C   0  0  0  0  0  0  0  0  0  0  0  0
   -8.0011  -23.0877   -2.3155 O   0  0  0  0  0  0  0  0  0  0  0  0
   -8.6681  -20.9802   -2.0324 O   0  0  0  0  0  0  0  0  0  0  0  0
   -8.5078  -20.1326   -1.6666 H   0  0  0  0  0  0  0  0  0  0  0  0
   -8.0746  -19.9702    4.2326 C   0  0  0  0  0  0  0  0  0  0  0  0
   -6.6442  -19.9496    4.7262 C   0  0  0  0  0  0  0  0  0  0  0  0
   -6.4195  -20.9735    5.8270 C   0  0  0  0  0  0  0  0  0  0  0  0
   -5.8755  -22.2486    5.3709 C   0  0  0  0  0  0  0  0  0  0  0  0
   -6.6104  -23.4431    5.5037 C   0  0  0  0  0  0  0  0  0  0  0  0
   -7.5530  -23.7263    4.4809 C   0  0  0  0  0  0  0  0  0  0  0  0
   -7.3064  -24.9600    3.6576 C   0  0  0  0  0  0  0  0  0  0  0  0
   -8.4407  -25.3192    2.7434 C   0  0  0  0  0  0  0  0  0  0  0  0
  6  7  2  0  0  0
  6  8  1  0  0  0
  6  5  1  0  0  0
  5  4  1  0  0  0
  4  3  1  0  0  0
  3  2  1  0  0  0
  2  1  1  0  0  0
  1 10  1  0  0  0
 10 11  1  0  0  0
 11 12  1  0  0  0
 12 13  1  0  0  0
 13 14  1  0  0  0
 14 15  1  0  0  0
 15 16  1  0  0  0
 16 17  1  0  0  0
  8  9  1  0  0  0
M  END
> <minimizedAffinity>
-5.79330

$$$$
4TKH_MYR_A_200


 17 16  0  0  0  0  0  0  0  0999 V2000
   -6.7013  -23.5458    5.4888 C   0  0  0  0  0  0  0  0  0  0  0  0
   -7.3038  -22.1511    5.3993 C   0  0  0  0  0  0  0  0  0  0  0  0
   -6.2977  -21.0230    5.6185 C   0  0  0  0  0  0  0  0  0  0  0  0
   -6.9383  -19.6953    5.9403 C   0  0  0  0  0  0  0  0  0  0  0  0
   -8.4208  -19.7271    6.1714 C   0  0  0  0  0  0  0  0  0  0  0  0
   -8.9440  -18.9023    7.2907 C   0  0  0  0  0  0  0  0  0  0  0  0
  -10.0286  -18.2671    7.1849 O   0  0  0  0  0  0  0  0  0  0  0  0
   -8.2391  -18.8781    8.3641 O   0  0  0  0  0  0  0  0  0  0  0  0
   -7.4378  -19.3617    8.4095 H   0  0  0  0  0  0  0  0  0  0  0  0
   -6.4320  -24.2563    4.1967 C   0  0  0  0  0  0  0  0  0  0  0  0
   -7.4608  -25.3261    3.9015 C   0  0  0  0  0  0  0  0  0  0  0  0
   -8.2690  -24.9943    2.6576 C   0  0  0  0  0  0  0  0  0  0  0  0
   -7.5183  -25.0605    1.4079 C   0  0  0  0  0  0  0  0  0  0  0  0
   -7.2604  -23.9006    0.6510 C   0  0  0  0  0  0  0  0  0  0  0  0
   -7.8840  -22.7035    1.0901 C   0  0  0  0  0  0  0  0  0  0  0  0
   -6.9815  -21.6335    1.6389 C   0  0  0  0  0  0  0  0  0  0  0  0
   -7.7080  -20.4140    2.1252 C   0  0  0  0  0  0  0  0  0  0  0  0
  6  7  2  0  0  0
  6  8  1  0  0  0
  6  5  1  0  0  0
  5  4  1  0  0  0
  4  3  1  0  0  0
  3  2  1  0  0  0
  2  1  1  0  0  0
  1 10  1  0  0  0
 10 11  1  0  0  0
 11 12  1  0  0  0
 12 13  1  0  0  0
 13 14  1  0  0  0
 14 15  1  0  0  0
 15 16  1  0  0  0
 16 17  1  0  0  0
  8  9  1  0  0  0
M  END
> <minimizedAffinity>
-5.74826

$$$$
4TKH_MYR_A_200


 17 16  0  0  0  0  0  0  0  0999 V2000
   -6.8515  -24.6275    3.9997 C   0  0  0  0  0  0  0  0  0  0  0  0
   -6.4225  -24.3231    2.5716 C   0  0  0  0  0  0  0  0  0  0  0  0
   -7.5790  -24.2466    1.5769 C   0  0  0  0  0  0  0  0  0  0  0  0
   -7.1962  -23.6394    0.2497 C   0  0  0  0  0  0  0  0  0  0  0  0
   -7.9599  -22.4103   -0.1481 C   0  0  0  0  0  0  0  0  0  0  0  0
   -8.1896  -22.2031   -1.6011 C   0  0  0  0  0  0  0  0  0  0  0  0
   -7.8779  -23.0866   -2.4459 O   0  0  0  0  0  0  0  0  0  0  0  0
   -8.7241  -21.0869   -1.9444 O   0  0  0  0  0  0  0  0  0  0  0  0
   -8.9435  -20.4520   -1.2911 H   0  0  0  0  0  0  0  0  0  0  0  0
   -6.5065  -23.6117    5.0464 C   0  0  0  0  0  0  0  0  0  0  0  0
   -6.6283  -22.1925    4.5352 C   0  0  0  0  0  0  0  0  0  0  0  0
   -6.2238  -21.1813    5.5956 C   0  0  0  0  0  0  0  0  0  0  0  0
   -6.2597  -19.7902    5.1559 C   0  0  0  0  0  0  0  0  0  0  0  0
   -6.7603  -18.7743    5.9938 C   0  0  0  0  0  0  0  0  0  0  0  0
   -7.6114  -19.1858    7.0525 C   0  0  0  0  0  0  0  0  0  0  0  0
   -9.0756  -18.8800    6.9001 C   0  0  0  0  0  0  0  0  0  0  0  0
   -9.8037  -19.8240    5.9890 C   0  0  0  0  0  0  0  0  0  0  0  0
  6  7  2  0  0  0
  6  8  1  0  0  0
  6  5  1  0  0  0
  5  4  1  0  0  0
  4  3  1  0  0  0
  3  2  1  0  0  0
  2  1  1  0  0  0
  1 10  1  0  0  0
 10 11  1  0  0  0
 11 12  1  0  0  0
 12 13  1  0  0  0
 13 14  1  0  0  0
 14 15  1  0  0  0
 15 16  1  0  0  0
 16 17  1  0  0  0
  8  9  1  0  0  0
M  END
> <minimizedAffinity>
-5.74037

$$$$
4TKH_MYR_A_200


 17 16  0  0  0  0  0  0  0  0999 V2000
   -6.9770  -25.0099    4.0000 C   0  0  0  0  0  0  0  0  0  0  0  0
   -8.0495  -24.8726    2.9290 C   0  0  0  0  0  0  0  0  0  0  0  0
   -7.5341  -25.0621    1.5038 C   0  0  0  0  0  0  0  0  0  0  0  0
   -6.8633  -23.8359    0.9351 C   0  0  0  0  0  0  0  0  0  0  0  0
   -7.6756  -23.0478   -0.0503 C   0  0  0  0  0  0  0  0  0  0  0  0
   -7.2072  -23.0491   -1.4602 C   0  0  0  0  0  0  0  0  0  0  0  0
   -5.9891  -23.2108   -1.7455 O   0  0  0  0  0  0  0  0  0  0  0  0
   -8.1052  -22.8841   -2.3635 O   0  0  0  0  0  0  0  0  0  0  0  0
   -9.0015  -22.7666   -2.1171 H   0  0  0  0  0  0  0  0  0  0  0  0
   -6.8593  -23.8942    4.9940 C   0  0  0  0  0  0  0  0  0  0  0  0
   -6.0846  -22.7144    4.4477 C   0  0  0  0  0  0  0  0  0  0  0  0
   -6.9042  -21.4354    4.5034 C   0  0  0  0  0  0  0  0  0  0  0  0
   -7.6640  -21.1456    3.2916 C   0  0  0  0  0  0  0  0  0  0  0  0
   -7.7966  -19.8273    2.8131 C   0  0  0  0  0  0  0  0  0  0  0  0
   -7.9903  -19.6751    1.4152 C   0  0  0  0  0  0  0  0  0  0  0  0
   -6.7734  -19.3447    0.5964 C   0  0  0  0  0  0  0  0  0  0  0  0
   -6.3979  -17.8922    0.6216 C   0  0  0  0  0  0  0  0  0  0  0  0
  6  7  2  0  0  0
  6  8  1  0  0  0
  6  5  1  0  0  0
  5  4  1  0  0  0
  4  3  1  0  0  0
  3  2  1  0  0  0
  2  1  1  0  0  0
  1 10  1  0  0  0
 10 11  1  0  0  0
 11 12  1  0  0  0
 12 13  1  0  0  0
 13 14  1  0  0  0
 14 15  1  0  0  0
 15 16  1  0  0  0
 16 17  1  0  0  0
  8  9  1  0  0  0
M  END
> <minimizedAffinity>
-5.67503

$$$$
4TKH_MYR_A_200


 17 16  0  0  0  0  0  0  0  0999 V2000
   -8.3828  -20.0833    0.9070 C   0  0  0  0  0  0  0  0  0  0  0  0
   -6.9274  -19.6393    0.8773 C   0  0  0  0  0  0  0  0  0  0  0  0
   -6.7254  -18.1982    0.4136 C   0  0  0  0  0  0  0  0  0  0  0  0
   -5.9850  -17.3403    1.4100 C   0  0  0  0  0  0  0  0  0  0  0  0
   -6.8393  -16.4471    2.2611 C   0  0  0  0  0  0  0  0  0  0  0  0
   -7.6128  -15.3903    1.5598 C   0  0  0  0  0  0  0  0  0  0  0  0
   -8.8173  -15.1567    1.8530 O   0  0  0  0  0  0  0  0  0  0  0  0
   -6.9896  -14.7301    0.6513 O   0  0  0  0  0  0  0  0  0  0  0  0
   -6.0946  -14.9293    0.4582 H   0  0  0  0  0  0  0  0  0  0  0  0
   -8.9389  -20.6814   -0.3498 C   0  0  0  0  0  0  0  0  0  0  0  0
   -7.8555  -21.0646   -1.3346 C   0  0  0  0  0  0  0  0  0  0  0  0
   -7.7521  -22.5731   -1.4905 C   0  0  0  0  0  0  0  0  0  0  0  0
   -6.7345  -23.2034   -0.6556 C   0  0  0  0  0  0  0  0  0  0  0  0
   -7.0897  -24.0794    0.3889 C   0  0  0  0  0  0  0  0  0  0  0  0
   -7.0368  -23.5526    1.7059 C   0  0  0  0  0  0  0  0  0  0  0  0
   -7.2342  -24.5284    2.8325 C   0  0  0  0  0  0  0  0  0  0  0  0
   -8.4869  -25.3464    2.7177 C   0  0  0  0  0  0  0  0  0  0  0  0
  6  7  2  0  0  0
  6  8  1  0  0  0
  6  5  1  0  0  0
  5  4  1  0  0  0
  4  3  1  0  0  0
  3  2  1  0  0  0
  2  1  1  0  0  0
  1 10  1  0  0  0
 10 11  1  0  0  0
 11 12  1  0  0  0
 12 13  1  0  0  0
 13 14  1  0  0  0
 14 15  1  0  0  0
 15 16  1  0  0  0
 16 17  1  0  0  0
  8  9  1  0  0  0
M  END
> <minimizedAffinity>
-5.62512

$$$$
4TKH_MYR_A_200


 17 16  0  0  0  0  0  0  0  0999 V2000
   -7.6391  -22.5259    4.9593 C   0  0  0  0  0  0  0  0  0  0  0  0
   -7.7517  -21.2209    4.1843 C   0  0  0  0  0  0  0  0  0  0  0  0
   -6.6648  -20.2017    4.5198 C   0  0  0  0  0  0  0  0  0  0  0  0
   -7.1956  -18.9345    5.1436 C   0  0  0  0  0  0  0  0  0  0  0  0
   -7.0543  -18.8344    6.6343 C   0  0  0  0  0  0  0  0  0  0  0  0
   -8.2901  -19.0112    7.4395 C   0  0  0  0  0  0  0  0  0  0  0  0
   -9.3231  -19.5411    6.9460 O   0  0  0  0  0  0  0  0  0  0  0  0
   -8.2455  -18.6037    8.6567 O   0  0  0  0  0  0  0  0  0  0  0  0
   -7.4619  -18.2144    8.9919 H   0  0  0  0  0  0  0  0  0  0  0  0
   -6.6290  -23.5216    4.4749 C   0  0  0  0  0  0  0  0  0  0  0  0
   -7.2308  -24.5424    3.5336 C   0  0  0  0  0  0  0  0  0  0  0  0
   -6.4752  -24.5993    2.2158 C   0  0  0  0  0  0  0  0  0  0  0  0
   -7.3190  -24.5358    1.0268 C   0  0  0  0  0  0  0  0  0  0  0  0
   -7.3991  -23.3615    0.2526 C   0  0  0  0  0  0  0  0  0  0  0  0
   -6.7869  -22.2008    0.7935 C   0  0  0  0  0  0  0  0  0  0  0  0
   -5.9072  -21.4072   -0.1322 C   0  0  0  0  0  0  0  0  0  0  0  0
   -5.3093  -22.2151   -1.2464 C   0  0  0  0  0  0  0  0  0  0  0  0
  6  7  2  0  0  0
  6  8  1  0  0  0
  6  5  1  0  0  0
  5  4  1  0  0  0
  4  3  1  0  0  0
  3  2  1  0  0  0
  2  1  1  0  0  0
  1 10  1  0  0  0
 10 11  1  0  0  0
 11 12  1  0  0  0
 12 13  1  0  0  0
 13 14  1  0  0  0
 14 15  1  0  0  0
 15 16  1  0  0  0
 16 17  1  0  0  0
  8  9  1  0  0  0
M  END
> <minimizedAffinity>
-5.59154

$$$$
4TKH_MYR_A_200


 17 16  0  0  0  0  0  0  0  0999 V2000
   -7.0275  -20.5689    2.2702 C   0  0  0  0  0  0  0  0  0  0  0  0
   -7.5456  -20.6487    3.6990 C   0  0  0  0  0  0  0  0  0  0  0  0
   -6.5237  -20.2347    4.7559 C   0  0  0  0  0  0  0  0  0  0  0  0
   -7.0223  -19.1612    5.6917 C   0  0  0  0  0  0  0  0  0  0  0  0
   -8.4624  -18.7720    5.5270 C   0  0  0  0  0  0  0  0  0  0  0  0
   -9.4209  -19.3051    6.5290 C   0  0  0  0  0  0  0  0  0  0  0  0
  -10.0405  -18.5378    7.3155 O   0  0  0  0  0  0  0  0  0  0  0  0
   -9.5861  -20.5787    6.5445 O   0  0  0  0  0  0  0  0  0  0  0  0
   -9.1098  -21.1202    5.9463 H   0  0  0  0  0  0  0  0  0  0  0  0
   -7.7051  -21.4331    1.2501 C   0  0  0  0  0  0  0  0  0  0  0  0
   -6.7293  -22.3151    0.5017 C   0  0  0  0  0  0  0  0  0  0  0  0
   -7.3511  -23.6549    0.1425 C   0  0  0  0  0  0  0  0  0  0  0  0
   -7.0664  -24.7311    1.0862 C   0  0  0  0  0  0  0  0  0  0  0  0
   -8.0663  -25.2319    1.9429 C   0  0  0  0  0  0  0  0  0  0  0  0
   -8.0880  -24.7151    3.2647 C   0  0  0  0  0  0  0  0  0  0  0  0
   -6.8931  -25.0141    4.1269 C   0  0  0  0  0  0  0  0  0  0  0  0
   -6.4888  -23.8802    5.0225 C   0  0  0  0  0  0  0  0  0  0  0  0
  6  7  2  0  0  0
  6  8  1  0  0  0
  6  5  1  0  0  0
  5  4  1  0  0  0
  4  3  1  0  0  0
  3  2  1  0  0  0
  2  1  1  0  0  0
  1 10  1  0  0  0
 10 11  1  0  0  0
 11 12  1  0  0  0
 12 13  1  0  0  0
 13 14  1  0  0  0
 14 15  1  0  0  0
 15 16  1  0  0  0
 16 17  1  0  0  0
  8  9  1  0  0  0
M  END
> <minimizedAffinity>
-5.45399

$$$$
