4TKH_MYR_A_200
  RCSB PDB12061714443D
Coordinates from PDB:4TKH:A:200 Model:1 without hydrogens
 16 15  0  0  0  0            999 V2000
   -5.7400  -16.5240    1.6760   C 0  0  0  0  0  0  0  0  0  0  0  0
   -6.8180  -15.8740    1.5940   O 0  0  0  0  0  0  0  0  0  0  0  0
   -4.7320  -16.2750    0.9200   O 0  0  0  0  0  0  0  0  0  0  0  0
   -5.5730  -17.6190    2.6660   C 0  0  0  0  0  0  0  0  0  0  0  0
   -6.7970  -18.0390    3.4260   C 0  0  0  0  0  0  0  0  0  0  0  0
   -6.6110  -19.1940    4.3790   C 0  0  0  0  0  0  0  0  0  0  0  0
   -7.9170  -19.7050    4.9840   C 0  0  0  0  0  0  0  0  0  0  0  0
   -7.7300  -20.7740    6.0510   C 0  0  0  0  0  0  0  0  0  0  0  0
   -6.9130  -21.9740    5.6780   C 0  0  0  0  0  0  0  0  0  0  0  0
   -7.5080  -22.7380    4.5150   C 0  0  0  0  0  0  0  0  0  0  0  0
   -6.5840  -23.8510    4.0480   C 0  0  0  0  0  0  0  0  0  0  0  0
   -7.1250  -24.6830    2.9780   C 0  0  0  0  0  0  0  0  0  0  0  0
   -7.4640  -24.1310    1.7270   C 0  0  0  0  0  0  0  0  0  0  0  0
   -6.6070  -23.1160    1.2270   C 0  0  0  0  0  0  0  0  0  0  0  0
   -6.7020  -22.8150   -0.2430   C 0  0  0  0  0  0  0  0  0  0  0  0
   -7.0310  -21.3840   -0.5520   C 0  0  0  0  0  0  0  0  0  0  0  0
  1  2  2  0  0  0  0
  1  3  1  0  0  0  0
  1  4  1  0  0  0  0
  4  5  1  0  0  0  0
  5  6  1  0  0  0  0
  6  7  1  0  0  0  0
  7  8  1  0  0  0  0
  8  9  1  0  0  0  0
  9 10  1  0  0  0  0
 10 11  1  0  0  0  0
 11 12  1  0  0  0  0
 12 13  1  0  0  0  0
 13 14  1  0  0  0  0
 14 15  1  0  0  0  0
 15 16  1  0  0  0  0
A    1
C1
A    2
O1
A    3
O2
A    4
C2
A    5
C3
A    6
C4
A    7
C5
A    8
C6
A    9
C7
A   10
C8
A   11
C9
A   12
C10
A   13
C11
A   14
C12
A   15
C13
A   16
C14
M  END
>  <InstanceId>
4TKH_MYR_A_200

>  <ChemCompId>
MYR

>  <PdbId>
4TKH

>  <ChainId>
A

>  <ResidueNumber>
200

>  <InsertionCode>


>  <Model>
1

>  <AltIds>


>  <MissingHeavyAtoms>
0

>  <ObservedFormula>
C14 O2

>  <Name>
MYRISTIC ACID

>  <SystematicName>
tetradecanoic acid

>  <Synonyms>


>  <Type>
NON-POLYMER

>  <Formula>
C14 H28 O2

>  <MolecularWeight>
228.371

>  <ModifiedDate>
2014-04-23

>  <Parent>


>  <OneLetterCode>


>  <SubcomponentList>


>  <AmbiguousFlag>
N

>  <InChI>
InChI=1S/C14H28O2/c1-2-3-4-5-6-7-8-9-10-11-12-13-14(15)16/h2-13H2,1H3,(H,15,16)

>  <InChIKey>
TUNFSRHWOTWDNC-UHFFFAOYSA-N

>  <SMILES>
CCCCCCCCCCCCCC(=O)O

$$$$
