3MNA_DWH_A_263


 28 29  0  0  0  0  0  0  0  0999 V2000
   -3.6016    5.1722   13.4405 N   0  0  0  0  0  0  0  0  0  0  0  0
   -3.1386    5.9491   13.8295 H   0  0  0  0  0  0  0  0  0  0  0  0
   -3.4560    4.9577   12.0795 C   0  0  0  0  0  0  0  0  0  0  0  0
   -2.7724    3.7558   11.7812 N   0  0  0  0  0  0  0  0  0  0  0  0
   -2.5406    3.4701   10.5429 C   0  0  0  0  0  0  0  0  0  0  0  0
   -2.9383    4.3522    9.5158 N   0  0  0  0  0  0  0  0  0  0  0  0
   -3.5628    5.4511    9.8282 C   0  0  0  0  0  0  0  0  0  0  0  0
   -4.0684    6.4747    8.5745 Cl  0  0  0  0  0  0  0  0  0  0  0  0
   -3.8247    5.8051   11.1757 N   0  0  0  0  0  0  0  0  0  0  0  0
   -1.8400    2.2901   10.2138 N   0  0  0  0  0  0  0  0  0  0  0  0
   -1.3554    2.2091    9.3607 H   0  0  0  0  0  0  0  0  0  0  0  0
   -1.8552    1.2155   11.1573 C   0  0  0  0  0  0  0  0  0  0  0  0
   -3.0655    0.3901   10.8831 C   0  0  0  0  0  0  0  0  0  0  0  0
   -3.4313    0.1633    9.6984 O   0  0  0  0  0  0  0  0  0  0  0  0
   -4.3598    0.7149   12.7279 C   0  0  0  0  0  0  0  0  0  0  0  0
   -3.7101   -0.1196   11.8346 O   0  0  0  0  0  0  0  0  0  0  0  0
   -5.6067    2.7269   16.1935 C   0  0  0  0  0  0  0  0  0  0  0  0
   -6.3957    3.7198   15.4183 C   0  0  0  0  0  0  0  0  0  0  0  0
   -5.7938    4.5184   14.5055 C   0  0  0  0  0  0  0  0  0  0  0  0
   -4.3540    4.3724   14.3041 C   0  0  0  0  0  0  0  0  0  0  0  0
   -3.6200    3.4755   14.9910 C   0  0  0  0  0  0  0  0  0  0  0  0
   -4.2633    2.6242   15.9722 C   0  0  0  0  0  0  0  0  0  0  0  0
   -5.6056    0.3469   17.4246 N   0  0  0  0  0  0  0  0  0  0  0  0
   -7.7612    1.5491   16.8851 O   0  0  0  0  0  0  0  0  0  0  0  0
   -6.4064    1.7137   17.4034 S   0  0  0  0  0  0  0  0  0  0  0  0
   -6.2920    2.4331   18.6566 O   0  0  0  0  0  0  0  0  0  0  0  0
   -5.7133   -0.1242   16.5264 H   0  0  0  0  0  0  0  0  0  0  0  0
   -5.9705   -0.2495   18.1673 H   0  0  0  0  0  0  0  0  0  0  0  0
 18 17  2  0  0  0
 22 17  1  0  0  0
 17 25  1  0  0  0
 23 25  1  0  0  0
 24 25  2  0  0  0
 25 26  2  0  0  0
 19 18  1  0  0  0
 20 19  2  0  0  0
  1 20  1  0  0  0
 20 21  1  0  0  0
 21 22  2  0  0  0
  3  1  1  0  0  0
  4  3  2  0  0  0
  9  3  1  0  0  0
  5  4  1  0  0  0
 10  5  1  0  0  0
  6  5  2  0  0  0
 10 12  1  0  0  0
  6  7  1  0  0  0
  8  7  1  0  0  0
  7  9  2  0  0  0
 13 12  1  0  0  0
 14 13  2  0  0  0
 16 13  1  0  0  0
 15 16  1  0  0  0
 23 27  1  0  0  0
 23 28  1  0  0  0
  1  2  1  0  0  0
 10 11  1  0  0  0
M  END
> <minimizedAffinity>
-7.89007

$$$$
3MNA_DWH_A_263


 28 29  0  0  0  0  0  0  0  0999 V2000
   -3.6723    5.2438   13.4044 N   0  0  0  0  0  0  0  0  0  0  0  0
   -4.1249    6.1010   13.2324 H   0  0  0  0  0  0  0  0  0  0  0  0
   -2.5483    4.9522   12.6488 C   0  0  0  0  0  0  0  0  0  0  0  0
   -2.6724    3.7468   11.9190 N   0  0  0  0  0  0  0  0  0  0  0  0
   -1.6686    3.3504   11.2092 C   0  0  0  0  0  0  0  0  0  0  0  0
   -0.4681    4.0917   11.1860 N   0  0  0  0  0  0  0  0  0  0  0  0
   -0.3891    5.1950   11.8727 C   0  0  0  0  0  0  0  0  0  0  0  0
    1.0486    6.0907   11.7956 Cl  0  0  0  0  0  0  0  0  0  0  0  0
   -1.4646    5.6564   12.6729 N   0  0  0  0  0  0  0  0  0  0  0  0
   -1.7527    2.1399   10.4885 N   0  0  0  0  0  0  0  0  0  0  0  0
   -1.7027    2.1304    9.5053 H   0  0  0  0  0  0  0  0  0  0  0  0
   -1.9126    0.9275   11.2298 C   0  0  0  0  0  0  0  0  0  0  0  0
   -3.2504    0.3640   10.8920 C   0  0  0  0  0  0  0  0  0  0  0  0
   -3.6464    0.3270    9.6960 O   0  0  0  0  0  0  0  0  0  0  0  0
   -4.2830    0.6665   12.8986 C   0  0  0  0  0  0  0  0  0  0  0  0
   -3.9797   -0.1152   11.7971 O   0  0  0  0  0  0  0  0  0  0  0  0
   -5.5619    2.7764   16.2187 C   0  0  0  0  0  0  0  0  0  0  0  0
   -4.0863    2.6814   16.0674 C   0  0  0  0  0  0  0  0  0  0  0  0
   -3.4310    3.4710   15.1840 C   0  0  0  0  0  0  0  0  0  0  0  0
   -4.2138    4.4166   14.3915 C   0  0  0  0  0  0  0  0  0  0  0  0
   -5.5510    4.5240   14.5161 C   0  0  0  0  0  0  0  0  0  0  0  0
   -6.2533    3.6748   15.4579 C   0  0  0  0  0  0  0  0  0  0  0  0
   -5.6114    0.3426   17.3387 N   0  0  0  0  0  0  0  0  0  0  0  0
   -7.7429    1.5836   16.7913 O   0  0  0  0  0  0  0  0  0  0  0  0
   -6.4033    1.7146   17.3566 S   0  0  0  0  0  0  0  0  0  0  0  0
   -6.3223    2.3751   18.6444 O   0  0  0  0  0  0  0  0  0  0  0  0
   -5.6950   -0.0861   16.4169 H   0  0  0  0  0  0  0  0  0  0  0  0
   -6.0019   -0.2845   18.0420 H   0  0  0  0  0  0  0  0  0  0  0  0
 18 17  2  0  0  0
 22 17  1  0  0  0
 17 25  1  0  0  0
 23 25  1  0  0  0
 24 25  2  0  0  0
 25 26  2  0  0  0
 19 18  1  0  0  0
 20 19  2  0  0  0
  1 20  1  0  0  0
 20 21  1  0  0  0
 21 22  2  0  0  0
  3  1  1  0  0  0
  4  3  2  0  0  0
  9  3  1  0  0  0
  5  4  1  0  0  0
 10  5  1  0  0  0
  6  5  2  0  0  0
 10 12  1  0  0  0
  6  7  1  0  0  0
  8  7  1  0  0  0
  7  9  2  0  0  0
 13 12  1  0  0  0
 14 13  2  0  0  0
 16 13  1  0  0  0
 15 16  1  0  0  0
 23 27  1  0  0  0
 23 28  1  0  0  0
  1  2  1  0  0  0
 10 11  1  0  0  0
M  END
> <minimizedAffinity>
-7.81137

$$$$
3MNA_DWH_A_263


 28 29  0  0  0  0  0  0  0  0999 V2000
   -4.5049    5.9826   13.6635 N   0  0  0  0  0  0  0  0  0  0  0  0
   -4.2481    6.8327   14.0885 H   0  0  0  0  0  0  0  0  0  0  0  0
   -4.6059    5.9644   12.2818 C   0  0  0  0  0  0  0  0  0  0  0  0
   -3.6343    5.1389   11.6692 N   0  0  0  0  0  0  0  0  0  0  0  0
   -3.6044    5.0759   10.3793 C   0  0  0  0  0  0  0  0  0  0  0  0
   -4.5047    5.8354    9.6022 N   0  0  0  0  0  0  0  0  0  0  0  0
   -5.3836    6.5867   10.2007 C   0  0  0  0  0  0  0  0  0  0  0  0
   -6.4825    7.4572    9.2467 Cl  0  0  0  0  0  0  0  0  0  0  0  0
   -5.4399    6.6914   11.6133 N   0  0  0  0  0  0  0  0  0  0  0  0
   -2.6318    4.2797    9.7375 N   0  0  0  0  0  0  0  0  0  0  0  0
   -2.6300    4.1716    8.7590 H   0  0  0  0  0  0  0  0  0  0  0  0
   -1.6489    3.6348   10.5518 C   0  0  0  0  0  0  0  0  0  0  0  0
   -2.1926    2.3053   10.9492 C   0  0  0  0  0  0  0  0  0  0  0  0
   -2.3593    2.0188   12.1654 O   0  0  0  0  0  0  0  0  0  0  0  0
   -3.3315    0.4041   10.4271 C   0  0  0  0  0  0  0  0  0  0  0  0
   -2.5259    1.4715   10.0692 O   0  0  0  0  0  0  0  0  0  0  0  0
   -5.4995    2.7148   16.0947 C   0  0  0  0  0  0  0  0  0  0  0  0
   -4.0961    2.8493   15.6240 C   0  0  0  0  0  0  0  0  0  0  0  0
   -3.7247    3.8978   14.8518 C   0  0  0  0  0  0  0  0  0  0  0  0
   -4.7391    4.8892   14.5008 C   0  0  0  0  0  0  0  0  0  0  0  0
   -6.0153    4.7907   14.9209 C   0  0  0  0  0  0  0  0  0  0  0  0
   -6.4143    3.6654   15.7430 C   0  0  0  0  0  0  0  0  0  0  0  0
   -7.5555    1.2875   17.0516 N   0  0  0  0  0  0  0  0  0  0  0  0
   -5.4502    1.6339   18.4047 O   0  0  0  0  0  0  0  0  0  0  0  0
   -5.9718    1.3216   17.0775 S   0  0  0  0  0  0  0  0  0  0  0  0
   -5.3900    0.1649   16.4256 O   0  0  0  0  0  0  0  0  0  0  0  0
   -7.9211    2.1170   17.5193 H   0  0  0  0  0  0  0  0  0  0  0  0
   -7.8855    0.4518   17.5343 H   0  0  0  0  0  0  0  0  0  0  0  0
 18 17  2  0  0  0
 22 17  1  0  0  0
 17 25  1  0  0  0
 23 25  1  0  0  0
 24 25  2  0  0  0
 25 26  2  0  0  0
 19 18  1  0  0  0
 20 19  2  0  0  0
  1 20  1  0  0  0
 20 21  1  0  0  0
 21 22  2  0  0  0
  3  1  1  0  0  0
  4  3  2  0  0  0
  9  3  1  0  0  0
  5  4  1  0  0  0
 10  5  1  0  0  0
  6  5  2  0  0  0
 10 12  1  0  0  0
  6  7  1  0  0  0
  8  7  1  0  0  0
  7  9  2  0  0  0
 13 12  1  0  0  0
 14 13  2  0  0  0
 16 13  1  0  0  0
 15 16  1  0  0  0
 23 27  1  0  0  0
 23 28  1  0  0  0
  1  2  1  0  0  0
 10 11  1  0  0  0
M  END
> <minimizedAffinity>
-7.66165

$$$$
3MNA_DWH_A_263


 28 29  0  0  0  0  0  0  0  0999 V2000
   -4.0722    5.7805   13.7058 N   0  0  0  0  0  0  0  0  0  0  0  0
   -3.5950    6.4888   14.1954 H   0  0  0  0  0  0  0  0  0  0  0  0
   -4.1154    5.8771   12.3243 C   0  0  0  0  0  0  0  0  0  0  0  0
   -5.2523    6.5766   11.8561 N   0  0  0  0  0  0  0  0  0  0  0  0
   -5.4214    6.6937   10.5809 C   0  0  0  0  0  0  0  0  0  0  0  0
   -4.5050    6.1129    9.6786 N   0  0  0  0  0  0  0  0  0  0  0  0
   -3.4715    5.4737   10.1458 C   0  0  0  0  0  0  0  0  0  0  0  0
   -2.3615    4.8209    9.0425 Cl  0  0  0  0  0  0  0  0  0  0  0  0
   -3.2579    5.3136   11.5381 N   0  0  0  0  0  0  0  0  0  0  0  0
   -6.5580    7.3653   10.0820 N   0  0  0  0  0  0  0  0  0  0  0  0
   -7.3867    7.4212   10.6106 H   0  0  0  0  0  0  0  0  0  0  0  0
   -6.4694    7.9621    8.7855 C   0  0  0  0  0  0  0  0  0  0  0  0
   -7.6404    7.4939    7.9912 C   0  0  0  0  0  0  0  0  0  0  0  0
   -7.5001    6.6107    7.1029 O   0  0  0  0  0  0  0  0  0  0  0  0
   -9.1336    9.1915    7.7218 C   0  0  0  0  0  0  0  0  0  0  0  0
   -8.7872    7.9510    8.2291 O   0  0  0  0  0  0  0  0  0  0  0  0
   -5.5368    2.6385   16.0640 C   0  0  0  0  0  0  0  0  0  0  0  0
   -6.4595    3.7468   15.7041 C   0  0  0  0  0  0  0  0  0  0  0  0
   -6.0358    4.7735   14.9297 C   0  0  0  0  0  0  0  0  0  0  0  0
   -4.6529    4.7567   14.4582 C   0  0  0  0  0  0  0  0  0  0  0  0
   -3.8008    3.7599   14.7671 C   0  0  0  0  0  0  0  0  0  0  0  0
   -4.2527    2.6634   15.6007 C   0  0  0  0  0  0  0  0  0  0  0  0
   -5.6124    1.6811   18.5656 N   0  0  0  0  0  0  0  0  0  0  0  0
   -5.4252    0.1411   16.5715 O   0  0  0  0  0  0  0  0  0  0  0  0
   -6.1008    1.3215   17.1020 S   0  0  0  0  0  0  0  0  0  0  0  0
   -7.5461    1.3255   16.9923 O   0  0  0  0  0  0  0  0  0  0  0  0
   -4.5930    1.6667   18.5970 H   0  0  0  0  0  0  0  0  0  0  0  0
   -5.9826    0.9969   19.2253 H   0  0  0  0  0  0  0  0  0  0  0  0
 18 17  2  0  0  0
 22 17  1  0  0  0
 17 25  1  0  0  0
 23 25  1  0  0  0
 24 25  2  0  0  0
 25 26  2  0  0  0
 19 18  1  0  0  0
 20 19  2  0  0  0
  1 20  1  0  0  0
 20 21  1  0  0  0
 21 22  2  0  0  0
  3  1  1  0  0  0
  4  3  2  0  0  0
  9  3  1  0  0  0
  5  4  1  0  0  0
 10  5  1  0  0  0
  6  5  2  0  0  0
 10 12  1  0  0  0
  6  7  1  0  0  0
  8  7  1  0  0  0
  7  9  2  0  0  0
 13 12  1  0  0  0
 14 13  2  0  0  0
 16 13  1  0  0  0
 15 16  1  0  0  0
 23 27  1  0  0  0
 23 28  1  0  0  0
  1  2  1  0  0  0
 10 11  1  0  0  0
M  END
> <minimizedAffinity>
-7.29676

$$$$
3MNA_DWH_A_263


 28 29  0  0  0  0  0  0  0  0999 V2000
   -2.3840    3.8626   10.1712 N   0  0  0  0  0  0  0  0  0  0  0  0
   -2.9557    4.4608    9.6377 H   0  0  0  0  0  0  0  0  0  0  0  0
   -3.0140    2.9535   11.0056 C   0  0  0  0  0  0  0  0  0  0  0  0
   -3.3639    3.5070   12.2594 N   0  0  0  0  0  0  0  0  0  0  0  0
   -3.9206    2.7403   13.1374 C   0  0  0  0  0  0  0  0  0  0  0  0
   -4.1486    1.3760   12.8580 N   0  0  0  0  0  0  0  0  0  0  0  0
   -3.8107    0.9006   11.6940 C   0  0  0  0  0  0  0  0  0  0  0  0
   -4.1333   -0.7315   11.3659 Cl  0  0  0  0  0  0  0  0  0  0  0  0
   -3.1869    1.7073   10.7092 N   0  0  0  0  0  0  0  0  0  0  0  0
   -4.2599    3.2567   14.4062 N   0  0  0  0  0  0  0  0  0  0  0  0
   -3.9218    4.1318   14.7047 H   0  0  0  0  0  0  0  0  0  0  0  0
   -5.1099    2.4701   15.2452 C   0  0  0  0  0  0  0  0  0  0  0  0
   -4.2396    1.7205   16.1949 C   0  0  0  0  0  0  0  0  0  0  0  0
   -3.0148    1.9998   16.2984 O   0  0  0  0  0  0  0  0  0  0  0  0
   -6.0360    0.9646   17.3722 C   0  0  0  0  0  0  0  0  0  0  0  0
   -4.7314    0.8268   16.9299 O   0  0  0  0  0  0  0  0  0  0  0  0
    1.7141    4.4277    9.4893 C   0  0  0  0  0  0  0  0  0  0  0  0
    1.2562    4.1479   10.8754 C   0  0  0  0  0  0  0  0  0  0  0  0
   -0.0554    3.9410   11.1403 C   0  0  0  0  0  0  0  0  0  0  0  0
   -1.0009    3.9970   10.0277 C   0  0  0  0  0  0  0  0  0  0  0  0
   -0.6078    4.2432    8.7628 C   0  0  0  0  0  0  0  0  0  0  0  0
    0.7957    4.4701    8.4799 C   0  0  0  0  0  0  0  0  0  0  0  0
    4.0434    5.2419   10.5340 N   0  0  0  0  0  0  0  0  0  0  0  0
    3.4193    5.7635    8.1420 O   0  0  0  0  0  0  0  0  0  0  0  0
    3.4283    4.7254    9.1684 S   0  0  0  0  0  0  0  0  0  0  0  0
    3.9817    3.4465    8.7694 O   0  0  0  0  0  0  0  0  0  0  0  0
    3.6272    6.1412   10.7757 H   0  0  0  0  0  0  0  0  0  0  0  0
    5.0526    5.3505   10.4328 H   0  0  0  0  0  0  0  0  0  0  0  0
 18 17  2  0  0  0
 22 17  1  0  0  0
 17 25  1  0  0  0
 23 25  1  0  0  0
 24 25  2  0  0  0
 25 26  2  0  0  0
 19 18  1  0  0  0
 20 19  2  0  0  0
  1 20  1  0  0  0
 20 21  1  0  0  0
 21 22  2  0  0  0
  3  1  1  0  0  0
  4  3  2  0  0  0
  9  3  1  0  0  0
  5  4  1  0  0  0
 10  5  1  0  0  0
  6  5  2  0  0  0
 10 12  1  0  0  0
  6  7  1  0  0  0
  8  7  1  0  0  0
  7  9  2  0  0  0
 13 12  1  0  0  0
 14 13  2  0  0  0
 16 13  1  0  0  0
 15 16  1  0  0  0
 23 27  1  0  0  0
 23 28  1  0  0  0
  1  2  1  0  0  0
 10 11  1  0  0  0
M  END
> <minimizedAffinity>
-7.18636

$$$$
3MNA_DWH_A_263


 28 29  0  0  0  0  0  0  0  0999 V2000
   -3.4751    5.2669   13.6651 N   0  0  0  0  0  0  0  0  0  0  0  0
   -3.1888    6.1535   13.9833 H   0  0  0  0  0  0  0  0  0  0  0  0
   -3.2627    4.9690   12.3287 C   0  0  0  0  0  0  0  0  0  0  0  0
   -3.9764    5.8212   11.4540 N   0  0  0  0  0  0  0  0  0  0  0  0
   -3.8887    5.6117   10.1824 C   0  0  0  0  0  0  0  0  0  0  0  0
   -3.1188    4.5400    9.6825 N   0  0  0  0  0  0  0  0  0  0  0  0
   -2.4777    3.7743   10.5178 C   0  0  0  0  0  0  0  0  0  0  0  0
   -1.5250    2.5191    9.8916 Cl  0  0  0  0  0  0  0  0  0  0  0  0
   -2.5587    3.9648   11.9203 N   0  0  0  0  0  0  0  0  0  0  0  0
   -4.6077    6.4298    9.2848 N   0  0  0  0  0  0  0  0  0  0  0  0
   -4.7178    6.1723    8.3409 H   0  0  0  0  0  0  0  0  0  0  0  0
   -5.1713    7.6440    9.7879 C   0  0  0  0  0  0  0  0  0  0  0  0
   -6.6524    7.4798    9.8101 C   0  0  0  0  0  0  0  0  0  0  0  0
   -7.3556    8.1204   10.6372 O   0  0  0  0  0  0  0  0  0  0  0  0
   -8.0504    7.2879    8.0232 C   0  0  0  0  0  0  0  0  0  0  0  0
   -7.2162    6.7275    8.9753 O   0  0  0  0  0  0  0  0  0  0  0  0
   -5.5073    2.7389   16.3217 C   0  0  0  0  0  0  0  0  0  0  0  0
   -4.0499    2.5310   16.1171 C   0  0  0  0  0  0  0  0  0  0  0  0
   -3.3487    3.3342   15.2825 C   0  0  0  0  0  0  0  0  0  0  0  0
   -4.0637    4.4079   14.5962 C   0  0  0  0  0  0  0  0  0  0  0  0
   -5.3829    4.6185   14.7709 C   0  0  0  0  0  0  0  0  0  0  0  0
   -6.1348    3.7552   15.6601 C   0  0  0  0  0  0  0  0  0  0  0  0
   -5.6631    0.2646   17.3383 N   0  0  0  0  0  0  0  0  0  0  0  0
   -7.7392    1.5953   16.7888 O   0  0  0  0  0  0  0  0  0  0  0  0
   -6.4117    1.6597   17.3929 S   0  0  0  0  0  0  0  0  0  0  0  0
   -6.3445    2.2644   18.7085 O   0  0  0  0  0  0  0  0  0  0  0  0
   -5.7354   -0.1235   16.3978 H   0  0  0  0  0  0  0  0  0  0  0  0
   -6.0917   -0.3775   18.0049 H   0  0  0  0  0  0  0  0  0  0  0  0
 18 17  2  0  0  0
 22 17  1  0  0  0
 17 25  1  0  0  0
 23 25  1  0  0  0
 24 25  2  0  0  0
 25 26  2  0  0  0
 19 18  1  0  0  0
 20 19  2  0  0  0
  1 20  1  0  0  0
 20 21  1  0  0  0
 21 22  2  0  0  0
  3  1  1  0  0  0
  4  3  2  0  0  0
  9  3  1  0  0  0
  5  4  1  0  0  0
 10  5  1  0  0  0
  6  5  2  0  0  0
 10 12  1  0  0  0
  6  7  1  0  0  0
  8  7  1  0  0  0
  7  9  2  0  0  0
 13 12  1  0  0  0
 14 13  2  0  0  0
 16 13  1  0  0  0
 15 16  1  0  0  0
 23 27  1  0  0  0
 23 28  1  0  0  0
  1  2  1  0  0  0
 10 11  1  0  0  0
M  END
> <minimizedAffinity>
-7.08489

$$$$
3MNA_DWH_A_263


 28 29  0  0  0  0  0  0  0  0999 V2000
   -4.5622    6.5182   12.9027 N   0  0  0  0  0  0  0  0  0  0  0  0
   -3.7923    7.0689   13.1729 H   0  0  0  0  0  0  0  0  0  0  0  0
   -4.8472    5.3994   13.6687 C   0  0  0  0  0  0  0  0  0  0  0  0
   -4.1736    4.2389   13.2209 N   0  0  0  0  0  0  0  0  0  0  0  0
   -4.3945    3.1235   13.8338 C   0  0  0  0  0  0  0  0  0  0  0  0
   -5.3077    3.0628   14.9079 N   0  0  0  0  0  0  0  0  0  0  0  0
   -5.9117    4.1508   15.2907 C   0  0  0  0  0  0  0  0  0  0  0  0
   -6.9723    4.0615   16.6107 Cl  0  0  0  0  0  0  0  0  0  0  0  0
   -5.7047    5.3910   14.6359 N   0  0  0  0  0  0  0  0  0  0  0  0
   -3.7559    1.9434   13.3962 N   0  0  0  0  0  0  0  0  0  0  0  0
   -3.0284    1.5363   13.9199 H   0  0  0  0  0  0  0  0  0  0  0  0
   -4.1977    1.3571   12.1689 C   0  0  0  0  0  0  0  0  0  0  0  0
   -3.0157    0.7228   11.5195 C   0  0  0  0  0  0  0  0  0  0  0  0
   -3.1236   -0.3926   10.9424 O   0  0  0  0  0  0  0  0  0  0  0  0
   -1.6808    2.2985   10.5607 C   0  0  0  0  0  0  0  0  0  0  0  0
   -1.9074    1.3164   11.5096 O   0  0  0  0  0  0  0  0  0  0  0  0
   -6.5938    7.5124    9.3725 C   0  0  0  0  0  0  0  0  0  0  0  0
   -7.1774    7.9369   10.6719 C   0  0  0  0  0  0  0  0  0  0  0  0
   -6.5475    7.6537   11.8366 C   0  0  0  0  0  0  0  0  0  0  0  0
   -5.2820    6.9259   11.7769 C   0  0  0  0  0  0  0  0  0  0  0  0
   -4.7316    6.5365   10.6105 C   0  0  0  0  0  0  0  0  0  0  0  0
   -5.4086    6.8347    9.3639 C   0  0  0  0  0  0  0  0  0  0  0  0
   -6.6964    9.1016    7.2175 N   0  0  0  0  0  0  0  0  0  0  0  0
   -8.7992    8.2077    8.2954 O   0  0  0  0  0  0  0  0  0  0  0  0
   -7.4474    7.8653    7.8635 S   0  0  0  0  0  0  0  0  0  0  0  0
   -7.3263    6.6690    7.0540 O   0  0  0  0  0  0  0  0  0  0  0  0
   -6.8074    9.9185    7.8181 H   0  0  0  0  0  0  0  0  0  0  0  0
   -7.0936    9.2985    6.2988 H   0  0  0  0  0  0  0  0  0  0  0  0
 18 17  2  0  0  0
 22 17  1  0  0  0
 17 25  1  0  0  0
 23 25  1  0  0  0
 24 25  2  0  0  0
 25 26  2  0  0  0
 19 18  1  0  0  0
 20 19  2  0  0  0
  1 20  1  0  0  0
 20 21  1  0  0  0
 21 22  2  0  0  0
  3  1  1  0  0  0
  4  3  2  0  0  0
  9  3  1  0  0  0
  5  4  1  0  0  0
 10  5  1  0  0  0
  6  5  2  0  0  0
 10 12  1  0  0  0
  6  7  1  0  0  0
  8  7  1  0  0  0
  7  9  2  0  0  0
 13 12  1  0  0  0
 14 13  2  0  0  0
 16 13  1  0  0  0
 15 16  1  0  0  0
 23 27  1  0  0  0
 23 28  1  0  0  0
  1  2  1  0  0  0
 10 11  1  0  0  0
M  END
> <minimizedAffinity>
-6.87147

$$$$
3MNA_DWH_A_263


 28 29  0  0  0  0  0  0  0  0999 V2000
   -3.9254    5.6864   10.7139 N   0  0  0  0  0  0  0  0  0  0  0  0
   -3.0202    6.0478   10.8524 H   0  0  0  0  0  0  0  0  0  0  0  0
   -4.2186    4.4608   11.2897 C   0  0  0  0  0  0  0  0  0  0  0  0
   -4.0637    4.4614   12.6957 N   0  0  0  0  0  0  0  0  0  0  0  0
   -4.2695    3.3600   13.3386 C   0  0  0  0  0  0  0  0  0  0  0  0
   -4.6147    2.1791   12.6477 N   0  0  0  0  0  0  0  0  0  0  0  0
   -4.7455    2.2154   11.3529 C   0  0  0  0  0  0  0  0  0  0  0  0
   -5.2025    0.7940   10.5490 Cl  0  0  0  0  0  0  0  0  0  0  0  0
   -4.5165    3.4017   10.6111 N   0  0  0  0  0  0  0  0  0  0  0  0
   -4.1000    3.3223   14.7391 N   0  0  0  0  0  0  0  0  0  0  0  0
   -3.2841    3.6767   15.1611 H   0  0  0  0  0  0  0  0  0  0  0  0
   -5.1494    2.7537   15.5269 C   0  0  0  0  0  0  0  0  0  0  0  0
   -4.5432    1.7121   16.4036 C   0  0  0  0  0  0  0  0  0  0  0  0
   -3.3616    1.3188   16.2084 O   0  0  0  0  0  0  0  0  0  0  0  0
   -6.0606    2.0763   18.0616 C   0  0  0  0  0  0  0  0  0  0  0  0
   -5.1955    1.2446   17.3714 O   0  0  0  0  0  0  0  0  0  0  0  0
   -6.6772    8.1131    8.6848 C   0  0  0  0  0  0  0  0  0  0  0  0
   -5.5251    7.5582    7.9272 C   0  0  0  0  0  0  0  0  0  0  0  0
   -4.6210    6.7551    8.5364 C   0  0  0  0  0  0  0  0  0  0  0  0
   -4.8137    6.4494    9.9522 C   0  0  0  0  0  0  0  0  0  0  0  0
   -5.8535    6.9363   10.6571 C   0  0  0  0  0  0  0  0  0  0  0  0
   -6.8184    7.8005   10.0063 C   0  0  0  0  0  0  0  0  0  0  0  0
   -7.4824    9.1168    6.3344 N   0  0  0  0  0  0  0  0  0  0  0  0
   -7.5481   10.4990    8.4482 O   0  0  0  0  0  0  0  0  0  0  0  0
   -7.8307    9.1850    7.8783 S   0  0  0  0  0  0  0  0  0  0  0  0
   -9.1425    8.6397    8.1668 O   0  0  0  0  0  0  0  0  0  0  0  0
   -6.5541    9.5095    6.1776 H   0  0  0  0  0  0  0  0  0  0  0  0
   -8.1716    9.6520    5.8063 H   0  0  0  0  0  0  0  0  0  0  0  0
 18 17  2  0  0  0
 22 17  1  0  0  0
 17 25  1  0  0  0
 23 25  1  0  0  0
 24 25  2  0  0  0
 25 26  2  0  0  0
 19 18  1  0  0  0
 20 19  2  0  0  0
  1 20  1  0  0  0
 20 21  1  0  0  0
 21 22  2  0  0  0
  3  1  1  0  0  0
  4  3  2  0  0  0
  9  3  1  0  0  0
  5  4  1  0  0  0
 10  5  1  0  0  0
  6  5  2  0  0  0
 10 12  1  0  0  0
  6  7  1  0  0  0
  8  7  1  0  0  0
  7  9  2  0  0  0
 13 12  1  0  0  0
 14 13  2  0  0  0
 16 13  1  0  0  0
 15 16  1  0  0  0
 23 27  1  0  0  0
 23 28  1  0  0  0
  1  2  1  0  0  0
 10 11  1  0  0  0
M  END
> <minimizedAffinity>
-6.84778

$$$$
3MNA_DWH_A_263


 28 29  0  0  0  0  0  0  0  0999 V2000
   -3.5946    5.2066   13.5072 N   0  0  0  0  0  0  0  0  0  0  0  0
   -3.5858    6.1795   13.6576 H   0  0  0  0  0  0  0  0  0  0  0  0
   -2.8528    4.7182   12.4437 C   0  0  0  0  0  0  0  0  0  0  0  0
   -2.5714    5.7043   11.4694 N   0  0  0  0  0  0  0  0  0  0  0  0
   -1.9202    5.3550   10.4098 C   0  0  0  0  0  0  0  0  0  0  0  0
   -1.5237    4.0142   10.2200 N   0  0  0  0  0  0  0  0  0  0  0  0
   -1.8028    3.1330   11.1369 C   0  0  0  0  0  0  0  0  0  0  0  0
   -1.2789    1.5368   10.9064 Cl  0  0  0  0  0  0  0  0  0  0  0  0
   -2.5259    3.4751   12.3073 N   0  0  0  0  0  0  0  0  0  0  0  0
   -1.6445    6.3104    9.4083 N   0  0  0  0  0  0  0  0  0  0  0  0
   -1.2541    7.1852    9.6355 H   0  0  0  0  0  0  0  0  0  0  0  0
   -1.9494    5.9692    8.0535 C   0  0  0  0  0  0  0  0  0  0  0  0
   -3.4286    6.0473    7.8893 C   0  0  0  0  0  0  0  0  0  0  0  0
   -4.0918    5.0261    7.5631 O   0  0  0  0  0  0  0  0  0  0  0  0
   -4.9357    7.5979    7.1765 C   0  0  0  0  0  0  0  0  0  0  0  0
   -4.0319    7.1273    8.1135 O   0  0  0  0  0  0  0  0  0  0  0  0
   -5.6179    2.8076   16.2874 C   0  0  0  0  0  0  0  0  0  0  0  0
   -6.3871    3.8438   15.5499 C   0  0  0  0  0  0  0  0  0  0  0  0
   -5.7796    4.6297   14.6298 C   0  0  0  0  0  0  0  0  0  0  0  0
   -4.3539    4.4265   14.3826 C   0  0  0  0  0  0  0  0  0  0  0  0
   -3.6383    3.4898   15.0348 C   0  0  0  0  0  0  0  0  0  0  0  0
   -4.2873    2.6520   16.0239 C   0  0  0  0  0  0  0  0  0  0  0  0
   -5.5665    0.4834   17.6198 N   0  0  0  0  0  0  0  0  0  0  0  0
   -7.7471    1.5655   16.9438 O   0  0  0  0  0  0  0  0  0  0  0  0
   -6.4231    1.8114   17.5077 S   0  0  0  0  0  0  0  0  0  0  0  0
   -6.3914    2.5867   18.7320 O   0  0  0  0  0  0  0  0  0  0  0  0
   -5.6168   -0.0290   16.7394 H   0  0  0  0  0  0  0  0  0  0  0  0
   -5.9361   -0.0970   18.3727 H   0  0  0  0  0  0  0  0  0  0  0  0
 18 17  2  0  0  0
 22 17  1  0  0  0
 17 25  1  0  0  0
 23 25  1  0  0  0
 24 25  2  0  0  0
 25 26  2  0  0  0
 19 18  1  0  0  0
 20 19  2  0  0  0
  1 20  1  0  0  0
 20 21  1  0  0  0
 21 22  2  0  0  0
  3  1  1  0  0  0
  4  3  2  0  0  0
  9  3  1  0  0  0
  5  4  1  0  0  0
 10  5  1  0  0  0
  6  5  2  0  0  0
 10 12  1  0  0  0
  6  7  1  0  0  0
  8  7  1  0  0  0
  7  9  2  0  0  0
 13 12  1  0  0  0
 14 13  2  0  0  0
 16 13  1  0  0  0
 15 16  1  0  0  0
 23 27  1  0  0  0
 23 28  1  0  0  0
  1  2  1  0  0  0
 10 11  1  0  0  0
M  END
> <minimizedAffinity>
-6.68209

$$$$
3MNA_DWH_A_263


 28 29  0  0  0  0  0  0  0  0999 V2000
   -4.8236    6.9049   12.2509 N   0  0  0  0  0  0  0  0  0  0  0  0
   -4.1586    7.5449   12.5936 H   0  0  0  0  0  0  0  0  0  0  0  0
   -4.9035    5.6710   12.8759 C   0  0  0  0  0  0  0  0  0  0  0  0
   -4.1969    4.6576   12.1869 N   0  0  0  0  0  0  0  0  0  0  0  0
   -4.2346    3.4539   12.6542 C   0  0  0  0  0  0  0  0  0  0  0  0
   -4.9861    3.1558   13.8107 N   0  0  0  0  0  0  0  0  0  0  0  0
   -5.6264    4.1136   14.4171 C   0  0  0  0  0  0  0  0  0  0  0  0
   -6.4878    3.7392   15.8288 Cl  0  0  0  0  0  0  0  0  0  0  0  0
   -5.6191    5.4443   13.9283 N   0  0  0  0  0  0  0  0  0  0  0  0
   -3.5595    2.4162   11.9766 N   0  0  0  0  0  0  0  0  0  0  0  0
   -2.8435    2.6140   11.3306 H   0  0  0  0  0  0  0  0  0  0  0  0
   -3.9472    1.0685   12.2569 C   0  0  0  0  0  0  0  0  0  0  0  0
   -4.0062    0.3360   10.9603 C   0  0  0  0  0  0  0  0  0  0  0  0
   -4.9039    0.5999   10.1157 O   0  0  0  0  0  0  0  0  0  0  0  0
   -3.0491   -1.6682   11.4616 C   0  0  0  0  0  0  0  0  0  0  0  0
   -3.1346   -0.5267   10.6831 O   0  0  0  0  0  0  0  0  0  0  0  0
   -7.2736    8.3681    9.1792 C   0  0  0  0  0  0  0  0  0  0  0  0
   -6.1515    7.4612    8.8222 C   0  0  0  0  0  0  0  0  0  0  0  0
   -5.3451    6.9501    9.7824 C   0  0  0  0  0  0  0  0  0  0  0  0
   -5.6127    7.3121   11.1724 C   0  0  0  0  0  0  0  0  0  0  0  0
   -6.6275    8.1274   11.5197 C   0  0  0  0  0  0  0  0  0  0  0  0
   -7.4874    8.6791   10.4914 C   0  0  0  0  0  0  0  0  0  0  0  0
   -9.7246    8.3890    8.0965 N   0  0  0  0  0  0  0  0  0  0  0  0
   -7.6528    8.6218    6.6695 O   0  0  0  0  0  0  0  0  0  0  0  0
   -8.2972    9.0499    7.9074 S   0  0  0  0  0  0  0  0  0  0  0  0
   -8.3215   10.4795    8.1460 O   0  0  0  0  0  0  0  0  0  0  0  0
   -9.6612    7.3865    7.9195 H   0  0  0  0  0  0  0  0  0  0  0  0
  -10.3833    8.8090    7.4407 H   0  0  0  0  0  0  0  0  0  0  0  0
 18 17  2  0  0  0
 22 17  1  0  0  0
 17 25  1  0  0  0
 23 25  1  0  0  0
 24 25  2  0  0  0
 25 26  2  0  0  0
 19 18  1  0  0  0
 20 19  2  0  0  0
  1 20  1  0  0  0
 20 21  1  0  0  0
 21 22  2  0  0  0
  3  1  1  0  0  0
  4  3  2  0  0  0
  9  3  1  0  0  0
  5  4  1  0  0  0
 10  5  1  0  0  0
  6  5  2  0  0  0
 10 12  1  0  0  0
  6  7  1  0  0  0
  8  7  1  0  0  0
  7  9  2  0  0  0
 13 12  1  0  0  0
 14 13  2  0  0  0
 16 13  1  0  0  0
 15 16  1  0  0  0
 23 27  1  0  0  0
 23 28  1  0  0  0
  1  2  1  0  0  0
 10 11  1  0  0  0
M  END
> <minimizedAffinity>
-6.47925

$$$$
