3NUO_478_B_478


 39 41  0  0  0  0  0  0  0  0999 V2000
   13.5155   19.7763   17.9030 C   0  0  0  0  0  0  0  0  0  0  0  0
   14.6208   18.9791   18.3305 O   0  0  0  0  0  0  0  0  0  0  0  0
   14.9946   18.5094   17.5685 H   0  0  0  0  0  0  0  0  0  0  0  0
   13.9984   20.8373   16.9134 C   0  0  0  0  0  0  0  0  0  0  0  0
   14.6718   23.0233   17.8972 C   0  0  0  0  0  0  0  0  0  0  0  0
   14.9230   21.7470   17.5818 N   0  0  0  0  0  0  0  0  0  0  0  0
   13.5823   23.5838   17.7650 O   0  0  0  0  0  0  0  0  0  0  0  0
   15.8090   21.3910   17.8217 H   0  0  0  0  0  0  0  0  0  0  0  0
   15.7563   23.6274   18.4667 O   0  0  0  0  0  0  0  0  0  0  0  0
   16.8929   25.5658   19.3580 C   0  0  0  0  0  0  0  0  0  0  0  0
   14.9908   24.6681   20.4892 C   0  0  0  0  0  0  0  0  0  0  0  0
   15.5465   24.9182   19.0719 C   0  0  0  0  0  0  0  0  0  0  0  0
   16.1556   25.0080   21.4011 C   0  0  0  0  0  0  0  0  0  0  0  0
   17.3193   25.0182   20.6001 O   0  0  0  0  0  0  0  0  0  0  0  0
   14.7316   20.2681   15.7060 C   0  0  0  0  0  0  0  0  0  0  0  0
   15.0216   21.3431   14.6735 C   0  0  0  0  0  0  0  0  0  0  0  0
   16.2807   21.9375   14.5859 C   0  0  0  0  0  0  0  0  0  0  0  0
   14.0454   21.7217   13.7804 C   0  0  0  0  0  0  0  0  0  0  0  0
   16.4936   22.9964   13.6940 C   0  0  0  0  0  0  0  0  0  0  0  0
   14.2540   22.7113   12.8353 C   0  0  0  0  0  0  0  0  0  0  0  0
   15.4894   23.3256   12.7988 C   0  0  0  0  0  0  0  0  0  0  0  0
   12.4610   18.8214   17.3219 C   0  0  0  0  0  0  0  0  0  0  0  0
   11.1167   19.3791   17.4238 N   0  0  0  0  0  0  0  0  0  0  0  0
   11.2403   20.3249   15.0778 O   0  0  0  0  0  0  0  0  0  0  0  0
    9.0690   20.4527   16.3301 O   0  0  0  0  0  0  0  0  0  0  0  0
   10.2951   19.6990   16.0372 S   0  0  0  0  0  0  0  0  0  0  0  0
    9.7786   18.1776   15.2753 C   0  0  0  0  0  0  0  0  0  0  0  0
    8.5925   17.5686   15.6176 C   0  0  0  0  0  0  0  0  0  0  0  0
    8.0964   16.4340   14.9826 C   0  0  0  0  0  0  0  0  0  0  0  0
    8.8507   15.8585   13.9641 C   0  0  0  0  0  0  0  0  0  0  0  0
   10.0950   16.4174   13.6775 C   0  0  0  0  0  0  0  0  0  0  0  0
   10.5487   17.5958   14.2951 C   0  0  0  0  0  0  0  0  0  0  0  0
    8.3686   14.7875   13.3086 N   0  0  0  0  0  0  0  0  0  0  0  0
    7.4841   14.4242   13.5427 H   0  0  0  0  0  0  0  0  0  0  0  0
    8.9003   14.3670   12.5946 H   0  0  0  0  0  0  0  0  0  0  0  0
   10.3000   18.9388   18.5550 C   0  0  0  0  0  0  0  0  0  0  0  0
   10.5411   19.7434   19.8342 C   0  0  0  0  0  0  0  0  0  0  0  0
   10.2115   21.2195   19.6002 C   0  0  0  0  0  0  0  0  0  0  0  0
    9.5938   19.1999   20.9144 C   0  0  0  0  0  0  0  0  0  0  0  0
 10 12  1  0  0  0
 10 14  1  0  0  0
 11 12  1  0  0  0
 11 13  1  0  0  0
  5  6  1  0  0  0
  5  9  1  0  0  0
  5  7  2  0  0  0
 12  9  1  0  0  0
  4  1  1  0  0  0
  4 15  1  0  0  0
  4  6  1  0  0  0
  1 22  1  0  0  0
  1  2  1  0  0  0
 15 16  1  0  0  0
 16 17  2  0  0  0
 16 18  1  0  0  0
 17 19  1  0  0  0
 18 20  2  0  0  0
 19 21  2  0  0  0
 20 21  1  0  0  0
 22 23  1  0  0  0
 36 37  1  0  0  0
 36 23  1  0  0  0
 37 38  1  0  0  0
 37 39  1  0  0  0
 27 28  2  0  0  0
 27 32  1  0  0  0
 27 26  1  0  0  0
 28 29  1  0  0  0
 29 30  2  0  0  0
 30 31  1  0  0  0
 30 33  1  0  0  0
 31 32  2  0  0  0
 13 14  1  0  0  0
 23 26  1  0  0  0
 24 26  2  0  0  0
 25 26  2  0  0  0
  6  8  1  0  0  0
 33 34  1  0  0  0
 33 35  1  0  0  0
  2  3  1  0  0  0
M  END
> <minimizedAffinity>
-9.97798

$$$$
3NUO_478_B_478


 39 41  0  0  0  0  0  0  0  0999 V2000
   13.8342   20.3838   16.3080 C   0  0  0  0  0  0  0  0  0  0  0  0
   14.2192   19.2735   15.4963 O   0  0  0  0  0  0  0  0  0  0  0  0
   14.0059   19.4617   14.5690 H   0  0  0  0  0  0  0  0  0  0  0  0
   14.6379   21.6202   15.9037 C   0  0  0  0  0  0  0  0  0  0  0  0
   14.6790   23.0991   17.9066 C   0  0  0  0  0  0  0  0  0  0  0  0
   15.2552   22.2125   17.0859 N   0  0  0  0  0  0  0  0  0  0  0  0
   13.5032   23.4624   17.8429 O   0  0  0  0  0  0  0  0  0  0  0  0
   16.1758   21.9357   17.2985 H   0  0  0  0  0  0  0  0  0  0  0  0
   15.5327   23.5070   18.8915 O   0  0  0  0  0  0  0  0  0  0  0  0
   17.2018   25.2095   19.2905 C   0  0  0  0  0  0  0  0  0  0  0  0
   15.0846   25.3282   20.3888 C   0  0  0  0  0  0  0  0  0  0  0  0
   15.7275   24.9265   19.0452 C   0  0  0  0  0  0  0  0  0  0  0  0
   16.2729   25.5928   21.2953 C   0  0  0  0  0  0  0  0  0  0  0  0
   17.4002   25.0000   20.6839 O   0  0  0  0  0  0  0  0  0  0  0  0
   15.7600   21.3318   14.9151 C   0  0  0  0  0  0  0  0  0  0  0  0
   16.0780   22.5485   14.0640 C   0  0  0  0  0  0  0  0  0  0  0  0
   15.0828   23.4585   13.7067 C   0  0  0  0  0  0  0  0  0  0  0  0
   17.3719   22.7880   13.6609 C   0  0  0  0  0  0  0  0  0  0  0  0
   15.3813   24.5162   12.8382 C   0  0  0  0  0  0  0  0  0  0  0  0
   17.7088   23.8707   12.8669 C   0  0  0  0  0  0  0  0  0  0  0  0
   16.7015   24.7309   12.4790 C   0  0  0  0  0  0  0  0  0  0  0  0
   12.3147   20.5559   16.1563 C   0  0  0  0  0  0  0  0  0  0  0  0
   11.5868   19.8552   17.2088 N   0  0  0  0  0  0  0  0  0  0  0  0
   10.5337   21.9780   18.1022 O   0  0  0  0  0  0  0  0  0  0  0  0
   12.2678   20.8030   19.4846 O   0  0  0  0  0  0  0  0  0  0  0  0
   11.1421   20.6984   18.5472 S   0  0  0  0  0  0  0  0  0  0  0  0
    9.8514   19.8298   19.4084 C   0  0  0  0  0  0  0  0  0  0  0  0
   10.0816   19.2162   20.6189 C   0  0  0  0  0  0  0  0  0  0  0  0
    9.0853   18.6107   21.3787 C   0  0  0  0  0  0  0  0  0  0  0  0
    7.7862   18.5930   20.8793 C   0  0  0  0  0  0  0  0  0  0  0  0
    7.5663   19.1310   19.6124 C   0  0  0  0  0  0  0  0  0  0  0  0
    8.5783   19.7858   18.8892 C   0  0  0  0  0  0  0  0  0  0  0  0
    6.8011   18.0515   21.6178 N   0  0  0  0  0  0  0  0  0  0  0  0
    6.9998   17.6822   22.5086 H   0  0  0  0  0  0  0  0  0  0  0  0
    5.8814   18.0243   21.2677 H   0  0  0  0  0  0  0  0  0  0  0  0
   10.6606   18.8039   16.7877 C   0  0  0  0  0  0  0  0  0  0  0  0
   10.3220   18.8477   15.2959 C   0  0  0  0  0  0  0  0  0  0  0  0
   10.8375   17.5862   14.5995 C   0  0  0  0  0  0  0  0  0  0  0  0
    8.7920   18.8841   15.1642 C   0  0  0  0  0  0  0  0  0  0  0  0
 10 12  1  0  0  0
 10 14  1  0  0  0
 11 12  1  0  0  0
 11 13  1  0  0  0
  5  6  1  0  0  0
  5  9  1  0  0  0
  5  7  2  0  0  0
 12  9  1  0  0  0
  4  1  1  0  0  0
  4 15  1  0  0  0
  4  6  1  0  0  0
  1 22  1  0  0  0
  1  2  1  0  0  0
 15 16  1  0  0  0
 16 17  2  0  0  0
 16 18  1  0  0  0
 17 19  1  0  0  0
 18 20  2  0  0  0
 19 21  2  0  0  0
 20 21  1  0  0  0
 22 23  1  0  0  0
 36 37  1  0  0  0
 36 23  1  0  0  0
 37 38  1  0  0  0
 37 39  1  0  0  0
 27 28  2  0  0  0
 27 32  1  0  0  0
 27 26  1  0  0  0
 28 29  1  0  0  0
 29 30  2  0  0  0
 30 31  1  0  0  0
 30 33  1  0  0  0
 31 32  2  0  0  0
 13 14  1  0  0  0
 23 26  1  0  0  0
 24 26  2  0  0  0
 25 26  2  0  0  0
  6  8  1  0  0  0
 33 34  1  0  0  0
 33 35  1  0  0  0
  2  3  1  0  0  0
M  END
> <minimizedAffinity>
-9.52130

$$$$
3NUO_478_B_478


 39 41  0  0  0  0  0  0  0  0999 V2000
   10.7394   21.0006   18.4588 C   0  0  0  0  0  0  0  0  0  0  0  0
    9.8242   21.7666   19.2432 O   0  0  0  0  0  0  0  0  0  0  0  0
    9.1718   22.1864   18.6609 H   0  0  0  0  0  0  0  0  0  0  0  0
    9.9885   19.8780   17.7418 C   0  0  0  0  0  0  0  0  0  0  0  0
    8.3455   18.2184   18.6060 C   0  0  0  0  0  0  0  0  0  0  0  0
    8.8471   19.4580   18.5482 N   0  0  0  0  0  0  0  0  0  0  0  0
    8.8431   17.2278   18.0678 O   0  0  0  0  0  0  0  0  0  0  0  0
    8.4077   20.1465   19.0978 H   0  0  0  0  0  0  0  0  0  0  0  0
    7.2419   18.1553   19.4080 O   0  0  0  0  0  0  0  0  0  0  0  0
    6.6534   16.0092   20.3523 C   0  0  0  0  0  0  0  0  0  0  0  0
    6.4312   17.9944   21.6610 C   0  0  0  0  0  0  0  0  0  0  0  0
    7.3387   17.3453   20.5958 C   0  0  0  0  0  0  0  0  0  0  0  0
    5.2418   17.0553   21.7459 C   0  0  0  0  0  0  0  0  0  0  0  0
    5.2703   16.2454   20.5887 O   0  0  0  0  0  0  0  0  0  0  0  0
    9.4444   20.2730   16.3752 C   0  0  0  0  0  0  0  0  0  0  0  0
    9.5605   19.1327   15.3793 C   0  0  0  0  0  0  0  0  0  0  0  0
    8.4319   18.6087   14.7485 C   0  0  0  0  0  0  0  0  0  0  0  0
   10.7974   18.6219   15.0582 C   0  0  0  0  0  0  0  0  0  0  0  0
    8.5536   17.4919   13.9118 C   0  0  0  0  0  0  0  0  0  0  0  0
   10.9536   17.5691   14.1731 C   0  0  0  0  0  0  0  0  0  0  0  0
    9.8207   17.0283   13.5995 C   0  0  0  0  0  0  0  0  0  0  0  0
   11.4529   21.9744   17.5080 C   0  0  0  0  0  0  0  0  0  0  0  0
   12.8914   21.7338   17.4724 N   0  0  0  0  0  0  0  0  0  0  0  0
   14.6676   20.5181   18.8068 O   0  0  0  0  0  0  0  0  0  0  0  0
   12.7643   21.6113   20.0240 O   0  0  0  0  0  0  0  0  0  0  0  0
   13.7055   21.6459   18.8971 S   0  0  0  0  0  0  0  0  0  0  0  0
   14.6985   23.1044   19.1175 C   0  0  0  0  0  0  0  0  0  0  0  0
   14.4252   24.0168   20.1114 C   0  0  0  0  0  0  0  0  0  0  0  0
   15.2277   25.1194   20.3884 C   0  0  0  0  0  0  0  0  0  0  0  0
   16.3549   25.3362   19.6011 C   0  0  0  0  0  0  0  0  0  0  0  0
   16.5839   24.4674   18.5354 C   0  0  0  0  0  0  0  0  0  0  0  0
   15.7896   23.3298   18.3106 C   0  0  0  0  0  0  0  0  0  0  0  0
   17.1672   26.3712   19.8801 N   0  0  0  0  0  0  0  0  0  0  0  0
   16.9687   26.9611   20.6429 H   0  0  0  0  0  0  0  0  0  0  0  0
   17.9604   26.5390   19.3215 H   0  0  0  0  0  0  0  0  0  0  0  0
   13.3931   20.8699   16.4036 C   0  0  0  0  0  0  0  0  0  0  0  0
   14.0096   21.6391   15.2331 C   0  0  0  0  0  0  0  0  0  0  0  0
   15.4731   21.2325   15.0456 C   0  0  0  0  0  0  0  0  0  0  0  0
   13.2337   21.2592   13.9630 C   0  0  0  0  0  0  0  0  0  0  0  0
 10 12  1  0  0  0
 10 14  1  0  0  0
 11 12  1  0  0  0
 11 13  1  0  0  0
  5  6  1  0  0  0
  5  9  1  0  0  0
  5  7  2  0  0  0
 12  9  1  0  0  0
  4  1  1  0  0  0
  4 15  1  0  0  0
  4  6  1  0  0  0
  1 22  1  0  0  0
  1  2  1  0  0  0
 15 16  1  0  0  0
 16 17  2  0  0  0
 16 18  1  0  0  0
 17 19  1  0  0  0
 18 20  2  0  0  0
 19 21  2  0  0  0
 20 21  1  0  0  0
 22 23  1  0  0  0
 36 37  1  0  0  0
 36 23  1  0  0  0
 37 38  1  0  0  0
 37 39  1  0  0  0
 27 28  2  0  0  0
 27 32  1  0  0  0
 27 26  1  0  0  0
 28 29  1  0  0  0
 29 30  2  0  0  0
 30 31  1  0  0  0
 30 33  1  0  0  0
 31 32  2  0  0  0
 13 14  1  0  0  0
 23 26  1  0  0  0
 24 26  2  0  0  0
 25 26  2  0  0  0
  6  8  1  0  0  0
 33 34  1  0  0  0
 33 35  1  0  0  0
  2  3  1  0  0  0
M  END
> <minimizedAffinity>
-9.38462

$$$$
3NUO_478_B_478


 39 41  0  0  0  0  0  0  0  0999 V2000
   14.0139   20.5635   16.0750 C   0  0  0  0  0  0  0  0  0  0  0  0
   14.6576   19.4175   15.5163 O   0  0  0  0  0  0  0  0  0  0  0  0
   14.6481   19.4811   14.5484 H   0  0  0  0  0  0  0  0  0  0  0  0
   14.7920   21.8251   15.6996 C   0  0  0  0  0  0  0  0  0  0  0  0
   14.7970   23.1106   17.8322 C   0  0  0  0  0  0  0  0  0  0  0  0
   15.4177   22.3885   16.8915 N   0  0  0  0  0  0  0  0  0  0  0  0
   13.5825   23.3131   17.8824 O   0  0  0  0  0  0  0  0  0  0  0  0
   16.3804   22.2231   17.0144 H   0  0  0  0  0  0  0  0  0  0  0  0
   15.6648   23.5424   18.7942 O   0  0  0  0  0  0  0  0  0  0  0  0
   17.2362   25.3278   19.2266 C   0  0  0  0  0  0  0  0  0  0  0  0
   15.1256   25.2941   20.3435 C   0  0  0  0  0  0  0  0  0  0  0  0
   15.7786   24.9662   18.9848 C   0  0  0  0  0  0  0  0  0  0  0  0
   16.3048   25.6031   21.2480 C   0  0  0  0  0  0  0  0  0  0  0  0
   17.4589   25.0933   20.6123 O   0  0  0  0  0  0  0  0  0  0  0  0
   15.9034   21.5870   14.6859 C   0  0  0  0  0  0  0  0  0  0  0  0
   16.1914   22.8364   13.8723 C   0  0  0  0  0  0  0  0  0  0  0  0
   15.1897   23.7703   13.6064 C   0  0  0  0  0  0  0  0  0  0  0  0
   17.4655   23.0810   13.4132 C   0  0  0  0  0  0  0  0  0  0  0  0
   15.4554   24.8618   12.7696 C   0  0  0  0  0  0  0  0  0  0  0  0
   17.7736   24.1938   12.6498 C   0  0  0  0  0  0  0  0  0  0  0  0
   16.7577   25.0794   12.3519 C   0  0  0  0  0  0  0  0  0  0  0  0
   12.5606   20.5604   15.5755 C   0  0  0  0  0  0  0  0  0  0  0  0
   11.6867   19.8084   16.4695 N   0  0  0  0  0  0  0  0  0  0  0  0
   11.9056   17.4845   17.4519 O   0  0  0  0  0  0  0  0  0  0  0  0
   12.1910   17.7932   14.9775 O   0  0  0  0  0  0  0  0  0  0  0  0
   11.5040   18.1959   16.2115 S   0  0  0  0  0  0  0  0  0  0  0  0
    9.7838   17.8119   15.9762 C   0  0  0  0  0  0  0  0  0  0  0  0
    9.1256   16.9269   16.7999 C   0  0  0  0  0  0  0  0  0  0  0  0
    7.7605   16.6683   16.7205 C   0  0  0  0  0  0  0  0  0  0  0  0
    7.0177   17.3130   15.7357 C   0  0  0  0  0  0  0  0  0  0  0  0
    7.6967   18.1385   14.8411 C   0  0  0  0  0  0  0  0  0  0  0  0
    9.0658   18.4263   14.9766 C   0  0  0  0  0  0  0  0  0  0  0  0
    5.6897   17.1101   15.6700 N   0  0  0  0  0  0  0  0  0  0  0  0
    5.2492   16.5187   16.3223 H   0  0  0  0  0  0  0  0  0  0  0  0
    5.1581   17.5530   14.9696 H   0  0  0  0  0  0  0  0  0  0  0  0
   11.6457   20.2331   17.8689 C   0  0  0  0  0  0  0  0  0  0  0  0
   10.3522   20.9558   18.2519 C   0  0  0  0  0  0  0  0  0  0  0  0
    9.3182   19.9518   18.7667 C   0  0  0  0  0  0  0  0  0  0  0  0
   10.6827   21.9371   19.3865 C   0  0  0  0  0  0  0  0  0  0  0  0
 10 12  1  0  0  0
 10 14  1  0  0  0
 11 12  1  0  0  0
 11 13  1  0  0  0
  5  6  1  0  0  0
  5  9  1  0  0  0
  5  7  2  0  0  0
 12  9  1  0  0  0
  4  1  1  0  0  0
  4 15  1  0  0  0
  4  6  1  0  0  0
  1 22  1  0  0  0
  1  2  1  0  0  0
 15 16  1  0  0  0
 16 17  2  0  0  0
 16 18  1  0  0  0
 17 19  1  0  0  0
 18 20  2  0  0  0
 19 21  2  0  0  0
 20 21  1  0  0  0
 22 23  1  0  0  0
 36 37  1  0  0  0
 36 23  1  0  0  0
 37 38  1  0  0  0
 37 39  1  0  0  0
 27 28  2  0  0  0
 27 32  1  0  0  0
 27 26  1  0  0  0
 28 29  1  0  0  0
 29 30  2  0  0  0
 30 31  1  0  0  0
 30 33  1  0  0  0
 31 32  2  0  0  0
 13 14  1  0  0  0
 23 26  1  0  0  0
 24 26  2  0  0  0
 25 26  2  0  0  0
  6  8  1  0  0  0
 33 34  1  0  0  0
 33 35  1  0  0  0
  2  3  1  0  0  0
M  END
> <minimizedAffinity>
-9.25970

$$$$
3NUO_478_B_478


 39 41  0  0  0  0  0  0  0  0999 V2000
   11.7810   18.6326   17.3345 C   0  0  0  0  0  0  0  0  0  0  0  0
   12.5099   17.5014   17.8129 O   0  0  0  0  0  0  0  0  0  0  0  0
   12.0105   16.6915   17.6241 H   0  0  0  0  0  0  0  0  0  0  0  0
   11.6287   18.5420   15.8157 C   0  0  0  0  0  0  0  0  0  0  0  0
   10.1801   17.0458   14.4506 C   0  0  0  0  0  0  0  0  0  0  0  0
   10.3760   17.8694   15.4874 N   0  0  0  0  0  0  0  0  0  0  0  0
   11.0604   16.6514   13.6839 O   0  0  0  0  0  0  0  0  0  0  0  0
    9.6079   18.0359   16.0803 H   0  0  0  0  0  0  0  0  0  0  0  0
    8.8847   16.6191   14.3805 O   0  0  0  0  0  0  0  0  0  0  0  0
    7.4522   14.6816   14.1851 C   0  0  0  0  0  0  0  0  0  0  0  0
    7.9303   15.6049   16.3350 C   0  0  0  0  0  0  0  0  0  0  0  0
    8.5834   15.3362   14.9635 C   0  0  0  0  0  0  0  0  0  0  0  0
    6.4675   15.2659   16.1134 C   0  0  0  0  0  0  0  0  0  0  0  0
    6.2557   15.2389   14.7169 O   0  0  0  0  0  0  0  0  0  0  0  0
   11.6026   19.8942   15.1154 C   0  0  0  0  0  0  0  0  0  0  0  0
   13.0041   20.4407   14.9084 C   0  0  0  0  0  0  0  0  0  0  0  0
   14.0787   19.9756   15.6669 C   0  0  0  0  0  0  0  0  0  0  0  0
   13.2383   21.3856   13.9355 C   0  0  0  0  0  0  0  0  0  0  0  0
   15.3410   20.5667   15.5275 C   0  0  0  0  0  0  0  0  0  0  0  0
   14.4931   21.9299   13.7227 C   0  0  0  0  0  0  0  0  0  0  0  0
   15.5336   21.4961   14.5190 C   0  0  0  0  0  0  0  0  0  0  0  0
   10.4434   18.6674   18.0901 C   0  0  0  0  0  0  0  0  0  0  0  0
   10.4455   19.6805   19.1400 N   0  0  0  0  0  0  0  0  0  0  0  0
    9.8002   22.0278   19.8381 O   0  0  0  0  0  0  0  0  0  0  0  0
    9.6884   21.4048   17.4094 O   0  0  0  0  0  0  0  0  0  0  0  0
   10.3724   21.2623   18.7012 S   0  0  0  0  0  0  0  0  0  0  0  0
   12.0152   21.9033   18.4724 C   0  0  0  0  0  0  0  0  0  0  0  0
   12.3127   22.7678   17.4433 C   0  0  0  0  0  0  0  0  0  0  0  0
   13.5546   23.3739   17.2796 C   0  0  0  0  0  0  0  0  0  0  0  0
   14.5673   23.0705   18.1850 C   0  0  0  0  0  0  0  0  0  0  0  0
   14.2979   22.1252   19.1732 C   0  0  0  0  0  0  0  0  0  0  0  0
   13.0194   21.5688   19.3510 C   0  0  0  0  0  0  0  0  0  0  0  0
   15.7613   23.6789   18.0699 N   0  0  0  0  0  0  0  0  0  0  0  0
   15.9095   24.3413   17.3568 H   0  0  0  0  0  0  0  0  0  0  0  0
   16.4870   23.4619   18.6988 H   0  0  0  0  0  0  0  0  0  0  0  0
    9.7685   19.3400   20.3915 C   0  0  0  0  0  0  0  0  0  0  0  0
    8.5621   18.4174   20.2037 C   0  0  0  0  0  0  0  0  0  0  0  0
    8.1147   17.8508   21.5532 C   0  0  0  0  0  0  0  0  0  0  0  0
    7.4144   19.2594   19.6263 C   0  0  0  0  0  0  0  0  0  0  0  0
 10 12  1  0  0  0
 10 14  1  0  0  0
 11 12  1  0  0  0
 11 13  1  0  0  0
  5  6  1  0  0  0
  5  9  1  0  0  0
  5  7  2  0  0  0
 12  9  1  0  0  0
  4  1  1  0  0  0
  4 15  1  0  0  0
  4  6  1  0  0  0
  1 22  1  0  0  0
  1  2  1  0  0  0
 15 16  1  0  0  0
 16 17  2  0  0  0
 16 18  1  0  0  0
 17 19  1  0  0  0
 18 20  2  0  0  0
 19 21  2  0  0  0
 20 21  1  0  0  0
 22 23  1  0  0  0
 36 37  1  0  0  0
 36 23  1  0  0  0
 37 38  1  0  0  0
 37 39  1  0  0  0
 27 28  2  0  0  0
 27 32  1  0  0  0
 27 26  1  0  0  0
 28 29  1  0  0  0
 29 30  2  0  0  0
 30 31  1  0  0  0
 30 33  1  0  0  0
 31 32  2  0  0  0
 13 14  1  0  0  0
 23 26  1  0  0  0
 24 26  2  0  0  0
 25 26  2  0  0  0
  6  8  1  0  0  0
 33 34  1  0  0  0
 33 35  1  0  0  0
  2  3  1  0  0  0
M  END
> <minimizedAffinity>
-9.23845

$$$$
3NUO_478_B_478


 39 41  0  0  0  0  0  0  0  0999 V2000
   12.4606   19.2240   17.9558 C   0  0  0  0  0  0  0  0  0  0  0  0
   13.3826   18.1955   18.3190 O   0  0  0  0  0  0  0  0  0  0  0  0
   13.0488   17.3384   18.0110 H   0  0  0  0  0  0  0  0  0  0  0  0
   12.3530   19.3045   16.4327 C   0  0  0  0  0  0  0  0  0  0  0  0
   13.7533   20.6759   14.8969 C   0  0  0  0  0  0  0  0  0  0  0  0
   13.6178   19.7729   15.8755 N   0  0  0  0  0  0  0  0  0  0  0  0
   12.8308   21.3230   14.3982 O   0  0  0  0  0  0  0  0  0  0  0  0
   14.4435   19.3914   16.2523 H   0  0  0  0  0  0  0  0  0  0  0  0
   15.0631   20.8630   14.5581 O   0  0  0  0  0  0  0  0  0  0  0  0
   15.2705   23.2494   14.2327 C   0  0  0  0  0  0  0  0  0  0  0  0
   17.2057   21.9335   14.7086 C   0  0  0  0  0  0  0  0  0  0  0  0
   15.7080   22.0500   15.0597 C   0  0  0  0  0  0  0  0  0  0  0  0
   17.3941   22.9353   13.5840 C   0  0  0  0  0  0  0  0  0  0  0  0
   16.1091   23.2421   13.0832 O   0  0  0  0  0  0  0  0  0  0  0  0
   12.0403   17.9723   15.7640 C   0  0  0  0  0  0  0  0  0  0  0  0
   10.6092   17.9260   15.2585 C   0  0  0  0  0  0  0  0  0  0  0  0
   10.0484   16.7378   14.7894 C   0  0  0  0  0  0  0  0  0  0  0  0
    9.8301   19.0600   15.2909 C   0  0  0  0  0  0  0  0  0  0  0  0
    8.7620   16.7426   14.2350 C   0  0  0  0  0  0  0  0  0  0  0  0
    8.5278   19.0739   14.8220 C   0  0  0  0  0  0  0  0  0  0  0  0
    8.0078   17.9015   14.3121 C   0  0  0  0  0  0  0  0  0  0  0  0
   11.1285   18.9115   18.6553 C   0  0  0  0  0  0  0  0  0  0  0  0
   10.7452   19.9727   19.5802 N   0  0  0  0  0  0  0  0  0  0  0  0
    9.8024   22.2880   19.9847 O   0  0  0  0  0  0  0  0  0  0  0  0
   10.0474   21.4673   17.6256 O   0  0  0  0  0  0  0  0  0  0  0  0
   10.5785   21.4988   18.9945 S   0  0  0  0  0  0  0  0  0  0  0  0
   12.1697   22.2867   18.8971 C   0  0  0  0  0  0  0  0  0  0  0  0
   13.0258   22.3132   19.9747 C   0  0  0  0  0  0  0  0  0  0  0  0
   14.3177   22.8278   19.9212 C   0  0  0  0  0  0  0  0  0  0  0  0
   14.7659   23.3764   18.7230 C   0  0  0  0  0  0  0  0  0  0  0  0
   13.8704   23.4356   17.6566 C   0  0  0  0  0  0  0  0  0  0  0  0
   12.5898   22.8592   17.7190 C   0  0  0  0  0  0  0  0  0  0  0  0
   16.0259   23.8394   18.6381 N   0  0  0  0  0  0  0  0  0  0  0  0
   16.6262   23.7781   19.4160 H   0  0  0  0  0  0  0  0  0  0  0  0
   16.3477   24.2395   17.7982 H   0  0  0  0  0  0  0  0  0  0  0  0
    9.8338   19.6094   20.6655 C   0  0  0  0  0  0  0  0  0  0  0  0
    8.7984   18.5547   20.2683 C   0  0  0  0  0  0  0  0  0  0  0  0
    8.1761   17.9279   21.5182 C   0  0  0  0  0  0  0  0  0  0  0  0
    7.6888   19.2630   19.4767 C   0  0  0  0  0  0  0  0  0  0  0  0
 10 12  1  0  0  0
 10 14  1  0  0  0
 11 12  1  0  0  0
 11 13  1  0  0  0
  5  6  1  0  0  0
  5  9  1  0  0  0
  5  7  2  0  0  0
 12  9  1  0  0  0
  4  1  1  0  0  0
  4 15  1  0  0  0
  4  6  1  0  0  0
  1 22  1  0  0  0
  1  2  1  0  0  0
 15 16  1  0  0  0
 16 17  2  0  0  0
 16 18  1  0  0  0
 17 19  1  0  0  0
 18 20  2  0  0  0
 19 21  2  0  0  0
 20 21  1  0  0  0
 22 23  1  0  0  0
 36 37  1  0  0  0
 36 23  1  0  0  0
 37 38  1  0  0  0
 37 39  1  0  0  0
 27 28  2  0  0  0
 27 32  1  0  0  0
 27 26  1  0  0  0
 28 29  1  0  0  0
 29 30  2  0  0  0
 30 31  1  0  0  0
 30 33  1  0  0  0
 31 32  2  0  0  0
 13 14  1  0  0  0
 23 26  1  0  0  0
 24 26  2  0  0  0
 25 26  2  0  0  0
  6  8  1  0  0  0
 33 34  1  0  0  0
 33 35  1  0  0  0
  2  3  1  0  0  0
M  END
> <minimizedAffinity>
-9.18844

$$$$
3NUO_478_B_478


 39 41  0  0  0  0  0  0  0  0999 V2000
   12.9454   19.6052   17.7801 C   0  0  0  0  0  0  0  0  0  0  0  0
   13.9163   18.6921   18.2933 O   0  0  0  0  0  0  0  0  0  0  0  0
   14.3862   18.2717   17.5562 H   0  0  0  0  0  0  0  0  0  0  0  0
   13.6470   20.7182   17.0009 C   0  0  0  0  0  0  0  0  0  0  0  0
   14.0362   22.4520   18.7453 C   0  0  0  0  0  0  0  0  0  0  0  0
   14.4762   21.5048   17.9082 N   0  0  0  0  0  0  0  0  0  0  0  0
   12.8511   22.7220   18.9486 O   0  0  0  0  0  0  0  0  0  0  0  0
   15.4437   21.3229   17.9042 H   0  0  0  0  0  0  0  0  0  0  0  0
   15.0626   23.0461   19.4226 O   0  0  0  0  0  0  0  0  0  0  0  0
   16.8058   24.6853   19.0787 C   0  0  0  0  0  0  0  0  0  0  0  0
   14.9060   25.2222   20.4225 C   0  0  0  0  0  0  0  0  0  0  0  0
   15.3063   24.4408   19.1540 C   0  0  0  0  0  0  0  0  0  0  0  0
   16.2346   25.6413   21.0252 C   0  0  0  0  0  0  0  0  0  0  0  0
   17.2319   24.8387   20.4276 O   0  0  0  0  0  0  0  0  0  0  0  0
   14.5595   20.2146   15.8904 C   0  0  0  0  0  0  0  0  0  0  0  0
   14.7317   21.2545   14.7974 C   0  0  0  0  0  0  0  0  0  0  0  0
   13.7533   21.4430   13.8210 C   0  0  0  0  0  0  0  0  0  0  0  0
   15.8510   22.0551   14.7785 C   0  0  0  0  0  0  0  0  0  0  0  0
   13.9807   22.3365   12.7663 C   0  0  0  0  0  0  0  0  0  0  0  0
   16.0641   23.0020   13.7915 C   0  0  0  0  0  0  0  0  0  0  0  0
   15.1100   23.1372   12.8034 C   0  0  0  0  0  0  0  0  0  0  0  0
   11.9520   18.7903   16.9372 C   0  0  0  0  0  0  0  0  0  0  0  0
   10.5799   18.9727   17.3981 N   0  0  0  0  0  0  0  0  0  0  0  0
    9.9953   21.0183   18.7719 O   0  0  0  0  0  0  0  0  0  0  0  0
   11.4706   19.2552   19.7790 O   0  0  0  0  0  0  0  0  0  0  0  0
   10.3349   19.5787   18.9057 S   0  0  0  0  0  0  0  0  0  0  0  0
    8.9053   18.8168   19.6391 C   0  0  0  0  0  0  0  0  0  0  0  0
    7.8566   18.3662   18.8697 C   0  0  0  0  0  0  0  0  0  0  0  0
    6.7633   17.6757   19.3841 C   0  0  0  0  0  0  0  0  0  0  0  0
    6.7043   17.4512   20.7565 C   0  0  0  0  0  0  0  0  0  0  0  0
    7.7175   17.9865   21.5499 C   0  0  0  0  0  0  0  0  0  0  0  0
    8.8389   18.6321   21.0006 C   0  0  0  0  0  0  0  0  0  0  0  0
    5.6780   16.7480   21.2679 N   0  0  0  0  0  0  0  0  0  0  0  0
    4.9829   16.3872   20.6715 H   0  0  0  0  0  0  0  0  0  0  0  0
    5.6221   16.5942   22.2387 H   0  0  0  0  0  0  0  0  0  0  0  0
    9.5885   19.3578   16.3935 C   0  0  0  0  0  0  0  0  0  0  0  0
    9.4405   18.3420   15.2585 C   0  0  0  0  0  0  0  0  0  0  0  0
    9.1486   16.9518   15.8280 C   0  0  0  0  0  0  0  0  0  0  0  0
    8.2448   18.7744   14.3965 C   0  0  0  0  0  0  0  0  0  0  0  0
 10 12  1  0  0  0
 10 14  1  0  0  0
 11 12  1  0  0  0
 11 13  1  0  0  0
  5  6  1  0  0  0
  5  9  1  0  0  0
  5  7  2  0  0  0
 12  9  1  0  0  0
  4  1  1  0  0  0
  4 15  1  0  0  0
  4  6  1  0  0  0
  1 22  1  0  0  0
  1  2  1  0  0  0
 15 16  1  0  0  0
 16 17  2  0  0  0
 16 18  1  0  0  0
 17 19  1  0  0  0
 18 20  2  0  0  0
 19 21  2  0  0  0
 20 21  1  0  0  0
 22 23  1  0  0  0
 36 37  1  0  0  0
 36 23  1  0  0  0
 37 38  1  0  0  0
 37 39  1  0  0  0
 27 28  2  0  0  0
 27 32  1  0  0  0
 27 26  1  0  0  0
 28 29  1  0  0  0
 29 30  2  0  0  0
 30 31  1  0  0  0
 30 33  1  0  0  0
 31 32  2  0  0  0
 13 14  1  0  0  0
 23 26  1  0  0  0
 24 26  2  0  0  0
 25 26  2  0  0  0
  6  8  1  0  0  0
 33 34  1  0  0  0
 33 35  1  0  0  0
  2  3  1  0  0  0
M  END
> <minimizedAffinity>
-9.18726

$$$$
3NUO_478_B_478


 39 41  0  0  0  0  0  0  0  0999 V2000
   12.4524   19.1319   17.7639 C   0  0  0  0  0  0  0  0  0  0  0  0
   13.4189   18.3817   18.5007 O   0  0  0  0  0  0  0  0  0  0  0  0
   14.0681   18.0013   17.8886 H   0  0  0  0  0  0  0  0  0  0  0  0
   13.1390   20.2992   17.0539 C   0  0  0  0  0  0  0  0  0  0  0  0
   13.3523   22.0635   18.7981 C   0  0  0  0  0  0  0  0  0  0  0  0
   13.8733   21.1017   18.0267 N   0  0  0  0  0  0  0  0  0  0  0  0
   12.1533   22.3371   18.8753 O   0  0  0  0  0  0  0  0  0  0  0  0
   14.8359   20.9197   18.1242 H   0  0  0  0  0  0  0  0  0  0  0  0
   14.3058   22.6694   19.5656 O   0  0  0  0  0  0  0  0  0  0  0  0
   15.9170   24.3605   18.9427 C   0  0  0  0  0  0  0  0  0  0  0  0
   14.4497   24.7280   20.7907 C   0  0  0  0  0  0  0  0  0  0  0  0
   14.4882   24.0877   19.3877 C   0  0  0  0  0  0  0  0  0  0  0  0
   15.8961   25.1020   21.0591 C   0  0  0  0  0  0  0  0  0  0  0  0
   16.6880   24.3800   20.1385 O   0  0  0  0  0  0  0  0  0  0  0  0
   14.1383   19.8721   15.9870 C   0  0  0  0  0  0  0  0  0  0  0  0
   14.3624   20.9706   14.9629 C   0  0  0  0  0  0  0  0  0  0  0  0
   13.5163   21.1145   13.8630 C   0  0  0  0  0  0  0  0  0  0  0  0
   15.3928   21.8676   15.1293 C   0  0  0  0  0  0  0  0  0  0  0  0
   13.8032   22.0705   12.8803 C   0  0  0  0  0  0  0  0  0  0  0  0
   15.6511   22.8726   14.2131 C   0  0  0  0  0  0  0  0  0  0  0  0
   14.8357   22.9661   13.1035 C   0  0  0  0  0  0  0  0  0  0  0  0
   11.7465   18.1556   16.8100 C   0  0  0  0  0  0  0  0  0  0  0  0
   10.3041   18.3738   16.7882 N   0  0  0  0  0  0  0  0  0  0  0  0
   10.5901   18.4136   14.2723 O   0  0  0  0  0  0  0  0  0  0  0  0
    8.6753   19.6684   15.3008 O   0  0  0  0  0  0  0  0  0  0  0  0
    9.5523   18.4908   15.3318 S   0  0  0  0  0  0  0  0  0  0  0  0
    8.5036   17.0775   15.0771 C   0  0  0  0  0  0  0  0  0  0  0  0
    9.0030   15.8897   14.5927 C   0  0  0  0  0  0  0  0  0  0  0  0
    8.2468   14.7280   14.4695 C   0  0  0  0  0  0  0  0  0  0  0  0
    6.9016   14.7692   14.8247 C   0  0  0  0  0  0  0  0  0  0  0  0
    6.3699   15.9930   15.2275 C   0  0  0  0  0  0  0  0  0  0  0  0
    7.1669   17.1385   15.3963 C   0  0  0  0  0  0  0  0  0  0  0  0
    6.1644   13.6464   14.7543 N   0  0  0  0  0  0  0  0  0  0  0  0
    6.5798   12.8022   14.4646 H   0  0  0  0  0  0  0  0  0  0  0  0
    5.2095   13.6688   14.9925 H   0  0  0  0  0  0  0  0  0  0  0  0
    9.5224   17.7471   17.8544 C   0  0  0  0  0  0  0  0  0  0  0  0
    8.5679   18.7117   18.5618 C   0  0  0  0  0  0  0  0  0  0  0  0
    7.3519   17.9533   19.0988 C   0  0  0  0  0  0  0  0  0  0  0  0
    9.3207   19.3266   19.7513 C   0  0  0  0  0  0  0  0  0  0  0  0
 10 12  1  0  0  0
 10 14  1  0  0  0
 11 12  1  0  0  0
 11 13  1  0  0  0
  5  6  1  0  0  0
  5  9  1  0  0  0
  5  7  2  0  0  0
 12  9  1  0  0  0
  4  1  1  0  0  0
  4 15  1  0  0  0
  4  6  1  0  0  0
  1 22  1  0  0  0
  1  2  1  0  0  0
 15 16  1  0  0  0
 16 17  2  0  0  0
 16 18  1  0  0  0
 17 19  1  0  0  0
 18 20  2  0  0  0
 19 21  2  0  0  0
 20 21  1  0  0  0
 22 23  1  0  0  0
 36 37  1  0  0  0
 36 23  1  0  0  0
 37 38  1  0  0  0
 37 39  1  0  0  0
 27 28  2  0  0  0
 27 32  1  0  0  0
 27 26  1  0  0  0
 28 29  1  0  0  0
 29 30  2  0  0  0
 30 31  1  0  0  0
 30 33  1  0  0  0
 31 32  2  0  0  0
 13 14  1  0  0  0
 23 26  1  0  0  0
 24 26  2  0  0  0
 25 26  2  0  0  0
  6  8  1  0  0  0
 33 34  1  0  0  0
 33 35  1  0  0  0
  2  3  1  0  0  0
M  END
> <minimizedAffinity>
-9.17746

$$$$
3NUO_478_B_478


 39 41  0  0  0  0  0  0  0  0999 V2000
   13.9753   20.5924   18.5299 C   0  0  0  0  0  0  0  0  0  0  0  0
   15.0849   19.7240   18.7630 O   0  0  0  0  0  0  0  0  0  0  0  0
   15.6544   19.7092   17.9779 H   0  0  0  0  0  0  0  0  0  0  0  0
   14.4763   22.0204   18.3107 C   0  0  0  0  0  0  0  0  0  0  0  0
   15.4111   22.9813   16.2122 C   0  0  0  0  0  0  0  0  0  0  0  0
   14.4515   22.3358   16.8861 N   0  0  0  0  0  0  0  0  0  0  0  0
   16.5046   23.3081   16.6768 O   0  0  0  0  0  0  0  0  0  0  0  0
   13.6598   22.0488   16.3761 H   0  0  0  0  0  0  0  0  0  0  0  0
   15.0699   23.1730   14.9038 O   0  0  0  0  0  0  0  0  0  0  0  0
   17.2665   22.4064   14.2475 C   0  0  0  0  0  0  0  0  0  0  0  0
   15.7291   23.1893   12.5963 C   0  0  0  0  0  0  0  0  0  0  0  0
   15.7812   22.3976   13.9193 C   0  0  0  0  0  0  0  0  0  0  0  0
   17.1408   23.7239   12.4371 C   0  0  0  0  0  0  0  0  0  0  0  0
   17.7676   23.6199   13.6989 O   0  0  0  0  0  0  0  0  0  0  0  0
   13.6425   23.0828   19.0146 C   0  0  0  0  0  0  0  0  0  0  0  0
   14.5181   24.0682   19.7683 C   0  0  0  0  0  0  0  0  0  0  0  0
   14.7618   23.9183   21.1337 C   0  0  0  0  0  0  0  0  0  0  0  0
   15.1159   25.1111   19.0981 C   0  0  0  0  0  0  0  0  0  0  0  0
   15.4888   24.8953   21.8258 C   0  0  0  0  0  0  0  0  0  0  0  0
   15.9048   26.0474   19.7440 C   0  0  0  0  0  0  0  0  0  0  0  0
   16.0909   25.9130   21.1049 C   0  0  0  0  0  0  0  0  0  0  0  0
   13.1905   20.0216   17.3384 C   0  0  0  0  0  0  0  0  0  0  0  0
   11.7632   20.3024   17.4507 N   0  0  0  0  0  0  0  0  0  0  0  0
   11.8481   21.2868   15.1190 O   0  0  0  0  0  0  0  0  0  0  0  0
    9.6916   21.3729   16.4001 O   0  0  0  0  0  0  0  0  0  0  0  0
   10.9211   20.6362   16.0798 S   0  0  0  0  0  0  0  0  0  0  0  0
   10.4100   19.1222   15.2999 C   0  0  0  0  0  0  0  0  0  0  0  0
    9.0790   18.8163   15.1270 C   0  0  0  0  0  0  0  0  0  0  0  0
    8.6284   17.6953   14.4364 C   0  0  0  0  0  0  0  0  0  0  0  0
    9.5699   16.8127   13.9148 C   0  0  0  0  0  0  0  0  0  0  0  0
   10.9163   17.0697   14.1675 C   0  0  0  0  0  0  0  0  0  0  0  0
   11.3477   18.2376   14.8200 C   0  0  0  0  0  0  0  0  0  0  0  0
    9.1558   15.7468   13.2067 N   0  0  0  0  0  0  0  0  0  0  0  0
    8.1944   15.6023   13.0512 H   0  0  0  0  0  0  0  0  0  0  0  0
    9.8141   15.1110   12.8438 H   0  0  0  0  0  0  0  0  0  0  0  0
   11.0245   19.5788   18.4857 C   0  0  0  0  0  0  0  0  0  0  0  0
   10.9574   20.3211   19.8223 C   0  0  0  0  0  0  0  0  0  0  0  0
   10.1503   21.6124   19.6699 C   0  0  0  0  0  0  0  0  0  0  0  0
   10.2334   19.4119   20.8267 C   0  0  0  0  0  0  0  0  0  0  0  0
 10 12  1  0  0  0
 10 14  1  0  0  0
 11 12  1  0  0  0
 11 13  1  0  0  0
  5  6  1  0  0  0
  5  9  1  0  0  0
  5  7  2  0  0  0
 12  9  1  0  0  0
  4  1  1  0  0  0
  4 15  1  0  0  0
  4  6  1  0  0  0
  1 22  1  0  0  0
  1  2  1  0  0  0
 15 16  1  0  0  0
 16 17  2  0  0  0
 16 18  1  0  0  0
 17 19  1  0  0  0
 18 20  2  0  0  0
 19 21  2  0  0  0
 20 21  1  0  0  0
 22 23  1  0  0  0
 36 37  1  0  0  0
 36 23  1  0  0  0
 37 38  1  0  0  0
 37 39  1  0  0  0
 27 28  2  0  0  0
 27 32  1  0  0  0
 27 26  1  0  0  0
 28 29  1  0  0  0
 29 30  2  0  0  0
 30 31  1  0  0  0
 30 33  1  0  0  0
 31 32  2  0  0  0
 13 14  1  0  0  0
 23 26  1  0  0  0
 24 26  2  0  0  0
 25 26  2  0  0  0
  6  8  1  0  0  0
 33 34  1  0  0  0
 33 35  1  0  0  0
  2  3  1  0  0  0
M  END
> <minimizedAffinity>
-9.05043

$$$$
3NUO_478_B_478


 39 41  0  0  0  0  0  0  0  0999 V2000
   14.0267   21.0867   17.4434 C   0  0  0  0  0  0  0  0  0  0  0  0
   14.7904   20.1953   16.6299 O   0  0  0  0  0  0  0  0  0  0  0  0
   14.8248   20.5353   15.7220 H   0  0  0  0  0  0  0  0  0  0  0  0
   14.7159   22.4505   17.4998 C   0  0  0  0  0  0  0  0  0  0  0  0
   16.2070   23.3476   15.7187 C   0  0  0  0  0  0  0  0  0  0  0  0
   15.0188   22.9035   16.1461 N   0  0  0  0  0  0  0  0  0  0  0  0
   17.2465   23.3366   16.3804 O   0  0  0  0  0  0  0  0  0  0  0  0
   14.2853   22.8804   15.4899 H   0  0  0  0  0  0  0  0  0  0  0  0
   16.1580   23.7505   14.4147 O   0  0  0  0  0  0  0  0  0  0  0  0
   17.0479   25.7614   13.4106 C   0  0  0  0  0  0  0  0  0  0  0  0
   17.6398   23.6214   12.5314 C   0  0  0  0  0  0  0  0  0  0  0  0
   17.3515   24.3417   13.8648 C   0  0  0  0  0  0  0  0  0  0  0  0
   17.2705   24.6484   11.4765 C   0  0  0  0  0  0  0  0  0  0  0  0
   16.4782   25.6296   12.1134 O   0  0  0  0  0  0  0  0  0  0  0  0
   13.8773   23.5401   18.1547 C   0  0  0  0  0  0  0  0  0  0  0  0
   14.6355   24.2266   19.2771 C   0  0  0  0  0  0  0  0  0  0  0  0
   15.6643   25.1288   19.0057 C   0  0  0  0  0  0  0  0  0  0  0  0
   14.2886   23.9905   20.5878 C   0  0  0  0  0  0  0  0  0  0  0  0
   16.4146   25.6710   20.0570 C   0  0  0  0  0  0  0  0  0  0  0  0
   14.9627   24.5750   21.6461 C   0  0  0  0  0  0  0  0  0  0  0  0
   16.0127   25.4235   21.3590 C   0  0  0  0  0  0  0  0  0  0  0  0
   12.6059   21.1344   16.8598 C   0  0  0  0  0  0  0  0  0  0  0  0
   11.7702   20.0631   17.3915 N   0  0  0  0  0  0  0  0  0  0  0  0
   12.2690   17.5845   17.5358 O   0  0  0  0  0  0  0  0  0  0  0  0
   12.4386   18.7339   15.3111 O   0  0  0  0  0  0  0  0  0  0  0  0
   11.7531   18.6205   16.6051 S   0  0  0  0  0  0  0  0  0  0  0  0
   10.0772   18.1475   16.2451 C   0  0  0  0  0  0  0  0  0  0  0  0
    9.3454   17.3740   17.1175 C   0  0  0  0  0  0  0  0  0  0  0  0
    8.0026   17.0603   16.9302 C   0  0  0  0  0  0  0  0  0  0  0  0
    7.3647   17.5249   15.7837 C   0  0  0  0  0  0  0  0  0  0  0  0
    8.1262   18.2297   14.8530 C   0  0  0  0  0  0  0  0  0  0  0  0
    9.4662   18.5808   15.0913 C   0  0  0  0  0  0  0  0  0  0  0  0
    6.0562   17.2695   15.6054 N   0  0  0  0  0  0  0  0  0  0  0  0
    5.5551   16.7678   16.2884 H   0  0  0  0  0  0  0  0  0  0  0  0
    5.5996   17.5843   14.7920 H   0  0  0  0  0  0  0  0  0  0  0  0
   11.6295   19.9916   18.8460 C   0  0  0  0  0  0  0  0  0  0  0  0
   10.2105   20.2838   19.3390 C   0  0  0  0  0  0  0  0  0  0  0  0
    9.9248   19.5002   20.6222 C   0  0  0  0  0  0  0  0  0  0  0  0
   10.1254   21.7842   19.6574 C   0  0  0  0  0  0  0  0  0  0  0  0
 10 12  1  0  0  0
 10 14  1  0  0  0
 11 12  1  0  0  0
 11 13  1  0  0  0
  5  6  1  0  0  0
  5  9  1  0  0  0
  5  7  2  0  0  0
 12  9  1  0  0  0
  4  1  1  0  0  0
  4 15  1  0  0  0
  4  6  1  0  0  0
  1 22  1  0  0  0
  1  2  1  0  0  0
 15 16  1  0  0  0
 16 17  2  0  0  0
 16 18  1  0  0  0
 17 19  1  0  0  0
 18 20  2  0  0  0
 19 21  2  0  0  0
 20 21  1  0  0  0
 22 23  1  0  0  0
 36 37  1  0  0  0
 36 23  1  0  0  0
 37 38  1  0  0  0
 37 39  1  0  0  0
 27 28  2  0  0  0
 27 32  1  0  0  0
 27 26  1  0  0  0
 28 29  1  0  0  0
 29 30  2  0  0  0
 30 31  1  0  0  0
 30 33  1  0  0  0
 31 32  2  0  0  0
 13 14  1  0  0  0
 23 26  1  0  0  0
 24 26  2  0  0  0
 25 26  2  0  0  0
  6  8  1  0  0  0
 33 34  1  0  0  0
 33 35  1  0  0  0
  2  3  1  0  0  0
M  END
> <minimizedAffinity>
-8.96695

$$$$
