3NUO_478_B_478
  RCSB PDB12061709583D
Coordinates from PDB:3NUO:B:478 Model:1 without hydrogens
 35 37  0  0  0  0            999 V2000
   16.6100   25.3290   19.4890   C 0  0  0  0  0  0  0  0  0  0  0  0
   14.6280   24.5260   20.5520   C 0  0  0  0  0  0  0  0  0  0  0  0
   14.4200   22.7240   18.0830   C 0  0  0  0  0  0  0  0  0  0  0  0
   15.2710   24.6870   19.1590   C 0  0  0  0  0  0  0  0  0  0  0  0
   13.8330   20.5600   17.0000   C 0  0  0  0  0  0  0  0  0  0  0  0
   13.4190   19.4450   17.9610   C 0  0  0  0  0  0  0  0  0  0  0  0
   14.5630   20.0660   15.7580   C 0  0  0  0  0  0  0  0  0  0  0  0
   14.9670   21.2180   14.8550   C 0  0  0  0  0  0  0  0  0  0  0  0
   16.2890   21.6600   14.7980   C 0  0  0  0  0  0  0  0  0  0  0  0
   14.0300   21.8220   14.0480   C 0  0  0  0  0  0  0  0  0  0  0  0
   16.6170   22.7880   14.0350   C 0  0  0  0  0  0  0  0  0  0  0  0
   14.3440   22.8890   13.2240   C 0  0  0  0  0  0  0  0  0  0  0  0
   15.6460   23.3470   13.2210   C 0  0  0  0  0  0  0  0  0  0  0  0
   12.3310   18.5160   17.4000   C 0  0  0  0  0  0  0  0  0  0  0  0
   10.0920   18.8170   18.4490   C 0  0  0  0  0  0  0  0  0  0  0  0
   10.4790   19.3930   19.8130   C 0  0  0  0  0  0  0  0  0  0  0  0
    9.5810   18.0420   15.2590   C 0  0  0  0  0  0  0  0  0  0  0  0
   10.2910   17.1470   14.4910   C 0  0  0  0  0  0  0  0  0  0  0  0
    9.7700   15.9410   14.0320   C 0  0  0  0  0  0  0  0  0  0  0  0
    8.4480   15.6290   14.3360   C 0  0  0  0  0  0  0  0  0  0  0  0
    7.6980   16.5740   15.0340   C 0  0  0  0  0  0  0  0  0  0  0  0
    8.2630   17.7600   15.5340   C 0  0  0  0  0  0  0  0  0  0  0  0
   10.4240   20.9220   19.7760   C 0  0  0  0  0  0  0  0  0  0  0  0
    9.4510   18.8950   20.8400   C 0  0  0  0  0  0  0  0  0  0  0  0
   15.7430   24.8990   21.5120   C 0  0  0  0  0  0  0  0  0  0  0  0
   14.7320   21.4860   17.6810   N 0  0  0  0  0  0  0  0  0  0  0  0
   11.0260   19.1680   17.3790   N 0  0  0  0  0  0  0  0  0  0  0  0
    7.9390   14.4490   13.9390   N 0  0  0  0  0  0  0  0  0  0  0  0
   15.4920   23.3610   18.6400   O 0  0  0  0  0  0  0  0  0  0  0  0
   13.2940   23.2220   18.0320   O 0  0  0  0  0  0  0  0  0  0  0  0
   14.5520   18.6330   18.2720   O 0  0  0  0  0  0  0  0  0  0  0  0
   11.4320   19.8530   14.9750   O 0  0  0  0  0  0  0  0  0  0  0  0
    9.2710   20.4970   16.0770   O 0  0  0  0  0  0  0  0  0  0  0  0
   16.9520   24.8460   20.7830   O 0  0  0  0  0  0  0  0  0  0  0  0
   10.3430   19.5050   15.9230   S 0  0  0  0  0  0  0  0  0  0  0  0
  1  4  1  0  0  0  0
  1 34  1  0  0  0  0
  2  4  1  0  0  0  0
  2 25  1  0  0  0  0
  3 26  1  0  0  0  0
  3 29  1  0  0  0  0
  3 30  2  0  0  0  0
  4 29  1  0  0  0  0
  5  6  1  0  0  0  0
  5  7  1  0  0  0  0
  5 26  1  0  0  0  0
  6 14  1  0  0  0  0
  6 31  1  0  0  0  0
  7  8  1  0  0  0  0
  8  9  2  0  0  0  0
  8 10  1  0  0  0  0
  9 11  1  0  0  0  0
 10 12  2  0  0  0  0
 11 13  2  0  0  0  0
 12 13  1  0  0  0  0
 14 27  1  0  0  0  0
 15 16  1  0  0  0  0
 15 27  1  0  0  0  0
 16 23  1  0  0  0  0
 16 24  1  0  0  0  0
 17 18  2  0  0  0  0
 17 22  1  0  0  0  0
 17 35  1  0  0  0  0
 18 19  1  0  0  0  0
 19 20  2  0  0  0  0
 20 21  1  0  0  0  0
 20 28  1  0  0  0  0
 21 22  2  0  0  0  0
 25 34  1  0  0  0  0
 27 35  1  0  0  0  0
 32 35  2  0  0  0  0
 33 35  2  0  0  0  0
A    1
C1
A    2
C2
A    3
C3
A    4
C4
A    5
C5
A    6
C6
A    7
C7
A    8
C8
A    9
C9
A   10
C10
A   11
C11
A   12
C12
A   13
C13
A   14
C14
A   15
C15
A   16
C16
A   17
C17
A   18
C18
A   19
C19
A   20
C20
A   21
C21
A   22
C22
A   23
C23
A   24
C24
A   25
C25
A   26
N1
A   27
N2
A   28
N3
A   29
O1
A   30
O2
A   31
O3
A   32
O4
A   33
O5
A   34
O6
A   35
S1
M  END
>  <InstanceId>
3NUO_478_B_478

>  <ChemCompId>
478

>  <PdbId>
3NUO

>  <ChainId>
B

>  <ResidueNumber>
478

>  <InsertionCode>


>  <Model>
1

>  <AltIds>


>  <MissingHeavyAtoms>
0

>  <ObservedFormula>
C25 N3 O6 S

>  <Name>
{3-[(4-AMINO-BENZENESULFONYL)-ISOBUTYL-AMINO]-1-BENZYL-2-HYDROXY-PROPYL}-CARBAMIC ACID TETRAHYDRO-FURAN-3-YL ESTER

>  <SystematicName>
[(3S)-oxolan-3-yl] N-[(2S,3R)-4-[(4-aminophenyl)sulfonyl-(2-methylpropyl)amino]-3-hydroxy-1-phenyl-butan-2-yl]carbamate

>  <Synonyms>
Amprenavir

>  <Type>
NON-POLYMER

>  <Formula>
C25 H35 N3 O6 S

>  <MolecularWeight>
505.627

>  <ModifiedDate>
2011-06-04

>  <Parent>


>  <OneLetterCode>


>  <SubcomponentList>


>  <AmbiguousFlag>
N

>  <InChI>
InChI=1S/C25H35N3O6S/c1-18(2)15-28(35(31,32)22-10-8-20(26)9-11-22)16-24(29)23(14-19-6-4-3-5-7-19)27-25(30)34-21-12-13-33-17-21/h3-11,18,21,23-24,29H,12-17,26H2,1-2H3,(H,27,30)/t21-,23-,24+/m0/s1

>  <InChIKey>
YMARZQAQMVYCKC-OEMFJLHTSA-N

>  <SMILES>
CC(C)C[N@](C[C@H]([C@H](Cc1ccccc1)NC(=O)O[C@H]2CCOC2)O)S(=O)(=O)c3ccc(cc3)N

$$$$
