1VYG_ACD_A_1134
  RCSB PDB12061704283D
Coordinates from PDB:1VYG:A:1134 Model:1 without hydrogens
 22 21  0  0  0  0            999 V2000
   17.0340   31.3290    6.3160   C 0  0  0  0  0  0  0  0  0  0  0  0
   16.3860   30.3750    7.2820   C 0  0  0  0  0  0  0  0  0  0  0  0
   15.2910   31.1270    8.0340   C 0  0  0  0  0  0  0  0  0  0  0  0
   14.1260   30.1760    8.3230   C 0  0  0  0  0  0  0  0  0  0  0  0
   14.0140   29.8790    9.8140   C 0  0  0  0  0  0  0  0  0  0  0  0
   12.8630   29.3630   10.2740   C 0  0  0  0  0  0  0  0  0  0  0  0
   11.7080   29.0650    9.3390   C 0  0  0  0  0  0  0  0  0  0  0  0
   10.5190   29.6300   10.0190   C 0  0  0  0  0  0  0  0  0  0  0  0
    9.5660   30.3730    9.4630   C 0  0  0  0  0  0  0  0  0  0  0  0
    9.4810   30.8020    8.0320   C 0  0  0  0  0  0  0  0  0  0  0  0
    8.0200   31.1210    7.8520   C 0  0  0  0  0  0  0  0  0  0  0  0
    7.5120   31.6000    6.7320   C 0  0  0  0  0  0  0  0  0  0  0  0
    8.3700   31.8860    5.5430   C 0  0  0  0  0  0  0  0  0  0  0  0
    8.1380   33.3240    5.1070   C 0  0  0  0  0  0  0  0  0  0  0  0
    9.0190   33.9950    4.3560   C 0  0  0  0  0  0  0  0  0  0  0  0
   10.3060   33.3720    3.8360   C 0  0  0  0  0  0  0  0  0  0  0  0
   11.5240   34.0660    4.4230   C 0  0  0  0  0  0  0  0  0  0  0  0
   11.5070   35.5550    4.0900   C 0  0  0  0  0  0  0  0  0  0  0  0
   11.4270   36.3440    5.3890   C 0  0  0  0  0  0  0  0  0  0  0  0
   11.3330   37.8550    5.1650   C 0  0  0  0  0  0  0  0  0  0  0  0
   17.6710   32.3160    6.6950   O 0  0  0  0  0  0  0  0  0  0  0  0
   16.8700   31.0720    5.0250   O 0  0  0  0  0  0  0  0  0  0  0  0
  1  2  1  0  0  0  0
  1 21  2  0  0  0  0
  1 22  1  0  0  0  0
  2  3  1  0  0  0  0
  3  4  1  0  0  0  0
  4  5  1  0  0  0  0
  5  6  2  0  0  0  0
  6  7  1  0  0  0  0
  7  8  1  0  0  0  0
  8  9  2  0  0  0  0
  9 10  1  0  0  0  0
 10 11  1  0  0  0  0
 11 12  2  0  0  0  0
 12 13  1  0  0  0  0
 13 14  1  0  0  0  0
 14 15  2  0  0  0  0
 15 16  1  0  0  0  0
 16 17  1  0  0  0  0
 17 18  1  0  0  0  0
 18 19  1  0  0  0  0
 19 20  1  0  0  0  0
A    1
C1
A    2
C2
A    3
C3
A    4
C4
A    5
C5
A    6
C6
A    7
C7
A    8
C8
A    9
C9
A   10
C10
A   11
C11
A   12
C12
A   13
C13
A   14
C14
A   15
C15
A   16
C16
A   17
C17
A   18
C18
A   19
C19
A   20
C20
A   21
O1
A   22
O2
M  END
>  <InstanceId>
1VYG_ACD_A_1134

>  <ChemCompId>
ACD

>  <PdbId>
1VYG

>  <ChainId>
A

>  <ResidueNumber>
1134

>  <InsertionCode>


>  <Model>
1

>  <AltIds>


>  <MissingHeavyAtoms>
0

>  <ObservedFormula>
C20 O2

>  <Name>
ARACHIDONIC ACID

>  <SystematicName>
(5Z,8Z,11Z,14Z)-icosa-5,8,11,14-tetraenoic acid

>  <Synonyms>


>  <Type>
NON-POLYMER

>  <Formula>
C20 H32 O2

>  <MolecularWeight>
304.467

>  <ModifiedDate>
2011-06-04

>  <Parent>


>  <OneLetterCode>


>  <SubcomponentList>


>  <AmbiguousFlag>
N

>  <InChI>
InChI=1S/C20H32O2/c1-2-3-4-5-6-7-8-9-10-11-12-13-14-15-16-17-18-19-20(21)22/h6-7,9-10,12-13,15-16H,2-5,8,11,14,17-19H2,1H3,(H,21,22)/b7-6-,10-9-,13-12-,16-15-

>  <InChIKey>
YZXBAPSDXZZRGB-DOFZRALJSA-N

>  <SMILES>
CCCCC\C=C/C\C=C/C\C=C/C\C=C/CCCC(=O)O

$$$$
