1VYG_ACD_A_1134


 23 22  0  0  0  0  0  0  0  0999 V2000
   10.1913   29.5282    9.1284 C   0  0  0  0  0  0  0  0  0  0  0  0
    9.0586   30.1474    8.8074 C   0  0  0  0  0  0  0  0  0  0  0  0
   11.5641   30.0656    8.9806 C   0  0  0  0  0  0  0  0  0  0  0  0
   13.7799   29.1112    9.6013 C   0  0  0  0  0  0  0  0  0  0  0  0
   12.4707   28.9170    9.3754 C   0  0  0  0  0  0  0  0  0  0  0  0
   14.3326   30.5256    9.4675 C   0  0  0  0  0  0  0  0  0  0  0  0
   15.6962   30.5234    8.7705 C   0  0  0  0  0  0  0  0  0  0  0  0
   15.5177   30.1295    7.3066 C   0  0  0  0  0  0  0  0  0  0  0  0
   16.3064   31.0915    6.4607 C   0  0  0  0  0  0  0  0  0  0  0  0
   17.3732   31.5806    6.8433 O   0  0  0  0  0  0  0  0  0  0  0  0
   15.7881   31.4113    5.2823 O   0  0  0  0  0  0  0  0  0  0  0  0
   14.9772   31.0302    5.0081 H   0  0  0  0  0  0  0  0  0  0  0  0
    8.9177   31.5192    8.2266 C   0  0  0  0  0  0  0  0  0  0  0  0
    7.6251   31.4390    7.4577 C   0  0  0  0  0  0  0  0  0  0  0  0
    7.4748   31.9122    6.2348 C   0  0  0  0  0  0  0  0  0  0  0  0
    8.5931   32.5943    5.5168 C   0  0  0  0  0  0  0  0  0  0  0  0
    8.0334   33.7913    4.7646 C   0  0  0  0  0  0  0  0  0  0  0  0
    8.7598   34.4839    3.8797 C   0  0  0  0  0  0  0  0  0  0  0  0
   10.1899   34.1146    3.5144 C   0  0  0  0  0  0  0  0  0  0  0  0
   11.1720   35.1462    4.0444 C   0  0  0  0  0  0  0  0  0  0  0  0
   11.8870   34.6201    5.2855 C   0  0  0  0  0  0  0  0  0  0  0  0
   12.4845   33.2579    4.9630 C   0  0  0  0  0  0  0  0  0  0  0  0
   12.2981   32.2418    6.0921 C   0  0  0  0  0  0  0  0  0  0  0  0
  9  8  1  0  0  0
  9 10  2  0  0  0
  9 11  1  0  0  0
  8  7  1  0  0  0
  7  6  1  0  0  0
  6  4  1  0  0  0
  4  5  2  0  0  0
  5  3  1  0  0  0
  3  1  1  0  0  0
  1  2  2  0  0  0
  2 13  1  0  0  0
 13 14  1  0  0  0
 14 15  2  0  0  0
 15 16  1  0  0  0
 16 17  1  0  0  0
 17 18  2  0  0  0
 18 19  1  0  0  0
 19 20  1  0  0  0
 20 21  1  0  0  0
 21 22  1  0  0  0
 22 23  1  0  0  0
 11 12  1  0  0  0
M  END
> <minimizedAffinity>
-7.32693

$$$$
1VYG_ACD_A_1134


 23 22  0  0  0  0  0  0  0  0999 V2000
   11.9622   28.5311    9.6863 C   0  0  0  0  0  0  0  0  0  0  0  0
   10.8372   28.9702    9.1286 C   0  0  0  0  0  0  0  0  0  0  0  0
   13.1585   29.3404   10.0167 C   0  0  0  0  0  0  0  0  0  0  0  0
   14.8687   30.3412    8.5069 C   0  0  0  0  0  0  0  0  0  0  0  0
   13.9657   29.3740    8.7344 C   0  0  0  0  0  0  0  0  0  0  0  0
   15.0764   31.4011    9.5827 C   0  0  0  0  0  0  0  0  0  0  0  0
   14.1939   32.6268    9.3299 C   0  0  0  0  0  0  0  0  0  0  0  0
   13.7732   33.2340   10.6657 C   0  0  0  0  0  0  0  0  0  0  0  0
   12.3133   32.9391   10.8780 C   0  0  0  0  0  0  0  0  0  0  0  0
   11.4287   33.4936   10.2196 O   0  0  0  0  0  0  0  0  0  0  0  0
   12.0149   32.0641   11.8291 O   0  0  0  0  0  0  0  0  0  0  0  0
   12.6996   31.6528   12.3190 H   0  0  0  0  0  0  0  0  0  0  0  0
   10.5296   30.3737    8.7107 C   0  0  0  0  0  0  0  0  0  0  0  0
    9.0365   30.4681    8.8857 C   0  0  0  0  0  0  0  0  0  0  0  0
    8.2434   31.1028    8.0430 C   0  0  0  0  0  0  0  0  0  0  0  0
    8.7821   31.8059    6.8400 C   0  0  0  0  0  0  0  0  0  0  0  0
    7.6216   32.1789    5.9312 C   0  0  0  0  0  0  0  0  0  0  0  0
    7.6508   33.2573    5.1395 C   0  0  0  0  0  0  0  0  0  0  0  0
    8.8565   34.1803    5.0436 C   0  0  0  0  0  0  0  0  0  0  0  0
    9.4865   34.1131    3.6622 C   0  0  0  0  0  0  0  0  0  0  0  0
   10.9917   33.8865    3.7681 C   0  0  0  0  0  0  0  0  0  0  0  0
   11.2389   32.4480    4.1994 C   0  0  0  0  0  0  0  0  0  0  0  0
   12.1263   32.3413    5.4417 C   0  0  0  0  0  0  0  0  0  0  0  0
  9  8  1  0  0  0
  9 10  2  0  0  0
  9 11  1  0  0  0
  8  7  1  0  0  0
  7  6  1  0  0  0
  6  4  1  0  0  0
  4  5  2  0  0  0
  5  3  1  0  0  0
  3  1  1  0  0  0
  1  2  2  0  0  0
  2 13  1  0  0  0
 13 14  1  0  0  0
 14 15  2  0  0  0
 15 16  1  0  0  0
 16 17  1  0  0  0
 17 18  2  0  0  0
 18 19  1  0  0  0
 19 20  1  0  0  0
 20 21  1  0  0  0
 21 22  1  0  0  0
 22 23  1  0  0  0
 11 12  1  0  0  0
M  END
> <minimizedAffinity>
-7.19338

$$$$
1VYG_ACD_A_1134


 23 22  0  0  0  0  0  0  0  0999 V2000
    8.5762   34.3191    4.5399 C   0  0  0  0  0  0  0  0  0  0  0  0
    7.8517   33.4646    5.2571 C   0  0  0  0  0  0  0  0  0  0  0  0
    9.8748   34.0414    3.8828 C   0  0  0  0  0  0  0  0  0  0  0  0
   11.8969   34.1120    5.3361 C   0  0  0  0  0  0  0  0  0  0  0  0
   10.8977   34.7723    4.7293 C   0  0  0  0  0  0  0  0  0  0  0  0
   11.9889   32.6033    5.1381 C   0  0  0  0  0  0  0  0  0  0  0  0
   12.8165   31.9488    6.2481 C   0  0  0  0  0  0  0  0  0  0  0  0
   13.9223   32.9047    6.6880 C   0  0  0  0  0  0  0  0  0  0  0  0
   15.1257   32.6648    5.8177 C   0  0  0  0  0  0  0  0  0  0  0  0
   15.4168   31.5426    5.3940 O   0  0  0  0  0  0  0  0  0  0  0  0
   15.8803   33.7201    5.5411 O   0  0  0  0  0  0  0  0  0  0  0  0
   15.6439   34.5646    5.8713 H   0  0  0  0  0  0  0  0  0  0  0  0
    8.1850   32.0378    5.5606 C   0  0  0  0  0  0  0  0  0  0  0  0
    7.5867   31.8251    6.9265 C   0  0  0  0  0  0  0  0  0  0  0  0
    8.2707   31.3656    7.9574 C   0  0  0  0  0  0  0  0  0  0  0  0
    9.7132   30.9959    7.8374 C   0  0  0  0  0  0  0  0  0  0  0  0
   10.0047   29.8476    8.7904 C   0  0  0  0  0  0  0  0  0  0  0  0
   10.9671   29.9141    9.7176 C   0  0  0  0  0  0  0  0  0  0  0  0
   11.8249   31.1523    9.9317 C   0  0  0  0  0  0  0  0  0  0  0  0
   13.2706   30.7734   10.2075 C   0  0  0  0  0  0  0  0  0  0  0  0
   13.5846   29.3956    9.6318 C   0  0  0  0  0  0  0  0  0  0  0  0
   14.4960   29.5677    8.4251 C   0  0  0  0  0  0  0  0  0  0  0  0
   15.8198   30.2540    8.7698 C   0  0  0  0  0  0  0  0  0  0  0  0
  9  8  1  0  0  0
  9 10  2  0  0  0
  9 11  1  0  0  0
  8  7  1  0  0  0
  7  6  1  0  0  0
  6  4  1  0  0  0
  4  5  2  0  0  0
  5  3  1  0  0  0
  3  1  1  0  0  0
  1  2  2  0  0  0
  2 13  1  0  0  0
 13 14  1  0  0  0
 14 15  2  0  0  0
 15 16  1  0  0  0
 16 17  1  0  0  0
 17 18  2  0  0  0
 18 19  1  0  0  0
 19 20  1  0  0  0
 20 21  1  0  0  0
 21 22  1  0  0  0
 22 23  1  0  0  0
 11 12  1  0  0  0
M  END
> <minimizedAffinity>
-7.13885

$$$$
1VYG_ACD_A_1134


 23 22  0  0  0  0  0  0  0  0999 V2000
   12.2519   35.3149    5.1890 C   0  0  0  0  0  0  0  0  0  0  0  0
   11.1167   35.3789    4.4988 C   0  0  0  0  0  0  0  0  0  0  0  0
   13.0878   34.1107    5.4047 C   0  0  0  0  0  0  0  0  0  0  0  0
   12.9208   32.3641    7.1730 C   0  0  0  0  0  0  0  0  0  0  0  0
   12.7301   33.6397    6.8001 C   0  0  0  0  0  0  0  0  0  0  0  0
   13.5253   31.3992    6.1594 C   0  0  0  0  0  0  0  0  0  0  0  0
   14.5491   30.4718    6.8203 C   0  0  0  0  0  0  0  0  0  0  0  0
   15.7322   31.2962    7.3212 C   0  0  0  0  0  0  0  0  0  0  0  0
   16.8051   31.2686    6.2670 C   0  0  0  0  0  0  0  0  0  0  0  0
   16.8224   30.4216    5.3693 O   0  0  0  0  0  0  0  0  0  0  0  0
   17.7539   32.1911    6.3590 O   0  0  0  0  0  0  0  0  0  0  0  0
   17.7246   32.8263    7.0471 H   0  0  0  0  0  0  0  0  0  0  0  0
   10.4317   34.2535    3.7893 C   0  0  0  0  0  0  0  0  0  0  0  0
    8.9737   34.4984    4.0775 C   0  0  0  0  0  0  0  0  0  0  0  0
    8.2512   33.7352    4.8760 C   0  0  0  0  0  0  0  0  0  0  0  0
    8.8335   32.5360    5.5501 C   0  0  0  0  0  0  0  0  0  0  0  0
    7.7841   31.9356    6.4721 C   0  0  0  0  0  0  0  0  0  0  0  0
    8.0973   31.3887    7.6524 C   0  0  0  0  0  0  0  0  0  0  0  0
    9.5174   31.3554    8.1975 C   0  0  0  0  0  0  0  0  0  0  0  0
    9.9104   29.9465    8.6103 C   0  0  0  0  0  0  0  0  0  0  0  0
   10.9418   29.9835    9.7342 C   0  0  0  0  0  0  0  0  0  0  0  0
   12.0614   29.0081    9.4005 C   0  0  0  0  0  0  0  0  0  0  0  0
   13.3858   29.3645   10.0794 C   0  0  0  0  0  0  0  0  0  0  0  0
  9  8  1  0  0  0
  9 10  2  0  0  0
  9 11  1  0  0  0
  8  7  1  0  0  0
  7  6  1  0  0  0
  6  4  1  0  0  0
  4  5  2  0  0  0
  5  3  1  0  0  0
  3  1  1  0  0  0
  1  2  2  0  0  0
  2 13  1  0  0  0
 13 14  1  0  0  0
 14 15  2  0  0  0
 15 16  1  0  0  0
 16 17  1  0  0  0
 17 18  2  0  0  0
 18 19  1  0  0  0
 19 20  1  0  0  0
 20 21  1  0  0  0
 21 22  1  0  0  0
 22 23  1  0  0  0
 11 12  1  0  0  0
M  END
> <minimizedAffinity>
-7.00136

$$$$
1VYG_ACD_A_1134


 23 22  0  0  0  0  0  0  0  0999 V2000
   12.3856   32.5466    5.7481 C   0  0  0  0  0  0  0  0  0  0  0  0
   12.9325   31.8616    6.7486 C   0  0  0  0  0  0  0  0  0  0  0  0
   12.9972   33.6804    5.0159 C   0  0  0  0  0  0  0  0  0  0  0  0
   11.7442   35.8285    5.1625 C   0  0  0  0  0  0  0  0  0  0  0  0
   12.5274   34.9153    5.7585 C   0  0  0  0  0  0  0  0  0  0  0  0
   11.3218   35.5837    3.7183 C   0  0  0  0  0  0  0  0  0  0  0  0
    9.8004   35.6671    3.5649 C   0  0  0  0  0  0  0  0  0  0  0  0
    9.2252   34.2593    3.4337 C   0  0  0  0  0  0  0  0  0  0  0  0
    8.1926   34.0703    4.5113 C   0  0  0  0  0  0  0  0  0  0  0  0
    8.4898   34.0475    5.7091 O   0  0  0  0  0  0  0  0  0  0  0  0
    6.9385   33.9053    4.1118 O   0  0  0  0  0  0  0  0  0  0  0  0
    6.7313   33.9256    3.1982 H   0  0  0  0  0  0  0  0  0  0  0  0
   14.2816   32.0821    7.3570 C   0  0  0  0  0  0  0  0  0  0  0  0
   15.0391   30.8356    6.9816 C   0  0  0  0  0  0  0  0  0  0  0  0
   15.1722   29.7954    7.7829 C   0  0  0  0  0  0  0  0  0  0  0  0
   14.5865   29.7863    9.1572 C   0  0  0  0  0  0  0  0  0  0  0  0
   13.2961   28.9826    9.1335 C   0  0  0  0  0  0  0  0  0  0  0  0
   12.1550   29.4456    9.6569 C   0  0  0  0  0  0  0  0  0  0  0  0
   12.0328   30.8274   10.2818 C   0  0  0  0  0  0  0  0  0  0  0  0
   10.7954   31.5486    9.7735 C   0  0  0  0  0  0  0  0  0  0  0  0
    9.8247   30.5626    9.1302 C   0  0  0  0  0  0  0  0  0  0  0  0
    9.3801   31.1226    7.7867 C   0  0  0  0  0  0  0  0  0  0  0  0
    7.8679   31.3419    7.7021 C   0  0  0  0  0  0  0  0  0  0  0  0
  9  8  1  0  0  0
  9 10  2  0  0  0
  9 11  1  0  0  0
  8  7  1  0  0  0
  7  6  1  0  0  0
  6  4  1  0  0  0
  4  5  2  0  0  0
  5  3  1  0  0  0
  3  1  1  0  0  0
  1  2  2  0  0  0
  2 13  1  0  0  0
 13 14  1  0  0  0
 14 15  2  0  0  0
 15 16  1  0  0  0
 16 17  1  0  0  0
 17 18  2  0  0  0
 18 19  1  0  0  0
 19 20  1  0  0  0
 20 21  1  0  0  0
 21 22  1  0  0  0
 22 23  1  0  0  0
 11 12  1  0  0  0
M  END
> <minimizedAffinity>
-6.96101

$$$$
1VYG_ACD_A_1134


 23 22  0  0  0  0  0  0  0  0999 V2000
   10.5012   29.8164    9.0270 C   0  0  0  0  0  0  0  0  0  0  0  0
   10.3030   30.7760    8.1274 C   0  0  0  0  0  0  0  0  0  0  0  0
   11.6367   29.7137    9.9733 C   0  0  0  0  0  0  0  0  0  0  0  0
   13.8850   29.3147    8.9773 C   0  0  0  0  0  0  0  0  0  0  0  0
   12.6565   28.8508    9.2574 C   0  0  0  0  0  0  0  0  0  0  0  0
   14.2376   30.7319    9.4143 C   0  0  0  0  0  0  0  0  0  0  0  0
   15.0023   31.4758    8.3158 C   0  0  0  0  0  0  0  0  0  0  0  0
   15.5827   30.4667    7.3284 C   0  0  0  0  0  0  0  0  0  0  0  0
   16.1769   31.2263    6.1737 C   0  0  0  0  0  0  0  0  0  0  0  0
   16.0379   32.4464    6.0488 O   0  0  0  0  0  0  0  0  0  0  0  0
   16.8451   30.5158    5.2746 O   0  0  0  0  0  0  0  0  0  0  0  0
   16.9407   29.5903    5.3857 H   0  0  0  0  0  0  0  0  0  0  0  0
   11.1793   31.9612    7.8698 C   0  0  0  0  0  0  0  0  0  0  0  0
   11.7002   31.7114    6.4788 C   0  0  0  0  0  0  0  0  0  0  0  0
   12.3607   32.6123    5.7760 C   0  0  0  0  0  0  0  0  0  0  0  0
   12.6277   33.9809    6.3118 C   0  0  0  0  0  0  0  0  0  0  0  0
   13.0732   34.8763    5.1666 C   0  0  0  0  0  0  0  0  0  0  0  0
   12.2187   35.6550    4.4930 C   0  0  0  0  0  0  0  0  0  0  0  0
   10.7393   35.7490    4.8360 C   0  0  0  0  0  0  0  0  0  0  0  0
    9.8789   35.5477    3.5996 C   0  0  0  0  0  0  0  0  0  0  0  0
    9.1015   34.2380    3.6928 C   0  0  0  0  0  0  0  0  0  0  0  0
    8.5266   34.1114    5.0963 C   0  0  0  0  0  0  0  0  0  0  0  0
    8.2310   32.6629    5.4921 C   0  0  0  0  0  0  0  0  0  0  0  0
  9  8  1  0  0  0
  9 10  2  0  0  0
  9 11  1  0  0  0
  8  7  1  0  0  0
  7  6  1  0  0  0
  6  4  1  0  0  0
  4  5  2  0  0  0
  5  3  1  0  0  0
  3  1  1  0  0  0
  1  2  2  0  0  0
  2 13  1  0  0  0
 13 14  1  0  0  0
 14 15  2  0  0  0
 15 16  1  0  0  0
 16 17  1  0  0  0
 17 18  2  0  0  0
 18 19  1  0  0  0
 19 20  1  0  0  0
 20 21  1  0  0  0
 21 22  1  0  0  0
 22 23  1  0  0  0
 11 12  1  0  0  0
M  END
> <minimizedAffinity>
-6.91690

$$$$
1VYG_ACD_A_1134


 23 22  0  0  0  0  0  0  0  0999 V2000
    8.2142   31.2143    7.6194 C   0  0  0  0  0  0  0  0  0  0  0  0
    8.7992   30.6923    8.6940 C   0  0  0  0  0  0  0  0  0  0  0  0
    8.8865   31.9156    6.5007 C   0  0  0  0  0  0  0  0  0  0  0  0
    8.0925   33.7274    4.9865 C   0  0  0  0  0  0  0  0  0  0  0  0
    7.7970   32.7541    5.8628 C   0  0  0  0  0  0  0  0  0  0  0  0
    9.5572   33.9591    4.6332 C   0  0  0  0  0  0  0  0  0  0  0  0
    9.7524   35.3106    3.9401 C   0  0  0  0  0  0  0  0  0  0  0  0
   11.2056   35.7530    4.0898 C   0  0  0  0  0  0  0  0  0  0  0  0
   11.2426   36.9457    5.0059 C   0  0  0  0  0  0  0  0  0  0  0  0
   10.4507   37.8857    4.8929 O   0  0  0  0  0  0  0  0  0  0  0  0
   12.1881   36.9526    5.9364 O   0  0  0  0  0  0  0  0  0  0  0  0
   12.7806   36.2302    6.0076 H   0  0  0  0  0  0  0  0  0  0  0  0
   10.2611   30.6975    9.0130 C   0  0  0  0  0  0  0  0  0  0  0  0
   10.6243   29.2358    8.9980 C   0  0  0  0  0  0  0  0  0  0  0  0
   11.7281   28.7543    9.5380 C   0  0  0  0  0  0  0  0  0  0  0  0
   12.7286   29.6448   10.1995 C   0  0  0  0  0  0  0  0  0  0  0  0
   14.0994   29.3684    9.6026 C   0  0  0  0  0  0  0  0  0  0  0  0
   14.6151   30.1143    8.6187 C   0  0  0  0  0  0  0  0  0  0  0  0
   13.9012   31.3263    8.0389 C   0  0  0  0  0  0  0  0  0  0  0  0
   13.6296   31.1413    6.5551 C   0  0  0  0  0  0  0  0  0  0  0  0
   12.5717   32.1305    6.0747 C   0  0  0  0  0  0  0  0  0  0  0  0
   13.0919   33.5441    6.2922 C   0  0  0  0  0  0  0  0  0  0  0  0
   14.2020   33.9293    5.3116 C   0  0  0  0  0  0  0  0  0  0  0  0
  9  8  1  0  0  0
  9 10  2  0  0  0
  9 11  1  0  0  0
  8  7  1  0  0  0
  7  6  1  0  0  0
  6  4  1  0  0  0
  4  5  2  0  0  0
  5  3  1  0  0  0
  3  1  1  0  0  0
  1  2  2  0  0  0
  2 13  1  0  0  0
 13 14  1  0  0  0
 14 15  2  0  0  0
 15 16  1  0  0  0
 16 17  1  0  0  0
 17 18  2  0  0  0
 18 19  1  0  0  0
 19 20  1  0  0  0
 20 21  1  0  0  0
 21 22  1  0  0  0
 22 23  1  0  0  0
 11 12  1  0  0  0
M  END
> <minimizedAffinity>
-6.90845

$$$$
1VYG_ACD_A_1134


 23 22  0  0  0  0  0  0  0  0999 V2000
    8.1440   31.3097    7.8712 C   0  0  0  0  0  0  0  0  0  0  0  0
    7.6770   31.7461    6.7047 C   0  0  0  0  0  0  0  0  0  0  0  0
    9.5590   31.3070    8.3108 C   0  0  0  0  0  0  0  0  0  0  0  0
   11.0153   29.4687    9.1508 C   0  0  0  0  0  0  0  0  0  0  0  0
    9.7796   29.9225    8.8866 C   0  0  0  0  0  0  0  0  0  0  0  0
   12.1969   30.3909    8.8725 C   0  0  0  0  0  0  0  0  0  0  0  0
   13.3950   30.0383    9.7588 C   0  0  0  0  0  0  0  0  0  0  0  0
   14.5628   29.5951    8.8814 C   0  0  0  0  0  0  0  0  0  0  0  0
   15.6351   30.6474    8.9581 C   0  0  0  0  0  0  0  0  0  0  0  0
   15.6067   31.5545    9.7947 O   0  0  0  0  0  0  0  0  0  0  0  0
   16.6111   30.5692    8.0631 O   0  0  0  0  0  0  0  0  0  0  0  0
   16.6165   29.8736    7.4353 H   0  0  0  0  0  0  0  0  0  0  0  0
    8.4727   32.3288    5.5793 C   0  0  0  0  0  0  0  0  0  0  0  0
    7.5799   33.4219    5.0532 C   0  0  0  0  0  0  0  0  0  0  0  0
    7.9610   34.2981    4.1427 C   0  0  0  0  0  0  0  0  0  0  0  0
    9.3409   34.2820    3.5704 C   0  0  0  0  0  0  0  0  0  0  0  0
   10.2106   35.2442    4.3638 C   0  0  0  0  0  0  0  0  0  0  0  0
   11.4375   34.9176    4.7863 C   0  0  0  0  0  0  0  0  0  0  0  0
   12.0888   33.5777    4.4775 C   0  0  0  0  0  0  0  0  0  0  0  0
   12.0184   32.6475    5.6773 C   0  0  0  0  0  0  0  0  0  0  0  0
   13.4088   32.1372    6.0444 C   0  0  0  0  0  0  0  0  0  0  0  0
   14.1686   33.2541    6.7454 C   0  0  0  0  0  0  0  0  0  0  0  0
   13.4503   33.7732    7.9931 C   0  0  0  0  0  0  0  0  0  0  0  0
  9  8  1  0  0  0
  9 10  2  0  0  0
  9 11  1  0  0  0
  8  7  1  0  0  0
  7  6  1  0  0  0
  6  4  1  0  0  0
  4  5  2  0  0  0
  5  3  1  0  0  0
  3  1  1  0  0  0
  1  2  2  0  0  0
  2 13  1  0  0  0
 13 14  1  0  0  0
 14 15  2  0  0  0
 15 16  1  0  0  0
 16 17  1  0  0  0
 17 18  2  0  0  0
 18 19  1  0  0  0
 19 20  1  0  0  0
 20 21  1  0  0  0
 21 22  1  0  0  0
 22 23  1  0  0  0
 11 12  1  0  0  0
M  END
> <minimizedAffinity>
-6.90737

$$$$
1VYG_ACD_A_1134


 23 22  0  0  0  0  0  0  0  0999 V2000
    8.7468   30.9863    8.3177 C   0  0  0  0  0  0  0  0  0  0  0  0
    8.1332   31.5199    7.2650 C   0  0  0  0  0  0  0  0  0  0  0  0
   10.1845   30.6433    8.4218 C   0  0  0  0  0  0  0  0  0  0  0  0
   11.3629   28.6572    9.3561 C   0  0  0  0  0  0  0  0  0  0  0  0
   10.2055   29.2591    9.0388 C   0  0  0  0  0  0  0  0  0  0  0  0
   12.6623   29.4106    9.0957 C   0  0  0  0  0  0  0  0  0  0  0  0
   13.3898   29.7285   10.4052 C   0  0  0  0  0  0  0  0  0  0  0  0
   13.8550   31.1823   10.3878 C   0  0  0  0  0  0  0  0  0  0  0  0
   12.6702   32.0593   10.6880 C   0  0  0  0  0  0  0  0  0  0  0  0
   12.3074   32.9577    9.9234 O   0  0  0  0  0  0  0  0  0  0  0  0
   12.0396   31.8364   11.8336 O   0  0  0  0  0  0  0  0  0  0  0  0
   12.3289   31.1499   12.4018 H   0  0  0  0  0  0  0  0  0  0  0  0
    8.7545   31.8908    5.9553 C   0  0  0  0  0  0  0  0  0  0  0  0
    7.6454   32.6151    5.2383 C   0  0  0  0  0  0  0  0  0  0  0  0
    7.7456   33.8600    4.8116 C   0  0  0  0  0  0  0  0  0  0  0  0
    8.9846   34.6652    5.0310 C   0  0  0  0  0  0  0  0  0  0  0  0
    9.6579   34.9024    3.6885 C   0  0  0  0  0  0  0  0  0  0  0  0
   10.9683   35.1497    3.5790 C   0  0  0  0  0  0  0  0  0  0  0  0
   11.9080   35.1737    4.7754 C   0  0  0  0  0  0  0  0  0  0  0  0
   12.6507   33.8548    4.9123 C   0  0  0  0  0  0  0  0  0  0  0  0
   12.1785   33.0978    6.1502 C   0  0  0  0  0  0  0  0  0  0  0  0
   12.9835   31.8119    6.2716 C   0  0  0  0  0  0  0  0  0  0  0  0
   14.4030   32.0433    6.7947 C   0  0  0  0  0  0  0  0  0  0  0  0
  9  8  1  0  0  0
  9 10  2  0  0  0
  9 11  1  0  0  0
  8  7  1  0  0  0
  7  6  1  0  0  0
  6  4  1  0  0  0
  4  5  2  0  0  0
  5  3  1  0  0  0
  3  1  1  0  0  0
  1  2  2  0  0  0
  2 13  1  0  0  0
 13 14  1  0  0  0
 14 15  2  0  0  0
 15 16  1  0  0  0
 16 17  1  0  0  0
 17 18  2  0  0  0
 18 19  1  0  0  0
 19 20  1  0  0  0
 20 21  1  0  0  0
 21 22  1  0  0  0
 22 23  1  0  0  0
 11 12  1  0  0  0
M  END
> <minimizedAffinity>
-6.88060

$$$$
1VYG_ACD_A_1134


 23 22  0  0  0  0  0  0  0  0999 V2000
    8.0283   31.6820    7.4691 C   0  0  0  0  0  0  0  0  0  0  0  0
    9.1281   31.3369    8.1329 C   0  0  0  0  0  0  0  0  0  0  0  0
    7.8919   31.8274    6.0009 C   0  0  0  0  0  0  0  0  0  0  0  0
    8.7193   33.9766    5.0510 C   0  0  0  0  0  0  0  0  0  0  0  0
    7.7936   33.3221    5.7703 C   0  0  0  0  0  0  0  0  0  0  0  0
    9.8688   33.1732    4.4535 C   0  0  0  0  0  0  0  0  0  0  0  0
   10.9175   34.0931    3.8218 C   0  0  0  0  0  0  0  0  0  0  0  0
   10.5517   35.5483    4.1024 C   0  0  0  0  0  0  0  0  0  0  0  0
   11.7147   36.2000    4.7995 C   0  0  0  0  0  0  0  0  0  0  0  0
   11.7945   37.4238    4.9400 O   0  0  0  0  0  0  0  0  0  0  0  0
   12.6713   35.3944    5.2417 O   0  0  0  0  0  0  0  0  0  0  0  0
   12.5939   34.4678    5.1263 H   0  0  0  0  0  0  0  0  0  0  0  0
   10.4687   31.0206    7.5482 C   0  0  0  0  0  0  0  0  0  0  0  0
   11.3223   32.1798    7.9911 C   0  0  0  0  0  0  0  0  0  0  0  0
   12.4177   32.5600    7.3607 C   0  0  0  0  0  0  0  0  0  0  0  0
   12.9126   31.8408    6.1484 C   0  0  0  0  0  0  0  0  0  0  0  0
   14.4114   32.0641    6.0251 C   0  0  0  0  0  0  0  0  0  0  0  0
   15.3066   31.1942    6.5071 C   0  0  0  0  0  0  0  0  0  0  0  0
   14.9109   29.8886    7.1807 C   0  0  0  0  0  0  0  0  0  0  0  0
   15.3365   29.8766    8.6396 C   0  0  0  0  0  0  0  0  0  0  0  0
   14.1627   30.2379    9.5451 C   0  0  0  0  0  0  0  0  0  0  0  0
   13.1331   29.1190    9.4780 C   0  0  0  0  0  0  0  0  0  0  0  0
   11.9585   29.3302   10.4361 C   0  0  0  0  0  0  0  0  0  0  0  0
  9  8  1  0  0  0
  9 10  2  0  0  0
  9 11  1  0  0  0
  8  7  1  0  0  0
  7  6  1  0  0  0
  6  4  1  0  0  0
  4  5  2  0  0  0
  5  3  1  0  0  0
  3  1  1  0  0  0
  1  2  2  0  0  0
  2 13  1  0  0  0
 13 14  1  0  0  0
 14 15  2  0  0  0
 15 16  1  0  0  0
 16 17  1  0  0  0
 17 18  2  0  0  0
 18 19  1  0  0  0
 19 20  1  0  0  0
 20 21  1  0  0  0
 21 22  1  0  0  0
 22 23  1  0  0  0
 11 12  1  0  0  0
M  END
> <minimizedAffinity>
-6.87508

$$$$
