2FMB_LP1_A_201
  RCSB PDB12061705343D
Coordinates from PDB:2FMB:A:201 Model:1 without hydrogens
 58 61  0  0  0  0            999 V2000
    7.6740   20.7100    7.1540   C 0  0  0  0  0  0  0  0  0  0  0  0
    6.8630   20.9860    5.8950   C 0  0  0  0  0  0  0  0  0  0  0  0
    7.4980   20.2880    2.0530   C 0  0  0  0  0  0  0  0  0  0  0  0
    7.5410   21.6300    2.3680   C 0  0  0  0  0  0  0  0  0  0  0  0
    8.5120   22.4580    1.8120   C 0  0  0  0  0  0  0  0  0  0  0  0
    9.4590   21.9500    0.9340   C 0  0  0  0  0  0  0  0  0  0  0  0
    8.4410   19.7460    1.1820   C 0  0  0  0  0  0  0  0  0  0  0  0
    9.4340   20.5790    0.6100   C 0  0  0  0  0  0  0  0  0  0  0  0
    8.4410   18.3820    0.8770   C 0  0  0  0  0  0  0  0  0  0  0  0
   10.4010   20.0330   -0.2460   C 0  0  0  0  0  0  0  0  0  0  0  0
    9.3720   17.8780    0.0070   C 0  0  0  0  0  0  0  0  0  0  0  0
   10.3280   18.6960   -0.5390   C 0  0  0  0  0  0  0  0  0  0  0  0
    2.1690   19.1550    3.4580   C 0  0  0  0  0  0  0  0  0  0  0  0
    1.7000   19.4670    2.0310   C 0  0  0  0  0  0  0  0  0  0  0  0
   -0.2240   19.0020    4.1950   C 0  0  0  0  0  0  0  0  0  0  0  0
    1.7060   18.4370    1.2140   N 0  0  0  0  0  0  0  0  0  0  0  0
    1.3280   18.3930   -0.1660   C 0  0  0  0  0  0  0  0  0  0  0  0
    5.1070   18.3560   -0.9570   C 0  0  0  0  0  0  0  0  0  0  0  0
    3.5670   20.3300   -1.1350   C 0  0  0  0  0  0  0  0  0  0  0  0
    0.0550   17.5280   -0.4860   C 0  0  0  0  0  0  0  0  0  0  0  0
   -1.2610   18.2920   -0.2810   C 0  0  0  0  0  0  0  0  0  0  0  0
   -1.5450   19.3980   -1.3020   C 0  0  0  0  0  0  0  0  0  0  0  0
    6.4560   22.1180    5.5970   O 0  0  0  0  0  0  0  0  0  0  0  0
    6.6140   19.8950    5.1700   N 0  0  0  0  0  0  0  0  0  0  0  0
    5.8180   20.0250    3.9420   C 0  0  0  0  0  0  0  0  0  0  0  0
    6.4750   19.4050    2.6940   C 0  0  0  0  0  0  0  0  0  0  0  0
    4.5450   19.1670    4.0620   C 0  0  0  0  0  0  0  0  0  0  0  0
    4.6510   18.0270    4.4700   O 0  0  0  0  0  0  0  0  0  0  0  0
    3.4730   19.7140    3.5870   N 0  0  0  0  0  0  0  0  0  0  0  0
    1.3100   20.5710    1.6550   O 0  0  0  0  0  0  0  0  0  0  0  0
    1.1300   19.6040    4.5190   C 0  0  0  0  0  0  0  0  0  0  0  0
    1.4670   18.9830    5.8690   C 0  0  0  0  0  0  0  0  0  0  0  0
    2.6030   18.0320   -0.9850   C 0  0  0  0  0  0  0  0  0  0  0  0
    3.8110   18.9590   -0.5770   C 0  0  0  0  0  0  0  0  0  0  0  0
    0.0010   16.3610    0.3430   O 0  0  0  0  0  0  0  0  0  0  0  0
   -1.0760   20.5510   -1.3100   O 0  0  0  0  0  0  0  0  0  0  0  0
   -2.3620   18.9460   -2.2470   N 0  0  0  0  0  0  0  0  0  0  0  0
   -2.7650   19.6980   -3.4180   C 0  0  0  0  0  0  0  0  0  0  0  0
   -1.7690   19.3530   -4.5450   C 0  0  0  0  0  0  0  0  0  0  0  0
   -1.8700   20.1130   -5.8400   C 0  0  0  0  0  0  0  0  0  0  0  0
   -4.1710   19.3160   -3.8450   C 0  0  0  0  0  0  0  0  0  0  0  0
   -4.4650   18.1050   -3.8900   O 0  0  0  0  0  0  0  0  0  0  0  0
   -5.0460   20.3030   -4.0920   N 0  0  0  0  0  0  0  0  0  0  0  0
   -6.4140   20.0280   -4.4820   C 0  0  0  0  0  0  0  0  0  0  0  0
   -7.4860   20.2000   -3.3810   C 0  0  0  0  0  0  0  0  0  0  0  0
   -7.0710   21.2250   -2.3290   C 0  0  0  0  0  0  0  0  0  0  0  0
   -7.4750   22.5490   -2.4530   C 0  0  0  0  0  0  0  0  0  0  0  0
   -7.0850   23.5130   -1.5120   C 0  0  0  0  0  0  0  0  0  0  0  0
   -6.2670   23.1690   -0.4570   C 0  0  0  0  0  0  0  0  0  0  0  0
   -6.2350   20.8740   -1.2640   C 0  0  0  0  0  0  0  0  0  0  0  0
   -5.8260   21.8510   -0.3030   C 0  0  0  0  0  0  0  0  0  0  0  0
   -5.7880   19.5500   -1.1290   C 0  0  0  0  0  0  0  0  0  0  0  0
   -4.9800   21.4850    0.7510   C 0  0  0  0  0  0  0  0  0  0  0  0
   -4.9460   19.2110   -0.0810   C 0  0  0  0  0  0  0  0  0  0  0  0
   -4.5540   20.1660    0.8340   C 0  0  0  0  0  0  0  0  0  0  0  0
   -6.8080   20.6910   -5.7930   C 0  0  0  0  0  0  0  0  0  0  0  0
   -6.3140   21.7790   -6.1360   O 0  0  0  0  0  0  0  0  0  0  0  0
   -7.7080   20.1110   -6.5590   N 0  0  0  0  0  0  0  0  0  0  0  0
  1  2  1  0  0  0  0
  2 23  2  0  0  0  0
  2 24  1  0  0  0  0
  3  4  2  0  0  0  0
  3  7  1  0  0  0  0
  3 26  1  0  0  0  0
  4  5  1  0  0  0  0
  5  6  2  0  0  0  0
  6  8  1  0  0  0  0
  7  8  2  0  0  0  0
  7  9  1  0  0  0  0
  8 10  1  0  0  0  0
  9 11  2  0  0  0  0
 10 12  2  0  0  0  0
 11 12  1  0  0  0  0
 13 14  1  0  0  0  0
 13 29  1  0  0  0  0
 13 31  1  0  0  0  0
 14 16  1  0  0  0  0
 14 30  2  0  0  0  0
 15 31  1  0  0  0  0
 16 17  1  0  0  0  0
 17 20  1  0  0  0  0
 17 33  1  0  0  0  0
 18 34  1  0  0  0  0
 19 34  1  0  0  0  0
 20 21  1  0  0  0  0
 20 35  1  0  0  0  0
 21 22  1  0  0  0  0
 22 36  2  0  0  0  0
 22 37  1  0  0  0  0
 24 25  1  0  0  0  0
 25 26  1  0  0  0  0
 25 27  1  0  0  0  0
 27 28  2  0  0  0  0
 27 29  1  0  0  0  0
 31 32  1  0  0  0  0
 33 34  1  0  0  0  0
 37 38  1  0  0  0  0
 38 39  1  0  0  0  0
 38 41  1  0  0  0  0
 39 40  1  0  0  0  0
 41 42  2  0  0  0  0
 41 43  1  0  0  0  0
 43 44  1  0  0  0  0
 44 45  1  0  0  0  0
 44 56  1  0  0  0  0
 45 46  1  0  0  0  0
 46 47  2  0  0  0  0
 46 50  1  0  0  0  0
 47 48  1  0  0  0  0
 48 49  2  0  0  0  0
 49 51  1  0  0  0  0
 50 51  2  0  0  0  0
 50 52  1  0  0  0  0
 51 53  1  0  0  0  0
 52 54  2  0  0  0  0
 53 55  2  0  0  0  0
 54 55  1  0  0  0  0
 56 57  2  0  0  0  0
 56 58  1  0  0  0  0
A    1
C1
A    2
C2
A    3
C7
A    4
C8
A    5
C9
A    6
C10
A    7
C11
A    8
C12
A    9
C13
A   10
C14
A   11
C15
A   12
C16
A   13
C20
A   14
C21
A   15
C24
A   16
N26
A   17
C27
A   18
C30
A   19
C31
A   20
C32
A   21
C33
A   22
C35
A   23
O3
A   24
N4
A   25
C5
A   26
C6
A   27
C17
A   28
O18
A   29
N19
A   30
O22
A   31
C23
A   32
C25
A   33
C28
A   34
C29
A   35
O34
A   36
O36
A   37
N37
A   38
C38
A   39
C39
A   40
C40
A   41
C41
A   42
O42
A   43
N43
A   44
C44
A   45
C45
A   46
C46
A   47
C47
A   48
C48
A   49
C49
A   50
C50
A   51
C51
A   52
C52
A   53
C53
A   54
C54
A   55
C55
A   56
C56
A   57
O57
A   58
N58
M  END
>  <InstanceId>
2FMB_LP1_A_201

>  <ChemCompId>
LP1

>  <PdbId>
2FMB

>  <ChainId>
A

>  <ResidueNumber>
201

>  <InsertionCode>


>  <Model>
1

>  <AltIds>


>  <MissingHeavyAtoms>
0

>  <ObservedFormula>
C45 N6 O7

>  <Name>
4-[2-(2-ACETYLAMINO-3-NAPHTALEN-1-YL-PROPIONYLAMINO)-4-METHYL-PENTANOYLAMINO]-3-HYDROXY-6-METHYL-HEPTANOIC ACID [1-(1-CARBAMOYL-2-NAPHTHALEN-1-YL-ETHYLCARBAMOYL)-PROPYL]-AMIDE

>  <SystematicName>
(3S,4S)-4-[[(2S)-2-[[(2S)-2-acetamido-3-naphthalen-1-yl-propanoyl]amino]-3-methyl-butanoyl]amino]-N-[(2S)-1-[[(2S)-1-amino-3-naphthalen-1-yl-1-oxo-propan-2-yl]amino]-1-oxo-butan-2-yl]-3-hydroxy-6-methyl-heptanamide

>  <Synonyms>


>  <Type>
NON-POLYMER

>  <Formula>
C45 H58 N6 O7

>  <MolecularWeight>
794.978

>  <ModifiedDate>
2011-06-04

>  <Parent>


>  <OneLetterCode>


>  <SubcomponentList>


>  <AmbiguousFlag>
N

>  <InChI>
InChI=1S/C45H58N6O7/c1-7-35(43(56)50-37(42(46)55)23-31-18-12-16-29-14-8-10-20-33(29)31)48-40(54)25-39(53)36(22-26(2)3)49-45(58)41(27(4)5)51-44(57)38(47-28(6)52)24-32-19-13-17-30-15-9-11-21-34(30)32/h8-21,26-27,35-39,41,53H,7,22-25H2,1-6H3,(H2,46,55)(H,47,52)(H,48,54)(H,49,58)(H,50,56)(H,51,57)/t35-,36-,37-,38-,39-,41-/m0/s1

>  <InChIKey>
ACPDNLLISIAERE-ZYWZKTPASA-N

>  <SMILES>
CC[C@@H](C(=O)N[C@@H](Cc1cccc2c1cccc2)C(=O)N)NC(=O)C[C@@H]([C@H](CC(C)C)NC(=O)[C@H](C(C)C)NC(=O)[C@H](Cc3cccc4c3cccc4)NC(=O)C)O

$$$$
