2FMB_LP1_A_201


 66 69  0  0  0  0  0  0  0  0999 V2000
   -2.1968   18.8435   -0.2540 C   0  0  0  0  0  0  0  0  0  0  0  0
   -1.8274   19.6295   -2.5701 C   0  0  0  0  0  0  0  0  0  0  0  0
   -2.3690   18.8332   -1.6751 N   0  0  0  0  0  0  0  0  0  0  0  0
   -1.0370   20.5109   -2.2375 O   0  0  0  0  0  0  0  0  0  0  0  0
   -2.9716   18.1394   -2.0282 H   0  0  0  0  0  0  0  0  0  0  0  0
   -2.2313   19.3317   -4.0199 C   0  0  0  0  0  0  0  0  0  0  0  0
   -4.6672   19.0563   -4.0417 C   0  0  0  0  0  0  0  0  0  0  0  0
   -4.7356   17.8781   -3.7510 O   0  0  0  0  0  0  0  0  0  0  0  0
   -3.5845   19.7549   -4.1583 N   0  0  0  0  0  0  0  0  0  0  0  0
   -3.7131   20.7074   -4.3716 H   0  0  0  0  0  0  0  0  0  0  0  0
   -5.9739   19.8650   -4.1402 C   0  0  0  0  0  0  0  0  0  0  0  0
   -6.8396   20.3683   -7.7773 C   0  0  0  0  0  0  0  0  0  0  0  0
   -6.2163   20.6389   -6.4145 C   0  0  0  0  0  0  0  0  0  0  0  0
   -5.4658   21.6020   -6.2021 O   0  0  0  0  0  0  0  0  0  0  0  0
   -6.5331   19.7296   -5.4921 N   0  0  0  0  0  0  0  0  0  0  0  0
   -7.1318   18.9800   -5.7132 H   0  0  0  0  0  0  0  0  0  0  0  0
   -6.8176   19.1978   -3.0372 C   0  0  0  0  0  0  0  0  0  0  0  0
   -7.6342   20.1639   -2.2391 C   0  0  0  0  0  0  0  0  0  0  0  0
   -7.6118   21.5064   -2.5544 C   0  0  0  0  0  0  0  0  0  0  0  0
   -8.3967   22.4136   -1.8485 C   0  0  0  0  0  0  0  0  0  0  0  0
   -9.2209   21.9860   -0.8171 C   0  0  0  0  0  0  0  0  0  0  0  0
   -8.4586   19.7022   -1.2151 C   0  0  0  0  0  0  0  0  0  0  0  0
   -9.2619   20.6162   -0.4896 C   0  0  0  0  0  0  0  0  0  0  0  0
   -8.5268   18.3417   -0.9021 C   0  0  0  0  0  0  0  0  0  0  0  0
  -10.1129   20.1527    0.5238 C   0  0  0  0  0  0  0  0  0  0  0  0
   -9.3363   17.9167    0.1186 C   0  0  0  0  0  0  0  0  0  0  0  0
  -10.1091   18.8127    0.8122 C   0  0  0  0  0  0  0  0  0  0  0  0
    0.0108   19.0565   -5.1109 C   0  0  0  0  0  0  0  0  0  0  0  0
   -1.2246   19.9333   -5.0355 C   0  0  0  0  0  0  0  0  0  0  0  0
   -1.7953   19.8434   -6.4454 C   0  0  0  0  0  0  0  0  0  0  0  0
   -1.0590   17.9056    0.2911 C   0  0  0  0  0  0  0  0  0  0  0  0
   -0.8889   16.7574   -0.5483 O   0  0  0  0  0  0  0  0  0  0  0  0
   -0.5998   17.0411   -1.4297 H   0  0  0  0  0  0  0  0  0  0  0  0
    0.3049   18.6043    0.3868 C   0  0  0  0  0  0  0  0  0  0  0  0
    0.4314   19.6497    1.4992 C   0  0  0  0  0  0  0  0  0  0  0  0
    0.3844   20.8874    1.3754 O   0  0  0  0  0  0  0  0  0  0  0  0
    0.5652   19.0480    2.6760 N   0  0  0  0  0  0  0  0  0  0  0  0
    0.6336   18.0659    2.6818 H   0  0  0  0  0  0  0  0  0  0  0  0
    0.6177   19.7330    3.9516 C   0  0  0  0  0  0  0  0  0  0  0  0
    2.0503   19.8515    4.4400 C   0  0  0  0  0  0  0  0  0  0  0  0
    2.3372   20.7956    5.2025 O   0  0  0  0  0  0  0  0  0  0  0  0
    2.9221   18.8980    4.0770 N   0  0  0  0  0  0  0  0  0  0  0  0
    2.6158   18.1640    3.4968 H   0  0  0  0  0  0  0  0  0  0  0  0
    4.3024   18.9208    4.5168 C   0  0  0  0  0  0  0  0  0  0  0  0
    4.4499   19.1249    6.0169 C   0  0  0  0  0  0  0  0  0  0  0  0
    3.9855   18.3026    6.8253 O   0  0  0  0  0  0  0  0  0  0  0  0
    5.0562   20.2063    6.4596 N   0  0  0  0  0  0  0  0  0  0  0  0
    5.4251   20.8597    5.8222 H   0  0  0  0  0  0  0  0  0  0  0  0
    5.1408   20.3617    7.4281 H   0  0  0  0  0  0  0  0  0  0  0  0
    5.2662   19.8091    3.6965 C   0  0  0  0  0  0  0  0  0  0  0  0
    5.7798   19.0993    2.4467 C   0  0  0  0  0  0  0  0  0  0  0  0
    6.8759   18.2491    2.5327 C   0  0  0  0  0  0  0  0  0  0  0  0
    7.3804   17.6058    1.3933 C   0  0  0  0  0  0  0  0  0  0  0  0
    6.8131   17.8276    0.1566 C   0  0  0  0  0  0  0  0  0  0  0  0
    5.2064   19.3324    1.1925 C   0  0  0  0  0  0  0  0  0  0  0  0
    5.7179   18.6867    0.0234 C   0  0  0  0  0  0  0  0  0  0  0  0
    4.1159   20.2083    1.0707 C   0  0  0  0  0  0  0  0  0  0  0  0
    5.1389   18.9396   -1.2261 C   0  0  0  0  0  0  0  0  0  0  0  0
    3.5619   20.4487   -0.1772 C   0  0  0  0  0  0  0  0  0  0  0  0
    4.0709   19.8242   -1.2970 C   0  0  0  0  0  0  0  0  0  0  0  0
   -0.2038   18.8937    4.9527 C   0  0  0  0  0  0  0  0  0  0  0  0
   -0.9846   19.6188    6.0154 C   0  0  0  0  0  0  0  0  0  0  0  0
   -3.6013   18.6292    0.3851 C   0  0  0  0  0  0  0  0  0  0  0  0
   -5.7207   19.8174    1.0721 C   0  0  0  0  0  0  0  0  0  0  0  0
   -3.4766   20.8438    1.5309 C   0  0  0  0  0  0  0  0  0  0  0  0
   -4.3262   20.0095    0.6183 C   0  0  0  0  0  0  0  0  0  0  0  0
 12 13  1  0  0  0
 13 14  2  0  0  0
 13 15  1  0  0  0
 18 19  2  0  0  0
 18 22  1  0  0  0
 18 17  1  0  0  0
 19 20  1  0  0  0
 20 21  2  0  0  0
 21 23  1  0  0  0
 22 23  2  0  0  0
 22 24  1  0  0  0
 23 25  1  0  0  0
 24 26  2  0  0  0
 25 27  2  0  0  0
 26 27  1  0  0  0
  6  2  1  0  0  0
  6  9  1  0  0  0
  6 29  1  0  0  0
  2  3  1  0  0  0
  2  4  2  0  0  0
 28 29  1  0  0  0
  3  1  1  0  0  0
  1 31  1  0  0  0
  1 63  1  0  0  0
 64 66  1  0  0  0
 65 66  1  0  0  0
 31 34  1  0  0  0
 31 32  1  0  0  0
 34 35  1  0  0  0
 35 36  2  0  0  0
 35 37  1  0  0  0
 15 11  1  0  0  0
 11 17  1  0  0  0
 11  7  1  0  0  0
  7  8  2  0  0  0
  7  9  1  0  0  0
 29 30  1  0  0  0
 63 66  1  0  0  0
 37 39  1  0  0  0
 39 61  1  0  0  0
 39 40  1  0  0  0
 61 62  1  0  0  0
 40 41  2  0  0  0
 40 42  1  0  0  0
 42 44  1  0  0  0
 44 50  1  0  0  0
 44 45  1  0  0  0
 50 51  1  0  0  0
 51 52  2  0  0  0
 51 55  1  0  0  0
 52 53  1  0  0  0
 53 54  2  0  0  0
 54 56  1  0  0  0
 55 56  2  0  0  0
 55 57  1  0  0  0
 56 58  1  0  0  0
 57 59  2  0  0  0
 58 60  2  0  0  0
 59 60  1  0  0  0
 45 46  2  0  0  0
 45 47  1  0  0  0
  3  5  1  0  0  0
 15 16  1  0  0  0
  9 10  1  0  0  0
 32 33  1  0  0  0
 37 38  1  0  0  0
 42 43  1  0  0  0
 47 48  1  0  0  0
 47 49  1  0  0  0
M  END
> <minimizedAffinity>
-10.32646

$$$$
2FMB_LP1_A_201


 66 69  0  0  0  0  0  0  0  0999 V2000
    1.3654   18.7516    0.3870 C   0  0  0  0  0  0  0  0  0  0  0  0
    1.8094   19.7210    2.6190 C   0  0  0  0  0  0  0  0  0  0  0  0
    1.7857   18.7302    1.7553 N   0  0  0  0  0  0  0  0  0  0  0  0
    1.4130   20.8425    2.3069 O   0  0  0  0  0  0  0  0  0  0  0  0
    2.0978   17.8599    2.0936 H   0  0  0  0  0  0  0  0  0  0  0  0
    2.3205   19.3415    4.0149 C   0  0  0  0  0  0  0  0  0  0  0  0
    4.7617   19.1267    4.0817 C   0  0  0  0  0  0  0  0  0  0  0  0
    4.8575   17.9211    3.9606 O   0  0  0  0  0  0  0  0  0  0  0  0
    3.6633   19.8103    4.0957 N   0  0  0  0  0  0  0  0  0  0  0  0
    3.7699   20.7860    4.1726 H   0  0  0  0  0  0  0  0  0  0  0  0
    6.0498   19.9703    4.0685 C   0  0  0  0  0  0  0  0  0  0  0  0
    7.3364   20.5303    7.5702 C   0  0  0  0  0  0  0  0  0  0  0  0
    6.5965   20.8038    6.2676 C   0  0  0  0  0  0  0  0  0  0  0  0
    5.9106   21.8205    6.0894 O   0  0  0  0  0  0  0  0  0  0  0  0
    6.7364   19.8366    5.3604 N   0  0  0  0  0  0  0  0  0  0  0  0
    7.2906   19.0461    5.5532 H   0  0  0  0  0  0  0  0  0  0  0  0
    6.8042   19.3382    2.8831 C   0  0  0  0  0  0  0  0  0  0  0  0
    7.7002   20.2951    2.1630 C   0  0  0  0  0  0  0  0  0  0  0  0
    7.6946   21.6312    2.5052 C   0  0  0  0  0  0  0  0  0  0  0  0
    8.5512   22.5283    1.8736 C   0  0  0  0  0  0  0  0  0  0  0  0
    9.4311   22.0968    0.8911 C   0  0  0  0  0  0  0  0  0  0  0  0
    8.5790   19.8293    1.1871 C   0  0  0  0  0  0  0  0  0  0  0  0
    9.4554   20.7332    0.5374 C   0  0  0  0  0  0  0  0  0  0  0  0
    8.6296   18.4738    0.8500 C   0  0  0  0  0  0  0  0  0  0  0  0
   10.3597   20.2645   -0.4262 C   0  0  0  0  0  0  0  0  0  0  0  0
    9.4942   18.0451   -0.1228 C   0  0  0  0  0  0  0  0  0  0  0  0
   10.3375   18.9312   -0.7432 C   0  0  0  0  0  0  0  0  0  0  0  0
    0.0564   19.0622    5.0584 C   0  0  0  0  0  0  0  0  0  0  0  0
    1.3627   19.8295    5.1335 C   0  0  0  0  0  0  0  0  0  0  0  0
    1.9149   19.4335    6.4973 C   0  0  0  0  0  0  0  0  0  0  0  0
   -0.0900   18.2192    0.1235 C   0  0  0  0  0  0  0  0  0  0  0  0
   -0.1100   16.7895    0.0377 O   0  0  0  0  0  0  0  0  0  0  0  0
    0.1614   16.4106    0.8884 H   0  0  0  0  0  0  0  0  0  0  0  0
   -1.0877   18.6225    1.2188 C   0  0  0  0  0  0  0  0  0  0  0  0
   -2.5252   18.1365    1.0098 C   0  0  0  0  0  0  0  0  0  0  0  0
   -2.9146   16.9572    0.9264 O   0  0  0  0  0  0  0  0  0  0  0  0
   -3.3541   19.1738    0.9645 N   0  0  0  0  0  0  0  0  0  0  0  0
   -2.9599   20.0753    0.9978 H   0  0  0  0  0  0  0  0  0  0  0  0
   -4.7963   19.0737    0.8698 C   0  0  0  0  0  0  0  0  0  0  0  0
   -5.2293   18.8919   -0.5740 C   0  0  0  0  0  0  0  0  0  0  0  0
   -5.8125   17.8347   -0.8860 O   0  0  0  0  0  0  0  0  0  0  0  0
   -5.0187   19.9047   -1.4287 N   0  0  0  0  0  0  0  0  0  0  0  0
   -4.5793   20.7233   -1.1032 H   0  0  0  0  0  0  0  0  0  0  0  0
   -5.4212   19.8248   -2.8182 C   0  0  0  0  0  0  0  0  0  0  0  0
   -6.9055   20.0827   -3.0277 C   0  0  0  0  0  0  0  0  0  0  0  0
   -7.6462   20.3801   -2.0746 O   0  0  0  0  0  0  0  0  0  0  0  0
   -7.4126   19.9602   -4.2364 N   0  0  0  0  0  0  0  0  0  0  0  0
   -6.8290   19.7248   -4.9935 H   0  0  0  0  0  0  0  0  0  0  0  0
   -8.3755   20.1040   -4.3832 H   0  0  0  0  0  0  0  0  0  0  0  0
   -4.9123   18.5963   -3.6074 C   0  0  0  0  0  0  0  0  0  0  0  0
   -3.9470   18.9885   -4.7227 C   0  0  0  0  0  0  0  0  0  0  0  0
   -4.4283   19.2285   -6.0043 C   0  0  0  0  0  0  0  0  0  0  0  0
   -3.5570   19.5658   -7.0502 C   0  0  0  0  0  0  0  0  0  0  0  0
   -2.1978   19.6386   -6.8317 C   0  0  0  0  0  0  0  0  0  0  0  0
   -2.5679   19.0542   -4.4991 C   0  0  0  0  0  0  0  0  0  0  0  0
   -1.6704   19.3904   -5.5606 C   0  0  0  0  0  0  0  0  0  0  0  0
   -2.0503   18.7890   -3.2213 C   0  0  0  0  0  0  0  0  0  0  0  0
   -0.2916   19.4412   -5.3221 C   0  0  0  0  0  0  0  0  0  0  0  0
   -0.6811   18.8391   -3.0090 C   0  0  0  0  0  0  0  0  0  0  0  0
    0.1728   19.1576   -4.0446 C   0  0  0  0  0  0  0  0  0  0  0  0
   -5.3809   20.3896    1.4247 C   0  0  0  0  0  0  0  0  0  0  0  0
   -4.5598   21.1700    2.4154 C   0  0  0  0  0  0  0  0  0  0  0  0
    2.4869   18.0716   -0.4535 C   0  0  0  0  0  0  0  0  0  0  0  0
    2.7788   20.4680   -1.1936 C   0  0  0  0  0  0  0  0  0  0  0  0
    4.7299   19.1585   -0.3115 C   0  0  0  0  0  0  0  0  0  0  0  0
    3.4451   19.1520   -1.0859 C   0  0  0  0  0  0  0  0  0  0  0  0
 12 13  1  0  0  0
 13 14  2  0  0  0
 13 15  1  0  0  0
 18 19  2  0  0  0
 18 22  1  0  0  0
 18 17  1  0  0  0
 19 20  1  0  0  0
 20 21  2  0  0  0
 21 23  1  0  0  0
 22 23  2  0  0  0
 22 24  1  0  0  0
 23 25  1  0  0  0
 24 26  2  0  0  0
 25 27  2  0  0  0
 26 27  1  0  0  0
  6  2  1  0  0  0
  6  9  1  0  0  0
  6 29  1  0  0  0
  2  3  1  0  0  0
  2  4  2  0  0  0
 28 29  1  0  0  0
  3  1  1  0  0  0
  1 31  1  0  0  0
  1 63  1  0  0  0
 64 66  1  0  0  0
 65 66  1  0  0  0
 31 34  1  0  0  0
 31 32  1  0  0  0
 34 35  1  0  0  0
 35 36  2  0  0  0
 35 37  1  0  0  0
 15 11  1  0  0  0
 11 17  1  0  0  0
 11  7  1  0  0  0
  7  8  2  0  0  0
  7  9  1  0  0  0
 29 30  1  0  0  0
 63 66  1  0  0  0
 37 39  1  0  0  0
 39 61  1  0  0  0
 39 40  1  0  0  0
 61 62  1  0  0  0
 40 41  2  0  0  0
 40 42  1  0  0  0
 42 44  1  0  0  0
 44 50  1  0  0  0
 44 45  1  0  0  0
 50 51  1  0  0  0
 51 52  2  0  0  0
 51 55  1  0  0  0
 52 53  1  0  0  0
 53 54  2  0  0  0
 54 56  1  0  0  0
 55 56  2  0  0  0
 55 57  1  0  0  0
 56 58  1  0  0  0
 57 59  2  0  0  0
 58 60  2  0  0  0
 59 60  1  0  0  0
 45 46  2  0  0  0
 45 47  1  0  0  0
  3  5  1  0  0  0
 15 16  1  0  0  0
  9 10  1  0  0  0
 32 33  1  0  0  0
 37 38  1  0  0  0
 42 43  1  0  0  0
 47 48  1  0  0  0
 47 49  1  0  0  0
M  END
> <minimizedAffinity>
-10.31544

$$$$
2FMB_LP1_A_201


 66 69  0  0  0  0  0  0  0  0999 V2000
   -1.9996   19.1697   -0.6219 C   0  0  0  0  0  0  0  0  0  0  0  0
   -2.0073   19.8698   -2.9944 C   0  0  0  0  0  0  0  0  0  0  0  0
   -2.3394   19.0658   -2.0086 N   0  0  0  0  0  0  0  0  0  0  0  0
   -1.2919   20.8505   -2.7977 O   0  0  0  0  0  0  0  0  0  0  0  0
   -2.8942   18.2912   -2.2565 H   0  0  0  0  0  0  0  0  0  0  0  0
   -2.5450   19.4530   -4.3694 C   0  0  0  0  0  0  0  0  0  0  0  0
   -4.9724   19.1908   -4.1466 C   0  0  0  0  0  0  0  0  0  0  0  0
   -5.0122   18.0393   -3.7599 O   0  0  0  0  0  0  0  0  0  0  0  0
   -3.9059   19.8720   -4.4160 N   0  0  0  0  0  0  0  0  0  0  0  0
   -4.0548   20.8057   -4.6902 H   0  0  0  0  0  0  0  0  0  0  0  0
   -6.2837   19.9970   -4.1879 C   0  0  0  0  0  0  0  0  0  0  0  0
   -7.2997   20.4970   -7.7863 C   0  0  0  0  0  0  0  0  0  0  0  0
   -6.6177   20.7670   -6.4518 C   0  0  0  0  0  0  0  0  0  0  0  0
   -5.8535   21.7263   -6.2738 O   0  0  0  0  0  0  0  0  0  0  0  0
   -6.9004   19.8618   -5.5145 N   0  0  0  0  0  0  0  0  0  0  0  0
   -7.5122   19.1152   -5.7082 H   0  0  0  0  0  0  0  0  0  0  0  0
   -7.0777   19.3271   -3.0502 C   0  0  0  0  0  0  0  0  0  0  0  0
   -7.9094   20.2828   -2.2552 C   0  0  0  0  0  0  0  0  0  0  0  0
   -7.9204   21.6219   -2.5846 C   0  0  0  0  0  0  0  0  0  0  0  0
   -8.7198   22.5185   -1.8813 C   0  0  0  0  0  0  0  0  0  0  0  0
   -9.5254   22.0832   -0.8386 C   0  0  0  0  0  0  0  0  0  0  0  0
   -8.7145   19.8132   -1.2193 C   0  0  0  0  0  0  0  0  0  0  0  0
   -9.5324   20.7164   -0.4966 C   0  0  0  0  0  0  0  0  0  0  0  0
   -8.7490   18.4549   -0.8917 C   0  0  0  0  0  0  0  0  0  0  0  0
  -10.3641   20.2444    0.5289 C   0  0  0  0  0  0  0  0  0  0  0  0
   -9.5401   18.0225    0.1403 C   0  0  0  0  0  0  0  0  0  0  0  0
  -10.3273   18.9080    0.8312 C   0  0  0  0  0  0  0  0  0  0  0  0
   -0.3581   19.1480   -5.5599 C   0  0  0  0  0  0  0  0  0  0  0  0
   -1.6389   19.9597   -5.5222 C   0  0  0  0  0  0  0  0  0  0  0  0
   -2.2847   19.6435   -6.8656 C   0  0  0  0  0  0  0  0  0  0  0  0
   -0.6363   18.5023   -0.2130 C   0  0  0  0  0  0  0  0  0  0  0  0
   -0.3570   17.3566   -1.0264 O   0  0  0  0  0  0  0  0  0  0  0  0
   -0.2506   17.6338   -1.9498 H   0  0  0  0  0  0  0  0  0  0  0  0
    0.5630   19.4526   -0.3399 C   0  0  0  0  0  0  0  0  0  0  0  0
    1.9347   18.7744   -0.4097 C   0  0  0  0  0  0  0  0  0  0  0  0
    2.1869   17.5695   -0.2251 O   0  0  0  0  0  0  0  0  0  0  0  0
    2.8645   19.6618   -0.7455 N   0  0  0  0  0  0  0  0  0  0  0  0
    2.5875   20.6024   -0.8338 H   0  0  0  0  0  0  0  0  0  0  0  0
    4.2568   19.3451   -0.9911 C   0  0  0  0  0  0  0  0  0  0  0  0
    4.9677   19.0034    0.3062 C   0  0  0  0  0  0  0  0  0  0  0  0
    5.6077   17.9348    0.3641 O   0  0  0  0  0  0  0  0  0  0  0  0
    4.9237   19.8986    1.3050 N   0  0  0  0  0  0  0  0  0  0  0  0
    4.4233   20.7366    1.1762 H   0  0  0  0  0  0  0  0  0  0  0  0
    5.5934   19.6637    2.5682 C   0  0  0  0  0  0  0  0  0  0  0  0
    7.1099   19.6624    2.4510 C   0  0  0  0  0  0  0  0  0  0  0  0
    7.7878   18.7231    2.9021 O   0  0  0  0  0  0  0  0  0  0  0  0
    7.7095   20.6893    1.8861 N   0  0  0  0  0  0  0  0  0  0  0  0
    7.1758   21.4350    1.5278 H   0  0  0  0  0  0  0  0  0  0  0  0
    8.6917   20.7115    1.8218 H   0  0  0  0  0  0  0  0  0  0  0  0
    5.0598   18.4855    3.4156 C   0  0  0  0  0  0  0  0  0  0  0  0
    4.2208   18.9613    4.5986 C   0  0  0  0  0  0  0  0  0  0  0  0
    4.8338   19.2524    5.8114 C   0  0  0  0  0  0  0  0  0  0  0  0
    4.0800   19.6671    6.9190 C   0  0  0  0  0  0  0  0  0  0  0  0
    2.7078   19.7673    6.8326 C   0  0  0  0  0  0  0  0  0  0  0  0
    2.8281   19.0547    4.5095 C   0  0  0  0  0  0  0  0  0  0  0  0
    2.0498   19.4699    5.6352 C   0  0  0  0  0  0  0  0  0  0  0  0
    2.1787   18.7397    3.3053 C   0  0  0  0  0  0  0  0  0  0  0  0
    0.6555   19.5477    5.5320 C   0  0  0  0  0  0  0  0  0  0  0  0
    0.7967   18.8179    3.2273 C   0  0  0  0  0  0  0  0  0  0  0  0
    0.0587   19.2129    4.3238 C   0  0  0  0  0  0  0  0  0  0  0  0
    4.9031   20.5958   -1.6228 C   0  0  0  0  0  0  0  0  0  0  0  0
    4.5536   20.9340   -3.0470 C   0  0  0  0  0  0  0  0  0  0  0  0
   -3.2414   18.7057    0.1961 C   0  0  0  0  0  0  0  0  0  0  0  0
   -5.5775   19.4723    0.7715 C   0  0  0  0  0  0  0  0  0  0  0  0
   -3.5775   20.7417    1.6012 C   0  0  0  0  0  0  0  0  0  0  0  0
   -4.1940   19.9230    0.5058 C   0  0  0  0  0  0  0  0  0  0  0  0
 12 13  1  0  0  0
 13 14  2  0  0  0
 13 15  1  0  0  0
 18 19  2  0  0  0
 18 22  1  0  0  0
 18 17  1  0  0  0
 19 20  1  0  0  0
 20 21  2  0  0  0
 21 23  1  0  0  0
 22 23  2  0  0  0
 22 24  1  0  0  0
 23 25  1  0  0  0
 24 26  2  0  0  0
 25 27  2  0  0  0
 26 27  1  0  0  0
  6  2  1  0  0  0
  6  9  1  0  0  0
  6 29  1  0  0  0
  2  3  1  0  0  0
  2  4  2  0  0  0
 28 29  1  0  0  0
  3  1  1  0  0  0
  1 31  1  0  0  0
  1 63  1  0  0  0
 64 66  1  0  0  0
 65 66  1  0  0  0
 31 34  1  0  0  0
 31 32  1  0  0  0
 34 35  1  0  0  0
 35 36  2  0  0  0
 35 37  1  0  0  0
 15 11  1  0  0  0
 11 17  1  0  0  0
 11  7  1  0  0  0
  7  8  2  0  0  0
  7  9  1  0  0  0
 29 30  1  0  0  0
 63 66  1  0  0  0
 37 39  1  0  0  0
 39 61  1  0  0  0
 39 40  1  0  0  0
 61 62  1  0  0  0
 40 41  2  0  0  0
 40 42  1  0  0  0
 42 44  1  0  0  0
 44 50  1  0  0  0
 44 45  1  0  0  0
 50 51  1  0  0  0
 51 52  2  0  0  0
 51 55  1  0  0  0
 52 53  1  0  0  0
 53 54  2  0  0  0
 54 56  1  0  0  0
 55 56  2  0  0  0
 55 57  1  0  0  0
 56 58  1  0  0  0
 57 59  2  0  0  0
 58 60  2  0  0  0
 59 60  1  0  0  0
 45 46  2  0  0  0
 45 47  1  0  0  0
  3  5  1  0  0  0
 15 16  1  0  0  0
  9 10  1  0  0  0
 32 33  1  0  0  0
 37 38  1  0  0  0
 42 43  1  0  0  0
 47 48  1  0  0  0
 47 49  1  0  0  0
M  END
> <minimizedAffinity>
-10.18340

$$$$
2FMB_LP1_A_201


 66 69  0  0  0  0  0  0  0  0999 V2000
    2.1633   18.7375    0.1522 C   0  0  0  0  0  0  0  0  0  0  0  0
    1.8531   19.6582    2.4270 C   0  0  0  0  0  0  0  0  0  0  0  0
    2.2677   18.7422    1.5799 N   0  0  0  0  0  0  0  0  0  0  0  0
    1.2651   20.6642    2.0340 O   0  0  0  0  0  0  0  0  0  0  0  0
    2.7072   17.9572    1.9796 H   0  0  0  0  0  0  0  0  0  0  0  0
    2.1272   19.3371    3.9020 C   0  0  0  0  0  0  0  0  0  0  0  0
    4.5583   19.0806    4.0875 C   0  0  0  0  0  0  0  0  0  0  0  0
    4.6631   17.9243    3.7278 O   0  0  0  0  0  0  0  0  0  0  0  0
    3.4609   19.7614    4.1677 N   0  0  0  0  0  0  0  0  0  0  0  0
    3.5612   20.6990    4.4505 H   0  0  0  0  0  0  0  0  0  0  0  0
    5.8435   19.8918    4.3347 C   0  0  0  0  0  0  0  0  0  0  0  0
    6.7769   20.5128    7.9367 C   0  0  0  0  0  0  0  0  0  0  0  0
    6.3614   20.8176    6.5037 C   0  0  0  0  0  0  0  0  0  0  0  0
    6.1165   21.9665    6.1089 O   0  0  0  0  0  0  0  0  0  0  0  0
    6.2614   19.7332    5.7343 N   0  0  0  0  0  0  0  0  0  0  0  0
    6.4641   18.8411    6.0980 H   0  0  0  0  0  0  0  0  0  0  0  0
    6.7998   19.2481    3.3126 C   0  0  0  0  0  0  0  0  0  0  0  0
    7.5433   20.2417    2.4777 C   0  0  0  0  0  0  0  0  0  0  0  0
    7.4840   21.5834    2.7916 C   0  0  0  0  0  0  0  0  0  0  0  0
    8.2021   22.5173    2.0503 C   0  0  0  0  0  0  0  0  0  0  0  0
    8.9957   22.1179    0.9843 C   0  0  0  0  0  0  0  0  0  0  0  0
    8.3387   19.8082    1.4190 C   0  0  0  0  0  0  0  0  0  0  0  0
    9.0742   20.7496    0.6574 C   0  0  0  0  0  0  0  0  0  0  0  0
    8.4446   18.4502    1.1055 C   0  0  0  0  0  0  0  0  0  0  0  0
    9.8966   20.3153   -0.3918 C   0  0  0  0  0  0  0  0  0  0  0  0
    9.2239   18.0528    0.0507 C   0  0  0  0  0  0  0  0  0  0  0  0
    9.9309   18.9752   -0.6777 C   0  0  0  0  0  0  0  0  0  0  0  0
   -0.1966   19.0295    4.7956 C   0  0  0  0  0  0  0  0  0  0  0  0
    1.0314   19.9189    4.8334 C   0  0  0  0  0  0  0  0  0  0  0  0
    1.4810   19.8209    6.2860 C   0  0  0  0  0  0  0  0  0  0  0  0
    1.1284   17.7140   -0.4417 C   0  0  0  0  0  0  0  0  0  0  0  0
    0.8313   16.6747    0.4983 O   0  0  0  0  0  0  0  0  0  0  0  0
    0.4059   17.0585    1.2810 H   0  0  0  0  0  0  0  0  0  0  0  0
   -0.2054   18.3645   -0.8361 C   0  0  0  0  0  0  0  0  0  0  0  0
   -1.2436   18.4675    0.2854 C   0  0  0  0  0  0  0  0  0  0  0  0
   -1.0508   18.3056    1.5044 O   0  0  0  0  0  0  0  0  0  0  0  0
   -2.4256   18.8050   -0.2184 N   0  0  0  0  0  0  0  0  0  0  0  0
   -2.5020   18.8742   -1.1975 H   0  0  0  0  0  0  0  0  0  0  0  0
   -3.6105   19.0785    0.5693 C   0  0  0  0  0  0  0  0  0  0  0  0
   -4.8622   18.9545   -0.2811 C   0  0  0  0  0  0  0  0  0  0  0  0
   -5.9564   18.8068    0.2984 O   0  0  0  0  0  0  0  0  0  0  0  0
   -4.7358   19.0733   -1.6118 N   0  0  0  0  0  0  0  0  0  0  0  0
   -3.8420   19.2200   -1.9973 H   0  0  0  0  0  0  0  0  0  0  0  0
   -5.8808   18.9912   -2.4957 C   0  0  0  0  0  0  0  0  0  0  0  0
   -6.7376   17.7580   -2.2534 C   0  0  0  0  0  0  0  0  0  0  0  0
   -7.9614   17.8549   -2.0576 O   0  0  0  0  0  0  0  0  0  0  0  0
   -6.1625   16.5741   -2.2244 N   0  0  0  0  0  0  0  0  0  0  0  0
   -5.1935   16.4936   -2.3790 H   0  0  0  0  0  0  0  0  0  0  0  0
   -6.7013   15.7692   -2.0482 H   0  0  0  0  0  0  0  0  0  0  0  0
   -5.6043   19.2396   -3.9967 C   0  0  0  0  0  0  0  0  0  0  0  0
   -6.3543   20.4592   -4.5257 C   0  0  0  0  0  0  0  0  0  0  0  0
   -6.9846   21.3244   -3.6394 C   0  0  0  0  0  0  0  0  0  0  0  0
   -7.7003   22.4373   -4.1042 C   0  0  0  0  0  0  0  0  0  0  0  0
   -7.8157   22.6790   -5.4565 C   0  0  0  0  0  0  0  0  0  0  0  0
   -6.4755   20.6972   -5.8986 C   0  0  0  0  0  0  0  0  0  0  0  0
   -7.2090   21.8253   -6.3830 C   0  0  0  0  0  0  0  0  0  0  0  0
   -5.8732   19.8243   -6.8186 C   0  0  0  0  0  0  0  0  0  0  0  0
   -7.3296   22.0429   -7.7609 C   0  0  0  0  0  0  0  0  0  0  0  0
   -6.0104   20.0555   -8.1787 C   0  0  0  0  0  0  0  0  0  0  0  0
   -6.7273   21.1438   -8.6310 C   0  0  0  0  0  0  0  0  0  0  0  0
   -3.4826   20.5230    1.0965 C   0  0  0  0  0  0  0  0  0  0  0  0
   -4.1475   20.8643    2.4027 C   0  0  0  0  0  0  0  0  0  0  0  0
    3.6089   18.6314   -0.4183 C   0  0  0  0  0  0  0  0  0  0  0  0
    5.6799   19.9855   -0.9215 C   0  0  0  0  0  0  0  0  0  0  0  0
    3.4219   20.7788   -1.6779 C   0  0  0  0  0  0  0  0  0  0  0  0
    4.2307   20.0635   -0.6363 C   0  0  0  0  0  0  0  0  0  0  0  0
 12 13  1  0  0  0
 13 14  2  0  0  0
 13 15  1  0  0  0
 18 19  2  0  0  0
 18 22  1  0  0  0
 18 17  1  0  0  0
 19 20  1  0  0  0
 20 21  2  0  0  0
 21 23  1  0  0  0
 22 23  2  0  0  0
 22 24  1  0  0  0
 23 25  1  0  0  0
 24 26  2  0  0  0
 25 27  2  0  0  0
 26 27  1  0  0  0
  6  2  1  0  0  0
  6  9  1  0  0  0
  6 29  1  0  0  0
  2  3  1  0  0  0
  2  4  2  0  0  0
 28 29  1  0  0  0
  3  1  1  0  0  0
  1 31  1  0  0  0
  1 63  1  0  0  0
 64 66  1  0  0  0
 65 66  1  0  0  0
 31 34  1  0  0  0
 31 32  1  0  0  0
 34 35  1  0  0  0
 35 36  2  0  0  0
 35 37  1  0  0  0
 15 11  1  0  0  0
 11 17  1  0  0  0
 11  7  1  0  0  0
  7  8  2  0  0  0
  7  9  1  0  0  0
 29 30  1  0  0  0
 63 66  1  0  0  0
 37 39  1  0  0  0
 39 61  1  0  0  0
 39 40  1  0  0  0
 61 62  1  0  0  0
 40 41  2  0  0  0
 40 42  1  0  0  0
 42 44  1  0  0  0
 44 50  1  0  0  0
 44 45  1  0  0  0
 50 51  1  0  0  0
 51 52  2  0  0  0
 51 55  1  0  0  0
 52 53  1  0  0  0
 53 54  2  0  0  0
 54 56  1  0  0  0
 55 56  2  0  0  0
 55 57  1  0  0  0
 56 58  1  0  0  0
 57 59  2  0  0  0
 58 60  2  0  0  0
 59 60  1  0  0  0
 45 46  2  0  0  0
 45 47  1  0  0  0
  3  5  1  0  0  0
 15 16  1  0  0  0
  9 10  1  0  0  0
 32 33  1  0  0  0
 37 38  1  0  0  0
 42 43  1  0  0  0
 47 48  1  0  0  0
 47 49  1  0  0  0
M  END
> <minimizedAffinity>
-10.13863

$$$$
2FMB_LP1_A_201


 66 69  0  0  0  0  0  0  0  0999 V2000
    1.6461   18.8597    0.7818 C   0  0  0  0  0  0  0  0  0  0  0  0
    1.9020   19.7799    3.0635 C   0  0  0  0  0  0  0  0  0  0  0  0
    1.9747   18.8143    2.1743 N   0  0  0  0  0  0  0  0  0  0  0  0
    1.4839   20.8945    2.7550 O   0  0  0  0  0  0  0  0  0  0  0  0
    2.2972   17.9468    2.5099 H   0  0  0  0  0  0  0  0  0  0  0  0
    2.3333   19.3794    4.4803 C   0  0  0  0  0  0  0  0  0  0  0  0
    4.7674   19.1016    4.3875 C   0  0  0  0  0  0  0  0  0  0  0  0
    4.8204   17.9637    3.9636 O   0  0  0  0  0  0  0  0  0  0  0  0
    3.6924   19.7833    4.6193 N   0  0  0  0  0  0  0  0  0  0  0  0
    3.8325   20.7055    4.9341 H   0  0  0  0  0  0  0  0  0  0  0  0
    6.0803   19.8930    4.5319 C   0  0  0  0  0  0  0  0  0  0  0  0
    7.7554   20.3114    1.1778 C   0  0  0  0  0  0  0  0  0  0  0  0
    7.4286   19.7085    2.5375 C   0  0  0  0  0  0  0  0  0  0  0  0
    7.9614   18.6697    2.9534 O   0  0  0  0  0  0  0  0  0  0  0  0
    6.5018   20.3874    3.2142 N   0  0  0  0  0  0  0  0  0  0  0  0
    6.1064   21.2064    2.8370 H   0  0  0  0  0  0  0  0  0  0  0  0
    5.6513   20.9992    5.5147 C   0  0  0  0  0  0  0  0  0  0  0  0
    6.2672   20.8686    6.8714 C   0  0  0  0  0  0  0  0  0  0  0  0
    5.9899   19.7629    7.6478 C   0  0  0  0  0  0  0  0  0  0  0  0
    6.5860   19.6053    8.8957 C   0  0  0  0  0  0  0  0  0  0  0  0
    7.4746   20.5539    9.3820 C   0  0  0  0  0  0  0  0  0  0  0  0
    7.1625   21.8338    7.3278 C   0  0  0  0  0  0  0  0  0  0  0  0
    7.7755   21.6841    8.5962 C   0  0  0  0  0  0  0  0  0  0  0  0
    7.4883   22.9437    6.5432 C   0  0  0  0  0  0  0  0  0  0  0  0
    8.6972   22.6392    9.0481 C   0  0  0  0  0  0  0  0  0  0  0  0
    8.3620   23.8844    7.0222 C   0  0  0  0  0  0  0  0  0  0  0  0
    8.9484   23.7263    8.2520 C   0  0  0  0  0  0  0  0  0  0  0  0
    0.0748   19.0983    5.5352 C   0  0  0  0  0  0  0  0  0  0  0  0
    1.3525   19.9154    5.5562 C   0  0  0  0  0  0  0  0  0  0  0  0
    1.9108   19.6428    6.9476 C   0  0  0  0  0  0  0  0  0  0  0  0
    0.2240   18.3030    0.4092 C   0  0  0  0  0  0  0  0  0  0  0  0
    0.2466   16.8773    0.2713 O   0  0  0  0  0  0  0  0  0  0  0  0
    0.4751   16.4737    1.1232 H   0  0  0  0  0  0  0  0  0  0  0  0
   -0.8493   18.6412    1.4539 C   0  0  0  0  0  0  0  0  0  0  0  0
   -2.2875   18.2985    1.0535 C   0  0  0  0  0  0  0  0  0  0  0  0
   -2.7217   17.1903    0.6891 O   0  0  0  0  0  0  0  0  0  0  0  0
   -3.0637   19.3686    1.1848 N   0  0  0  0  0  0  0  0  0  0  0  0
   -2.6333   20.2166    1.4396 H   0  0  0  0  0  0  0  0  0  0  0  0
   -4.4980   19.3776    0.9800 C   0  0  0  0  0  0  0  0  0  0  0  0
   -4.8360   19.7970   -0.4395 C   0  0  0  0  0  0  0  0  0  0  0  0
   -4.5549   20.9592   -0.7937 O   0  0  0  0  0  0  0  0  0  0  0  0
   -5.3631   18.8765   -1.2614 N   0  0  0  0  0  0  0  0  0  0  0  0
   -5.5293   17.9681   -0.9201 H   0  0  0  0  0  0  0  0  0  0  0  0
   -5.6940   19.1847   -2.6378 C   0  0  0  0  0  0  0  0  0  0  0  0
   -7.1570   19.5511   -2.8347 C   0  0  0  0  0  0  0  0  0  0  0  0
   -7.5233   20.2293   -3.8100 O   0  0  0  0  0  0  0  0  0  0  0  0
   -8.0405   19.1636   -1.9389 N   0  0  0  0  0  0  0  0  0  0  0  0
   -7.7540   18.6265   -1.1652 H   0  0  0  0  0  0  0  0  0  0  0  0
   -8.9878   19.4111   -2.0426 H   0  0  0  0  0  0  0  0  0  0  0  0
   -5.1801   18.1890   -3.7034 C   0  0  0  0  0  0  0  0  0  0  0  0
   -4.1880   18.8371   -4.6654 C   0  0  0  0  0  0  0  0  0  0  0  0
   -4.6062   19.2344   -5.9299 C   0  0  0  0  0  0  0  0  0  0  0  0
   -3.7065   19.8091   -6.8393 C   0  0  0  0  0  0  0  0  0  0  0  0
   -2.3785   19.9658   -6.5043 C   0  0  0  0  0  0  0  0  0  0  0  0
   -2.8398   18.9878   -4.3248 C   0  0  0  0  0  0  0  0  0  0  0  0
   -1.9130   19.5664   -5.2477 C   0  0  0  0  0  0  0  0  0  0  0  0
   -2.3828   18.5696   -3.0650 C   0  0  0  0  0  0  0  0  0  0  0  0
   -0.5646   19.7000   -4.8947 C   0  0  0  0  0  0  0  0  0  0  0  0
   -1.0422   18.7060   -2.7387 C   0  0  0  0  0  0  0  0  0  0  0  0
   -0.1586   19.2592   -3.6422 C   0  0  0  0  0  0  0  0  0  0  0  0
   -5.0933   20.3940    1.9768 C   0  0  0  0  0  0  0  0  0  0  0  0
   -4.1438   21.2121    2.8099 C   0  0  0  0  0  0  0  0  0  0  0  0
    2.8363   18.2242    0.0032 C   0  0  0  0  0  0  0  0  0  0  0  0
    5.0347   18.7342   -1.1294 C   0  0  0  0  0  0  0  0  0  0  0  0
    3.2291   20.4733   -1.0066 C   0  0  0  0  0  0  0  0  0  0  0  0
    3.9190   19.3140   -0.3505 C   0  0  0  0  0  0  0  0  0  0  0  0
 12 13  1  0  0  0
 13 14  2  0  0  0
 13 15  1  0  0  0
 18 19  2  0  0  0
 18 22  1  0  0  0
 18 17  1  0  0  0
 19 20  1  0  0  0
 20 21  2  0  0  0
 21 23  1  0  0  0
 22 23  2  0  0  0
 22 24  1  0  0  0
 23 25  1  0  0  0
 24 26  2  0  0  0
 25 27  2  0  0  0
 26 27  1  0  0  0
  6  2  1  0  0  0
  6  9  1  0  0  0
  6 29  1  0  0  0
  2  3  1  0  0  0
  2  4  2  0  0  0
 28 29  1  0  0  0
  3  1  1  0  0  0
  1 31  1  0  0  0
  1 63  1  0  0  0
 64 66  1  0  0  0
 65 66  1  0  0  0
 31 34  1  0  0  0
 31 32  1  0  0  0
 34 35  1  0  0  0
 35 36  2  0  0  0
 35 37  1  0  0  0
 15 11  1  0  0  0
 11 17  1  0  0  0
 11  7  1  0  0  0
  7  8  2  0  0  0
  7  9  1  0  0  0
 29 30  1  0  0  0
 63 66  1  0  0  0
 37 39  1  0  0  0
 39 61  1  0  0  0
 39 40  1  0  0  0
 61 62  1  0  0  0
 40 41  2  0  0  0
 40 42  1  0  0  0
 42 44  1  0  0  0
 44 50  1  0  0  0
 44 45  1  0  0  0
 50 51  1  0  0  0
 51 52  2  0  0  0
 51 55  1  0  0  0
 52 53  1  0  0  0
 53 54  2  0  0  0
 54 56  1  0  0  0
 55 56  2  0  0  0
 55 57  1  0  0  0
 56 58  1  0  0  0
 57 59  2  0  0  0
 58 60  2  0  0  0
 59 60  1  0  0  0
 45 46  2  0  0  0
 45 47  1  0  0  0
  3  5  1  0  0  0
 15 16  1  0  0  0
  9 10  1  0  0  0
 32 33  1  0  0  0
 37 38  1  0  0  0
 42 43  1  0  0  0
 47 48  1  0  0  0
 47 49  1  0  0  0
M  END
> <minimizedAffinity>
-10.04814

$$$$
2FMB_LP1_A_201


 66 69  0  0  0  0  0  0  0  0999 V2000
   -2.4003   19.4897   -3.6781 C   0  0  0  0  0  0  0  0  0  0  0  0
   -4.7769   19.2816   -4.3316 C   0  0  0  0  0  0  0  0  0  0  0  0
   -3.6876   19.9723   -4.0772 N   0  0  0  0  0  0  0  0  0  0  0  0
   -4.7928   18.0577   -4.2124 O   0  0  0  0  0  0  0  0  0  0  0  0
   -3.7676   20.9488   -4.1738 H   0  0  0  0  0  0  0  0  0  0  0  0
   -5.9918   20.1274   -4.7343 C   0  0  0  0  0  0  0  0  0  0  0  0
   -7.3965   21.3711   -3.1561 C   0  0  0  0  0  0  0  0  0  0  0  0
   -8.4914   21.0003   -3.5315 O   0  0  0  0  0  0  0  0  0  0  0  0
   -6.2551   21.0036   -3.6423 N   0  0  0  0  0  0  0  0  0  0  0  0
   -5.4617   21.3802   -3.1975 H   0  0  0  0  0  0  0  0  0  0  0  0
   -7.3109   22.2419   -1.8891 C   0  0  0  0  0  0  0  0  0  0  0  0
   -8.2346   25.8991   -1.9449 C   0  0  0  0  0  0  0  0  0  0  0  0
   -7.4632   24.6336   -1.5949 C   0  0  0  0  0  0  0  0  0  0  0  0
   -6.4391   24.6467   -0.8972 O   0  0  0  0  0  0  0  0  0  0  0  0
   -7.9790   23.5276   -2.1323 N   0  0  0  0  0  0  0  0  0  0  0  0
   -8.7939   23.5719   -2.6829 H   0  0  0  0  0  0  0  0  0  0  0  0
   -8.0261   21.3417   -0.8636 C   0  0  0  0  0  0  0  0  0  0  0  0
   -7.3291   20.0415   -0.6172 C   0  0  0  0  0  0  0  0  0  0  0  0
   -7.8839   18.8665   -1.0794 C   0  0  0  0  0  0  0  0  0  0  0  0
   -7.2288   17.6523   -0.8946 C   0  0  0  0  0  0  0  0  0  0  0  0
   -6.0028   17.5995   -0.2465 C   0  0  0  0  0  0  0  0  0  0  0  0
   -6.0947   20.0225    0.0290 C   0  0  0  0  0  0  0  0  0  0  0  0
   -5.4186   18.7926    0.2227 C   0  0  0  0  0  0  0  0  0  0  0  0
   -5.4946   21.2043    0.4727 C   0  0  0  0  0  0  0  0  0  0  0  0
   -4.1641   18.7718    0.8486 C   0  0  0  0  0  0  0  0  0  0  0  0
   -4.2862   21.1551    1.1168 C   0  0  0  0  0  0  0  0  0  0  0  0
   -3.6426   19.9574    1.2971 C   0  0  0  0  0  0  0  0  0  0  0  0
   -5.2885   19.7841   -7.1177 C   0  0  0  0  0  0  0  0  0  0  0  0
   -5.7920   20.8053   -6.1154 C   0  0  0  0  0  0  0  0  0  0  0  0
   -7.1419   21.2144   -6.6917 C   0  0  0  0  0  0  0  0  0  0  0  0
   -2.0998   19.5745   -2.1374 C   0  0  0  0  0  0  0  0  0  0  0  0
   -1.8745   18.2734   -1.5821 O   0  0  0  0  0  0  0  0  0  0  0  0
   -1.0841   17.8820   -1.9858 H   0  0  0  0  0  0  0  0  0  0  0  0
   -0.8665   20.4282   -1.8091 C   0  0  0  0  0  0  0  0  0  0  0  0
    0.4420   19.6519   -1.6315 C   0  0  0  0  0  0  0  0  0  0  0  0
    0.6471   18.4542   -1.9013 O   0  0  0  0  0  0  0  0  0  0  0  0
    1.3904   20.4587   -1.1684 N   0  0  0  0  0  0  0  0  0  0  0  0
    1.1346   21.3822   -0.9429 H   0  0  0  0  0  0  0  0  0  0  0  0
    2.7742   20.0773   -0.9713 C   0  0  0  0  0  0  0  0  0  0  0  0
    3.1364   20.1096    0.5028 C   0  0  0  0  0  0  0  0  0  0  0  0
    2.2799   20.5186    1.3115 O   0  0  0  0  0  0  0  0  0  0  0  0
    4.3380   19.6370    0.8682 N   0  0  0  0  0  0  0  0  0  0  0  0
    4.9518   19.3006    0.1759 H   0  0  0  0  0  0  0  0  0  0  0  0
    4.7555   19.6089    2.2553 C   0  0  0  0  0  0  0  0  0  0  0  0
    6.2504   19.8248    2.4355 C   0  0  0  0  0  0  0  0  0  0  0  0
    6.7870   20.8993    2.1148 O   0  0  0  0  0  0  0  0  0  0  0  0
    6.9862   18.8435    2.9137 N   0  0  0  0  0  0  0  0  0  0  0  0
    6.5645   17.9911    3.1686 H   0  0  0  0  0  0  0  0  0  0  0  0
    7.9581   18.9619    3.0164 H   0  0  0  0  0  0  0  0  0  0  0  0
    4.2152   18.4376    3.1079 C   0  0  0  0  0  0  0  0  0  0  0  0
    3.6115   18.9157    4.4257 C   0  0  0  0  0  0  0  0  0  0  0  0
    4.4370   19.1758    5.5131 C   0  0  0  0  0  0  0  0  0  0  0  0
    3.9023   19.5920    6.7410 C   0  0  0  0  0  0  0  0  0  0  0  0
    2.5394   19.7247    6.9008 C   0  0  0  0  0  0  0  0  0  0  0  0
    2.2278   19.0421    4.5864 C   0  0  0  0  0  0  0  0  0  0  0  0
    1.6722   19.4592    5.8365 C   0  0  0  0  0  0  0  0  0  0  0  0
    1.3675   18.7589    3.5138 C   0  0  0  0  0  0  0  0  0  0  0  0
    0.2841   19.5702    5.9835 C   0  0  0  0  0  0  0  0  0  0  0  0
   -0.0041   18.8697    3.6834 C   0  0  0  0  0  0  0  0  0  0  0  0
   -0.5257   19.2660    4.8974 C   0  0  0  0  0  0  0  0  0  0  0  0
    3.6408   21.0963   -1.7407 C   0  0  0  0  0  0  0  0  0  0  0  0
    4.7824   20.5747   -2.5710 C   0  0  0  0  0  0  0  0  0  0  0  0
   -1.3442   20.1664   -4.6020 C   0  0  0  0  0  0  0  0  0  0  0  0
   -1.6618   19.4493   -7.0022 C   0  0  0  0  0  0  0  0  0  0  0  0
    0.5866   19.2640   -5.9021 C   0  0  0  0  0  0  0  0  0  0  0  0
   -0.9048   19.1893   -5.7584 C   0  0  0  0  0  0  0  0  0  0  0  0
 12 13  1  0  0  0
 13 14  2  0  0  0
 13 15  1  0  0  0
 18 19  2  0  0  0
 18 22  1  0  0  0
 18 17  1  0  0  0
 19 20  1  0  0  0
 20 21  2  0  0  0
 21 23  1  0  0  0
 22 23  2  0  0  0
 22 24  1  0  0  0
 23 25  1  0  0  0
 24 26  2  0  0  0
 25 27  2  0  0  0
 26 27  1  0  0  0
  6  2  1  0  0  0
  6  9  1  0  0  0
  6 29  1  0  0  0
  2  3  1  0  0  0
  2  4  2  0  0  0
 28 29  1  0  0  0
  3  1  1  0  0  0
  1 31  1  0  0  0
  1 63  1  0  0  0
 64 66  1  0  0  0
 65 66  1  0  0  0
 31 34  1  0  0  0
 31 32  1  0  0  0
 34 35  1  0  0  0
 35 36  2  0  0  0
 35 37  1  0  0  0
 15 11  1  0  0  0
 11 17  1  0  0  0
 11  7  1  0  0  0
  7  8  2  0  0  0
  7  9  1  0  0  0
 29 30  1  0  0  0
 63 66  1  0  0  0
 37 39  1  0  0  0
 39 61  1  0  0  0
 39 40  1  0  0  0
 61 62  1  0  0  0
 40 41  2  0  0  0
 40 42  1  0  0  0
 42 44  1  0  0  0
 44 50  1  0  0  0
 44 45  1  0  0  0
 50 51  1  0  0  0
 51 52  2  0  0  0
 51 55  1  0  0  0
 52 53  1  0  0  0
 53 54  2  0  0  0
 54 56  1  0  0  0
 55 56  2  0  0  0
 55 57  1  0  0  0
 56 58  1  0  0  0
 57 59  2  0  0  0
 58 60  2  0  0  0
 59 60  1  0  0  0
 45 46  2  0  0  0
 45 47  1  0  0  0
  3  5  1  0  0  0
 15 16  1  0  0  0
  9 10  1  0  0  0
 32 33  1  0  0  0
 37 38  1  0  0  0
 42 43  1  0  0  0
 47 48  1  0  0  0
 47 49  1  0  0  0
M  END
> <minimizedAffinity>
-9.77688

$$$$
2FMB_LP1_A_201


 66 69  0  0  0  0  0  0  0  0999 V2000
    2.3471   18.9763    0.5723 C   0  0  0  0  0  0  0  0  0  0  0  0
    2.0212   19.7714    2.8919 C   0  0  0  0  0  0  0  0  0  0  0  0
    2.4459   18.9052    1.9987 N   0  0  0  0  0  0  0  0  0  0  0  0
    1.4273   20.7928    2.5508 O   0  0  0  0  0  0  0  0  0  0  0  0
    2.8898   18.1031    2.3575 H   0  0  0  0  0  0  0  0  0  0  0  0
    2.2919   19.3736    4.3486 C   0  0  0  0  0  0  0  0  0  0  0  0
    4.7300   19.1538    4.4826 C   0  0  0  0  0  0  0  0  0  0  0  0
    4.8550   18.0440    4.0030 O   0  0  0  0  0  0  0  0  0  0  0  0
    3.6194   19.7977    4.6442 N   0  0  0  0  0  0  0  0  0  0  0  0
    3.7031   20.7028    5.0225 H   0  0  0  0  0  0  0  0  0  0  0  0
    6.0006   19.9634    4.8007 C   0  0  0  0  0  0  0  0  0  0  0  0
    7.8154   21.0020    1.6608 C   0  0  0  0  0  0  0  0  0  0  0  0
    7.4752   20.1880    2.9020 C   0  0  0  0  0  0  0  0  0  0  0  0
    8.0895   19.1581    3.2149 O   0  0  0  0  0  0  0  0  0  0  0  0
    6.4438   20.6738    3.5935 N   0  0  0  0  0  0  0  0  0  0  0  0
    5.9869   21.4950    3.2999 H   0  0  0  0  0  0  0  0  0  0  0  0
    5.4896   20.8847    5.9248 C   0  0  0  0  0  0  0  0  0  0  0  0
    6.2575   20.7560    7.2018 C   0  0  0  0  0  0  0  0  0  0  0  0
    6.1139   19.6255    7.9785 C   0  0  0  0  0  0  0  0  0  0  0  0
    6.8513   19.4711    9.1490 C   0  0  0  0  0  0  0  0  0  0  0  0
    7.7489   20.4481    9.5557 C   0  0  0  0  0  0  0  0  0  0  0  0
    7.1578   21.7506    7.5785 C   0  0  0  0  0  0  0  0  0  0  0  0
    7.9138   21.6045    8.7677 C   0  0  0  0  0  0  0  0  0  0  0  0
    7.3484   22.8877    6.7884 C   0  0  0  0  0  0  0  0  0  0  0  0
    8.8402   22.5901    9.1367 C   0  0  0  0  0  0  0  0  0  0  0  0
    8.2308   23.8564    7.1894 C   0  0  0  0  0  0  0  0  0  0  0  0
    8.9564   23.7015    8.3429 C   0  0  0  0  0  0  0  0  0  0  0  0
   -0.0194   18.9723    5.2373 C   0  0  0  0  0  0  0  0  0  0  0  0
    1.1852   19.8916    5.3044 C   0  0  0  0  0  0  0  0  0  0  0  0
    1.6430   19.7516    6.7510 C   0  0  0  0  0  0  0  0  0  0  0  0
    1.2736   18.0273   -0.0743 C   0  0  0  0  0  0  0  0  0  0  0  0
    0.9448   16.9443    0.8039 O   0  0  0  0  0  0  0  0  0  0  0  0
    0.5374   17.2951    1.6113 H   0  0  0  0  0  0  0  0  0  0  0  0
   -0.0383   18.7466   -0.4193 C   0  0  0  0  0  0  0  0  0  0  0  0
   -1.0993   18.7447    0.6855 C   0  0  0  0  0  0  0  0  0  0  0  0
   -0.9230   18.5120    1.8955 O   0  0  0  0  0  0  0  0  0  0  0  0
   -2.2828   19.0752    0.1804 N   0  0  0  0  0  0  0  0  0  0  0  0
   -2.3438   19.2039   -0.7938 H   0  0  0  0  0  0  0  0  0  0  0  0
   -3.4900   19.2598    0.9599 C   0  0  0  0  0  0  0  0  0  0  0  0
   -4.7195   18.9231    0.1353 C   0  0  0  0  0  0  0  0  0  0  0  0
   -5.5862   18.1845    0.6435 O   0  0  0  0  0  0  0  0  0  0  0  0
   -4.8418   19.4881   -1.0757 N   0  0  0  0  0  0  0  0  0  0  0  0
   -4.1305   20.0868   -1.3995 H   0  0  0  0  0  0  0  0  0  0  0  0
   -5.9935   19.2400   -1.9191 C   0  0  0  0  0  0  0  0  0  0  0  0
   -5.8343   18.0140   -2.8050 C   0  0  0  0  0  0  0  0  0  0  0  0
   -5.2625   18.0877   -3.9063 O   0  0  0  0  0  0  0  0  0  0  0  0
   -6.3371   16.8649   -2.4048 N   0  0  0  0  0  0  0  0  0  0  0  0
   -6.7906   16.8029   -1.5332 H   0  0  0  0  0  0  0  0  0  0  0  0
   -6.2595   16.0677   -2.9772 H   0  0  0  0  0  0  0  0  0  0  0  0
   -6.5550   20.4603   -2.6850 C   0  0  0  0  0  0  0  0  0  0  0  0
   -7.8017   21.0346   -2.0176 C   0  0  0  0  0  0  0  0  0  0  0  0
   -8.4378   20.3234   -1.0071 C   0  0  0  0  0  0  0  0  0  0  0  0
   -9.5989   20.8199   -0.3970 C   0  0  0  0  0  0  0  0  0  0  0  0
  -10.1489   22.0149   -0.8093 C   0  0  0  0  0  0  0  0  0  0  0  0
   -8.3611   22.2437   -2.4436 C   0  0  0  0  0  0  0  0  0  0  0  0
   -9.5487   22.7552   -1.8326 C   0  0  0  0  0  0  0  0  0  0  0  0
   -7.7563   22.9702   -3.4816 C   0  0  0  0  0  0  0  0  0  0  0  0
  -10.1016   23.9619   -2.2785 C   0  0  0  0  0  0  0  0  0  0  0  0
   -8.3242   24.1597   -3.9113 C   0  0  0  0  0  0  0  0  0  0  0  0
   -9.4742   24.6367   -3.3172 C   0  0  0  0  0  0  0  0  0  0  0  0
   -3.5377   20.7439    1.3798 C   0  0  0  0  0  0  0  0  0  0  0  0
   -4.2910   21.1044    2.6317 C   0  0  0  0  0  0  0  0  0  0  0  0
    3.7895   18.8397   -0.0000 C   0  0  0  0  0  0  0  0  0  0  0  0
    5.6352   20.0842   -1.1917 C   0  0  0  0  0  0  0  0  0  0  0  0
    3.2326   20.7166   -1.5492 C   0  0  0  0  0  0  0  0  0  0  0  0
    4.2829   20.2089   -0.6059 C   0  0  0  0  0  0  0  0  0  0  0  0
 12 13  1  0  0  0
 13 14  2  0  0  0
 13 15  1  0  0  0
 18 19  2  0  0  0
 18 22  1  0  0  0
 18 17  1  0  0  0
 19 20  1  0  0  0
 20 21  2  0  0  0
 21 23  1  0  0  0
 22 23  2  0  0  0
 22 24  1  0  0  0
 23 25  1  0  0  0
 24 26  2  0  0  0
 25 27  2  0  0  0
 26 27  1  0  0  0
  6  2  1  0  0  0
  6  9  1  0  0  0
  6 29  1  0  0  0
  2  3  1  0  0  0
  2  4  2  0  0  0
 28 29  1  0  0  0
  3  1  1  0  0  0
  1 31  1  0  0  0
  1 63  1  0  0  0
 64 66  1  0  0  0
 65 66  1  0  0  0
 31 34  1  0  0  0
 31 32  1  0  0  0
 34 35  1  0  0  0
 35 36  2  0  0  0
 35 37  1  0  0  0
 15 11  1  0  0  0
 11 17  1  0  0  0
 11  7  1  0  0  0
  7  8  2  0  0  0
  7  9  1  0  0  0
 29 30  1  0  0  0
 63 66  1  0  0  0
 37 39  1  0  0  0
 39 61  1  0  0  0
 39 40  1  0  0  0
 61 62  1  0  0  0
 40 41  2  0  0  0
 40 42  1  0  0  0
 42 44  1  0  0  0
 44 50  1  0  0  0
 44 45  1  0  0  0
 50 51  1  0  0  0
 51 52  2  0  0  0
 51 55  1  0  0  0
 52 53  1  0  0  0
 53 54  2  0  0  0
 54 56  1  0  0  0
 55 56  2  0  0  0
 55 57  1  0  0  0
 56 58  1  0  0  0
 57 59  2  0  0  0
 58 60  2  0  0  0
 59 60  1  0  0  0
 45 46  2  0  0  0
 45 47  1  0  0  0
  3  5  1  0  0  0
 15 16  1  0  0  0
  9 10  1  0  0  0
 32 33  1  0  0  0
 37 38  1  0  0  0
 42 43  1  0  0  0
 47 48  1  0  0  0
 47 49  1  0  0  0
M  END
> <minimizedAffinity>
-9.62949

$$$$
2FMB_LP1_A_201


 66 69  0  0  0  0  0  0  0  0999 V2000
   -2.1753   18.6661    0.0679 C   0  0  0  0  0  0  0  0  0  0  0  0
   -2.0150   19.6614   -2.1909 C   0  0  0  0  0  0  0  0  0  0  0  0
   -2.3468   18.7045   -1.3528 N   0  0  0  0  0  0  0  0  0  0  0  0
   -1.4559   20.6831   -1.7961 O   0  0  0  0  0  0  0  0  0  0  0  0
   -2.7683   17.9106   -1.7546 H   0  0  0  0  0  0  0  0  0  0  0  0
   -2.3431   19.3676   -3.6605 C   0  0  0  0  0  0  0  0  0  0  0  0
   -4.7621   19.0815   -3.9376 C   0  0  0  0  0  0  0  0  0  0  0  0
   -4.8357   17.8761   -3.8001 O   0  0  0  0  0  0  0  0  0  0  0  0
   -3.6857   19.7960   -3.8692 N   0  0  0  0  0  0  0  0  0  0  0  0
   -3.8113   20.7667   -3.9756 H   0  0  0  0  0  0  0  0  0  0  0  0
   -6.0686   19.8879   -4.0556 C   0  0  0  0  0  0  0  0  0  0  0  0
   -6.8458   20.2881   -7.7253 C   0  0  0  0  0  0  0  0  0  0  0  0
   -6.2212   20.5726   -6.3659 C   0  0  0  0  0  0  0  0  0  0  0  0
   -5.4016   21.4843   -6.1847 O   0  0  0  0  0  0  0  0  0  0  0  0
   -6.6191   19.7336   -5.4090 N   0  0  0  0  0  0  0  0  0  0  0  0
   -7.2708   19.0225   -5.6061 H   0  0  0  0  0  0  0  0  0  0  0  0
   -6.9189   19.2353   -2.9490 C   0  0  0  0  0  0  0  0  0  0  0  0
   -7.7894   20.2027   -2.2118 C   0  0  0  0  0  0  0  0  0  0  0  0
   -7.7998   21.5328   -2.5763 C   0  0  0  0  0  0  0  0  0  0  0  0
   -8.6339   22.4391   -1.9280 C   0  0  0  0  0  0  0  0  0  0  0  0
   -9.4753   22.0227   -0.9059 C   0  0  0  0  0  0  0  0  0  0  0  0
   -8.6297   19.7519   -1.1958 C   0  0  0  0  0  0  0  0  0  0  0  0
   -9.4831   20.6652   -0.5288 C   0  0  0  0  0  0  0  0  0  0  0  0
   -8.6646   18.4023   -0.8343 C   0  0  0  0  0  0  0  0  0  0  0  0
  -10.3495   20.2114    0.4759 C   0  0  0  0  0  0  0  0  0  0  0  0
   -9.4910   17.9886    0.1775 C   0  0  0  0  0  0  0  0  0  0  0  0
  -10.3124   18.8837    0.8142 C   0  0  0  0  0  0  0  0  0  0  0  0
   -0.0795   19.0459   -4.6928 C   0  0  0  0  0  0  0  0  0  0  0  0
   -1.2822   19.9673   -4.6206 C   0  0  0  0  0  0  0  0  0  0  0  0
   -1.8107   19.9538   -6.0497 C   0  0  0  0  0  0  0  0  0  0  0  0
   -1.0094   17.7437    0.5786 C   0  0  0  0  0  0  0  0  0  0  0  0
   -0.6997   16.7239   -0.3785 O   0  0  0  0  0  0  0  0  0  0  0  0
   -0.3752   17.1347   -1.1951 H   0  0  0  0  0  0  0  0  0  0  0  0
    0.2897   18.5126    0.8594 C   0  0  0  0  0  0  0  0  0  0  0  0
    1.2838   18.5709   -0.3046 C   0  0  0  0  0  0  0  0  0  0  0  0
    1.0186   18.5467   -1.5205 O   0  0  0  0  0  0  0  0  0  0  0  0
    2.5220   18.6954    0.1604 N   0  0  0  0  0  0  0  0  0  0  0  0
    2.6486   18.6658    1.1363 H   0  0  0  0  0  0  0  0  0  0  0  0
    3.6994   18.8718   -0.6653 C   0  0  0  0  0  0  0  0  0  0  0  0
    4.9633   18.7491    0.1670 C   0  0  0  0  0  0  0  0  0  0  0  0
    5.1121   19.5257    1.1312 O   0  0  0  0  0  0  0  0  0  0  0  0
    5.8279   17.7694   -0.1386 N   0  0  0  0  0  0  0  0  0  0  0  0
    5.6288   17.1732   -0.8964 H   0  0  0  0  0  0  0  0  0  0  0  0
    7.0469   17.5662    0.6176 C   0  0  0  0  0  0  0  0  0  0  0  0
    6.8497   17.7021    2.1197 C   0  0  0  0  0  0  0  0  0  0  0  0
    7.6381   18.3679    2.8130 O   0  0  0  0  0  0  0  0  0  0  0  0
    5.8412   17.0791    2.6923 N   0  0  0  0  0  0  0  0  0  0  0  0
    5.2149   16.5509    2.1463 H   0  0  0  0  0  0  0  0  0  0  0  0
    5.7132   17.1414    3.6664 H   0  0  0  0  0  0  0  0  0  0  0  0
    8.2991   18.3182    0.1101 C   0  0  0  0  0  0  0  0  0  0  0  0
    9.3591   17.3664   -0.4378 C   0  0  0  0  0  0  0  0  0  0  0  0
    8.9748   16.1911   -1.0723 C   0  0  0  0  0  0  0  0  0  0  0  0
    9.9315   15.2898   -1.5615 C   0  0  0  0  0  0  0  0  0  0  0  0
   11.2770   15.5409   -1.3964 C   0  0  0  0  0  0  0  0  0  0  0  0
   10.7232   17.6208   -0.2621 C   0  0  0  0  0  0  0  0  0  0  0  0
   11.7065   16.7046   -0.7510 C   0  0  0  0  0  0  0  0  0  0  0  0
   11.1406   18.7862    0.4001 C   0  0  0  0  0  0  0  0  0  0  0  0
   13.0677   16.9692   -0.5571 C   0  0  0  0  0  0  0  0  0  0  0  0
   12.4935   19.0252    0.5864 C   0  0  0  0  0  0  0  0  0  0  0  0
   13.4302   18.1286    0.1157 C   0  0  0  0  0  0  0  0  0  0  0  0
    3.6174   20.2855   -1.2783 C   0  0  0  0  0  0  0  0  0  0  0  0
    4.7853   21.2141   -1.0822 C   0  0  0  0  0  0  0  0  0  0  0  0
   -3.5726   18.3848    0.6965 C   0  0  0  0  0  0  0  0  0  0  0  0
   -3.1649   20.7676    1.4260 C   0  0  0  0  0  0  0  0  0  0  0  0
   -5.4034   20.0737    0.5274 C   0  0  0  0  0  0  0  0  0  0  0  0
   -4.1827   19.7001    1.3153 C   0  0  0  0  0  0  0  0  0  0  0  0
 12 13  1  0  0  0
 13 14  2  0  0  0
 13 15  1  0  0  0
 18 19  2  0  0  0
 18 22  1  0  0  0
 18 17  1  0  0  0
 19 20  1  0  0  0
 20 21  2  0  0  0
 21 23  1  0  0  0
 22 23  2  0  0  0
 22 24  1  0  0  0
 23 25  1  0  0  0
 24 26  2  0  0  0
 25 27  2  0  0  0
 26 27  1  0  0  0
  6  2  1  0  0  0
  6  9  1  0  0  0
  6 29  1  0  0  0
  2  3  1  0  0  0
  2  4  2  0  0  0
 28 29  1  0  0  0
  3  1  1  0  0  0
  1 31  1  0  0  0
  1 63  1  0  0  0
 64 66  1  0  0  0
 65 66  1  0  0  0
 31 34  1  0  0  0
 31 32  1  0  0  0
 34 35  1  0  0  0
 35 36  2  0  0  0
 35 37  1  0  0  0
 15 11  1  0  0  0
 11 17  1  0  0  0
 11  7  1  0  0  0
  7  8  2  0  0  0
  7  9  1  0  0  0
 29 30  1  0  0  0
 63 66  1  0  0  0
 37 39  1  0  0  0
 39 61  1  0  0  0
 39 40  1  0  0  0
 61 62  1  0  0  0
 40 41  2  0  0  0
 40 42  1  0  0  0
 42 44  1  0  0  0
 44 50  1  0  0  0
 44 45  1  0  0  0
 50 51  1  0  0  0
 51 52  2  0  0  0
 51 55  1  0  0  0
 52 53  1  0  0  0
 53 54  2  0  0  0
 54 56  1  0  0  0
 55 56  2  0  0  0
 55 57  1  0  0  0
 56 58  1  0  0  0
 57 59  2  0  0  0
 58 60  2  0  0  0
 59 60  1  0  0  0
 45 46  2  0  0  0
 45 47  1  0  0  0
  3  5  1  0  0  0
 15 16  1  0  0  0
  9 10  1  0  0  0
 32 33  1  0  0  0
 37 38  1  0  0  0
 42 43  1  0  0  0
 47 48  1  0  0  0
 47 49  1  0  0  0
M  END
> <minimizedAffinity>
-9.60484

$$$$
2FMB_LP1_A_201


 66 69  0  0  0  0  0  0  0  0999 V2000
   -1.8076   19.3681   -3.8325 C   0  0  0  0  0  0  0  0  0  0  0  0
   -4.0970   19.1451   -4.7423 C   0  0  0  0  0  0  0  0  0  0  0  0
   -3.2111   19.6401   -3.9065 N   0  0  0  0  0  0  0  0  0  0  0  0
   -3.7734   18.3136   -5.5885 O   0  0  0  0  0  0  0  0  0  0  0  0
   -3.5582   20.2815   -3.2451 H   0  0  0  0  0  0  0  0  0  0  0  0
   -5.5284   19.6567   -4.5350 C   0  0  0  0  0  0  0  0  0  0  0  0
   -5.9281   19.1520   -2.1695 C   0  0  0  0  0  0  0  0  0  0  0  0
   -6.1006   17.9516   -2.2498 O   0  0  0  0  0  0  0  0  0  0  0  0
   -5.6553   19.9539   -3.1475 N   0  0  0  0  0  0  0  0  0  0  0  0
   -5.5168   20.8965   -2.8995 H   0  0  0  0  0  0  0  0  0  0  0  0
   -5.8711   19.7933   -0.7707 C   0  0  0  0  0  0  0  0  0  0  0  0
   -2.5221   19.3564    0.9098 C   0  0  0  0  0  0  0  0  0  0  0  0
   -3.9923   19.1224    0.5893 C   0  0  0  0  0  0  0  0  0  0  0  0
   -4.6641   18.2390    1.1408 O   0  0  0  0  0  0  0  0  0  0  0  0
   -4.4696   19.9355   -0.3536 N   0  0  0  0  0  0  0  0  0  0  0  0
   -3.8924   20.6196   -0.7635 H   0  0  0  0  0  0  0  0  0  0  0  0
   -6.5925   21.1299   -1.0294 C   0  0  0  0  0  0  0  0  0  0  0  0
   -8.0538   21.0943   -0.7126 C   0  0  0  0  0  0  0  0  0  0  0  0
   -8.5708   20.0517    0.0275 C   0  0  0  0  0  0  0  0  0  0  0  0
   -9.9207   20.0236    0.3661 C   0  0  0  0  0  0  0  0  0  0  0  0
  -10.7723   21.0454   -0.0292 C   0  0  0  0  0  0  0  0  0  0  0  0
   -8.8815   22.1401   -1.1163 C   0  0  0  0  0  0  0  0  0  0  0  0
  -10.2570   22.1223   -0.7775 C   0  0  0  0  0  0  0  0  0  0  0  0
   -8.3732   23.2261   -1.8345 C   0  0  0  0  0  0  0  0  0  0  0  0
  -11.0880   23.1854   -1.1587 C   0  0  0  0  0  0  0  0  0  0  0  0
   -9.2123   24.2345   -2.2302 C   0  0  0  0  0  0  0  0  0  0  0  0
  -10.5419   24.2046   -1.8947 C   0  0  0  0  0  0  0  0  0  0  0  0
   -6.4393   20.2397   -6.7985 C   0  0  0  0  0  0  0  0  0  0  0  0
   -5.8766   20.8112   -5.5111 C   0  0  0  0  0  0  0  0  0  0  0  0
   -7.0416   21.6230   -4.9584 C   0  0  0  0  0  0  0  0  0  0  0  0
   -1.2637   19.0323   -2.3964 C   0  0  0  0  0  0  0  0  0  0  0  0
   -0.8317   17.6690   -2.3127 O   0  0  0  0  0  0  0  0  0  0  0  0
   -0.0872   17.5280   -2.9184 H   0  0  0  0  0  0  0  0  0  0  0  0
   -0.0758   19.9115   -1.9800 C   0  0  0  0  0  0  0  0  0  0  0  0
    1.0381   19.1917   -1.2135 C   0  0  0  0  0  0  0  0  0  0  0  0
    0.9212   18.1902   -0.4836 O   0  0  0  0  0  0  0  0  0  0  0  0
    2.2084   19.7685   -1.4633 N   0  0  0  0  0  0  0  0  0  0  0  0
    2.2079   20.5808   -2.0196 H   0  0  0  0  0  0  0  0  0  0  0  0
    3.4855   19.2883   -0.9759 C   0  0  0  0  0  0  0  0  0  0  0  0
    3.7099   19.7211    0.4619 C   0  0  0  0  0  0  0  0  0  0  0  0
    2.9621   20.5986    0.9370 O   0  0  0  0  0  0  0  0  0  0  0  0
    4.6614   19.0926    1.1694 N   0  0  0  0  0  0  0  0  0  0  0  0
    5.1932   18.3864    0.7362 H   0  0  0  0  0  0  0  0  0  0  0  0
    4.9262   19.4264    2.5542 C   0  0  0  0  0  0  0  0  0  0  0  0
    6.3022   20.0374    2.7704 C   0  0  0  0  0  0  0  0  0  0  0  0
    7.2158   19.3878    3.3080 O   0  0  0  0  0  0  0  0  0  0  0  0
    6.5141   21.2843    2.4050 N   0  0  0  0  0  0  0  0  0  0  0  0
    5.7929   21.8017    1.9790 H   0  0  0  0  0  0  0  0  0  0  0  0
    7.3937   21.6993    2.5576 H   0  0  0  0  0  0  0  0  0  0  0  0
    4.5875   18.3358    3.5967 C   0  0  0  0  0  0  0  0  0  0  0  0
    3.7163   18.8730    4.7290 C   0  0  0  0  0  0  0  0  0  0  0  0
    4.2900   19.1931    5.9537 C   0  0  0  0  0  0  0  0  0  0  0  0
    3.5054   19.6646    7.0162 C   0  0  0  0  0  0  0  0  0  0  0  0
    2.1403   19.7935    6.8734 C   0  0  0  0  0  0  0  0  0  0  0  0
    2.3307   18.9955    4.5829 C   0  0  0  0  0  0  0  0  0  0  0  0
    1.5209   19.4688    5.6625 C   0  0  0  0  0  0  0  0  0  0  0  0
    1.7198   18.6527    3.3663 C   0  0  0  0  0  0  0  0  0  0  0  0
    0.1339   19.5751    5.5030 C   0  0  0  0  0  0  0  0  0  0  0  0
    0.3440   18.7601    3.2323 C   0  0  0  0  0  0  0  0  0  0  0  0
   -0.4249   19.2112    4.2850 C   0  0  0  0  0  0  0  0  0  0  0  0
    4.5766   19.9018   -1.8784 C   0  0  0  0  0  0  0  0  0  0  0  0
    4.1953   21.0492   -2.7744 C   0  0  0  0  0  0  0  0  0  0  0  0
   -1.0712   20.5253   -4.5711 C   0  0  0  0  0  0  0  0  0  0  0  0
    0.3626   18.7574   -5.6641 C   0  0  0  0  0  0  0  0  0  0  0  0
   -1.4553   19.9059   -6.9588 C   0  0  0  0  0  0  0  0  0  0  0  0
   -0.3990   20.0036   -5.8981 C   0  0  0  0  0  0  0  0  0  0  0  0
 12 13  1  0  0  0
 13 14  2  0  0  0
 13 15  1  0  0  0
 18 19  2  0  0  0
 18 22  1  0  0  0
 18 17  1  0  0  0
 19 20  1  0  0  0
 20 21  2  0  0  0
 21 23  1  0  0  0
 22 23  2  0  0  0
 22 24  1  0  0  0
 23 25  1  0  0  0
 24 26  2  0  0  0
 25 27  2  0  0  0
 26 27  1  0  0  0
  6  2  1  0  0  0
  6  9  1  0  0  0
  6 29  1  0  0  0
  2  3  1  0  0  0
  2  4  2  0  0  0
 28 29  1  0  0  0
  3  1  1  0  0  0
  1 31  1  0  0  0
  1 63  1  0  0  0
 64 66  1  0  0  0
 65 66  1  0  0  0
 31 34  1  0  0  0
 31 32  1  0  0  0
 34 35  1  0  0  0
 35 36  2  0  0  0
 35 37  1  0  0  0
 15 11  1  0  0  0
 11 17  1  0  0  0
 11  7  1  0  0  0
  7  8  2  0  0  0
  7  9  1  0  0  0
 29 30  1  0  0  0
 63 66  1  0  0  0
 37 39  1  0  0  0
 39 61  1  0  0  0
 39 40  1  0  0  0
 61 62  1  0  0  0
 40 41  2  0  0  0
 40 42  1  0  0  0
 42 44  1  0  0  0
 44 50  1  0  0  0
 44 45  1  0  0  0
 50 51  1  0  0  0
 51 52  2  0  0  0
 51 55  1  0  0  0
 52 53  1  0  0  0
 53 54  2  0  0  0
 54 56  1  0  0  0
 55 56  2  0  0  0
 55 57  1  0  0  0
 56 58  1  0  0  0
 57 59  2  0  0  0
 58 60  2  0  0  0
 59 60  1  0  0  0
 45 46  2  0  0  0
 45 47  1  0  0  0
  3  5  1  0  0  0
 15 16  1  0  0  0
  9 10  1  0  0  0
 32 33  1  0  0  0
 37 38  1  0  0  0
 42 43  1  0  0  0
 47 48  1  0  0  0
 47 49  1  0  0  0
M  END
> <minimizedAffinity>
-9.57378

$$$$
2FMB_LP1_A_201


 66 69  0  0  0  0  0  0  0  0999 V2000
   -3.1539   19.2636   -3.9340 C   0  0  0  0  0  0  0  0  0  0  0  0
   -1.7717   19.4688   -1.8929 C   0  0  0  0  0  0  0  0  0  0  0  0
   -2.6706   18.8726   -2.6445 N   0  0  0  0  0  0  0  0  0  0  0  0
   -1.2425   20.5192   -2.2517 O   0  0  0  0  0  0  0  0  0  0  0  0
   -3.0623   18.0498   -2.2720 H   0  0  0  0  0  0  0  0  0  0  0  0
   -1.4924   18.7724   -0.5547 C   0  0  0  0  0  0  0  0  0  0  0  0
    0.7840   18.3392    0.2457 C   0  0  0  0  0  0  0  0  0  0  0  0
    0.7119   17.1364    0.4051 O   0  0  0  0  0  0  0  0  0  0  0  0
   -0.1569   19.1115   -0.1927 N   0  0  0  0  0  0  0  0  0  0  0  0
    0.0823   20.0616   -0.2892 H   0  0  0  0  0  0  0  0  0  0  0  0
    2.1516   19.0231    0.4276 C   0  0  0  0  0  0  0  0  0  0  0  0
    3.8375   20.8176   -2.4304 C   0  0  0  0  0  0  0  0  0  0  0  0
    3.6842   19.9284   -1.2037 C   0  0  0  0  0  0  0  0  0  0  0  0
    4.6330   19.3035   -0.7085 O   0  0  0  0  0  0  0  0  0  0  0  0
    2.4356   19.8687   -0.7398 N   0  0  0  0  0  0  0  0  0  0  0  0
    1.7159   20.3827   -1.1723 H   0  0  0  0  0  0  0  0  0  0  0  0
    1.9184   19.8061    1.7338 C   0  0  0  0  0  0  0  0  0  0  0  0
    2.8744   19.4480    2.8269 C   0  0  0  0  0  0  0  0  0  0  0  0
    4.1884   19.1598    2.5229 C   0  0  0  0  0  0  0  0  0  0  0  0
    5.1012   18.8645    3.5315 C   0  0  0  0  0  0  0  0  0  0  0  0
    4.7096   18.8588    4.8628 C   0  0  0  0  0  0  0  0  0  0  0  0
    2.4528   19.4597    4.1550 C   0  0  0  0  0  0  0  0  0  0  0  0
    3.3728   19.1608    5.1900 C   0  0  0  0  0  0  0  0  0  0  0  0
    1.1357   19.7856    4.4906 C   0  0  0  0  0  0  0  0  0  0  0  0
    2.9595   19.1974    6.5293 C   0  0  0  0  0  0  0  0  0  0  0  0
    0.7448   19.7767    5.8039 C   0  0  0  0  0  0  0  0  0  0  0  0
    1.6463   19.4859    6.7958 C   0  0  0  0  0  0  0  0  0  0  0  0
   -3.1943   17.7990    1.0103 C   0  0  0  0  0  0  0  0  0  0  0  0
   -2.5835   19.0907    0.5013 C   0  0  0  0  0  0  0  0  0  0  0  0
   -1.9394   19.6806    1.7498 C   0  0  0  0  0  0  0  0  0  0  0  0
   -4.6877   19.0205   -4.1779 C   0  0  0  0  0  0  0  0  0  0  0  0
   -5.4831   19.9624   -3.4485 O   0  0  0  0  0  0  0  0  0  0  0  0
   -5.3014   20.8585   -3.7725 H   0  0  0  0  0  0  0  0  0  0  0  0
   -5.0894   19.1348   -5.6555 C   0  0  0  0  0  0  0  0  0  0  0  0
   -5.7348   20.4636   -6.0604 C   0  0  0  0  0  0  0  0  0  0  0  0
   -5.1941   21.5846   -6.0840 O   0  0  0  0  0  0  0  0  0  0  0  0
   -6.9920   20.2620   -6.4393 N   0  0  0  0  0  0  0  0  0  0  0  0
   -7.3550   19.3510   -6.3520 H   0  0  0  0  0  0  0  0  0  0  0  0
   -7.8675   21.2863   -6.9718 C   0  0  0  0  0  0  0  0  0  0  0  0
   -8.5678   22.0320   -5.8499 C   0  0  0  0  0  0  0  0  0  0  0  0
   -9.7090   21.6571   -5.5152 O   0  0  0  0  0  0  0  0  0  0  0  0
   -7.8980   23.0172   -5.2322 N   0  0  0  0  0  0  0  0  0  0  0  0
   -6.9863   23.2379   -5.5310 H   0  0  0  0  0  0  0  0  0  0  0  0
   -8.4819   23.7646   -4.1369 C   0  0  0  0  0  0  0  0  0  0  0  0
   -8.7306   25.2266   -4.4748 C   0  0  0  0  0  0  0  0  0  0  0  0
   -9.4073   25.9524   -3.7258 O   0  0  0  0  0  0  0  0  0  0  0  0
   -8.2414   25.7176   -5.5940 N   0  0  0  0  0  0  0  0  0  0  0  0
   -7.7051   25.1458   -6.1895 H   0  0  0  0  0  0  0  0  0  0  0  0
   -8.4118   26.6567   -5.8355 H   0  0  0  0  0  0  0  0  0  0  0  0
   -7.8199   23.5768   -2.7522 C   0  0  0  0  0  0  0  0  0  0  0  0
   -8.4292   22.4122   -1.9763 C   0  0  0  0  0  0  0  0  0  0  0  0
   -9.7874   22.1393   -2.0877 C   0  0  0  0  0  0  0  0  0  0  0  0
  -10.3736   21.0901   -1.3650 C   0  0  0  0  0  0  0  0  0  0  0  0
   -9.6152   20.3240   -0.5057 C   0  0  0  0  0  0  0  0  0  0  0  0
   -7.6582   21.6418   -1.0998 C   0  0  0  0  0  0  0  0  0  0  0  0
   -8.2479   20.5740   -0.3532 C   0  0  0  0  0  0  0  0  0  0  0  0
   -6.2893   21.9124   -0.9455 C   0  0  0  0  0  0  0  0  0  0  0  0
   -7.4639   19.8195    0.5281 C   0  0  0  0  0  0  0  0  0  0  0  0
   -5.5332   21.1565   -0.0629 C   0  0  0  0  0  0  0  0  0  0  0  0
   -6.1176   20.1345    0.6561 C   0  0  0  0  0  0  0  0  0  0  0  0
   -8.9146   20.5755   -7.8548 C   0  0  0  0  0  0  0  0  0  0  0  0
   -8.6957   19.1244   -8.1883 C   0  0  0  0  0  0  0  0  0  0  0  0
   -2.2019   18.6371   -4.9959 C   0  0  0  0  0  0  0  0  0  0  0  0
    0.0521   19.5888   -5.6202 C   0  0  0  0  0  0  0  0  0  0  0  0
   -1.8983   19.7955   -7.1865 C   0  0  0  0  0  0  0  0  0  0  0  0
   -1.4096   19.7597   -5.7686 C   0  0  0  0  0  0  0  0  0  0  0  0
 12 13  1  0  0  0
 13 14  2  0  0  0
 13 15  1  0  0  0
 18 19  2  0  0  0
 18 22  1  0  0  0
 18 17  1  0  0  0
 19 20  1  0  0  0
 20 21  2  0  0  0
 21 23  1  0  0  0
 22 23  2  0  0  0
 22 24  1  0  0  0
 23 25  1  0  0  0
 24 26  2  0  0  0
 25 27  2  0  0  0
 26 27  1  0  0  0
  6  2  1  0  0  0
  6  9  1  0  0  0
  6 29  1  0  0  0
  2  3  1  0  0  0
  2  4  2  0  0  0
 28 29  1  0  0  0
  3  1  1  0  0  0
  1 31  1  0  0  0
  1 63  1  0  0  0
 64 66  1  0  0  0
 65 66  1  0  0  0
 31 34  1  0  0  0
 31 32  1  0  0  0
 34 35  1  0  0  0
 35 36  2  0  0  0
 35 37  1  0  0  0
 15 11  1  0  0  0
 11 17  1  0  0  0
 11  7  1  0  0  0
  7  8  2  0  0  0
  7  9  1  0  0  0
 29 30  1  0  0  0
 63 66  1  0  0  0
 37 39  1  0  0  0
 39 61  1  0  0  0
 39 40  1  0  0  0
 61 62  1  0  0  0
 40 41  2  0  0  0
 40 42  1  0  0  0
 42 44  1  0  0  0
 44 50  1  0  0  0
 44 45  1  0  0  0
 50 51  1  0  0  0
 51 52  2  0  0  0
 51 55  1  0  0  0
 52 53  1  0  0  0
 53 54  2  0  0  0
 54 56  1  0  0  0
 55 56  2  0  0  0
 55 57  1  0  0  0
 56 58  1  0  0  0
 57 59  2  0  0  0
 58 60  2  0  0  0
 59 60  1  0  0  0
 45 46  2  0  0  0
 45 47  1  0  0  0
  3  5  1  0  0  0
 15 16  1  0  0  0
  9 10  1  0  0  0
 32 33  1  0  0  0
 37 38  1  0  0  0
 42 43  1  0  0  0
 47 48  1  0  0  0
 47 49  1  0  0  0
M  END
> <minimizedAffinity>
-9.51551

$$$$
