5TPX_7H7_A_1505


 28 31  0  0  0  0  0  0  0  0999 V2000
   26.9697   77.7574   46.3782 N   0  0  0  0  0  0  0  0  0  0  0  0
   27.5424   77.5549   45.6034 H   0  0  0  0  0  0  0  0  0  0  0  0
   26.2989   78.9368   46.3934 C   0  0  0  0  0  0  0  0  0  0  0  0
   26.2619   79.6431   45.1087 C   0  0  0  0  0  0  0  0  0  0  0  0
   26.6987   79.0391   43.9247 C   0  0  0  0  0  0  0  0  0  0  0  0
   26.5466   79.6942   42.7121 C   0  0  0  0  0  0  0  0  0  0  0  0
   25.9812   80.9573   42.6653 C   0  0  0  0  0  0  0  0  0  0  0  0
   25.5440   81.5701   43.8285 C   0  0  0  0  0  0  0  0  0  0  0  0
   25.6616   80.9120   45.0569 C   0  0  0  0  0  0  0  0  0  0  0  0
   25.1070   81.4482   46.2760 C   0  0  0  0  0  0  0  0  0  0  0  0
   25.1841   80.6646   47.4067 N   0  0  0  0  0  0  0  0  0  0  0  0
   25.8015   79.4057   47.5105 N   0  0  0  0  0  0  0  0  0  0  0  0
   24.4014   82.5236   46.5441 N   0  0  0  0  0  0  0  0  0  0  0  0
   24.0133   82.4561   47.8839 N   0  0  0  0  0  0  0  0  0  0  0  0
   24.4787   81.3415   48.3801 C   0  0  0  0  0  0  0  0  0  0  0  0
   24.3549   80.8915   49.7912 C   0  0  0  0  0  0  0  0  0  0  0  0
   26.8843   76.7740   47.4538 C   0  0  0  0  0  0  0  0  0  0  0  0
   25.9249   75.6723   47.0354 C   0  0  0  0  0  0  0  0  0  0  0  0
   28.2816   76.2234   47.8334 C   0  0  0  0  0  0  0  0  0  0  0  0
   28.1371   75.2072   48.9575 C   0  0  0  0  0  0  0  0  0  0  0  0
   27.7192   75.5941   50.2353 C   0  0  0  0  0  0  0  0  0  0  0  0
   27.7357   74.6920   51.2870 C   0  0  0  0  0  0  0  0  0  0  0  0
   28.1425   73.3784   51.0754 C   0  0  0  0  0  0  0  0  0  0  0  0
   28.5475   72.9810   49.8129 C   0  0  0  0  0  0  0  0  0  0  0  0
   28.5435   73.8835   48.7609 C   0  0  0  0  0  0  0  0  0  0  0  0
   30.6760   76.7223   48.3405 C   0  0  0  0  0  0  0  0  0  0  0  0
   29.3079   77.2462   48.1331 N   0  0  0  0  0  0  0  0  0  0  0  0
   29.0038   78.2701   49.1418 C   0  0  0  0  0  0  0  0  0  0  0  0
  7  6  2  0  0  0
  7  8  1  0  0  0
  6  5  1  0  0  0
  8  9  2  0  0  0
  5  4  2  0  0  0
  9  4  1  0  0  0
  9 10  1  0  0  0
  4  3  1  0  0  0
 10 13  2  0  0  0
 10 11  1  0  0  0
  3  1  1  0  0  0
  3 12  2  0  0  0
  1 17  1  0  0  0
 13 14  1  0  0  0
 18 17  1  0  0  0
 11 12  1  0  0  0
 11 15  1  0  0  0
 17 19  1  0  0  0
 14 15  2  0  0  0
 19 27  1  0  0  0
 19 20  1  0  0  0
 27 26  1  0  0  0
 27 28  1  0  0  0
 15 16  1  0  0  0
 25 20  2  0  0  0
 25 24  1  0  0  0
 20 21  1  0  0  0
 24 23  2  0  0  0
 21 22  2  0  0  0
 23 22  1  0  0  0
  1  2  1  0  0  0
M  END
> <minimizedAffinity>
-9.61956

$$$$
5TPX_7H7_A_1505


 28 31  0  0  0  0  0  0  0  0999 V2000
   26.9290   77.7527   46.4226 N   0  0  0  0  0  0  0  0  0  0  0  0
   27.3331   77.4304   45.5847 H   0  0  0  0  0  0  0  0  0  0  0  0
   26.2849   78.9467   46.4104 C   0  0  0  0  0  0  0  0  0  0  0  0
   26.2644   79.6244   45.1099 C   0  0  0  0  0  0  0  0  0  0  0  0
   26.6883   78.9841   43.9405 C   0  0  0  0  0  0  0  0  0  0  0  0
   26.5516   79.6147   42.7131 C   0  0  0  0  0  0  0  0  0  0  0  0
   26.0148   80.8888   42.6371 C   0  0  0  0  0  0  0  0  0  0  0  0
   25.5908   81.5375   43.7857 C   0  0  0  0  0  0  0  0  0  0  0  0
   25.6928   80.9050   45.0288 C   0  0  0  0  0  0  0  0  0  0  0  0
   25.1498   81.4810   46.2348 C   0  0  0  0  0  0  0  0  0  0  0  0
   25.2086   80.7217   47.3830 N   0  0  0  0  0  0  0  0  0  0  0  0
   25.7975   79.4520   47.5160 N   0  0  0  0  0  0  0  0  0  0  0  0
   24.4683   82.5777   46.4777 N   0  0  0  0  0  0  0  0  0  0  0  0
   24.0780   82.5493   47.8183 N   0  0  0  0  0  0  0  0  0  0  0  0
   24.5180   81.4361   48.3401 C   0  0  0  0  0  0  0  0  0  0  0  0
   24.3833   81.0211   49.7609 C   0  0  0  0  0  0  0  0  0  0  0  0
   27.0527   76.9219   47.6168 C   0  0  0  0  0  0  0  0  0  0  0  0
   25.9300   75.8979   47.6197 C   0  0  0  0  0  0  0  0  0  0  0  0
   28.4509   76.2613   47.7079 C   0  0  0  0  0  0  0  0  0  0  0  0
   28.2930   74.7880   48.0569 C   0  0  0  0  0  0  0  0  0  0  0  0
   28.0853   73.8257   47.0629 C   0  0  0  0  0  0  0  0  0  0  0  0
   27.7932   72.5138   47.4000 C   0  0  0  0  0  0  0  0  0  0  0  0
   27.7316   72.1322   48.7366 C   0  0  0  0  0  0  0  0  0  0  0  0
   27.9464   73.0732   49.7288 C   0  0  0  0  0  0  0  0  0  0  0  0
   28.2274   74.3890   49.3957 C   0  0  0  0  0  0  0  0  0  0  0  0
   29.0477   78.3202   48.9901 C   0  0  0  0  0  0  0  0  0  0  0  0
   29.4203   76.9445   48.5926 N   0  0  0  0  0  0  0  0  0  0  0  0
   30.8464   76.8913   48.2436 C   0  0  0  0  0  0  0  0  0  0  0  0
  7  6  2  0  0  0
  7  8  1  0  0  0
  6  5  1  0  0  0
  8  9  2  0  0  0
  5  4  2  0  0  0
  9  4  1  0  0  0
  9 10  1  0  0  0
  4  3  1  0  0  0
 10 13  2  0  0  0
 10 11  1  0  0  0
  3  1  1  0  0  0
  3 12  2  0  0  0
  1 17  1  0  0  0
 13 14  1  0  0  0
 18 17  1  0  0  0
 11 12  1  0  0  0
 11 15  1  0  0  0
 17 19  1  0  0  0
 14 15  2  0  0  0
 19 27  1  0  0  0
 19 20  1  0  0  0
 27 26  1  0  0  0
 27 28  1  0  0  0
 15 16  1  0  0  0
 25 20  2  0  0  0
 25 24  1  0  0  0
 20 21  1  0  0  0
 24 23  2  0  0  0
 21 22  2  0  0  0
 23 22  1  0  0  0
  1  2  1  0  0  0
M  END
> <minimizedAffinity>
-8.61636

$$$$
5TPX_7H7_A_1505


 28 31  0  0  0  0  0  0  0  0999 V2000
   26.6478   77.9549   48.1061 N   0  0  0  0  0  0  0  0  0  0  0  0
   26.2541   77.9665   49.0084 H   0  0  0  0  0  0  0  0  0  0  0  0
   26.2571   78.9051   47.2198 C   0  0  0  0  0  0  0  0  0  0  0  0
   25.5070   80.0224   47.8026 C   0  0  0  0  0  0  0  0  0  0  0  0
   25.3971   80.1916   49.1870 C   0  0  0  0  0  0  0  0  0  0  0  0
   24.7756   81.3186   49.7033 C   0  0  0  0  0  0  0  0  0  0  0  0
   24.2416   82.2736   48.8548 C   0  0  0  0  0  0  0  0  0  0  0  0
   24.3411   82.1212   47.4812 C   0  0  0  0  0  0  0  0  0  0  0  0
   24.9911   81.0061   46.9427 C   0  0  0  0  0  0  0  0  0  0  0  0
   25.2353   80.8635   45.5281 C   0  0  0  0  0  0  0  0  0  0  0  0
   25.9814   79.7798   45.1190 N   0  0  0  0  0  0  0  0  0  0  0  0
   26.4897   78.7575   45.9394 N   0  0  0  0  0  0  0  0  0  0  0  0
   24.9953   81.6370   44.4935 N   0  0  0  0  0  0  0  0  0  0  0  0
   25.5848   81.0465   43.3736 N   0  0  0  0  0  0  0  0  0  0  0  0
   26.1742   79.9484   43.7633 C   0  0  0  0  0  0  0  0  0  0  0  0
   26.8754   78.9724   42.8888 C   0  0  0  0  0  0  0  0  0  0  0  0
   27.6231   76.9161   47.7881 C   0  0  0  0  0  0  0  0  0  0  0  0
   28.8875   77.1684   48.5922 C   0  0  0  0  0  0  0  0  0  0  0  0
   27.0451   75.4996   48.0310 C   0  0  0  0  0  0  0  0  0  0  0  0
   27.7017   74.8889   49.2611 C   0  0  0  0  0  0  0  0  0  0  0  0
   28.5428   73.7758   49.1566 C   0  0  0  0  0  0  0  0  0  0  0  0
   29.0136   73.1373   50.2927 C   0  0  0  0  0  0  0  0  0  0  0  0
   28.6763   73.6163   51.5548 C   0  0  0  0  0  0  0  0  0  0  0  0
   27.8539   74.7236   51.6705 C   0  0  0  0  0  0  0  0  0  0  0  0
   27.3716   75.3581   50.5365 C   0  0  0  0  0  0  0  0  0  0  0  0
   28.3146   74.6676   46.0472 C   0  0  0  0  0  0  0  0  0  0  0  0
   27.0846   74.5885   46.8659 N   0  0  0  0  0  0  0  0  0  0  0  0
   25.9047   74.5140   45.9938 C   0  0  0  0  0  0  0  0  0  0  0  0
  7  6  2  0  0  0
  7  8  1  0  0  0
  6  5  1  0  0  0
  8  9  2  0  0  0
  5  4  2  0  0  0
  9  4  1  0  0  0
  9 10  1  0  0  0
  4  3  1  0  0  0
 10 13  2  0  0  0
 10 11  1  0  0  0
  3  1  1  0  0  0
  3 12  2  0  0  0
  1 17  1  0  0  0
 13 14  1  0  0  0
 18 17  1  0  0  0
 11 12  1  0  0  0
 11 15  1  0  0  0
 17 19  1  0  0  0
 14 15  2  0  0  0
 19 27  1  0  0  0
 19 20  1  0  0  0
 27 26  1  0  0  0
 27 28  1  0  0  0
 15 16  1  0  0  0
 25 20  2  0  0  0
 25 24  1  0  0  0
 20 21  1  0  0  0
 24 23  2  0  0  0
 21 22  2  0  0  0
 23 22  1  0  0  0
  1  2  1  0  0  0
M  END
> <minimizedAffinity>
-8.42721

$$$$
5TPX_7H7_A_1505


 28 31  0  0  0  0  0  0  0  0999 V2000
   27.4823   77.8767   47.4680 N   0  0  0  0  0  0  0  0  0  0  0  0
   28.4623   77.9420   47.5357 H   0  0  0  0  0  0  0  0  0  0  0  0
   26.8196   78.8298   46.7654 C   0  0  0  0  0  0  0  0  0  0  0  0
   26.0374   79.7658   47.5796 C   0  0  0  0  0  0  0  0  0  0  0  0
   26.1464   79.7958   48.9740 C   0  0  0  0  0  0  0  0  0  0  0  0
   25.4769   80.7666   49.7036 C   0  0  0  0  0  0  0  0  0  0  0  0
   24.6804   81.6994   49.0613 C   0  0  0  0  0  0  0  0  0  0  0  0
   24.5608   81.6833   47.6810 C   0  0  0  0  0  0  0  0  0  0  0  0
   25.2527   80.7305   46.9264 C   0  0  0  0  0  0  0  0  0  0  0  0
   25.2660   80.7496   45.4839 C   0  0  0  0  0  0  0  0  0  0  0  0
   26.0697   79.8311   44.8445 N   0  0  0  0  0  0  0  0  0  0  0  0
   26.8454   78.8305   45.4560 N   0  0  0  0  0  0  0  0  0  0  0  0
   24.7487   81.5643   44.5923 N   0  0  0  0  0  0  0  0  0  0  0  0
   25.2103   81.1691   43.3349 N   0  0  0  0  0  0  0  0  0  0  0  0
   26.0011   80.1436   43.5025 C   0  0  0  0  0  0  0  0  0  0  0  0
   26.6660   79.3646   42.4254 C   0  0  0  0  0  0  0  0  0  0  0  0
   26.8141   76.7594   48.1287 C   0  0  0  0  0  0  0  0  0  0  0  0
   25.4608   76.5408   47.4729 C   0  0  0  0  0  0  0  0  0  0  0  0
   27.6895   75.4815   48.1099 C   0  0  0  0  0  0  0  0  0  0  0  0
   27.9002   74.9912   49.5355 C   0  0  0  0  0  0  0  0  0  0  0  0
   28.0517   73.6296   49.8189 C   0  0  0  0  0  0  0  0  0  0  0  0
   28.0917   73.1812   51.1294 C   0  0  0  0  0  0  0  0  0  0  0  0
   28.0102   74.0879   52.1817 C   0  0  0  0  0  0  0  0  0  0  0  0
   27.8715   75.4387   51.9135 C   0  0  0  0  0  0  0  0  0  0  0  0
   27.8194   75.8900   50.6040 C   0  0  0  0  0  0  0  0  0  0  0  0
   29.2915   74.4348   46.5045 C   0  0  0  0  0  0  0  0  0  0  0  0
   28.9621   75.5937   47.3635 N   0  0  0  0  0  0  0  0  0  0  0  0
   30.1610   76.0410   48.0851 C   0  0  0  0  0  0  0  0  0  0  0  0
  7  6  2  0  0  0
  7  8  1  0  0  0
  6  5  1  0  0  0
  8  9  2  0  0  0
  5  4  2  0  0  0
  9  4  1  0  0  0
  9 10  1  0  0  0
  4  3  1  0  0  0
 10 13  2  0  0  0
 10 11  1  0  0  0
  3  1  1  0  0  0
  3 12  2  0  0  0
  1 17  1  0  0  0
 13 14  1  0  0  0
 18 17  1  0  0  0
 11 12  1  0  0  0
 11 15  1  0  0  0
 17 19  1  0  0  0
 14 15  2  0  0  0
 19 27  1  0  0  0
 19 20  1  0  0  0
 27 26  1  0  0  0
 27 28  1  0  0  0
 15 16  1  0  0  0
 25 20  2  0  0  0
 25 24  1  0  0  0
 20 21  1  0  0  0
 24 23  2  0  0  0
 21 22  2  0  0  0
 23 22  1  0  0  0
  1  2  1  0  0  0
M  END
> <minimizedAffinity>
-7.85468

$$$$
5TPX_7H7_A_1505


 28 31  0  0  0  0  0  0  0  0999 V2000
   27.3773   78.2362   47.8105 N   0  0  0  0  0  0  0  0  0  0  0  0
   28.2214   78.5254   48.2265 H   0  0  0  0  0  0  0  0  0  0  0  0
   26.7192   79.1127   47.0107 C   0  0  0  0  0  0  0  0  0  0  0  0
   25.8193   80.0338   47.7123 C   0  0  0  0  0  0  0  0  0  0  0  0
   25.8120   80.1343   49.1078 C   0  0  0  0  0  0  0  0  0  0  0  0
   25.0290   81.0933   49.7324 C   0  0  0  0  0  0  0  0  0  0  0  0
   24.2340   81.9439   48.9830 C   0  0  0  0  0  0  0  0  0  0  0  0
   24.2288   81.8574   47.6001 C   0  0  0  0  0  0  0  0  0  0  0  0
   25.0350   80.9165   46.9515 C   0  0  0  0  0  0  0  0  0  0  0  0
   25.1650   80.8706   45.5154 C   0  0  0  0  0  0  0  0  0  0  0  0
   26.0710   79.9762   44.9885 N   0  0  0  0  0  0  0  0  0  0  0  0
   26.8518   79.0553   45.7090 N   0  0  0  0  0  0  0  0  0  0  0  0
   24.6751   81.6096   44.5458 N   0  0  0  0  0  0  0  0  0  0  0  0
   25.2604   81.1873   43.3503 N   0  0  0  0  0  0  0  0  0  0  0  0
   26.0939   80.2222   43.6312 C   0  0  0  0  0  0  0  0  0  0  0  0
   26.8894   79.4383   42.6506 C   0  0  0  0  0  0  0  0  0  0  0  0
   26.8956   76.8857   48.0850 C   0  0  0  0  0  0  0  0  0  0  0  0
   25.5593   76.6910   47.3881 C   0  0  0  0  0  0  0  0  0  0  0  0
   27.9360   75.8154   47.6703 C   0  0  0  0  0  0  0  0  0  0  0  0
   27.3499   74.9378   46.5733 C   0  0  0  0  0  0  0  0  0  0  0  0
   27.1815   75.4206   45.2710 C   0  0  0  0  0  0  0  0  0  0  0  0
   26.5109   74.6682   44.3201 C   0  0  0  0  0  0  0  0  0  0  0  0
   26.0210   73.4069   44.6444 C   0  0  0  0  0  0  0  0  0  0  0  0
   26.1915   72.9140   45.9265 C   0  0  0  0  0  0  0  0  0  0  0  0
   26.8516   73.6685   46.8837 C   0  0  0  0  0  0  0  0  0  0  0  0
   28.1313   75.4740   50.1370 C   0  0  0  0  0  0  0  0  0  0  0  0
   28.5048   75.0185   48.7796 N   0  0  0  0  0  0  0  0  0  0  0  0
   29.9337   74.6798   48.7388 C   0  0  0  0  0  0  0  0  0  0  0  0
  7  6  2  0  0  0
  7  8  1  0  0  0
  6  5  1  0  0  0
  8  9  2  0  0  0
  5  4  2  0  0  0
  9  4  1  0  0  0
  9 10  1  0  0  0
  4  3  1  0  0  0
 10 13  2  0  0  0
 10 11  1  0  0  0
  3  1  1  0  0  0
  3 12  2  0  0  0
  1 17  1  0  0  0
 13 14  1  0  0  0
 18 17  1  0  0  0
 11 12  1  0  0  0
 11 15  1  0  0  0
 17 19  1  0  0  0
 14 15  2  0  0  0
 19 27  1  0  0  0
 19 20  1  0  0  0
 27 26  1  0  0  0
 27 28  1  0  0  0
 15 16  1  0  0  0
 25 20  2  0  0  0
 25 24  1  0  0  0
 20 21  1  0  0  0
 24 23  2  0  0  0
 21 22  2  0  0  0
 23 22  1  0  0  0
  1  2  1  0  0  0
M  END
> <minimizedAffinity>
-7.16933

$$$$
5TPX_7H7_A_1505


 28 31  0  0  0  0  0  0  0  0999 V2000
   26.6937   77.5519   45.9625 N   0  0  0  0  0  0  0  0  0  0  0  0
   26.7656   77.1318   45.0751 H   0  0  0  0  0  0  0  0  0  0  0  0
   26.1710   78.8014   46.0439 C   0  0  0  0  0  0  0  0  0  0  0  0
   26.2368   79.5807   44.8033 C   0  0  0  0  0  0  0  0  0  0  0  0
   26.6124   78.9980   43.5881 C   0  0  0  0  0  0  0  0  0  0  0  0
   26.5569   79.7363   42.4157 C   0  0  0  0  0  0  0  0  0  0  0  0
   26.1498   81.0595   42.4408 C   0  0  0  0  0  0  0  0  0  0  0  0
   25.7752   81.6523   43.6358 C   0  0  0  0  0  0  0  0  0  0  0  0
   25.7959   80.9142   44.8236 C   0  0  0  0  0  0  0  0  0  0  0  0
   25.2948   81.4421   46.0692 C   0  0  0  0  0  0  0  0  0  0  0  0
   25.2614   80.5904   47.1517 N   0  0  0  0  0  0  0  0  0  0  0  0
   25.7198   79.2617   47.1840 N   0  0  0  0  0  0  0  0  0  0  0  0
   24.7217   82.5782   46.3966 N   0  0  0  0  0  0  0  0  0  0  0  0
   24.3109   82.4805   47.7278 N   0  0  0  0  0  0  0  0  0  0  0  0
   24.6309   81.2904   48.1595 C   0  0  0  0  0  0  0  0  0  0  0  0
   24.4349   80.7773   49.5406 C   0  0  0  0  0  0  0  0  0  0  0  0
   27.1547   76.7996   47.1257 C   0  0  0  0  0  0  0  0  0  0  0  0
   26.4807   77.3571   48.3683 C   0  0  0  0  0  0  0  0  0  0  0  0
   26.9075   75.2800   46.9548 C   0  0  0  0  0  0  0  0  0  0  0  0
   28.0618   74.5062   47.5760 C   0  0  0  0  0  0  0  0  0  0  0  0
   27.8614   73.2522   48.1629 C   0  0  0  0  0  0  0  0  0  0  0  0
   28.8842   72.6255   48.8566 C   0  0  0  0  0  0  0  0  0  0  0  0
   30.1353   73.2268   48.9523 C   0  0  0  0  0  0  0  0  0  0  0  0
   30.3487   74.4624   48.3660 C   0  0  0  0  0  0  0  0  0  0  0  0
   29.3247   75.0978   47.6812 C   0  0  0  0  0  0  0  0  0  0  0  0
   25.4748   73.9008   45.4433 C   0  0  0  0  0  0  0  0  0  0  0  0
   26.6149   74.8349   45.5744 N   0  0  0  0  0  0  0  0  0  0  0  0
   27.7311   74.3866   44.7309 C   0  0  0  0  0  0  0  0  0  0  0  0
  7  6  2  0  0  0
  7  8  1  0  0  0
  6  5  1  0  0  0
  8  9  2  0  0  0
  5  4  2  0  0  0
  9  4  1  0  0  0
  9 10  1  0  0  0
  4  3  1  0  0  0
 10 13  2  0  0  0
 10 11  1  0  0  0
  3  1  1  0  0  0
  3 12  2  0  0  0
  1 17  1  0  0  0
 13 14  1  0  0  0
 18 17  1  0  0  0
 11 12  1  0  0  0
 11 15  1  0  0  0
 17 19  1  0  0  0
 14 15  2  0  0  0
 19 27  1  0  0  0
 19 20  1  0  0  0
 27 26  1  0  0  0
 27 28  1  0  0  0
 15 16  1  0  0  0
 25 20  2  0  0  0
 25 24  1  0  0  0
 20 21  1  0  0  0
 24 23  2  0  0  0
 21 22  2  0  0  0
 23 22  1  0  0  0
  1  2  1  0  0  0
M  END
> <minimizedAffinity>
-7.01654

$$$$
5TPX_7H7_A_1505


 28 31  0  0  0  0  0  0  0  0999 V2000
   29.5506   77.1327   48.0588 N   0  0  0  0  0  0  0  0  0  0  0  0
   30.1701   77.7292   47.5798 H   0  0  0  0  0  0  0  0  0  0  0  0
   29.9737   75.8828   48.3746 C   0  0  0  0  0  0  0  0  0  0  0  0
   31.3325   75.5591   47.9275 C   0  0  0  0  0  0  0  0  0  0  0  0
   32.1889   76.5371   47.4105 C   0  0  0  0  0  0  0  0  0  0  0  0
   33.5026   76.2188   47.1013 C   0  0  0  0  0  0  0  0  0  0  0  0
   33.9709   74.9283   47.2818 C   0  0  0  0  0  0  0  0  0  0  0  0
   33.1357   73.9475   47.7921 C   0  0  0  0  0  0  0  0  0  0  0  0
   31.8166   74.2574   48.1381 C   0  0  0  0  0  0  0  0  0  0  0  0
   30.9470   73.3097   48.7915 C   0  0  0  0  0  0  0  0  0  0  0  0
   29.7048   73.7560   49.1866 N   0  0  0  0  0  0  0  0  0  0  0  0
   29.1691   75.0376   48.9692 N   0  0  0  0  0  0  0  0  0  0  0  0
   31.1221   72.0819   49.2253 N   0  0  0  0  0  0  0  0  0  0  0  0
   29.9664   71.7034   49.9119 N   0  0  0  0  0  0  0  0  0  0  0  0
   29.1374   72.7119   49.8876 C   0  0  0  0  0  0  0  0  0  0  0  0
   27.7599   72.7275   50.4455 C   0  0  0  0  0  0  0  0  0  0  0  0
   28.2221   77.6367   48.3942 C   0  0  0  0  0  0  0  0  0  0  0  0
   28.3545   79.0578   48.9157 C   0  0  0  0  0  0  0  0  0  0  0  0
   27.2561   77.5414   47.1869 C   0  0  0  0  0  0  0  0  0  0  0  0
   26.5182   78.8628   47.0234 C   0  0  0  0  0  0  0  0  0  0  0  0
   25.7387   79.3907   48.0583 C   0  0  0  0  0  0  0  0  0  0  0  0
   24.9530   80.5127   47.8488 C   0  0  0  0  0  0  0  0  0  0  0  0
   24.9534   81.1455   46.6096 C   0  0  0  0  0  0  0  0  0  0  0  0
   25.7294   80.6388   45.5814 C   0  0  0  0  0  0  0  0  0  0  0  0
   26.5078   79.5099   45.7836 C   0  0  0  0  0  0  0  0  0  0  0  0
   26.0859   75.7936   48.5341 C   0  0  0  0  0  0  0  0  0  0  0  0
   26.3341   76.3843   47.2004 N   0  0  0  0  0  0  0  0  0  0  0  0
   26.5313   75.3191   46.2080 C   0  0  0  0  0  0  0  0  0  0  0  0
  7  6  2  0  0  0
  7  8  1  0  0  0
  6  5  1  0  0  0
  8  9  2  0  0  0
  5  4  2  0  0  0
  9  4  1  0  0  0
  9 10  1  0  0  0
  4  3  1  0  0  0
 10 13  2  0  0  0
 10 11  1  0  0  0
  3  1  1  0  0  0
  3 12  2  0  0  0
  1 17  1  0  0  0
 13 14  1  0  0  0
 18 17  1  0  0  0
 11 12  1  0  0  0
 11 15  1  0  0  0
 17 19  1  0  0  0
 14 15  2  0  0  0
 19 27  1  0  0  0
 19 20  1  0  0  0
 27 26  1  0  0  0
 27 28  1  0  0  0
 15 16  1  0  0  0
 25 20  2  0  0  0
 25 24  1  0  0  0
 20 21  1  0  0  0
 24 23  2  0  0  0
 21 22  2  0  0  0
 23 22  1  0  0  0
  1  2  1  0  0  0
M  END
> <minimizedAffinity>
-6.95763

$$$$
