2WL0_5AH_A_1100


 56 60  0  0  0  0  0  0  0  0999 V2000
   14.9179   22.5709    5.9442 N   0  0  0  0  0  0  0  0  0  0  0  0
   15.8281   21.6850    5.0918 N   0  0  0  0  0  0  0  0  0  0  0  0
   15.5627   20.3513    4.9511 C   0  0  0  0  0  0  0  0  0  0  0  0
   14.5920   19.8540    5.5102 O   0  0  0  0  0  0  0  0  0  0  0  0
   16.6103   22.0779    4.6413 H   0  0  0  0  0  0  0  0  0  0  0  0
   16.4879   19.4601    4.1071 C   0  0  0  0  0  0  0  0  0  0  0  0
   14.8454   19.6059    2.1461 C   0  0  0  0  0  0  0  0  0  0  0  0
   15.8032   18.6450    2.9219 C   0  0  0  0  0  0  0  0  0  0  0  0
   16.8187   18.0731    1.8782 C   0  0  0  0  0  0  0  0  0  0  0  0
   14.9649   17.4576    3.4949 C   0  0  0  0  0  0  0  0  0  0  0  0
   17.0793   18.5746    5.1052 N   0  0  0  0  0  0  0  0  0  0  0  0
   18.3061   18.8126    5.6045 C   0  0  0  0  0  0  0  0  0  0  0  0
   19.0102   19.7649    5.2739 O   0  0  0  0  0  0  0  0  0  0  0  0
   16.5727   17.7907    5.4183 H   0  0  0  0  0  0  0  0  0  0  0  0
   18.6548   17.8696    6.5120 O   0  0  0  0  0  0  0  0  0  0  0  0
   18.7201   16.5144    6.0187 C   0  0  0  0  0  0  0  0  0  0  0  0
   14.1213   23.4822    5.0864 C   0  0  0  0  0  0  0  0  0  0  0  0
   12.8698   22.7567    4.5011 C   0  0  0  0  0  0  0  0  0  0  0  0
   11.7056   23.7009    4.0488 C   0  0  0  0  0  0  0  0  0  0  0  0
   12.2814   24.9484    3.5871 O   0  0  0  0  0  0  0  0  0  0  0  0
   12.9159   24.7680    2.8760 H   0  0  0  0  0  0  0  0  0  0  0  0
   10.6952   23.9763    5.1797 C   0  0  0  0  0  0  0  0  0  0  0  0
   10.1715   25.2306    5.2668 N   0  0  0  0  0  0  0  0  0  0  0  0
   10.3672   23.0853    5.9473 O   0  0  0  0  0  0  0  0  0  0  0  0
   10.4689   25.9196    4.6297 H   0  0  0  0  0  0  0  0  0  0  0  0
    9.1727   25.5828    6.2884 C   0  0  0  0  0  0  0  0  0  0  0  0
    8.1215   26.6810    5.8929 C   0  0  0  0  0  0  0  0  0  0  0  0
    8.6166   27.6412    4.9221 O   0  0  0  0  0  0  0  0  0  0  0  0
    7.7428   27.4499    7.1858 C   0  0  0  0  0  0  0  0  0  0  0  0
    8.9471   27.1934    8.0852 C   0  0  0  0  0  0  0  0  0  0  0  0
    9.2897   27.8694    9.2854 C   0  0  0  0  0  0  0  0  0  0  0  0
   10.4686   27.4661    9.9756 C   0  0  0  0  0  0  0  0  0  0  0  0
   11.2848   26.4086    9.4679 C   0  0  0  0  0  0  0  0  0  0  0  0
   10.9337   25.7393    8.2708 C   0  0  0  0  0  0  0  0  0  0  0  0
    9.7520   26.1458    7.5797 C   0  0  0  0  0  0  0  0  0  0  0  0
    9.3755   28.1162    5.2953 H   0  0  0  0  0  0  0  0  0  0  0  0
   10.9048   23.0509    2.8445 C   0  0  0  0  0  0  0  0  0  0  0  0
    9.4918   23.6451    2.5565 C   0  0  0  0  0  0  0  0  0  0  0  0
    8.3154   22.9135    2.9059 C   0  0  0  0  0  0  0  0  0  0  0  0
    7.0243   23.4468    2.6400 C   0  0  0  0  0  0  0  0  0  0  0  0
    6.8886   24.7207    2.0202 C   0  0  0  0  0  0  0  0  0  0  0  0
    8.0543   25.4623    1.6669 C   0  0  0  0  0  0  0  0  0  0  0  0
    9.3470   24.9299    1.9343 C   0  0  0  0  0  0  0  0  0  0  0  0
   15.7026   23.0986    7.0844 C   0  0  0  0  0  0  0  0  0  0  0  0
   16.0624   21.9282    8.0048 C   0  0  0  0  0  0  0  0  0  0  0  0
   15.0422   21.2825    8.7489 C   0  0  0  0  0  0  0  0  0  0  0  0
   15.3528   20.1888    9.5962 C   0  0  0  0  0  0  0  0  0  0  0  0
   16.6979   19.7150    9.7195 C   0  0  0  0  0  0  0  0  0  0  0  0
   17.7237   20.3722    8.9720 C   0  0  0  0  0  0  0  0  0  0  0  0
   17.4080   21.4693    8.1165 C   0  0  0  0  0  0  0  0  0  0  0  0
   16.6263   16.2161   11.2317 C   0  0  0  0  0  0  0  0  0  0  0  0
   16.3558   17.3105   10.4419 N   0  0  0  0  0  0  0  0  0  0  0  0
   17.0357   18.5558   10.6194 C   0  0  0  0  0  0  0  0  0  0  0  0
   18.0173   18.6342   11.6522 C   0  0  0  0  0  0  0  0  0  0  0  0
   18.2770   17.4907   12.4504 C   0  0  0  0  0  0  0  0  0  0  0  0
   17.5648   16.2798   12.2244 C   0  0  0  0  0  0  0  0  0  0  0  0
  7  8  1  0  0  0
 51 52  2  0  0  0
 51 56  1  0  0  0
 52 53  1  0  0  0
 53 54  2  0  0  0
 53 48  1  0  0  0
 54 55  1  0  0  0
 55 56  2  0  0  0
 19 18  1  0  0  0
 19 20  1  0  0  0
 19 37  1  0  0  0
 19 22  1  0  0  0
 18 17  1  0  0  0
 17  1  1  0  0  0
 37 38  1  0  0  0
 38 39  1  0  0  0
 38 43  2  0  0  0
 39 40  2  0  0  0
 40 41  1  0  0  0
 41 42  2  0  0  0
 42 43  1  0  0  0
 22 23  1  0  0  0
 22 24  2  0  0  0
 23 26  1  0  0  0
 26 27  1  0  0  0
 26 35  1  0  0  0
 27 28  1  0  0  0
 27 29  1  0  0  0
 29 30  1  0  0  0
 30 31  2  0  0  0
 30 35  1  0  0  0
 31 32  1  0  0  0
 32 33  2  0  0  0
 33 34  1  0  0  0
 34 35  2  0  0  0
  1 44  1  0  0  0
  1  2  1  0  0  0
 44 45  1  0  0  0
 45 46  1  0  0  0
 45 50  2  0  0  0
 46 47  2  0  0  0
 47 48  1  0  0  0
 48 49  2  0  0  0
 49 50  1  0  0  0
  2  3  1  0  0  0
  3  6  1  0  0  0
  3  4  2  0  0  0
  6 11  1  0  0  0
  6  8  1  0  0  0
 11 12  1  0  0  0
 12 15  1  0  0  0
 12 13  2  0  0  0
 15 16  1  0  0  0
  8  9  1  0  0  0
  8 10  1  0  0  0
 20 21  1  0  0  0
 23 25  1  0  0  0
 28 36  1  0  0  0
  2  5  1  0  0  0
 11 14  1  0  0  0
M  END
> <minimizedAffinity>
-12.00572

$$$$
2WL0_5AH_A_1100


 56 60  0  0  0  0  0  0  0  0999 V2000
   11.6748   24.5034    4.5941 N   0  0  0  0  0  0  0  0  0  0  0  0
   10.8297   25.5784    5.2797 N   0  0  0  0  0  0  0  0  0  0  0  0
   10.0206   25.2563    6.3335 C   0  0  0  0  0  0  0  0  0  0  0  0
    9.9646   24.1001    6.7363 O   0  0  0  0  0  0  0  0  0  0  0  0
   10.8689   26.5087    4.9599 H   0  0  0  0  0  0  0  0  0  0  0  0
    9.1603   26.3354    7.0104 C   0  0  0  0  0  0  0  0  0  0  0  0
    8.2880   27.5389    9.0973 C   0  0  0  0  0  0  0  0  0  0  0  0
    9.0768   26.2845    8.6004 C   0  0  0  0  0  0  0  0  0  0  0  0
    8.3294   25.0269    9.1548 C   0  0  0  0  0  0  0  0  0  0  0  0
   10.5111   26.3175    9.2194 C   0  0  0  0  0  0  0  0  0  0  0  0
    7.8534   26.1399    6.3908 N   0  0  0  0  0  0  0  0  0  0  0  0
    7.5158   26.7907    5.2624 C   0  0  0  0  0  0  0  0  0  0  0  0
    8.2549   27.5794    4.6761 O   0  0  0  0  0  0  0  0  0  0  0  0
    7.2086   25.5219    6.8050 H   0  0  0  0  0  0  0  0  0  0  0  0
    6.2636   26.4610    4.8651 O   0  0  0  0  0  0  0  0  0  0  0  0
    5.1930   27.2305    5.4533 C   0  0  0  0  0  0  0  0  0  0  0  0
   13.0666   24.5252    5.1068 C   0  0  0  0  0  0  0  0  0  0  0  0
   13.4424   23.1679    5.7788 C   0  0  0  0  0  0  0  0  0  0  0  0
   14.9008   22.6705    5.5015 C   0  0  0  0  0  0  0  0  0  0  0  0
   15.3969   23.3447    4.3182 O   0  0  0  0  0  0  0  0  0  0  0  0
   15.3461   24.3046    4.4478 H   0  0  0  0  0  0  0  0  0  0  0  0
   14.9771   21.1435    5.3060 C   0  0  0  0  0  0  0  0  0  0  0  0
   16.1695   20.6161    4.9125 N   0  0  0  0  0  0  0  0  0  0  0  0
   14.0017   20.4421    5.5237 O   0  0  0  0  0  0  0  0  0  0  0  0
   16.9283   21.2202    4.7431 H   0  0  0  0  0  0  0  0  0  0  0  0
   16.3535   19.1672    4.7338 C   0  0  0  0  0  0  0  0  0  0  0  0
   17.7519   18.5814    5.1448 C   0  0  0  0  0  0  0  0  0  0  0  0
   18.8446   19.5289    5.0112 O   0  0  0  0  0  0  0  0  0  0  0  0
   18.0416   17.3732    4.2161 C   0  0  0  0  0  0  0  0  0  0  0  0
   17.1592   17.6684    3.0081 C   0  0  0  0  0  0  0  0  0  0  0  0
   17.2141   17.0589    1.7274 C   0  0  0  0  0  0  0  0  0  0  0  0
   16.2875   17.4878    0.7342 C   0  0  0  0  0  0  0  0  0  0  0  0
   15.3295   18.5081    1.0231 C   0  0  0  0  0  0  0  0  0  0  0  0
   15.2815   19.1088    2.3043 C   0  0  0  0  0  0  0  0  0  0  0  0
   16.2121   18.6783    3.2982 C   0  0  0  0  0  0  0  0  0  0  0  0
   18.9273   19.7984    4.0831 H   0  0  0  0  0  0  0  0  0  0  0  0
   15.8502   23.0416    6.7159 C   0  0  0  0  0  0  0  0  0  0  0  0
   15.9850   21.9672    7.8384 C   0  0  0  0  0  0  0  0  0  0  0  0
   14.8757   21.6656    8.6868 C   0  0  0  0  0  0  0  0  0  0  0  0
   14.9939   20.6917    9.7161 C   0  0  0  0  0  0  0  0  0  0  0  0
   16.2237   20.0034    9.9139 C   0  0  0  0  0  0  0  0  0  0  0  0
   17.3389   20.2938    9.0739 C   0  0  0  0  0  0  0  0  0  0  0  0
   17.2208   21.2672    8.0421 C   0  0  0  0  0  0  0  0  0  0  0  0
   11.4040   24.5444    3.1383 C   0  0  0  0  0  0  0  0  0  0  0  0
    9.9131   24.2710    2.9172 C   0  0  0  0  0  0  0  0  0  0  0  0
    9.3389   23.0734    3.4149 C   0  0  0  0  0  0  0  0  0  0  0  0
    7.9581   22.8080    3.2322 C   0  0  0  0  0  0  0  0  0  0  0  0
    7.1168   23.7388    2.5430 C   0  0  0  0  0  0  0  0  0  0  0  0
    7.7008   24.9418    2.0383 C   0  0  0  0  0  0  0  0  0  0  0  0
    9.0894   25.2089    2.2275 C   0  0  0  0  0  0  0  0  0  0  0  0
    3.4834   22.9206    3.3567 C   0  0  0  0  0  0  0  0  0  0  0  0
    4.8303   23.1764    3.4789 N   0  0  0  0  0  0  0  0  0  0  0  0
    5.6501   23.4624    2.3428 C   0  0  0  0  0  0  0  0  0  0  0  0
    5.0248   23.4763    1.0603 C   0  0  0  0  0  0  0  0  0  0  0  0
    3.6348   23.2105    0.9635 C   0  0  0  0  0  0  0  0  0  0  0  0
    2.8735   22.9311    2.1327 C   0  0  0  0  0  0  0  0  0  0  0  0
  7  8  1  0  0  0
 51 52  2  0  0  0
 51 56  1  0  0  0
 52 53  1  0  0  0
 53 54  2  0  0  0
 53 48  1  0  0  0
 54 55  1  0  0  0
 55 56  2  0  0  0
 19 18  1  0  0  0
 19 20  1  0  0  0
 19 37  1  0  0  0
 19 22  1  0  0  0
 18 17  1  0  0  0
 17  1  1  0  0  0
 37 38  1  0  0  0
 38 39  1  0  0  0
 38 43  2  0  0  0
 39 40  2  0  0  0
 40 41  1  0  0  0
 41 42  2  0  0  0
 42 43  1  0  0  0
 22 23  1  0  0  0
 22 24  2  0  0  0
 23 26  1  0  0  0
 26 27  1  0  0  0
 26 35  1  0  0  0
 27 28  1  0  0  0
 27 29  1  0  0  0
 29 30  1  0  0  0
 30 31  2  0  0  0
 30 35  1  0  0  0
 31 32  1  0  0  0
 32 33  2  0  0  0
 33 34  1  0  0  0
 34 35  2  0  0  0
  1 44  1  0  0  0
  1  2  1  0  0  0
 44 45  1  0  0  0
 45 46  1  0  0  0
 45 50  2  0  0  0
 46 47  2  0  0  0
 47 48  1  0  0  0
 48 49  2  0  0  0
 49 50  1  0  0  0
  2  3  1  0  0  0
  3  6  1  0  0  0
  3  4  2  0  0  0
  6 11  1  0  0  0
  6  8  1  0  0  0
 11 12  1  0  0  0
 12 15  1  0  0  0
 12 13  2  0  0  0
 15 16  1  0  0  0
  8  9  1  0  0  0
  8 10  1  0  0  0
 20 21  1  0  0  0
 23 25  1  0  0  0
 28 36  1  0  0  0
  2  5  1  0  0  0
 11 14  1  0  0  0
M  END
> <minimizedAffinity>
-11.76758

$$$$
2WL0_5AH_A_1100


 56 60  0  0  0  0  0  0  0  0999 V2000
   14.8347   22.5797    5.8625 N   0  0  0  0  0  0  0  0  0  0  0  0
   15.7665   21.7020    5.0251 N   0  0  0  0  0  0  0  0  0  0  0  0
   15.5320   20.3606    4.9044 C   0  0  0  0  0  0  0  0  0  0  0  0
   14.5719   19.8497    5.4695 O   0  0  0  0  0  0  0  0  0  0  0  0
   16.5405   22.1059    4.5699 H   0  0  0  0  0  0  0  0  0  0  0  0
   16.4790   19.4781    4.0754 C   0  0  0  0  0  0  0  0  0  0  0  0
   14.8454   19.6072    2.1058 C   0  0  0  0  0  0  0  0  0  0  0  0
   15.8220   18.6608    2.8762 C   0  0  0  0  0  0  0  0  0  0  0  0
   16.8578   18.1269    1.8322 C   0  0  0  0  0  0  0  0  0  0  0  0
   15.0098   17.4462    3.4294 C   0  0  0  0  0  0  0  0  0  0  0  0
   17.0586   18.5946    5.0822 N   0  0  0  0  0  0  0  0  0  0  0  0
   18.2730   18.8419    5.6065 C   0  0  0  0  0  0  0  0  0  0  0  0
   18.9749   19.8017    5.2929 O   0  0  0  0  0  0  0  0  0  0  0  0
   16.5529   17.8051    5.3827 H   0  0  0  0  0  0  0  0  0  0  0  0
   18.6122   17.8990    6.5177 O   0  0  0  0  0  0  0  0  0  0  0  0
   18.8694   16.5791    5.9924 C   0  0  0  0  0  0  0  0  0  0  0  0
   14.0230   23.4631    4.9900 C   0  0  0  0  0  0  0  0  0  0  0  0
   12.7020   22.7604    4.5470 C   0  0  0  0  0  0  0  0  0  0  0  0
   11.3929   23.5758    4.8168 C   0  0  0  0  0  0  0  0  0  0  0  0
   10.6796   22.9471    5.9108 O   0  0  0  0  0  0  0  0  0  0  0  0
   11.2579   22.8979    6.6880 H   0  0  0  0  0  0  0  0  0  0  0  0
   10.4824   23.6589    3.5760 C   0  0  0  0  0  0  0  0  0  0  0  0
    9.6075   24.7002    3.5035 N   0  0  0  0  0  0  0  0  0  0  0  0
   10.5709   22.8273    2.6865 O   0  0  0  0  0  0  0  0  0  0  0  0
    9.5664   25.3444    4.2468 H   0  0  0  0  0  0  0  0  0  0  0  0
    8.7220   24.8874    2.3433 C   0  0  0  0  0  0  0  0  0  0  0  0
    8.4999   26.3659    1.8614 C   0  0  0  0  0  0  0  0  0  0  0  0
    8.6126   27.3501    2.9236 O   0  0  0  0  0  0  0  0  0  0  0  0
    7.0685   26.4527    1.2700 C   0  0  0  0  0  0  0  0  0  0  0  0
    6.3644   25.2781    1.9405 C   0  0  0  0  0  0  0  0  0  0  0  0
    4.9689   25.0245    1.9974 C   0  0  0  0  0  0  0  0  0  0  0  0
    4.5211   23.8574    2.6804 C   0  0  0  0  0  0  0  0  0  0  0  0
    5.4564   22.9678    3.2936 C   0  0  0  0  0  0  0  0  0  0  0  0
    6.8465   23.2286    3.2299 C   0  0  0  0  0  0  0  0  0  0  0  0
    7.2933   24.3997    2.5457 C   0  0  0  0  0  0  0  0  0  0  0  0
    7.9335   27.1803    3.5951 H   0  0  0  0  0  0  0  0  0  0  0  0
   11.7468   25.0605    5.2464 C   0  0  0  0  0  0  0  0  0  0  0  0
   11.3754   25.4620    6.7070 C   0  0  0  0  0  0  0  0  0  0  0  0
   12.3524   25.3892    7.7469 C   0  0  0  0  0  0  0  0  0  0  0  0
   12.0185   25.7477    9.0818 C   0  0  0  0  0  0  0  0  0  0  0  0
   10.7018   26.1850    9.3986 C   0  0  0  0  0  0  0  0  0  0  0  0
    9.7168   26.2633    8.3703 C   0  0  0  0  0  0  0  0  0  0  0  0
   10.0508   25.9063    7.0335 C   0  0  0  0  0  0  0  0  0  0  0  0
   15.6036   23.1380    6.9989 C   0  0  0  0  0  0  0  0  0  0  0  0
   15.9909   21.9861    7.9314 C   0  0  0  0  0  0  0  0  0  0  0  0
   14.9848   21.3177    8.6747 C   0  0  0  0  0  0  0  0  0  0  0  0
   15.3211   20.2405    9.5332 C   0  0  0  0  0  0  0  0  0  0  0  0
   16.6784   19.8064    9.6687 C   0  0  0  0  0  0  0  0  0  0  0  0
   17.6898   20.4864    8.9220 C   0  0  0  0  0  0  0  0  0  0  0  0
   17.3483   21.5669    8.0552 C   0  0  0  0  0  0  0  0  0  0  0  0
   16.6806   16.3262   11.2250 C   0  0  0  0  0  0  0  0  0  0  0  0
   16.3848   17.4055   10.4236 N   0  0  0  0  0  0  0  0  0  0  0  0
   17.0435   18.6649   10.5806 C   0  0  0  0  0  0  0  0  0  0  0  0
   18.0308   18.7739   11.6051 C   0  0  0  0  0  0  0  0  0  0  0  0
   18.3167   17.6454   12.4155 C   0  0  0  0  0  0  0  0  0  0  0  0
   17.6249   16.4191   12.2099 C   0  0  0  0  0  0  0  0  0  0  0  0
  7  8  1  0  0  0
 51 52  2  0  0  0
 51 56  1  0  0  0
 52 53  1  0  0  0
 53 54  2  0  0  0
 53 48  1  0  0  0
 54 55  1  0  0  0
 55 56  2  0  0  0
 19 18  1  0  0  0
 19 20  1  0  0  0
 19 37  1  0  0  0
 19 22  1  0  0  0
 18 17  1  0  0  0
 17  1  1  0  0  0
 37 38  1  0  0  0
 38 39  1  0  0  0
 38 43  2  0  0  0
 39 40  2  0  0  0
 40 41  1  0  0  0
 41 42  2  0  0  0
 42 43  1  0  0  0
 22 23  1  0  0  0
 22 24  2  0  0  0
 23 26  1  0  0  0
 26 27  1  0  0  0
 26 35  1  0  0  0
 27 28  1  0  0  0
 27 29  1  0  0  0
 29 30  1  0  0  0
 30 31  2  0  0  0
 30 35  1  0  0  0
 31 32  1  0  0  0
 32 33  2  0  0  0
 33 34  1  0  0  0
 34 35  2  0  0  0
  1 44  1  0  0  0
  1  2  1  0  0  0
 44 45  1  0  0  0
 45 46  1  0  0  0
 45 50  2  0  0  0
 46 47  2  0  0  0
 47 48  1  0  0  0
 48 49  2  0  0  0
 49 50  1  0  0  0
  2  3  1  0  0  0
  3  6  1  0  0  0
  3  4  2  0  0  0
  6 11  1  0  0  0
  6  8  1  0  0  0
 11 12  1  0  0  0
 12 15  1  0  0  0
 12 13  2  0  0  0
 15 16  1  0  0  0
  8  9  1  0  0  0
  8 10  1  0  0  0
 20 21  1  0  0  0
 23 25  1  0  0  0
 28 36  1  0  0  0
  2  5  1  0  0  0
 11 14  1  0  0  0
M  END
> <minimizedAffinity>
-11.40733

$$$$
2WL0_5AH_A_1100


 56 60  0  0  0  0  0  0  0  0999 V2000
   14.2239   21.0956    2.7441 N   0  0  0  0  0  0  0  0  0  0  0  0
   14.4123   20.7566    4.2238 N   0  0  0  0  0  0  0  0  0  0  0  0
   15.1953   21.5444    5.0208 C   0  0  0  0  0  0  0  0  0  0  0  0
   15.7551   22.5296    4.5538 O   0  0  0  0  0  0  0  0  0  0  0  0
   13.9668   19.9657    4.6048 H   0  0  0  0  0  0  0  0  0  0  0  0
   15.3960   21.1926    6.5037 C   0  0  0  0  0  0  0  0  0  0  0  0
   16.1372   23.2431    7.8492 C   0  0  0  0  0  0  0  0  0  0  0  0
   14.9333   22.2882    7.5635 C   0  0  0  0  0  0  0  0  0  0  0  0
   13.7482   23.1833    7.0718 C   0  0  0  0  0  0  0  0  0  0  0  0
   14.5100   21.6022    8.9019 C   0  0  0  0  0  0  0  0  0  0  0  0
   16.8301   20.9327    6.5810 N   0  0  0  0  0  0  0  0  0  0  0  0
   17.3234   20.0074    7.4243 C   0  0  0  0  0  0  0  0  0  0  0  0
   16.6312   19.3239    8.1766 O   0  0  0  0  0  0  0  0  0  0  0  0
   17.4463   21.4426    6.0070 H   0  0  0  0  0  0  0  0  0  0  0  0
   18.6725   19.9324    7.3312 O   0  0  0  0  0  0  0  0  0  0  0  0
   19.2152   19.9801    5.9943 C   0  0  0  0  0  0  0  0  0  0  0  0
   13.0346   21.9614    2.5525 C   0  0  0  0  0  0  0  0  0  0  0  0
   12.4608   22.4439    3.9210 C   0  0  0  0  0  0  0  0  0  0  0  0
   11.8527   23.8867    3.9148 C   0  0  0  0  0  0  0  0  0  0  0  0
   12.9278   24.8372    4.1189 O   0  0  0  0  0  0  0  0  0  0  0  0
   13.6041   24.7121    3.4349 H   0  0  0  0  0  0  0  0  0  0  0  0
   10.7719   24.0769    4.9972 C   0  0  0  0  0  0  0  0  0  0  0  0
   10.2670   25.3297    5.1720 N   0  0  0  0  0  0  0  0  0  0  0  0
   10.3750   23.1244    5.6497 O   0  0  0  0  0  0  0  0  0  0  0  0
   10.6207   26.0694    4.6270 H   0  0  0  0  0  0  0  0  0  0  0  0
    9.2069   25.6066    6.1541 C   0  0  0  0  0  0  0  0  0  0  0  0
    8.1289   26.6720    5.7416 C   0  0  0  0  0  0  0  0  0  0  0  0
    8.6271   27.6831    4.8255 O   0  0  0  0  0  0  0  0  0  0  0  0
    7.6566   27.3823    7.0372 C   0  0  0  0  0  0  0  0  0  0  0  0
    8.8271   27.1474    7.9858 C   0  0  0  0  0  0  0  0  0  0  0  0
    9.0831   27.7980    9.2212 C   0  0  0  0  0  0  0  0  0  0  0  0
   10.2445   27.4223    9.9552 C   0  0  0  0  0  0  0  0  0  0  0  0
   11.1288   26.4168    9.4559 C   0  0  0  0  0  0  0  0  0  0  0  0
   10.8640   25.7724    8.2234 C   0  0  0  0  0  0  0  0  0  0  0  0
    9.6997   26.1513    7.4884 C   0  0  0  0  0  0  0  0  0  0  0  0
    9.3463   28.1771    5.2493 H   0  0  0  0  0  0  0  0  0  0  0  0
   11.1799   24.1955    2.5127 C   0  0  0  0  0  0  0  0  0  0  0  0
    9.6217   24.1458    2.4704 C   0  0  0  0  0  0  0  0  0  0  0  0
    8.8709   25.3105    2.1224 C   0  0  0  0  0  0  0  0  0  0  0  0
    7.4498   25.2736    2.0883 C   0  0  0  0  0  0  0  0  0  0  0  0
    6.7562   24.0712    2.4019 C   0  0  0  0  0  0  0  0  0  0  0  0
    7.4929   22.9009    2.7501 C   0  0  0  0  0  0  0  0  0  0  0  0
    8.9155   22.9366    2.7827 C   0  0  0  0  0  0  0  0  0  0  0  0
   14.3946   19.8576    1.9487 C   0  0  0  0  0  0  0  0  0  0  0  0
   15.3716   18.9394    2.6894 C   0  0  0  0  0  0  0  0  0  0  0  0
   16.7681   19.1462    2.5528 C   0  0  0  0  0  0  0  0  0  0  0  0
   17.6886   18.3154    3.2406 C   0  0  0  0  0  0  0  0  0  0  0  0
   17.2303   17.2533    4.0838 C   0  0  0  0  0  0  0  0  0  0  0  0
   15.8223   17.0450    4.2141 C   0  0  0  0  0  0  0  0  0  0  0  0
   14.8980   17.8852    3.5249 C   0  0  0  0  0  0  0  0  0  0  0  0
   19.8285   14.5327    4.7019 C   0  0  0  0  0  0  0  0  0  0  0  0
   18.9247   15.3692    4.0871 N   0  0  0  0  0  0  0  0  0  0  0  0
   18.2021   16.3653    4.8153 C   0  0  0  0  0  0  0  0  0  0  0  0
   18.4473   16.4706    6.2171 C   0  0  0  0  0  0  0  0  0  0  0  0
   19.3849   15.5966    6.8246 C   0  0  0  0  0  0  0  0  0  0  0  0
   20.0714   14.6246    6.0446 C   0  0  0  0  0  0  0  0  0  0  0  0
  7  8  1  0  0  0
 51 52  2  0  0  0
 51 56  1  0  0  0
 52 53  1  0  0  0
 53 54  2  0  0  0
 53 48  1  0  0  0
 54 55  1  0  0  0
 55 56  2  0  0  0
 19 18  1  0  0  0
 19 20  1  0  0  0
 19 37  1  0  0  0
 19 22  1  0  0  0
 18 17  1  0  0  0
 17  1  1  0  0  0
 37 38  1  0  0  0
 38 39  1  0  0  0
 38 43  2  0  0  0
 39 40  2  0  0  0
 40 41  1  0  0  0
 41 42  2  0  0  0
 42 43  1  0  0  0
 22 23  1  0  0  0
 22 24  2  0  0  0
 23 26  1  0  0  0
 26 27  1  0  0  0
 26 35  1  0  0  0
 27 28  1  0  0  0
 27 29  1  0  0  0
 29 30  1  0  0  0
 30 31  2  0  0  0
 30 35  1  0  0  0
 31 32  1  0  0  0
 32 33  2  0  0  0
 33 34  1  0  0  0
 34 35  2  0  0  0
  1 44  1  0  0  0
  1  2  1  0  0  0
 44 45  1  0  0  0
 45 46  1  0  0  0
 45 50  2  0  0  0
 46 47  2  0  0  0
 47 48  1  0  0  0
 48 49  2  0  0  0
 49 50  1  0  0  0
  2  3  1  0  0  0
  3  6  1  0  0  0
  3  4  2  0  0  0
  6 11  1  0  0  0
  6  8  1  0  0  0
 11 12  1  0  0  0
 12 15  1  0  0  0
 12 13  2  0  0  0
 15 16  1  0  0  0
  8  9  1  0  0  0
  8 10  1  0  0  0
 20 21  1  0  0  0
 23 25  1  0  0  0
 28 36  1  0  0  0
  2  5  1  0  0  0
 11 14  1  0  0  0
M  END
> <minimizedAffinity>
-10.68922

$$$$
2WL0_5AH_A_1100


 56 60  0  0  0  0  0  0  0  0999 V2000
   14.5346   22.5530    5.9534 N   0  0  0  0  0  0  0  0  0  0  0  0
   15.5019   21.7520    5.0801 N   0  0  0  0  0  0  0  0  0  0  0  0
   15.3533   20.4001    4.9418 C   0  0  0  0  0  0  0  0  0  0  0  0
   14.4427   19.8180    5.5199 O   0  0  0  0  0  0  0  0  0  0  0  0
   16.2364   22.2132    4.6143 H   0  0  0  0  0  0  0  0  0  0  0  0
   16.3362   19.5952    4.0765 C   0  0  0  0  0  0  0  0  0  0  0  0
   14.7033   19.7479    2.1080 C   0  0  0  0  0  0  0  0  0  0  0  0
   15.7142   18.8069    2.8398 C   0  0  0  0  0  0  0  0  0  0  0  0
   16.7722   18.3602    1.7774 C   0  0  0  0  0  0  0  0  0  0  0  0
   14.9485   17.5385    3.3357 C   0  0  0  0  0  0  0  0  0  0  0  0
   16.9504   18.6914    5.0440 N   0  0  0  0  0  0  0  0  0  0  0  0
   18.1820   18.9289    5.5313 C   0  0  0  0  0  0  0  0  0  0  0  0
   18.8723   19.8958    5.2141 O   0  0  0  0  0  0  0  0  0  0  0  0
   16.4556   17.8952    5.3449 H   0  0  0  0  0  0  0  0  0  0  0  0
   18.5526   17.9674    6.4103 O   0  0  0  0  0  0  0  0  0  0  0  0
   18.5963   16.6214    5.8901 C   0  0  0  0  0  0  0  0  0  0  0  0
   13.6605   23.4106    5.1161 C   0  0  0  0  0  0  0  0  0  0  0  0
   12.1876   22.8952    5.1252 C   0  0  0  0  0  0  0  0  0  0  0  0
   11.1530   23.8279    4.4103 C   0  0  0  0  0  0  0  0  0  0  0  0
   11.8795   24.7505    3.5606 O   0  0  0  0  0  0  0  0  0  0  0  0
   12.4286   24.2511    2.9362 H   0  0  0  0  0  0  0  0  0  0  0  0
   10.2768   24.6117    5.4070 C   0  0  0  0  0  0  0  0  0  0  0  0
   10.5230   25.9433    5.5527 N   0  0  0  0  0  0  0  0  0  0  0  0
    9.3817   24.0502    6.0188 O   0  0  0  0  0  0  0  0  0  0  0  0
   11.2587   26.3533    5.0430 H   0  0  0  0  0  0  0  0  0  0  0  0
    9.7181   26.7851    6.4519 C   0  0  0  0  0  0  0  0  0  0  0  0
    9.8348   26.4818    7.9888 C   0  0  0  0  0  0  0  0  0  0  0  0
   10.1460   25.0952    8.2889 O   0  0  0  0  0  0  0  0  0  0  0  0
    8.4668   26.8227    8.6358 C   0  0  0  0  0  0  0  0  0  0  0  0
    7.5110   26.7292    7.4514 C   0  0  0  0  0  0  0  0  0  0  0  0
    6.0933   26.6686    7.4870 C   0  0  0  0  0  0  0  0  0  0  0  0
    5.3889   26.5848    6.2518 C   0  0  0  0  0  0  0  0  0  0  0  0
    6.0956   26.5602    5.0099 C   0  0  0  0  0  0  0  0  0  0  0  0
    7.5098   26.6229    4.9848 C   0  0  0  0  0  0  0  0  0  0  0  0
    8.2142   26.7056    6.2243 C   0  0  0  0  0  0  0  0  0  0  0  0
    9.4362   24.5248    7.9545 H   0  0  0  0  0  0  0  0  0  0  0  0
   10.1814   22.9733    3.4940 C   0  0  0  0  0  0  0  0  0  0  0  0
    8.9910   23.7443    2.8452 C   0  0  0  0  0  0  0  0  0  0  0  0
    7.6498   23.2854    3.0238 C   0  0  0  0  0  0  0  0  0  0  0  0
    6.5606   23.9801    2.4296 C   0  0  0  0  0  0  0  0  0  0  0  0
    6.7950   25.1453    1.6468 C   0  0  0  0  0  0  0  0  0  0  0  0
    8.1285   25.6150    1.4609 C   0  0  0  0  0  0  0  0  0  0  0  0
    9.2191   24.9212    2.0568 C   0  0  0  0  0  0  0  0  0  0  0  0
   15.2879   23.1251    7.0934 C   0  0  0  0  0  0  0  0  0  0  0  0
   15.7417   21.9747    7.9974 C   0  0  0  0  0  0  0  0  0  0  0  0
   17.1197   21.6489    8.0787 C   0  0  0  0  0  0  0  0  0  0  0  0
   17.5613   20.5963    8.9198 C   0  0  0  0  0  0  0  0  0  0  0  0
   16.6294   19.8416    9.7015 C   0  0  0  0  0  0  0  0  0  0  0  0
   15.2412   20.1697    9.6124 C   0  0  0  0  0  0  0  0  0  0  0  0
   14.7998   21.2323    8.7690 C   0  0  0  0  0  0  0  0  0  0  0  0
   18.5113   18.0062   12.4626 C   0  0  0  0  0  0  0  0  0  0  0  0
   18.0565   18.9902   11.6144 N   0  0  0  0  0  0  0  0  0  0  0  0
   17.0908   18.7205   10.5949 C   0  0  0  0  0  0  0  0  0  0  0  0
   16.6038   17.3842   10.4794 C   0  0  0  0  0  0  0  0  0  0  0  0
   17.0887   16.3901   11.3675 C   0  0  0  0  0  0  0  0  0  0  0  0
   18.0517   16.7221   12.3611 C   0  0  0  0  0  0  0  0  0  0  0  0
  7  8  1  0  0  0
 51 52  2  0  0  0
 51 56  1  0  0  0
 52 53  1  0  0  0
 53 54  2  0  0  0
 53 48  1  0  0  0
 54 55  1  0  0  0
 55 56  2  0  0  0
 19 18  1  0  0  0
 19 20  1  0  0  0
 19 37  1  0  0  0
 19 22  1  0  0  0
 18 17  1  0  0  0
 17  1  1  0  0  0
 37 38  1  0  0  0
 38 39  1  0  0  0
 38 43  2  0  0  0
 39 40  2  0  0  0
 40 41  1  0  0  0
 41 42  2  0  0  0
 42 43  1  0  0  0
 22 23  1  0  0  0
 22 24  2  0  0  0
 23 26  1  0  0  0
 26 27  1  0  0  0
 26 35  1  0  0  0
 27 28  1  0  0  0
 27 29  1  0  0  0
 29 30  1  0  0  0
 30 31  2  0  0  0
 30 35  1  0  0  0
 31 32  1  0  0  0
 32 33  2  0  0  0
 33 34  1  0  0  0
 34 35  2  0  0  0
  1 44  1  0  0  0
  1  2  1  0  0  0
 44 45  1  0  0  0
 45 46  1  0  0  0
 45 50  2  0  0  0
 46 47  2  0  0  0
 47 48  1  0  0  0
 48 49  2  0  0  0
 49 50  1  0  0  0
  2  3  1  0  0  0
  3  6  1  0  0  0
  3  4  2  0  0  0
  6 11  1  0  0  0
  6  8  1  0  0  0
 11 12  1  0  0  0
 12 15  1  0  0  0
 12 13  2  0  0  0
 15 16  1  0  0  0
  8  9  1  0  0  0
  8 10  1  0  0  0
 20 21  1  0  0  0
 23 25  1  0  0  0
 28 36  1  0  0  0
  2  5  1  0  0  0
 11 14  1  0  0  0
M  END
> <minimizedAffinity>
-10.63564

$$$$
2WL0_5AH_A_1100


 56 60  0  0  0  0  0  0  0  0999 V2000
   13.7416   22.4706    4.1367 N   0  0  0  0  0  0  0  0  0  0  0  0
   14.7701   21.4471    3.6524 N   0  0  0  0  0  0  0  0  0  0  0  0
   15.2108   20.4591    4.4881 C   0  0  0  0  0  0  0  0  0  0  0  0
   14.7854   20.3871    5.6353 O   0  0  0  0  0  0  0  0  0  0  0  0
   15.1171   21.5003    2.7326 H   0  0  0  0  0  0  0  0  0  0  0  0
   16.2564   19.4415    4.0041 C   0  0  0  0  0  0  0  0  0  0  0  0
   14.8297   17.3182    3.8592 C   0  0  0  0  0  0  0  0  0  0  0  0
   15.7333   18.2909    3.0345 C   0  0  0  0  0  0  0  0  0  0  0  0
   14.8684   18.8144    1.8404 C   0  0  0  0  0  0  0  0  0  0  0  0
   16.9379   17.4833    2.4531 C   0  0  0  0  0  0  0  0  0  0  0  0
   16.7821   18.9018    5.2541 N   0  0  0  0  0  0  0  0  0  0  0  0
   18.0531   19.1339    5.6303 C   0  0  0  0  0  0  0  0  0  0  0  0
   18.8536   19.7988    4.9751 O   0  0  0  0  0  0  0  0  0  0  0  0
   16.1976   18.3593    5.8313 H   0  0  0  0  0  0  0  0  0  0  0  0
   18.3265   18.5416    6.8172 O   0  0  0  0  0  0  0  0  0  0  0  0
   19.6389   17.9527    6.9398 C   0  0  0  0  0  0  0  0  0  0  0  0
   14.3692   23.4469    5.0606 C   0  0  0  0  0  0  0  0  0  0  0  0
   13.3097   24.4306    5.6478 C   0  0  0  0  0  0  0  0  0  0  0  0
   12.9343   24.1848    7.1478 C   0  0  0  0  0  0  0  0  0  0  0  0
   12.4281   22.8328    7.2771 O   0  0  0  0  0  0  0  0  0  0  0  0
   13.0919   22.2062    6.9489 H   0  0  0  0  0  0  0  0  0  0  0  0
   11.8866   25.1890    7.6669 C   0  0  0  0  0  0  0  0  0  0  0  0
   10.7323   25.3212    6.9562 N   0  0  0  0  0  0  0  0  0  0  0  0
   12.0881   25.8185    8.6935 O   0  0  0  0  0  0  0  0  0  0  0  0
   10.6148   24.7973    6.1310 H   0  0  0  0  0  0  0  0  0  0  0  0
    9.6562   26.2264    7.3895 C   0  0  0  0  0  0  0  0  0  0  0  0
    8.7417   25.7190    8.5616 C   0  0  0  0  0  0  0  0  0  0  0  0
    8.6162   24.2732    8.6210 O   0  0  0  0  0  0  0  0  0  0  0  0
    7.3284   26.3198    8.3428 C   0  0  0  0  0  0  0  0  0  0  0  0
    7.3272   26.6203    6.8479 C   0  0  0  0  0  0  0  0  0  0  0  0
    6.2090   26.9233    6.0276 C   0  0  0  0  0  0  0  0  0  0  0  0
    6.4339   27.1744    4.6437 C   0  0  0  0  0  0  0  0  0  0  0  0
    7.7536   27.1194    4.0980 C   0  0  0  0  0  0  0  0  0  0  0  0
    8.8627   26.8181    4.9247 C   0  0  0  0  0  0  0  0  0  0  0  0
    8.6350   26.5655    6.3116 C   0  0  0  0  0  0  0  0  0  0  0  0
    8.2092   23.9501    7.8020 H   0  0  0  0  0  0  0  0  0  0  0  0
   14.2190   24.3211    8.0672 C   0  0  0  0  0  0  0  0  0  0  0  0
   15.0314   23.0129    8.3140 C   0  0  0  0  0  0  0  0  0  0  0  0
   16.3879   22.9116    7.8771 C   0  0  0  0  0  0  0  0  0  0  0  0
   17.1321   21.7193    8.0933 C   0  0  0  0  0  0  0  0  0  0  0  0
   16.5317   20.6087    8.7501 C   0  0  0  0  0  0  0  0  0  0  0  0
   15.1788   20.6963    9.1922 C   0  0  0  0  0  0  0  0  0  0  0  0
   14.4338   21.8900    8.9777 C   0  0  0  0  0  0  0  0  0  0  0  0
   12.5036   21.7536    4.5206 C   0  0  0  0  0  0  0  0  0  0  0  0
   11.3175   22.4373    3.8334 C   0  0  0  0  0  0  0  0  0  0  0  0
   10.1549   22.7459    4.5850 C   0  0  0  0  0  0  0  0  0  0  0  0
    9.0517   23.3905    3.9705 C   0  0  0  0  0  0  0  0  0  0  0  0
    9.0865   23.7417    2.5832 C   0  0  0  0  0  0  0  0  0  0  0  0
   10.2579   23.4239    1.8284 C   0  0  0  0  0  0  0  0  0  0  0  0
   11.3686   22.7796    2.4499 C   0  0  0  0  0  0  0  0  0  0  0  0
    7.1148   26.2603    0.5088 C   0  0  0  0  0  0  0  0  0  0  0  0
    8.1440   25.5978    1.1384 N   0  0  0  0  0  0  0  0  0  0  0  0
    7.9175   24.4241    1.9231 C   0  0  0  0  0  0  0  0  0  0  0  0
    6.5761   23.9510    2.0370 C   0  0  0  0  0  0  0  0  0  0  0  0
    5.5349   24.6524    1.3765 C   0  0  0  0  0  0  0  0  0  0  0  0
    5.8254   25.8160    0.6109 C   0  0  0  0  0  0  0  0  0  0  0  0
  7  8  1  0  0  0
 51 52  2  0  0  0
 51 56  1  0  0  0
 52 53  1  0  0  0
 53 54  2  0  0  0
 53 48  1  0  0  0
 54 55  1  0  0  0
 55 56  2  0  0  0
 19 18  1  0  0  0
 19 20  1  0  0  0
 19 37  1  0  0  0
 19 22  1  0  0  0
 18 17  1  0  0  0
 17  1  1  0  0  0
 37 38  1  0  0  0
 38 39  1  0  0  0
 38 43  2  0  0  0
 39 40  2  0  0  0
 40 41  1  0  0  0
 41 42  2  0  0  0
 42 43  1  0  0  0
 22 23  1  0  0  0
 22 24  2  0  0  0
 23 26  1  0  0  0
 26 27  1  0  0  0
 26 35  1  0  0  0
 27 28  1  0  0  0
 27 29  1  0  0  0
 29 30  1  0  0  0
 30 31  2  0  0  0
 30 35  1  0  0  0
 31 32  1  0  0  0
 32 33  2  0  0  0
 33 34  1  0  0  0
 34 35  2  0  0  0
  1 44  1  0  0  0
  1  2  1  0  0  0
 44 45  1  0  0  0
 45 46  1  0  0  0
 45 50  2  0  0  0
 46 47  2  0  0  0
 47 48  1  0  0  0
 48 49  2  0  0  0
 49 50  1  0  0  0
  2  3  1  0  0  0
  3  6  1  0  0  0
  3  4  2  0  0  0
  6 11  1  0  0  0
  6  8  1  0  0  0
 11 12  1  0  0  0
 12 15  1  0  0  0
 12 13  2  0  0  0
 15 16  1  0  0  0
  8  9  1  0  0  0
  8 10  1  0  0  0
 20 21  1  0  0  0
 23 25  1  0  0  0
 28 36  1  0  0  0
  2  5  1  0  0  0
 11 14  1  0  0  0
M  END
> <minimizedAffinity>
-10.27722

$$$$
2WL0_5AH_A_1100


 56 60  0  0  0  0  0  0  0  0999 V2000
   15.0691   23.3557    6.3363 N   0  0  0  0  0  0  0  0  0  0  0  0
   13.6408   23.0385    5.8898 N   0  0  0  0  0  0  0  0  0  0  0  0
   12.9137   23.9591    5.1879 C   0  0  0  0  0  0  0  0  0  0  0  0
   13.4016   25.0491    4.9122 O   0  0  0  0  0  0  0  0  0  0  0  0
   13.2425   22.1654    6.1095 H   0  0  0  0  0  0  0  0  0  0  0  0
   11.4731   23.6440    4.7543 C   0  0  0  0  0  0  0  0  0  0  0  0
   11.1339   24.2934    2.2991 C   0  0  0  0  0  0  0  0  0  0  0  0
   11.2820   23.0823    3.2758 C   0  0  0  0  0  0  0  0  0  0  0  0
   12.4881   22.2279    2.7629 C   0  0  0  0  0  0  0  0  0  0  0  0
    9.9889   22.2096    3.1909 C   0  0  0  0  0  0  0  0  0  0  0  0
   10.7941   24.9221    4.9423 N   0  0  0  0  0  0  0  0  0  0  0  0
    9.9562   25.1175    5.9769 C   0  0  0  0  0  0  0  0  0  0  0  0
    9.6996   24.2644    6.8246 O   0  0  0  0  0  0  0  0  0  0  0  0
   10.9516   25.6531    4.3019 H   0  0  0  0  0  0  0  0  0  0  0  0
    9.4402   26.3696    5.9571 O   0  0  0  0  0  0  0  0  0  0  0  0
    8.2980   26.5666    5.0963 C   0  0  0  0  0  0  0  0  0  0  0  0
   16.0245   22.3692    5.7754 C   0  0  0  0  0  0  0  0  0  0  0  0
   15.2847   21.2781    4.9403 C   0  0  0  0  0  0  0  0  0  0  0  0
   15.5980   19.8004    5.3520 C   0  0  0  0  0  0  0  0  0  0  0  0
   15.2430   19.6290    6.7469 O   0  0  0  0  0  0  0  0  0  0  0  0
   14.3107   19.8644    6.8745 H   0  0  0  0  0  0  0  0  0  0  0  0
   17.0785   19.4287    5.1381 C   0  0  0  0  0  0  0  0  0  0  0  0
   17.5682   18.3627    5.8300 N   0  0  0  0  0  0  0  0  0  0  0  0
   17.7685   20.0615    4.3545 O   0  0  0  0  0  0  0  0  0  0  0  0
   16.9771   17.8847    6.4555 H   0  0  0  0  0  0  0  0  0  0  0  0
   18.9578   17.9068    5.6672 C   0  0  0  0  0  0  0  0  0  0  0  0
   19.1956   16.7274    4.6574 C   0  0  0  0  0  0  0  0  0  0  0  0
   18.0602   15.8309    4.5279 O   0  0  0  0  0  0  0  0  0  0  0  0
   20.4048   15.9063    5.1771 C   0  0  0  0  0  0  0  0  0  0  0  0
   20.4229   16.2525    6.6620 C   0  0  0  0  0  0  0  0  0  0  0  0
   21.1340   15.5890    7.6960 C   0  0  0  0  0  0  0  0  0  0  0  0
   21.0096   16.0826    9.0263 C   0  0  0  0  0  0  0  0  0  0  0  0
   20.1868   17.2162    9.3093 C   0  0  0  0  0  0  0  0  0  0  0  0
   19.4828   17.8722    8.2708 C   0  0  0  0  0  0  0  0  0  0  0  0
   19.6079   17.3752    6.9379 C   0  0  0  0  0  0  0  0  0  0  0  0
   17.8746   15.4182    5.3858 H   0  0  0  0  0  0  0  0  0  0  0  0
   14.7264   18.7921    4.4931 C   0  0  0  0  0  0  0  0  0  0  0  0
   15.2537   18.4736    3.0603 C   0  0  0  0  0  0  0  0  0  0  0  0
   16.1016   17.3456    2.8366 C   0  0  0  0  0  0  0  0  0  0  0  0
   16.5910   17.0535    1.5339 C   0  0  0  0  0  0  0  0  0  0  0  0
   16.2404   17.8849    0.4333 C   0  0  0  0  0  0  0  0  0  0  0  0
   15.3941   19.0135    0.6419 C   0  0  0  0  0  0  0  0  0  0  0  0
   14.9024   19.3055    1.9454 C   0  0  0  0  0  0  0  0  0  0  0  0
   15.0566   23.6566    7.7867 C   0  0  0  0  0  0  0  0  0  0  0  0
   15.5703   22.4252    8.5391 C   0  0  0  0  0  0  0  0  0  0  0  0
   14.6617   21.6272    9.2802 C   0  0  0  0  0  0  0  0  0  0  0  0
   15.1152   20.4759    9.9726 C   0  0  0  0  0  0  0  0  0  0  0  0
   16.4950   20.0960    9.9398 C   0  0  0  0  0  0  0  0  0  0  0  0
   17.4080   20.9061    9.1963 C   0  0  0  0  0  0  0  0  0  0  0  0
   16.9486   22.0613    8.4966 C   0  0  0  0  0  0  0  0  0  0  0  0
   18.4360   17.9492   12.4213 C   0  0  0  0  0  0  0  0  0  0  0  0
   17.9559   19.0274   11.7131 N   0  0  0  0  0  0  0  0  0  0  0  0
   16.9843   18.8761   10.6749 C   0  0  0  0  0  0  0  0  0  0  0  0
   16.5186   17.5579   10.3893 C   0  0  0  0  0  0  0  0  0  0  0  0
   17.0293   16.4650   11.1356 C   0  0  0  0  0  0  0  0  0  0  0  0
   17.9969   16.6814   12.1562 C   0  0  0  0  0  0  0  0  0  0  0  0
  7  8  1  0  0  0
 51 52  2  0  0  0
 51 56  1  0  0  0
 52 53  1  0  0  0
 53 54  2  0  0  0
 53 48  1  0  0  0
 54 55  1  0  0  0
 55 56  2  0  0  0
 19 18  1  0  0  0
 19 20  1  0  0  0
 19 37  1  0  0  0
 19 22  1  0  0  0
 18 17  1  0  0  0
 17  1  1  0  0  0
 37 38  1  0  0  0
 38 39  1  0  0  0
 38 43  2  0  0  0
 39 40  2  0  0  0
 40 41  1  0  0  0
 41 42  2  0  0  0
 42 43  1  0  0  0
 22 23  1  0  0  0
 22 24  2  0  0  0
 23 26  1  0  0  0
 26 27  1  0  0  0
 26 35  1  0  0  0
 27 28  1  0  0  0
 27 29  1  0  0  0
 29 30  1  0  0  0
 30 31  2  0  0  0
 30 35  1  0  0  0
 31 32  1  0  0  0
 32 33  2  0  0  0
 33 34  1  0  0  0
 34 35  2  0  0  0
  1 44  1  0  0  0
  1  2  1  0  0  0
 44 45  1  0  0  0
 45 46  1  0  0  0
 45 50  2  0  0  0
 46 47  2  0  0  0
 47 48  1  0  0  0
 48 49  2  0  0  0
 49 50  1  0  0  0
  2  3  1  0  0  0
  3  6  1  0  0  0
  3  4  2  0  0  0
  6 11  1  0  0  0
  6  8  1  0  0  0
 11 12  1  0  0  0
 12 15  1  0  0  0
 12 13  2  0  0  0
 15 16  1  0  0  0
  8  9  1  0  0  0
  8 10  1  0  0  0
 20 21  1  0  0  0
 23 25  1  0  0  0
 28 36  1  0  0  0
  2  5  1  0  0  0
 11 14  1  0  0  0
M  END
> <minimizedAffinity>
-9.98671

$$$$
2WL0_5AH_A_1100


 56 60  0  0  0  0  0  0  0  0999 V2000
   14.9345   22.2858    5.9617 N   0  0  0  0  0  0  0  0  0  0  0  0
   15.8047   21.1911    5.3418 N   0  0  0  0  0  0  0  0  0  0  0  0
   15.3543   19.9021    5.2762 C   0  0  0  0  0  0  0  0  0  0  0  0
   14.2478   19.6129    5.7166 O   0  0  0  0  0  0  0  0  0  0  0  0
   16.6953   21.4165    4.9878 H   0  0  0  0  0  0  0  0  0  0  0  0
   16.2373   18.8009    4.6674 C   0  0  0  0  0  0  0  0  0  0  0  0
   18.5787   17.8985    4.1493 C   0  0  0  0  0  0  0  0  0  0  0  0
   17.7478   18.7414    5.1701 C   0  0  0  0  0  0  0  0  0  0  0  0
   18.4365   20.1425    5.2716 C   0  0  0  0  0  0  0  0  0  0  0  0
   17.8260   18.0517    6.5698 C   0  0  0  0  0  0  0  0  0  0  0  0
   16.1509   19.0743    3.2363 N   0  0  0  0  0  0  0  0  0  0  0  0
   15.3128   18.3786    2.4461 C   0  0  0  0  0  0  0  0  0  0  0  0
   14.5724   17.4832    2.8486 O   0  0  0  0  0  0  0  0  0  0  0  0
   16.7148   19.7789    2.8429 H   0  0  0  0  0  0  0  0  0  0  0  0
   15.3954   18.7962    1.1603 O   0  0  0  0  0  0  0  0  0  0  0  0
   16.1020   17.9189    0.2573 C   0  0  0  0  0  0  0  0  0  0  0  0
   14.3305   23.1353    4.9061 C   0  0  0  0  0  0  0  0  0  0  0  0
   12.9837   22.5327    4.3980 C   0  0  0  0  0  0  0  0  0  0  0  0
   11.9005   23.5839    3.9820 C   0  0  0  0  0  0  0  0  0  0  0  0
   12.5725   24.8202    3.6344 O   0  0  0  0  0  0  0  0  0  0  0  0
   13.2196   24.6501    2.9320 H   0  0  0  0  0  0  0  0  0  0  0  0
   10.8695   23.8431    5.0980 C   0  0  0  0  0  0  0  0  0  0  0  0
   10.3609   25.1018    5.2078 N   0  0  0  0  0  0  0  0  0  0  0  0
   10.5130   22.9365    5.8340 O   0  0  0  0  0  0  0  0  0  0  0  0
   10.6814   25.8033    4.5960 H   0  0  0  0  0  0  0  0  0  0  0  0
    9.3450   25.4405    6.2170 C   0  0  0  0  0  0  0  0  0  0  0  0
    8.2688   26.5057    5.7993 C   0  0  0  0  0  0  0  0  0  0  0  0
    8.7465   27.4664    4.8203 O   0  0  0  0  0  0  0  0  0  0  0  0
    7.8596   27.2806    7.0792 C   0  0  0  0  0  0  0  0  0  0  0  0
    9.0627   27.0670    7.9912 C   0  0  0  0  0  0  0  0  0  0  0  0
    9.3777   27.7667    9.1854 C   0  0  0  0  0  0  0  0  0  0  0  0
   10.5611   27.4032    9.8899 C   0  0  0  0  0  0  0  0  0  0  0  0
   11.4087   26.3611    9.4022 C   0  0  0  0  0  0  0  0  0  0  0  0
   11.0850   25.6678    8.2110 C   0  0  0  0  0  0  0  0  0  0  0  0
    9.8988   26.0346    7.5055 C   0  0  0  0  0  0  0  0  0  0  0  0
    9.4898   27.9657    5.1933 H   0  0  0  0  0  0  0  0  0  0  0  0
   11.1037   23.0796    2.7073 C   0  0  0  0  0  0  0  0  0  0  0  0
    9.6648   23.6526    2.5233 C   0  0  0  0  0  0  0  0  0  0  0  0
    8.5257   22.8849    2.9162 C   0  0  0  0  0  0  0  0  0  0  0  0
    7.2110   23.3988    2.7451 C   0  0  0  0  0  0  0  0  0  0  0  0
    7.0138   24.6891    2.1781 C   0  0  0  0  0  0  0  0  0  0  0  0
    8.1418   25.4667    1.7822 C   0  0  0  0  0  0  0  0  0  0  0  0
    9.4582   24.9536    1.9548 C   0  0  0  0  0  0  0  0  0  0  0  0
   15.6725   22.8947    7.0926 C   0  0  0  0  0  0  0  0  0  0  0  0
   16.0873   21.7775    8.0550 C   0  0  0  0  0  0  0  0  0  0  0  0
   15.0902   21.0032    8.7013 C   0  0  0  0  0  0  0  0  0  0  0  0
   15.4537   19.9560    9.5854 C   0  0  0  0  0  0  0  0  0  0  0  0
   16.8299   19.6592    9.8448 C   0  0  0  0  0  0  0  0  0  0  0  0
   17.8313   20.4456    9.1956 C   0  0  0  0  0  0  0  0  0  0  0  0
   17.4631   21.4956    8.3028 C   0  0  0  0  0  0  0  0  0  0  0  0
   18.4606   17.8719   12.7911 C   0  0  0  0  0  0  0  0  0  0  0  0
   18.0721   18.8440   11.8973 N   0  0  0  0  0  0  0  0  0  0  0  0
   17.2235   18.5503   10.7846 C   0  0  0  0  0  0  0  0  0  0  0  0
   16.7833   17.2025   10.6237 C   0  0  0  0  0  0  0  0  0  0  0  0
   17.1979   16.2211   11.5603 C   0  0  0  0  0  0  0  0  0  0  0  0
   18.0450   16.5770   12.6468 C   0  0  0  0  0  0  0  0  0  0  0  0
  7  8  1  0  0  0
 51 52  2  0  0  0
 51 56  1  0  0  0
 52 53  1  0  0  0
 53 54  2  0  0  0
 53 48  1  0  0  0
 54 55  1  0  0  0
 55 56  2  0  0  0
 19 18  1  0  0  0
 19 20  1  0  0  0
 19 37  1  0  0  0
 19 22  1  0  0  0
 18 17  1  0  0  0
 17  1  1  0  0  0
 37 38  1  0  0  0
 38 39  1  0  0  0
 38 43  2  0  0  0
 39 40  2  0  0  0
 40 41  1  0  0  0
 41 42  2  0  0  0
 42 43  1  0  0  0
 22 23  1  0  0  0
 22 24  2  0  0  0
 23 26  1  0  0  0
 26 27  1  0  0  0
 26 35  1  0  0  0
 27 28  1  0  0  0
 27 29  1  0  0  0
 29 30  1  0  0  0
 30 31  2  0  0  0
 30 35  1  0  0  0
 31 32  1  0  0  0
 32 33  2  0  0  0
 33 34  1  0  0  0
 34 35  2  0  0  0
  1 44  1  0  0  0
  1  2  1  0  0  0
 44 45  1  0  0  0
 45 46  1  0  0  0
 45 50  2  0  0  0
 46 47  2  0  0  0
 47 48  1  0  0  0
 48 49  2  0  0  0
 49 50  1  0  0  0
  2  3  1  0  0  0
  3  6  1  0  0  0
  3  4  2  0  0  0
  6 11  1  0  0  0
  6  8  1  0  0  0
 11 12  1  0  0  0
 12 15  1  0  0  0
 12 13  2  0  0  0
 15 16  1  0  0  0
  8  9  1  0  0  0
  8 10  1  0  0  0
 20 21  1  0  0  0
 23 25  1  0  0  0
 28 36  1  0  0  0
  2  5  1  0  0  0
 11 14  1  0  0  0
M  END
> <minimizedAffinity>
-9.86792

$$$$
2WL0_5AH_A_1100


 56 60  0  0  0  0  0  0  0  0999 V2000
   14.4309   23.9501    7.5207 N   0  0  0  0  0  0  0  0  0  0  0  0
   12.9048   24.0540    7.5142 N   0  0  0  0  0  0  0  0  0  0  0  0
   12.2894   25.2356    7.8206 C   0  0  0  0  0  0  0  0  0  0  0  0
   12.9578   26.2226    8.1056 O   0  0  0  0  0  0  0  0  0  0  0  0
   12.3620   23.2644    7.2877 H   0  0  0  0  0  0  0  0  0  0  0  0
   10.7554   25.3331    7.8290 C   0  0  0  0  0  0  0  0  0  0  0  0
    9.2132   24.1884    6.1331 C   0  0  0  0  0  0  0  0  0  0  0  0
   10.0444   25.4824    6.4113 C   0  0  0  0  0  0  0  0  0  0  0  0
    9.0522   26.6890    6.3251 C   0  0  0  0  0  0  0  0  0  0  0  0
   11.1137   25.6428    5.2834 C   0  0  0  0  0  0  0  0  0  0  0  0
   10.5116   26.4904    8.6842 N   0  0  0  0  0  0  0  0  0  0  0  0
    9.6742   26.4133    9.7347 C   0  0  0  0  0  0  0  0  0  0  0  0
    9.0632   25.3950   10.0537 O   0  0  0  0  0  0  0  0  0  0  0  0
   10.9672   27.3411    8.4893 H   0  0  0  0  0  0  0  0  0  0  0  0
    9.5979   27.5985   10.3858 O   0  0  0  0  0  0  0  0  0  0  0  0
    8.4185   27.7984   11.1940 C   0  0  0  0  0  0  0  0  0  0  0  0
   14.9064   23.1501    6.3654 C   0  0  0  0  0  0  0  0  0  0  0  0
   14.0032   23.3747    5.1128 C   0  0  0  0  0  0  0  0  0  0  0  0
   13.0336   22.1934    4.7724 C   0  0  0  0  0  0  0  0  0  0  0  0
   11.8264   22.3512    5.5590 O   0  0  0  0  0  0  0  0  0  0  0  0
   11.4355   23.2208    5.3804 H   0  0  0  0  0  0  0  0  0  0  0  0
   13.6632   20.8140    5.0489 C   0  0  0  0  0  0  0  0  0  0  0  0
   14.6366   20.3826    4.1995 N   0  0  0  0  0  0  0  0  0  0  0  0
   13.3089   20.1538    6.0128 O   0  0  0  0  0  0  0  0  0  0  0  0
   14.8870   20.9457    3.4317 H   0  0  0  0  0  0  0  0  0  0  0  0
   15.3238   19.0969    4.3994 C   0  0  0  0  0  0  0  0  0  0  0  0
   16.6655   19.1377    5.2153 C   0  0  0  0  0  0  0  0  0  0  0  0
   17.3823   20.3956    5.0989 O   0  0  0  0  0  0  0  0  0  0  0  0
   17.5772   18.0079    4.6688 C   0  0  0  0  0  0  0  0  0  0  0  0
   17.0167   17.7818    3.2689 C   0  0  0  0  0  0  0  0  0  0  0  0
   17.6185   17.0648    2.2018 C   0  0  0  0  0  0  0  0  0  0  0  0
   16.9153   16.9748    0.9664 C   0  0  0  0  0  0  0  0  0  0  0  0
   15.6371   17.5941    0.8084 C   0  0  0  0  0  0  0  0  0  0  0  0
   15.0444   18.3057    1.8792 C   0  0  0  0  0  0  0  0  0  0  0  0
   15.7515   18.3958    3.1166 C   0  0  0  0  0  0  0  0  0  0  0  0
   17.6257   20.5445    4.1718 H   0  0  0  0  0  0  0  0  0  0  0  0
   12.6327   22.2336    3.2389 C   0  0  0  0  0  0  0  0  0  0  0  0
   11.2312   22.8330    2.9088 C   0  0  0  0  0  0  0  0  0  0  0  0
   11.1218   24.1145    2.2868 C   0  0  0  0  0  0  0  0  0  0  0  0
    9.8469   24.6695    1.9891 C   0  0  0  0  0  0  0  0  0  0  0  0
    8.6603   23.9518    2.3087 C   0  0  0  0  0  0  0  0  0  0  0  0
    8.7546   22.6712    2.9290 C   0  0  0  0  0  0  0  0  0  0  0  0
   10.0305   22.1142    3.2257 C   0  0  0  0  0  0  0  0  0  0  0  0
   14.8787   23.6323    8.8965 C   0  0  0  0  0  0  0  0  0  0  0  0
   15.6567   22.3134    8.8578 C   0  0  0  0  0  0  0  0  0  0  0  0
   17.0200   22.3153    8.4666 C   0  0  0  0  0  0  0  0  0  0  0  0
   17.7612   21.1068    8.4371 C   0  0  0  0  0  0  0  0  0  0  0  0
   17.1518   19.8632    8.7990 C   0  0  0  0  0  0  0  0  0  0  0  0
   15.7762   19.8652    9.1873 C   0  0  0  0  0  0  0  0  0  0  0  0
   15.0339   21.0830    9.2208 C   0  0  0  0  0  0  0  0  0  0  0  0
   19.7813   17.2931    7.7919 C   0  0  0  0  0  0  0  0  0  0  0  0
   19.0302   18.4445    7.8613 N   0  0  0  0  0  0  0  0  0  0  0  0
   17.9319   18.5755    8.7675 C   0  0  0  0  0  0  0  0  0  0  0  0
   17.6316   17.4642    9.6108 C   0  0  0  0  0  0  0  0  0  0  0  0
   18.4228   16.2904    9.5193 C   0  0  0  0  0  0  0  0  0  0  0  0
   19.5026   16.2219    8.5951 C   0  0  0  0  0  0  0  0  0  0  0  0
  7  8  1  0  0  0
 51 52  2  0  0  0
 51 56  1  0  0  0
 52 53  1  0  0  0
 53 54  2  0  0  0
 53 48  1  0  0  0
 54 55  1  0  0  0
 55 56  2  0  0  0
 19 18  1  0  0  0
 19 20  1  0  0  0
 19 37  1  0  0  0
 19 22  1  0  0  0
 18 17  1  0  0  0
 17  1  1  0  0  0
 37 38  1  0  0  0
 38 39  1  0  0  0
 38 43  2  0  0  0
 39 40  2  0  0  0
 40 41  1  0  0  0
 41 42  2  0  0  0
 42 43  1  0  0  0
 22 23  1  0  0  0
 22 24  2  0  0  0
 23 26  1  0  0  0
 26 27  1  0  0  0
 26 35  1  0  0  0
 27 28  1  0  0  0
 27 29  1  0  0  0
 29 30  1  0  0  0
 30 31  2  0  0  0
 30 35  1  0  0  0
 31 32  1  0  0  0
 32 33  2  0  0  0
 33 34  1  0  0  0
 34 35  2  0  0  0
  1 44  1  0  0  0
  1  2  1  0  0  0
 44 45  1  0  0  0
 45 46  1  0  0  0
 45 50  2  0  0  0
 46 47  2  0  0  0
 47 48  1  0  0  0
 48 49  2  0  0  0
 49 50  1  0  0  0
  2  3  1  0  0  0
  3  6  1  0  0  0
  3  4  2  0  0  0
  6 11  1  0  0  0
  6  8  1  0  0  0
 11 12  1  0  0  0
 12 15  1  0  0  0
 12 13  2  0  0  0
 15 16  1  0  0  0
  8  9  1  0  0  0
  8 10  1  0  0  0
 20 21  1  0  0  0
 23 25  1  0  0  0
 28 36  1  0  0  0
  2  5  1  0  0  0
 11 14  1  0  0  0
M  END
> <minimizedAffinity>
-9.69974

$$$$
2WL0_5AH_A_1100


 56 60  0  0  0  0  0  0  0  0999 V2000
   10.7059   23.4055    4.6411 N   0  0  0  0  0  0  0  0  0  0  0  0
    9.5269   24.0270    5.3919 N   0  0  0  0  0  0  0  0  0  0  0  0
    9.6516   25.2523    5.9852 C   0  0  0  0  0  0  0  0  0  0  0  0
   10.7125   25.8626    5.9214 O   0  0  0  0  0  0  0  0  0  0  0  0
    8.6724   23.5412    5.4482 H   0  0  0  0  0  0  0  0  0  0  0  0
    8.4703   25.8674    6.7527 C   0  0  0  0  0  0  0  0  0  0  0  0
    6.3955   25.8416    5.2498 C   0  0  0  0  0  0  0  0  0  0  0  0
    7.4663   26.7706    5.9079 C   0  0  0  0  0  0  0  0  0  0  0  0
    6.6903   27.8251    6.7645 C   0  0  0  0  0  0  0  0  0  0  0  0
    8.2369   27.5253    4.7776 C   0  0  0  0  0  0  0  0  0  0  0  0
    9.1335   26.6303    7.8055 N   0  0  0  0  0  0  0  0  0  0  0  0
    9.2213   26.1511    9.0598 C   0  0  0  0  0  0  0  0  0  0  0  0
    8.7659   25.0654    9.4146 O   0  0  0  0  0  0  0  0  0  0  0  0
    9.5229   27.5096    7.5945 H   0  0  0  0  0  0  0  0  0  0  0  0
    9.8739   27.0192    9.8691 O   0  0  0  0  0  0  0  0  0  0  0  0
    9.0390   27.8843   10.6685 C   0  0  0  0  0  0  0  0  0  0  0  0
   11.8887   23.2880    5.5287 C   0  0  0  0  0  0  0  0  0  0  0  0
   13.2170   23.4049    4.7181 C   0  0  0  0  0  0  0  0  0  0  0  0
   14.4907   22.8601    5.4477 C   0  0  0  0  0  0  0  0  0  0  0  0
   15.6484   23.5660    4.9355 O   0  0  0  0  0  0  0  0  0  0  0  0
   15.5254   24.5204    5.0577 H   0  0  0  0  0  0  0  0  0  0  0  0
   14.6759   21.3417    5.2584 C   0  0  0  0  0  0  0  0  0  0  0  0
   15.9259   20.8905    4.9599 N   0  0  0  0  0  0  0  0  0  0  0  0
   13.7315   20.5808    5.3983 O   0  0  0  0  0  0  0  0  0  0  0  0
   16.6569   21.5408    4.8511 H   0  0  0  0  0  0  0  0  0  0  0  0
   16.2122   19.4565    4.7959 C   0  0  0  0  0  0  0  0  0  0  0  0
   17.6472   18.9749    5.2158 C   0  0  0  0  0  0  0  0  0  0  0  0
   18.6707   19.9958    5.0754 O   0  0  0  0  0  0  0  0  0  0  0  0
   18.0241   17.7813    4.2996 C   0  0  0  0  0  0  0  0  0  0  0  0
   17.1266   18.0018    3.0869 C   0  0  0  0  0  0  0  0  0  0  0  0
   17.2282   17.3854    1.8123 C   0  0  0  0  0  0  0  0  0  0  0  0
   16.2765   17.7382    0.8129 C   0  0  0  0  0  0  0  0  0  0  0  0
   15.2481   18.6910    1.0896 C   0  0  0  0  0  0  0  0  0  0  0  0
   15.1540   19.2992    2.3647 C   0  0  0  0  0  0  0  0  0  0  0  0
   16.1098   18.9451    3.3649 C   0  0  0  0  0  0  0  0  0  0  0  0
   18.7368   20.2616    4.1448 H   0  0  0  0  0  0  0  0  0  0  0  0
   14.3937   23.1359    7.0061 C   0  0  0  0  0  0  0  0  0  0  0  0
   15.2707   22.2281    7.9222 C   0  0  0  0  0  0  0  0  0  0  0  0
   14.6627   21.2347    8.7499 C   0  0  0  0  0  0  0  0  0  0  0  0
   15.4561   20.4083    9.5922 C   0  0  0  0  0  0  0  0  0  0  0  0
   16.8706   20.5618    9.6207 C   0  0  0  0  0  0  0  0  0  0  0  0
   17.4909   21.5487    8.7992 C   0  0  0  0  0  0  0  0  0  0  0  0
   16.6975   22.3752    7.9544 C   0  0  0  0  0  0  0  0  0  0  0  0
   10.8174   24.0537    3.3138 C   0  0  0  0  0  0  0  0  0  0  0  0
    9.4073   24.2239    2.7402 C   0  0  0  0  0  0  0  0  0  0  0  0
    9.0692   25.4184    2.0543 C   0  0  0  0  0  0  0  0  0  0  0  0
    7.7734   25.5897    1.5046 C   0  0  0  0  0  0  0  0  0  0  0  0
    6.7816   24.5652    1.6304 C   0  0  0  0  0  0  0  0  0  0  0  0
    7.1250   23.3654    2.3272 C   0  0  0  0  0  0  0  0  0  0  0  0
    8.4308   23.1934    2.8752 C   0  0  0  0  0  0  0  0  0  0  0  0
    4.0241   25.4780   -0.8388 C   0  0  0  0  0  0  0  0  0  0  0  0
    5.2588   25.2980   -0.2576 N   0  0  0  0  0  0  0  0  0  0  0  0
    5.4026   24.7412    1.0516 C   0  0  0  0  0  0  0  0  0  0  0  0
    4.2140   24.3712    1.7492 C   0  0  0  0  0  0  0  0  0  0  0  0
    2.9548   24.5665    1.1260 C   0  0  0  0  0  0  0  0  0  0  0  0
    2.8784   25.1271   -0.1796 C   0  0  0  0  0  0  0  0  0  0  0  0
  7  8  1  0  0  0
 51 52  2  0  0  0
 51 56  1  0  0  0
 52 53  1  0  0  0
 53 54  2  0  0  0
 53 48  1  0  0  0
 54 55  1  0  0  0
 55 56  2  0  0  0
 19 18  1  0  0  0
 19 20  1  0  0  0
 19 37  1  0  0  0
 19 22  1  0  0  0
 18 17  1  0  0  0
 17  1  1  0  0  0
 37 38  1  0  0  0
 38 39  1  0  0  0
 38 43  2  0  0  0
 39 40  2  0  0  0
 40 41  1  0  0  0
 41 42  2  0  0  0
 42 43  1  0  0  0
 22 23  1  0  0  0
 22 24  2  0  0  0
 23 26  1  0  0  0
 26 27  1  0  0  0
 26 35  1  0  0  0
 27 28  1  0  0  0
 27 29  1  0  0  0
 29 30  1  0  0  0
 30 31  2  0  0  0
 30 35  1  0  0  0
 31 32  1  0  0  0
 32 33  2  0  0  0
 33 34  1  0  0  0
 34 35  2  0  0  0
  1 44  1  0  0  0
  1  2  1  0  0  0
 44 45  1  0  0  0
 45 46  1  0  0  0
 45 50  2  0  0  0
 46 47  2  0  0  0
 47 48  1  0  0  0
 48 49  2  0  0  0
 49 50  1  0  0  0
  2  3  1  0  0  0
  3  6  1  0  0  0
  3  4  2  0  0  0
  6 11  1  0  0  0
  6  8  1  0  0  0
 11 12  1  0  0  0
 12 15  1  0  0  0
 12 13  2  0  0  0
 15 16  1  0  0  0
  8  9  1  0  0  0
  8 10  1  0  0  0
 20 21  1  0  0  0
 23 25  1  0  0  0
 28 36  1  0  0  0
  2  5  1  0  0  0
 11 14  1  0  0  0
M  END
> <minimizedAffinity>
-9.68522

$$$$
