1ONZ_968_A_322


 29 31  0  0  0  0  0  0  0  0999 V2000
   35.4126   26.1723   22.6459 C   0  0  0  0  0  0  0  0  0  0  0  0
   34.2576   25.7333   22.9852 O   0  0  0  0  0  0  0  0  0  0  0  0
   35.4804   26.0447   21.1868 N   0  0  0  0  0  0  0  0  0  0  0  0
   35.8788   27.1948   20.3990 C   0  0  0  0  0  0  0  0  0  0  0  0
   37.2432   27.3087   19.9037 C   0  0  0  0  0  0  0  0  0  0  0  0
   37.6991   28.4396   19.1092 C   0  0  0  0  0  0  0  0  0  0  0  0
   36.7929   29.5140   18.7807 C   0  0  0  0  0  0  0  0  0  0  0  0
   35.4108   29.4407   19.2618 C   0  0  0  0  0  0  0  0  0  0  0  0
   34.4906   30.5155   18.9483 C   0  0  0  0  0  0  0  0  0  0  0  0
   33.0973   30.4695   19.4180 C   0  0  0  0  0  0  0  0  0  0  0  0
   32.6394   29.3493   20.1930 C   0  0  0  0  0  0  0  0  0  0  0  0
   31.3148   29.2848   20.6477 O   0  0  0  0  0  0  0  0  0  0  0  0
   33.5532   28.2829   20.5084 C   0  0  0  0  0  0  0  0  0  0  0  0
   34.9478   28.2912   20.0624 C   0  0  0  0  0  0  0  0  0  0  0  0
   30.7157   29.9763   20.4452 H   0  0  0  0  0  0  0  0  0  0  0  0
   35.1636   24.7537   20.5183 C   0  0  0  0  0  0  0  0  0  0  0  0
   34.0296   24.7557   19.5547 C   0  0  0  0  0  0  0  0  0  0  0  0
   33.5924   23.5907   18.8200 C   0  0  0  0  0  0  0  0  0  0  0  0
   34.2643   22.3315   18.9976 C   0  0  0  0  0  0  0  0  0  0  0  0
   35.3635   22.2440   19.9026 C   0  0  0  0  0  0  0  0  0  0  0  0
   35.8549   23.4257   20.6889 C   0  0  0  0  0  0  0  0  0  0  0  0
   37.0272   23.1261   21.5867 C   0  0  0  0  0  0  0  0  0  0  0  0
   36.7848   23.1670   22.9448 O   0  0  0  0  0  0  0  0  0  0  0  0
   38.1235   22.8810   21.1618 O   0  0  0  0  0  0  0  0  0  0  0  0
   38.2729   22.8566   20.2372 H   0  0  0  0  0  0  0  0  0  0  0  0
   34.9068   28.2966   23.8071 O   0  0  0  0  0  0  0  0  0  0  0  0
   35.7430   27.5187   23.3506 C   0  0  0  0  0  0  0  0  0  0  0  0
   37.0873   27.7758   23.4487 O   0  0  0  0  0  0  0  0  0  0  0  0
   33.9936   28.1015   23.7292 H   0  0  0  0  0  0  0  0  0  0  0  0
 26 27  1  0  0  0
 27 28  2  0  0  0
 27  1  1  0  0  0
  1  2  2  0  0  0
  1  3  1  0  0  0
  3 16  1  0  0  0
  3  4  1  0  0  0
 16 17  2  0  0  0
 16 21  1  0  0  0
 17 18  1  0  0  0
 18 19  2  0  0  0
 19 20  1  0  0  0
 20 21  2  0  0  0
 21 22  1  0  0  0
 22 23  2  0  0  0
 22 24  1  0  0  0
  4  5  2  0  0  0
  4 14  1  0  0  0
  5  6  1  0  0  0
  6  7  2  0  0  0
  7  8  1  0  0  0
  8  9  2  0  0  0
  8 14  1  0  0  0
  9 10  1  0  0  0
 10 11  2  0  0  0
 11 12  1  0  0  0
 11 13  1  0  0  0
 13 14  2  0  0  0
 26 29  1  0  0  0
 24 25  1  0  0  0
 12 15  1  0  0  0
M  END
> <minimizedAffinity>
-9.02235

$$$$
1ONZ_968_A_322


 29 31  0  0  0  0  0  0  0  0999 V2000
   37.2622   26.1863   19.2966 C   0  0  0  0  0  0  0  0  0  0  0  0
   38.1915   25.3100   19.3970 O   0  0  0  0  0  0  0  0  0  0  0  0
   36.1296   25.6640   20.0675 N   0  0  0  0  0  0  0  0  0  0  0  0
   35.5007   26.5166   21.0572 C   0  0  0  0  0  0  0  0  0  0  0  0
   36.0121   26.5610   22.4198 C   0  0  0  0  0  0  0  0  0  0  0  0
   35.4213   27.3970   23.4542 C   0  0  0  0  0  0  0  0  0  0  0  0
   34.2787   28.2277   23.1577 C   0  0  0  0  0  0  0  0  0  0  0  0
   33.7302   28.2110   21.7991 C   0  0  0  0  0  0  0  0  0  0  0  0
   32.5777   29.0325   21.4872 C   0  0  0  0  0  0  0  0  0  0  0  0
   32.0051   29.0361   20.1322 C   0  0  0  0  0  0  0  0  0  0  0  0
   32.5921   28.2210   19.1046 C   0  0  0  0  0  0  0  0  0  0  0  0
   32.0634   28.2122   17.8061 O   0  0  0  0  0  0  0  0  0  0  0  0
   33.7344   27.4017   19.4137 C   0  0  0  0  0  0  0  0  0  0  0  0
   34.3331   27.3675   20.7495 C   0  0  0  0  0  0  0  0  0  0  0  0
   31.3199   28.7437   17.5994 H   0  0  0  0  0  0  0  0  0  0  0  0
   35.6165   24.2873   19.8319 C   0  0  0  0  0  0  0  0  0  0  0  0
   34.6267   24.1170   18.7337 C   0  0  0  0  0  0  0  0  0  0  0  0
   34.0320   22.8507   18.3721 C   0  0  0  0  0  0  0  0  0  0  0  0
   34.3885   21.6554   19.0880 C   0  0  0  0  0  0  0  0  0  0  0  0
   35.3324   21.7314   20.1549 C   0  0  0  0  0  0  0  0  0  0  0  0
   35.9775   23.0232   20.5684 C   0  0  0  0  0  0  0  0  0  0  0  0
   36.9469   22.8906   21.7142 C   0  0  0  0  0  0  0  0  0  0  0  0
   36.4290   22.4187   22.9033 O   0  0  0  0  0  0  0  0  0  0  0  0
   38.1059   23.1915   21.6214 O   0  0  0  0  0  0  0  0  0  0  0  0
   38.4433   23.5105   20.8075 H   0  0  0  0  0  0  0  0  0  0  0  0
   37.3868   28.6352   18.9735 O   0  0  0  0  0  0  0  0  0  0  0  0
   37.8027   27.6244   19.5378 C   0  0  0  0  0  0  0  0  0  0  0  0
   38.8008   27.6895   20.4771 O   0  0  0  0  0  0  0  0  0  0  0  0
   36.7043   28.5681   18.3350 H   0  0  0  0  0  0  0  0  0  0  0  0
 26 27  1  0  0  0
 27 28  2  0  0  0
 27  1  1  0  0  0
  1  2  2  0  0  0
  1  3  1  0  0  0
  3 16  1  0  0  0
  3  4  1  0  0  0
 16 17  2  0  0  0
 16 21  1  0  0  0
 17 18  1  0  0  0
 18 19  2  0  0  0
 19 20  1  0  0  0
 20 21  2  0  0  0
 21 22  1  0  0  0
 22 23  2  0  0  0
 22 24  1  0  0  0
  4  5  2  0  0  0
  4 14  1  0  0  0
  5  6  1  0  0  0
  6  7  2  0  0  0
  7  8  1  0  0  0
  8  9  2  0  0  0
  8 14  1  0  0  0
  9 10  1  0  0  0
 10 11  2  0  0  0
 11 12  1  0  0  0
 11 13  1  0  0  0
 13 14  2  0  0  0
 26 29  1  0  0  0
 24 25  1  0  0  0
 12 15  1  0  0  0
M  END
> <minimizedAffinity>
-8.96207

$$$$
1ONZ_968_A_322


 29 31  0  0  0  0  0  0  0  0999 V2000
   34.8867   28.4201   22.5451 C   0  0  0  0  0  0  0  0  0  0  0  0
   35.5874   29.4797   22.3779 O   0  0  0  0  0  0  0  0  0  0  0  0
   34.2505   28.1485   21.2523 N   0  0  0  0  0  0  0  0  0  0  0  0
   34.3623   26.8214   20.6794 C   0  0  0  0  0  0  0  0  0  0  0  0
   33.2148   25.9251   20.6733 C   0  0  0  0  0  0  0  0  0  0  0  0
   33.2687   24.5831   20.1128 C   0  0  0  0  0  0  0  0  0  0  0  0
   34.4922   24.0822   19.5334 C   0  0  0  0  0  0  0  0  0  0  0  0
   35.6722   24.9507   19.5216 C   0  0  0  0  0  0  0  0  0  0  0  0
   36.9110   24.4597   18.9516 C   0  0  0  0  0  0  0  0  0  0  0  0
   38.1119   25.3088   18.9259 C   0  0  0  0  0  0  0  0  0  0  0  0
   38.0604   26.6388   19.4677 C   0  0  0  0  0  0  0  0  0  0  0  0
   39.1930   27.4651   19.4504 O   0  0  0  0  0  0  0  0  0  0  0  0
   36.8320   27.1265   20.0376 C   0  0  0  0  0  0  0  0  0  0  0  0
   35.6153   26.3131   20.0848 C   0  0  0  0  0  0  0  0  0  0  0  0
   39.9952   27.1527   19.0807 H   0  0  0  0  0  0  0  0  0  0  0  0
   33.4857   29.2082   20.5408 C   0  0  0  0  0  0  0  0  0  0  0  0
   32.0761   29.4219   20.9674 C   0  0  0  0  0  0  0  0  0  0  0  0
   31.1967   30.4088   20.3837 C   0  0  0  0  0  0  0  0  0  0  0  0
   31.6687   31.2594   19.3244 C   0  0  0  0  0  0  0  0  0  0  0  0
   33.0094   31.1204   18.8573 C   0  0  0  0  0  0  0  0  0  0  0  0
   33.9612   30.1101   19.4312 C   0  0  0  0  0  0  0  0  0  0  0  0
   35.3303   30.1242   18.8024 C   0  0  0  0  0  0  0  0  0  0  0  0
   35.4016   29.7319   17.4811 O   0  0  0  0  0  0  0  0  0  0  0  0
   36.3187   30.4390   19.4076 O   0  0  0  0  0  0  0  0  0  0  0  0
   36.2548   30.7032   20.3043 H   0  0  0  0  0  0  0  0  0  0  0  0
   35.1995   26.2856   23.7547 O   0  0  0  0  0  0  0  0  0  0  0  0
   35.6869   27.3167   23.2938 C   0  0  0  0  0  0  0  0  0  0  0  0
   37.0310   27.5763   23.3881 O   0  0  0  0  0  0  0  0  0  0  0  0
   34.2789   26.1282   23.6794 H   0  0  0  0  0  0  0  0  0  0  0  0
 26 27  1  0  0  0
 27 28  2  0  0  0
 27  1  1  0  0  0
  1  2  2  0  0  0
  1  3  1  0  0  0
  3 16  1  0  0  0
  3  4  1  0  0  0
 16 17  2  0  0  0
 16 21  1  0  0  0
 17 18  1  0  0  0
 18 19  2  0  0  0
 19 20  1  0  0  0
 20 21  2  0  0  0
 21 22  1  0  0  0
 22 23  2  0  0  0
 22 24  1  0  0  0
  4  5  2  0  0  0
  4 14  1  0  0  0
  5  6  1  0  0  0
  6  7  2  0  0  0
  7  8  1  0  0  0
  8  9  2  0  0  0
  8 14  1  0  0  0
  9 10  1  0  0  0
 10 11  2  0  0  0
 11 12  1  0  0  0
 11 13  1  0  0  0
 13 14  2  0  0  0
 26 29  1  0  0  0
 24 25  1  0  0  0
 12 15  1  0  0  0
M  END
> <minimizedAffinity>
-8.74862

$$$$
1ONZ_968_A_322


 29 31  0  0  0  0  0  0  0  0999 V2000
   37.3158   27.3311   19.6253 C   0  0  0  0  0  0  0  0  0  0  0  0
   37.2723   28.5966   19.4296 O   0  0  0  0  0  0  0  0  0  0  0  0
   35.9237   26.8713   19.6058 N   0  0  0  0  0  0  0  0  0  0  0  0
   35.5649   25.7536   18.7549 C   0  0  0  0  0  0  0  0  0  0  0  0
   35.1113   25.9851   17.3908 C   0  0  0  0  0  0  0  0  0  0  0  0
   34.7381   24.9028   16.4923 C   0  0  0  0  0  0  0  0  0  0  0  0
   34.8032   23.5305   16.9352 C   0  0  0  0  0  0  0  0  0  0  0  0
   35.2518   23.2530   18.3022 C   0  0  0  0  0  0  0  0  0  0  0  0
   35.3143   21.8812   18.7655 C   0  0  0  0  0  0  0  0  0  0  0  0
   35.7605   21.5720   20.1327 C   0  0  0  0  0  0  0  0  0  0  0  0
   36.1411   22.6365   21.0197 C   0  0  0  0  0  0  0  0  0  0  0  0
   36.5719   22.3630   22.3256 O   0  0  0  0  0  0  0  0  0  0  0  0
   36.0759   23.9997   20.5624 C   0  0  0  0  0  0  0  0  0  0  0  0
   35.6355   24.3503   19.2107 C   0  0  0  0  0  0  0  0  0  0  0  0
   36.6163   21.4774   22.6285 H   0  0  0  0  0  0  0  0  0  0  0  0
   34.8923   27.5251   20.4560 C   0  0  0  0  0  0  0  0  0  0  0  0
   33.8609   28.3386   19.7567 C   0  0  0  0  0  0  0  0  0  0  0  0
   32.7899   29.0366   20.4302 C   0  0  0  0  0  0  0  0  0  0  0  0
   32.6728   28.9691   21.8621 C   0  0  0  0  0  0  0  0  0  0  0  0
   33.6208   28.2084   22.6087 C   0  0  0  0  0  0  0  0  0  0  0  0
   34.7512   27.4660   21.9551 C   0  0  0  0  0  0  0  0  0  0  0  0
   35.6401   26.7220   22.9177 C   0  0  0  0  0  0  0  0  0  0  0  0
   36.9231   27.2081   23.0674 O   0  0  0  0  0  0  0  0  0  0  0  0
   35.2750   25.7471   23.5165 O   0  0  0  0  0  0  0  0  0  0  0  0
   34.4008   25.4286   23.4047 H   0  0  0  0  0  0  0  0  0  0  0  0
   39.0046   25.6231   19.0358 O   0  0  0  0  0  0  0  0  0  0  0  0
   38.3984   26.6515   18.7395 C   0  0  0  0  0  0  0  0  0  0  0  0
   38.6218   27.2952   17.5484 O   0  0  0  0  0  0  0  0  0  0  0  0
   38.8366   25.1995   19.8545 H   0  0  0  0  0  0  0  0  0  0  0  0
 26 27  1  0  0  0
 27 28  2  0  0  0
 27  1  1  0  0  0
  1  2  2  0  0  0
  1  3  1  0  0  0
  3 16  1  0  0  0
  3  4  1  0  0  0
 16 17  2  0  0  0
 16 21  1  0  0  0
 17 18  1  0  0  0
 18 19  2  0  0  0
 19 20  1  0  0  0
 20 21  2  0  0  0
 21 22  1  0  0  0
 22 23  2  0  0  0
 22 24  1  0  0  0
  4  5  2  0  0  0
  4 14  1  0  0  0
  5  6  1  0  0  0
  6  7  2  0  0  0
  7  8  1  0  0  0
  8  9  2  0  0  0
  8 14  1  0  0  0
  9 10  1  0  0  0
 10 11  2  0  0  0
 11 12  1  0  0  0
 11 13  1  0  0  0
 13 14  2  0  0  0
 26 29  1  0  0  0
 24 25  1  0  0  0
 12 15  1  0  0  0
M  END
> <minimizedAffinity>
-8.43091

$$$$
1ONZ_968_A_322


 29 31  0  0  0  0  0  0  0  0999 V2000
   35.0020   27.2776   22.4313 C   0  0  0  0  0  0  0  0  0  0  0  0
   34.4169   26.4248   23.1876 O   0  0  0  0  0  0  0  0  0  0  0  0
   34.4056   27.1144   21.1018 N   0  0  0  0  0  0  0  0  0  0  0  0
   33.9071   28.2852   20.4071 C   0  0  0  0  0  0  0  0  0  0  0  0
   32.6574   28.9077   20.8203 C   0  0  0  0  0  0  0  0  0  0  0  0
   32.1090   30.0832   20.1604 C   0  0  0  0  0  0  0  0  0  0  0  0
   32.8005   30.6838   19.0448 C   0  0  0  0  0  0  0  0  0  0  0  0
   34.0607   30.0871   18.5944 C   0  0  0  0  0  0  0  0  0  0  0  0
   34.7630   30.6726   17.4700 C   0  0  0  0  0  0  0  0  0  0  0  0
   36.0300   30.0952   16.9954 C   0  0  0  0  0  0  0  0  0  0  0  0
   36.5813   28.9415   17.6511 C   0  0  0  0  0  0  0  0  0  0  0  0
   37.7891   28.3776   17.2161 O   0  0  0  0  0  0  0  0  0  0  0  0
   35.8831   28.3565   18.7655 C   0  0  0  0  0  0  0  0  0  0  0  0
   34.6190   28.8989   19.2675 C   0  0  0  0  0  0  0  0  0  0  0  0
   38.2477   28.7544   16.4911 H   0  0  0  0  0  0  0  0  0  0  0  0
   34.3250   25.7739   20.4612 C   0  0  0  0  0  0  0  0  0  0  0  0
   33.0110   25.3831   19.8819 C   0  0  0  0  0  0  0  0  0  0  0  0
   32.7622   24.1210   19.2237 C   0  0  0  0  0  0  0  0  0  0  0  0
   33.8183   23.1530   19.0963 C   0  0  0  0  0  0  0  0  0  0  0  0
   35.1100   23.4501   19.6237 C   0  0  0  0  0  0  0  0  0  0  0  0
   35.4181   24.7469   20.3161 C   0  0  0  0  0  0  0  0  0  0  0  0
   36.8404   24.8670   20.7986 C   0  0  0  0  0  0  0  0  0  0  0  0
   37.2541   23.9311   21.7247 O   0  0  0  0  0  0  0  0  0  0  0  0
   37.5818   25.7338   20.4226 O   0  0  0  0  0  0  0  0  0  0  0  0
   37.2868   26.3623   19.7933 H   0  0  0  0  0  0  0  0  0  0  0  0
   35.9833   29.4975   22.9066 O   0  0  0  0  0  0  0  0  0  0  0  0
   35.0897   28.6760   23.1060 C   0  0  0  0  0  0  0  0  0  0  0  0
   34.0471   28.9460   23.9561 O   0  0  0  0  0  0  0  0  0  0  0  0
   36.6862   29.2926   22.3220 H   0  0  0  0  0  0  0  0  0  0  0  0
 26 27  1  0  0  0
 27 28  2  0  0  0
 27  1  1  0  0  0
  1  2  2  0  0  0
  1  3  1  0  0  0
  3 16  1  0  0  0
  3  4  1  0  0  0
 16 17  2  0  0  0
 16 21  1  0  0  0
 17 18  1  0  0  0
 18 19  2  0  0  0
 19 20  1  0  0  0
 20 21  2  0  0  0
 21 22  1  0  0  0
 22 23  2  0  0  0
 22 24  1  0  0  0
  4  5  2  0  0  0
  4 14  1  0  0  0
  5  6  1  0  0  0
  6  7  2  0  0  0
  7  8  1  0  0  0
  8  9  2  0  0  0
  8 14  1  0  0  0
  9 10  1  0  0  0
 10 11  2  0  0  0
 11 12  1  0  0  0
 11 13  1  0  0  0
 13 14  2  0  0  0
 26 29  1  0  0  0
 24 25  1  0  0  0
 12 15  1  0  0  0
M  END
> <minimizedAffinity>
-8.16426

$$$$
1ONZ_968_A_322


 29 31  0  0  0  0  0  0  0  0999 V2000
   37.3401   25.6231   18.7488 C   0  0  0  0  0  0  0  0  0  0  0  0
   38.0696   25.1092   19.6683 O   0  0  0  0  0  0  0  0  0  0  0  0
   35.9577   25.2676   19.0842 N   0  0  0  0  0  0  0  0  0  0  0  0
   34.9538   26.3128   19.1247 C   0  0  0  0  0  0  0  0  0  0  0  0
   34.2646   26.7167   17.9074 C   0  0  0  0  0  0  0  0  0  0  0  0
   33.2492   27.7592   17.8880 C   0  0  0  0  0  0  0  0  0  0  0  0
   32.8851   28.4467   19.1039 C   0  0  0  0  0  0  0  0  0  0  0  0
   33.5565   28.0732   20.3515 C   0  0  0  0  0  0  0  0  0  0  0  0
   33.2089   28.7599   21.5795 C   0  0  0  0  0  0  0  0  0  0  0  0
   33.8663   28.4066   22.8471 C   0  0  0  0  0  0  0  0  0  0  0  0
   34.8612   27.3700   22.8733 C   0  0  0  0  0  0  0  0  0  0  0  0
   35.4975   27.0162   24.0714 O   0  0  0  0  0  0  0  0  0  0  0  0
   35.2103   26.6896   21.6539 C   0  0  0  0  0  0  0  0  0  0  0  0
   34.5817   27.0124   20.3714 C   0  0  0  0  0  0  0  0  0  0  0  0
   35.2741   27.4558   24.8681 H   0  0  0  0  0  0  0  0  0  0  0  0
   35.5792   23.8559   19.3633 C   0  0  0  0  0  0  0  0  0  0  0  0
   34.6994   23.1858   18.3675 C   0  0  0  0  0  0  0  0  0  0  0  0
   34.2411   21.8205   18.4846 C   0  0  0  0  0  0  0  0  0  0  0  0
   34.6342   21.0217   19.6142 C   0  0  0  0  0  0  0  0  0  0  0  0
   35.4787   21.5883   20.6146 C   0  0  0  0  0  0  0  0  0  0  0  0
   35.9807   23.0019   20.5381 C   0  0  0  0  0  0  0  0  0  0  0  0
   36.8610   23.4081   21.6914 C   0  0  0  0  0  0  0  0  0  0  0  0
   36.2354   24.0412   22.7462 O   0  0  0  0  0  0  0  0  0  0  0  0
   38.0466   23.2160   21.7014 O   0  0  0  0  0  0  0  0  0  0  0  0
   38.4575   22.7849   20.9781 H   0  0  0  0  0  0  0  0  0  0  0  0
   37.8749   27.9718   19.3096 O   0  0  0  0  0  0  0  0  0  0  0  0
   37.7418   27.0965   18.4556 C   0  0  0  0  0  0  0  0  0  0  0  0
   37.9661   27.3543   17.1267 O   0  0  0  0  0  0  0  0  0  0  0  0
   37.7166   27.7741   20.2117 H   0  0  0  0  0  0  0  0  0  0  0  0
 26 27  1  0  0  0
 27 28  2  0  0  0
 27  1  1  0  0  0
  1  2  2  0  0  0
  1  3  1  0  0  0
  3 16  1  0  0  0
  3  4  1  0  0  0
 16 17  2  0  0  0
 16 21  1  0  0  0
 17 18  1  0  0  0
 18 19  2  0  0  0
 19 20  1  0  0  0
 20 21  2  0  0  0
 21 22  1  0  0  0
 22 23  2  0  0  0
 22 24  1  0  0  0
  4  5  2  0  0  0
  4 14  1  0  0  0
  5  6  1  0  0  0
  6  7  2  0  0  0
  7  8  1  0  0  0
  8  9  2  0  0  0
  8 14  1  0  0  0
  9 10  1  0  0  0
 10 11  2  0  0  0
 11 12  1  0  0  0
 11 13  1  0  0  0
 13 14  2  0  0  0
 26 29  1  0  0  0
 24 25  1  0  0  0
 12 15  1  0  0  0
M  END
> <minimizedAffinity>
-7.94549

$$$$
1ONZ_968_A_322


 29 31  0  0  0  0  0  0  0  0999 V2000
   34.9089   26.2235   22.3387 C   0  0  0  0  0  0  0  0  0  0  0  0
   33.8541   25.6620   22.8011 O   0  0  0  0  0  0  0  0  0  0  0  0
   34.9665   25.8664   20.9178 N   0  0  0  0  0  0  0  0  0  0  0  0
   35.1444   26.9181   19.9359 C   0  0  0  0  0  0  0  0  0  0  0  0
   34.0566   27.8404   19.6423 C   0  0  0  0  0  0  0  0  0  0  0  0
   34.1778   28.9139   18.6672 C   0  0  0  0  0  0  0  0  0  0  0  0
   35.4092   29.1027   17.9381 C   0  0  0  0  0  0  0  0  0  0  0  0
   36.5287   28.1946   18.2007 C   0  0  0  0  0  0  0  0  0  0  0  0
   37.7690   28.3650   17.4707 C   0  0  0  0  0  0  0  0  0  0  0  0
   38.9098   27.4685   17.7130 C   0  0  0  0  0  0  0  0  0  0  0  0
   38.7988   26.4142   18.6832 C   0  0  0  0  0  0  0  0  0  0  0  0
   39.8753   25.5508   18.9312 O   0  0  0  0  0  0  0  0  0  0  0  0
   37.5664   26.2414   19.4063 C   0  0  0  0  0  0  0  0  0  0  0  0
   36.4070   27.1101   19.1936 C   0  0  0  0  0  0  0  0  0  0  0  0
   40.6799   25.6589   18.4633 H   0  0  0  0  0  0  0  0  0  0  0  0
   34.8621   24.4472   20.4829 C   0  0  0  0  0  0  0  0  0  0  0  0
   33.7941   24.1219   19.4989 C   0  0  0  0  0  0  0  0  0  0  0  0
   33.5576   22.7972   18.9725 C   0  0  0  0  0  0  0  0  0  0  0  0
   34.3796   21.6953   19.3953 C   0  0  0  0  0  0  0  0  0  0  0  0
   35.4278   21.9221   20.3360 C   0  0  0  0  0  0  0  0  0  0  0  0
   35.7128   23.2797   20.9119 C   0  0  0  0  0  0  0  0  0  0  0  0
   36.8619   23.3088   21.8860 C   0  0  0  0  0  0  0  0  0  0  0  0
   38.1290   23.3057   21.3389 O   0  0  0  0  0  0  0  0  0  0  0  0
   36.7029   23.3162   23.0764 O   0  0  0  0  0  0  0  0  0  0  0  0
   35.8366   23.3182   23.4334 H   0  0  0  0  0  0  0  0  0  0  0  0
   36.0592   28.3594   22.8199 O   0  0  0  0  0  0  0  0  0  0  0  0
   35.0180   27.7047   22.7995 C   0  0  0  0  0  0  0  0  0  0  0  0
   33.8193   28.2562   23.1761 O   0  0  0  0  0  0  0  0  0  0  0  0
   36.8670   27.9631   22.5585 H   0  0  0  0  0  0  0  0  0  0  0  0
 26 27  1  0  0  0
 27 28  2  0  0  0
 27  1  1  0  0  0
  1  2  2  0  0  0
  1  3  1  0  0  0
  3 16  1  0  0  0
  3  4  1  0  0  0
 16 17  2  0  0  0
 16 21  1  0  0  0
 17 18  1  0  0  0
 18 19  2  0  0  0
 19 20  1  0  0  0
 20 21  2  0  0  0
 21 22  1  0  0  0
 22 23  2  0  0  0
 22 24  1  0  0  0
  4  5  2  0  0  0
  4 14  1  0  0  0
  5  6  1  0  0  0
  6  7  2  0  0  0
  7  8  1  0  0  0
  8  9  2  0  0  0
  8 14  1  0  0  0
  9 10  1  0  0  0
 10 11  2  0  0  0
 11 12  1  0  0  0
 11 13  1  0  0  0
 13 14  2  0  0  0
 26 29  1  0  0  0
 24 25  1  0  0  0
 12 15  1  0  0  0
M  END
> <minimizedAffinity>
-7.94206

$$$$
1ONZ_968_A_322


 29 31  0  0  0  0  0  0  0  0999 V2000
   37.9630   27.2681   19.8159 C   0  0  0  0  0  0  0  0  0  0  0  0
   37.9764   28.5463   19.7281 O   0  0  0  0  0  0  0  0  0  0  0  0
   36.5538   26.8876   19.9554 N   0  0  0  0  0  0  0  0  0  0  0  0
   36.0111   25.8691   19.0780 C   0  0  0  0  0  0  0  0  0  0  0  0
   35.5415   26.2216   17.7456 C   0  0  0  0  0  0  0  0  0  0  0  0
   34.9874   25.2422   16.8228 C   0  0  0  0  0  0  0  0  0  0  0  0
   34.8790   23.8553   17.2080 C   0  0  0  0  0  0  0  0  0  0  0  0
   35.3374   23.4577   18.5417 C   0  0  0  0  0  0  0  0  0  0  0  0
   35.2273   22.0707   18.9474 C   0  0  0  0  0  0  0  0  0  0  0  0
   35.6790   21.6421   20.2801 C   0  0  0  0  0  0  0  0  0  0  0  0
   36.2374   22.6035   21.1905 C   0  0  0  0  0  0  0  0  0  0  0  0
   36.6764   22.2151   22.4641 O   0  0  0  0  0  0  0  0  0  0  0  0
   36.3439   23.9820   20.7905 C   0  0  0  0  0  0  0  0  0  0  0  0
   35.9042   24.4501   19.4746 C   0  0  0  0  0  0  0  0  0  0  0  0
   36.6094   21.3190   22.7297 H   0  0  0  0  0  0  0  0  0  0  0  0
   35.6917   27.5200   20.9902 C   0  0  0  0  0  0  0  0  0  0  0  0
   35.9675   27.1596   22.4075 C   0  0  0  0  0  0  0  0  0  0  0  0
   35.2274   27.6838   23.5325 C   0  0  0  0  0  0  0  0  0  0  0  0
   34.1513   28.6137   23.3182 C   0  0  0  0  0  0  0  0  0  0  0  0
   33.8230   29.0129   21.9887 C   0  0  0  0  0  0  0  0  0  0  0  0
   34.5619   28.4963   20.7874 C   0  0  0  0  0  0  0  0  0  0  0  0
   34.0633   29.0410   19.4740 C   0  0  0  0  0  0  0  0  0  0  0  0
   34.9735   29.7562   18.7224 O   0  0  0  0  0  0  0  0  0  0  0  0
   32.9344   28.8866   19.0945 O   0  0  0  0  0  0  0  0  0  0  0  0
   32.3275   28.3985   19.6156 H   0  0  0  0  0  0  0  0  0  0  0  0
   39.5089   25.5716   18.8944 O   0  0  0  0  0  0  0  0  0  0  0  0
   38.8693   26.6104   18.7368 C   0  0  0  0  0  0  0  0  0  0  0  0
   38.8878   27.2872   17.5433 O   0  0  0  0  0  0  0  0  0  0  0  0
   39.4822   25.1253   19.7178 H   0  0  0  0  0  0  0  0  0  0  0  0
 26 27  1  0  0  0
 27 28  2  0  0  0
 27  1  1  0  0  0
  1  2  2  0  0  0
  1  3  1  0  0  0
  3 16  1  0  0  0
  3  4  1  0  0  0
 16 17  2  0  0  0
 16 21  1  0  0  0
 17 18  1  0  0  0
 18 19  2  0  0  0
 19 20  1  0  0  0
 20 21  2  0  0  0
 21 22  1  0  0  0
 22 23  2  0  0  0
 22 24  1  0  0  0
  4  5  2  0  0  0
  4 14  1  0  0  0
  5  6  1  0  0  0
  6  7  2  0  0  0
  7  8  1  0  0  0
  8  9  2  0  0  0
  8 14  1  0  0  0
  9 10  1  0  0  0
 10 11  2  0  0  0
 11 12  1  0  0  0
 11 13  1  0  0  0
 13 14  2  0  0  0
 26 29  1  0  0  0
 24 25  1  0  0  0
 12 15  1  0  0  0
M  END
> <minimizedAffinity>
-7.87818

$$$$
1ONZ_968_A_322


 29 31  0  0  0  0  0  0  0  0999 V2000
   34.7867   28.2143   22.4945 C   0  0  0  0  0  0  0  0  0  0  0  0
   35.1960   29.4016   22.7486 O   0  0  0  0  0  0  0  0  0  0  0  0
   34.4982   28.1854   21.0573 N   0  0  0  0  0  0  0  0  0  0  0  0
   35.0661   27.1250   20.2480 C   0  0  0  0  0  0  0  0  0  0  0  0
   36.5037   27.0599   20.0264 C   0  0  0  0  0  0  0  0  0  0  0  0
   37.1289   26.0194   19.2236 C   0  0  0  0  0  0  0  0  0  0  0  0
   36.3249   24.9944   18.6020 C   0  0  0  0  0  0  0  0  0  0  0  0
   34.8730   25.0242   18.7969 C   0  0  0  0  0  0  0  0  0  0  0  0
   34.0505   24.0075   18.1723 C   0  0  0  0  0  0  0  0  0  0  0  0
   32.5903   24.0121   18.3500 C   0  0  0  0  0  0  0  0  0  0  0  0
   31.9695   25.0307   19.1513 C   0  0  0  0  0  0  0  0  0  0  0  0
   30.5798   25.0513   19.3355 O   0  0  0  0  0  0  0  0  0  0  0  0
   32.7846   26.0434   19.7691 C   0  0  0  0  0  0  0  0  0  0  0  0
   34.2404   26.0760   19.6156 C   0  0  0  0  0  0  0  0  0  0  0  0
   30.0444   24.3944   18.9356 H   0  0  0  0  0  0  0  0  0  0  0  0
   33.6231   29.2150   20.4340 C   0  0  0  0  0  0  0  0  0  0  0  0
   32.2586   29.3739   21.0063 C   0  0  0  0  0  0  0  0  0  0  0  0
   31.2859   30.3263   20.5217 C   0  0  0  0  0  0  0  0  0  0  0  0
   31.6117   31.1948   19.4226 C   0  0  0  0  0  0  0  0  0  0  0  0
   32.9006   31.1077   18.8175 C   0  0  0  0  0  0  0  0  0  0  0  0
   33.9452   30.1347   19.2846 C   0  0  0  0  0  0  0  0  0  0  0  0
   35.2396   30.2018   18.5165 C   0  0  0  0  0  0  0  0  0  0  0  0
   36.3820   30.4210   19.2592 O   0  0  0  0  0  0  0  0  0  0  0  0
   35.2912   30.0910   17.3217 O   0  0  0  0  0  0  0  0  0  0  0  0
   34.5071   29.9424   16.8307 H   0  0  0  0  0  0  0  0  0  0  0  0
   36.9033   27.2782   23.3667 O   0  0  0  0  0  0  0  0  0  0  0  0
   35.7000   27.1408   23.1519 C   0  0  0  0  0  0  0  0  0  0  0  0
   35.0367   25.9936   23.5079 O   0  0  0  0  0  0  0  0  0  0  0  0
   37.3367   28.0700   23.1154 H   0  0  0  0  0  0  0  0  0  0  0  0
 26 27  1  0  0  0
 27 28  2  0  0  0
 27  1  1  0  0  0
  1  2  2  0  0  0
  1  3  1  0  0  0
  3 16  1  0  0  0
  3  4  1  0  0  0
 16 17  2  0  0  0
 16 21  1  0  0  0
 17 18  1  0  0  0
 18 19  2  0  0  0
 19 20  1  0  0  0
 20 21  2  0  0  0
 21 22  1  0  0  0
 22 23  2  0  0  0
 22 24  1  0  0  0
  4  5  2  0  0  0
  4 14  1  0  0  0
  5  6  1  0  0  0
  6  7  2  0  0  0
  7  8  1  0  0  0
  8  9  2  0  0  0
  8 14  1  0  0  0
  9 10  1  0  0  0
 10 11  2  0  0  0
 11 12  1  0  0  0
 11 13  1  0  0  0
 13 14  2  0  0  0
 26 29  1  0  0  0
 24 25  1  0  0  0
 12 15  1  0  0  0
M  END
> <minimizedAffinity>
-7.62264

$$$$
1ONZ_968_A_322


 29 31  0  0  0  0  0  0  0  0999 V2000
   37.4512   25.9242   19.3221 C   0  0  0  0  0  0  0  0  0  0  0  0
   38.3597   25.0264   19.4241 O   0  0  0  0  0  0  0  0  0  0  0  0
   36.3041   25.4267   20.0879 N   0  0  0  0  0  0  0  0  0  0  0  0
   35.6915   26.2918   21.0770 C   0  0  0  0  0  0  0  0  0  0  0  0
   36.2430   26.3754   22.4219 C   0  0  0  0  0  0  0  0  0  0  0  0
   35.6701   27.2255   23.4549 C   0  0  0  0  0  0  0  0  0  0  0  0
   34.5056   28.0311   23.1750 C   0  0  0  0  0  0  0  0  0  0  0  0
   33.9167   27.9747   21.8346 C   0  0  0  0  0  0  0  0  0  0  0  0
   32.7419   28.7706   21.5398 C   0  0  0  0  0  0  0  0  0  0  0  0
   32.1287   28.7342   20.2032 C   0  0  0  0  0  0  0  0  0  0  0  0
   32.6976   27.9051   19.1766 C   0  0  0  0  0  0  0  0  0  0  0  0
   32.1301   27.8583   17.8954 O   0  0  0  0  0  0  0  0  0  0  0  0
   33.8620   27.1111   19.4689 C   0  0  0  0  0  0  0  0  0  0  0  0
   34.5013   27.1170   20.7862 C   0  0  0  0  0  0  0  0  0  0  0  0
   31.3721   28.3731   17.6996 H   0  0  0  0  0  0  0  0  0  0  0  0
   35.7602   24.0627   19.8477 C   0  0  0  0  0  0  0  0  0  0  0  0
   35.9636   23.0578   20.9263 C   0  0  0  0  0  0  0  0  0  0  0  0
   35.4980   21.6917   20.8552 C   0  0  0  0  0  0  0  0  0  0  0  0
   34.7894   21.2305   19.6918 C   0  0  0  0  0  0  0  0  0  0  0  0
   34.5508   22.1318   18.6121 C   0  0  0  0  0  0  0  0  0  0  0  0
   35.0147   23.5601   18.6384 C   0  0  0  0  0  0  0  0  0  0  0  0
   34.6619   24.3471   17.4030 C   0  0  0  0  0  0  0  0  0  0  0  0
   33.3164   24.4925   17.1327 O   0  0  0  0  0  0  0  0  0  0  0  0
   35.4929   24.8139   16.6721 O   0  0  0  0  0  0  0  0  0  0  0  0
   36.4028   24.7072   16.8686 H   0  0  0  0  0  0  0  0  0  0  0  0
   38.9584   27.6098   20.3242 O   0  0  0  0  0  0  0  0  0  0  0  0
   38.0240   27.3490   19.5681 C   0  0  0  0  0  0  0  0  0  0  0  0
   37.4015   28.3288   18.8365 O   0  0  0  0  0  0  0  0  0  0  0  0
   39.3694   26.9252   20.8146 H   0  0  0  0  0  0  0  0  0  0  0  0
 26 27  1  0  0  0
 27 28  2  0  0  0
 27  1  1  0  0  0
  1  2  2  0  0  0
  1  3  1  0  0  0
  3 16  1  0  0  0
  3  4  1  0  0  0
 16 17  2  0  0  0
 16 21  1  0  0  0
 17 18  1  0  0  0
 18 19  2  0  0  0
 19 20  1  0  0  0
 20 21  2  0  0  0
 21 22  1  0  0  0
 22 23  2  0  0  0
 22 24  1  0  0  0
  4  5  2  0  0  0
  4 14  1  0  0  0
  5  6  1  0  0  0
  6  7  2  0  0  0
  7  8  1  0  0  0
  8  9  2  0  0  0
  8 14  1  0  0  0
  9 10  1  0  0  0
 10 11  2  0  0  0
 11 12  1  0  0  0
 11 13  1  0  0  0
 13 14  2  0  0  0
 26 29  1  0  0  0
 24 25  1  0  0  0
 12 15  1  0  0  0
M  END
> <minimizedAffinity>
-7.60380

$$$$
