3C84_TH4_A_301


 16 17  0  0  0  0  0  0  0  0999 V2000
  -13.1897   20.2108   61.8087 C   0  0  0  0  0  0  0  0  0  0  0  0
  -12.3858   20.2551   59.4113 C   0  0  0  0  0  0  0  0  0  0  0  0
  -11.4087   19.9810   58.4302 C   0  0  0  0  0  0  0  0  0  0  0  0
  -10.2019   19.3280   58.7372 C   0  0  0  0  0  0  0  0  0  0  0  0
   -9.1226   19.0268   57.6127 Cl  0  0  0  0  0  0  0  0  0  0  0  0
  -10.0297   19.0051   60.0437 N   0  0  0  0  0  0  0  0  0  0  0  0
  -10.8810   19.2701   61.0146 C   0  0  0  0  0  0  0  0  0  0  0  0
  -12.1236   19.9093   60.7296 C   0  0  0  0  0  0  0  0  0  0  0  0
  -12.6777   20.0032   63.1775 N   0  0  0  0  0  0  0  0  0  0  0  0
  -12.7598   18.6716   63.8436 C   0  0  0  0  0  0  0  0  0  0  0  0
  -12.6418   18.9185   65.3539 C   0  0  0  0  0  0  0  0  0  0  0  0
  -11.5742   20.4016   65.4362 S   0  0  0  0  0  0  0  0  0  0  0  0
  -12.0836   20.9882   63.9000 C   0  0  0  0  0  0  0  0  0  0  0  0
  -11.9357   22.2204   63.4203 N   0  0  0  0  0  0  0  0  0  0  0  0
  -11.3787   23.2018   64.0881 C   0  0  0  0  0  0  0  0  0  0  0  0
  -10.9346   24.0997   64.6351 N   0  0  0  0  0  0  0  0  0  0  0  0
  3  2  2  0  0  0
  2  8  1  0  0  0
  3  4  1  0  0  0
  5  4  1  0  0  0
  4  6  2  0  0  0
  6  7  1  0  0  0
  8  7  2  0  0  0
  8  1  1  0  0  0
  1  9  1  0  0  0
  9 13  1  0  0  0
  9 10  1  0  0  0
 10 11  1  0  0  0
 12 11  1  0  0  0
 13 12  1  0  0  0
 14 13  2  0  0  0
 14 15  1  0  0  0
 15 16  3  0  0  0
M  END
> <minimizedAffinity>
-7.20760

$$$$
3C84_TH4_A_301


 16 17  0  0  0  0  0  0  0  0999 V2000
  -13.1957   20.2047   61.7345 C   0  0  0  0  0  0  0  0  0  0  0  0
  -12.3695   20.3375   59.3479 C   0  0  0  0  0  0  0  0  0  0  0  0
  -11.3938   20.0776   58.3616 C   0  0  0  0  0  0  0  0  0  0  0  0
  -10.2130   19.3687   58.6449 C   0  0  0  0  0  0  0  0  0  0  0  0
   -9.1348   19.0852   57.5148 Cl  0  0  0  0  0  0  0  0  0  0  0  0
  -10.0636   18.9769   59.9353 N   0  0  0  0  0  0  0  0  0  0  0  0
  -10.9138   19.2239   60.9119 C   0  0  0  0  0  0  0  0  0  0  0  0
  -12.1310   19.9190   60.6495 C   0  0  0  0  0  0  0  0  0  0  0  0
  -12.6148   20.2606   63.0904 N   0  0  0  0  0  0  0  0  0  0  0  0
  -11.7250   21.3819   63.5082 C   0  0  0  0  0  0  0  0  0  0  0  0
  -10.9140   20.8847   64.7127 C   0  0  0  0  0  0  0  0  0  0  0  0
  -12.0635   19.7081   65.5129 S   0  0  0  0  0  0  0  0  0  0  0  0
  -12.8688   19.3239   64.0406 C   0  0  0  0  0  0  0  0  0  0  0  0
  -13.6551   18.2771   63.8036 N   0  0  0  0  0  0  0  0  0  0  0  0
  -13.9170   17.3456   64.6885 C   0  0  0  0  0  0  0  0  0  0  0  0
  -14.1976   16.5733   65.4807 N   0  0  0  0  0  0  0  0  0  0  0  0
  3  2  2  0  0  0
  2  8  1  0  0  0
  3  4  1  0  0  0
  5  4  1  0  0  0
  4  6  2  0  0  0
  6  7  1  0  0  0
  8  7  2  0  0  0
  8  1  1  0  0  0
  1  9  1  0  0  0
  9 13  1  0  0  0
  9 10  1  0  0  0
 10 11  1  0  0  0
 12 11  1  0  0  0
 13 12  1  0  0  0
 14 13  2  0  0  0
 14 15  1  0  0  0
 15 16  3  0  0  0
M  END
> <minimizedAffinity>
-7.12543

$$$$
3C84_TH4_A_301


 16 17  0  0  0  0  0  0  0  0999 V2000
  -13.1804   20.4140   61.0409 C   0  0  0  0  0  0  0  0  0  0  0  0
  -13.1904   19.0706   63.1836 C   0  0  0  0  0  0  0  0  0  0  0  0
  -12.7938   18.8803   64.5248 C   0  0  0  0  0  0  0  0  0  0  0  0
  -12.0095   19.8217   65.2145 C   0  0  0  0  0  0  0  0  0  0  0  0
  -11.5824   19.5850   66.7250 Cl  0  0  0  0  0  0  0  0  0  0  0  0
  -11.6377   20.9101   64.4947 N   0  0  0  0  0  0  0  0  0  0  0  0
  -11.9370   21.1278   63.2295 C   0  0  0  0  0  0  0  0  0  0  0  0
  -12.7513   20.2029   62.5118 C   0  0  0  0  0  0  0  0  0  0  0  0
  -12.1660   19.9288   60.0847 N   0  0  0  0  0  0  0  0  0  0  0  0
  -11.0081   19.1032   60.5335 C   0  0  0  0  0  0  0  0  0  0  0  0
   -9.9287   19.2188   59.4484 C   0  0  0  0  0  0  0  0  0  0  0  0
  -10.9142   19.4395   57.9233 S   0  0  0  0  0  0  0  0  0  0  0  0
  -12.2323   20.1756   58.7506 C   0  0  0  0  0  0  0  0  0  0  0  0
  -13.2194   20.8898   58.2160 N   0  0  0  0  0  0  0  0  0  0  0  0
  -13.3148   21.1601   56.9365 C   0  0  0  0  0  0  0  0  0  0  0  0
  -13.4578   21.4264   55.8359 N   0  0  0  0  0  0  0  0  0  0  0  0
  3  2  2  0  0  0
  2  8  1  0  0  0
  3  4  1  0  0  0
  5  4  1  0  0  0
  4  6  2  0  0  0
  6  7  1  0  0  0
  8  7  2  0  0  0
  8  1  1  0  0  0
  1  9  1  0  0  0
  9 13  1  0  0  0
  9 10  1  0  0  0
 10 11  1  0  0  0
 12 11  1  0  0  0
 13 12  1  0  0  0
 14 13  2  0  0  0
 14 15  1  0  0  0
 15 16  3  0  0  0
M  END
> <minimizedAffinity>
-5.20300

$$$$
3C84_TH4_A_301


 16 17  0  0  0  0  0  0  0  0999 V2000
  -11.3572   20.5127   62.4712 C   0  0  0  0  0  0  0  0  0  0  0  0
  -11.8010   19.7586   64.8440 C   0  0  0  0  0  0  0  0  0  0  0  0
  -12.4589   18.9238   65.7728 C   0  0  0  0  0  0  0  0  0  0  0  0
  -13.3424   17.9065   65.3707 C   0  0  0  0  0  0  0  0  0  0  0  0
  -14.0645   16.9780   66.4367 Cl  0  0  0  0  0  0  0  0  0  0  0  0
  -13.5398   17.8011   64.0325 N   0  0  0  0  0  0  0  0  0  0  0  0
  -12.9917   18.5742   63.1163 C   0  0  0  0  0  0  0  0  0  0  0  0
  -12.0730   19.5980   63.4925 C   0  0  0  0  0  0  0  0  0  0  0  0
  -11.6542   20.1360   61.0752 N   0  0  0  0  0  0  0  0  0  0  0  0
  -12.9170   20.5638   60.4074 C   0  0  0  0  0  0  0  0  0  0  0  0
  -13.1428   19.6117   59.2249 C   0  0  0  0  0  0  0  0  0  0  0  0
  -11.4370   19.1773   58.7274 S   0  0  0  0  0  0  0  0  0  0  0  0
  -10.7995   19.4089   60.3098 C   0  0  0  0  0  0  0  0  0  0  0  0
   -9.6331   18.9730   60.7786 N   0  0  0  0  0  0  0  0  0  0  0  0
   -8.7851   18.2598   60.0775 C   0  0  0  0  0  0  0  0  0  0  0  0
   -8.0191   17.6177   59.5265 N   0  0  0  0  0  0  0  0  0  0  0  0
  3  2  2  0  0  0
  2  8  1  0  0  0
  3  4  1  0  0  0
  5  4  1  0  0  0
  4  6  2  0  0  0
  6  7  1  0  0  0
  8  7  2  0  0  0
  8  1  1  0  0  0
  1  9  1  0  0  0
  9 13  1  0  0  0
  9 10  1  0  0  0
 10 11  1  0  0  0
 12 11  1  0  0  0
 13 12  1  0  0  0
 14 13  2  0  0  0
 14 15  1  0  0  0
 15 16  3  0  0  0
M  END
> <minimizedAffinity>
-4.69486

$$$$
