1W96_S1A_A_1567


 39 41  0  0  0  0  0  0  0  0999 V2000
   12.5313   27.3615  115.9739 C   0  0  0  0  0  0  0  0  0  0  0  0
   13.6170   27.8335  115.0123 C   0  0  0  0  0  0  0  0  0  0  0  0
   14.6836   26.7163  114.9115 C   0  0  0  0  0  0  0  0  0  0  0  0
   15.7912   27.1344  113.8908 C   0  0  0  0  0  0  0  0  0  0  0  0
   16.7379   25.9353  113.5280 C   0  0  0  0  0  0  0  0  0  0  0  0
   15.9286   24.6579  113.2511 C   0  0  0  0  0  0  0  0  0  0  0  0
   14.9354   24.4202  114.4009 C   0  0  0  0  0  0  0  0  0  0  0  0
   14.1177   23.1387  114.1514 C   0  0  0  0  0  0  0  0  0  0  0  0
   13.0866   22.9507  115.2949 C   0  0  0  0  0  0  0  0  0  0  0  0
   13.3310   22.0638  116.3376 C   0  0  0  0  0  0  0  0  0  0  0  0
   12.3352   21.9661  117.5144 C   0  0  0  0  0  0  0  0  0  0  0  0
   13.0740   22.1490  118.8518 C   0  0  0  0  0  0  0  0  0  0  0  0
   13.6709   23.5584  118.9549 C   0  0  0  0  0  0  0  0  0  0  0  0
   12.6293   24.6671  118.9219 C   0  0  0  0  0  0  0  0  0  0  0  0
   13.2129   25.9980  119.3273 C   0  0  0  0  0  0  0  0  0  0  0  0
   12.1292   27.0631  119.4099 C   0  0  0  0  0  0  0  0  0  0  0  0
   11.5572   27.4887  118.0554 C   0  0  0  0  0  0  0  0  0  0  0  0
   14.2349   29.1308  115.5127 C   0  0  0  0  0  0  0  0  0  0  0  0
   15.1964   24.7718  111.9111 C   0  0  0  0  0  0  0  0  0  0  0  0
   15.0156   21.9136  114.0193 C   0  0  0  0  0  0  0  0  0  0  0  0
   11.5871   26.5603  115.7847 O   0  0  0  0  0  0  0  0  0  0  0  0
   15.2702   26.5045  116.2003 O   0  0  0  0  0  0  0  0  0  0  0  0
   17.6679   25.6931  114.5901 O   0  0  0  0  0  0  0  0  0  0  0  0
   14.0284   25.5231  114.4696 O   0  0  0  0  0  0  0  0  0  0  0  0
   12.6361   27.8733  117.1883 O   0  0  0  0  0  0  0  0  0  0  0  0
   15.7118   27.3174  116.4920 H   0  0  0  0  0  0  0  0  0  0  0  0
   17.1836   25.4530  115.3955 H   0  0  0  0  0  0  0  0  0  0  0  0
   10.6267   28.6932  118.2788 C   0  0  0  0  0  0  0  0  0  0  0  0
    9.2336   28.4960  118.3016 C   0  0  0  0  0  0  0  0  0  0  0  0
    8.3694   29.5866  118.2759 C   0  0  0  0  0  0  0  0  0  0  0  0
    8.8884   30.8784  118.2267 C   0  0  0  0  0  0  0  0  0  0  0  0
   10.2723   31.0775  118.2029 C   0  0  0  0  0  0  0  0  0  0  0  0
   11.1398   29.9843  118.2266 C   0  0  0  0  0  0  0  0  0  0  0  0
   16.0149   28.6592  112.0988 C   0  0  0  0  0  0  0  0  0  0  0  0
   15.1753   27.6400  112.7011 O   0  0  0  0  0  0  0  0  0  0  0  0
   10.2474   20.8544  117.4300 C   0  0  0  0  0  0  0  0  0  0  0  0
   11.6879   20.6875  117.5054 O   0  0  0  0  0  0  0  0  0  0  0  0
   14.6801   21.1898  120.2951 C   0  0  0  0  0  0  0  0  0  0  0  0
   14.1079   21.1635  118.9645 O   0  0  0  0  0  0  0  0  0  0  0  0
  1  2  1  0  0  0
  1 21  2  0  0  0
  1 25  1  0  0  0
  2  3  1  0  0  0
  2 18  1  0  0  0
  3  4  1  0  0  0
  3 22  1  0  0  0
  3 24  1  0  0  0
  4  5  1  0  0  0
  4 35  1  0  0  0
  5  6  1  0  0  0
  5 23  1  0  0  0
  6  7  1  0  0  0
  6 19  1  0  0  0
  7  8  1  0  0  0
  7 24  1  0  0  0
  8  9  1  0  0  0
  8 20  1  0  0  0
  9 10  2  0  0  0
 10 11  1  0  0  0
 11 12  1  0  0  0
 11 37  1  0  0  0
 12 13  1  0  0  0
 12 39  1  0  0  0
 13 14  1  0  0  0
 14 15  1  0  0  0
 15 16  1  0  0  0
 16 17  1  0  0  0
 17 28  1  0  0  0
 17 25  1  0  0  0
 34 35  1  0  0  0
 36 37  1  0  0  0
 38 39  1  0  0  0
 28 29  2  0  0  0
 28 33  1  0  0  0
 29 30  1  0  0  0
 30 31  2  0  0  0
 31 32  1  0  0  0
 32 33  2  0  0  0
 22 26  1  0  0  0
 23 27  1  0  0  0
M  END
> <minimizedAffinity>
-12.66357

$$$$
