3HKQ_1SD_A_300


 21 21  0  0  0  0  0  0  0  0999 V2000
   17.1898    1.3469   13.3969 O   0  0  0  0  0  0  0  0  0  0  0  0
   17.1981    2.7327   13.7519 C   0  0  0  0  0  0  0  0  0  0  0  0
   16.6376    2.9019   15.1646 C   0  0  0  0  0  0  0  0  0  0  0  0
   17.5228    2.2876   16.1054 O   0  0  0  0  0  0  0  0  0  0  0  0
   16.5152    4.3911   15.4890 C   0  0  0  0  0  0  0  0  0  0  0  0
   17.8208    4.9723   15.5374 O   0  0  0  0  0  0  0  0  0  0  0  0
   15.6939    5.0873   14.4026 C   0  0  0  0  0  0  0  0  0  0  0  0
   16.3479    4.9152   13.1356 O   0  0  0  0  0  0  0  0  0  0  0  0
   16.3605    3.5310   12.7498 C   0  0  0  0  0  0  0  0  0  0  0  0
   17.7219    0.8465   14.0351 H   0  0  0  0  0  0  0  0  0  0  0  0
   18.3952    2.7083   16.0509 H   0  0  0  0  0  0  0  0  0  0  0  0
   18.2563    4.8612   14.6778 H   0  0  0  0  0  0  0  0  0  0  0  0
   17.0892    3.3903   11.0758 S   0  0  0  0  0  0  0  0  0  0  0  0
   18.5434    3.0430   11.1971 O   0  0  0  0  0  0  0  0  0  0  0  0
   16.3885    2.3110   10.3057 O   0  0  0  0  0  0  0  0  0  0  0  0
   16.9369    4.8161   10.3011 N   0  0  0  0  0  0  0  0  0  0  0  0
   17.4160    5.5440   10.8313 H   0  0  0  0  0  0  0  0  0  0  0  0
   15.9484    5.0527   10.2155 H   0  0  0  0  0  0  0  0  0  0  0  0
   15.5768    6.5784   14.7246 C   0  0  0  0  0  0  0  0  0  0  0  0
   14.4860    7.1398   13.9915 O   0  0  0  0  0  0  0  0  0  0  0  0
   14.6423    7.0255   13.0411 H   0  0  0  0  0  0  0  0  0  0  0  0
  1  2  1  0  0  0
  2  3  1  0  0  0
  2  9  1  0  0  0
  3  4  1  0  0  0
  3  5  1  0  0  0
  5  6  1  0  0  0
  5  7  1  0  0  0
  7 19  1  0  0  0
  7  8  1  0  0  0
 19 20  1  0  0  0
  8  9  1  0  0  0
  9 13  1  0  0  0
 13 14  2  0  0  0
 13 15  2  0  0  0
 13 16  1  0  0  0
  1 10  1  0  0  0
  4 11  1  0  0  0
  6 12  1  0  0  0
 20 21  1  0  0  0
 16 17  1  0  0  0
 16 18  1  0  0  0
M  END
> <minimizedAffinity>
-7.04912

$$$$
3HKQ_1SD_A_300


 21 21  0  0  0  0  0  0  0  0999 V2000
   16.9144    5.6880   14.6596 O   0  0  0  0  0  0  0  0  0  0  0  0
   17.5264    4.6161   13.9365 C   0  0  0  0  0  0  0  0  0  0  0  0
   17.6112    4.9823   12.4543 C   0  0  0  0  0  0  0  0  0  0  0  0
   18.5082    6.0837   12.2859 O   0  0  0  0  0  0  0  0  0  0  0  0
   18.1344    3.7833   11.6625 C   0  0  0  0  0  0  0  0  0  0  0  0
   19.4827    3.5116   12.0538 O   0  0  0  0  0  0  0  0  0  0  0  0
   17.2682    2.5572   11.9554 C   0  0  0  0  0  0  0  0  0  0  0  0
   17.3162    2.2726   13.3623 O   0  0  0  0  0  0  0  0  0  0  0  0
   16.7116    3.3333   14.1202 C   0  0  0  0  0  0  0  0  0  0  0  0
   17.4348    6.4977   14.5395 H   0  0  0  0  0  0  0  0  0  0  0  0
   19.3887    5.8359   12.6088 H   0  0  0  0  0  0  0  0  0  0  0  0
   19.5101    3.3121   13.0026 H   0  0  0  0  0  0  0  0  0  0  0  0
   16.6875    2.8574   15.8883 S   0  0  0  0  0  0  0  0  0  0  0  0
   16.5172    1.3711   15.9980 O   0  0  0  0  0  0  0  0  0  0  0  0
   17.9793    3.2537   16.5388 O   0  0  0  0  0  0  0  0  0  0  0  0
   15.4400    3.6004   16.6285 N   0  0  0  0  0  0  0  0  0  0  0  0
   14.5660    3.3255   16.1801 H   0  0  0  0  0  0  0  0  0  0  0  0
   15.5555    4.6113   16.5570 H   0  0  0  0  0  0  0  0  0  0  0  0
   17.7958    1.3564   11.1676 C   0  0  0  0  0  0  0  0  0  0  0  0
   18.2081    1.7837    9.8676 O   0  0  0  0  0  0  0  0  0  0  0  0
   17.4519    2.1706    9.3994 H   0  0  0  0  0  0  0  0  0  0  0  0
  1  2  1  0  0  0
  2  3  1  0  0  0
  2  9  1  0  0  0
  3  4  1  0  0  0
  3  5  1  0  0  0
  5  6  1  0  0  0
  5  7  1  0  0  0
  7 19  1  0  0  0
  7  8  1  0  0  0
 19 20  1  0  0  0
  8  9  1  0  0  0
  9 13  1  0  0  0
 13 14  2  0  0  0
 13 15  2  0  0  0
 13 16  1  0  0  0
  1 10  1  0  0  0
  4 11  1  0  0  0
  6 12  1  0  0  0
 20 21  1  0  0  0
 16 17  1  0  0  0
 16 18  1  0  0  0
M  END
> <minimizedAffinity>
-7.00470

$$$$
3HKQ_1SD_A_300


 21 21  0  0  0  0  0  0  0  0999 V2000
   17.5830    4.5841   10.3660 O   0  0  0  0  0  0  0  0  0  0  0  0
   16.9462    4.2500   11.6026 C   0  0  0  0  0  0  0  0  0  0  0  0
   17.1228    5.3995   12.5954 C   0  0  0  0  0  0  0  0  0  0  0  0
   16.4105    6.5480   12.1266 O   0  0  0  0  0  0  0  0  0  0  0  0
   16.5664    4.9856   13.9581 C   0  0  0  0  0  0  0  0  0  0  0  0
   15.1522    4.8011   13.8541 O   0  0  0  0  0  0  0  0  0  0  0  0
   17.2144    3.6723   14.3999 C   0  0  0  0  0  0  0  0  0  0  0  0
   16.9289    2.6561   13.4261 O   0  0  0  0  0  0  0  0  0  0  0  0
   17.5520    2.9630   12.1680 C   0  0  0  0  0  0  0  0  0  0  0  0
   17.1952    5.4000   10.0127 H   0  0  0  0  0  0  0  0  0  0  0  0
   15.4682    6.3329   12.0449 H   0  0  0  0  0  0  0  0  0  0  0  0
   14.9636    4.1087   13.2015 H   0  0  0  0  0  0  0  0  0  0  0  0
   17.2606    1.5750   11.0097 S   0  0  0  0  0  0  0  0  0  0  0  0
   17.2914    0.2820   11.7696 O   0  0  0  0  0  0  0  0  0  0  0  0
   15.9192    1.7304   10.3576 O   0  0  0  0  0  0  0  0  0  0  0  0
   18.4327    1.5642    9.8772 N   0  0  0  0  0  0  0  0  0  0  0  0
   19.3411    1.4582   10.3290 H   0  0  0  0  0  0  0  0  0  0  0  0
   18.4117    2.4418    9.3578 H   0  0  0  0  0  0  0  0  0  0  0  0
   16.6528    3.2556   15.7607 C   0  0  0  0  0  0  0  0  0  0  0  0
   17.6266    2.4772   16.4596 O   0  0  0  0  0  0  0  0  0  0  0  0
   17.8400    1.6854   15.9416 H   0  0  0  0  0  0  0  0  0  0  0  0
  1  2  1  0  0  0
  2  3  1  0  0  0
  2  9  1  0  0  0
  3  4  1  0  0  0
  3  5  1  0  0  0
  5  6  1  0  0  0
  5  7  1  0  0  0
  7 19  1  0  0  0
  7  8  1  0  0  0
 19 20  1  0  0  0
  8  9  1  0  0  0
  9 13  1  0  0  0
 13 14  2  0  0  0
 13 15  2  0  0  0
 13 16  1  0  0  0
  1 10  1  0  0  0
  4 11  1  0  0  0
  6 12  1  0  0  0
 20 21  1  0  0  0
 16 17  1  0  0  0
 16 18  1  0  0  0
M  END
> <minimizedAffinity>
-6.67030

$$$$
3HKQ_1SD_A_300


 21 21  0  0  0  0  0  0  0  0999 V2000
   15.7058    3.6343   11.5427 O   0  0  0  0  0  0  0  0  0  0  0  0
   16.7137    4.1096   12.4398 C   0  0  0  0  0  0  0  0  0  0  0  0
   16.1977    5.3437   13.1807 C   0  0  0  0  0  0  0  0  0  0  0  0
   15.1109    4.9689   14.0320 O   0  0  0  0  0  0  0  0  0  0  0  0
   17.3221    5.9335   14.0326 C   0  0  0  0  0  0  0  0  0  0  0  0
   17.6717    5.0040   15.0616 O   0  0  0  0  0  0  0  0  0  0  0  0
   18.5468    6.1974   13.1549 C   0  0  0  0  0  0  0  0  0  0  0  0
   18.9776    4.9610   12.5647 O   0  0  0  0  0  0  0  0  0  0  0  0
   17.9846    4.4527   11.6588 C   0  0  0  0  0  0  0  0  0  0  0  0
   14.9033    3.4186   12.0431 H   0  0  0  0  0  0  0  0  0  0  0  0
   15.4162    4.3097   14.6748 H   0  0  0  0  0  0  0  0  0  0  0  0
   17.9697    4.1733   14.6592 H   0  0  0  0  0  0  0  0  0  0  0  0
   18.6413    2.9498   10.8444 S   0  0  0  0  0  0  0  0  0  0  0  0
   19.2321    2.0428   11.8828 O   0  0  0  0  0  0  0  0  0  0  0  0
   17.5325    2.2300   10.1363 O   0  0  0  0  0  0  0  0  0  0  0  0
   19.7981    3.3771    9.7787 N   0  0  0  0  0  0  0  0  0  0  0  0
   20.5477    3.8656   10.2684 H   0  0  0  0  0  0  0  0  0  0  0  0
   19.3974    3.9919    9.0704 H   0  0  0  0  0  0  0  0  0  0  0  0
   19.6735    6.7819   14.0090 C   0  0  0  0  0  0  0  0  0  0  0  0
   20.2535    5.7466   14.8055 O   0  0  0  0  0  0  0  0  0  0  0  0
   19.5746    5.3645   15.3834 H   0  0  0  0  0  0  0  0  0  0  0  0
  1  2  1  0  0  0
  2  3  1  0  0  0
  2  9  1  0  0  0
  3  4  1  0  0  0
  3  5  1  0  0  0
  5  6  1  0  0  0
  5  7  1  0  0  0
  7 19  1  0  0  0
  7  8  1  0  0  0
 19 20  1  0  0  0
  8  9  1  0  0  0
  9 13  1  0  0  0
 13 14  2  0  0  0
 13 15  2  0  0  0
 13 16  1  0  0  0
  1 10  1  0  0  0
  4 11  1  0  0  0
  6 12  1  0  0  0
 20 21  1  0  0  0
 16 17  1  0  0  0
 16 18  1  0  0  0
M  END
> <minimizedAffinity>
-6.39210

$$$$
3HKQ_1SD_A_300


 21 21  0  0  0  0  0  0  0  0999 V2000
   17.4547    6.7058   11.8923 O   0  0  0  0  0  0  0  0  0  0  0  0
   17.2749    5.3722   11.4071 C   0  0  0  0  0  0  0  0  0  0  0  0
   16.9039    4.4509   12.5698 C   0  0  0  0  0  0  0  0  0  0  0  0
   15.6197    4.8207   13.0800 O   0  0  0  0  0  0  0  0  0  0  0  0
   16.8505    3.0046   12.0767 C   0  0  0  0  0  0  0  0  0  0  0  0
   15.7802    2.8651   11.1386 O   0  0  0  0  0  0  0  0  0  0  0  0
   18.1704    2.6467   11.3916 C   0  0  0  0  0  0  0  0  0  0  0  0
   18.3802    3.5341   10.2821 O   0  0  0  0  0  0  0  0  0  0  0  0
   18.5612    4.8859   10.7348 C   0  0  0  0  0  0  0  0  0  0  0  0
   16.6368    7.0084   12.3170 H   0  0  0  0  0  0  0  0  0  0  0  0
   14.9564    4.7378   12.3771 H   0  0  0  0  0  0  0  0  0  0  0  0
   15.9294    3.4599   10.3871 H   0  0  0  0  0  0  0  0  0  0  0  0
   18.9503    5.9453    9.2927 S   0  0  0  0  0  0  0  0  0  0  0  0
   19.6170    7.2021    9.7680 O   0  0  0  0  0  0  0  0  0  0  0  0
   19.8762    5.2186    8.3634 O   0  0  0  0  0  0  0  0  0  0  0  0
   17.5686    6.3267    8.5169 N   0  0  0  0  0  0  0  0  0  0  0  0
   16.9451    6.8203    9.1557 H   0  0  0  0  0  0  0  0  0  0  0  0
   17.1151    5.4733    8.1908 H   0  0  0  0  0  0  0  0  0  0  0  0
   18.1142    1.2013   10.8931 C   0  0  0  0  0  0  0  0  0  0  0  0
   17.8167    1.1909    9.4953 O   0  0  0  0  0  0  0  0  0  0  0  0
   16.9594    1.6188    9.3440 H   0  0  0  0  0  0  0  0  0  0  0  0
  1  2  1  0  0  0
  2  3  1  0  0  0
  2  9  1  0  0  0
  3  4  1  0  0  0
  3  5  1  0  0  0
  5  6  1  0  0  0
  5  7  1  0  0  0
  7 19  1  0  0  0
  7  8  1  0  0  0
 19 20  1  0  0  0
  8  9  1  0  0  0
  9 13  1  0  0  0
 13 14  2  0  0  0
 13 15  2  0  0  0
 13 16  1  0  0  0
  1 10  1  0  0  0
  4 11  1  0  0  0
  6 12  1  0  0  0
 20 21  1  0  0  0
 16 17  1  0  0  0
 16 18  1  0  0  0
M  END
> <minimizedAffinity>
-6.24741

$$$$
3HKQ_1SD_A_300


 21 21  0  0  0  0  0  0  0  0999 V2000
   16.8921    1.5021   15.4820 O   0  0  0  0  0  0  0  0  0  0  0  0
   16.3730    2.7841   15.1168 C   0  0  0  0  0  0  0  0  0  0  0  0
   17.2423    3.3928   14.0158 C   0  0  0  0  0  0  0  0  0  0  0  0
   17.1233    2.6080   12.8259 O   0  0  0  0  0  0  0  0  0  0  0  0
   16.7723    4.8186   13.7257 C   0  0  0  0  0  0  0  0  0  0  0  0
   15.4533    4.7778   13.1750 O   0  0  0  0  0  0  0  0  0  0  0  0
   16.7511    5.6264   15.0244 C   0  0  0  0  0  0  0  0  0  0  0  0
   15.8569    4.9969   15.9553 O   0  0  0  0  0  0  0  0  0  0  0  0
   16.3476    3.7025   16.3411 C   0  0  0  0  0  0  0  0  0  0  0  0
   16.9058    0.9248   14.7026 H   0  0  0  0  0  0  0  0  0  0  0  0
   16.1972    2.5962   12.5376 H   0  0  0  0  0  0  0  0  0  0  0  0
   14.8508    4.3593   13.8096 H   0  0  0  0  0  0  0  0  0  0  0  0
   15.2373    3.0064   17.6202 S   0  0  0  0  0  0  0  0  0  0  0  0
   15.7235    1.6411   18.0071 O   0  0  0  0  0  0  0  0  0  0  0  0
   15.2399    3.8908   18.8312 O   0  0  0  0  0  0  0  0  0  0  0  0
   13.7274    2.8916   17.0173 N   0  0  0  0  0  0  0  0  0  0  0  0
   13.7347    2.2887   16.1945 H   0  0  0  0  0  0  0  0  0  0  0  0
   13.3942    3.8195   16.7560 H   0  0  0  0  0  0  0  0  0  0  0  0
   16.2751    7.0513   14.7345 C   0  0  0  0  0  0  0  0  0  0  0  0
   17.3979    7.8697   14.3999 O   0  0  0  0  0  0  0  0  0  0  0  0
   18.0218    7.8820   15.1426 H   0  0  0  0  0  0  0  0  0  0  0  0
  1  2  1  0  0  0
  2  3  1  0  0  0
  2  9  1  0  0  0
  3  4  1  0  0  0
  3  5  1  0  0  0
  5  6  1  0  0  0
  5  7  1  0  0  0
  7 19  1  0  0  0
  7  8  1  0  0  0
 19 20  1  0  0  0
  8  9  1  0  0  0
  9 13  1  0  0  0
 13 14  2  0  0  0
 13 15  2  0  0  0
 13 16  1  0  0  0
  1 10  1  0  0  0
  4 11  1  0  0  0
  6 12  1  0  0  0
 20 21  1  0  0  0
 16 17  1  0  0  0
 16 18  1  0  0  0
M  END
> <minimizedAffinity>
-6.20709

$$$$
3HKQ_1SD_A_300


 21 21  0  0  0  0  0  0  0  0999 V2000
   17.6180    5.6473    9.3396 O   0  0  0  0  0  0  0  0  0  0  0  0
   17.4167    5.5262   10.7507 C   0  0  0  0  0  0  0  0  0  0  0  0
   17.1481    6.9075   11.3492 C   0  0  0  0  0  0  0  0  0  0  0  0
   15.9032    7.4080   10.8532 O   0  0  0  0  0  0  0  0  0  0  0  0
   17.0734    6.7969   12.8724 C   0  0  0  0  0  0  0  0  0  0  0  0
   15.9351    6.0101   13.2331 O   0  0  0  0  0  0  0  0  0  0  0  0
   18.3402    6.1218   13.4007 C   0  0  0  0  0  0  0  0  0  0  0  0
   18.4526    4.8129   12.8205 O   0  0  0  0  0  0  0  0  0  0  0  0
   18.6524    4.8980   11.3999 C   0  0  0  0  0  0  0  0  0  0  0  0
   16.8322    6.0457    8.9339 H   0  0  0  0  0  0  0  0  0  0  0  0
   15.1883    6.8022   11.1038 H   0  0  0  0  0  0  0  0  0  0  0  0
   16.0184    5.1245   12.8462 H   0  0  0  0  0  0  0  0  0  0  0  0
   18.9156    3.2112   10.7377 S   0  0  0  0  0  0  0  0  0  0  0  0
   19.5687    2.3636   11.7889 O   0  0  0  0  0  0  0  0  0  0  0  0
   17.5980    2.6012   10.3627 O   0  0  0  0  0  0  0  0  0  0  0  0
   19.8846    3.2919    9.4296 N   0  0  0  0  0  0  0  0  0  0  0  0
   20.7779    3.7076    9.6934 H   0  0  0  0  0  0  0  0  0  0  0  0
   19.4409    3.8659    8.7127 H   0  0  0  0  0  0  0  0  0  0  0  0
   18.2623    6.0059   14.9243 C   0  0  0  0  0  0  0  0  0  0  0  0
   17.7088    4.7366   15.2778 O   0  0  0  0  0  0  0  0  0  0  0  0
   16.8185    4.6559   14.9014 H   0  0  0  0  0  0  0  0  0  0  0  0
  1  2  1  0  0  0
  2  3  1  0  0  0
  2  9  1  0  0  0
  3  4  1  0  0  0
  3  5  1  0  0  0
  5  6  1  0  0  0
  5  7  1  0  0  0
  7 19  1  0  0  0
  7  8  1  0  0  0
 19 20  1  0  0  0
  8  9  1  0  0  0
  9 13  1  0  0  0
 13 14  2  0  0  0
 13 15  2  0  0  0
 13 16  1  0  0  0
  1 10  1  0  0  0
  4 11  1  0  0  0
  6 12  1  0  0  0
 20 21  1  0  0  0
 16 17  1  0  0  0
 16 18  1  0  0  0
M  END
> <minimizedAffinity>
-6.20613

$$$$
3HKQ_1SD_A_300


 21 21  0  0  0  0  0  0  0  0999 V2000
   17.0093    2.3376   14.4152 O   0  0  0  0  0  0  0  0  0  0  0  0
   16.9974    3.0502   13.1749 C   0  0  0  0  0  0  0  0  0  0  0  0
   17.9141    2.3475   12.1728 C   0  0  0  0  0  0  0  0  0  0  0  0
   17.3730    1.0630   11.8511 O   0  0  0  0  0  0  0  0  0  0  0  0
   18.0113    3.1850   10.8972 C   0  0  0  0  0  0  0  0  0  0  0  0
   16.7312    3.2262   10.2612 O   0  0  0  0  0  0  0  0  0  0  0  0
   18.4446    4.6089   11.2497 C   0  0  0  0  0  0  0  0  0  0  0  0
   17.4790    5.1871   12.1418 O   0  0  0  0  0  0  0  0  0  0  0  0
   17.4623    4.4913   13.3990 C   0  0  0  0  0  0  0  0  0  0  0  0
   16.7140    1.4256   14.2670 H   0  0  0  0  0  0  0  0  0  0  0  0
   16.4912    1.1719   11.4618 H   0  0  0  0  0  0  0  0  0  0  0  0
   16.0835    3.6246   10.8635 H   0  0  0  0  0  0  0  0  0  0  0  0
   16.3098    5.3491   14.5344 S   0  0  0  0  0  0  0  0  0  0  0  0
   14.9382    5.3654   13.9272 O   0  0  0  0  0  0  0  0  0  0  0  0
   16.2579    4.6263   15.8473 O   0  0  0  0  0  0  0  0  0  0  0  0
   16.8186    6.8808   14.7613 N   0  0  0  0  0  0  0  0  0  0  0  0
   16.8509    7.3648   13.8641 H   0  0  0  0  0  0  0  0  0  0  0  0
   17.7502    6.8715   15.1765 H   0  0  0  0  0  0  0  0  0  0  0  0
   18.5359    5.4480    9.9736 C   0  0  0  0  0  0  0  0  0  0  0  0
   17.2198    5.7880    9.5321 O   0  0  0  0  0  0  0  0  0  0  0  0
   16.7200    4.9767    9.3506 H   0  0  0  0  0  0  0  0  0  0  0  0
  1  2  1  0  0  0
  2  3  1  0  0  0
  2  9  1  0  0  0
  3  4  1  0  0  0
  3  5  1  0  0  0
  5  6  1  0  0  0
  5  7  1  0  0  0
  7 19  1  0  0  0
  7  8  1  0  0  0
 19 20  1  0  0  0
  8  9  1  0  0  0
  9 13  1  0  0  0
 13 14  2  0  0  0
 13 15  2  0  0  0
 13 16  1  0  0  0
  1 10  1  0  0  0
  4 11  1  0  0  0
  6 12  1  0  0  0
 20 21  1  0  0  0
 16 17  1  0  0  0
 16 18  1  0  0  0
M  END
> <minimizedAffinity>
-6.06437

$$$$
3HKQ_1SD_A_300


 21 21  0  0  0  0  0  0  0  0999 V2000
   19.6967    4.8515   12.5680 O   0  0  0  0  0  0  0  0  0  0  0  0
   18.5393    5.6360   12.8703 C   0  0  0  0  0  0  0  0  0  0  0  0
   18.7470    6.3622   14.1999 C   0  0  0  0  0  0  0  0  0  0  0  0
   19.8003    7.3199   14.0606 O   0  0  0  0  0  0  0  0  0  0  0  0
   17.4585    7.0865   14.5914 C   0  0  0  0  0  0  0  0  0  0  0  0
   17.1926    8.1225   13.6422 O   0  0  0  0  0  0  0  0  0  0  0  0
   16.2933    6.0956   14.5951 C   0  0  0  0  0  0  0  0  0  0  0  0
   16.1553    5.5269   13.2836 O   0  0  0  0  0  0  0  0  0  0  0  0
   17.3051    4.7338   12.9459 C   0  0  0  0  0  0  0  0  0  0  0  0
   20.4751    5.4283   12.5214 H   0  0  0  0  0  0  0  0  0  0  0  0
   19.5637    7.9632   13.3742 H   0  0  0  0  0  0  0  0  0  0  0  0
   17.0921    7.7339   12.7591 H   0  0  0  0  0  0  0  0  0  0  0  0
   17.0163    3.9346   11.3237 S   0  0  0  0  0  0  0  0  0  0  0  0
   17.8923    2.7225   11.2068 O   0  0  0  0  0  0  0  0  0  0  0  0
   15.5805    3.5164   11.2118 O   0  0  0  0  0  0  0  0  0  0  0  0
   17.3852    4.9848   10.1333 N   0  0  0  0  0  0  0  0  0  0  0  0
   18.3627    5.2639   10.2168 H   0  0  0  0  0  0  0  0  0  0  0  0
   16.7887    5.8087   10.2098 H   0  0  0  0  0  0  0  0  0  0  0  0
   15.0034    6.8222   14.9810 C   0  0  0  0  0  0  0  0  0  0  0  0
   14.4101    7.3923   13.8125 O   0  0  0  0  0  0  0  0  0  0  0  0
   15.0283    8.0225   13.4106 H   0  0  0  0  0  0  0  0  0  0  0  0
  1  2  1  0  0  0
  2  3  1  0  0  0
  2  9  1  0  0  0
  3  4  1  0  0  0
  3  5  1  0  0  0
  5  6  1  0  0  0
  5  7  1  0  0  0
  7 19  1  0  0  0
  7  8  1  0  0  0
 19 20  1  0  0  0
  8  9  1  0  0  0
  9 13  1  0  0  0
 13 14  2  0  0  0
 13 15  2  0  0  0
 13 16  1  0  0  0
  1 10  1  0  0  0
  4 11  1  0  0  0
  6 12  1  0  0  0
 20 21  1  0  0  0
 16 17  1  0  0  0
 16 18  1  0  0  0
M  END
> <minimizedAffinity>
-6.06196

$$$$
3HKQ_1SD_A_300


 21 21  0  0  0  0  0  0  0  0999 V2000
   18.2806    6.2598   13.3943 O   0  0  0  0  0  0  0  0  0  0  0  0
   17.7587    5.2605   12.5137 C   0  0  0  0  0  0  0  0  0  0  0  0
   16.6886    4.4461   13.2416 C   0  0  0  0  0  0  0  0  0  0  0  0
   15.5673    5.2851   13.5332 O   0  0  0  0  0  0  0  0  0  0  0  0
   16.2327    3.2912   12.3493 C   0  0  0  0  0  0  0  0  0  0  0  0
   15.5741    3.8185   11.1947 O   0  0  0  0  0  0  0  0  0  0  0  0
   17.4475    2.4739   11.9067 C   0  0  0  0  0  0  0  0  0  0  0  0
   18.3486    3.3255   11.1819 O   0  0  0  0  0  0  0  0  0  0  0  0
   18.8895    4.3452   12.0379 C   0  0  0  0  0  0  0  0  0  0  0  0
   17.5599    6.8365   13.6924 H   0  0  0  0  0  0  0  0  0  0  0  0
   15.2009    5.6343   12.7057 H   0  0  0  0  0  0  0  0  0  0  0  0
   16.1880    4.3866   10.7035 H   0  0  0  0  0  0  0  0  0  0  0  0
   20.1229    5.3160   11.0946 S   0  0  0  0  0  0  0  0  0  0  0  0
   20.7665    4.4328   10.0672 O   0  0  0  0  0  0  0  0  0  0  0  0
   19.4466    6.4622   10.4036 O   0  0  0  0  0  0  0  0  0  0  0  0
   21.2626    5.8757   12.1165 N   0  0  0  0  0  0  0  0  0  0  0  0
   21.7173    5.0901   12.5819 H   0  0  0  0  0  0  0  0  0  0  0  0
   20.8270    6.4785   12.8145 H   0  0  0  0  0  0  0  0  0  0  0  0
   16.9914    1.3220   11.0090 C   0  0  0  0  0  0  0  0  0  0  0  0
   16.7142    1.8205    9.6986 O   0  0  0  0  0  0  0  0  0  0  0  0
   16.0129    2.4888    9.7485 H   0  0  0  0  0  0  0  0  0  0  0  0
  1  2  1  0  0  0
  2  3  1  0  0  0
  2  9  1  0  0  0
  3  4  1  0  0  0
  3  5  1  0  0  0
  5  6  1  0  0  0
  5  7  1  0  0  0
  7 19  1  0  0  0
  7  8  1  0  0  0
 19 20  1  0  0  0
  8  9  1  0  0  0
  9 13  1  0  0  0
 13 14  2  0  0  0
 13 15  2  0  0  0
 13 16  1  0  0  0
  1 10  1  0  0  0
  4 11  1  0  0  0
  6 12  1  0  0  0
 20 21  1  0  0  0
 16 17  1  0  0  0
 16 18  1  0  0  0
M  END
> <minimizedAffinity>
-6.03250

$$$$
