5TEF_GTG_A_801
  RCSB PDB12061719403D
Coordinates from PDB:5TEF:A:801 Model:1 without hydrogens
 33 35  0  0  0  0            999 V2000
   35.8820   66.4400   26.8860   P 0  0  0  0  0  0  0  0  0  0  0  0
   34.8930   67.5350   26.8280   O 0  0  0  0  0  0  0  0  0  0  0  0
   35.3140   65.2390   26.0120   O 0  0  0  0  0  0  0  0  0  0  0  0
   37.2880   66.9950   26.3520   O 0  0  0  0  0  0  0  0  0  0  0  0
   38.4880   67.9100   26.8920   P 0  0  0  0  0  0  0  0  0  0  0  0
   38.6430   67.7900   28.3560   O 0  0  0  0  0  0  0  0  0  0  0  0
   38.3470   69.3770   26.4660   O 0  0  0  0  0  0  0  0  0  0  0  0
   39.8250   67.3550   26.2470   O 0  0  0  0  0  0  0  0  0  0  0  0
   35.9830   67.2890   31.7470   N 0  0  0  0  0  0  0  0  0  0  0  0
   36.4990   68.0610   30.7840   C 0  0  0  0  0  0  0  0  0  0  0  0
   36.1590   69.3240   30.9800   N 0  3  0  0  0  0  0  0  0  0  0  0
   36.5740   70.4490   30.1380   C 0  0  0  0  0  0  0  0  0  0  0  0
   35.3560   69.3870   32.1090   C 0  0  0  0  0  0  0  0  0  0  0  0
   34.6800   70.4530   32.7540   C 0  0  0  0  0  0  0  0  0  0  0  0
   34.7390   71.6620   32.5070   O 0  0  0  0  0  0  0  0  0  0  0  0
   33.9740   69.9870   33.8470   N 0  0  0  0  0  0  0  0  0  0  0  0
   33.9670   68.6900   34.3070   C 0  0  0  0  0  0  0  0  0  0  0  0
   33.3110   68.4510   35.4510   N 0  0  0  0  0  0  0  0  0  0  0  0
   34.6030   67.6950   33.6940   N 0  0  0  0  0  0  0  0  0  0  0  0
   35.2630   68.0970   32.5930   C 0  0  0  0  0  0  0  0  0  0  0  0
   35.9830   65.9090   28.3740   O 0  0  0  0  0  0  0  0  0  0  0  0
   36.3810   64.5610   28.6350   C 0  0  0  0  0  0  0  0  0  0  0  0
   36.2010   64.3620   30.0990   C 0  0  0  0  0  0  0  0  0  0  0  0
   36.9760   65.3590   30.8070   O 0  0  0  0  0  0  0  0  0  0  0  0
   34.7630   64.5460   30.5560   C 0  0  0  0  0  0  0  0  0  0  0  0
   33.9960   63.3410   30.4680   O 0  0  0  0  0  0  0  0  0  0  0  0
   34.9490   64.9730   31.9960   C 0  0  0  0  0  0  0  0  0  0  0  0
   35.1400   63.8120   32.7820   O 0  0  0  0  0  0  0  0  0  0  0  0
   36.2260   65.8320   31.9140   C 0  0  0  0  0  0  0  0  0  0  0  0
   40.6710   66.1580   26.8600   P 0  0  0  0  0  0  0  0  0  0  0  0
   40.8780   65.1340   25.8050   O 0  0  0  0  0  0  0  0  0  0  0  0
   39.8670   65.5880   28.0660   O 0  0  0  0  0  0  0  0  0  0  0  0
   41.9900   66.8570   27.4590   O 0  0  0  0  0  0  0  0  0  0  0  0
  1  2  2  0  0  0  0
  1  3  1  0  0  0  0
  1  4  1  0  0  0  0
  1 21  1  0  0  0  0
  4  5  1  0  0  0  0
  5  6  2  0  0  0  0
  5  7  1  0  0  0  0
  5  8  1  0  0  0  0
  8 30  1  0  0  0  0
  9 10  1  0  0  0  0
  9 20  1  0  0  0  0
  9 29  1  0  0  0  0
 10 11  2  0  0  0  0
 11 12  1  0  0  0  0
 11 13  1  0  0  0  0
 13 14  1  0  0  0  0
 13 20  2  0  0  0  0
 14 15  2  0  0  0  0
 14 16  1  0  0  0  0
 16 17  1  0  0  0  0
 17 18  1  0  0  0  0
 17 19  2  0  0  0  0
 19 20  1  0  0  0  0
 21 22  1  0  0  0  0
 22 23  1  0  0  0  0
 23 24  1  0  0  0  0
 23 25  1  0  0  0  0
 24 29  1  0  0  0  0
 25 26  1  0  0  0  0
 25 27  1  0  0  0  0
 27 28  1  0  0  0  0
 27 29  1  0  0  0  0
 30 31  2  0  0  0  0
 30 32  1  0  0  0  0
 30 33  1  0  0  0  0
M  CHG  1  11   1
A    1
PA
A    2
O1A
A    3
O2A
A    4
O3A
A    5
PB
A    6
O1B
A    7
O2B
A    8
O3B
A    9
N9A
A   10
C8A
A   11
N7A
A   12
C7X
A   13
C5A
A   14
C6A
A   15
O6A
A   16
N1A
A   17
C2A
A   18
N2A
A   19
N3A
A   20
C4A
A   21
O5D
A   22
C5D
A   23
C4D
A   24
O4D
A   25
C3D
A   26
O3D
A   27
C2D
A   28
O2D
A   29
C1D
A   30
PG
A   31
O1G
A   32
O2G
A   33
O5E
M  END
>  <InstanceId>
5TEF_GTG_A_801

>  <ChemCompId>
GTG

>  <PdbId>
5TEF

>  <ChainId>
A

>  <ResidueNumber>
801

>  <InsertionCode>


>  <Model>
1

>  <AltIds>


>  <MissingHeavyAtoms>
19

>  <ObservedFormula>
C11 N5 O14 P3

>  <Name>
7-METHYL-GUANOSINE-5'-TRIPHOSPHATE-5'-GUANOSINE

>  <SystematicName>
[(2R,3S,4R,5R)-5-(2-amino-7-methyl-6-oxo-1H-purin-7-ium-9-yl)-3,4-dihydroxy-oxolan-2-yl]methyl [[[(2R,3S,4R,5R)-5-(2-amino-6-oxo-1H-purin-9-yl)-3,4-dihydroxy-oxolan-2-yl]methoxy-hydroxy-phosphoryl]oxy-hydroxy-phosphoryl] hydrogen phosphate

>  <Synonyms>
MRNA CAP ANALOG N7-METHYL GPPPG

>  <Type>
NON-POLYMER

>  <Formula>
C21 H30 N10 O18 P3

>  <MolecularWeight>
803.44

>  <ModifiedDate>
2012-01-05

>  <Parent>


>  <OneLetterCode>


>  <SubcomponentList>


>  <AmbiguousFlag>
N

>  <InChI>
InChI=1S/C21H29N10O18P3/c1-29-5-31(15-9(29)17(37)28-21(23)26-15)19-13(35)11(33)7(47-19)3-45-51(40,41)49-52(42,43)48-50(38,39)44-2-6-10(32)12(34)18(46-6)30-4-24-8-14(30)25-20(22)27-16(8)36/h4-7,10-13,18-19,32-35H,2-3H2,1H3,(H8-,22,23,25,26,27,28,36,37,38,39,40,41,42,43)/p+1/t6-,7-,10-,11-,12-,13-,18-,19-/m1/s1

>  <InChIKey>
FHHZHGZBHYYWTG-INFSMZHSSA-O

>  <SMILES>
C[n+]1cn(c2c1C(=O)NC(=N2)N)[C@H]3[C@@H]([C@@H]([C@H](O3)CO[P@@](=O)(O)OP(=O)(O)O[P@](=O)(O)OC[C@@H]4[C@H]([C@H]([C@@H](O4)n5cnc6c5N=C(NC6=O)N)O)O)O)O

$$$$
