4PUM_2WU_A_404
  RCSB PDB12061714183D
Coordinates from PDB:4PUM:A:404 Model:1 without hydrogens
 17 19  0  0  0  0            999 V2000
  106.3700   18.0110   18.1270   N 0  0  0  0  0  0  0  0  0  0  0  0
  108.3740   18.6750   18.8690   N 0  0  0  0  0  0  0  0  0  0  0  0
  107.5470   18.5190   17.8110   C 0  0  0  0  0  0  0  0  0  0  0  0
  107.1110   18.7890   15.4080   C 0  0  0  0  0  0  0  0  0  0  0  0
  107.6750   18.2560   19.9830   C 0  0  0  0  0  0  0  0  0  0  0  0
  107.9620   18.2580   21.3320   C 0  0  0  0  0  0  0  0  0  0  0  0
  106.9970   17.8670   22.2500   C 0  0  0  0  0  0  0  0  0  0  0  0
  104.9420   17.2700   23.9900   C 0  0  0  0  0  0  0  0  0  0  0  0
  105.7420   17.4260   21.8000   C 0  0  0  0  0  0  0  0  0  0  0  0
  105.4660   17.3960   20.4230   C 0  0  0  0  0  0  0  0  0  0  0  0
  106.4310   17.8370   19.5120   C 0  0  0  0  0  0  0  0  0  0  0  0
  107.9360   18.9040   16.5960   N 0  0  0  0  0  0  0  0  0  0  0  0
  107.2260   18.0050   23.6940   C 0  0  0  0  0  0  0  0  0  0  0  0
  108.2960   18.3480   24.1860   O 0  0  0  0  0  0  0  0  0  0  0  0
  106.1440   17.6990   24.4810   N 0  0  0  0  0  0  0  0  0  0  0  0
  103.9600   17.0640   24.8720   N 0  0  0  0  0  0  0  0  0  0  0  0
  104.7150   17.1060   22.6880   N 0  0  0  0  0  0  0  0  0  0  0  0
  4 12  1  0  0  0  0
 12  3  1  0  0  0  0
  3  1  1  0  0  0  0
  3  2  2  0  0  0  0
  1 11  1  0  0  0  0
  2  5  1  0  0  0  0
 11  5  2  0  0  0  0
 11 10  1  0  0  0  0
  5  6  1  0  0  0  0
 10  9  2  0  0  0  0
  6  7  2  0  0  0  0
  9  7  1  0  0  0  0
  9 17  1  0  0  0  0
  7 13  1  0  0  0  0
 17  8  2  0  0  0  0
 13 14  2  0  0  0  0
 13 15  1  0  0  0  0
  8 15  1  0  0  0  0
  8 16  1  0  0  0  0
A    1
N1
A    2
N3
A    3
C4
A    4
C5
A    5
C6
A    6
C7
A    7
C8
A    8
C10
A    9
C1
A   10
C2
A   11
C3
A   12
N2
A   13
C9
A   14
O1
A   15
N4
A   16
N5
A   17
N6
M  END
>  <InstanceId>
4PUM_2WU_A_404

>  <ChemCompId>
2WU

>  <PdbId>
4PUM

>  <ChainId>
A

>  <ResidueNumber>
404

>  <InsertionCode>


>  <Model>
1

>  <AltIds>


>  <MissingHeavyAtoms>
0

>  <ObservedFormula>
C10 N6 O

>  <Name>
6-amino-2-(methylamino)-3,7-dihydro-8H-imidazo[4,5-g]quinazolin-8-one

>  <SystematicName>
6-azanyl-2-(methylamino)-3,7-dihydroimidazo[4,5-g]quinazolin-8-one

>  <Synonyms>


>  <Type>
NON-POLYMER

>  <Formula>
C10 H10 N6 O

>  <MolecularWeight>
230.226

>  <ModifiedDate>
2014-07-11

>  <Parent>


>  <OneLetterCode>


>  <SubcomponentList>


>  <AmbiguousFlag>
N

>  <InChI>
InChI=1S/C10H10N6O/c1-12-10-14-6-2-4-5(3-7(6)15-10)13-9(11)16-8(4)17/h2-3H,1H3,(H2,12,14,15)(H3,11,13,16,17)

>  <InChIKey>
MRAWGMPHZYODAJ-UHFFFAOYSA-N

>  <SMILES>
CNc1[nH]c2cc3c(cc2n1)C(=O)NC(=N3)N

$$$$
