2BYS_LOB_A_301


 26 28  0  0  0  0  0  0  0  0999 V2000
   -7.9709   24.3372    4.5711 C   0  0  0  0  0  0  0  0  0  0  0  0
   -8.3773   22.9307    4.9714 C   0  0  0  0  0  0  0  0  0  0  0  0
   -9.8714   22.8002    4.7926 C   0  0  0  0  0  0  0  0  0  0  0  0
  -10.1978   22.7620    3.3113 C   0  0  0  0  0  0  0  0  0  0  0  0
   -9.5452   23.8724    2.4814 C   0  0  0  0  0  0  0  0  0  0  0  0
   -8.4847   24.6345    3.2042 N   0  0  0  0  0  0  0  0  0  0  0  0
   -8.5243   26.0627    2.9075 C   0  0  0  0  0  0  0  0  0  0  0  0
   -6.4460   24.5504    4.5486 C   0  0  0  0  0  0  0  0  0  0  0  0
   -5.8522   26.0718    6.2306 O   0  0  0  0  0  0  0  0  0  0  0  0
   -5.7940   24.9081    5.8729 C   0  0  0  0  0  0  0  0  0  0  0  0
   -5.1259   23.9001    6.7855 C   0  0  0  0  0  0  0  0  0  0  0  0
   -4.3555   24.3480    7.8665 C   0  0  0  0  0  0  0  0  0  0  0  0
   -3.7314   23.4379    8.7217 C   0  0  0  0  0  0  0  0  0  0  0  0
   -3.8656   22.0672    8.5080 C   0  0  0  0  0  0  0  0  0  0  0  0
   -4.6304   21.6086    7.4414 C   0  0  0  0  0  0  0  0  0  0  0  0
   -5.2571   22.5220    6.5920 C   0  0  0  0  0  0  0  0  0  0  0  0
   -8.9350   23.2806    1.1948 C   0  0  0  0  0  0  0  0  0  0  0  0
   -8.4063   24.3620    0.2480 C   0  0  0  0  0  0  0  0  0  0  0  0
   -7.0335   24.6077    0.5546 O   0  0  0  0  0  0  0  0  0  0  0  0
   -6.5174   23.8019    0.3955 H   0  0  0  0  0  0  0  0  0  0  0  0
   -8.5128   24.0296   -1.2036 C   0  0  0  0  0  0  0  0  0  0  0  0
   -9.1125   24.8934   -2.1197 C   0  0  0  0  0  0  0  0  0  0  0  0
   -9.2015   24.5488   -3.4705 C   0  0  0  0  0  0  0  0  0  0  0  0
   -8.7005   23.3290   -3.9227 C   0  0  0  0  0  0  0  0  0  0  0  0
   -8.1152   22.4536   -3.0070 C   0  0  0  0  0  0  0  0  0  0  0  0
   -8.0276   22.8005   -1.6581 C   0  0  0  0  0  0  0  0  0  0  0  0
  9 10  2  0  0  0
 10 11  1  0  0  0
 10  8  1  0  0  0
 11 12  2  0  0  0
 11 16  1  0  0  0
 12 13  1  0  0  0
 13 14  2  0  0  0
 14 15  1  0  0  0
 15 16  2  0  0  0
  8  1  1  0  0  0
  1  2  1  0  0  0
  1  6  1  0  0  0
  2  3  1  0  0  0
  3  4  1  0  0  0
  4  5  1  0  0  0
  5  6  1  0  0  0
  5 17  1  0  0  0
  6  7  1  0  0  0
 17 18  1  0  0  0
 18 19  1  0  0  0
 18 21  1  0  0  0
 21 22  2  0  0  0
 21 26  1  0  0  0
 22 23  1  0  0  0
 23 24  2  0  0  0
 24 25  1  0  0  0
 25 26  2  0  0  0
 19 20  1  0  0  0
M  END
> <minimizedAffinity>
-11.28971

$$$$
2BYS_LOB_A_301


 26 28  0  0  0  0  0  0  0  0999 V2000
   -8.1301   24.0384    4.6834 C   0  0  0  0  0  0  0  0  0  0  0  0
   -8.6471   22.6279    4.8998 C   0  0  0  0  0  0  0  0  0  0  0  0
  -10.1114   22.5981    4.5309 C   0  0  0  0  0  0  0  0  0  0  0  0
  -10.2512   22.7064    3.0240 C   0  0  0  0  0  0  0  0  0  0  0  0
   -9.4501   23.8455    2.3852 C   0  0  0  0  0  0  0  0  0  0  0  0
   -8.4547   24.4811    3.2980 N   0  0  0  0  0  0  0  0  0  0  0  0
   -8.3917   25.9295    3.1322 C   0  0  0  0  0  0  0  0  0  0  0  0
   -6.6062   24.1660    4.8647 C   0  0  0  0  0  0  0  0  0  0  0  0
   -5.9615   22.2199    6.0020 O   0  0  0  0  0  0  0  0  0  0  0  0
   -6.0037   23.4369    6.0530 C   0  0  0  0  0  0  0  0  0  0  0  0
   -5.4150   24.1341    7.2624 C   0  0  0  0  0  0  0  0  0  0  0  0
   -4.9372   23.3726    8.3369 C   0  0  0  0  0  0  0  0  0  0  0  0
   -4.3894   23.9927    9.4614 C   0  0  0  0  0  0  0  0  0  0  0  0
   -4.3133   25.3827    9.5301 C   0  0  0  0  0  0  0  0  0  0  0  0
   -4.7801   26.1508    8.4694 C   0  0  0  0  0  0  0  0  0  0  0  0
   -5.3220   25.5264    7.3447 C   0  0  0  0  0  0  0  0  0  0  0  0
   -8.7113   23.3334    1.1323 C   0  0  0  0  0  0  0  0  0  0  0  0
   -8.3303   24.4662    0.1748 C   0  0  0  0  0  0  0  0  0  0  0  0
   -6.9824   24.8559    0.4396 O   0  0  0  0  0  0  0  0  0  0  0  0
   -6.3890   24.1097    0.2605 H   0  0  0  0  0  0  0  0  0  0  0  0
   -8.4468   24.1266   -1.2744 C   0  0  0  0  0  0  0  0  0  0  0  0
   -8.8726   25.0573   -2.2218 C   0  0  0  0  0  0  0  0  0  0  0  0
   -8.9766   24.7048   -3.5696 C   0  0  0  0  0  0  0  0  0  0  0  0
   -8.6656   23.4118   -3.9874 C   0  0  0  0  0  0  0  0  0  0  0  0
   -8.2558   22.4720   -3.0407 C   0  0  0  0  0  0  0  0  0  0  0  0
   -8.1528   22.8269   -1.6950 C   0  0  0  0  0  0  0  0  0  0  0  0
  9 10  2  0  0  0
 10 11  1  0  0  0
 10  8  1  0  0  0
 11 12  2  0  0  0
 11 16  1  0  0  0
 12 13  1  0  0  0
 13 14  2  0  0  0
 14 15  1  0  0  0
 15 16  2  0  0  0
  8  1  1  0  0  0
  1  2  1  0  0  0
  1  6  1  0  0  0
  2  3  1  0  0  0
  3  4  1  0  0  0
  4  5  1  0  0  0
  5  6  1  0  0  0
  5 17  1  0  0  0
  6  7  1  0  0  0
 17 18  1  0  0  0
 18 19  1  0  0  0
 18 21  1  0  0  0
 21 22  2  0  0  0
 21 26  1  0  0  0
 22 23  1  0  0  0
 23 24  2  0  0  0
 24 25  1  0  0  0
 25 26  2  0  0  0
 19 20  1  0  0  0
M  END
> <minimizedAffinity>
-11.23002

$$$$
2BYS_LOB_A_301


 26 28  0  0  0  0  0  0  0  0999 V2000
   -9.4132   24.2411    2.1011 C   0  0  0  0  0  0  0  0  0  0  0  0
   -8.5393   25.4602    1.8695 C   0  0  0  0  0  0  0  0  0  0  0  0
   -8.5958   26.3255    3.1062 C   0  0  0  0  0  0  0  0  0  0  0  0
   -7.8242   25.6515    4.2254 C   0  0  0  0  0  0  0  0  0  0  0  0
   -8.1800   24.1789    4.4540 C   0  0  0  0  0  0  0  0  0  0  0  0
   -9.0126   23.5748    3.3724 N   0  0  0  0  0  0  0  0  0  0  0  0
  -10.0378   22.6769    3.8940 C   0  0  0  0  0  0  0  0  0  0  0  0
   -9.3113   23.1929    0.9775 C   0  0  0  0  0  0  0  0  0  0  0  0
   -7.0683   23.4253    0.3360 O   0  0  0  0  0  0  0  0  0  0  0  0
   -8.2219   23.4151   -0.0572 C   0  0  0  0  0  0  0  0  0  0  0  0
   -8.4853   23.5743   -1.5407 C   0  0  0  0  0  0  0  0  0  0  0  0
   -8.1807   22.5230   -2.4152 C   0  0  0  0  0  0  0  0  0  0  0  0
   -8.4158   22.6461   -3.7858 C   0  0  0  0  0  0  0  0  0  0  0  0
   -8.9560   23.8221   -4.3033 C   0  0  0  0  0  0  0  0  0  0  0  0
   -9.2667   24.8720   -3.4465 C   0  0  0  0  0  0  0  0  0  0  0  0
   -9.0351   24.7426   -2.0760 C   0  0  0  0  0  0  0  0  0  0  0  0
   -6.8934   23.3429    4.6089 C   0  0  0  0  0  0  0  0  0  0  0  0
   -6.5890   23.0047    6.0712 C   0  0  0  0  0  0  0  0  0  0  0  0
   -6.0080   21.7016    6.1285 O   0  0  0  0  0  0  0  0  0  0  0  0
   -5.1659   21.7016    5.6470 H   0  0  0  0  0  0  0  0  0  0  0  0
   -5.6700   23.9610    6.7565 C   0  0  0  0  0  0  0  0  0  0  0  0
   -4.9831   24.9561    6.0615 C   0  0  0  0  0  0  0  0  0  0  0  0
   -4.1254   25.8311    6.7326 C   0  0  0  0  0  0  0  0  0  0  0  0
   -3.9346   25.7160    8.1087 C   0  0  0  0  0  0  0  0  0  0  0  0
   -4.6061   24.7109    8.8060 C   0  0  0  0  0  0  0  0  0  0  0  0
   -5.4623   23.8383    8.1329 C   0  0  0  0  0  0  0  0  0  0  0  0
  9 10  2  0  0  0
 10 11  1  0  0  0
 10  8  1  0  0  0
 11 12  2  0  0  0
 11 16  1  0  0  0
 12 13  1  0  0  0
 13 14  2  0  0  0
 14 15  1  0  0  0
 15 16  2  0  0  0
  8  1  1  0  0  0
  1  2  1  0  0  0
  1  6  1  0  0  0
  2  3  1  0  0  0
  3  4  1  0  0  0
  4  5  1  0  0  0
  5  6  1  0  0  0
  5 17  1  0  0  0
  6  7  1  0  0  0
 17 18  1  0  0  0
 18 19  1  0  0  0
 18 21  1  0  0  0
 21 22  2  0  0  0
 21 26  1  0  0  0
 22 23  1  0  0  0
 23 24  2  0  0  0
 24 25  1  0  0  0
 25 26  2  0  0  0
 19 20  1  0  0  0
M  END
> <minimizedAffinity>
-10.27581

$$$$
2BYS_LOB_A_301


 26 28  0  0  0  0  0  0  0  0999 V2000
  -10.5047   22.9342    3.0366 C   0  0  0  0  0  0  0  0  0  0  0  0
  -11.0585   24.3473    3.0417 C   0  0  0  0  0  0  0  0  0  0  0  0
  -11.8343   24.5477    4.3220 C   0  0  0  0  0  0  0  0  0  0  0  0
  -10.8658   24.6353    5.4867 C   0  0  0  0  0  0  0  0  0  0  0  0
   -9.8194   23.5173    5.5370 C   0  0  0  0  0  0  0  0  0  0  0  0
   -9.7444   22.6923    4.2953 N   0  0  0  0  0  0  0  0  0  0  0  0
   -9.5466   21.2747    4.5791 C   0  0  0  0  0  0  0  0  0  0  0  0
   -9.5517   22.6547    1.8597 C   0  0  0  0  0  0  0  0  0  0  0  0
   -8.2102   24.5502    2.1816 O   0  0  0  0  0  0  0  0  0  0  0  0
   -8.7422   23.8347    1.3507 C   0  0  0  0  0  0  0  0  0  0  0  0
   -8.5225   24.1385   -0.1172 C   0  0  0  0  0  0  0  0  0  0  0  0
   -8.2884   25.4585   -0.5241 C   0  0  0  0  0  0  0  0  0  0  0  0
   -8.0819   25.7625   -1.8710 C   0  0  0  0  0  0  0  0  0  0  0  0
   -8.1091   24.7528   -2.8314 C   0  0  0  0  0  0  0  0  0  0  0  0
   -8.3364   23.4379   -2.4413 C   0  0  0  0  0  0  0  0  0  0  0  0
   -8.5369   23.1377   -1.0929 C   0  0  0  0  0  0  0  0  0  0  0  0
   -8.4245   24.1120    5.8171 C   0  0  0  0  0  0  0  0  0  0  0  0
   -7.3003   23.0974    5.5888 C   0  0  0  0  0  0  0  0  0  0  0  0
   -6.9154   23.1419    4.2144 O   0  0  0  0  0  0  0  0  0  0  0  0
   -6.5627   24.0211    4.0058 H   0  0  0  0  0  0  0  0  0  0  0  0
   -6.0833   23.3128    6.4263 C   0  0  0  0  0  0  0  0  0  0  0  0
   -5.6127   24.5887    6.7357 C   0  0  0  0  0  0  0  0  0  0  0  0
   -4.4667   24.7550    7.5170 C   0  0  0  0  0  0  0  0  0  0  0  0
   -3.7684   23.6457    7.9916 C   0  0  0  0  0  0  0  0  0  0  0  0
   -4.2252   22.3669    7.6702 C   0  0  0  0  0  0  0  0  0  0  0  0
   -5.3705   22.2037    6.8895 C   0  0  0  0  0  0  0  0  0  0  0  0
  9 10  2  0  0  0
 10 11  1  0  0  0
 10  8  1  0  0  0
 11 12  2  0  0  0
 11 16  1  0  0  0
 12 13  1  0  0  0
 13 14  2  0  0  0
 14 15  1  0  0  0
 15 16  2  0  0  0
  8  1  1  0  0  0
  1  2  1  0  0  0
  1  6  1  0  0  0
  2  3  1  0  0  0
  3  4  1  0  0  0
  4  5  1  0  0  0
  5  6  1  0  0  0
  5 17  1  0  0  0
  6  7  1  0  0  0
 17 18  1  0  0  0
 18 19  1  0  0  0
 18 21  1  0  0  0
 21 22  2  0  0  0
 21 26  1  0  0  0
 22 23  1  0  0  0
 23 24  2  0  0  0
 24 25  1  0  0  0
 25 26  2  0  0  0
 19 20  1  0  0  0
M  END
> <minimizedAffinity>
-9.17994

$$$$
2BYS_LOB_A_301


 26 28  0  0  0  0  0  0  0  0999 V2000
   -5.9390   23.4666    6.1046 C   0  0  0  0  0  0  0  0  0  0  0  0
   -5.7066   22.3781    7.1365 C   0  0  0  0  0  0  0  0  0  0  0  0
   -4.2191   22.2531    7.3666 C   0  0  0  0  0  0  0  0  0  0  0  0
   -3.7276   23.4634    8.1385 C   0  0  0  0  0  0  0  0  0  0  0  0
   -4.1795   24.8131    7.5717 C   0  0  0  0  0  0  0  0  0  0  0  0
   -5.2460   24.7147    6.5320 N   0  0  0  0  0  0  0  0  0  0  0  0
   -5.0471   25.6602    5.4384 C   0  0  0  0  0  0  0  0  0  0  0  0
   -7.4264   23.8097    5.9016 C   0  0  0  0  0  0  0  0  0  0  0  0
   -8.4976   21.9404    4.9772 O   0  0  0  0  0  0  0  0  0  0  0  0
   -8.1386   23.0868    4.7716 C   0  0  0  0  0  0  0  0  0  0  0  0
   -8.4661   23.7221    3.4357 C   0  0  0  0  0  0  0  0  0  0  0  0
   -9.1312   22.9728    2.4565 C   0  0  0  0  0  0  0  0  0  0  0  0
   -9.4446   23.5372    1.2187 C   0  0  0  0  0  0  0  0  0  0  0  0
   -9.0959   24.8575    0.9399 C   0  0  0  0  0  0  0  0  0  0  0  0
   -8.4390   25.6140    1.9038 C   0  0  0  0  0  0  0  0  0  0  0  0
   -8.1324   25.0474    3.1421 C   0  0  0  0  0  0  0  0  0  0  0  0
   -4.6857   25.7211    8.7107 C   0  0  0  0  0  0  0  0  0  0  0  0
   -3.9325   27.0530    8.7747 C   0  0  0  0  0  0  0  0  0  0  0  0
   -4.2196   27.7988    7.5913 O   0  0  0  0  0  0  0  0  0  0  0  0
   -5.1678   28.0005    7.5584 H   0  0  0  0  0  0  0  0  0  0  0  0
   -4.2611   27.9017    9.9581 C   0  0  0  0  0  0  0  0  0  0  0  0
   -4.8177   29.1737    9.8264 C   0  0  0  0  0  0  0  0  0  0  0  0
   -5.1075   29.9446   10.9547 C   0  0  0  0  0  0  0  0  0  0  0  0
   -4.8345   29.4574   12.2320 C   0  0  0  0  0  0  0  0  0  0  0  0
   -4.2614   28.1924   12.3685 C   0  0  0  0  0  0  0  0  0  0  0  0
   -3.9730   27.4244   11.2395 C   0  0  0  0  0  0  0  0  0  0  0  0
  9 10  2  0  0  0
 10 11  1  0  0  0
 10  8  1  0  0  0
 11 12  2  0  0  0
 11 16  1  0  0  0
 12 13  1  0  0  0
 13 14  2  0  0  0
 14 15  1  0  0  0
 15 16  2  0  0  0
  8  1  1  0  0  0
  1  2  1  0  0  0
  1  6  1  0  0  0
  2  3  1  0  0  0
  3  4  1  0  0  0
  4  5  1  0  0  0
  5  6  1  0  0  0
  5 17  1  0  0  0
  6  7  1  0  0  0
 17 18  1  0  0  0
 18 19  1  0  0  0
 18 21  1  0  0  0
 21 22  2  0  0  0
 21 26  1  0  0  0
 22 23  1  0  0  0
 23 24  2  0  0  0
 24 25  1  0  0  0
 25 26  2  0  0  0
 19 20  1  0  0  0
M  END
> <minimizedAffinity>
-9.00569

$$$$
2BYS_LOB_A_301


 26 28  0  0  0  0  0  0  0  0999 V2000
   -7.5717   24.8652    5.0956 C   0  0  0  0  0  0  0  0  0  0  0  0
   -7.6660   23.4741    5.6951 C   0  0  0  0  0  0  0  0  0  0  0  0
   -9.1148   23.0476    5.6771 C   0  0  0  0  0  0  0  0  0  0  0  0
   -9.5330   22.7528    4.2487 C   0  0  0  0  0  0  0  0  0  0  0  0
   -9.1710   23.8437    3.2356 C   0  0  0  0  0  0  0  0  0  0  0  0
   -8.2304   24.8778    3.7590 N   0  0  0  0  0  0  0  0  0  0  0  0
   -8.5691   26.2216    3.3022 C   0  0  0  0  0  0  0  0  0  0  0  0
   -6.1232   25.3511    4.9021 C   0  0  0  0  0  0  0  0  0  0  0  0
   -4.7247   26.3489    6.4974 O   0  0  0  0  0  0  0  0  0  0  0  0
   -5.2246   25.3013    6.1255 C   0  0  0  0  0  0  0  0  0  0  0  0
   -4.9580   24.0441    6.9277 C   0  0  0  0  0  0  0  0  0  0  0  0
   -5.0109   24.0906    8.3269 C   0  0  0  0  0  0  0  0  0  0  0  0
   -4.7701   22.9447    9.0871 C   0  0  0  0  0  0  0  0  0  0  0  0
   -4.4704   21.7362    8.4609 C   0  0  0  0  0  0  0  0  0  0  0  0
   -4.4185   21.6745    7.0730 C   0  0  0  0  0  0  0  0  0  0  0  0
   -4.6653   22.8215    6.3166 C   0  0  0  0  0  0  0  0  0  0  0  0
   -8.5512   23.2085    1.9746 C   0  0  0  0  0  0  0  0  0  0  0  0
   -9.4301   23.3946    0.7344 C   0  0  0  0  0  0  0  0  0  0  0  0
  -10.5190   24.2552    1.0698 O   0  0  0  0  0  0  0  0  0  0  0  0
  -10.1765   25.1279    1.3190 H   0  0  0  0  0  0  0  0  0  0  0  0
   -8.7260   23.9657   -0.4518 C   0  0  0  0  0  0  0  0  0  0  0  0
   -8.3623   23.1816   -1.5463 C   0  0  0  0  0  0  0  0  0  0  0  0
   -7.6984   23.7466   -2.6379 C   0  0  0  0  0  0  0  0  0  0  0  0
   -7.3794   25.1035   -2.6453 C   0  0  0  0  0  0  0  0  0  0  0  0
   -7.7255   25.8888   -1.5449 C   0  0  0  0  0  0  0  0  0  0  0  0
   -8.3887   25.3217   -0.4558 C   0  0  0  0  0  0  0  0  0  0  0  0
  9 10  2  0  0  0
 10 11  1  0  0  0
 10  8  1  0  0  0
 11 12  2  0  0  0
 11 16  1  0  0  0
 12 13  1  0  0  0
 13 14  2  0  0  0
 14 15  1  0  0  0
 15 16  2  0  0  0
  8  1  1  0  0  0
  1  2  1  0  0  0
  1  6  1  0  0  0
  2  3  1  0  0  0
  3  4  1  0  0  0
  4  5  1  0  0  0
  5  6  1  0  0  0
  5 17  1  0  0  0
  6  7  1  0  0  0
 17 18  1  0  0  0
 18 19  1  0  0  0
 18 21  1  0  0  0
 21 22  2  0  0  0
 21 26  1  0  0  0
 22 23  1  0  0  0
 23 24  2  0  0  0
 24 25  1  0  0  0
 25 26  2  0  0  0
 19 20  1  0  0  0
M  END
> <minimizedAffinity>
-8.37822

$$$$
