2ZWZ_ZWZ_A_901


 18 18  0  0  0  0  0  0  0  0999 V2000
   -3.2837   25.9131   24.9533 O   0  0  0  0  0  0  0  0  0  0  0  0
   -1.9152   26.3156   24.8735 C   0  0  0  0  0  0  0  0  0  0  0  0
   -1.7433   27.3799   23.7881 C   0  0  0  0  0  0  0  0  0  0  0  0
   -2.2543   26.9085   22.5404 O   0  0  0  0  0  0  0  0  0  0  0  0
   -0.2511   27.6798   23.6562 C   0  0  0  0  0  0  0  0  0  0  0  0
    0.3851   26.4785   23.2031 O   0  0  0  0  0  0  0  0  0  0  0  0
    0.3018   28.1304   25.0129 C   0  0  0  0  0  0  0  0  0  0  0  0
    1.8081   28.3832   24.9446 C   0  0  0  0  0  0  0  0  0  0  0  0
    0.0339   27.1306   26.0624 N   0  0  0  0  0  0  0  0  0  0  0  0
   -1.4081   26.8760   26.2074 C   0  0  0  0  0  0  0  0  0  0  0  0
   -3.5690   25.5651   24.0940 H   0  0  0  0  0  0  0  0  0  0  0  0
   -1.7778   26.1052   22.2786 H   0  0  0  0  0  0  0  0  0  0  0  0
    0.2173   25.7645   23.8379 H   0  0  0  0  0  0  0  0  0  0  0  0
    0.4008   27.4747   26.9497 H   0  0  0  0  0  0  0  0  0  0  0  0
   -1.6204   25.8749   27.3460 C   0  0  0  0  0  0  0  0  0  0  0  0
   -1.5597   26.5517   28.6515 N   0  0  0  0  0  0  0  0  0  0  0  0
   -0.6427   26.9827   28.7687 H   0  0  0  0  0  0  0  0  0  0  0  0
   -1.7127   25.8704   29.3951 H   0  0  0  0  0  0  0  0  0  0  0  0
  1  2  1  0  0  0
  2  3  1  0  0  0
  2 10  1  0  0  0
  3  4  1  0  0  0
  3  5  1  0  0  0
  5  6  1  0  0  0
  5  7  1  0  0  0
  7  8  1  0  0  0
  7  9  1  0  0  0
  9 10  1  0  0  0
 10 15  1  0  0  0
 15 16  1  0  0  0
  1 11  1  0  0  0
  4 12  1  0  0  0
  6 13  1  0  0  0
  9 14  1  0  0  0
 16 17  1  0  0  0
 16 18  1  0  0  0
M  END
> <minimizedAffinity>
-8.23053

$$$$
2ZWZ_ZWZ_A_901


 18 18  0  0  0  0  0  0  0  0999 V2000
   -2.5818   27.4609   23.6448 O   0  0  0  0  0  0  0  0  0  0  0  0
   -2.3338   27.3238   25.0451 C   0  0  0  0  0  0  0  0  0  0  0  0
   -3.4660   26.5336   25.7040 C   0  0  0  0  0  0  0  0  0  0  0  0
   -4.7282   27.1402   25.4231 O   0  0  0  0  0  0  0  0  0  0  0  0
   -3.2189   26.5270   27.2117 C   0  0  0  0  0  0  0  0  0  0  0  0
   -3.3058   27.8844   27.6622 O   0  0  0  0  0  0  0  0  0  0  0  0
   -1.8385   25.9268   27.5010 C   0  0  0  0  0  0  0  0  0  0  0  0
   -1.5205   25.9558   28.9961 C   0  0  0  0  0  0  0  0  0  0  0  0
   -0.7761   26.6450   26.7742 N   0  0  0  0  0  0  0  0  0  0  0  0
   -1.0030   26.6140   25.3206 C   0  0  0  0  0  0  0  0  0  0  0  0
   -3.4293   27.9128   23.5093 H   0  0  0  0  0  0  0  0  0  0  0  0
   -4.7330   28.0488   25.7627 H   0  0  0  0  0  0  0  0  0  0  0  0
   -2.6495   28.4233   27.1934 H   0  0  0  0  0  0  0  0  0  0  0  0
    0.1213   26.2057   26.9792 H   0  0  0  0  0  0  0  0  0  0  0  0
    0.1597   27.3259   24.6243 C   0  0  0  0  0  0  0  0  0  0  0  0
    0.4376   26.7110   23.3164 N   0  0  0  0  0  0  0  0  0  0  0  0
    0.6921   25.7321   23.4481 H   0  0  0  0  0  0  0  0  0  0  0  0
    1.2077   27.2048   22.8653 H   0  0  0  0  0  0  0  0  0  0  0  0
  1  2  1  0  0  0
  2  3  1  0  0  0
  2 10  1  0  0  0
  3  4  1  0  0  0
  3  5  1  0  0  0
  5  6  1  0  0  0
  5  7  1  0  0  0
  7  8  1  0  0  0
  7  9  1  0  0  0
  9 10  1  0  0  0
 10 15  1  0  0  0
 15 16  1  0  0  0
  1 11  1  0  0  0
  4 12  1  0  0  0
  6 13  1  0  0  0
  9 14  1  0  0  0
 16 17  1  0  0  0
 16 18  1  0  0  0
M  END
> <minimizedAffinity>
-5.93319

$$$$
2ZWZ_ZWZ_A_901


 18 18  0  0  0  0  0  0  0  0999 V2000
   -3.2677   27.7311   28.6543 O   0  0  0  0  0  0  0  0  0  0  0  0
   -2.2786   26.9108   29.2788 C   0  0  0  0  0  0  0  0  0  0  0  0
   -2.6409   26.6769   30.7466 C   0  0  0  0  0  0  0  0  0  0  0  0
   -2.8307   27.9227   31.4192 O   0  0  0  0  0  0  0  0  0  0  0  0
   -1.4927   25.9072   31.3971 C   0  0  0  0  0  0  0  0  0  0  0  0
   -0.3370   26.7532   31.3557 O   0  0  0  0  0  0  0  0  0  0  0  0
   -1.2579   24.5983   30.6348 C   0  0  0  0  0  0  0  0  0  0  0  0
   -0.0751   23.8211   31.2131 C   0  0  0  0  0  0  0  0  0  0  0  0
   -1.0104   24.8462   29.2030 N   0  0  0  0  0  0  0  0  0  0  0  0
   -2.1377   25.5551   28.5769 C   0  0  0  0  0  0  0  0  0  0  0  0
   -3.3289   28.5778   29.1236 H   0  0  0  0  0  0  0  0  0  0  0  0
   -2.0142   28.4440   31.3707 H   0  0  0  0  0  0  0  0  0  0  0  0
   -0.1380   26.9839   30.4347 H   0  0  0  0  0  0  0  0  0  0  0  0
   -0.8767   23.9525   28.7299 H   0  0  0  0  0  0  0  0  0  0  0  0
   -1.8427   25.7310   27.0851 C   0  0  0  0  0  0  0  0  0  0  0  0
   -0.6635   26.5889   26.8858 N   0  0  0  0  0  0  0  0  0  0  0  0
   -0.8401   27.5087   27.2896 H   0  0  0  0  0  0  0  0  0  0  0  0
   -0.4784   26.6857   25.8874 H   0  0  0  0  0  0  0  0  0  0  0  0
  1  2  1  0  0  0
  2  3  1  0  0  0
  2 10  1  0  0  0
  3  4  1  0  0  0
  3  5  1  0  0  0
  5  6  1  0  0  0
  5  7  1  0  0  0
  7  8  1  0  0  0
  7  9  1  0  0  0
  9 10  1  0  0  0
 10 15  1  0  0  0
 15 16  1  0  0  0
  1 11  1  0  0  0
  4 12  1  0  0  0
  6 13  1  0  0  0
  9 14  1  0  0  0
 16 17  1  0  0  0
 16 18  1  0  0  0
M  END
> <minimizedAffinity>
-5.52272

$$$$
2ZWZ_ZWZ_A_901


 18 18  0  0  0  0  0  0  0  0999 V2000
   -1.0679   26.0809   27.8309 O   0  0  0  0  0  0  0  0  0  0  0  0
   -2.4793   26.2885   27.9074 C   0  0  0  0  0  0  0  0  0  0  0  0
   -2.8193   27.1397   29.1323 C   0  0  0  0  0  0  0  0  0  0  0  0
   -2.2827   26.5481   30.3165 O   0  0  0  0  0  0  0  0  0  0  0  0
   -4.3410   27.2229   29.2389 C   0  0  0  0  0  0  0  0  0  0  0  0
   -4.8235   25.8945   29.4751 O   0  0  0  0  0  0  0  0  0  0  0  0
   -4.9134   27.8058   27.9420 C   0  0  0  0  0  0  0  0  0  0  0  0
   -6.4412   27.8510   27.9781 C   0  0  0  0  0  0  0  0  0  0  0  0
   -4.4879   27.0243   26.7668 N   0  0  0  0  0  0  0  0  0  0  0  0
   -3.0215   26.9811   26.6517 C   0  0  0  0  0  0  0  0  0  0  0  0
   -0.7613   25.6421   28.6399 H   0  0  0  0  0  0  0  0  0  0  0  0
   -2.6550   25.6598   30.4314 H   0  0  0  0  0  0  0  0  0  0  0  0
   -4.5459   25.3157   28.7480 H   0  0  0  0  0  0  0  0  0  0  0  0
   -4.8741   27.4532   25.9258 H   0  0  0  0  0  0  0  0  0  0  0  0
   -2.6486   26.2054   25.3857 C   0  0  0  0  0  0  0  0  0  0  0  0
   -1.3057   26.5862   24.9191 N   0  0  0  0  0  0  0  0  0  0  0  0
   -1.2911   27.5828   24.7019 H   0  0  0  0  0  0  0  0  0  0  0  0
   -1.0726   26.0524   24.0818 H   0  0  0  0  0  0  0  0  0  0  0  0
  1  2  1  0  0  0
  2  3  1  0  0  0
  2 10  1  0  0  0
  3  4  1  0  0  0
  3  5  1  0  0  0
  5  6  1  0  0  0
  5  7  1  0  0  0
  7  8  1  0  0  0
  7  9  1  0  0  0
  9 10  1  0  0  0
 10 15  1  0  0  0
 15 16  1  0  0  0
  1 11  1  0  0  0
  4 12  1  0  0  0
  6 13  1  0  0  0
  9 14  1  0  0  0
 16 17  1  0  0  0
 16 18  1  0  0  0
M  END
> <minimizedAffinity>
-5.45985

$$$$
2ZWZ_ZWZ_A_901


 18 18  0  0  0  0  0  0  0  0999 V2000
   -0.8574   25.9729   27.5663 O   0  0  0  0  0  0  0  0  0  0  0  0
   -2.0768   26.5385   28.0503 C   0  0  0  0  0  0  0  0  0  0  0  0
   -3.1267   26.5534   26.9377 C   0  0  0  0  0  0  0  0  0  0  0  0
   -2.6234   27.2295   25.7846 O   0  0  0  0  0  0  0  0  0  0  0  0
   -4.3615   27.2812   27.4667 C   0  0  0  0  0  0  0  0  0  0  0  0
   -3.9758   28.6359   27.7297 O   0  0  0  0  0  0  0  0  0  0  0  0
   -4.8617   26.5833   28.7363 C   0  0  0  0  0  0  0  0  0  0  0  0
   -6.0623   27.3143   29.3378 C   0  0  0  0  0  0  0  0  0  0  0  0
   -3.8000   26.4930   29.7548 N   0  0  0  0  0  0  0  0  0  0  0  0
   -2.6298   25.7583   29.2487 C   0  0  0  0  0  0  0  0  0  0  0  0
   -0.5382   26.4909   26.8109 H   0  0  0  0  0  0  0  0  0  0  0  0
   -2.3937   28.1422   26.0195 H   0  0  0  0  0  0  0  0  0  0  0  0
   -3.2501   28.6463   28.3732 H   0  0  0  0  0  0  0  0  0  0  0  0
   -4.1667   26.0087   30.5742 H   0  0  0  0  0  0  0  0  0  0  0  0
   -1.5914   25.6524   30.3684 C   0  0  0  0  0  0  0  0  0  0  0  0
   -0.8719   26.9258   30.5325 N   0  0  0  0  0  0  0  0  0  0  0  0
   -0.3875   27.1568   29.6651 H   0  0  0  0  0  0  0  0  0  0  0  0
   -0.1925   26.8375   31.2882 H   0  0  0  0  0  0  0  0  0  0  0  0
  1  2  1  0  0  0
  2  3  1  0  0  0
  2 10  1  0  0  0
  3  4  1  0  0  0
  3  5  1  0  0  0
  5  6  1  0  0  0
  5  7  1  0  0  0
  7  8  1  0  0  0
  7  9  1  0  0  0
  9 10  1  0  0  0
 10 15  1  0  0  0
 15 16  1  0  0  0
  1 11  1  0  0  0
  4 12  1  0  0  0
  6 13  1  0  0  0
  9 14  1  0  0  0
 16 17  1  0  0  0
 16 18  1  0  0  0
M  END
> <minimizedAffinity>
-5.38648

$$$$
2ZWZ_ZWZ_A_901


 18 18  0  0  0  0  0  0  0  0999 V2000
   -3.3484   26.4941   29.5996 O   0  0  0  0  0  0  0  0  0  0  0  0
   -2.8319   26.7298   28.2885 C   0  0  0  0  0  0  0  0  0  0  0  0
   -2.1216   25.4775   27.7710 C   0  0  0  0  0  0  0  0  0  0  0  0
   -1.1159   25.0561   28.6936 O   0  0  0  0  0  0  0  0  0  0  0  0
   -1.4802   25.8224   26.4280 C   0  0  0  0  0  0  0  0  0  0  0  0
   -0.4865   26.8243   26.6766 O   0  0  0  0  0  0  0  0  0  0  0  0
   -2.5573   26.3277   25.4616 C   0  0  0  0  0  0  0  0  0  0  0  0
   -1.9520   26.7443   24.1209 C   0  0  0  0  0  0  0  0  0  0  0  0
   -3.2941   27.4722   26.0275 N   0  0  0  0  0  0  0  0  0  0  0  0
   -3.9392   27.1196   27.3023 C   0  0  0  0  0  0  0  0  0  0  0  0
   -2.6218   26.2507   30.1943 H   0  0  0  0  0  0  0  0  0  0  0  0
   -0.4662   25.7668   28.8105 H   0  0  0  0  0  0  0  0  0  0  0  0
   -0.9036   27.5992   27.0846 H   0  0  0  0  0  0  0  0  0  0  0  0
   -4.0104   27.7665   25.3637 H   0  0  0  0  0  0  0  0  0  0  0  0
   -4.7301   28.3294   27.8064 C   0  0  0  0  0  0  0  0  0  0  0  0
   -6.0676   28.3684   27.1935 N   0  0  0  0  0  0  0  0  0  0  0  0
   -5.9754   28.4436   26.1805 H   0  0  0  0  0  0  0  0  0  0  0  0
   -6.5811   29.1749   27.5489 H   0  0  0  0  0  0  0  0  0  0  0  0
  1  2  1  0  0  0
  2  3  1  0  0  0
  2 10  1  0  0  0
  3  4  1  0  0  0
  3  5  1  0  0  0
  5  6  1  0  0  0
  5  7  1  0  0  0
  7  8  1  0  0  0
  7  9  1  0  0  0
  9 10  1  0  0  0
 10 15  1  0  0  0
 15 16  1  0  0  0
  1 11  1  0  0  0
  4 12  1  0  0  0
  6 13  1  0  0  0
  9 14  1  0  0  0
 16 17  1  0  0  0
 16 18  1  0  0  0
M  END
> <minimizedAffinity>
-5.36712

$$$$
