2ZWZ_ZWZ_A_901
  RCSB PDB12061707473D
Coordinates from PDB:2ZWZ:A:901 Model:1 without hydrogens
 12 12  0  0  0  0            999 V2000
   -3.1150   26.0590   24.4980   O 0  0  0  0  0  0  0  0  0  0  0  0
   -1.7520   26.4870   24.5090   C 0  0  0  0  0  0  0  0  0  0  0  0
   -1.5670   27.6750   23.5630   C 0  0  0  0  0  0  0  0  0  0  0  0
   -2.0330   27.3480   22.2530   O 0  0  0  0  0  0  0  0  0  0  0  0
   -0.0770   28.0090   23.5140   C 0  0  0  0  0  0  0  0  0  0  0  0
    0.5930   26.8790   22.9420   O 0  0  0  0  0  0  0  0  0  0  0  0
    0.4280   28.3030   24.9310   C 0  0  0  0  0  0  0  0  0  0  0  0
    1.9310   28.5830   24.9400   C 0  0  0  0  0  0  0  0  0  0  0  0
    0.1470   27.1820   25.8460   N 0  0  0  0  0  0  0  0  0  0  0  0
   -1.2940   26.8920   25.9150   C 0  0  0  0  0  0  0  0  0  0  0  0
   -1.5220   25.7600   26.9200   C 0  0  0  0  0  0  0  0  0  0  0  0
   -1.5400   26.2820   28.2960   N 0  0  0  0  0  0  0  0  0  0  0  0
  1  2  1  0  0  0  0
  2  3  1  0  0  0  0
  2 10  1  0  0  0  0
  3  4  1  0  0  0  0
  3  5  1  0  0  0  0
  5  6  1  0  0  0  0
  5  7  1  0  0  0  0
  7  8  1  0  0  0  0
  7  9  1  0  0  0  0
  9 10  1  0  0  0  0
 10 11  1  0  0  0  0
 11 12  1  0  0  0  0
A    1
OAE
A    2
CAK
A    3
CAJ
A    4
OAD
A    5
CAI
A    6
OAC
A    7
CAH
A    8
CAA
A    9
NAG
A   10
CAL
A   11
CAF
A   12
NAB
M  END
>  <InstanceId>
2ZWZ_ZWZ_A_901

>  <ChemCompId>
ZWZ

>  <PdbId>
2ZWZ

>  <ChainId>
A

>  <ResidueNumber>
901

>  <InsertionCode>


>  <Model>
1

>  <AltIds>


>  <MissingHeavyAtoms>
0

>  <ObservedFormula>
C7 N2 O3

>  <Name>
(2R,3R,4R,5R,6S)-2-(aminomethyl)-6-methylpiperidine-3,4,5-triol

>  <SystematicName>
(2R,3R,4R,5R,6S)-2-(aminomethyl)-6-methyl-piperidine-3,4,5-triol

>  <Synonyms>


>  <Type>
NON-POLYMER

>  <Formula>
C7 H16 N2 O3

>  <MolecularWeight>
176.214

>  <ModifiedDate>
2011-06-04

>  <Parent>


>  <OneLetterCode>


>  <SubcomponentList>


>  <AmbiguousFlag>
N

>  <InChI>
InChI=1S/C7H16N2O3/c1-3-5(10)7(12)6(11)4(2-8)9-3/h3-7,9-12H,2,8H2,1H3/t3-,4+,5+,6+,7+/m0/s1

>  <InChIKey>
AKIVXVRDQKFDJC-CQOGJGKDSA-N

>  <SMILES>
C[C@H]1[C@H]([C@H]([C@@H]([C@H](N1)CN)O)O)O

$$$$
