5DIT_5B8_A_201


 50 54  0  0  0  0  0  0  0  0999 V2000
   -7.4618    1.9539  -28.5937 C   0  0  0  0  0  0  0  0  0  0  0  0
   -6.4003    1.1690  -29.0819 C   0  0  0  0  0  0  0  0  0  0  0  0
   -6.3091   -0.1454  -28.6606 C   0  0  0  0  0  0  0  0  0  0  0  0
   -5.4906    1.6176  -30.0367 C   0  0  0  0  0  0  0  0  0  0  0  0
   -4.4801    0.7790  -30.5133 C   0  0  0  0  0  0  0  0  0  0  0  0
   -4.3867   -0.5368  -30.0558 C   0  0  0  0  0  0  0  0  0  0  0  0
   -5.3209   -0.9916  -29.1273 C   0  0  0  0  0  0  0  0  0  0  0  0
   -5.3185   -2.2395  -28.5919 O   0  0  0  0  0  0  0  0  0  0  0  0
   -4.9886   -3.3222  -29.4212 C   0  0  0  0  0  0  0  0  0  0  0  0
   -6.2769   -3.6352  -30.1704 C   0  0  0  0  0  0  0  0  0  0  0  0
   -6.9126   -4.9149  -29.7421 N   0  0  0  0  0  0  0  0  0  0  0  0
   -6.5568   -6.0816  -30.5743 C   0  0  0  0  0  0  0  0  0  0  0  0
   -7.3239   -7.3295  -30.1376 C   0  0  0  0  0  0  0  0  0  0  0  0
   -8.7452   -7.0250  -30.0750 O   0  0  0  0  0  0  0  0  0  0  0  0
   -8.9987   -6.0991  -29.0447 C   0  0  0  0  0  0  0  0  0  0  0  0
   -8.3748   -4.7954  -29.5624 C   0  0  0  0  0  0  0  0  0  0  0  0
   -8.7543    1.9290  -29.3980 C   0  0  0  0  0  0  0  0  0  0  0  0
   -8.8910    3.1340  -30.2929 C   0  0  0  0  0  0  0  0  0  0  0  0
   -9.2481    4.3414  -29.6247 C   0  0  0  0  0  0  0  0  0  0  0  0
   -8.5642    5.5635  -29.7870 C   0  0  0  0  0  0  0  0  0  0  0  0
  -10.2959    4.2740  -28.7114 C   0  0  0  0  0  0  0  0  0  0  0  0
  -10.6906    5.3920  -28.0010 C   0  0  0  0  0  0  0  0  0  0  0  0
  -10.0369    6.6075  -28.1704 C   0  0  0  0  0  0  0  0  0  0  0  0
   -8.9558    6.6995  -29.0582 C   0  0  0  0  0  0  0  0  0  0  0  0
  -10.4578    7.6819  -27.4220 O   0  0  0  0  0  0  0  0  0  0  0  0
  -11.6940    7.7135  -26.6885 C   0  0  0  0  0  0  0  0  0  0  0  0
   -8.3723    7.9288  -29.1677 O   0  0  0  0  0  0  0  0  0  0  0  0
   -8.5312    8.6370  -30.4087 C   0  0  0  0  0  0  0  0  0  0  0  0
   -7.7494    1.3781  -27.2998 O   0  0  0  0  0  0  0  0  0  0  0  0
   -7.9315    2.2430  -26.2516 C   0  0  0  0  0  0  0  0  0  0  0  0
   -8.0642    3.4642  -26.3874 O   0  0  0  0  0  0  0  0  0  0  0  0
   -9.1774   -0.4754  -25.1600 C   0  0  0  0  0  0  0  0  0  0  0  0
  -10.2368    0.1640  -25.1021 O   0  0  0  0  0  0  0  0  0  0  0  0
   -7.9516    0.1394  -25.0855 N   0  0  0  0  0  0  0  0  0  0  0  0
   -6.6137   -0.5627  -25.2004 C   0  0  0  0  0  0  0  0  0  0  0  0
   -5.5419   -0.0280  -24.3259 C   0  0  0  0  0  0  0  0  0  0  0  0
   -5.5073    1.4688  -24.5507 C   0  0  0  0  0  0  0  0  0  0  0  0
   -6.8014    2.1168  -24.0972 C   0  0  0  0  0  0  0  0  0  0  0  0
   -7.9602    1.6354  -24.9644 C   0  0  0  0  0  0  0  0  0  0  0  0
   -9.2417   -2.0269  -25.3183 C   0  0  0  0  0  0  0  0  0  0  0  0
  -10.4774   -3.0898  -23.2480 C   0  0  0  0  0  0  0  0  0  0  0  0
  -11.9364   -3.3894  -22.8934 C   0  0  0  0  0  0  0  0  0  0  0  0
  -12.3118   -4.6704  -23.6117 C   0  0  0  0  0  0  0  0  0  0  0  0
  -12.3357   -4.4242  -25.1119 C   0  0  0  0  0  0  0  0  0  0  0  0
  -11.0080   -3.8372  -25.6033 C   0  0  0  0  0  0  0  0  0  0  0  0
  -10.5638   -2.6405  -24.7497 C   0  0  0  0  0  0  0  0  0  0  0  0
   -9.0523   -2.4144  -26.8061 C   0  0  0  0  0  0  0  0  0  0  0  0
   -9.5172   -1.2893  -27.7258 C   0  0  0  0  0  0  0  0  0  0  0  0
   -7.6678   -2.6505  -27.0833 O   0  0  0  0  0  0  0  0  0  0  0  0
   -7.1620   -1.8395  -26.9175 H   0  0  0  0  0  0  0  0  0  0  0  0
 14 13  1  0  0  0
 14 15  1  0  0  0
 13 12  1  0  0  0
 15 16  1  0  0  0
 12 11  1  0  0  0
 16 11  1  0  0  0
 11 10  1  0  0  0
  6  5  2  0  0  0
  6  7  1  0  0  0
  5  4  1  0  0  0
  9  8  1  0  0  0
  9 10  1  0  0  0
  8  7  1  0  0  0
  7  3  2  0  0  0
  4  2  2  0  0  0
 18 19  1  0  0  0
 18 17  1  0  0  0
  3  2  1  0  0  0
  2  1  1  0  0  0
 21 19  2  0  0  0
 21 22  1  0  0  0
 19 20  1  0  0  0
 17  1  1  0  0  0
 48 47  1  0  0  0
 22 23  2  0  0  0
 49 47  1  0  0  0
 20 24  2  0  0  0
  1 29  1  0  0  0
 47 40  1  0  0  0
 23 24  1  0  0  0
 23 25  1  0  0  0
 24 27  1  0  0  0
 28 27  1  0  0  0
 25 26  1  0  0  0
 29 30  1  0  0  0
 40 32  1  0  0  0
 40 46  1  0  0  0
 35 34  1  0  0  0
 35 36  1  0  0  0
 30 31  2  0  0  0
 30 39  1  0  0  0
 32 34  1  0  0  0
 32 33  2  0  0  0
 46 41  1  0  0  0
 46 45  1  0  0  0
 34 39  1  0  0  0
 41 42  1  0  0  0
 36 37  1  0  0  0
 39 38  1  0  0  0
 42 43  1  0  0  0
 37 38  1  0  0  0
 45 44  1  0  0  0
 43 44  1  0  0  0
 49 50  1  0  0  0
M  END
> <minimizedAffinity>
-8.51355

$$$$
5DIT_5B8_A_201


 50 54  0  0  0  0  0  0  0  0999 V2000
   -7.2210    2.7665  -28.7750 C   0  0  0  0  0  0  0  0  0  0  0  0
   -5.9857    2.5880  -29.4258 C   0  0  0  0  0  0  0  0  0  0  0  0
   -5.7347    1.3709  -30.0334 C   0  0  0  0  0  0  0  0  0  0  0  0
   -5.0407    3.6013  -29.5692 C   0  0  0  0  0  0  0  0  0  0  0  0
   -3.8478    3.3760  -30.2604 C   0  0  0  0  0  0  0  0  0  0  0  0
   -3.5995    2.1321  -30.8438 C   0  0  0  0  0  0  0  0  0  0  0  0
   -4.5637    1.1329  -30.7280 C   0  0  0  0  0  0  0  0  0  0  0  0
   -4.4263   -0.1211  -31.2305 O   0  0  0  0  0  0  0  0  0  0  0  0
   -3.2722   -0.8494  -30.9043 C   0  0  0  0  0  0  0  0  0  0  0  0
   -3.7222   -1.8069  -29.8090 C   0  0  0  0  0  0  0  0  0  0  0  0
   -4.5959   -2.9074  -30.3096 N   0  0  0  0  0  0  0  0  0  0  0  0
   -5.6588   -3.3180  -29.3705 C   0  0  0  0  0  0  0  0  0  0  0  0
   -6.4440   -4.5137  -29.9092 C   0  0  0  0  0  0  0  0  0  0  0  0
   -5.5165   -5.5672  -30.2922 O   0  0  0  0  0  0  0  0  0  0  0  0
   -4.7398   -5.1543  -31.3919 C   0  0  0  0  0  0  0  0  0  0  0  0
   -3.8268   -4.0671  -30.8077 C   0  0  0  0  0  0  0  0  0  0  0  0
   -8.4411    2.1529  -29.4479 C   0  0  0  0  0  0  0  0  0  0  0  0
   -9.2448    3.1749  -30.2102 C   0  0  0  0  0  0  0  0  0  0  0  0
   -9.3696    4.4417  -29.5686 C   0  0  0  0  0  0  0  0  0  0  0  0
  -10.3581    4.7454  -28.6104 C   0  0  0  0  0  0  0  0  0  0  0  0
   -8.4959    5.4461  -29.9741 C   0  0  0  0  0  0  0  0  0  0  0  0
   -8.5647    6.7113  -29.4223 C   0  0  0  0  0  0  0  0  0  0  0  0
   -9.5216    7.0147  -28.4601 C   0  0  0  0  0  0  0  0  0  0  0  0
  -10.4379    6.0339  -28.0551 C   0  0  0  0  0  0  0  0  0  0  0  0
   -9.5580    8.2956  -27.9607 O   0  0  0  0  0  0  0  0  0  0  0  0
  -10.2328    9.3892  -28.6056 C   0  0  0  0  0  0  0  0  0  0  0  0
  -11.3416    6.4130  -27.1048 O   0  0  0  0  0  0  0  0  0  0  0  0
  -12.7258    6.4815  -27.4870 C   0  0  0  0  0  0  0  0  0  0  0  0
   -7.0439    2.0928  -27.5088 O   0  0  0  0  0  0  0  0  0  0  0  0
   -7.5533    2.7051  -26.3927 C   0  0  0  0  0  0  0  0  0  0  0  0
   -7.9415    3.8783  -26.3729 O   0  0  0  0  0  0  0  0  0  0  0  0
   -8.6625   -0.2289  -25.8499 C   0  0  0  0  0  0  0  0  0  0  0  0
   -9.7661    0.3263  -25.7585 O   0  0  0  0  0  0  0  0  0  0  0  0
   -7.4894    0.4374  -25.5933 N   0  0  0  0  0  0  0  0  0  0  0  0
   -6.1008   -0.1530  -25.7326 C   0  0  0  0  0  0  0  0  0  0  0  0
   -5.1201    0.2902  -24.7121 C   0  0  0  0  0  0  0  0  0  0  0  0
   -5.1791    1.8028  -24.6843 C   0  0  0  0  0  0  0  0  0  0  0  0
   -6.5391    2.2855  -24.2179 C   0  0  0  0  0  0  0  0  0  0  0  0
   -7.6107    1.8882  -25.2281 C   0  0  0  0  0  0  0  0  0  0  0  0
   -8.6078   -1.7325  -26.2658 C   0  0  0  0  0  0  0  0  0  0  0  0
  -10.8066   -1.9299  -24.8273 C   0  0  0  0  0  0  0  0  0  0  0  0
  -11.6160   -3.0885  -24.2387 C   0  0  0  0  0  0  0  0  0  0  0  0
  -10.9037   -3.5283  -22.9750 C   0  0  0  0  0  0  0  0  0  0  0  0
   -9.5659   -4.1540  -23.3365 C   0  0  0  0  0  0  0  0  0  0  0  0
   -8.7195   -3.2070  -24.1943 C   0  0  0  0  0  0  0  0  0  0  0  0
   -9.5195   -2.6413  -25.3767 C   0  0  0  0  0  0  0  0  0  0  0  0
   -8.9783   -1.8803  -27.7626 C   0  0  0  0  0  0  0  0  0  0  0  0
   -9.4266   -3.3048  -28.0751 C   0  0  0  0  0  0  0  0  0  0  0  0
  -10.0637   -1.0070  -28.0920 O   0  0  0  0  0  0  0  0  0  0  0  0
  -10.8423   -1.2459  -27.5650 H   0  0  0  0  0  0  0  0  0  0  0  0
 14 13  1  0  0  0
 14 15  1  0  0  0
 13 12  1  0  0  0
 15 16  1  0  0  0
 12 11  1  0  0  0
 16 11  1  0  0  0
 11 10  1  0  0  0
  6  5  2  0  0  0
  6  7  1  0  0  0
  5  4  1  0  0  0
  9  8  1  0  0  0
  9 10  1  0  0  0
  8  7  1  0  0  0
  7  3  2  0  0  0
  4  2  2  0  0  0
 18 19  1  0  0  0
 18 17  1  0  0  0
  3  2  1  0  0  0
  2  1  1  0  0  0
 21 19  2  0  0  0
 21 22  1  0  0  0
 19 20  1  0  0  0
 17  1  1  0  0  0
 48 47  1  0  0  0
 22 23  2  0  0  0
 49 47  1  0  0  0
 20 24  2  0  0  0
  1 29  1  0  0  0
 47 40  1  0  0  0
 23 24  1  0  0  0
 23 25  1  0  0  0
 24 27  1  0  0  0
 28 27  1  0  0  0
 25 26  1  0  0  0
 29 30  1  0  0  0
 40 32  1  0  0  0
 40 46  1  0  0  0
 35 34  1  0  0  0
 35 36  1  0  0  0
 30 31  2  0  0  0
 30 39  1  0  0  0
 32 34  1  0  0  0
 32 33  2  0  0  0
 46 41  1  0  0  0
 46 45  1  0  0  0
 34 39  1  0  0  0
 41 42  1  0  0  0
 36 37  1  0  0  0
 39 38  1  0  0  0
 42 43  1  0  0  0
 37 38  1  0  0  0
 45 44  1  0  0  0
 43 44  1  0  0  0
 49 50  1  0  0  0
M  END
> <minimizedAffinity>
-8.45899

$$$$
5DIT_5B8_A_201


 50 54  0  0  0  0  0  0  0  0999 V2000
   -7.1841    2.8506  -28.5775 C   0  0  0  0  0  0  0  0  0  0  0  0
   -6.2859    1.9754  -29.2168 C   0  0  0  0  0  0  0  0  0  0  0  0
   -6.5449    0.6176  -29.1651 C   0  0  0  0  0  0  0  0  0  0  0  0
   -5.2012    2.4090  -29.9756 C   0  0  0  0  0  0  0  0  0  0  0  0
   -4.3660    1.4935  -30.6202 C   0  0  0  0  0  0  0  0  0  0  0  0
   -4.6270    0.1246  -30.5341 C   0  0  0  0  0  0  0  0  0  0  0  0
   -5.7340   -0.3020  -29.8033 C   0  0  0  0  0  0  0  0  0  0  0  0
   -6.0757   -1.6044  -29.6275 O   0  0  0  0  0  0  0  0  0  0  0  0
   -5.5989   -2.5507  -30.5472 C   0  0  0  0  0  0  0  0  0  0  0  0
   -4.8156   -3.5448  -29.7003 C   0  0  0  0  0  0  0  0  0  0  0  0
   -3.3765   -3.6395  -30.0814 N   0  0  0  0  0  0  0  0  0  0  0  0
   -2.4868   -2.7250  -29.3381 C   0  0  0  0  0  0  0  0  0  0  0  0
   -1.0503   -2.8069  -29.8540 C   0  0  0  0  0  0  0  0  0  0  0  0
   -1.0459   -2.6353  -31.2988 O   0  0  0  0  0  0  0  0  0  0  0  0
   -1.6868   -3.7249  -31.9193 C   0  0  0  0  0  0  0  0  0  0  0  0
   -3.1637   -3.5450  -31.5410 C   0  0  0  0  0  0  0  0  0  0  0  0
   -8.3959    3.2938  -29.3856 C   0  0  0  0  0  0  0  0  0  0  0  0
   -8.3525    4.7634  -29.7170 C   0  0  0  0  0  0  0  0  0  0  0  0
   -9.2806    5.5698  -28.9957 C   0  0  0  0  0  0  0  0  0  0  0  0
   -9.0620    6.9245  -28.6721 C   0  0  0  0  0  0  0  0  0  0  0  0
  -10.4363    4.9470  -28.5344 C   0  0  0  0  0  0  0  0  0  0  0  0
  -11.3772    5.6487  -27.8045 C   0  0  0  0  0  0  0  0  0  0  0  0
  -11.1814    6.9910  -27.4993 C   0  0  0  0  0  0  0  0  0  0  0  0
  -10.0114    7.6381  -27.9209 C   0  0  0  0  0  0  0  0  0  0  0  0
  -12.1402    7.6344  -26.7521 O   0  0  0  0  0  0  0  0  0  0  0  0
  -13.4998    7.8211  -27.1808 C   0  0  0  0  0  0  0  0  0  0  0  0
   -9.8992    8.9558  -27.5824 O   0  0  0  0  0  0  0  0  0  0  0  0
  -10.3923    9.9311  -28.5164 C   0  0  0  0  0  0  0  0  0  0  0  0
   -7.6731    2.0831  -27.4549 O   0  0  0  0  0  0  0  0  0  0  0  0
   -7.8196    2.7385  -26.2595 C   0  0  0  0  0  0  0  0  0  0  0  0
   -7.9859    3.9594  -26.1645 O   0  0  0  0  0  0  0  0  0  0  0  0
   -8.7509   -0.2521  -25.6916 C   0  0  0  0  0  0  0  0  0  0  0  0
   -9.8729    0.2469  -25.5285 O   0  0  0  0  0  0  0  0  0  0  0  0
   -7.5985    0.4686  -25.4952 N   0  0  0  0  0  0  0  0  0  0  0  0
   -6.1935   -0.0512  -25.7232 C   0  0  0  0  0  0  0  0  0  0  0  0
   -5.1770    0.4293  -24.7560 C   0  0  0  0  0  0  0  0  0  0  0  0
   -5.3077    1.9368  -24.7049 C   0  0  0  0  0  0  0  0  0  0  0  0
   -6.6597    2.3470  -24.1534 C   0  0  0  0  0  0  0  0  0  0  0  0
   -7.7684    1.9078  -25.1045 C   0  0  0  0  0  0  0  0  0  0  0  0
   -8.6478   -1.7468  -26.1298 C   0  0  0  0  0  0  0  0  0  0  0  0
  -10.8998   -1.9697  -24.7801 C   0  0  0  0  0  0  0  0  0  0  0  0
  -11.7583   -3.1388  -24.2900 C   0  0  0  0  0  0  0  0  0  0  0  0
  -11.1018   -3.6723  -23.0321 C   0  0  0  0  0  0  0  0  0  0  0  0
   -9.7684   -4.3116  -23.3859 C   0  0  0  0  0  0  0  0  0  0  0  0
   -8.8690   -3.3386  -24.1561 C   0  0  0  0  0  0  0  0  0  0  0  0
   -9.6126   -2.6819  -25.3282 C   0  0  0  0  0  0  0  0  0  0  0  0
   -8.9037   -1.8697  -27.6525 C   0  0  0  0  0  0  0  0  0  0  0  0
   -9.5006   -3.2310  -27.9969 C   0  0  0  0  0  0  0  0  0  0  0  0
   -9.8372   -0.8717  -28.0792 O   0  0  0  0  0  0  0  0  0  0  0  0
  -10.6822   -1.0025  -27.6212 H   0  0  0  0  0  0  0  0  0  0  0  0
 14 13  1  0  0  0
 14 15  1  0  0  0
 13 12  1  0  0  0
 15 16  1  0  0  0
 12 11  1  0  0  0
 16 11  1  0  0  0
 11 10  1  0  0  0
  6  5  2  0  0  0
  6  7  1  0  0  0
  5  4  1  0  0  0
  9  8  1  0  0  0
  9 10  1  0  0  0
  8  7  1  0  0  0
  7  3  2  0  0  0
  4  2  2  0  0  0
 18 19  1  0  0  0
 18 17  1  0  0  0
  3  2  1  0  0  0
  2  1  1  0  0  0
 21 19  2  0  0  0
 21 22  1  0  0  0
 19 20  1  0  0  0
 17  1  1  0  0  0
 48 47  1  0  0  0
 22 23  2  0  0  0
 49 47  1  0  0  0
 20 24  2  0  0  0
  1 29  1  0  0  0
 47 40  1  0  0  0
 23 24  1  0  0  0
 23 25  1  0  0  0
 24 27  1  0  0  0
 28 27  1  0  0  0
 25 26  1  0  0  0
 29 30  1  0  0  0
 40 32  1  0  0  0
 40 46  1  0  0  0
 35 34  1  0  0  0
 35 36  1  0  0  0
 30 31  2  0  0  0
 30 39  1  0  0  0
 32 34  1  0  0  0
 32 33  2  0  0  0
 46 41  1  0  0  0
 46 45  1  0  0  0
 34 39  1  0  0  0
 41 42  1  0  0  0
 36 37  1  0  0  0
 39 38  1  0  0  0
 42 43  1  0  0  0
 37 38  1  0  0  0
 45 44  1  0  0  0
 43 44  1  0  0  0
 49 50  1  0  0  0
M  END
> <minimizedAffinity>
-8.44931

$$$$
5DIT_5B8_A_201


 50 54  0  0  0  0  0  0  0  0999 V2000
   -6.3118    1.4415  -28.1552 C   0  0  0  0  0  0  0  0  0  0  0  0
   -6.0858    0.2280  -28.8319 C   0  0  0  0  0  0  0  0  0  0  0  0
   -4.9901   -0.5327  -28.4657 C   0  0  0  0  0  0  0  0  0  0  0  0
   -6.9569   -0.2916  -29.7867 C   0  0  0  0  0  0  0  0  0  0  0  0
   -6.7000   -1.5215  -30.3972 C   0  0  0  0  0  0  0  0  0  0  0  0
   -5.5738   -2.2628  -30.0345 C   0  0  0  0  0  0  0  0  0  0  0  0
   -4.7247   -1.7553  -29.0532 C   0  0  0  0  0  0  0  0  0  0  0  0
   -3.5890   -2.3710  -28.6348 O   0  0  0  0  0  0  0  0  0  0  0  0
   -2.8119   -3.0555  -29.5816 C   0  0  0  0  0  0  0  0  0  0  0  0
   -1.9399   -1.9771  -30.2107 C   0  0  0  0  0  0  0  0  0  0  0  0
   -0.4802   -2.2709  -30.1194 N   0  0  0  0  0  0  0  0  0  0  0  0
    0.0937   -2.8939  -31.3289 C   0  0  0  0  0  0  0  0  0  0  0  0
    1.5640   -3.2571  -31.1218 C   0  0  0  0  0  0  0  0  0  0  0  0
    1.7013   -4.0359  -29.9005 O   0  0  0  0  0  0  0  0  0  0  0  0
    1.3922   -3.2407  -28.7801 C   0  0  0  0  0  0  0  0  0  0  0  0
   -0.1224   -3.0184  -28.8956 C   0  0  0  0  0  0  0  0  0  0  0  0
   -6.5142    2.6774  -29.0210 C   0  0  0  0  0  0  0  0  0  0  0  0
   -5.4131    3.6896  -28.8342 C   0  0  0  0  0  0  0  0  0  0  0  0
   -4.2519    3.4683  -29.6309 C   0  0  0  0  0  0  0  0  0  0  0  0
   -4.1130    2.4010  -30.5415 C   0  0  0  0  0  0  0  0  0  0  0  0
   -3.1762    4.3293  -29.4357 C   0  0  0  0  0  0  0  0  0  0  0  0
   -2.0024    4.1705  -30.1479 C   0  0  0  0  0  0  0  0  0  0  0  0
   -1.8635    3.1344  -31.0648 C   0  0  0  0  0  0  0  0  0  0  0  0
   -2.9169    2.2301  -31.2594 C   0  0  0  0  0  0  0  0  0  0  0  0
   -0.6659    3.0111  -31.7299 O   0  0  0  0  0  0  0  0  0  0  0  0
    0.3450    4.0330  -31.7580 C   0  0  0  0  0  0  0  0  0  0  0  0
   -2.6999    1.2449  -32.1790 O   0  0  0  0  0  0  0  0  0  0  0  0
   -3.8072    0.3955  -32.5240 C   0  0  0  0  0  0  0  0  0  0  0  0
   -7.5455    1.2117  -27.4386 O   0  0  0  0  0  0  0  0  0  0  0  0
   -7.8661    2.0923  -26.4376 C   0  0  0  0  0  0  0  0  0  0  0  0
   -8.0706    3.2966  -26.6254 O   0  0  0  0  0  0  0  0  0  0  0  0
   -9.1706   -0.5886  -25.3221 C   0  0  0  0  0  0  0  0  0  0  0  0
  -10.2283    0.0561  -25.3278 O   0  0  0  0  0  0  0  0  0  0  0  0
   -7.9461    0.0235  -25.2133 N   0  0  0  0  0  0  0  0  0  0  0  0
   -6.6080   -0.6866  -25.2508 C   0  0  0  0  0  0  0  0  0  0  0  0
   -5.5716   -0.1307  -24.3472 C   0  0  0  0  0  0  0  0  0  0  0  0
   -5.5201    1.3588  -24.6135 C   0  0  0  0  0  0  0  0  0  0  0  0
   -6.8290    2.0246  -24.2344 C   0  0  0  0  0  0  0  0  0  0  0  0
   -7.9524    1.5224  -25.1359 C   0  0  0  0  0  0  0  0  0  0  0  0
   -9.2357   -2.1439  -25.4382 C   0  0  0  0  0  0  0  0  0  0  0  0
  -10.4698   -3.1243  -23.3266 C   0  0  0  0  0  0  0  0  0  0  0  0
  -11.9277   -3.4187  -22.9631 C   0  0  0  0  0  0  0  0  0  0  0  0
  -12.2919   -4.7325  -23.6257 C   0  0  0  0  0  0  0  0  0  0  0  0
  -12.3132   -4.5522  -25.1353 C   0  0  0  0  0  0  0  0  0  0  0  0
  -10.9883   -3.9776  -25.6484 C   0  0  0  0  0  0  0  0  0  0  0  0
  -10.5551   -2.7416  -24.8467 C   0  0  0  0  0  0  0  0  0  0  0  0
   -9.0537   -2.5714  -26.9159 C   0  0  0  0  0  0  0  0  0  0  0  0
   -9.6538   -1.5349  -27.8611 C   0  0  0  0  0  0  0  0  0  0  0  0
   -7.6616   -2.6835  -27.2303 O   0  0  0  0  0  0  0  0  0  0  0  0
   -7.2330   -1.8214  -27.1122 H   0  0  0  0  0  0  0  0  0  0  0  0
 14 13  1  0  0  0
 14 15  1  0  0  0
 13 12  1  0  0  0
 15 16  1  0  0  0
 12 11  1  0  0  0
 16 11  1  0  0  0
 11 10  1  0  0  0
  6  5  2  0  0  0
  6  7  1  0  0  0
  5  4  1  0  0  0
  9  8  1  0  0  0
  9 10  1  0  0  0
  8  7  1  0  0  0
  7  3  2  0  0  0
  4  2  2  0  0  0
 18 19  1  0  0  0
 18 17  1  0  0  0
  3  2  1  0  0  0
  2  1  1  0  0  0
 21 19  2  0  0  0
 21 22  1  0  0  0
 19 20  1  0  0  0
 17  1  1  0  0  0
 48 47  1  0  0  0
 22 23  2  0  0  0
 49 47  1  0  0  0
 20 24  2  0  0  0
  1 29  1  0  0  0
 47 40  1  0  0  0
 23 24  1  0  0  0
 23 25  1  0  0  0
 24 27  1  0  0  0
 28 27  1  0  0  0
 25 26  1  0  0  0
 29 30  1  0  0  0
 40 32  1  0  0  0
 40 46  1  0  0  0
 35 34  1  0  0  0
 35 36  1  0  0  0
 30 31  2  0  0  0
 30 39  1  0  0  0
 32 34  1  0  0  0
 32 33  2  0  0  0
 46 41  1  0  0  0
 46 45  1  0  0  0
 34 39  1  0  0  0
 41 42  1  0  0  0
 36 37  1  0  0  0
 39 38  1  0  0  0
 42 43  1  0  0  0
 37 38  1  0  0  0
 45 44  1  0  0  0
 43 44  1  0  0  0
 49 50  1  0  0  0
M  END
> <minimizedAffinity>
-8.38370

$$$$
5DIT_5B8_A_201


 50 54  0  0  0  0  0  0  0  0999 V2000
   -7.2101    2.2451  -28.7651 C   0  0  0  0  0  0  0  0  0  0  0  0
   -6.3222    3.0408  -29.5132 C   0  0  0  0  0  0  0  0  0  0  0  0
   -6.8514    4.0283  -30.3245 C   0  0  0  0  0  0  0  0  0  0  0  0
   -4.9361    2.9476  -29.4106 C   0  0  0  0  0  0  0  0  0  0  0  0
   -4.1044    3.7920  -30.1499 C   0  0  0  0  0  0  0  0  0  0  0  0
   -4.6568    4.7651  -30.9850 C   0  0  0  0  0  0  0  0  0  0  0  0
   -6.0438    4.8778  -31.0570 C   0  0  0  0  0  0  0  0  0  0  0  0
   -6.6964    5.7666  -31.8495 O   0  0  0  0  0  0  0  0  0  0  0  0
   -8.0949    5.8391  -31.7621 C   0  0  0  0  0  0  0  0  0  0  0  0
   -8.3684    7.2048  -31.1465 C   0  0  0  0  0  0  0  0  0  0  0  0
   -9.4198    7.1755  -30.0887 N   0  0  0  0  0  0  0  0  0  0  0  0
   -8.9886    7.7168  -28.7844 C   0  0  0  0  0  0  0  0  0  0  0  0
  -10.0828    7.5590  -27.7288 C   0  0  0  0  0  0  0  0  0  0  0  0
  -10.5349    6.1763  -27.7054 O   0  0  0  0  0  0  0  0  0  0  0  0
  -11.1864    5.8578  -28.9126 C   0  0  0  0  0  0  0  0  0  0  0  0
  -10.0534    5.8475  -29.9484 C   0  0  0  0  0  0  0  0  0  0  0  0
   -7.2982    0.7748  -29.1507 C   0  0  0  0  0  0  0  0  0  0  0  0
   -7.4919    0.5860  -30.6335 C   0  0  0  0  0  0  0  0  0  0  0  0
   -8.8287    0.2935  -31.0325 C   0  0  0  0  0  0  0  0  0  0  0  0
   -9.9230    1.1544  -30.8118 C   0  0  0  0  0  0  0  0  0  0  0  0
   -9.0586   -0.9499  -31.6138 C   0  0  0  0  0  0  0  0  0  0  0  0
  -10.3295   -1.3250  -32.0067 C   0  0  0  0  0  0  0  0  0  0  0  0
  -11.4119   -0.4738  -31.8138 C   0  0  0  0  0  0  0  0  0  0  0  0
  -11.2183    0.7718  -31.2001 C   0  0  0  0  0  0  0  0  0  0  0  0
  -12.6574   -0.9071  -32.2044 O   0  0  0  0  0  0  0  0  0  0  0  0
  -13.1207   -0.8946  -33.5654 C   0  0  0  0  0  0  0  0  0  0  0  0
  -12.3320    1.5470  -31.0515 O   0  0  0  0  0  0  0  0  0  0  0  0
  -12.3601    2.8150  -31.7284 C   0  0  0  0  0  0  0  0  0  0  0  0
   -6.6797    2.3063  -27.4222 O   0  0  0  0  0  0  0  0  0  0  0  0
   -7.5164    2.7579  -26.4343 C   0  0  0  0  0  0  0  0  0  0  0  0
   -8.1820    3.7955  -26.5227 O   0  0  0  0  0  0  0  0  0  0  0  0
   -8.6423   -0.1701  -25.8930 C   0  0  0  0  0  0  0  0  0  0  0  0
   -9.7421    0.3918  -25.7971 O   0  0  0  0  0  0  0  0  0  0  0  0
   -7.4643    0.4885  -25.6390 N   0  0  0  0  0  0  0  0  0  0  0  0
   -6.0798   -0.1103  -25.7837 C   0  0  0  0  0  0  0  0  0  0  0  0
   -5.0931    0.3249  -24.7657 C   0  0  0  0  0  0  0  0  0  0  0  0
   -5.1426    1.8378  -24.7351 C   0  0  0  0  0  0  0  0  0  0  0  0
   -6.4980    2.3282  -24.2634 C   0  0  0  0  0  0  0  0  0  0  0  0
   -7.5753    1.9394  -25.2709 C   0  0  0  0  0  0  0  0  0  0  0  0
   -8.5983   -1.6732  -26.3117 C   0  0  0  0  0  0  0  0  0  0  0  0
  -10.7474   -1.8683  -24.7996 C   0  0  0  0  0  0  0  0  0  0  0  0
  -11.5436   -3.0264  -24.1923 C   0  0  0  0  0  0  0  0  0  0  0  0
  -10.7909   -3.4807  -22.9574 C   0  0  0  0  0  0  0  0  0  0  0  0
   -9.4706   -4.1118  -23.3698 C   0  0  0  0  0  0  0  0  0  0  0  0
   -8.6481   -3.1634  -24.2489 C   0  0  0  0  0  0  0  0  0  0  0  0
   -9.4847   -2.5834  -25.3986 C   0  0  0  0  0  0  0  0  0  0  0  0
   -9.0098   -1.8199  -27.7978 C   0  0  0  0  0  0  0  0  0  0  0  0
   -9.2616   -3.2824  -28.1520 C   0  0  0  0  0  0  0  0  0  0  0  0
  -10.2234   -1.1029  -28.0480 O   0  0  0  0  0  0  0  0  0  0  0  0
  -10.9352   -1.4715  -27.5016 H   0  0  0  0  0  0  0  0  0  0  0  0
 14 13  1  0  0  0
 14 15  1  0  0  0
 13 12  1  0  0  0
 15 16  1  0  0  0
 12 11  1  0  0  0
 16 11  1  0  0  0
 11 10  1  0  0  0
  6  5  2  0  0  0
  6  7  1  0  0  0
  5  4  1  0  0  0
  9  8  1  0  0  0
  9 10  1  0  0  0
  8  7  1  0  0  0
  7  3  2  0  0  0
  4  2  2  0  0  0
 18 19  1  0  0  0
 18 17  1  0  0  0
  3  2  1  0  0  0
  2  1  1  0  0  0
 21 19  2  0  0  0
 21 22  1  0  0  0
 19 20  1  0  0  0
 17  1  1  0  0  0
 48 47  1  0  0  0
 22 23  2  0  0  0
 49 47  1  0  0  0
 20 24  2  0  0  0
  1 29  1  0  0  0
 47 40  1  0  0  0
 23 24  1  0  0  0
 23 25  1  0  0  0
 24 27  1  0  0  0
 28 27  1  0  0  0
 25 26  1  0  0  0
 29 30  1  0  0  0
 40 32  1  0  0  0
 40 46  1  0  0  0
 35 34  1  0  0  0
 35 36  1  0  0  0
 30 31  2  0  0  0
 30 39  1  0  0  0
 32 34  1  0  0  0
 32 33  2  0  0  0
 46 41  1  0  0  0
 46 45  1  0  0  0
 34 39  1  0  0  0
 41 42  1  0  0  0
 36 37  1  0  0  0
 39 38  1  0  0  0
 42 43  1  0  0  0
 37 38  1  0  0  0
 45 44  1  0  0  0
 43 44  1  0  0  0
 49 50  1  0  0  0
M  END
> <minimizedAffinity>
-8.27268

$$$$
5DIT_5B8_A_201


 50 54  0  0  0  0  0  0  0  0999 V2000
   -7.4065    3.1468  -28.4640 C   0  0  0  0  0  0  0  0  0  0  0  0
   -6.2593    2.8160  -29.2096 C   0  0  0  0  0  0  0  0  0  0  0  0
   -5.3515    3.8197  -29.4958 C   0  0  0  0  0  0  0  0  0  0  0  0
   -5.9442    1.5153  -29.5958 C   0  0  0  0  0  0  0  0  0  0  0  0
   -4.7701    1.2419  -30.3016 C   0  0  0  0  0  0  0  0  0  0  0  0
   -3.8785    2.2725  -30.6057 C   0  0  0  0  0  0  0  0  0  0  0  0
   -4.1811    3.5663  -30.1860 C   0  0  0  0  0  0  0  0  0  0  0  0
   -3.4065    4.6517  -30.4422 O   0  0  0  0  0  0  0  0  0  0  0  0
   -2.2197    4.8137  -29.7114 C   0  0  0  0  0  0  0  0  0  0  0  0
   -1.4577    5.9008  -30.4574 C   0  0  0  0  0  0  0  0  0  0  0  0
   -0.2889    5.3814  -31.2252 N   0  0  0  0  0  0  0  0  0  0  0  0
   -0.1684    3.9098  -31.2319 C   0  0  0  0  0  0  0  0  0  0  0  0
    1.1046    3.4604  -31.9488 C   0  0  0  0  0  0  0  0  0  0  0  0
    2.2468    4.1717  -31.3955 O   0  0  0  0  0  0  0  0  0  0  0  0
    2.1583    5.5438  -31.6998 C   0  0  0  0  0  0  0  0  0  0  0  0
    0.9816    6.0335  -30.8440 C   0  0  0  0  0  0  0  0  0  0  0  0
   -8.7436    3.0317  -29.1831 C   0  0  0  0  0  0  0  0  0  0  0  0
   -9.1038    4.2959  -29.9206 C   0  0  0  0  0  0  0  0  0  0  0  0
   -9.5893    5.3540  -29.0980 C   0  0  0  0  0  0  0  0  0  0  0  0
  -10.8151    5.3124  -28.4030 C   0  0  0  0  0  0  0  0  0  0  0  0
   -8.8249    6.5156  -29.0432 C   0  0  0  0  0  0  0  0  0  0  0  0
   -9.2350    7.5996  -28.2902 C   0  0  0  0  0  0  0  0  0  0  0  0
  -10.4316    7.5602  -27.5830 C   0  0  0  0  0  0  0  0  0  0  0  0
  -11.2406    6.4169  -27.6452 C   0  0  0  0  0  0  0  0  0  0  0  0
  -10.8009    8.6753  -26.8675 O   0  0  0  0  0  0  0  0  0  0  0  0
  -10.3022    9.9980  -27.1296 C   0  0  0  0  0  0  0  0  0  0  0  0
  -12.3961    6.4593  -26.9196 O   0  0  0  0  0  0  0  0  0  0  0  0
  -13.6214    6.7151  -27.6267 C   0  0  0  0  0  0  0  0  0  0  0  0
   -7.4108    2.1790  -27.3908 O   0  0  0  0  0  0  0  0  0  0  0  0
   -7.8156    2.6113  -26.1541 C   0  0  0  0  0  0  0  0  0  0  0  0
   -8.1839    3.7677  -25.9204 O   0  0  0  0  0  0  0  0  0  0  0  0
   -8.7514   -0.4292  -26.0400 C   0  0  0  0  0  0  0  0  0  0  0  0
   -9.8777    0.0422  -25.8306 O   0  0  0  0  0  0  0  0  0  0  0  0
   -7.6051    0.2552  -25.7183 N   0  0  0  0  0  0  0  0  0  0  0  0
   -6.1944   -0.2274  -25.9888 C   0  0  0  0  0  0  0  0  0  0  0  0
   -5.1994    0.1090  -24.9418 C   0  0  0  0  0  0  0  0  0  0  0  0
   -5.3347    1.5937  -24.6781 C   0  0  0  0  0  0  0  0  0  0  0  0
   -6.6989    1.9215  -24.1020 C   0  0  0  0  0  0  0  0  0  0  0  0
   -7.7865    1.6238  -25.1291 C   0  0  0  0  0  0  0  0  0  0  0  0
   -8.6357   -1.8457  -26.6854 C   0  0  0  0  0  0  0  0  0  0  0  0
  -10.8073   -2.9564  -25.6886 C   0  0  0  0  0  0  0  0  0  0  0  0
  -11.1240   -4.2820  -24.9912 C   0  0  0  0  0  0  0  0  0  0  0  0
  -10.6914   -4.1355  -23.5458 C   0  0  0  0  0  0  0  0  0  0  0  0
   -9.1762   -4.0305  -23.4764 C   0  0  0  0  0  0  0  0  0  0  0  0
   -8.6528   -2.8996  -24.3687 C   0  0  0  0  0  0  0  0  0  0  0  0
   -9.2405   -2.9736  -25.7854 C   0  0  0  0  0  0  0  0  0  0  0  0
   -9.3001   -1.8446  -28.0847 C   0  0  0  0  0  0  0  0  0  0  0  0
   -8.6828   -0.7748  -28.9803 C   0  0  0  0  0  0  0  0  0  0  0  0
   -9.1021   -3.1085  -28.7271 O   0  0  0  0  0  0  0  0  0  0  0  0
   -8.1522   -3.2655  -28.8459 H   0  0  0  0  0  0  0  0  0  0  0  0
 14 13  1  0  0  0
 14 15  1  0  0  0
 13 12  1  0  0  0
 15 16  1  0  0  0
 12 11  1  0  0  0
 16 11  1  0  0  0
 11 10  1  0  0  0
  6  5  2  0  0  0
  6  7  1  0  0  0
  5  4  1  0  0  0
  9  8  1  0  0  0
  9 10  1  0  0  0
  8  7  1  0  0  0
  7  3  2  0  0  0
  4  2  2  0  0  0
 18 19  1  0  0  0
 18 17  1  0  0  0
  3  2  1  0  0  0
  2  1  1  0  0  0
 21 19  2  0  0  0
 21 22  1  0  0  0
 19 20  1  0  0  0
 17  1  1  0  0  0
 48 47  1  0  0  0
 22 23  2  0  0  0
 49 47  1  0  0  0
 20 24  2  0  0  0
  1 29  1  0  0  0
 47 40  1  0  0  0
 23 24  1  0  0  0
 23 25  1  0  0  0
 24 27  1  0  0  0
 28 27  1  0  0  0
 25 26  1  0  0  0
 29 30  1  0  0  0
 40 32  1  0  0  0
 40 46  1  0  0  0
 35 34  1  0  0  0
 35 36  1  0  0  0
 30 31  2  0  0  0
 30 39  1  0  0  0
 32 34  1  0  0  0
 32 33  2  0  0  0
 46 41  1  0  0  0
 46 45  1  0  0  0
 34 39  1  0  0  0
 41 42  1  0  0  0
 36 37  1  0  0  0
 39 38  1  0  0  0
 42 43  1  0  0  0
 37 38  1  0  0  0
 45 44  1  0  0  0
 43 44  1  0  0  0
 49 50  1  0  0  0
M  END
> <minimizedAffinity>
-8.22650

$$$$
5DIT_5B8_A_201


 50 54  0  0  0  0  0  0  0  0999 V2000
   -7.4068    2.9695  -28.5680 C   0  0  0  0  0  0  0  0  0  0  0  0
   -6.1888    2.7216  -29.2286 C   0  0  0  0  0  0  0  0  0  0  0  0
   -5.8267    1.4076  -29.4646 C   0  0  0  0  0  0  0  0  0  0  0  0
   -5.3735    3.7296  -29.7382 C   0  0  0  0  0  0  0  0  0  0  0  0
   -4.1941    3.4211  -30.4201 C   0  0  0  0  0  0  0  0  0  0  0  0
   -3.8304    2.0887  -30.6249 C   0  0  0  0  0  0  0  0  0  0  0  0
   -4.6675    1.0838  -30.1443 C   0  0  0  0  0  0  0  0  0  0  0  0
   -4.4093   -0.2442  -30.2607 O   0  0  0  0  0  0  0  0  0  0  0  0
   -4.8423   -1.1016  -29.2379 C   0  0  0  0  0  0  0  0  0  0  0  0
   -3.7711   -2.1817  -29.1665 C   0  0  0  0  0  0  0  0  0  0  0  0
   -4.2414   -3.5121  -29.6503 N   0  0  0  0  0  0  0  0  0  0  0  0
   -3.7111   -3.9033  -30.9717 C   0  0  0  0  0  0  0  0  0  0  0  0
   -4.3160   -5.2255  -31.4433 C   0  0  0  0  0  0  0  0  0  0  0  0
   -5.7664   -5.1508  -31.3565 O   0  0  0  0  0  0  0  0  0  0  0  0
   -6.1685   -5.0605  -30.0099 C   0  0  0  0  0  0  0  0  0  0  0  0
   -5.7107   -3.6583  -29.5843 C   0  0  0  0  0  0  0  0  0  0  0  0
   -8.6791    2.6869  -29.3551 C   0  0  0  0  0  0  0  0  0  0  0  0
   -9.3006    3.9458  -29.9033 C   0  0  0  0  0  0  0  0  0  0  0  0
  -10.5980    3.7783  -30.4696 C   0  0  0  0  0  0  0  0  0  0  0  0
  -10.9854    2.6585  -31.2336 C   0  0  0  0  0  0  0  0  0  0  0  0
  -11.5016    4.8235  -30.3037 C   0  0  0  0  0  0  0  0  0  0  0  0
  -12.7725    4.7546  -30.8423 C   0  0  0  0  0  0  0  0  0  0  0  0
  -13.1718    3.6447  -31.5785 C   0  0  0  0  0  0  0  0  0  0  0  0
  -12.2732    2.5900  -31.7921 C   0  0  0  0  0  0  0  0  0  0  0  0
  -14.4406    3.6388  -32.1093 O   0  0  0  0  0  0  0  0  0  0  0  0
  -15.3329    4.7653  -32.0675 C   0  0  0  0  0  0  0  0  0  0  0  0
  -12.7456    1.5377  -32.5221 O   0  0  0  0  0  0  0  0  0  0  0  0
  -11.7919    0.5770  -33.0060 C   0  0  0  0  0  0  0  0  0  0  0  0
   -7.3829    2.0574  -27.4474 O   0  0  0  0  0  0  0  0  0  0  0  0
   -7.7803    2.5454  -26.2292 C   0  0  0  0  0  0  0  0  0  0  0  0
   -8.1119    3.7205  -26.0380 O   0  0  0  0  0  0  0  0  0  0  0  0
   -8.7512   -0.4801  -26.0363 C   0  0  0  0  0  0  0  0  0  0  0  0
   -9.8777    0.0090  -25.8741 O   0  0  0  0  0  0  0  0  0  0  0  0
   -7.6067    0.2038  -25.7071 N   0  0  0  0  0  0  0  0  0  0  0  0
   -6.1945   -0.3016  -25.9223 C   0  0  0  0  0  0  0  0  0  0  0  0
   -5.2245    0.0612  -24.8606 C   0  0  0  0  0  0  0  0  0  0  0  0
   -5.3511    1.5553  -24.6518 C   0  0  0  0  0  0  0  0  0  0  0  0
   -6.7267    1.9161  -24.1248 C   0  0  0  0  0  0  0  0  0  0  0  0
   -7.7894    1.5936  -25.1705 C   0  0  0  0  0  0  0  0  0  0  0  0
   -8.6332   -1.9192  -26.6294 C   0  0  0  0  0  0  0  0  0  0  0  0
  -10.8513   -2.8947  -25.5944 C   0  0  0  0  0  0  0  0  0  0  0  0
  -11.2363   -4.1978  -24.8887 C   0  0  0  0  0  0  0  0  0  0  0  0
  -10.7716   -4.0757  -23.4509 C   0  0  0  0  0  0  0  0  0  0  0  0
   -9.2519   -4.0628  -23.4068 C   0  0  0  0  0  0  0  0  0  0  0  0
   -8.6757   -2.9670  -24.3102 C   0  0  0  0  0  0  0  0  0  0  0  0
   -9.2903   -3.0071  -25.7169 C   0  0  0  0  0  0  0  0  0  0  0  0
   -9.2429   -1.9556  -28.0529 C   0  0  0  0  0  0  0  0  0  0  0  0
   -8.5152   -0.9890  -28.9824 C   0  0  0  0  0  0  0  0  0  0  0  0
   -9.1147   -3.2671  -28.6123 O   0  0  0  0  0  0  0  0  0  0  0  0
   -8.1753   -3.4985  -28.6821 H   0  0  0  0  0  0  0  0  0  0  0  0
 14 13  1  0  0  0
 14 15  1  0  0  0
 13 12  1  0  0  0
 15 16  1  0  0  0
 12 11  1  0  0  0
 16 11  1  0  0  0
 11 10  1  0  0  0
  6  5  2  0  0  0
  6  7  1  0  0  0
  5  4  1  0  0  0
  9  8  1  0  0  0
  9 10  1  0  0  0
  8  7  1  0  0  0
  7  3  2  0  0  0
  4  2  2  0  0  0
 18 19  1  0  0  0
 18 17  1  0  0  0
  3  2  1  0  0  0
  2  1  1  0  0  0
 21 19  2  0  0  0
 21 22  1  0  0  0
 19 20  1  0  0  0
 17  1  1  0  0  0
 48 47  1  0  0  0
 22 23  2  0  0  0
 49 47  1  0  0  0
 20 24  2  0  0  0
  1 29  1  0  0  0
 47 40  1  0  0  0
 23 24  1  0  0  0
 23 25  1  0  0  0
 24 27  1  0  0  0
 28 27  1  0  0  0
 25 26  1  0  0  0
 29 30  1  0  0  0
 40 32  1  0  0  0
 40 46  1  0  0  0
 35 34  1  0  0  0
 35 36  1  0  0  0
 30 31  2  0  0  0
 30 39  1  0  0  0
 32 34  1  0  0  0
 32 33  2  0  0  0
 46 41  1  0  0  0
 46 45  1  0  0  0
 34 39  1  0  0  0
 41 42  1  0  0  0
 36 37  1  0  0  0
 39 38  1  0  0  0
 42 43  1  0  0  0
 37 38  1  0  0  0
 45 44  1  0  0  0
 43 44  1  0  0  0
 49 50  1  0  0  0
M  END
> <minimizedAffinity>
-8.20031

$$$$
5DIT_5B8_A_201


 50 54  0  0  0  0  0  0  0  0999 V2000
   -7.9204    2.5796  -28.5081 C   0  0  0  0  0  0  0  0  0  0  0  0
   -7.5233    1.4274  -29.2124 C   0  0  0  0  0  0  0  0  0  0  0  0
   -8.3646    0.9372  -30.1950 C   0  0  0  0  0  0  0  0  0  0  0  0
   -6.2879    0.8084  -29.0362 C   0  0  0  0  0  0  0  0  0  0  0  0
   -5.9328   -0.3108  -29.7931 C   0  0  0  0  0  0  0  0  0  0  0  0
   -6.8066   -0.8085  -30.7616 C   0  0  0  0  0  0  0  0  0  0  0  0
   -8.0262   -0.1640  -30.9587 C   0  0  0  0  0  0  0  0  0  0  0  0
   -8.9664   -0.5678  -31.8514 O   0  0  0  0  0  0  0  0  0  0  0  0
  -10.3185   -0.4665  -31.4903 C   0  0  0  0  0  0  0  0  0  0  0  0
  -11.0185   -0.0007  -32.7600 C   0  0  0  0  0  0  0  0  0  0  0  0
  -11.3800    1.4464  -32.7376 N   0  0  0  0  0  0  0  0  0  0  0  0
  -10.3800    2.3350  -33.3625 C   0  0  0  0  0  0  0  0  0  0  0  0
  -10.7710    3.8048  -33.2099 C   0  0  0  0  0  0  0  0  0  0  0  0
  -11.0590    4.0848  -31.8115 O   0  0  0  0  0  0  0  0  0  0  0  0
  -12.2128    3.3877  -31.4042 C   0  0  0  0  0  0  0  0  0  0  0  0
  -11.7676    1.9186  -31.3917 C   0  0  0  0  0  0  0  0  0  0  0  0
   -8.9494    3.4730  -29.1871 C   0  0  0  0  0  0  0  0  0  0  0  0
   -8.5607    4.9283  -29.1374 C   0  0  0  0  0  0  0  0  0  0  0  0
   -9.5210    5.7864  -28.5265 C   0  0  0  0  0  0  0  0  0  0  0  0
   -9.3079    7.1580  -28.2799 C   0  0  0  0  0  0  0  0  0  0  0  0
  -10.7081    5.2027  -28.0945 C   0  0  0  0  0  0  0  0  0  0  0  0
  -11.6828    5.9570  -27.4689 C   0  0  0  0  0  0  0  0  0  0  0  0
  -11.4915    7.3152  -27.2412 C   0  0  0  0  0  0  0  0  0  0  0  0
  -10.2922    7.9257  -27.6343 C   0  0  0  0  0  0  0  0  0  0  0  0
  -12.4858    8.0125  -26.5955 O   0  0  0  0  0  0  0  0  0  0  0  0
  -13.7682    8.3041  -27.1765 C   0  0  0  0  0  0  0  0  0  0  0  0
  -10.1866    9.2620  -27.3767 O   0  0  0  0  0  0  0  0  0  0  0  0
  -10.4768   10.1753  -28.4485 C   0  0  0  0  0  0  0  0  0  0  0  0
   -8.5310    2.0561  -27.3074 O   0  0  0  0  0  0  0  0  0  0  0  0
   -8.1452    2.6071  -26.1126 C   0  0  0  0  0  0  0  0  0  0  0  0
   -7.9315    3.8139  -25.9530 O   0  0  0  0  0  0  0  0  0  0  0  0
   -8.8042   -0.4927  -25.8120 C   0  0  0  0  0  0  0  0  0  0  0  0
   -9.9622   -0.1108  -25.5938 O   0  0  0  0  0  0  0  0  0  0  0  0
   -7.7154    0.3057  -25.5610 N   0  0  0  0  0  0  0  0  0  0  0  0
   -6.2747   -0.0659  -25.8482 C   0  0  0  0  0  0  0  0  0  0  0  0
   -5.2873    0.4128  -24.8504 C   0  0  0  0  0  0  0  0  0  0  0  0
   -5.5473    1.8921  -24.6606 C   0  0  0  0  0  0  0  0  0  0  0  0
   -6.9201    2.1305  -24.0617 C   0  0  0  0  0  0  0  0  0  0  0  0
   -8.0026    1.6833  -25.0388 C   0  0  0  0  0  0  0  0  0  0  0  0
   -8.5794   -1.9268  -26.3859 C   0  0  0  0  0  0  0  0  0  0  0  0
  -10.9277   -2.7225  -25.4939 C   0  0  0  0  0  0  0  0  0  0  0  0
  -11.4928   -4.0396  -24.9555 C   0  0  0  0  0  0  0  0  0  0  0  0
  -11.0496   -4.1529  -23.5103 C   0  0  0  0  0  0  0  0  0  0  0  0
   -9.5421   -4.3434  -23.4540 C   0  0  0  0  0  0  0  0  0  0  0  0
   -8.8095   -3.2313  -24.2125 C   0  0  0  0  0  0  0  0  0  0  0  0
   -9.3916   -3.0216  -25.6180 C   0  0  0  0  0  0  0  0  0  0  0  0
   -8.9192   -1.9504  -27.8970 C   0  0  0  0  0  0  0  0  0  0  0  0
   -9.0789   -3.3827  -28.3976 C   0  0  0  0  0  0  0  0  0  0  0  0
  -10.1569   -1.2719  -28.1362 O   0  0  0  0  0  0  0  0  0  0  0  0
  -10.8710   -1.7248  -27.6608 H   0  0  0  0  0  0  0  0  0  0  0  0
 14 13  1  0  0  0
 14 15  1  0  0  0
 13 12  1  0  0  0
 15 16  1  0  0  0
 12 11  1  0  0  0
 16 11  1  0  0  0
 11 10  1  0  0  0
  6  5  2  0  0  0
  6  7  1  0  0  0
  5  4  1  0  0  0
  9  8  1  0  0  0
  9 10  1  0  0  0
  8  7  1  0  0  0
  7  3  2  0  0  0
  4  2  2  0  0  0
 18 19  1  0  0  0
 18 17  1  0  0  0
  3  2  1  0  0  0
  2  1  1  0  0  0
 21 19  2  0  0  0
 21 22  1  0  0  0
 19 20  1  0  0  0
 17  1  1  0  0  0
 48 47  1  0  0  0
 22 23  2  0  0  0
 49 47  1  0  0  0
 20 24  2  0  0  0
  1 29  1  0  0  0
 47 40  1  0  0  0
 23 24  1  0  0  0
 23 25  1  0  0  0
 24 27  1  0  0  0
 28 27  1  0  0  0
 25 26  1  0  0  0
 29 30  1  0  0  0
 40 32  1  0  0  0
 40 46  1  0  0  0
 35 34  1  0  0  0
 35 36  1  0  0  0
 30 31  2  0  0  0
 30 39  1  0  0  0
 32 34  1  0  0  0
 32 33  2  0  0  0
 46 41  1  0  0  0
 46 45  1  0  0  0
 34 39  1  0  0  0
 41 42  1  0  0  0
 36 37  1  0  0  0
 39 38  1  0  0  0
 42 43  1  0  0  0
 37 38  1  0  0  0
 45 44  1  0  0  0
 43 44  1  0  0  0
 49 50  1  0  0  0
M  END
> <minimizedAffinity>
-8.15390

$$$$
5DIT_5B8_A_201


 50 54  0  0  0  0  0  0  0  0999 V2000
   -8.2984    2.8312  -28.2761 C   0  0  0  0  0  0  0  0  0  0  0  0
   -7.9162    1.7315  -29.0672 C   0  0  0  0  0  0  0  0  0  0  0  0
   -6.6868    1.1455  -28.8251 C   0  0  0  0  0  0  0  0  0  0  0  0
   -8.7478    1.1449  -30.0184 C   0  0  0  0  0  0  0  0  0  0  0  0
   -8.3281    0.0292  -30.7467 C   0  0  0  0  0  0  0  0  0  0  0  0
   -7.0722   -0.5322  -30.5080 C   0  0  0  0  0  0  0  0  0  0  0  0
   -6.2585    0.0366  -29.5303 C   0  0  0  0  0  0  0  0  0  0  0  0
   -5.0107   -0.4042  -29.2257 O   0  0  0  0  0  0  0  0  0  0  0  0
   -4.3504   -1.2312  -30.1470 C   0  0  0  0  0  0  0  0  0  0  0  0
   -3.8147   -2.3843  -29.3088 C   0  0  0  0  0  0  0  0  0  0  0  0
   -4.2705   -3.7221  -29.7860 N   0  0  0  0  0  0  0  0  0  0  0  0
   -3.7798   -4.0908  -31.1290 C   0  0  0  0  0  0  0  0  0  0  0  0
   -4.3699   -5.4238  -31.5889 C   0  0  0  0  0  0  0  0  0  0  0  0
   -5.8175   -5.3847  -31.4487 O   0  0  0  0  0  0  0  0  0  0  0  0
   -6.1719   -5.3140  -30.0877 C   0  0  0  0  0  0  0  0  0  0  0  0
   -5.7325   -3.9043  -29.6677 C   0  0  0  0  0  0  0  0  0  0  0  0
   -9.4794    3.6524  -28.7751 C   0  0  0  0  0  0  0  0  0  0  0  0
   -9.3407    5.1140  -28.4346 C   0  0  0  0  0  0  0  0  0  0  0  0
  -10.5693    5.8329  -28.3595 C   0  0  0  0  0  0  0  0  0  0  0  0
  -10.8549    6.8043  -27.3786 C   0  0  0  0  0  0  0  0  0  0  0  0
  -11.5587    5.4942  -29.2777 C   0  0  0  0  0  0  0  0  0  0  0  0
  -12.7890    6.1236  -29.2591 C   0  0  0  0  0  0  0  0  0  0  0  0
  -13.0726    7.0991  -28.3097 C   0  0  0  0  0  0  0  0  0  0  0  0
  -12.1087    7.4385  -27.3499 C   0  0  0  0  0  0  0  0  0  0  0  0
  -14.3204    7.6773  -28.3244 O   0  0  0  0  0  0  0  0  0  0  0  0
  -15.4713    7.1183  -27.6687 C   0  0  0  0  0  0  0  0  0  0  0  0
  -12.4663    8.4071  -26.4569 O   0  0  0  0  0  0  0  0  0  0  0  0
  -11.4178    9.0560  -25.7177 C   0  0  0  0  0  0  0  0  0  0  0  0
   -8.6907    2.2328  -27.0206 O   0  0  0  0  0  0  0  0  0  0  0  0
   -8.0781    2.6943  -25.8840 C   0  0  0  0  0  0  0  0  0  0  0  0
   -7.6475    3.8459  -25.7583 O   0  0  0  0  0  0  0  0  0  0  0  0
   -9.0520   -0.3193  -25.5621 C   0  0  0  0  0  0  0  0  0  0  0  0
  -10.1436    0.1834  -25.2614 O   0  0  0  0  0  0  0  0  0  0  0  0
   -7.8675    0.3516  -25.3810 N   0  0  0  0  0  0  0  0  0  0  0  0
   -6.4993   -0.1707  -25.7700 C   0  0  0  0  0  0  0  0  0  0  0  0
   -5.3998    0.1821  -24.8393 C   0  0  0  0  0  0  0  0  0  0  0  0
   -5.4820    1.6779  -24.6206 C   0  0  0  0  0  0  0  0  0  0  0  0
   -6.7764    2.0557  -23.9264 C   0  0  0  0  0  0  0  0  0  0  0  0
   -7.9654    1.7443  -24.8297 C   0  0  0  0  0  0  0  0  0  0  0  0
   -9.0259   -1.7605  -26.1610 C   0  0  0  0  0  0  0  0  0  0  0  0
  -11.1954   -2.0393  -24.6918 C   0  0  0  0  0  0  0  0  0  0  0  0
  -12.0972   -3.2138  -24.3028 C   0  0  0  0  0  0  0  0  0  0  0  0
  -11.3979   -3.9552  -23.1807 C   0  0  0  0  0  0  0  0  0  0  0  0
  -10.1366   -4.6148  -23.7152 C   0  0  0  0  0  0  0  0  0  0  0  0
   -9.2254   -3.5974  -24.4105 C   0  0  0  0  0  0  0  0  0  0  0  0
   -9.9976   -2.7411  -25.4247 C   0  0  0  0  0  0  0  0  0  0  0  0
   -9.3428   -1.7086  -27.6764 C   0  0  0  0  0  0  0  0  0  0  0  0
   -9.0811   -3.0599  -28.3346 C   0  0  0  0  0  0  0  0  0  0  0  0
  -10.7235   -1.3915  -27.8823 O   0  0  0  0  0  0  0  0  0  0  0  0
  -11.2767   -2.0812  -27.4834 H   0  0  0  0  0  0  0  0  0  0  0  0
 14 13  1  0  0  0
 14 15  1  0  0  0
 13 12  1  0  0  0
 15 16  1  0  0  0
 12 11  1  0  0  0
 16 11  1  0  0  0
 11 10  1  0  0  0
  6  5  2  0  0  0
  6  7  1  0  0  0
  5  4  1  0  0  0
  9  8  1  0  0  0
  9 10  1  0  0  0
  8  7  1  0  0  0
  7  3  2  0  0  0
  4  2  2  0  0  0
 18 19  1  0  0  0
 18 17  1  0  0  0
  3  2  1  0  0  0
  2  1  1  0  0  0
 21 19  2  0  0  0
 21 22  1  0  0  0
 19 20  1  0  0  0
 17  1  1  0  0  0
 48 47  1  0  0  0
 22 23  2  0  0  0
 49 47  1  0  0  0
 20 24  2  0  0  0
  1 29  1  0  0  0
 47 40  1  0  0  0
 23 24  1  0  0  0
 23 25  1  0  0  0
 24 27  1  0  0  0
 28 27  1  0  0  0
 25 26  1  0  0  0
 29 30  1  0  0  0
 40 32  1  0  0  0
 40 46  1  0  0  0
 35 34  1  0  0  0
 35 36  1  0  0  0
 30 31  2  0  0  0
 30 39  1  0  0  0
 32 34  1  0  0  0
 32 33  2  0  0  0
 46 41  1  0  0  0
 46 45  1  0  0  0
 34 39  1  0  0  0
 41 42  1  0  0  0
 36 37  1  0  0  0
 39 38  1  0  0  0
 42 43  1  0  0  0
 37 38  1  0  0  0
 45 44  1  0  0  0
 43 44  1  0  0  0
 49 50  1  0  0  0
M  END
> <minimizedAffinity>
-8.13124

$$$$
5DIT_5B8_A_201


 50 54  0  0  0  0  0  0  0  0999 V2000
   -7.6653    2.8253  -28.6017 C   0  0  0  0  0  0  0  0  0  0  0  0
   -6.5440    2.2177  -29.1975 C   0  0  0  0  0  0  0  0  0  0  0  0
   -6.5517    0.8440  -29.3600 C   0  0  0  0  0  0  0  0  0  0  0  0
   -5.4675    2.9346  -29.7149 C   0  0  0  0  0  0  0  0  0  0  0  0
   -4.3994    2.2782  -30.3310 C   0  0  0  0  0  0  0  0  0  0  0  0
   -4.4116    0.8882  -30.4615 C   0  0  0  0  0  0  0  0  0  0  0  0
   -5.5073    0.1787  -29.9741 C   0  0  0  0  0  0  0  0  0  0  0  0
   -5.6222   -1.1735  -30.0210 O   0  0  0  0  0  0  0  0  0  0  0  0
   -5.2123   -1.9184  -28.9049 C   0  0  0  0  0  0  0  0  0  0  0  0
   -5.0316   -3.3340  -29.4365 C   0  0  0  0  0  0  0  0  0  0  0  0
   -3.6512   -3.6064  -29.9323 N   0  0  0  0  0  0  0  0  0  0  0  0
   -2.6262   -2.6703  -29.4289 C   0  0  0  0  0  0  0  0  0  0  0  0
   -1.2619   -2.9500  -30.0589 C   0  0  0  0  0  0  0  0  0  0  0  0
   -1.3992   -2.9965  -31.5066 O   0  0  0  0  0  0  0  0  0  0  0  0
   -2.1766   -4.1079  -31.8853 C   0  0  0  0  0  0  0  0  0  0  0  0
   -3.5888   -3.7488  -31.4021 C   0  0  0  0  0  0  0  0  0  0  0  0
   -8.9335    2.8881  -29.4417 C   0  0  0  0  0  0  0  0  0  0  0  0
   -9.6295    4.2197  -29.3228 C   0  0  0  0  0  0  0  0  0  0  0  0
  -10.8936    4.2976  -29.9770 C   0  0  0  0  0  0  0  0  0  0  0  0
  -11.3728    3.3295  -30.8829 C   0  0  0  0  0  0  0  0  0  0  0  0
  -11.6574    5.4377  -29.7458 C   0  0  0  0  0  0  0  0  0  0  0  0
  -12.8840    5.6062  -30.3599 C   0  0  0  0  0  0  0  0  0  0  0  0
  -13.3757    4.6465  -31.2377 C   0  0  0  0  0  0  0  0  0  0  0  0
  -12.6147    3.5028  -31.5175 C   0  0  0  0  0  0  0  0  0  0  0  0
  -14.5923    4.8759  -31.8368 O   0  0  0  0  0  0  0  0  0  0  0  0
  -15.8557    4.7433  -31.1635 C   0  0  0  0  0  0  0  0  0  0  0  0
  -13.1713    2.6097  -32.3869 O   0  0  0  0  0  0  0  0  0  0  0  0
  -12.6477    2.5629  -33.7250 C   0  0  0  0  0  0  0  0  0  0  0  0
   -7.9467    1.9848  -27.4603 O   0  0  0  0  0  0  0  0  0  0  0  0
   -7.9639    2.5827  -26.2265 C   0  0  0  0  0  0  0  0  0  0  0  0
   -8.0491    3.8043  -26.0593 O   0  0  0  0  0  0  0  0  0  0  0  0
   -8.6988   -0.4921  -25.8535 C   0  0  0  0  0  0  0  0  0  0  0  0
   -9.8549   -0.0799  -25.6857 O   0  0  0  0  0  0  0  0  0  0  0  0
   -7.6019    0.2913  -25.5910 N   0  0  0  0  0  0  0  0  0  0  0  0
   -6.1609   -0.1186  -25.8187 C   0  0  0  0  0  0  0  0  0  0  0  0
   -5.1965    0.3706  -24.8037 C   0  0  0  0  0  0  0  0  0  0  0  0
   -5.4306    1.8602  -24.6678 C   0  0  0  0  0  0  0  0  0  0  0  0
   -6.8168    2.1453  -24.1224 C   0  0  0  0  0  0  0  0  0  0  0  0
   -7.8763    1.6901  -25.1209 C   0  0  0  0  0  0  0  0  0  0  0  0
   -8.4864   -1.9477  -26.3756 C   0  0  0  0  0  0  0  0  0  0  0  0
  -10.8760   -2.6375  -25.5055 C   0  0  0  0  0  0  0  0  0  0  0  0
  -11.5011   -3.9246  -24.9609 C   0  0  0  0  0  0  0  0  0  0  0  0
  -11.0807   -4.0402  -23.5091 C   0  0  0  0  0  0  0  0  0  0  0  0
   -9.5831   -4.2913  -23.4315 C   0  0  0  0  0  0  0  0  0  0  0  0
   -8.7964   -3.2182  -24.1921 C   0  0  0  0  0  0  0  0  0  0  0  0
   -9.3520   -3.0002  -25.6069 C   0  0  0  0  0  0  0  0  0  0  0  0
   -8.7701   -2.0099  -27.8972 C   0  0  0  0  0  0  0  0  0  0  0  0
   -9.0311   -3.4449  -28.3449 C   0  0  0  0  0  0  0  0  0  0  0  0
   -9.9363   -1.2427  -28.2145 O   0  0  0  0  0  0  0  0  0  0  0  0
  -10.7034   -1.6135  -27.7508 H   0  0  0  0  0  0  0  0  0  0  0  0
 14 13  1  0  0  0
 14 15  1  0  0  0
 13 12  1  0  0  0
 15 16  1  0  0  0
 12 11  1  0  0  0
 16 11  1  0  0  0
 11 10  1  0  0  0
  6  5  2  0  0  0
  6  7  1  0  0  0
  5  4  1  0  0  0
  9  8  1  0  0  0
  9 10  1  0  0  0
  8  7  1  0  0  0
  7  3  2  0  0  0
  4  2  2  0  0  0
 18 19  1  0  0  0
 18 17  1  0  0  0
  3  2  1  0  0  0
  2  1  1  0  0  0
 21 19  2  0  0  0
 21 22  1  0  0  0
 19 20  1  0  0  0
 17  1  1  0  0  0
 48 47  1  0  0  0
 22 23  2  0  0  0
 49 47  1  0  0  0
 20 24  2  0  0  0
  1 29  1  0  0  0
 47 40  1  0  0  0
 23 24  1  0  0  0
 23 25  1  0  0  0
 24 27  1  0  0  0
 28 27  1  0  0  0
 25 26  1  0  0  0
 29 30  1  0  0  0
 40 32  1  0  0  0
 40 46  1  0  0  0
 35 34  1  0  0  0
 35 36  1  0  0  0
 30 31  2  0  0  0
 30 39  1  0  0  0
 32 34  1  0  0  0
 32 33  2  0  0  0
 46 41  1  0  0  0
 46 45  1  0  0  0
 34 39  1  0  0  0
 41 42  1  0  0  0
 36 37  1  0  0  0
 39 38  1  0  0  0
 42 43  1  0  0  0
 37 38  1  0  0  0
 45 44  1  0  0  0
 43 44  1  0  0  0
 49 50  1  0  0  0
M  END
> <minimizedAffinity>
-8.07152

$$$$
