2OAG_DLI_B_4000
  RCSB PDB12061706293D
Coordinates from PDB:2OAG:B:4000 Model:1 without hydrogens
 31 34  0  0  0  0            999 V2000
   29.1900    5.8310   62.5430   C 0  0  0  0  0  0  0  0  0  0  0  0
   27.8630    6.3340   62.4280   C 0  0  0  0  0  0  0  0  0  0  0  0
   27.6120    7.6900   62.8170   C 0  0  0  0  0  0  0  0  0  0  0  0
   31.6200    6.0610   63.1460   C 0  0  0  0  0  0  0  0  0  0  0  0
   32.8450    6.8000   62.7240   C 0  0  0  0  0  0  0  0  0  0  0  0
   42.7350    4.6720   62.4390   C 0  0  0  0  0  0  0  0  0  0  0  0
   36.8490    6.6850   61.6130   C 0  0  0  0  0  0  0  0  0  0  0  0
   36.0980    5.2160   63.7830   C 0  0  0  0  0  0  0  0  0  0  0  0
   38.4860    4.3830   64.1240   C 0  0  0  0  0  0  0  0  0  0  0  0
   39.1460    2.8410   65.9650   C 0  0  0  0  0  0  0  0  0  0  0  0
   40.8100    3.6080   64.3630   C 0  0  0  0  0  0  0  0  0  0  0  0
   28.6710    8.5100   63.3150   C 0  0  0  0  0  0  0  0  0  0  0  0
   29.9800    8.0000   63.4200   C 0  0  0  0  0  0  0  0  0  0  0  0
   30.2380    6.6510   63.0420   C 0  0  0  0  0  0  0  0  0  0  0  0
   31.8210    5.5040   64.5730   C 0  0  0  0  0  0  0  0  0  0  0  0
   29.5310    4.5600   62.1920   F 0  0  0  0  0  0  0  0  0  0  0  0
   33.8410    5.9990   63.4380   N 0  0  0  0  0  0  0  0  0  0  0  0
   33.3070    5.1990   64.5720   C 0  0  0  0  0  0  0  0  0  0  0  0
   26.3540    8.1500   62.7030   F 0  0  0  0  0  0  0  0  0  0  0  0
   35.1670    5.9850   63.0510   C 0  0  0  0  0  0  0  0  0  0  0  0
   28.5710    9.7940   63.7170   F 0  0  0  0  0  0  0  0  0  0  0  0
   35.5430    6.7410   61.9760   N 0  0  0  0  0  0  0  0  0  0  0  0
   37.7890    5.9640   62.2640   N 0  0  0  0  0  0  0  0  0  0  0  0
   37.4370    5.1860   63.3820   C 0  0  0  0  0  0  0  0  0  0  0  0
   30.9090    4.3720   64.7820   N 0  0  0  0  0  0  0  0  0  0  0  0
   38.1700    3.5970   65.2790   C 0  0  0  0  0  0  0  0  0  0  0  0
   40.4720    2.8420   65.5060   C 0  0  0  0  0  0  0  0  0  0  0  0
   39.8280    4.3670   63.6860   C 0  0  0  0  0  0  0  0  0  0  0  0
   42.5030    3.5570   63.8240   S 0  0  0  0  0  0  0  0  0  0  0  0
   42.7410    2.2190   63.3630   O 0  0  0  0  0  0  0  0  0  0  0  0
   43.2980    4.0420   64.9110   O 0  0  0  0  0  0  0  0  0  0  0  0
  1 16  1  0  0  0  0
  1  2  2  0  0  0  0
  1 14  1  0  0  0  0
  2  3  1  0  0  0  0
  3 19  1  0  0  0  0
  3 12  2  0  0  0  0
  4  5  1  0  0  0  0
  4 14  1  0  0  0  0
  4 15  1  0  0  0  0
  5 17  1  0  0  0  0
  6 29  1  0  0  0  0
  7 22  2  0  0  0  0
  7 23  1  0  0  0  0
  8 20  2  0  0  0  0
  8 24  1  0  0  0  0
  9 24  1  0  0  0  0
  9 28  2  0  0  0  0
  9 26  1  0  0  0  0
 10 26  2  0  0  0  0
 10 27  1  0  0  0  0
 11 28  1  0  0  0  0
 11 29  1  0  0  0  0
 11 27  2  0  0  0  0
 12 13  1  0  0  0  0
 12 21  1  0  0  0  0
 13 14  2  0  0  0  0
 15 18  1  0  0  0  0
 15 25  1  0  0  0  0
 17 20  1  0  0  0  0
 17 18  1  0  0  0  0
 20 22  1  0  0  0  0
 23 24  2  0  0  0  0
 29 30  2  0  0  0  0
 29 31  2  0  0  0  0
A    1
C4
A    2
C5
A    3
C6
A    4
C7
A    5
C8
A    6
C10
A    7
C17
A    8
C20
A    9
C21
A   10
C24
A   11
C26
A   12
C1
A   13
C2
A   14
C3
A   15
C9
A   16
F10
A   17
N11
A   18
C12
A   19
F13
A   20
C14
A   21
F15
A   22
N16
A   23
N18
A   24
C19
A   25
N22
A   26
C23
A   27
C25
A   28
C27
A   29
S1
A   30
O2
A   31
O1
M  END
>  <InstanceId>
2OAG_DLI_B_4000

>  <ChemCompId>
DLI

>  <PdbId>
2OAG

>  <ChainId>
B

>  <ResidueNumber>
4000

>  <InsertionCode>


>  <Model>
1

>  <AltIds>


>  <MissingHeavyAtoms>
0

>  <ObservedFormula>
C21 N4 O2 S F3

>  <Name>
(3R,4S)-1-{6-[3-(METHYLSULFONYL)PHENYL]PYRIMIDIN-4-YL}-4-(2,4,5-TRIFLUOROPHENYL)PYRROLIDIN-3-AMINE

>  <SystematicName>
(3R,4S)-1-[6-(3-methylsulfonylphenyl)pyrimidin-4-yl]-4-(2,4,5-trifluorophenyl)pyrrolidin-3-amine

>  <Synonyms>


>  <Type>
NON-POLYMER

>  <Formula>
C21 H19 F3 N4 O2 S

>  <MolecularWeight>
448.461

>  <ModifiedDate>
2011-06-04

>  <Parent>


>  <OneLetterCode>


>  <SubcomponentList>


>  <AmbiguousFlag>


>  <InChI>
InChI=1S/C21H19F3N4O2S/c1-31(29,30)13-4-2-3-12(5-13)20-8-21(27-11-26-20)28-9-15(19(25)10-28)14-6-17(23)18(24)7-16(14)22/h2-8,11,15,19H,9-10,25H2,1H3/t15-,19+/m1/s1

>  <InChIKey>
OAWGQHXWGXOUKV-BEFAXECRSA-N

>  <SMILES>
CS(=O)(=O)c1cccc(c1)c2cc(ncn2)N3C[C@@H]([C@H](C3)N)c4cc(c(cc4F)F)F

$$$$
