2OAG_DLI_B_4000


 33 36  0  0  0  0  0  0  0  0999 V2000
   31.7052    6.4776   62.8669 C   0  0  0  0  0  0  0  0  0  0  0  0
   32.7757    7.2597   62.1833 C   0  0  0  0  0  0  0  0  0  0  0  0
   32.2071    6.0227   64.2555 C   0  0  0  0  0  0  0  0  0  0  0  0
   33.9405    6.5642   62.7337 N   0  0  0  0  0  0  0  0  0  0  0  0
   33.6844    5.8060   63.9869 C   0  0  0  0  0  0  0  0  0  0  0  0
   31.4309    4.8543   64.6902 N   0  0  0  0  0  0  0  0  0  0  0  0
   31.4789    4.1289   63.9747 H   0  0  0  0  0  0  0  0  0  0  0  0
   30.4584    5.1264   64.8338 H   0  0  0  0  0  0  0  0  0  0  0  0
   29.2552    6.2528   62.3489 C   0  0  0  0  0  0  0  0  0  0  0  0
   27.8991    6.6763   62.4435 C   0  0  0  0  0  0  0  0  0  0  0  0
   27.6050    7.8571   63.2000 C   0  0  0  0  0  0  0  0  0  0  0  0
   28.6512    8.5831   63.8481 C   0  0  0  0  0  0  0  0  0  0  0  0
   29.9891    8.1544   63.7429 C   0  0  0  0  0  0  0  0  0  0  0  0
   30.2906    6.9779   62.9985 C   0  0  0  0  0  0  0  0  0  0  0  0
   29.6372    5.1496   61.6475 F   0  0  0  0  0  0  0  0  0  0  0  0
   26.3199    8.2436   63.2802 F   0  0  0  0  0  0  0  0  0  0  0  0
   28.5121    9.7016   64.5897 F   0  0  0  0  0  0  0  0  0  0  0  0
   36.4980    7.3036   60.3332 C   0  0  0  0  0  0  0  0  0  0  0  0
   36.2733    5.9461   62.6865 C   0  0  0  0  0  0  0  0  0  0  0  0
   35.1687    6.6041   62.1027 C   0  0  0  0  0  0  0  0  0  0  0  0
   35.2818    7.3050   60.9346 N   0  0  0  0  0  0  0  0  0  0  0  0
   37.5928    6.6882   60.8332 N   0  0  0  0  0  0  0  0  0  0  0  0
   37.5128    5.9699   62.0401 C   0  0  0  0  0  0  0  0  0  0  0  0
   38.7373    5.2858   62.6132 C   0  0  0  0  0  0  0  0  0  0  0  0
   41.1769    4.7876   62.5582 C   0  0  0  0  0  0  0  0  0  0  0  0
   39.7856    3.8686   64.3311 C   0  0  0  0  0  0  0  0  0  0  0  0
   40.0338    5.4176   62.0186 C   0  0  0  0  0  0  0  0  0  0  0  0
   41.0563    4.0115   63.7209 C   0  0  0  0  0  0  0  0  0  0  0  0
   38.6453    4.4975   63.7807 C   0  0  0  0  0  0  0  0  0  0  0  0
   39.7536    3.9462   67.2521 C   0  0  0  0  0  0  0  0  0  0  0  0
   39.7014    2.8839   65.8085 S   0  0  0  0  0  0  0  0  0  0  0  0
   40.8791    2.0640   65.8163 O   0  0  0  0  0  0  0  0  0  0  0  0
   38.4291    2.2282   65.7966 O   0  0  0  0  0  0  0  0  0  0  0  0
  9 15  1  0  0  0
  9 10  2  0  0  0
  9 14  1  0  0  0
 10 11  1  0  0  0
 11 16  1  0  0  0
 11 12  2  0  0  0
  1  2  1  0  0  0
  1 14  1  0  0  0
  1  3  1  0  0  0
  2  4  1  0  0  0
 30 31  1  0  0  0
 18 21  2  0  0  0
 18 22  1  0  0  0
 19 20  2  0  0  0
 19 23  1  0  0  0
 24 23  1  0  0  0
 24 29  2  0  0  0
 24 27  1  0  0  0
 25 27  2  0  0  0
 25 28  1  0  0  0
 26 29  1  0  0  0
 26 31  1  0  0  0
 26 28  2  0  0  0
 12 13  1  0  0  0
 12 17  1  0  0  0
 13 14  2  0  0  0
  3  5  1  0  0  0
  3  6  1  0  0  0
  4 20  1  0  0  0
  4  5  1  0  0  0
 20 21  1  0  0  0
 22 23  2  0  0  0
 31 32  2  0  0  0
 31 33  2  0  0  0
  6  7  1  0  0  0
  6  8  1  0  0  0
M  END
> <minimizedAffinity>
-11.04101

$$$$
2OAG_DLI_B_4000


 33 36  0  0  0  0  0  0  0  0999 V2000
   31.7468    6.2671   63.1162 C   0  0  0  0  0  0  0  0  0  0  0  0
   32.9680    6.9580   62.6100 C   0  0  0  0  0  0  0  0  0  0  0  0
   32.0032    5.7537   64.5506 C   0  0  0  0  0  0  0  0  0  0  0  0
   33.9771    6.1551   63.3031 N   0  0  0  0  0  0  0  0  0  0  0  0
   33.4791    5.4088   64.4890 C   0  0  0  0  0  0  0  0  0  0  0  0
   31.0741    4.6546   64.8430 N   0  0  0  0  0  0  0  0  0  0  0  0
   31.1608    3.9358   64.1244 H   0  0  0  0  0  0  0  0  0  0  0  0
   30.1184    5.0109   64.8537 H   0  0  0  0  0  0  0  0  0  0  0  0
   29.3839    6.2640   62.2570 C   0  0  0  0  0  0  0  0  0  0  0  0
   28.0701    6.8057   62.1688 C   0  0  0  0  0  0  0  0  0  0  0  0
   27.7765    8.0036   62.8981 C   0  0  0  0  0  0  0  0  0  0  0  0
   28.7804    8.6301   63.6991 C   0  0  0  0  0  0  0  0  0  0  0  0
   30.0772    8.0848   63.7741 C   0  0  0  0  0  0  0  0  0  0  0  0
   30.3767    6.8904   63.0579 C   0  0  0  0  0  0  0  0  0  0  0  0
   29.7631    5.1352   61.5960 F   0  0  0  0  0  0  0  0  0  0  0  0
   26.5316    8.5024   62.8050 F   0  0  0  0  0  0  0  0  0  0  0  0
   28.6363    9.7522   64.4342 F   0  0  0  0  0  0  0  0  0  0  0  0
   36.8872    6.6173   61.2619 C   0  0  0  0  0  0  0  0  0  0  0  0
   36.2503    5.4080   63.6204 C   0  0  0  0  0  0  0  0  0  0  0  0
   35.2818    6.0921   62.8536 C   0  0  0  0  0  0  0  0  0  0  0  0
   35.6012    6.7192   61.6818 N   0  0  0  0  0  0  0  0  0  0  0  0
   37.8605    5.9717   61.9424 N   0  0  0  0  0  0  0  0  0  0  0  0
   37.5673    5.3275   63.1582 C   0  0  0  0  0  0  0  0  0  0  0  0
   38.6542    4.6103   63.9328 C   0  0  0  0  0  0  0  0  0  0  0  0
   39.4009    3.2473   65.8789 C   0  0  0  0  0  0  0  0  0  0  0  0
   40.9991    3.8980   64.1626 C   0  0  0  0  0  0  0  0  0  0  0  0
   38.3895    3.9237   65.1618 C   0  0  0  0  0  0  0  0  0  0  0  0
   40.7117    3.2299   65.3785 C   0  0  0  0  0  0  0  0  0  0  0  0
   39.9820    4.5782   63.4543 C   0  0  0  0  0  0  0  0  0  0  0  0
   43.3717    5.4795   63.5228 C   0  0  0  0  0  0  0  0  0  0  0  0
   42.6752    3.8280   63.5751 S   0  0  0  0  0  0  0  0  0  0  0  0
   42.6127    3.3285   62.2313 O   0  0  0  0  0  0  0  0  0  0  0  0
   43.4193    3.0722   64.5364 O   0  0  0  0  0  0  0  0  0  0  0  0
  9 15  1  0  0  0
  9 10  2  0  0  0
  9 14  1  0  0  0
 10 11  1  0  0  0
 11 16  1  0  0  0
 11 12  2  0  0  0
  1  2  1  0  0  0
  1 14  1  0  0  0
  1  3  1  0  0  0
  2  4  1  0  0  0
 30 31  1  0  0  0
 18 21  2  0  0  0
 18 22  1  0  0  0
 19 20  2  0  0  0
 19 23  1  0  0  0
 24 23  1  0  0  0
 24 29  2  0  0  0
 24 27  1  0  0  0
 25 27  2  0  0  0
 25 28  1  0  0  0
 26 29  1  0  0  0
 26 31  1  0  0  0
 26 28  2  0  0  0
 12 13  1  0  0  0
 12 17  1  0  0  0
 13 14  2  0  0  0
  3  5  1  0  0  0
  3  6  1  0  0  0
  4 20  1  0  0  0
  4  5  1  0  0  0
 20 21  1  0  0  0
 22 23  2  0  0  0
 31 32  2  0  0  0
 31 33  2  0  0  0
  6  7  1  0  0  0
  6  8  1  0  0  0
M  END
> <minimizedAffinity>
-11.03261

$$$$
2OAG_DLI_B_4000


 33 36  0  0  0  0  0  0  0  0999 V2000
   31.8854    6.2612   63.1289 C   0  0  0  0  0  0  0  0  0  0  0  0
   33.0824    6.9517   62.5675 C   0  0  0  0  0  0  0  0  0  0  0  0
   32.1861    5.8029   64.5734 C   0  0  0  0  0  0  0  0  0  0  0  0
   34.1213    6.1890   63.2621 N   0  0  0  0  0  0  0  0  0  0  0  0
   33.6653    5.4780   64.4859 C   0  0  0  0  0  0  0  0  0  0  0  0
   31.2822    4.7011   64.9281 N   0  0  0  0  0  0  0  0  0  0  0  0
   31.3621    3.9587   64.2332 H   0  0  0  0  0  0  0  0  0  0  0  0
   30.3216    5.0434   64.9510 H   0  0  0  0  0  0  0  0  0  0  0  0
   29.5184    6.2265   62.2820 C   0  0  0  0  0  0  0  0  0  0  0  0
   28.1952    6.7466   62.2062 C   0  0  0  0  0  0  0  0  0  0  0  0
   27.8851    7.9317   62.9494 C   0  0  0  0  0  0  0  0  0  0  0  0
   28.8824    8.5671   63.7515 C   0  0  0  0  0  0  0  0  0  0  0  0
   30.1887    8.0433   63.8142 C   0  0  0  0  0  0  0  0  0  0  0  0
   30.5047    6.8615   63.0842 C   0  0  0  0  0  0  0  0  0  0  0  0
   29.9133    5.1112   61.6074 F   0  0  0  0  0  0  0  0  0  0  0  0
   26.6314    8.4101   62.8679 F   0  0  0  0  0  0  0  0  0  0  0  0
   28.7232    9.6790   64.4989 F   0  0  0  0  0  0  0  0  0  0  0  0
   37.0016    6.7345   61.1992 C   0  0  0  0  0  0  0  0  0  0  0  0
   36.3812    5.3682   63.4750 C   0  0  0  0  0  0  0  0  0  0  0  0
   35.4150    6.1295   62.7815 C   0  0  0  0  0  0  0  0  0  0  0  0
   35.7269    6.8346   61.6527 N   0  0  0  0  0  0  0  0  0  0  0  0
   37.9718    6.0177   61.8093 N   0  0  0  0  0  0  0  0  0  0  0  0
   37.6865    5.2918   62.9802 C   0  0  0  0  0  0  0  0  0  0  0  0
   38.7704    4.4942   63.6764 C   0  0  0  0  0  0  0  0  0  0  0  0
   39.7612    3.5060   65.7366 C   0  0  0  0  0  0  0  0  0  0  0  0
   40.8457    3.1740   63.5832 C   0  0  0  0  0  0  0  0  0  0  0  0
   38.7559    4.2575   65.0890 C   0  0  0  0  0  0  0  0  0  0  0  0
   40.8104    2.9580   64.9831 C   0  0  0  0  0  0  0  0  0  0  0  0
   39.8387    3.9329   62.9439 C   0  0  0  0  0  0  0  0  0  0  0  0
   41.5632    1.2259   61.5266 C   0  0  0  0  0  0  0  0  0  0  0  0
   42.1929    2.4427   62.6834 S   0  0  0  0  0  0  0  0  0  0  0  0
   43.0026    1.7594   63.6513 O   0  0  0  0  0  0  0  0  0  0  0  0
   42.8007    3.4922   61.9232 O   0  0  0  0  0  0  0  0  0  0  0  0
  9 15  1  0  0  0
  9 10  2  0  0  0
  9 14  1  0  0  0
 10 11  1  0  0  0
 11 16  1  0  0  0
 11 12  2  0  0  0
  1  2  1  0  0  0
  1 14  1  0  0  0
  1  3  1  0  0  0
  2  4  1  0  0  0
 30 31  1  0  0  0
 18 21  2  0  0  0
 18 22  1  0  0  0
 19 20  2  0  0  0
 19 23  1  0  0  0
 24 23  1  0  0  0
 24 29  2  0  0  0
 24 27  1  0  0  0
 25 27  2  0  0  0
 25 28  1  0  0  0
 26 29  1  0  0  0
 26 31  1  0  0  0
 26 28  2  0  0  0
 12 13  1  0  0  0
 12 17  1  0  0  0
 13 14  2  0  0  0
  3  5  1  0  0  0
  3  6  1  0  0  0
  4 20  1  0  0  0
  4  5  1  0  0  0
 20 21  1  0  0  0
 22 23  2  0  0  0
 31 32  2  0  0  0
 31 33  2  0  0  0
  6  7  1  0  0  0
  6  8  1  0  0  0
M  END
> <minimizedAffinity>
-10.48355

$$$$
2OAG_DLI_B_4000


 33 36  0  0  0  0  0  0  0  0999 V2000
   31.6839    5.8085   62.6791 C   0  0  0  0  0  0  0  0  0  0  0  0
   32.7541    6.1523   61.6986 C   0  0  0  0  0  0  0  0  0  0  0  0
   32.2985    5.6913   64.0917 C   0  0  0  0  0  0  0  0  0  0  0  0
   33.8684    5.4465   62.3341 N   0  0  0  0  0  0  0  0  0  0  0  0
   33.6772    5.1423   63.7770 C   0  0  0  0  0  0  0  0  0  0  0  0
   31.4258    4.8592   64.9300 N   0  0  0  0  0  0  0  0  0  0  0  0
   31.2686    3.9618   64.4713 H   0  0  0  0  0  0  0  0  0  0  0  0
   30.5326    5.3326   65.0659 H   0  0  0  0  0  0  0  0  0  0  0  0
   29.2103    5.9682   62.2584 C   0  0  0  0  0  0  0  0  0  0  0  0
   27.9578    6.6421   62.3236 C   0  0  0  0  0  0  0  0  0  0  0  0
   27.9170    7.9494   62.9089 C   0  0  0  0  0  0  0  0  0  0  0  0
   29.1069    8.5532   63.4199 C   0  0  0  0  0  0  0  0  0  0  0  0
   30.3400    7.8760   63.3454 C   0  0  0  0  0  0  0  0  0  0  0  0
   30.3894    6.5732   62.7714 C   0  0  0  0  0  0  0  0  0  0  0  0
   29.3540    4.7279   61.7144 F   0  0  0  0  0  0  0  0  0  0  0  0
   26.7270    8.5725   62.9636 F   0  0  0  0  0  0  0  0  0  0  0  0
   29.2066    9.7693   63.9957 F   0  0  0  0  0  0  0  0  0  0  0  0
   35.9518    4.1935   59.7000 C   0  0  0  0  0  0  0  0  0  0  0  0
   36.2708    5.2669   62.1854 C   0  0  0  0  0  0  0  0  0  0  0  0
   34.9913    5.0792   61.6183 C   0  0  0  0  0  0  0  0  0  0  0  0
   34.8274    4.5624   60.3635 N   0  0  0  0  0  0  0  0  0  0  0  0
   37.2044    4.3380   60.1874 N   0  0  0  0  0  0  0  0  0  0  0  0
   37.4076    4.8789   61.4700 C   0  0  0  0  0  0  0  0  0  0  0  0
   38.8085    5.0540   62.0201 C   0  0  0  0  0  0  0  0  0  0  0  0
   40.5402    4.5933   63.7497 C   0  0  0  0  0  0  0  0  0  0  0  0
   41.0795    5.9835   61.8261 C   0  0  0  0  0  0  0  0  0  0  0  0
   39.2316    4.4377   63.2419 C   0  0  0  0  0  0  0  0  0  0  0  0
   41.4715    5.3665   63.0398 C   0  0  0  0  0  0  0  0  0  0  0  0
   39.7655    5.8278   61.3282 C   0  0  0  0  0  0  0  0  0  0  0  0
   43.3442    7.8017   62.1499 C   0  0  0  0  0  0  0  0  0  0  0  0
   42.3086    6.9385   60.9678 S   0  0  0  0  0  0  0  0  0  0  0  0
   41.5959    7.9197   60.2005 O   0  0  0  0  0  0  0  0  0  0  0  0
   43.1363    6.0084   60.2617 O   0  0  0  0  0  0  0  0  0  0  0  0
  9 15  1  0  0  0
  9 10  2  0  0  0
  9 14  1  0  0  0
 10 11  1  0  0  0
 11 16  1  0  0  0
 11 12  2  0  0  0
  1  2  1  0  0  0
  1 14  1  0  0  0
  1  3  1  0  0  0
  2  4  1  0  0  0
 30 31  1  0  0  0
 18 21  2  0  0  0
 18 22  1  0  0  0
 19 20  2  0  0  0
 19 23  1  0  0  0
 24 23  1  0  0  0
 24 29  2  0  0  0
 24 27  1  0  0  0
 25 27  2  0  0  0
 25 28  1  0  0  0
 26 29  1  0  0  0
 26 31  1  0  0  0
 26 28  2  0  0  0
 12 13  1  0  0  0
 12 17  1  0  0  0
 13 14  2  0  0  0
  3  5  1  0  0  0
  3  6  1  0  0  0
  4 20  1  0  0  0
  4  5  1  0  0  0
 20 21  1  0  0  0
 22 23  2  0  0  0
 31 32  2  0  0  0
 31 33  2  0  0  0
  6  7  1  0  0  0
  6  8  1  0  0  0
M  END
> <minimizedAffinity>
-9.77752

$$$$
2OAG_DLI_B_4000


 33 36  0  0  0  0  0  0  0  0999 V2000
   32.8409    6.7598   63.3389 C   0  0  0  0  0  0  0  0  0  0  0  0
   33.5326    5.4460   63.4815 C   0  0  0  0  0  0  0  0  0  0  0  0
   33.6126    7.6411   62.3316 C   0  0  0  0  0  0  0  0  0  0  0  0
   34.9098    5.9006   63.2812 N   0  0  0  0  0  0  0  0  0  0  0  0
   35.0441    7.2080   62.5856 C   0  0  0  0  0  0  0  0  0  0  0  0
   33.2900    9.0523   62.5790 N   0  0  0  0  0  0  0  0  0  0  0  0
   33.4785    9.2780   63.5556 H   0  0  0  0  0  0  0  0  0  0  0  0
   32.3038    9.2162   62.3764 H   0  0  0  0  0  0  0  0  0  0  0  0
   30.8313    6.1687   61.9484 C   0  0  0  0  0  0  0  0  0  0  0  0
   29.4430    6.2372   61.6400 C   0  0  0  0  0  0  0  0  0  0  0  0
   28.5995    7.0451   62.4699 C   0  0  0  0  0  0  0  0  0  0  0  0
   29.1436    7.7561   63.5837 C   0  0  0  0  0  0  0  0  0  0  0  0
   30.5199    7.6818   63.8749 C   0  0  0  0  0  0  0  0  0  0  0  0
   31.3653    6.8759   63.0594 C   0  0  0  0  0  0  0  0  0  0  0  0
   31.7152    5.4357   61.2160 F   0  0  0  0  0  0  0  0  0  0  0  0
   27.2911    7.0992   62.1661 F   0  0  0  0  0  0  0  0  0  0  0  0
   28.4642    8.5444   64.4423 F   0  0  0  0  0  0  0  0  0  0  0  0
   36.8531    3.5236   65.1312 C   0  0  0  0  0  0  0  0  0  0  0  0
   37.2678    5.3928   63.1909 C   0  0  0  0  0  0  0  0  0  0  0  0
   35.9858    5.1638   63.7367 C   0  0  0  0  0  0  0  0  0  0  0  0
   35.7690    4.2119   64.6935 N   0  0  0  0  0  0  0  0  0  0  0  0
   38.1071    3.6987   64.6578 N   0  0  0  0  0  0  0  0  0  0  0  0
   38.3612    4.6609   63.6635 C   0  0  0  0  0  0  0  0  0  0  0  0
   39.7619    4.8567   63.1197 C   0  0  0  0  0  0  0  0  0  0  0  0
   41.3197    5.7330   61.3854 C   0  0  0  0  0  0  0  0  0  0  0  0
   42.1971    4.5712   63.3357 C   0  0  0  0  0  0  0  0  0  0  0  0
   40.0134    5.5422   61.8874 C   0  0  0  0  0  0  0  0  0  0  0  0
   42.4186    5.2492   62.1115 C   0  0  0  0  0  0  0  0  0  0  0  0
   40.8858    4.3789   63.8279 C   0  0  0  0  0  0  0  0  0  0  0  0
   45.1135    4.3917   63.2879 C   0  0  0  0  0  0  0  0  0  0  0  0
   43.6305    3.9944   64.2144 S   0  0  0  0  0  0  0  0  0  0  0  0
   43.5168    2.5654   64.2810 O   0  0  0  0  0  0  0  0  0  0  0  0
   43.6800    4.7203   65.4470 O   0  0  0  0  0  0  0  0  0  0  0  0
  9 15  1  0  0  0
  9 10  2  0  0  0
  9 14  1  0  0  0
 10 11  1  0  0  0
 11 16  1  0  0  0
 11 12  2  0  0  0
  1  2  1  0  0  0
  1 14  1  0  0  0
  1  3  1  0  0  0
  2  4  1  0  0  0
 30 31  1  0  0  0
 18 21  2  0  0  0
 18 22  1  0  0  0
 19 20  2  0  0  0
 19 23  1  0  0  0
 24 23  1  0  0  0
 24 29  2  0  0  0
 24 27  1  0  0  0
 25 27  2  0  0  0
 25 28  1  0  0  0
 26 29  1  0  0  0
 26 31  1  0  0  0
 26 28  2  0  0  0
 12 13  1  0  0  0
 12 17  1  0  0  0
 13 14  2  0  0  0
  3  5  1  0  0  0
  3  6  1  0  0  0
  4 20  1  0  0  0
  4  5  1  0  0  0
 20 21  1  0  0  0
 22 23  2  0  0  0
 31 32  2  0  0  0
 31 33  2  0  0  0
  6  7  1  0  0  0
  6  8  1  0  0  0
M  END
> <minimizedAffinity>
-9.41705

$$$$
2OAG_DLI_B_4000


 33 36  0  0  0  0  0  0  0  0999 V2000
   35.9009    5.3973   63.1376 C   0  0  0  0  0  0  0  0  0  0  0  0
   36.7781    5.0474   64.2921 C   0  0  0  0  0  0  0  0  0  0  0  0
   35.9180    4.2438   62.1100 C   0  0  0  0  0  0  0  0  0  0  0  0
   37.7807    4.2582   63.5742 N   0  0  0  0  0  0  0  0  0  0  0  0
   37.3372    3.7285   62.2574 C   0  0  0  0  0  0  0  0  0  0  0  0
   35.5324    4.7655   60.7924 N   0  0  0  0  0  0  0  0  0  0  0  0
   36.1383    5.5482   60.5461 H   0  0  0  0  0  0  0  0  0  0  0  0
   34.5632    5.0820   60.8224 H   0  0  0  0  0  0  0  0  0  0  0  0
   34.1096    7.1072   62.7025 C   0  0  0  0  0  0  0  0  0  0  0  0
   32.7824    7.6072   62.8271 C   0  0  0  0  0  0  0  0  0  0  0  0
   31.8361    6.8466   63.5880 C   0  0  0  0  0  0  0  0  0  0  0  0
   32.2197    5.6127   64.1982 C   0  0  0  0  0  0  0  0  0  0  0  0
   33.5376    5.1319   64.0695 C   0  0  0  0  0  0  0  0  0  0  0  0
   34.4836    5.8777   63.3093 C   0  0  0  0  0  0  0  0  0  0  0  0
   35.0825    7.7597   62.0078 F   0  0  0  0  0  0  0  0  0  0  0  0
   30.5870    7.3316   63.6960 F   0  0  0  0  0  0  0  0  0  0  0  0
   31.4313    4.8015   64.9336 F   0  0  0  0  0  0  0  0  0  0  0  0
   40.4752    2.9158   65.5202 C   0  0  0  0  0  0  0  0  0  0  0  0
   40.1191    4.8532   63.6359 C   0  0  0  0  0  0  0  0  0  0  0  0
   39.0457    4.0570   64.0915 C   0  0  0  0  0  0  0  0  0  0  0  0
   39.2237    3.0693   65.0196 N   0  0  0  0  0  0  0  0  0  0  0  0
   41.5437    3.6484   65.1343 N   0  0  0  0  0  0  0  0  0  0  0  0
   41.3965    4.6635   64.1715 C   0  0  0  0  0  0  0  0  0  0  0  0
   42.5907    5.4825   63.7255 C   0  0  0  0  0  0  0  0  0  0  0  0
   43.6262    7.1828   62.2290 C   0  0  0  0  0  0  0  0  0  0  0  0
   44.9480    6.1408   63.9871 C   0  0  0  0  0  0  0  0  0  0  0  0
   42.5156    6.4125   62.6387 C   0  0  0  0  0  0  0  0  0  0  0  0
   44.8483    7.0509   62.9058 C   0  0  0  0  0  0  0  0  0  0  0  0
   43.8330    5.3689   64.3865 C   0  0  0  0  0  0  0  0  0  0  0  0
   47.3023    7.6421   64.8491 C   0  0  0  0  0  0  0  0  0  0  0  0
   46.5188    6.0296   64.8115 S   0  0  0  0  0  0  0  0  0  0  0  0
   47.3334    5.1573   64.0148 O   0  0  0  0  0  0  0  0  0  0  0  0
   46.2499    5.6449   66.1638 O   0  0  0  0  0  0  0  0  0  0  0  0
  9 15  1  0  0  0
  9 10  2  0  0  0
  9 14  1  0  0  0
 10 11  1  0  0  0
 11 16  1  0  0  0
 11 12  2  0  0  0
  1  2  1  0  0  0
  1 14  1  0  0  0
  1  3  1  0  0  0
  2  4  1  0  0  0
 30 31  1  0  0  0
 18 21  2  0  0  0
 18 22  1  0  0  0
 19 20  2  0  0  0
 19 23  1  0  0  0
 24 23  1  0  0  0
 24 29  2  0  0  0
 24 27  1  0  0  0
 25 27  2  0  0  0
 25 28  1  0  0  0
 26 29  1  0  0  0
 26 31  1  0  0  0
 26 28  2  0  0  0
 12 13  1  0  0  0
 12 17  1  0  0  0
 13 14  2  0  0  0
  3  5  1  0  0  0
  3  6  1  0  0  0
  4 20  1  0  0  0
  4  5  1  0  0  0
 20 21  1  0  0  0
 22 23  2  0  0  0
 31 32  2  0  0  0
 31 33  2  0  0  0
  6  7  1  0  0  0
  6  8  1  0  0  0
M  END
> <minimizedAffinity>
-9.09790

$$$$
2OAG_DLI_B_4000


 33 36  0  0  0  0  0  0  0  0999 V2000
   41.7618    4.9892   63.4285 C   0  0  0  0  0  0  0  0  0  0  0  0
   40.6543    5.3219   62.4864 C   0  0  0  0  0  0  0  0  0  0  0  0
   42.2579    3.5523   63.1526 C   0  0  0  0  0  0  0  0  0  0  0  0
   40.0693    3.9862   62.3555 N   0  0  0  0  0  0  0  0  0  0  0  0
   40.9742    2.8659   62.7260 C   0  0  0  0  0  0  0  0  0  0  0  0
   42.9234    3.0326   64.3543 N   0  0  0  0  0  0  0  0  0  0  0  0
   42.2916    3.1064   65.1516 H   0  0  0  0  0  0  0  0  0  0  0  0
   43.7670    3.5758   64.5375 H   0  0  0  0  0  0  0  0  0  0  0  0
   43.2662    6.3056   64.9534 C   0  0  0  0  0  0  0  0  0  0  0  0
   44.3845    7.1499   65.2054 C   0  0  0  0  0  0  0  0  0  0  0  0
   45.1809    7.5764   64.0933 C   0  0  0  0  0  0  0  0  0  0  0  0
   44.8595    7.1545   62.7664 C   0  0  0  0  0  0  0  0  0  0  0  0
   43.7478    6.3218   62.5315 C   0  0  0  0  0  0  0  0  0  0  0  0
   42.9540    5.8871   63.6316 C   0  0  0  0  0  0  0  0  0  0  0  0
   42.4445    5.8538   65.9411 F   0  0  0  0  0  0  0  0  0  0  0  0
   46.2336    8.3729   64.3476 F   0  0  0  0  0  0  0  0  0  0  0  0
   45.5244    7.4780   61.6379 F   0  0  0  0  0  0  0  0  0  0  0  0
   37.1546    2.5356   60.8556 C   0  0  0  0  0  0  0  0  0  0  0  0
   37.7967    4.7917   62.2443 C   0  0  0  0  0  0  0  0  0  0  0  0
   38.7636    3.8083   61.9411 C   0  0  0  0  0  0  0  0  0  0  0  0
   38.4416    2.6649   61.2648 N   0  0  0  0  0  0  0  0  0  0  0  0
   36.1827    3.4415   61.1049 N   0  0  0  0  0  0  0  0  0  0  0  0
   36.4786    4.6223   61.8100 C   0  0  0  0  0  0  0  0  0  0  0  0
   35.3933    5.6382   62.1030 C   0  0  0  0  0  0  0  0  0  0  0  0
   34.5656    7.9868   62.1452 C   0  0  0  0  0  0  0  0  0  0  0  0
   33.1111    6.1696   62.8566 C   0  0  0  0  0  0  0  0  0  0  0  0
   35.5805    7.0408   61.8810 C   0  0  0  0  0  0  0  0  0  0  0  0
   33.3234    7.5524   62.6324 C   0  0  0  0  0  0  0  0  0  0  0  0
   34.1348    5.2301   62.5955 C   0  0  0  0  0  0  0  0  0  0  0  0
   30.4971    7.1340   63.7377 C   0  0  0  0  0  0  0  0  0  0  0  0
   31.5125    5.6821   63.4616 S   0  0  0  0  0  0  0  0  0  0  0  0
   31.7356    5.0473   64.7292 O   0  0  0  0  0  0  0  0  0  0  0  0
   30.8958    4.9104   62.4257 O   0  0  0  0  0  0  0  0  0  0  0  0
  9 15  1  0  0  0
  9 10  2  0  0  0
  9 14  1  0  0  0
 10 11  1  0  0  0
 11 16  1  0  0  0
 11 12  2  0  0  0
  1  2  1  0  0  0
  1 14  1  0  0  0
  1  3  1  0  0  0
  2  4  1  0  0  0
 30 31  1  0  0  0
 18 21  2  0  0  0
 18 22  1  0  0  0
 19 20  2  0  0  0
 19 23  1  0  0  0
 24 23  1  0  0  0
 24 29  2  0  0  0
 24 27  1  0  0  0
 25 27  2  0  0  0
 25 28  1  0  0  0
 26 29  1  0  0  0
 26 31  1  0  0  0
 26 28  2  0  0  0
 12 13  1  0  0  0
 12 17  1  0  0  0
 13 14  2  0  0  0
  3  5  1  0  0  0
  3  6  1  0  0  0
  4 20  1  0  0  0
  4  5  1  0  0  0
 20 21  1  0  0  0
 22 23  2  0  0  0
 31 32  2  0  0  0
 31 33  2  0  0  0
  6  7  1  0  0  0
  6  8  1  0  0  0
M  END
> <minimizedAffinity>
-8.89626

$$$$
2OAG_DLI_B_4000


 33 36  0  0  0  0  0  0  0  0999 V2000
   31.9784    5.7667   62.5684 C   0  0  0  0  0  0  0  0  0  0  0  0
   32.9999    6.1308   61.5443 C   0  0  0  0  0  0  0  0  0  0  0  0
   32.6366    5.7431   63.9660 C   0  0  0  0  0  0  0  0  0  0  0  0
   34.1702    5.5169   62.1743 N   0  0  0  0  0  0  0  0  0  0  0  0
   34.0361    5.2617   63.6330 C   0  0  0  0  0  0  0  0  0  0  0  0
   31.8370    4.8974   64.8617 N   0  0  0  0  0  0  0  0  0  0  0  0
   31.7203    3.9744   64.4435 H   0  0  0  0  0  0  0  0  0  0  0  0
   30.9216    5.3240   65.0048 H   0  0  0  0  0  0  0  0  0  0  0  0
   30.6270    7.8578   62.9185 C   0  0  0  0  0  0  0  0  0  0  0  0
   29.3953    8.5652   63.0174 C   0  0  0  0  0  0  0  0  0  0  0  0
   28.1738    7.8308   62.8696 C   0  0  0  0  0  0  0  0  0  0  0  0
   28.1984    6.4239   62.6213 C   0  0  0  0  0  0  0  0  0  0  0  0
   29.4246    5.7363   62.5294 C   0  0  0  0  0  0  0  0  0  0  0  0
   30.6443    6.4589   62.6683 C   0  0  0  0  0  0  0  0  0  0  0  0
   31.8394    8.4637   63.0523 F   0  0  0  0  0  0  0  0  0  0  0  0
   27.0194    8.5129   62.9651 F   0  0  0  0  0  0  0  0  0  0  0  0
   27.1283    5.6184   62.4595 F   0  0  0  0  0  0  0  0  0  0  0  0
   36.2539    4.4071   59.4769 C   0  0  0  0  0  0  0  0  0  0  0  0
   36.5721    5.3333   62.0208 C   0  0  0  0  0  0  0  0  0  0  0  0
   35.2931    5.1855   61.4410 C   0  0  0  0  0  0  0  0  0  0  0  0
   35.1298    4.7431   60.1580 N   0  0  0  0  0  0  0  0  0  0  0  0
   37.5059    4.5164   59.9746 N   0  0  0  0  0  0  0  0  0  0  0  0
   37.7087    4.9812   61.2869 C   0  0  0  0  0  0  0  0  0  0  0  0
   39.1091    5.1168   61.8493 C   0  0  0  0  0  0  0  0  0  0  0  0
   41.4090    6.0677   61.7550 C   0  0  0  0  0  0  0  0  0  0  0  0
   40.7796    4.5801   63.5756 C   0  0  0  0  0  0  0  0  0  0  0  0
   40.1065    5.9339   61.2255 C   0  0  0  0  0  0  0  0  0  0  0  0
   41.7494    5.3916   62.9365 C   0  0  0  0  0  0  0  0  0  0  0  0
   39.4801    4.4466   63.0352 C   0  0  0  0  0  0  0  0  0  0  0  0
   39.8708    3.6525   66.1934 C   0  0  0  0  0  0  0  0  0  0  0  0
   41.2685    3.7609   65.0753 S   0  0  0  0  0  0  0  0  0  0  0  0
   42.2637    4.5949   65.6864 O   0  0  0  0  0  0  0  0  0  0  0  0
   41.6420    2.4269   64.7152 O   0  0  0  0  0  0  0  0  0  0  0  0
  9 15  1  0  0  0
  9 10  2  0  0  0
  9 14  1  0  0  0
 10 11  1  0  0  0
 11 16  1  0  0  0
 11 12  2  0  0  0
  1  2  1  0  0  0
  1 14  1  0  0  0
  1  3  1  0  0  0
  2  4  1  0  0  0
 30 31  1  0  0  0
 18 21  2  0  0  0
 18 22  1  0  0  0
 19 20  2  0  0  0
 19 23  1  0  0  0
 24 23  1  0  0  0
 24 29  2  0  0  0
 24 27  1  0  0  0
 25 27  2  0  0  0
 25 28  1  0  0  0
 26 29  1  0  0  0
 26 31  1  0  0  0
 26 28  2  0  0  0
 12 13  1  0  0  0
 12 17  1  0  0  0
 13 14  2  0  0  0
  3  5  1  0  0  0
  3  6  1  0  0  0
  4 20  1  0  0  0
  4  5  1  0  0  0
 20 21  1  0  0  0
 22 23  2  0  0  0
 31 32  2  0  0  0
 31 33  2  0  0  0
  6  7  1  0  0  0
  6  8  1  0  0  0
M  END
> <minimizedAffinity>
-8.77674

$$$$
2OAG_DLI_B_4000


 33 36  0  0  0  0  0  0  0  0999 V2000
   31.8924    6.6542   62.6048 C   0  0  0  0  0  0  0  0  0  0  0  0
   32.6782    6.0948   63.7425 C   0  0  0  0  0  0  0  0  0  0  0  0
   32.0523    5.7395   61.3700 C   0  0  0  0  0  0  0  0  0  0  0  0
   33.7749    5.4972   62.9786 N   0  0  0  0  0  0  0  0  0  0  0  0
   33.4743    5.2410   61.5450 C   0  0  0  0  0  0  0  0  0  0  0  0
   31.7626    6.5131   60.1557 N   0  0  0  0  0  0  0  0  0  0  0  0
   32.3525    7.3449   60.1337 H   0  0  0  0  0  0  0  0  0  0  0  0
   30.7814    6.7919   60.1562 H   0  0  0  0  0  0  0  0  0  0  0  0
   29.4497    6.0804   62.4453 C   0  0  0  0  0  0  0  0  0  0  0  0
   28.0665    6.3992   62.5555 C   0  0  0  0  0  0  0  0  0  0  0  0
   27.7027    7.7268   62.9535 C   0  0  0  0  0  0  0  0  0  0  0  0
   28.7090    8.7002   63.2390 C   0  0  0  0  0  0  0  0  0  0  0  0
   30.0739    8.3716   63.1222 C   0  0  0  0  0  0  0  0  0  0  0  0
   30.4455    7.0525   62.7337 C   0  0  0  0  0  0  0  0  0  0  0  0
   29.8962    4.8506   62.0670 F   0  0  0  0  0  0  0  0  0  0  0  0
   26.3928    8.0121   63.0535 F   0  0  0  0  0  0  0  0  0  0  0  0
   28.5046    9.9769   63.6246 F   0  0  0  0  0  0  0  0  0  0  0  0
   36.2369    4.5295   65.3976 C   0  0  0  0  0  0  0  0  0  0  0  0
   36.1814    5.4044   62.8164 C   0  0  0  0  0  0  0  0  0  0  0  0
   34.9965    5.2252   63.5633 C   0  0  0  0  0  0  0  0  0  0  0  0
   35.0180    4.7651   64.8503 N   0  0  0  0  0  0  0  0  0  0  0  0
   37.4083    4.6881   64.7420 N   0  0  0  0  0  0  0  0  0  0  0  0
   37.4197    5.1472   63.4122 C   0  0  0  0  0  0  0  0  0  0  0  0
   38.7275    5.3179   62.6664 C   0  0  0  0  0  0  0  0  0  0  0  0
   41.1687    4.8863   62.4282 C   0  0  0  0  0  0  0  0  0  0  0  0
   39.9955    6.2043   60.7519 C   0  0  0  0  0  0  0  0  0  0  0  0
   39.9516    4.7351   63.1285 C   0  0  0  0  0  0  0  0  0  0  0  0
   41.1937    5.6209   61.2330 C   0  0  0  0  0  0  0  0  0  0  0  0
   38.7827    6.0533   61.4626 C   0  0  0  0  0  0  0  0  0  0  0  0
   38.4983    7.0842   58.4017 C   0  0  0  0  0  0  0  0  0  0  0  0
   40.0904    7.1110   59.2261 S   0  0  0  0  0  0  0  0  0  0  0  0
   41.0322    6.4130   58.3982 O   0  0  0  0  0  0  0  0  0  0  0  0
   40.3796    8.4701   59.5698 O   0  0  0  0  0  0  0  0  0  0  0  0
  9 15  1  0  0  0
  9 10  2  0  0  0
  9 14  1  0  0  0
 10 11  1  0  0  0
 11 16  1  0  0  0
 11 12  2  0  0  0
  1  2  1  0  0  0
  1 14  1  0  0  0
  1  3  1  0  0  0
  2  4  1  0  0  0
 30 31  1  0  0  0
 18 21  2  0  0  0
 18 22  1  0  0  0
 19 20  2  0  0  0
 19 23  1  0  0  0
 24 23  1  0  0  0
 24 29  2  0  0  0
 24 27  1  0  0  0
 25 27  2  0  0  0
 25 28  1  0  0  0
 26 29  1  0  0  0
 26 31  1  0  0  0
 26 28  2  0  0  0
 12 13  1  0  0  0
 12 17  1  0  0  0
 13 14  2  0  0  0
  3  5  1  0  0  0
  3  6  1  0  0  0
  4 20  1  0  0  0
  4  5  1  0  0  0
 20 21  1  0  0  0
 22 23  2  0  0  0
 31 32  2  0  0  0
 31 33  2  0  0  0
  6  7  1  0  0  0
  6  8  1  0  0  0
M  END
> <minimizedAffinity>
-8.71785

$$$$
2OAG_DLI_B_4000


 33 36  0  0  0  0  0  0  0  0999 V2000
   33.2976    5.6997   62.5070 C   0  0  0  0  0  0  0  0  0  0  0  0
   34.4175    6.3772   61.7916 C   0  0  0  0  0  0  0  0  0  0  0  0
   33.7015    5.4517   63.9775 C   0  0  0  0  0  0  0  0  0  0  0  0
   35.5374    5.7714   62.5143 N   0  0  0  0  0  0  0  0  0  0  0  0
   35.1918    5.2019   63.8437 C   0  0  0  0  0  0  0  0  0  0  0  0
   32.8890    4.3566   64.5229 N   0  0  0  0  0  0  0  0  0  0  0  0
   32.9796    3.5355   63.9247 H   0  0  0  0  0  0  0  0  0  0  0  0
   31.9111    4.6444   64.5595 H   0  0  0  0  0  0  0  0  0  0  0  0
   31.0771    5.8869   61.3426 C   0  0  0  0  0  0  0  0  0  0  0  0
   29.7295    6.3379   61.2555 C   0  0  0  0  0  0  0  0  0  0  0  0
   29.2070    7.1351   62.3253 C   0  0  0  0  0  0  0  0  0  0  0  0
   30.0219    7.4595   63.4535 C   0  0  0  0  0  0  0  0  0  0  0  0
   31.3549    7.0092   63.5246 C   0  0  0  0  0  0  0  0  0  0  0  0
   31.8811    6.2105   62.4689 C   0  0  0  0  0  0  0  0  0  0  0  0
   31.6672    5.1318   60.3748 F   0  0  0  0  0  0  0  0  0  0  0  0
   27.9330    7.5529   62.2286 F   0  0  0  0  0  0  0  0  0  0  0  0
   29.6551    8.1940   64.5241 F   0  0  0  0  0  0  0  0  0  0  0  0
   38.2086    5.8760   60.1262 C   0  0  0  0  0  0  0  0  0  0  0  0
   37.9135    5.4609   62.8042 C   0  0  0  0  0  0  0  0  0  0  0  0
   36.8055    5.7225   61.9687 C   0  0  0  0  0  0  0  0  0  0  0  0
   36.9511    5.9536   60.6293 N   0  0  0  0  0  0  0  0  0  0  0  0
   39.3100    5.6219   60.8677 N   0  0  0  0  0  0  0  0  0  0  0  0
   39.1956    5.3928   62.2510 C   0  0  0  0  0  0  0  0  0  0  0  0
   40.4259    5.1176   63.0915 C   0  0  0  0  0  0  0  0  0  0  0  0
   41.5304    4.0302   65.0409 C   0  0  0  0  0  0  0  0  0  0  0  0
   42.8370    5.3918   63.5039 C   0  0  0  0  0  0  0  0  0  0  0  0
   40.3817    4.2944   64.2628 C   0  0  0  0  0  0  0  0  0  0  0  0
   42.7654    4.5773   64.6611 C   0  0  0  0  0  0  0  0  0  0  0  0
   41.6810    5.6564   62.7343 C   0  0  0  0  0  0  0  0  0  0  0  0
   45.7185    5.1149   63.9037 C   0  0  0  0  0  0  0  0  0  0  0  0
   44.4322    6.0438   63.0684 S   0  0  0  0  0  0  0  0  0  0  0  0
   44.4664    7.3918   63.5593 O   0  0  0  0  0  0  0  0  0  0  0  0
   44.5922    5.8396   61.6607 O   0  0  0  0  0  0  0  0  0  0  0  0
  9 15  1  0  0  0
  9 10  2  0  0  0
  9 14  1  0  0  0
 10 11  1  0  0  0
 11 16  1  0  0  0
 11 12  2  0  0  0
  1  2  1  0  0  0
  1 14  1  0  0  0
  1  3  1  0  0  0
  2  4  1  0  0  0
 30 31  1  0  0  0
 18 21  2  0  0  0
 18 22  1  0  0  0
 19 20  2  0  0  0
 19 23  1  0  0  0
 24 23  1  0  0  0
 24 29  2  0  0  0
 24 27  1  0  0  0
 25 27  2  0  0  0
 25 28  1  0  0  0
 26 29  1  0  0  0
 26 31  1  0  0  0
 26 28  2  0  0  0
 12 13  1  0  0  0
 12 17  1  0  0  0
 13 14  2  0  0  0
  3  5  1  0  0  0
  3  6  1  0  0  0
  4 20  1  0  0  0
  4  5  1  0  0  0
 20 21  1  0  0  0
 22 23  2  0  0  0
 31 32  2  0  0  0
 31 33  2  0  0  0
  6  7  1  0  0  0
  6  8  1  0  0  0
M  END
> <minimizedAffinity>
-8.68831

$$$$
