5IKB_KAI_A_301
  RCSB PDB12061718113D
Coordinates from PDB:5IKB:A:301 Model:1 without hydrogens
 15 15  0  0  0  0            999 V2000
   15.7050   20.5010   62.2950   N 0  0  0  0  0  0  0  0  0  0  0  0
   16.7640   21.5310   62.0930   C 0  0  0  0  0  0  0  0  0  0  0  0
   18.0800   23.7940   64.8920   C 0  0  0  0  0  0  0  0  0  0  0  0
   19.3290   22.7830   63.0470   C 0  0  0  0  0  0  0  0  0  0  0  0
   15.3530   20.3710   63.7090   C 0  0  0  0  0  0  0  0  0  0  0  0
   16.4870   21.1120   64.4140   C 0  0  0  0  0  0  0  0  0  0  0  0
   17.7190   20.2170   64.6850   C 0  0  0  0  0  0  0  0  0  0  0  0
   16.8030   22.2320   63.4380   C 0  0  0  0  0  0  0  0  0  0  0  0
   17.5820   19.1250   65.7530   C 0  0  0  0  0  0  0  0  0  0  0  0
   18.0690   23.0060   63.8350   C 0  0  0  0  0  0  0  0  0  0  0  0
   14.0060   21.0150   63.9190   C 0  0  0  0  0  0  0  0  0  0  0  0
   13.3950   21.4220   62.8700   O 0  0  0  0  0  0  0  0  0  0  0  0
   16.5290   19.0680   66.4150   O 0  0  0  0  0  0  0  0  0  0  0  0
   18.5010   18.3280   65.9200   O 0  0  0  0  0  0  0  0  0  0  0  0
   13.6690   21.2070   65.1120   O 0  0  0  0  0  0  0  0  0  0  0  0
  1  2  1  0  0  0  0
  1  5  1  0  0  0  0
  2  8  1  0  0  0  0
  3 10  2  0  0  0  0
  4 10  1  0  0  0  0
  5  6  1  0  0  0  0
  5 11  1  0  0  0  0
  6  7  1  0  0  0  0
  6  8  1  0  0  0  0
  7  9  1  0  0  0  0
  8 10  1  0  0  0  0
  9 13  1  0  0  0  0
  9 14  2  0  0  0  0
 11 12  2  0  0  0  0
 11 15  1  0  0  0  0
A    1
N
A    2
CD
A    3
CD1
A    4
CD2
A    5
CA
A    6
CB
A    7
CB1
A    8
CG
A    9
CG1
A   10
CG2
A   11
C
A   12
O
A   13
OD1
A   14
OD2
A   15
OXT
M  END
>  <InstanceId>
5IKB_KAI_A_301

>  <ChemCompId>
KAI

>  <PdbId>
5IKB

>  <ChainId>
A

>  <ResidueNumber>
301

>  <InsertionCode>


>  <Model>
1

>  <AltIds>


>  <MissingHeavyAtoms>
0

>  <ObservedFormula>
C10 N O4

>  <Name>
3-(CARBOXYMETHYL)-4-ISOPROPENYLPROLINE

>  <SystematicName>
(2S,3S,4S)-3-(carboxymethyl)-4-prop-1-en-2-yl-pyrrolidine-2-carboxylic acid

>  <Synonyms>
KAINATE

>  <Type>
NON-POLYMER

>  <Formula>
C10 H15 N O4

>  <MolecularWeight>
213.23

>  <ModifiedDate>
2011-06-04

>  <Parent>


>  <OneLetterCode>


>  <SubcomponentList>


>  <AmbiguousFlag>
N

>  <InChI>
InChI=1S/C10H15NO4/c1-5(2)7-4-11-9(10(14)15)6(7)3-8(12)13/h6-7,9,11H,1,3-4H2,2H3,(H,12,13)(H,14,15)/t6-,7+,9-/m0/s1

>  <InChIKey>
VLSMHEGGTFMBBZ-OOZYFLPDSA-N

>  <SMILES>
CC(=C)[C@H]1CN[C@@H]([C@H]1CC(=O)O)C(=O)O

$$$$
