4R0A_URI_A_901


 21 22  0  0  0  0  0  0  0  0999 V2000
  -19.2593   58.7300  -34.4081 C   0  0  0  0  0  0  0  0  0  0  0  0
  -19.8367   58.1922  -35.7161 C   0  0  0  0  0  0  0  0  0  0  0  0
  -20.9849   57.3117  -35.2311 C   0  0  0  0  0  0  0  0  0  0  0  0
  -20.5742   56.8995  -33.8177 C   0  0  0  0  0  0  0  0  0  0  0  0
  -20.2986   59.2622  -36.5073 O   0  0  0  0  0  0  0  0  0  0  0  0
  -22.2231   58.0388  -35.2335 O   0  0  0  0  0  0  0  0  0  0  0  0
  -19.4535   57.7202  -33.4341 O   0  0  0  0  0  0  0  0  0  0  0  0
  -20.9411   59.7842  -36.0017 H   0  0  0  0  0  0  0  0  0  0  0  0
  -22.1366   58.8264  -34.6741 H   0  0  0  0  0  0  0  0  0  0  0  0
  -17.8247   59.0557  -34.4685 N   0  0  0  0  0  0  0  0  0  0  0  0
  -16.9284   58.0899  -34.9004 C   0  0  0  0  0  0  0  0  0  0  0  0
  -15.6173   58.4867  -34.8965 N   0  0  0  0  0  0  0  0  0  0  0  0
  -15.1051   59.6766  -34.4274 C   0  0  0  0  0  0  0  0  0  0  0  0
  -16.0808   60.5775  -33.9016 C   0  0  0  0  0  0  0  0  0  0  0  0
  -17.3784   60.2476  -33.9502 C   0  0  0  0  0  0  0  0  0  0  0  0
  -17.2705   56.9929  -35.3180 O   0  0  0  0  0  0  0  0  0  0  0  0
  -13.8871   59.8644  -34.4578 O   0  0  0  0  0  0  0  0  0  0  0  0
  -14.9673   57.8494  -35.2714 H   0  0  0  0  0  0  0  0  0  0  0  0
  -20.2416   55.4378  -33.6099 C   0  0  0  0  0  0  0  0  0  0  0  0
  -19.1946   55.0345  -34.4741 O   0  0  0  0  0  0  0  0  0  0  0  0
  -19.4708   55.1572  -35.3958 H   0  0  0  0  0  0  0  0  0  0  0  0
 10 11  1  0  0  0
 10 15  1  0  0  0
 10  1  1  0  0  0
 11 12  1  0  0  0
 11 16  2  0  0  0
 12 13  1  0  0  0
 13 14  1  0  0  0
 13 17  2  0  0  0
 14 15  2  0  0  0
  1  2  1  0  0  0
  1  7  1  0  0  0
  2  3  1  0  0  0
  2  5  1  0  0  0
  3  4  1  0  0  0
  3  6  1  0  0  0
  4  7  1  0  0  0
  4 19  1  0  0  0
 19 20  1  0  0  0
 12 18  1  0  0  0
  5  8  1  0  0  0
  6  9  1  0  0  0
 20 21  1  0  0  0
M  END
> <minimizedAffinity>
-8.92124

$$$$
4R0A_URI_A_901


 21 22  0  0  0  0  0  0  0  0999 V2000
  -18.8668   57.7075  -35.0684 C   0  0  0  0  0  0  0  0  0  0  0  0
  -19.1902   56.6671  -33.9977 C   0  0  0  0  0  0  0  0  0  0  0  0
  -20.7106   56.5687  -34.0835 C   0  0  0  0  0  0  0  0  0  0  0  0
  -21.1465   57.9244  -34.6388 C   0  0  0  0  0  0  0  0  0  0  0  0
  -18.5697   55.4444  -34.3203 O   0  0  0  0  0  0  0  0  0  0  0  0
  -21.1055   55.4902  -34.9453 O   0  0  0  0  0  0  0  0  0  0  0  0
  -19.9645   58.6017  -35.1089 O   0  0  0  0  0  0  0  0  0  0  0  0
  -18.8457   55.1660  -35.2076 H   0  0  0  0  0  0  0  0  0  0  0  0
  -20.7214   55.6229  -35.8261 H   0  0  0  0  0  0  0  0  0  0  0  0
  -17.6402   58.4799  -34.8108 N   0  0  0  0  0  0  0  0  0  0  0  0
  -16.4072   57.8952  -35.0568 C   0  0  0  0  0  0  0  0  0  0  0  0
  -15.3307   58.6894  -34.7618 N   0  0  0  0  0  0  0  0  0  0  0  0
  -15.3466   59.9336  -34.1706 C   0  0  0  0  0  0  0  0  0  0  0  0
  -16.6497   60.4234  -33.8513 C   0  0  0  0  0  0  0  0  0  0  0  0
  -17.7272   59.7007  -34.1856 C   0  0  0  0  0  0  0  0  0  0  0  0
  -16.2756   56.7884  -35.5593 O   0  0  0  0  0  0  0  0  0  0  0  0
  -14.2798   60.5039  -33.9331 O   0  0  0  0  0  0  0  0  0  0  0  0
  -14.4453   58.3303  -34.9993 H   0  0  0  0  0  0  0  0  0  0  0  0
  -21.9193   58.8232  -33.6978 C   0  0  0  0  0  0  0  0  0  0  0  0
  -22.3483   59.9964  -34.3650 O   0  0  0  0  0  0  0  0  0  0  0  0
  -21.5755   60.4851  -34.6888 H   0  0  0  0  0  0  0  0  0  0  0  0
 10 11  1  0  0  0
 10 15  1  0  0  0
 10  1  1  0  0  0
 11 12  1  0  0  0
 11 16  2  0  0  0
 12 13  1  0  0  0
 13 14  1  0  0  0
 13 17  2  0  0  0
 14 15  2  0  0  0
  1  2  1  0  0  0
  1  7  1  0  0  0
  2  3  1  0  0  0
  2  5  1  0  0  0
  3  4  1  0  0  0
  3  6  1  0  0  0
  4  7  1  0  0  0
  4 19  1  0  0  0
 19 20  1  0  0  0
 12 18  1  0  0  0
  5  8  1  0  0  0
  6  9  1  0  0  0
 20 21  1  0  0  0
M  END
> <minimizedAffinity>
-8.54498

$$$$
4R0A_URI_A_901


 21 22  0  0  0  0  0  0  0  0999 V2000
  -19.3631   58.6180  -34.5158 C   0  0  0  0  0  0  0  0  0  0  0  0
  -19.8437   58.0452  -35.8479 C   0  0  0  0  0  0  0  0  0  0  0  0
  -20.9765   57.1177  -35.4173 C   0  0  0  0  0  0  0  0  0  0  0  0
  -20.6258   56.7348  -33.9797 C   0  0  0  0  0  0  0  0  0  0  0  0
  -20.3088   59.0876  -36.6734 O   0  0  0  0  0  0  0  0  0  0  0  0
  -22.2438   57.7884  -35.4940 O   0  0  0  0  0  0  0  0  0  0  0  0
  -19.5652   57.6077  -33.5440 O   0  0  0  0  0  0  0  0  0  0  0  0
  -21.0005   59.5840  -36.2086 H   0  0  0  0  0  0  0  0  0  0  0  0
  -22.2231   58.5833  -34.9384 H   0  0  0  0  0  0  0  0  0  0  0  0
  -17.9433   59.0073  -34.5015 N   0  0  0  0  0  0  0  0  0  0  0  0
  -17.6082   60.3406  -34.3208 C   0  0  0  0  0  0  0  0  0  0  0  0
  -16.2632   60.5989  -34.3474 N   0  0  0  0  0  0  0  0  0  0  0  0
  -15.2467   59.7117  -34.6261 C   0  0  0  0  0  0  0  0  0  0  0  0
  -15.6801   58.3797  -34.9049 C   0  0  0  0  0  0  0  0  0  0  0  0
  -16.9830   58.0783  -34.8233 C   0  0  0  0  0  0  0  0  0  0  0  0
  -18.4300   61.2154  -34.0879 O   0  0  0  0  0  0  0  0  0  0  0  0
  -14.0819   60.1150  -34.6507 O   0  0  0  0  0  0  0  0  0  0  0  0
  -15.9922   61.5233  -34.1443 H   0  0  0  0  0  0  0  0  0  0  0  0
  -20.2404   55.2910  -33.7399 C   0  0  0  0  0  0  0  0  0  0  0  0
  -19.0815   54.9523  -34.4801 O   0  0  0  0  0  0  0  0  0  0  0  0
  -19.2571   55.0686  -35.4269 H   0  0  0  0  0  0  0  0  0  0  0  0
 10 11  1  0  0  0
 10 15  1  0  0  0
 10  1  1  0  0  0
 11 12  1  0  0  0
 11 16  2  0  0  0
 12 13  1  0  0  0
 13 14  1  0  0  0
 13 17  2  0  0  0
 14 15  2  0  0  0
  1  2  1  0  0  0
  1  7  1  0  0  0
  2  3  1  0  0  0
  2  5  1  0  0  0
  3  4  1  0  0  0
  3  6  1  0  0  0
  4  7  1  0  0  0
  4 19  1  0  0  0
 19 20  1  0  0  0
 12 18  1  0  0  0
  5  8  1  0  0  0
  6  9  1  0  0  0
 20 21  1  0  0  0
M  END
> <minimizedAffinity>
-7.74563

$$$$
4R0A_URI_A_901


 21 22  0  0  0  0  0  0  0  0999 V2000
  -18.2763   58.7411  -35.2606 C   0  0  0  0  0  0  0  0  0  0  0  0
  -18.6815   60.1497  -34.8304 C   0  0  0  0  0  0  0  0  0  0  0  0
  -17.4888   60.9874  -35.2829 C   0  0  0  0  0  0  0  0  0  0  0  0
  -16.3187   60.0040  -35.2942 C   0  0  0  0  0  0  0  0  0  0  0  0
  -19.8653   60.5272  -35.4939 O   0  0  0  0  0  0  0  0  0  0  0  0
  -17.7226   61.5495  -36.5833 O   0  0  0  0  0  0  0  0  0  0  0  0
  -16.8649   58.6772  -35.1605 O   0  0  0  0  0  0  0  0  0  0  0  0
  -19.7370   60.4515  -36.4524 H   0  0  0  0  0  0  0  0  0  0  0  0
  -17.8993   60.8365  -37.2167 H   0  0  0  0  0  0  0  0  0  0  0  0
  -18.8554   57.6667  -34.4372 N   0  0  0  0  0  0  0  0  0  0  0  0
  -18.4489   56.3579  -34.6478 C   0  0  0  0  0  0  0  0  0  0  0  0
  -19.0653   55.4336  -33.8463 N   0  0  0  0  0  0  0  0  0  0  0  0
  -20.0881   55.6538  -32.9499 C   0  0  0  0  0  0  0  0  0  0  0  0
  -20.5232   57.0116  -32.8663 C   0  0  0  0  0  0  0  0  0  0  0  0
  -19.8978   57.9512  -33.5881 C   0  0  0  0  0  0  0  0  0  0  0  0
  -17.5650   56.0457  -35.4327 O   0  0  0  0  0  0  0  0  0  0  0  0
  -20.5652   54.7004  -32.3308 O   0  0  0  0  0  0  0  0  0  0  0  0
  -18.7407   54.5071  -33.9191 H   0  0  0  0  0  0  0  0  0  0  0  0
  -15.2386   60.2269  -34.2577 C   0  0  0  0  0  0  0  0  0  0  0  0
  -14.1629   59.3269  -34.4536 O   0  0  0  0  0  0  0  0  0  0  0  0
  -14.4843   58.4156  -34.3692 H   0  0  0  0  0  0  0  0  0  0  0  0
 10 11  1  0  0  0
 10 15  1  0  0  0
 10  1  1  0  0  0
 11 12  1  0  0  0
 11 16  2  0  0  0
 12 13  1  0  0  0
 13 14  1  0  0  0
 13 17  2  0  0  0
 14 15  2  0  0  0
  1  2  1  0  0  0
  1  7  1  0  0  0
  2  3  1  0  0  0
  2  5  1  0  0  0
  3  4  1  0  0  0
  3  6  1  0  0  0
  4  7  1  0  0  0
  4 19  1  0  0  0
 19 20  1  0  0  0
 12 18  1  0  0  0
  5  8  1  0  0  0
  6  9  1  0  0  0
 20 21  1  0  0  0
M  END
> <minimizedAffinity>
-7.51339

$$$$
4R0A_URI_A_901


 21 22  0  0  0  0  0  0  0  0999 V2000
  -18.4495   58.8159  -35.6226 C   0  0  0  0  0  0  0  0  0  0  0  0
  -18.8234   60.0477  -34.8001 C   0  0  0  0  0  0  0  0  0  0  0  0
  -17.5749   60.9165  -34.9233 C   0  0  0  0  0  0  0  0  0  0  0  0
  -16.4454   59.9203  -35.1845 C   0  0  0  0  0  0  0  0  0  0  0  0
  -19.9514   60.6729  -35.3665 O   0  0  0  0  0  0  0  0  0  0  0  0
  -17.7113   61.8584  -35.9983 O   0  0  0  0  0  0  0  0  0  0  0  0
  -17.0499   58.6475  -35.4864 O   0  0  0  0  0  0  0  0  0  0  0  0
  -19.7713   60.8845  -36.2958 H   0  0  0  0  0  0  0  0  0  0  0  0
  -17.8790   61.3819  -36.8264 H   0  0  0  0  0  0  0  0  0  0  0  0
  -19.1166   57.5758  -35.1926 N   0  0  0  0  0  0  0  0  0  0  0  0
  -20.4421   57.3640  -35.5404 C   0  0  0  0  0  0  0  0  0  0  0  0
  -20.9741   56.1920  -35.0712 N   0  0  0  0  0  0  0  0  0  0  0  0
  -20.3749   55.2787  -34.2318 C   0  0  0  0  0  0  0  0  0  0  0  0
  -19.0464   55.6199  -33.8332 C   0  0  0  0  0  0  0  0  0  0  0  0
  -18.4726   56.7258  -34.3259 C   0  0  0  0  0  0  0  0  0  0  0  0
  -21.0772   58.1187  -36.2627 O   0  0  0  0  0  0  0  0  0  0  0  0
  -21.0090   54.2867  -33.8660 O   0  0  0  0  0  0  0  0  0  0  0  0
  -21.8883   55.9782  -35.3676 H   0  0  0  0  0  0  0  0  0  0  0  0
  -15.4189   59.7589  -34.0842 C   0  0  0  0  0  0  0  0  0  0  0  0
  -14.1904   59.2898  -34.6100 O   0  0  0  0  0  0  0  0  0  0  0  0
  -14.3272   58.4260  -35.0297 H   0  0  0  0  0  0  0  0  0  0  0  0
 10 11  1  0  0  0
 10 15  1  0  0  0
 10  1  1  0  0  0
 11 12  1  0  0  0
 11 16  2  0  0  0
 12 13  1  0  0  0
 13 14  1  0  0  0
 13 17  2  0  0  0
 14 15  2  0  0  0
  1  2  1  0  0  0
  1  7  1  0  0  0
  2  3  1  0  0  0
  2  5  1  0  0  0
  3  4  1  0  0  0
  3  6  1  0  0  0
  4  7  1  0  0  0
  4 19  1  0  0  0
 19 20  1  0  0  0
 12 18  1  0  0  0
  5  8  1  0  0  0
  6  9  1  0  0  0
 20 21  1  0  0  0
M  END
> <minimizedAffinity>
-7.23730

$$$$
4R0A_URI_A_901


 21 22  0  0  0  0  0  0  0  0999 V2000
  -18.3007   60.2276  -34.5713 C   0  0  0  0  0  0  0  0  0  0  0  0
  -19.1504   60.2698  -35.8401 C   0  0  0  0  0  0  0  0  0  0  0  0
  -20.2670   59.2798  -35.5208 C   0  0  0  0  0  0  0  0  0  0  0  0
  -19.6473   58.3277  -34.4982 C   0  0  0  0  0  0  0  0  0  0  0  0
  -19.6490   61.5726  -36.0352 O   0  0  0  0  0  0  0  0  0  0  0  0
  -21.4148   59.9580  -34.9875 O   0  0  0  0  0  0  0  0  0  0  0  0
  -18.4064   58.9124  -34.0565 O   0  0  0  0  0  0  0  0  0  0  0  0
  -20.1401   61.8523  -35.2469 H   0  0  0  0  0  0  0  0  0  0  0  0
  -21.1583   60.4516  -34.1928 H   0  0  0  0  0  0  0  0  0  0  0  0
  -16.8771   60.5358  -34.7858 N   0  0  0  0  0  0  0  0  0  0  0  0
  -16.4263   60.7951  -36.0712 C   0  0  0  0  0  0  0  0  0  0  0  0
  -15.0829   61.0466  -36.1641 N   0  0  0  0  0  0  0  0  0  0  0  0
  -14.1466   60.9721  -35.1564 C   0  0  0  0  0  0  0  0  0  0  0  0
  -14.6727   60.5965  -33.8827 C   0  0  0  0  0  0  0  0  0  0  0  0
  -15.9916   60.4071  -33.7427 C   0  0  0  0  0  0  0  0  0  0  0  0
  -17.1657   60.8646  -37.0424 O   0  0  0  0  0  0  0  0  0  0  0  0
  -12.9611   61.1901  -35.4151 O   0  0  0  0  0  0  0  0  0  0  0  0
  -14.7487   61.3105  -37.0518 H   0  0  0  0  0  0  0  0  0  0  0  0
  -19.4157   56.9034  -34.9546 C   0  0  0  0  0  0  0  0  0  0  0  0
  -19.9637   56.6951  -36.2437 O   0  0  0  0  0  0  0  0  0  0  0  0
  -20.9198   56.8565  -36.2186 H   0  0  0  0  0  0  0  0  0  0  0  0
 10 11  1  0  0  0
 10 15  1  0  0  0
 10  1  1  0  0  0
 11 12  1  0  0  0
 11 16  2  0  0  0
 12 13  1  0  0  0
 13 14  1  0  0  0
 13 17  2  0  0  0
 14 15  2  0  0  0
  1  2  1  0  0  0
  1  7  1  0  0  0
  2  3  1  0  0  0
  2  5  1  0  0  0
  3  4  1  0  0  0
  3  6  1  0  0  0
  4  7  1  0  0  0
  4 19  1  0  0  0
 19 20  1  0  0  0
 12 18  1  0  0  0
  5  8  1  0  0  0
  6  9  1  0  0  0
 20 21  1  0  0  0
M  END
> <minimizedAffinity>
-7.21163

$$$$
4R0A_URI_A_901


 21 22  0  0  0  0  0  0  0  0999 V2000
  -17.9070   59.0142  -34.2103 C   0  0  0  0  0  0  0  0  0  0  0  0
  -16.7463   58.9600  -35.2019 C   0  0  0  0  0  0  0  0  0  0  0  0
  -16.6199   60.4164  -35.6399 C   0  0  0  0  0  0  0  0  0  0  0  0
  -18.0175   60.9976  -35.4278 C   0  0  0  0  0  0  0  0  0  0  0  0
  -15.5830   58.5096  -34.5477 O   0  0  0  0  0  0  0  0  0  0  0  0
  -15.6342   61.1032  -34.8536 O   0  0  0  0  0  0  0  0  0  0  0  0
  -18.7723   60.0434  -34.6554 O   0  0  0  0  0  0  0  0  0  0  0  0
  -15.3980   59.0817  -33.7866 H   0  0  0  0  0  0  0  0  0  0  0  0
  -15.8735   61.0482  -33.9151 H   0  0  0  0  0  0  0  0  0  0  0  0
  -18.6766   57.7631  -34.1103 N   0  0  0  0  0  0  0  0  0  0  0  0
  -18.2804   56.6627  -34.8552 C   0  0  0  0  0  0  0  0  0  0  0  0
  -19.0770   55.5580  -34.7080 N   0  0  0  0  0  0  0  0  0  0  0  0
  -20.2519   55.4634  -33.9947 C   0  0  0  0  0  0  0  0  0  0  0  0
  -20.6488   56.6693  -33.3404 C   0  0  0  0  0  0  0  0  0  0  0  0
  -19.8590   57.7493  -33.4100 C   0  0  0  0  0  0  0  0  0  0  0  0
  -17.2671   56.6425  -35.5391 O   0  0  0  0  0  0  0  0  0  0  0  0
  -20.8762   54.4004  -33.9963 O   0  0  0  0  0  0  0  0  0  0  0  0
  -18.7759   54.7389  -35.1636 H   0  0  0  0  0  0  0  0  0  0  0  0
  -18.7866   61.3802  -36.6739 C   0  0  0  0  0  0  0  0  0  0  0  0
  -19.5880   60.3008  -37.1191 O   0  0  0  0  0  0  0  0  0  0  0  0
  -19.0209   59.5428  -37.3305 H   0  0  0  0  0  0  0  0  0  0  0  0
 10 11  1  0  0  0
 10 15  1  0  0  0
 10  1  1  0  0  0
 11 12  1  0  0  0
 11 16  2  0  0  0
 12 13  1  0  0  0
 13 14  1  0  0  0
 13 17  2  0  0  0
 14 15  2  0  0  0
  1  2  1  0  0  0
  1  7  1  0  0  0
  2  3  1  0  0  0
  2  5  1  0  0  0
  3  4  1  0  0  0
  3  6  1  0  0  0
  4  7  1  0  0  0
  4 19  1  0  0  0
 19 20  1  0  0  0
 12 18  1  0  0  0
  5  8  1  0  0  0
  6  9  1  0  0  0
 20 21  1  0  0  0
M  END
> <minimizedAffinity>
-7.11908

$$$$
4R0A_URI_A_901


 21 22  0  0  0  0  0  0  0  0999 V2000
  -17.2553   60.3623  -34.8395 C   0  0  0  0  0  0  0  0  0  0  0  0
  -18.4928   60.3371  -35.7349 C   0  0  0  0  0  0  0  0  0  0  0  0
  -19.3209   59.2126  -35.1194 C   0  0  0  0  0  0  0  0  0  0  0  0
  -18.2900   58.3139  -34.4368 C   0  0  0  0  0  0  0  0  0  0  0  0
  -19.1589   61.5759  -35.6600 O   0  0  0  0  0  0  0  0  0  0  0  0
  -20.2746   59.7343  -34.1814 O   0  0  0  0  0  0  0  0  0  0  0  0
  -17.0399   59.0304  -34.4086 O   0  0  0  0  0  0  0  0  0  0  0  0
  -19.3712   61.7735  -34.7344 H   0  0  0  0  0  0  0  0  0  0  0  0
  -19.8098   60.2333  -33.4915 H   0  0  0  0  0  0  0  0  0  0  0  0
  -16.0348   60.8438  -35.5074 N   0  0  0  0  0  0  0  0  0  0  0  0
  -14.8501   60.9078  -34.7897 C   0  0  0  0  0  0  0  0  0  0  0  0
  -13.7809   61.3913  -35.4965 N   0  0  0  0  0  0  0  0  0  0  0  0
  -13.7857   61.8982  -36.7776 C   0  0  0  0  0  0  0  0  0  0  0  0
  -15.0647   61.8951  -37.4133 C   0  0  0  0  0  0  0  0  0  0  0  0
  -16.1185   61.3691  -36.7746 C   0  0  0  0  0  0  0  0  0  0  0  0
  -14.7369   60.5057  -33.6406 O   0  0  0  0  0  0  0  0  0  0  0  0
  -12.7383   62.3354  -37.2587 O   0  0  0  0  0  0  0  0  0  0  0  0
  -12.9105   61.3748  -35.0369 H   0  0  0  0  0  0  0  0  0  0  0  0
  -18.0868   56.9403  -35.0389 C   0  0  0  0  0  0  0  0  0  0  0  0
  -19.2314   56.5398  -35.7704 O   0  0  0  0  0  0  0  0  0  0  0  0
  -19.9979   56.5032  -35.1771 H   0  0  0  0  0  0  0  0  0  0  0  0
 10 11  1  0  0  0
 10 15  1  0  0  0
 10  1  1  0  0  0
 11 12  1  0  0  0
 11 16  2  0  0  0
 12 13  1  0  0  0
 13 14  1  0  0  0
 13 17  2  0  0  0
 14 15  2  0  0  0
  1  2  1  0  0  0
  1  7  1  0  0  0
  2  3  1  0  0  0
  2  5  1  0  0  0
  3  4  1  0  0  0
  3  6  1  0  0  0
  4  7  1  0  0  0
  4 19  1  0  0  0
 19 20  1  0  0  0
 12 18  1  0  0  0
  5  8  1  0  0  0
  6  9  1  0  0  0
 20 21  1  0  0  0
M  END
> <minimizedAffinity>
-6.58316

$$$$
4R0A_URI_A_901


 21 22  0  0  0  0  0  0  0  0999 V2000
  -18.0361   59.1347  -34.4312 C   0  0  0  0  0  0  0  0  0  0  0  0
  -16.7746   59.0436  -35.2877 C   0  0  0  0  0  0  0  0  0  0  0  0
  -16.5990   60.4814  -35.7682 C   0  0  0  0  0  0  0  0  0  0  0  0
  -18.0105   61.0668  -35.7331 C   0  0  0  0  0  0  0  0  0  0  0  0
  -15.6900   58.6235  -34.4932 O   0  0  0  0  0  0  0  0  0  0  0  0
  -15.7036   61.2024  -34.9080 O   0  0  0  0  0  0  0  0  0  0  0  0
  -18.8463   60.1425  -35.0092 O   0  0  0  0  0  0  0  0  0  0  0  0
  -15.5879   59.2266  -33.7404 H   0  0  0  0  0  0  0  0  0  0  0  0
  -16.0436   61.1848  -33.9997 H   0  0  0  0  0  0  0  0  0  0  0  0
  -18.8140   57.8864  -34.3647 N   0  0  0  0  0  0  0  0  0  0  0  0
  -20.0963   57.9146  -33.8381 C   0  0  0  0  0  0  0  0  0  0  0  0
  -20.7237   56.6974  -33.8000 N   0  0  0  0  0  0  0  0  0  0  0  0
  -20.1897   55.4708  -34.1291 C   0  0  0  0  0  0  0  0  0  0  0  0
  -18.8296   55.5118  -34.5634 C   0  0  0  0  0  0  0  0  0  0  0  0
  -18.2071   56.6930  -34.6745 C   0  0  0  0  0  0  0  0  0  0  0  0
  -20.6604   58.9435  -33.4947 O   0  0  0  0  0  0  0  0  0  0  0  0
  -20.8787   54.4568  -33.9992 O   0  0  0  0  0  0  0  0  0  0  0  0
  -21.6626   56.6994  -33.5040 H   0  0  0  0  0  0  0  0  0  0  0  0
  -18.6389   61.3963  -37.0699 C   0  0  0  0  0  0  0  0  0  0  0  0
  -19.2659   62.6655  -37.0295 O   0  0  0  0  0  0  0  0  0  0  0  0
  -19.9644   62.6598  -36.3564 H   0  0  0  0  0  0  0  0  0  0  0  0
 10 11  1  0  0  0
 10 15  1  0  0  0
 10  1  1  0  0  0
 11 12  1  0  0  0
 11 16  2  0  0  0
 12 13  1  0  0  0
 13 14  1  0  0  0
 13 17  2  0  0  0
 14 15  2  0  0  0
  1  2  1  0  0  0
  1  7  1  0  0  0
  2  3  1  0  0  0
  2  5  1  0  0  0
  3  4  1  0  0  0
  3  6  1  0  0  0
  4  7  1  0  0  0
  4 19  1  0  0  0
 19 20  1  0  0  0
 12 18  1  0  0  0
  5  8  1  0  0  0
  6  9  1  0  0  0
 20 21  1  0  0  0
M  END
> <minimizedAffinity>
-6.49230

$$$$
4R0A_URI_A_901


 21 22  0  0  0  0  0  0  0  0999 V2000
  -19.0885   59.6948  -34.7525 C   0  0  0  0  0  0  0  0  0  0  0  0
  -20.4079   59.0932  -35.2329 C   0  0  0  0  0  0  0  0  0  0  0  0
  -20.4239   57.7363  -34.5347 C   0  0  0  0  0  0  0  0  0  0  0  0
  -18.9481   57.4130  -34.3026 C   0  0  0  0  0  0  0  0  0  0  0  0
  -21.4803   59.9062  -34.8169 O   0  0  0  0  0  0  0  0  0  0  0  0
  -21.1530   57.8053  -33.2996 O   0  0  0  0  0  0  0  0  0  0  0  0
  -18.1940   58.6125  -34.5658 O   0  0  0  0  0  0  0  0  0  0  0  0
  -21.4482   60.0158  -33.8537 H   0  0  0  0  0  0  0  0  0  0  0  0
  -20.7555   58.4797  -32.7268 H   0  0  0  0  0  0  0  0  0  0  0  0
  -18.4808   60.6502  -35.6936 N   0  0  0  0  0  0  0  0  0  0  0  0
  -17.2335   61.1836  -35.4065 C   0  0  0  0  0  0  0  0  0  0  0  0
  -16.7695   62.0791  -36.3335 N   0  0  0  0  0  0  0  0  0  0  0  0
  -17.4386   62.5636  -37.4360 C   0  0  0  0  0  0  0  0  0  0  0  0
  -18.7586   62.0451  -37.6056 C   0  0  0  0  0  0  0  0  0  0  0  0
  -19.2187   61.1187  -36.7541 C   0  0  0  0  0  0  0  0  0  0  0  0
  -16.5607   60.8419  -34.4445 O   0  0  0  0  0  0  0  0  0  0  0  0
  -16.8921   63.4036  -38.1541 O   0  0  0  0  0  0  0  0  0  0  0  0
  -15.8541   62.4145  -36.1962 H   0  0  0  0  0  0  0  0  0  0  0  0
  -18.3768   56.2572  -35.0951 C   0  0  0  0  0  0  0  0  0  0  0  0
  -18.5047   55.0444  -34.3751 O   0  0  0  0  0  0  0  0  0  0  0  0
  -18.0178   55.1120  -33.5388 H   0  0  0  0  0  0  0  0  0  0  0  0
 10 11  1  0  0  0
 10 15  1  0  0  0
 10  1  1  0  0  0
 11 12  1  0  0  0
 11 16  2  0  0  0
 12 13  1  0  0  0
 13 14  1  0  0  0
 13 17  2  0  0  0
 14 15  2  0  0  0
  1  2  1  0  0  0
  1  7  1  0  0  0
  2  3  1  0  0  0
  2  5  1  0  0  0
  3  4  1  0  0  0
  3  6  1  0  0  0
  4  7  1  0  0  0
  4 19  1  0  0  0
 19 20  1  0  0  0
 12 18  1  0  0  0
  5  8  1  0  0  0
  6  9  1  0  0  0
 20 21  1  0  0  0
M  END
> <minimizedAffinity>
-6.41273

$$$$
