1EC3_MS3_A_501


 62 65  0  0  0  0  0  0  0  0999 V2000
   13.4454   23.9640    5.8283 C   0  0  0  0  0  0  0  0  0  0  0  0
   13.7412   24.9630    6.8821 O   0  0  0  0  0  0  0  0  0  0  0  0
   14.1250   25.7564    6.4769 H   0  0  0  0  0  0  0  0  0  0  0  0
   14.7132   23.5048    5.1395 C   0  0  0  0  0  0  0  0  0  0  0  0
   15.4239   24.6912    4.7582 O   0  0  0  0  0  0  0  0  0  0  0  0
   15.6164   25.2207    5.5478 H   0  0  0  0  0  0  0  0  0  0  0  0
   15.5194   22.5552    6.0315 C   0  0  0  0  0  0  0  0  0  0  0  0
   15.4017   21.0961    5.5263 C   0  0  0  0  0  0  0  0  0  0  0  0
   14.3360   20.4849    5.5446 O   0  0  0  0  0  0  0  0  0  0  0  0
   16.5998   20.5440    5.0655 N   0  0  0  0  0  0  0  0  0  0  0  0
   17.3918   21.1275    5.1026 H   0  0  0  0  0  0  0  0  0  0  0  0
   16.8112   19.1968    4.5339 C   0  0  0  0  0  0  0  0  0  0  0  0
   18.1822   18.7485    5.0767 C   0  0  0  0  0  0  0  0  0  0  0  0
   19.1401   19.5144    5.0448 O   0  0  0  0  0  0  0  0  0  0  0  0
   18.2290   17.4565    5.5776 N   0  0  0  0  0  0  0  0  0  0  0  0
   17.4285   16.8835    5.5836 H   0  0  0  0  0  0  0  0  0  0  0  0
   19.6677   16.9136    6.1614 C   0  0  0  0  0  0  0  0  0  0  0  0
   19.6506   16.5693    7.6674 C   0  0  0  0  0  0  0  0  0  0  0  0
   18.6379   15.7090    8.1950 C   0  0  0  0  0  0  0  0  0  0  0  0
   18.6283   15.3877    9.6105 C   0  0  0  0  0  0  0  0  0  0  0  0
   19.6407   15.9433   10.4553 C   0  0  0  0  0  0  0  0  0  0  0  0
   20.6396   16.8033    9.8841 C   0  0  0  0  0  0  0  0  0  0  0  0
   20.6247   17.0953    8.5215 N   0  0  0  0  0  0  0  0  0  0  0  0
   16.7417   19.1330    2.9423 C   0  0  0  0  0  0  0  0  0  0  0  0
   17.5022   17.9292    2.3036 C   0  0  0  0  0  0  0  0  0  0  0  0
   15.2982   19.0313    2.4239 C   0  0  0  0  0  0  0  0  0  0  0  0
   15.1344   22.6374    7.4670 O   0  0  0  0  0  0  0  0  0  0  0  0
   16.1705   22.8951    8.4702 C   0  0  0  0  0  0  0  0  0  0  0  0
   16.6322   21.5721    8.8681 C   0  0  0  0  0  0  0  0  0  0  0  0
   17.9982   21.1482    8.5599 C   0  0  0  0  0  0  0  0  0  0  0  0
   18.4173   19.7995    8.9677 C   0  0  0  0  0  0  0  0  0  0  0  0
   17.4895   18.9207    9.6599 C   0  0  0  0  0  0  0  0  0  0  0  0
   16.1316   19.3443    9.9697 C   0  0  0  0  0  0  0  0  0  0  0  0
   15.6854   20.6781    9.5754 C   0  0  0  0  0  0  0  0  0  0  0  0
   12.4079   24.4809    4.8681 C   0  0  0  0  0  0  0  0  0  0  0  0
   11.1841   24.6853    5.6922 C   0  0  0  0  0  0  0  0  0  0  0  0
   10.7574   23.7575    6.4106 O   0  0  0  0  0  0  0  0  0  0  0  0
   10.5804   25.9291    5.6113 N   0  0  0  0  0  0  0  0  0  0  0  0
   10.9814   26.6010    5.0138 H   0  0  0  0  0  0  0  0  0  0  0  0
    9.3649   26.3078    6.3724 C   0  0  0  0  0  0  0  0  0  0  0  0
    8.4010   26.9504    5.3742 C   0  0  0  0  0  0  0  0  0  0  0  0
    8.7915   27.8633    4.6895 O   0  0  0  0  0  0  0  0  0  0  0  0
    7.1380   26.4107    5.3484 N   0  0  0  0  0  0  0  0  0  0  0  0
    6.9293   25.6623    5.9530 H   0  0  0  0  0  0  0  0  0  0  0  0
    6.0895   26.9094    4.4525 C   0  0  0  0  0  0  0  0  0  0  0  0
    4.9675   27.5820    5.2183 C   0  0  0  0  0  0  0  0  0  0  0  0
    4.8280   27.3648    6.6389 C   0  0  0  0  0  0  0  0  0  0  0  0
    3.7208   28.0458    7.3340 C   0  0  0  0  0  0  0  0  0  0  0  0
    2.7784   28.9223    6.6149 C   0  0  0  0  0  0  0  0  0  0  0  0
    3.0226   29.0611    5.1803 C   0  0  0  0  0  0  0  0  0  0  0  0
    4.0775   28.4123    4.5197 N   0  0  0  0  0  0  0  0  0  0  0  0
    9.6624   27.3135    7.5817 C   0  0  0  0  0  0  0  0  0  0  0  0
    8.3789   27.9787    8.1845 C   0  0  0  0  0  0  0  0  0  0  0  0
   10.4549   26.6571    8.7241 C   0  0  0  0  0  0  0  0  0  0  0  0
   12.1906   23.5026    3.7902 O   0  0  0  0  0  0  0  0  0  0  0  0
   11.8583   24.0751    2.5020 C   0  0  0  0  0  0  0  0  0  0  0  0
   10.3800   24.1084    2.3259 C   0  0  0  0  0  0  0  0  0  0  0  0
    9.6294   22.8806    2.6018 C   0  0  0  0  0  0  0  0  0  0  0  0
    8.2125   22.8763    2.4593 C   0  0  0  0  0  0  0  0  0  0  0  0
    7.5327   24.0955    2.0413 C   0  0  0  0  0  0  0  0  0  0  0  0
    8.2647   25.3282    1.7646 C   0  0  0  0  0  0  0  0  0  0  0  0
    9.7055   25.3222    1.9135 C   0  0  0  0  0  0  0  0  0  0  0  0
 29 30  2  0  0  0
 29 34  1  0  0  0
 29 28  1  0  0  0
 30 31  1  0  0  0
 31 32  2  0  0  0
 32 33  1  0  0  0
 33 34  2  0  0  0
 57 58  2  0  0  0
 57 62  1  0  0  0
 57 56  1  0  0  0
 58 59  1  0  0  0
 59 60  2  0  0  0
 60 61  1  0  0  0
 61 62  2  0  0  0
 56 55  1  0  0  0
 55 35  1  0  0  0
 35  1  1  0  0  0
 35 36  1  0  0  0
  1  4  1  0  0  0
  1  2  1  0  0  0
  4  7  1  0  0  0
  4  5  1  0  0  0
  7  8  1  0  0  0
  7 27  1  0  0  0
  8  9  2  0  0  0
  8 10  1  0  0  0
 10 12  1  0  0  0
 12 24  1  0  0  0
 12 13  1  0  0  0
 24 25  1  0  0  0
 24 26  1  0  0  0
 13 14  2  0  0  0
 13 15  1  0  0  0
 15 17  1  0  0  0
 17 18  1  0  0  0
 27 28  1  0  0  0
 36 37  2  0  0  0
 36 38  1  0  0  0
 38 40  1  0  0  0
 40 52  1  0  0  0
 40 41  1  0  0  0
 52 53  1  0  0  0
 52 54  1  0  0  0
 41 42  2  0  0  0
 41 43  1  0  0  0
 43 45  1  0  0  0
 45 46  1  0  0  0
 46 47  2  0  0  0
 46 51  1  0  0  0
 47 48  1  0  0  0
 48 49  2  0  0  0
 49 50  1  0  0  0
 50 51  2  0  0  0
 18 19  2  0  0  0
 18 23  1  0  0  0
 19 20  1  0  0  0
 20 21  2  0  0  0
 21 22  1  0  0  0
 22 23  2  0  0  0
 10 11  1  0  0  0
 15 16  1  0  0  0
  5  6  1  0  0  0
  2  3  1  0  0  0
 38 39  1  0  0  0
 43 44  1  0  0  0
M  END
> <minimizedAffinity>
-10.34733

$$$$
1EC3_MS3_A_501


 62 65  0  0  0  0  0  0  0  0999 V2000
   14.1219   22.5568    4.8627 C   0  0  0  0  0  0  0  0  0  0  0  0
   14.6529   22.3304    3.4978 O   0  0  0  0  0  0  0  0  0  0  0  0
   15.5075   22.7797    3.4047 H   0  0  0  0  0  0  0  0  0  0  0  0
   13.8458   24.0256    5.1048 C   0  0  0  0  0  0  0  0  0  0  0  0
   15.0159   24.7374    4.6778 O   0  0  0  0  0  0  0  0  0  0  0  0
   15.1818   24.5536    3.7399 H   0  0  0  0  0  0  0  0  0  0  0  0
   12.5562   24.4723    4.4086 C   0  0  0  0  0  0  0  0  0  0  0  0
   11.3624   24.4430    5.3945 C   0  0  0  0  0  0  0  0  0  0  0  0
   11.0045   23.4087    5.9530 O   0  0  0  0  0  0  0  0  0  0  0  0
   10.7334   25.6769    5.5800 N   0  0  0  0  0  0  0  0  0  0  0  0
   11.1056   26.4364    5.0760 H   0  0  0  0  0  0  0  0  0  0  0  0
    9.5843   25.9689    6.4382 C   0  0  0  0  0  0  0  0  0  0  0  0
    8.5980   26.7573    5.5546 C   0  0  0  0  0  0  0  0  0  0  0  0
    9.0091   27.6292    4.7956 O   0  0  0  0  0  0  0  0  0  0  0  0
    7.2639   26.4068    5.6951 N   0  0  0  0  0  0  0  0  0  0  0  0
    6.9872   25.6954    6.3169 H   0  0  0  0  0  0  0  0  0  0  0  0
    6.1592   27.2201    4.7877 C   0  0  0  0  0  0  0  0  0  0  0  0
    5.0109   26.3387    4.2478 C   0  0  0  0  0  0  0  0  0  0  0  0
    4.2378   25.5388    5.1458 C   0  0  0  0  0  0  0  0  0  0  0  0
    3.1590   24.7142    4.6327 C   0  0  0  0  0  0  0  0  0  0  0  0
    2.8897   24.7190    3.2275 C   0  0  0  0  0  0  0  0  0  0  0  0
    3.6910   25.5374    2.3604 C   0  0  0  0  0  0  0  0  0  0  0  0
    4.7209   26.3192    2.8801 N   0  0  0  0  0  0  0  0  0  0  0  0
    9.9774   26.7647    7.7627 C   0  0  0  0  0  0  0  0  0  0  0  0
    8.8484   26.8413    8.8373 C   0  0  0  0  0  0  0  0  0  0  0  0
   11.1879   26.1451    8.4792 C   0  0  0  0  0  0  0  0  0  0  0  0
   12.2427   23.6711    3.1940 O   0  0  0  0  0  0  0  0  0  0  0  0
   11.7798   24.3581    1.9856 C   0  0  0  0  0  0  0  0  0  0  0  0
   10.3277   24.2578    2.0408 C   0  0  0  0  0  0  0  0  0  0  0  0
    9.6919   22.9787    2.3573 C   0  0  0  0  0  0  0  0  0  0  0  0
    8.2234   22.9201    2.3885 C   0  0  0  0  0  0  0  0  0  0  0  0
    7.4355   24.1096    2.1118 C   0  0  0  0  0  0  0  0  0  0  0  0
    8.0686   25.3830    1.8007 C   0  0  0  0  0  0  0  0  0  0  0  0
    9.5260   25.4721    1.7603 C   0  0  0  0  0  0  0  0  0  0  0  0
   15.0243   21.9482    5.9025 C   0  0  0  0  0  0  0  0  0  0  0  0
   15.2888   20.5628    5.4238 C   0  0  0  0  0  0  0  0  0  0  0  0
   14.3480   19.7467    5.3344 O   0  0  0  0  0  0  0  0  0  0  0  0
   16.5990   20.2582    5.0941 N   0  0  0  0  0  0  0  0  0  0  0  0
   17.2795   20.9616    5.2010 H   0  0  0  0  0  0  0  0  0  0  0  0
   17.0366   18.9338    4.5893 C   0  0  0  0  0  0  0  0  0  0  0  0
   18.3669   18.6178    5.2741 C   0  0  0  0  0  0  0  0  0  0  0  0
   19.3324   19.2924    5.0151 O   0  0  0  0  0  0  0  0  0  0  0  0
   18.3384   17.5599    6.1501 N   0  0  0  0  0  0  0  0  0  0  0  0
   17.4899   17.0795    6.2866 H   0  0  0  0  0  0  0  0  0  0  0  0
   19.5263   17.1205    6.8892 C   0  0  0  0  0  0  0  0  0  0  0  0
   20.2179   15.9586    6.2043 C   0  0  0  0  0  0  0  0  0  0  0  0
   19.4617   15.0558    5.3689 C   0  0  0  0  0  0  0  0  0  0  0  0
   20.1852   13.9446    4.7250 C   0  0  0  0  0  0  0  0  0  0  0  0
   21.6334   13.7485    4.9193 C   0  0  0  0  0  0  0  0  0  0  0  0
   22.2867   14.7263    5.7879 C   0  0  0  0  0  0  0  0  0  0  0  0
   21.5966   15.7841    6.4001 N   0  0  0  0  0  0  0  0  0  0  0  0
   17.2074   18.8872    2.9983 C   0  0  0  0  0  0  0  0  0  0  0  0
   17.7574   17.5236    2.4587 C   0  0  0  0  0  0  0  0  0  0  0  0
   15.9079   19.2214    2.2475 C   0  0  0  0  0  0  0  0  0  0  0  0
   14.3576   21.9612    7.2145 O   0  0  0  0  0  0  0  0  0  0  0  0
   15.1517   22.5002    8.2992 C   0  0  0  0  0  0  0  0  0  0  0  0
   16.2882   21.5864    8.6008 C   0  0  0  0  0  0  0  0  0  0  0  0
   17.6480   22.1024    8.4233 C   0  0  0  0  0  0  0  0  0  0  0  0
   18.7614   21.2640    8.7156 C   0  0  0  0  0  0  0  0  0  0  0  0
   18.5282   19.9053    9.1876 C   0  0  0  0  0  0  0  0  0  0  0  0
   17.1801   19.3758    9.3723 C   0  0  0  0  0  0  0  0  0  0  0  0
   16.0545   20.2370    9.0731 C   0  0  0  0  0  0  0  0  0  0  0  0
 29 30  2  0  0  0
 29 34  1  0  0  0
 29 28  1  0  0  0
 30 31  1  0  0  0
 31 32  2  0  0  0
 32 33  1  0  0  0
 33 34  2  0  0  0
 57 58  2  0  0  0
 57 62  1  0  0  0
 57 56  1  0  0  0
 58 59  1  0  0  0
 59 60  2  0  0  0
 60 61  1  0  0  0
 61 62  2  0  0  0
 56 55  1  0  0  0
 55 35  1  0  0  0
 35  1  1  0  0  0
 35 36  1  0  0  0
  1  4  1  0  0  0
  1  2  1  0  0  0
  4  7  1  0  0  0
  4  5  1  0  0  0
  7  8  1  0  0  0
  7 27  1  0  0  0
  8  9  2  0  0  0
  8 10  1  0  0  0
 10 12  1  0  0  0
 12 24  1  0  0  0
 12 13  1  0  0  0
 24 25  1  0  0  0
 24 26  1  0  0  0
 13 14  2  0  0  0
 13 15  1  0  0  0
 15 17  1  0  0  0
 17 18  1  0  0  0
 27 28  1  0  0  0
 36 37  2  0  0  0
 36 38  1  0  0  0
 38 40  1  0  0  0
 40 52  1  0  0  0
 40 41  1  0  0  0
 52 53  1  0  0  0
 52 54  1  0  0  0
 41 42  2  0  0  0
 41 43  1  0  0  0
 43 45  1  0  0  0
 45 46  1  0  0  0
 46 47  2  0  0  0
 46 51  1  0  0  0
 47 48  1  0  0  0
 48 49  2  0  0  0
 49 50  1  0  0  0
 50 51  2  0  0  0
 18 19  2  0  0  0
 18 23  1  0  0  0
 19 20  1  0  0  0
 20 21  2  0  0  0
 21 22  1  0  0  0
 22 23  2  0  0  0
 10 11  1  0  0  0
 15 16  1  0  0  0
  5  6  1  0  0  0
  2  3  1  0  0  0
 38 39  1  0  0  0
 43 44  1  0  0  0
M  END
> <minimizedAffinity>
-10.32998

$$$$
1EC3_MS3_A_501


 62 65  0  0  0  0  0  0  0  0999 V2000
   14.3529   23.2796    5.4080 C   0  0  0  0  0  0  0  0  0  0  0  0
   15.7007   23.7689    5.7825 O   0  0  0  0  0  0  0  0  0  0  0  0
   15.6836   24.0965    6.6953 H   0  0  0  0  0  0  0  0  0  0  0  0
   13.3393   24.4042    5.4251 C   0  0  0  0  0  0  0  0  0  0  0  0
   13.7137   25.3080    4.3758 O   0  0  0  0  0  0  0  0  0  0  0  0
   13.7126   24.8371    3.5278 H   0  0  0  0  0  0  0  0  0  0  0  0
   11.9094   23.8674    5.3043 C   0  0  0  0  0  0  0  0  0  0  0  0
   11.2821   24.2782    3.9494 C   0  0  0  0  0  0  0  0  0  0  0  0
   11.9020   24.1916    2.8921 O   0  0  0  0  0  0  0  0  0  0  0  0
    9.9728   24.7582    4.0387 N   0  0  0  0  0  0  0  0  0  0  0  0
    9.5790   24.7860    4.9405 H   0  0  0  0  0  0  0  0  0  0  0  0
    9.1203   25.2241    2.9440 C   0  0  0  0  0  0  0  0  0  0  0  0
    8.2793   26.3725    3.5350 C   0  0  0  0  0  0  0  0  0  0  0  0
    7.7557   27.1994    2.7951 O   0  0  0  0  0  0  0  0  0  0  0  0
    8.1786   26.3842    4.9178 N   0  0  0  0  0  0  0  0  0  0  0  0
    8.6158   25.6930    5.4659 H   0  0  0  0  0  0  0  0  0  0  0  0
    7.3038   27.5921    5.6113 C   0  0  0  0  0  0  0  0  0  0  0  0
    5.8618   27.1905    5.9937 C   0  0  0  0  0  0  0  0  0  0  0  0
    5.2713   27.6947    7.1941 C   0  0  0  0  0  0  0  0  0  0  0  0
    3.9154   27.3153    7.5471 C   0  0  0  0  0  0  0  0  0  0  0  0
    3.1922   26.4370    6.6793 C   0  0  0  0  0  0  0  0  0  0  0  0
    3.8234   25.9532    5.4829 C   0  0  0  0  0  0  0  0  0  0  0  0
    5.1268   26.3336    5.1687 N   0  0  0  0  0  0  0  0  0  0  0  0
    8.2134   24.0702    2.3211 C   0  0  0  0  0  0  0  0  0  0  0  0
    8.9357   22.6988    2.1395 C   0  0  0  0  0  0  0  0  0  0  0  0
    6.9738   23.7731    3.1802 C   0  0  0  0  0  0  0  0  0  0  0  0
   11.0316   24.2906    6.4293 O   0  0  0  0  0  0  0  0  0  0  0  0
   11.6133   25.0400    7.5457 C   0  0  0  0  0  0  0  0  0  0  0  0
   10.4970   25.7910    8.1039 C   0  0  0  0  0  0  0  0  0  0  0  0
    9.2134   25.1302    8.3409 C   0  0  0  0  0  0  0  0  0  0  0  0
    8.1102   25.9298    8.8925 C   0  0  0  0  0  0  0  0  0  0  0  0
    8.3033   27.3389    9.1918 C   0  0  0  0  0  0  0  0  0  0  0  0
    9.5818   27.9950    8.9594 C   0  0  0  0  0  0  0  0  0  0  0  0
   10.6964   27.2271    8.4102 C   0  0  0  0  0  0  0  0  0  0  0  0
   13.9463   22.1075    6.2603 C   0  0  0  0  0  0  0  0  0  0  0  0
   15.0049   21.9997    7.3025 C   0  0  0  0  0  0  0  0  0  0  0  0
   15.0497   22.8339    8.2305 O   0  0  0  0  0  0  0  0  0  0  0  0
   15.8973   20.9482    7.1761 N   0  0  0  0  0  0  0  0  0  0  0  0
   15.7920   20.3405    6.4088 H   0  0  0  0  0  0  0  0  0  0  0  0
   17.0024   20.6842    8.1298 C   0  0  0  0  0  0  0  0  0  0  0  0
   18.1911   20.1924    7.3031 C   0  0  0  0  0  0  0  0  0  0  0  0
   19.2816   20.6649    7.5087 O   0  0  0  0  0  0  0  0  0  0  0  0
   17.8977   19.2259    6.3720 N   0  0  0  0  0  0  0  0  0  0  0  0
   16.9684   18.9110    6.2916 H   0  0  0  0  0  0  0  0  0  0  0  0
   18.9190   18.6462    5.4936 C   0  0  0  0  0  0  0  0  0  0  0  0
   19.3418   17.2660    5.9559 C   0  0  0  0  0  0  0  0  0  0  0  0
   18.8067   16.0903    5.3109 C   0  0  0  0  0  0  0  0  0  0  0  0
   19.2543   14.7734    5.7989 C   0  0  0  0  0  0  0  0  0  0  0  0
   20.2158   14.6455    6.9091 C   0  0  0  0  0  0  0  0  0  0  0  0
   20.6835   15.9071    7.4808 C   0  0  0  0  0  0  0  0  0  0  0  0
   20.2567   17.1605    7.0149 N   0  0  0  0  0  0  0  0  0  0  0  0
   16.6259   19.6083    9.2537 C   0  0  0  0  0  0  0  0  0  0  0  0
   17.8638   19.0330   10.0217 C   0  0  0  0  0  0  0  0  0  0  0  0
   15.6190   20.1468   10.2834 C   0  0  0  0  0  0  0  0  0  0  0  0
   13.8595   20.8928    5.4338 O   0  0  0  0  0  0  0  0  0  0  0  0
   14.1527   21.0864    4.0287 C   0  0  0  0  0  0  0  0  0  0  0  0
   14.9414   19.9347    3.5101 C   0  0  0  0  0  0  0  0  0  0  0  0
   14.9820   18.7129    4.3179 C   0  0  0  0  0  0  0  0  0  0  0  0
   15.7133   17.5845    3.8489 C   0  0  0  0  0  0  0  0  0  0  0  0
   16.4092   17.6649    2.5711 C   0  0  0  0  0  0  0  0  0  0  0  0
   16.3774   18.8734    1.7524 C   0  0  0  0  0  0  0  0  0  0  0  0
   15.6299   20.0151    2.2381 C   0  0  0  0  0  0  0  0  0  0  0  0
 29 30  2  0  0  0
 29 34  1  0  0  0
 29 28  1  0  0  0
 30 31  1  0  0  0
 31 32  2  0  0  0
 32 33  1  0  0  0
 33 34  2  0  0  0
 57 58  2  0  0  0
 57 62  1  0  0  0
 57 56  1  0  0  0
 58 59  1  0  0  0
 59 60  2  0  0  0
 60 61  1  0  0  0
 61 62  2  0  0  0
 56 55  1  0  0  0
 55 35  1  0  0  0
 35  1  1  0  0  0
 35 36  1  0  0  0
  1  4  1  0  0  0
  1  2  1  0  0  0
  4  7  1  0  0  0
  4  5  1  0  0  0
  7  8  1  0  0  0
  7 27  1  0  0  0
  8  9  2  0  0  0
  8 10  1  0  0  0
 10 12  1  0  0  0
 12 24  1  0  0  0
 12 13  1  0  0  0
 24 25  1  0  0  0
 24 26  1  0  0  0
 13 14  2  0  0  0
 13 15  1  0  0  0
 15 17  1  0  0  0
 17 18  1  0  0  0
 27 28  1  0  0  0
 36 37  2  0  0  0
 36 38  1  0  0  0
 38 40  1  0  0  0
 40 52  1  0  0  0
 40 41  1  0  0  0
 52 53  1  0  0  0
 52 54  1  0  0  0
 41 42  2  0  0  0
 41 43  1  0  0  0
 43 45  1  0  0  0
 45 46  1  0  0  0
 46 47  2  0  0  0
 46 51  1  0  0  0
 47 48  1  0  0  0
 48 49  2  0  0  0
 49 50  1  0  0  0
 50 51  2  0  0  0
 18 19  2  0  0  0
 18 23  1  0  0  0
 19 20  1  0  0  0
 20 21  2  0  0  0
 21 22  1  0  0  0
 22 23  2  0  0  0
 10 11  1  0  0  0
 15 16  1  0  0  0
  5  6  1  0  0  0
  2  3  1  0  0  0
 38 39  1  0  0  0
 43 44  1  0  0  0
M  END
> <minimizedAffinity>
-10.29370

$$$$
1EC3_MS3_A_501


 62 65  0  0  0  0  0  0  0  0999 V2000
   14.1906   24.0024    5.1127 C   0  0  0  0  0  0  0  0  0  0  0  0
   14.6150   25.2306    4.4003 O   0  0  0  0  0  0  0  0  0  0  0  0
   14.9128   25.8916    5.0448 H   0  0  0  0  0  0  0  0  0  0  0  0
   12.9998   24.2737    6.0075 C   0  0  0  0  0  0  0  0  0  0  0  0
   13.3050   25.4666    6.7437 O   0  0  0  0  0  0  0  0  0  0  0  0
   13.4625   26.1969    6.1251 H   0  0  0  0  0  0  0  0  0  0  0  0
   11.7017   24.3564    5.1978 C   0  0  0  0  0  0  0  0  0  0  0  0
   10.4903   24.6110    6.1282 C   0  0  0  0  0  0  0  0  0  0  0  0
    9.7992   23.6929    6.5630 O   0  0  0  0  0  0  0  0  0  0  0  0
   10.2527   25.9578    6.4148 N   0  0  0  0  0  0  0  0  0  0  0  0
   10.8706   26.6063    6.0064 H   0  0  0  0  0  0  0  0  0  0  0  0
    9.1896   26.5141    7.2531 C   0  0  0  0  0  0  0  0  0  0  0  0
    8.1771   27.1411    6.2749 C   0  0  0  0  0  0  0  0  0  0  0  0
    8.5659   27.8567    5.3573 O   0  0  0  0  0  0  0  0  0  0  0  0
    6.8469   26.8372    6.5213 N   0  0  0  0  0  0  0  0  0  0  0  0
    6.5885   26.2531    7.2705 H   0  0  0  0  0  0  0  0  0  0  0  0
    5.7153   27.4857    5.5192 C   0  0  0  0  0  0  0  0  0  0  0  0
    4.6180   28.2967    6.2438 C   0  0  0  0  0  0  0  0  0  0  0  0
    4.0408   27.8008    7.4540 C   0  0  0  0  0  0  0  0  0  0  0  0
    3.0116   28.5683    8.1312 C   0  0  0  0  0  0  0  0  0  0  0  0
    2.5925   29.8153    7.5686 C   0  0  0  0  0  0  0  0  0  0  0  0
    3.1986   30.2768    6.3506 C   0  0  0  0  0  0  0  0  0  0  0  0
    4.1846   29.5191    5.7214 N   0  0  0  0  0  0  0  0  0  0  0  0
    9.7232   27.5657    8.3262 C   0  0  0  0  0  0  0  0  0  0  0  0
    8.6664   28.0116    9.3843 C   0  0  0  0  0  0  0  0  0  0  0  0
   10.9130   27.0234    9.1344 C   0  0  0  0  0  0  0  0  0  0  0  0
   11.4626   23.1520    4.3564 O   0  0  0  0  0  0  0  0  0  0  0  0
   11.5043   23.2806    2.8977 C   0  0  0  0  0  0  0  0  0  0  0  0
   10.1770   23.7580    2.5340 C   0  0  0  0  0  0  0  0  0  0  0  0
    9.0019   22.9248    2.7900 C   0  0  0  0  0  0  0  0  0  0  0  0
    7.6834   23.4404    2.3941 C   0  0  0  0  0  0  0  0  0  0  0  0
    7.5642   24.7461    1.7671 C   0  0  0  0  0  0  0  0  0  0  0  0
    8.7333   25.5763    1.5160 C   0  0  0  0  0  0  0  0  0  0  0  0
   10.0571   25.0903    1.8965 C   0  0  0  0  0  0  0  0  0  0  0  0
   15.3462   23.3745    5.8448 C   0  0  0  0  0  0  0  0  0  0  0  0
   15.2040   21.9103    5.6114 C   0  0  0  0  0  0  0  0  0  0  0  0
   14.2085   21.3041    6.0592 O   0  0  0  0  0  0  0  0  0  0  0  0
   16.2118   21.2952    4.8876 N   0  0  0  0  0  0  0  0  0  0  0  0
   16.9643   21.8491    4.5775 H   0  0  0  0  0  0  0  0  0  0  0  0
   16.2235   19.8502    4.5524 C   0  0  0  0  0  0  0  0  0  0  0  0
   17.6511   19.3543    4.7857 C   0  0  0  0  0  0  0  0  0  0  0  0
   18.3478   19.1089    3.8324 O   0  0  0  0  0  0  0  0  0  0  0  0
   18.0205   19.2303    6.1031 N   0  0  0  0  0  0  0  0  0  0  0  0
   17.3679   19.4619    6.8028 H   0  0  0  0  0  0  0  0  0  0  0  0
   19.3522   18.7653    6.5045 C   0  0  0  0  0  0  0  0  0  0  0  0
   19.8551   19.4923    7.7358 C   0  0  0  0  0  0  0  0  0  0  0  0
   20.1559   20.9030    7.6718 C   0  0  0  0  0  0  0  0  0  0  0  0
   20.6392   21.5602    8.8996 C   0  0  0  0  0  0  0  0  0  0  0  0
   20.8153   20.8139   10.1587 C   0  0  0  0  0  0  0  0  0  0  0  0
   20.4795   19.3924   10.0963 C   0  0  0  0  0  0  0  0  0  0  0  0
   20.0191   18.7680    8.9265 N   0  0  0  0  0  0  0  0  0  0  0  0
   15.7697   19.5452    3.0479 C   0  0  0  0  0  0  0  0  0  0  0  0
   15.1561   18.1182    2.8470 C   0  0  0  0  0  0  0  0  0  0  0  0
   14.7784   20.5850    2.5000 C   0  0  0  0  0  0  0  0  0  0  0  0
   15.2780   23.7147    7.2751 O   0  0  0  0  0  0  0  0  0  0  0  0
   16.4310   23.3146    8.0549 C   0  0  0  0  0  0  0  0  0  0  0  0
   16.0750   22.1708    8.9396 C   0  0  0  0  0  0  0  0  0  0  0  0
   16.9342   20.9844    8.9047 C   0  0  0  0  0  0  0  0  0  0  0  0
   16.6354   19.8756    9.7470 C   0  0  0  0  0  0  0  0  0  0  0  0
   15.4787   19.9408   10.6307 C   0  0  0  0  0  0  0  0  0  0  0  0
   14.6135   21.1159   10.6800 C   0  0  0  0  0  0  0  0  0  0  0  0
   14.9266   22.2387    9.8200 C   0  0  0  0  0  0  0  0  0  0  0  0
 29 30  2  0  0  0
 29 34  1  0  0  0
 29 28  1  0  0  0
 30 31  1  0  0  0
 31 32  2  0  0  0
 32 33  1  0  0  0
 33 34  2  0  0  0
 57 58  2  0  0  0
 57 62  1  0  0  0
 57 56  1  0  0  0
 58 59  1  0  0  0
 59 60  2  0  0  0
 60 61  1  0  0  0
 61 62  2  0  0  0
 56 55  1  0  0  0
 55 35  1  0  0  0
 35  1  1  0  0  0
 35 36  1  0  0  0
  1  4  1  0  0  0
  1  2  1  0  0  0
  4  7  1  0  0  0
  4  5  1  0  0  0
  7  8  1  0  0  0
  7 27  1  0  0  0
  8  9  2  0  0  0
  8 10  1  0  0  0
 10 12  1  0  0  0
 12 24  1  0  0  0
 12 13  1  0  0  0
 24 25  1  0  0  0
 24 26  1  0  0  0
 13 14  2  0  0  0
 13 15  1  0  0  0
 15 17  1  0  0  0
 17 18  1  0  0  0
 27 28  1  0  0  0
 36 37  2  0  0  0
 36 38  1  0  0  0
 38 40  1  0  0  0
 40 52  1  0  0  0
 40 41  1  0  0  0
 52 53  1  0  0  0
 52 54  1  0  0  0
 41 42  2  0  0  0
 41 43  1  0  0  0
 43 45  1  0  0  0
 45 46  1  0  0  0
 46 47  2  0  0  0
 46 51  1  0  0  0
 47 48  1  0  0  0
 48 49  2  0  0  0
 49 50  1  0  0  0
 50 51  2  0  0  0
 18 19  2  0  0  0
 18 23  1  0  0  0
 19 20  1  0  0  0
 20 21  2  0  0  0
 21 22  1  0  0  0
 22 23  2  0  0  0
 10 11  1  0  0  0
 15 16  1  0  0  0
  5  6  1  0  0  0
  2  3  1  0  0  0
 38 39  1  0  0  0
 43 44  1  0  0  0
M  END
> <minimizedAffinity>
-10.19715

$$$$
1EC3_MS3_A_501


 62 65  0  0  0  0  0  0  0  0999 V2000
   14.0966   22.5193    4.8408 C   0  0  0  0  0  0  0  0  0  0  0  0
   14.5522   22.3362    3.4426 O   0  0  0  0  0  0  0  0  0  0  0  0
   15.4055   22.7806    3.3197 H   0  0  0  0  0  0  0  0  0  0  0  0
   13.8498   23.9812    5.1479 C   0  0  0  0  0  0  0  0  0  0  0  0
   14.9995   24.6978    4.6760 O   0  0  0  0  0  0  0  0  0  0  0  0
   15.1078   24.5447    3.7244 H   0  0  0  0  0  0  0  0  0  0  0  0
   12.5257   24.4614    4.5450 C   0  0  0  0  0  0  0  0  0  0  0  0
   11.4262   24.5444    5.6323 C   0  0  0  0  0  0  0  0  0  0  0  0
   11.1994   23.6132    6.4011 O   0  0  0  0  0  0  0  0  0  0  0  0
   10.7206   25.7504    5.6522 N   0  0  0  0  0  0  0  0  0  0  0  0
   10.9878   26.4232    4.9850 H   0  0  0  0  0  0  0  0  0  0  0  0
    9.6295   26.1271    6.5520 C   0  0  0  0  0  0  0  0  0  0  0  0
    8.6137   26.8852    5.6754 C   0  0  0  0  0  0  0  0  0  0  0  0
    9.0006   27.7088    4.8524 O   0  0  0  0  0  0  0  0  0  0  0  0
    7.2827   26.5659    5.8974 N   0  0  0  0  0  0  0  0  0  0  0  0
    7.0258   25.8930    6.5685 H   0  0  0  0  0  0  0  0  0  0  0  0
    6.1478   27.3496    5.0013 C   0  0  0  0  0  0  0  0  0  0  0  0
    4.9913   27.9515    5.8301 C   0  0  0  0  0  0  0  0  0  0  0  0
    4.8809   27.6593    7.2252 C   0  0  0  0  0  0  0  0  0  0  0  0
    3.7931   28.2294    7.9990 C   0  0  0  0  0  0  0  0  0  0  0  0
    2.8460   29.0786    7.3440 C   0  0  0  0  0  0  0  0  0  0  0  0
    2.9939   29.3462    5.9403 C   0  0  0  0  0  0  0  0  0  0  0  0
    4.0479   28.7851    5.2216 N   0  0  0  0  0  0  0  0  0  0  0  0
   10.1162   26.9936    7.7988 C   0  0  0  0  0  0  0  0  0  0  0  0
    9.0222   27.9186    8.4175 C   0  0  0  0  0  0  0  0  0  0  0  0
   10.6204   26.1185    8.9576 C   0  0  0  0  0  0  0  0  0  0  0  0
   12.0645   23.6193    3.4075 O   0  0  0  0  0  0  0  0  0  0  0  0
   11.7207   24.2624    2.1368 C   0  0  0  0  0  0  0  0  0  0  0  0
   10.2646   24.2467    2.1007 C   0  0  0  0  0  0  0  0  0  0  0  0
    9.5390   22.9918    2.2990 C   0  0  0  0  0  0  0  0  0  0  0  0
    8.0705   23.0200    2.2407 C   0  0  0  0  0  0  0  0  0  0  0  0
    7.3698   24.2691    1.9933 C   0  0  0  0  0  0  0  0  0  0  0  0
    8.0920   25.5181    1.7998 C   0  0  0  0  0  0  0  0  0  0  0  0
    9.5518   25.5215    1.8502 C   0  0  0  0  0  0  0  0  0  0  0  0
   15.0459   21.8664    5.8095 C   0  0  0  0  0  0  0  0  0  0  0  0
   15.2432   20.4852    5.2881 C   0  0  0  0  0  0  0  0  0  0  0  0
   14.2884   19.6806    5.2847 O   0  0  0  0  0  0  0  0  0  0  0  0
   16.5091   20.1712    4.8223 N   0  0  0  0  0  0  0  0  0  0  0  0
   17.2055   20.8656    4.8682 H   0  0  0  0  0  0  0  0  0  0  0  0
   16.8767   18.8495    4.2580 C   0  0  0  0  0  0  0  0  0  0  0  0
   18.2028   18.4468    4.9043 C   0  0  0  0  0  0  0  0  0  0  0  0
   19.1587   19.1711    4.7772 O   0  0  0  0  0  0  0  0  0  0  0  0
   18.1821   17.2583    5.5929 N   0  0  0  0  0  0  0  0  0  0  0  0
   17.3413   16.7478    5.6333 H   0  0  0  0  0  0  0  0  0  0  0  0
   19.3676   16.7226    6.2699 C   0  0  0  0  0  0  0  0  0  0  0  0
   18.9945   15.7854    7.4014 C   0  0  0  0  0  0  0  0  0  0  0  0
   18.5998   16.3188    8.6837 C   0  0  0  0  0  0  0  0  0  0  0  0
   18.2449   15.3622    9.7475 C   0  0  0  0  0  0  0  0  0  0  0  0
   18.2878   13.9056    9.5241 C   0  0  0  0  0  0  0  0  0  0  0  0
   18.7044   13.4894    8.1861 C   0  0  0  0  0  0  0  0  0  0  0  0
   19.0417   14.4014    7.1739 N   0  0  0  0  0  0  0  0  0  0  0  0
   17.0174   18.8584    2.6634 C   0  0  0  0  0  0  0  0  0  0  0  0
   17.4516   17.4812    2.0568 C   0  0  0  0  0  0  0  0  0  0  0  0
   15.7355   19.3230    1.9528 C   0  0  0  0  0  0  0  0  0  0  0  0
   14.4633   21.8684    7.1610 O   0  0  0  0  0  0  0  0  0  0  0  0
   15.2620   22.5320    8.1707 C   0  0  0  0  0  0  0  0  0  0  0  0
   16.3095   21.6049    8.6814 C   0  0  0  0  0  0  0  0  0  0  0  0
   17.7112   21.9497    8.4297 C   0  0  0  0  0  0  0  0  0  0  0  0
   18.7427   21.0962    8.9150 C   0  0  0  0  0  0  0  0  0  0  0  0
   18.3853   19.8930    9.6552 C   0  0  0  0  0  0  0  0  0  0  0  0
   16.9940   19.5356    9.9169 C   0  0  0  0  0  0  0  0  0  0  0  0
   15.9525   20.4110    9.4199 C   0  0  0  0  0  0  0  0  0  0  0  0
 29 30  2  0  0  0
 29 34  1  0  0  0
 29 28  1  0  0  0
 30 31  1  0  0  0
 31 32  2  0  0  0
 32 33  1  0  0  0
 33 34  2  0  0  0
 57 58  2  0  0  0
 57 62  1  0  0  0
 57 56  1  0  0  0
 58 59  1  0  0  0
 59 60  2  0  0  0
 60 61  1  0  0  0
 61 62  2  0  0  0
 56 55  1  0  0  0
 55 35  1  0  0  0
 35  1  1  0  0  0
 35 36  1  0  0  0
  1  4  1  0  0  0
  1  2  1  0  0  0
  4  7  1  0  0  0
  4  5  1  0  0  0
  7  8  1  0  0  0
  7 27  1  0  0  0
  8  9  2  0  0  0
  8 10  1  0  0  0
 10 12  1  0  0  0
 12 24  1  0  0  0
 12 13  1  0  0  0
 24 25  1  0  0  0
 24 26  1  0  0  0
 13 14  2  0  0  0
 13 15  1  0  0  0
 15 17  1  0  0  0
 17 18  1  0  0  0
 27 28  1  0  0  0
 36 37  2  0  0  0
 36 38  1  0  0  0
 38 40  1  0  0  0
 40 52  1  0  0  0
 40 41  1  0  0  0
 52 53  1  0  0  0
 52 54  1  0  0  0
 41 42  2  0  0  0
 41 43  1  0  0  0
 43 45  1  0  0  0
 45 46  1  0  0  0
 46 47  2  0  0  0
 46 51  1  0  0  0
 47 48  1  0  0  0
 48 49  2  0  0  0
 49 50  1  0  0  0
 50 51  2  0  0  0
 18 19  2  0  0  0
 18 23  1  0  0  0
 19 20  1  0  0  0
 20 21  2  0  0  0
 21 22  1  0  0  0
 22 23  2  0  0  0
 10 11  1  0  0  0
 15 16  1  0  0  0
  5  6  1  0  0  0
  2  3  1  0  0  0
 38 39  1  0  0  0
 43 44  1  0  0  0
M  END
> <minimizedAffinity>
-10.16195

$$$$
1EC3_MS3_A_501


 62 65  0  0  0  0  0  0  0  0999 V2000
   13.3534   24.0925    5.2681 C   0  0  0  0  0  0  0  0  0  0  0  0
   13.2271   25.2188    4.3133 O   0  0  0  0  0  0  0  0  0  0  0  0
   13.1218   24.8702    3.4142 H   0  0  0  0  0  0  0  0  0  0  0  0
   14.5998   23.2787    4.9912 C   0  0  0  0  0  0  0  0  0  0  0  0
   15.7105   24.1789    5.1097 O   0  0  0  0  0  0  0  0  0  0  0  0
   15.7228   24.5616    6.0010 H   0  0  0  0  0  0  0  0  0  0  0  0
   14.6852   22.0589    5.9142 C   0  0  0  0  0  0  0  0  0  0  0  0
   15.3951   22.4240    7.2412 C   0  0  0  0  0  0  0  0  0  0  0  0
   15.3342   23.5527    7.7228 O   0  0  0  0  0  0  0  0  0  0  0  0
   16.1075   21.3735    7.8255 N   0  0  0  0  0  0  0  0  0  0  0  0
   16.0880   20.5136    7.3465 H   0  0  0  0  0  0  0  0  0  0  0  0
   16.8795   21.4061    9.0686 C   0  0  0  0  0  0  0  0  0  0  0  0
   18.2401   20.7678    8.7272 C   0  0  0  0  0  0  0  0  0  0  0  0
   19.2381   21.0531    9.3813 O   0  0  0  0  0  0  0  0  0  0  0  0
   18.2304   19.8849    7.6582 N   0  0  0  0  0  0  0  0  0  0  0  0
   17.3994   19.6874    7.1686 H   0  0  0  0  0  0  0  0  0  0  0  0
   19.6545   19.1787    7.2358 C   0  0  0  0  0  0  0  0  0  0  0  0
   19.7003   17.6530    7.4750 C   0  0  0  0  0  0  0  0  0  0  0  0
   18.7591   17.0368    8.3572 C   0  0  0  0  0  0  0  0  0  0  0  0
   18.8060   15.6026    8.5764 C   0  0  0  0  0  0  0  0  0  0  0  0
   19.8015   14.8292    7.8995 C   0  0  0  0  0  0  0  0  0  0  0  0
   20.7280   15.4886    7.0216 C   0  0  0  0  0  0  0  0  0  0  0  0
   20.6603   16.8672    6.8300 N   0  0  0  0  0  0  0  0  0  0  0  0
   16.1513   20.6651   10.2781 C   0  0  0  0  0  0  0  0  0  0  0  0
   14.7213   21.1980   10.6039 C   0  0  0  0  0  0  0  0  0  0  0  0
   15.9824   19.1586   10.0238 C   0  0  0  0  0  0  0  0  0  0  0  0
   15.3523   20.8913    5.2759 O   0  0  0  0  0  0  0  0  0  0  0  0
   15.1177   20.6242    3.8547 C   0  0  0  0  0  0  0  0  0  0  0  0
   16.0512   19.5561    3.5238 C   0  0  0  0  0  0  0  0  0  0  0  0
   15.7115   18.5791    2.4891 C   0  0  0  0  0  0  0  0  0  0  0  0
   16.6772   17.5099    2.1974 C   0  0  0  0  0  0  0  0  0  0  0  0
   17.9337   17.4375    2.9241 C   0  0  0  0  0  0  0  0  0  0  0  0
   18.2729   18.4121    3.9509 C   0  0  0  0  0  0  0  0  0  0  0  0
   17.3327   19.4851    4.2645 C   0  0  0  0  0  0  0  0  0  0  0  0
   12.0998   23.2597    5.2919 C   0  0  0  0  0  0  0  0  0  0  0  0
   11.3159   23.7043    4.1060 C   0  0  0  0  0  0  0  0  0  0  0  0
   11.7256   23.4400    2.9564 O   0  0  0  0  0  0  0  0  0  0  0  0
   10.1454   24.3998    4.3592 N   0  0  0  0  0  0  0  0  0  0  0  0
    9.9009   24.5698    5.2976 H   0  0  0  0  0  0  0  0  0  0  0  0
    9.2387   24.9036    3.2989 C   0  0  0  0  0  0  0  0  0  0  0  0
    8.6780   26.2373    3.7942 C   0  0  0  0  0  0  0  0  0  0  0  0
    8.5790   27.1545    3.0173 O   0  0  0  0  0  0  0  0  0  0  0  0
    8.3269   26.2686    5.1219 N   0  0  0  0  0  0  0  0  0  0  0  0
    8.4495   25.4563    5.6645 H   0  0  0  0  0  0  0  0  0  0  0  0
    7.7762   27.4686    5.7602 C   0  0  0  0  0  0  0  0  0  0  0  0
    6.2642   27.4135    5.8529 C   0  0  0  0  0  0  0  0  0  0  0  0
    5.6247   27.1676    7.1238 C   0  0  0  0  0  0  0  0  0  0  0  0
    4.1516   27.1271    7.1567 C   0  0  0  0  0  0  0  0  0  0  0  0
    3.3445   27.3285    5.9396 C   0  0  0  0  0  0  0  0  0  0  0  0
    4.1069   27.5671    4.7152 C   0  0  0  0  0  0  0  0  0  0  0  0
    5.5097   27.6057    4.6853 N   0  0  0  0  0  0  0  0  0  0  0  0
    8.0449   23.8944    2.9540 C   0  0  0  0  0  0  0  0  0  0  0  0
    6.8623   24.5551    2.1679 C   0  0  0  0  0  0  0  0  0  0  0  0
    8.5162   22.6544    2.1764 C   0  0  0  0  0  0  0  0  0  0  0  0
   11.3718   23.4852    6.5510 O   0  0  0  0  0  0  0  0  0  0  0  0
   11.9692   24.4635    7.4364 C   0  0  0  0  0  0  0  0  0  0  0  0
   10.9075   25.3023    8.0584 C   0  0  0  0  0  0  0  0  0  0  0  0
   11.2592   26.6674    8.4581 C   0  0  0  0  0  0  0  0  0  0  0  0
   10.2676   27.5058    9.0428 C   0  0  0  0  0  0  0  0  0  0  0  0
    8.9180   26.9904    9.2332 C   0  0  0  0  0  0  0  0  0  0  0  0
    8.5498   25.6337    8.8386 C   0  0  0  0  0  0  0  0  0  0  0  0
    9.5655   24.7895    8.2439 C   0  0  0  0  0  0  0  0  0  0  0  0
 29 30  2  0  0  0
 29 34  1  0  0  0
 29 28  1  0  0  0
 30 31  1  0  0  0
 31 32  2  0  0  0
 32 33  1  0  0  0
 33 34  2  0  0  0
 57 58  2  0  0  0
 57 62  1  0  0  0
 57 56  1  0  0  0
 58 59  1  0  0  0
 59 60  2  0  0  0
 60 61  1  0  0  0
 61 62  2  0  0  0
 56 55  1  0  0  0
 55 35  1  0  0  0
 35  1  1  0  0  0
 35 36  1  0  0  0
  1  4  1  0  0  0
  1  2  1  0  0  0
  4  7  1  0  0  0
  4  5  1  0  0  0
  7  8  1  0  0  0
  7 27  1  0  0  0
  8  9  2  0  0  0
  8 10  1  0  0  0
 10 12  1  0  0  0
 12 24  1  0  0  0
 12 13  1  0  0  0
 24 25  1  0  0  0
 24 26  1  0  0  0
 13 14  2  0  0  0
 13 15  1  0  0  0
 15 17  1  0  0  0
 17 18  1  0  0  0
 27 28  1  0  0  0
 36 37  2  0  0  0
 36 38  1  0  0  0
 38 40  1  0  0  0
 40 52  1  0  0  0
 40 41  1  0  0  0
 52 53  1  0  0  0
 52 54  1  0  0  0
 41 42  2  0  0  0
 41 43  1  0  0  0
 43 45  1  0  0  0
 45 46  1  0  0  0
 46 47  2  0  0  0
 46 51  1  0  0  0
 47 48  1  0  0  0
 48 49  2  0  0  0
 49 50  1  0  0  0
 50 51  2  0  0  0
 18 19  2  0  0  0
 18 23  1  0  0  0
 19 20  1  0  0  0
 20 21  2  0  0  0
 21 22  1  0  0  0
 22 23  2  0  0  0
 10 11  1  0  0  0
 15 16  1  0  0  0
  5  6  1  0  0  0
  2  3  1  0  0  0
 38 39  1  0  0  0
 43 44  1  0  0  0
M  END
> <minimizedAffinity>
-10.04864

$$$$
1EC3_MS3_A_501


 62 65  0  0  0  0  0  0  0  0999 V2000
   14.4436   22.5878    4.6117 C   0  0  0  0  0  0  0  0  0  0  0  0
   15.9247   22.5375    4.6136 O   0  0  0  0  0  0  0  0  0  0  0  0
   16.2513   22.6629    5.5183 H   0  0  0  0  0  0  0  0  0  0  0  0
   13.9426   23.9484    5.0475 C   0  0  0  0  0  0  0  0  0  0  0  0
   15.0141   24.8730    4.8127 O   0  0  0  0  0  0  0  0  0  0  0  0
   15.2500   24.8623    3.8719 H   0  0  0  0  0  0  0  0  0  0  0  0
   12.6361   24.3152    4.3363 C   0  0  0  0  0  0  0  0  0  0  0  0
   11.4271   24.1471    5.2893 C   0  0  0  0  0  0  0  0  0  0  0  0
   10.9224   23.0494    5.5131 O   0  0  0  0  0  0  0  0  0  0  0  0
   10.9639   25.3385    5.8536 N   0  0  0  0  0  0  0  0  0  0  0  0
   11.4450   26.1584    5.5977 H   0  0  0  0  0  0  0  0  0  0  0  0
    9.8448   25.5062    6.7819 C   0  0  0  0  0  0  0  0  0  0  0  0
    8.9720   26.6245    6.1796 C   0  0  0  0  0  0  0  0  0  0  0  0
    9.1422   27.7915    6.5181 O   0  0  0  0  0  0  0  0  0  0  0  0
    8.0181   26.2057    5.2646 N   0  0  0  0  0  0  0  0  0  0  0  0
    7.9257   25.2555    5.0245 H   0  0  0  0  0  0  0  0  0  0  0  0
    7.0460   27.3506    4.5942 C   0  0  0  0  0  0  0  0  0  0  0  0
    5.6661   27.4877    5.2754 C   0  0  0  0  0  0  0  0  0  0  0  0
    5.5016   27.1109    6.6446 C   0  0  0  0  0  0  0  0  0  0  0  0
    4.2030   27.2437    7.2796 C   0  0  0  0  0  0  0  0  0  0  0  0
    3.1057   27.7530    6.5155 C   0  0  0  0  0  0  0  0  0  0  0  0
    3.3146   28.1197    5.1423 C   0  0  0  0  0  0  0  0  0  0  0  0
    4.5722   27.9813    4.5580 N   0  0  0  0  0  0  0  0  0  0  0  0
   10.3096   25.8385    8.2704 C   0  0  0  0  0  0  0  0  0  0  0  0
    9.2338   25.5631    9.3668 C   0  0  0  0  0  0  0  0  0  0  0  0
   11.5453   25.0271    8.6917 C   0  0  0  0  0  0  0  0  0  0  0  0
   12.4179   23.5413    3.0837 O   0  0  0  0  0  0  0  0  0  0  0  0
   11.9392   24.2391    1.8877 C   0  0  0  0  0  0  0  0  0  0  0  0
   10.4884   24.1281    1.9550 C   0  0  0  0  0  0  0  0  0  0  0  0
    9.8615   22.8239    2.1709 C   0  0  0  0  0  0  0  0  0  0  0  0
    8.3938   22.7563    2.2180 C   0  0  0  0  0  0  0  0  0  0  0  0
    7.5980   23.9614    2.0546 C   0  0  0  0  0  0  0  0  0  0  0  0
    8.2224   25.2594    1.8436 C   0  0  0  0  0  0  0  0  0  0  0  0
    9.6787   25.3582    1.7901 C   0  0  0  0  0  0  0  0  0  0  0  0
   13.8625   21.4595    5.4210 C   0  0  0  0  0  0  0  0  0  0  0  0
   14.2968   21.7226    6.8213 C   0  0  0  0  0  0  0  0  0  0  0  0
   13.4972   22.2317    7.6340 O   0  0  0  0  0  0  0  0  0  0  0  0
   15.5969   21.3722    7.1454 N   0  0  0  0  0  0  0  0  0  0  0  0
   16.1614   20.9814    6.4398 H   0  0  0  0  0  0  0  0  0  0  0  0
   16.1884   21.5516    8.4939 C   0  0  0  0  0  0  0  0  0  0  0  0
   17.6926   21.3163    8.3512 C   0  0  0  0  0  0  0  0  0  0  0  0
   18.4560   22.0382    8.9434 O   0  0  0  0  0  0  0  0  0  0  0  0
   18.0472   20.2696    7.5351 N   0  0  0  0  0  0  0  0  0  0  0  0
   17.3366   19.7436    7.1021 H   0  0  0  0  0  0  0  0  0  0  0  0
   19.4464   19.9078    7.2859 C   0  0  0  0  0  0  0  0  0  0  0  0
   19.8287   18.6201    7.9883 C   0  0  0  0  0  0  0  0  0  0  0  0
   19.7357   17.3592    7.2910 C   0  0  0  0  0  0  0  0  0  0  0  0
   20.1228   16.1386    8.0212 C   0  0  0  0  0  0  0  0  0  0  0  0
   20.5905   16.1883    9.4184 C   0  0  0  0  0  0  0  0  0  0  0  0
   20.6393   17.5219   10.0153 C   0  0  0  0  0  0  0  0  0  0  0  0
   20.2708   18.6834    9.3187 N   0  0  0  0  0  0  0  0  0  0  0  0
   15.5742   20.5618    9.5918 C   0  0  0  0  0  0  0  0  0  0  0  0
   16.6431   19.6746   10.3154 C   0  0  0  0  0  0  0  0  0  0  0  0
   14.7435   21.2937   10.6587 C   0  0  0  0  0  0  0  0  0  0  0  0
   14.3668   20.1711    4.9194 O   0  0  0  0  0  0  0  0  0  0  0  0
   14.7860   20.1759    3.5330 C   0  0  0  0  0  0  0  0  0  0  0  0
   15.9444   19.2586    3.3484 C   0  0  0  0  0  0  0  0  0  0  0  0
   17.1173   19.4552    4.2045 C   0  0  0  0  0  0  0  0  0  0  0  0
   18.2395   18.5891    4.0686 C   0  0  0  0  0  0  0  0  0  0  0  0
   18.2013   17.5202    3.0790 C   0  0  0  0  0  0  0  0  0  0  0  0
   17.0401   17.3085    2.2196 C   0  0  0  0  0  0  0  0  0  0  0  0
   15.9035   18.1944    2.3665 C   0  0  0  0  0  0  0  0  0  0  0  0
 29 30  2  0  0  0
 29 34  1  0  0  0
 29 28  1  0  0  0
 30 31  1  0  0  0
 31 32  2  0  0  0
 32 33  1  0  0  0
 33 34  2  0  0  0
 57 58  2  0  0  0
 57 62  1  0  0  0
 57 56  1  0  0  0
 58 59  1  0  0  0
 59 60  2  0  0  0
 60 61  1  0  0  0
 61 62  2  0  0  0
 56 55  1  0  0  0
 55 35  1  0  0  0
 35  1  1  0  0  0
 35 36  1  0  0  0
  1  4  1  0  0  0
  1  2  1  0  0  0
  4  7  1  0  0  0
  4  5  1  0  0  0
  7  8  1  0  0  0
  7 27  1  0  0  0
  8  9  2  0  0  0
  8 10  1  0  0  0
 10 12  1  0  0  0
 12 24  1  0  0  0
 12 13  1  0  0  0
 24 25  1  0  0  0
 24 26  1  0  0  0
 13 14  2  0  0  0
 13 15  1  0  0  0
 15 17  1  0  0  0
 17 18  1  0  0  0
 27 28  1  0  0  0
 36 37  2  0  0  0
 36 38  1  0  0  0
 38 40  1  0  0  0
 40 52  1  0  0  0
 40 41  1  0  0  0
 52 53  1  0  0  0
 52 54  1  0  0  0
 41 42  2  0  0  0
 41 43  1  0  0  0
 43 45  1  0  0  0
 45 46  1  0  0  0
 46 47  2  0  0  0
 46 51  1  0  0  0
 47 48  1  0  0  0
 48 49  2  0  0  0
 49 50  1  0  0  0
 50 51  2  0  0  0
 18 19  2  0  0  0
 18 23  1  0  0  0
 19 20  1  0  0  0
 20 21  2  0  0  0
 21 22  1  0  0  0
 22 23  2  0  0  0
 10 11  1  0  0  0
 15 16  1  0  0  0
  5  6  1  0  0  0
  2  3  1  0  0  0
 38 39  1  0  0  0
 43 44  1  0  0  0
M  END
> <minimizedAffinity>
-9.92661

$$$$
1EC3_MS3_A_501


 62 65  0  0  0  0  0  0  0  0999 V2000
   14.1252   23.1278    4.7401 C   0  0  0  0  0  0  0  0  0  0  0  0
   15.5696   23.3056    4.4603 O   0  0  0  0  0  0  0  0  0  0  0  0
   16.0129   23.6464    5.2530 H   0  0  0  0  0  0  0  0  0  0  0  0
   13.4612   24.4531    5.0480 C   0  0  0  0  0  0  0  0  0  0  0  0
   14.3691   25.4757    4.6145 O   0  0  0  0  0  0  0  0  0  0  0  0
   14.5423   25.3734    3.6656 H   0  0  0  0  0  0  0  0  0  0  0  0
   12.0716   24.5420    4.4088 C   0  0  0  0  0  0  0  0  0  0  0  0
   10.9732   24.6400    5.4960 C   0  0  0  0  0  0  0  0  0  0  0  0
   10.6819   23.6871    6.2148 O   0  0  0  0  0  0  0  0  0  0  0  0
   10.3471   25.8866    5.5766 N   0  0  0  0  0  0  0  0  0  0  0  0
   10.6614   26.5742    4.9459 H   0  0  0  0  0  0  0  0  0  0  0  0
    9.2772   26.2865    6.4918 C   0  0  0  0  0  0  0  0  0  0  0  0
    8.2367   27.0145    5.6186 C   0  0  0  0  0  0  0  0  0  0  0  0
    8.5883   27.9043    4.8504 O   0  0  0  0  0  0  0  0  0  0  0  0
    6.9262   26.5909    5.7788 N   0  0  0  0  0  0  0  0  0  0  0  0
    6.6981   25.8682    6.4072 H   0  0  0  0  0  0  0  0  0  0  0  0
    5.7658   27.3370    4.8833 C   0  0  0  0  0  0  0  0  0  0  0  0
    4.6897   26.3826    4.3194 C   0  0  0  0  0  0  0  0  0  0  0  0
    4.2424   25.2678    5.0947 C   0  0  0  0  0  0  0  0  0  0  0  0
    3.2297   24.3757    4.5602 C   0  0  0  0  0  0  0  0  0  0  0  0
    2.6961   24.6325    3.2577 C   0  0  0  0  0  0  0  0  0  0  0  0
    3.1738   25.7638    2.5122 C   0  0  0  0  0  0  0  0  0  0  0  0
    4.1472   26.6038    3.0498 N   0  0  0  0  0  0  0  0  0  0  0  0
    9.7913   27.1916    7.6995 C   0  0  0  0  0  0  0  0  0  0  0  0
    8.6640   27.9253    8.4910 C   0  0  0  0  0  0  0  0  0  0  0  0
   10.5705   26.3806    8.7472 C   0  0  0  0  0  0  0  0  0  0  0  0
   11.7830   23.4123    3.4835 O   0  0  0  0  0  0  0  0  0  0  0  0
   11.4087   23.7030    2.0972 C   0  0  0  0  0  0  0  0  0  0  0  0
    9.9961   24.0520    2.1648 C   0  0  0  0  0  0  0  0  0  0  0  0
    9.5521   25.3918    1.7798 C   0  0  0  0  0  0  0  0  0  0  0  0
    8.1192   25.7049    1.8768 C   0  0  0  0  0  0  0  0  0  0  0  0
    7.1783   24.7000    2.3430 C   0  0  0  0  0  0  0  0  0  0  0  0
    7.6201   23.3658    2.7223 C   0  0  0  0  0  0  0  0  0  0  0  0
    9.0381   23.0255    2.6385 C   0  0  0  0  0  0  0  0  0  0  0  0
   13.9047   22.0954    5.8131 C   0  0  0  0  0  0  0  0  0  0  0  0
   14.8679   22.4467    6.8934 C   0  0  0  0  0  0  0  0  0  0  0  0
   14.9930   23.6366    7.2508 O   0  0  0  0  0  0  0  0  0  0  0  0
   15.5826   21.4011    7.4536 N   0  0  0  0  0  0  0  0  0  0  0  0
   15.4253   20.4934    7.1063 H   0  0  0  0  0  0  0  0  0  0  0  0
   16.5714   21.5691    8.5465 C   0  0  0  0  0  0  0  0  0  0  0  0
   17.9182   21.0932    8.0006 C   0  0  0  0  0  0  0  0  0  0  0  0
   18.9143   21.2858    8.6527 O   0  0  0  0  0  0  0  0  0  0  0  0
   17.8675   20.4692    6.7778 N   0  0  0  0  0  0  0  0  0  0  0  0
   16.9948   20.3639    6.3346 H   0  0  0  0  0  0  0  0  0  0  0  0
   19.0667   19.9543    6.1089 C   0  0  0  0  0  0  0  0  0  0  0  0
   19.1190   18.4396    6.1340 C   0  0  0  0  0  0  0  0  0  0  0  0
   18.8513   17.7256    7.3600 C   0  0  0  0  0  0  0  0  0  0  0  0
   18.9132   16.2532    7.3268 C   0  0  0  0  0  0  0  0  0  0  0  0
   19.2375   15.5202    6.0895 C   0  0  0  0  0  0  0  0  0  0  0  0
   19.4901   16.3540    4.9156 C   0  0  0  0  0  0  0  0  0  0  0  0
   19.4305   17.7560    4.9486 N   0  0  0  0  0  0  0  0  0  0  0  0
   16.1931   20.7575    9.8734 C   0  0  0  0  0  0  0  0  0  0  0  0
   14.8168   21.1684   10.4981 C   0  0  0  0  0  0  0  0  0  0  0  0
   16.1997   19.2342    9.6648 C   0  0  0  0  0  0  0  0  0  0  0  0
   14.1496   20.7491    5.2714 O   0  0  0  0  0  0  0  0  0  0  0  0
   14.1152   20.6552    3.8265 C   0  0  0  0  0  0  0  0  0  0  0  0
   15.0511   19.5937    3.3630 C   0  0  0  0  0  0  0  0  0  0  0  0
   15.1875   18.3918    4.1901 C   0  0  0  0  0  0  0  0  0  0  0  0
   16.0614   17.3475    3.7731 C   0  0  0  0  0  0  0  0  0  0  0  0
   16.8054   17.4927    2.5287 C   0  0  0  0  0  0  0  0  0  0  0  0
   16.6797   18.6822    1.6914 C   0  0  0  0  0  0  0  0  0  0  0  0
   15.7875   19.7381    2.1239 C   0  0  0  0  0  0  0  0  0  0  0  0
 29 30  2  0  0  0
 29 34  1  0  0  0
 29 28  1  0  0  0
 30 31  1  0  0  0
 31 32  2  0  0  0
 32 33  1  0  0  0
 33 34  2  0  0  0
 57 58  2  0  0  0
 57 62  1  0  0  0
 57 56  1  0  0  0
 58 59  1  0  0  0
 59 60  2  0  0  0
 60 61  1  0  0  0
 61 62  2  0  0  0
 56 55  1  0  0  0
 55 35  1  0  0  0
 35  1  1  0  0  0
 35 36  1  0  0  0
  1  4  1  0  0  0
  1  2  1  0  0  0
  4  7  1  0  0  0
  4  5  1  0  0  0
  7  8  1  0  0  0
  7 27  1  0  0  0
  8  9  2  0  0  0
  8 10  1  0  0  0
 10 12  1  0  0  0
 12 24  1  0  0  0
 12 13  1  0  0  0
 24 25  1  0  0  0
 24 26  1  0  0  0
 13 14  2  0  0  0
 13 15  1  0  0  0
 15 17  1  0  0  0
 17 18  1  0  0  0
 27 28  1  0  0  0
 36 37  2  0  0  0
 36 38  1  0  0  0
 38 40  1  0  0  0
 40 52  1  0  0  0
 40 41  1  0  0  0
 52 53  1  0  0  0
 52 54  1  0  0  0
 41 42  2  0  0  0
 41 43  1  0  0  0
 43 45  1  0  0  0
 45 46  1  0  0  0
 46 47  2  0  0  0
 46 51  1  0  0  0
 47 48  1  0  0  0
 48 49  2  0  0  0
 49 50  1  0  0  0
 50 51  2  0  0  0
 18 19  2  0  0  0
 18 23  1  0  0  0
 19 20  1  0  0  0
 20 21  2  0  0  0
 21 22  1  0  0  0
 22 23  2  0  0  0
 10 11  1  0  0  0
 15 16  1  0  0  0
  5  6  1  0  0  0
  2  3  1  0  0  0
 38 39  1  0  0  0
 43 44  1  0  0  0
M  END
> <minimizedAffinity>
-9.91458

$$$$
1EC3_MS3_A_501


 62 65  0  0  0  0  0  0  0  0999 V2000
    7.7284   27.0892    4.7613 C   0  0  0  0  0  0  0  0  0  0  0  0
    8.5976   27.9517    3.9267 O   0  0  0  0  0  0  0  0  0  0  0  0
    8.1189   28.7619    3.6913 H   0  0  0  0  0  0  0  0  0  0  0  0
    6.5052   26.6382    3.9914 C   0  0  0  0  0  0  0  0  0  0  0  0
    5.6036   27.7538    3.9665 O   0  0  0  0  0  0  0  0  0  0  0  0
    6.0367   28.5101    3.5406 H   0  0  0  0  0  0  0  0  0  0  0  0
    6.8834   26.1118    2.6031 C   0  0  0  0  0  0  0  0  0  0  0  0
    5.6401   25.5456    1.8740 C   0  0  0  0  0  0  0  0  0  0  0  0
    5.5302   25.5818    0.6508 O   0  0  0  0  0  0  0  0  0  0  0  0
    4.6666   25.0083    2.7203 N   0  0  0  0  0  0  0  0  0  0  0  0
    4.8624   25.0379    3.6846 H   0  0  0  0  0  0  0  0  0  0  0  0
    3.3888   24.4066    2.3362 C   0  0  0  0  0  0  0  0  0  0  0  0
    2.3938   25.5791    2.2343 C   0  0  0  0  0  0  0  0  0  0  0  0
    1.2992   25.4166    1.7043 O   0  0  0  0  0  0  0  0  0  0  0  0
    2.8339   26.7799    2.7698 N   0  0  0  0  0  0  0  0  0  0  0  0
    3.7217   26.8555    3.1885 H   0  0  0  0  0  0  0  0  0  0  0  0
    1.8222   28.0737    2.6818 C   0  0  0  0  0  0  0  0  0  0  0  0
    1.9419   29.0532    3.8706 C   0  0  0  0  0  0  0  0  0  0  0  0
    0.7886   29.3794    4.6500 C   0  0  0  0  0  0  0  0  0  0  0  0
    0.9077   30.2989    5.7669 C   0  0  0  0  0  0  0  0  0  0  0  0
    2.1874   30.8643    6.0670 C   0  0  0  0  0  0  0  0  0  0  0  0
    3.3205   30.5096    5.2581 C   0  0  0  0  0  0  0  0  0  0  0  0
    3.1772   29.6244    4.1914 N   0  0  0  0  0  0  0  0  0  0  0  0
    2.8949   23.2821    3.3528 C   0  0  0  0  0  0  0  0  0  0  0  0
    2.2384   22.0366    2.6795 C   0  0  0  0  0  0  0  0  0  0  0  0
    4.0412   22.7291    4.2147 C   0  0  0  0  0  0  0  0  0  0  0  0
    7.9677   25.0928    2.6423 O   0  0  0  0  0  0  0  0  0  0  0  0
    9.1172   25.2389    1.7459 C   0  0  0  0  0  0  0  0  0  0  0  0
   10.0952   24.2819    2.2455 C   0  0  0  0  0  0  0  0  0  0  0  0
    9.6520   23.0079    2.8121 C   0  0  0  0  0  0  0  0  0  0  0  0
   10.6725   22.0781    3.3171 C   0  0  0  0  0  0  0  0  0  0  0  0
   12.0817   22.4269    3.2478 C   0  0  0  0  0  0  0  0  0  0  0  0
   12.5223   23.6930    2.6805 C   0  0  0  0  0  0  0  0  0  0  0  0
   11.5316   24.6384    2.1723 C   0  0  0  0  0  0  0  0  0  0  0  0
    7.3889   27.7619    6.0643 C   0  0  0  0  0  0  0  0  0  0  0  0
    8.6022   27.5990    6.9128 C   0  0  0  0  0  0  0  0  0  0  0  0
    8.9344   28.5078    7.7020 O   0  0  0  0  0  0  0  0  0  0  0  0
    9.3046   26.4137    6.7727 N   0  0  0  0  0  0  0  0  0  0  0  0
    8.9745   25.7534    6.1212 H   0  0  0  0  0  0  0  0  0  0  0  0
   10.5252   26.0809    7.5471 C   0  0  0  0  0  0  0  0  0  0  0  0
   11.3993   25.2120    6.6419 C   0  0  0  0  0  0  0  0  0  0  0  0
   10.8971   24.6728    5.6871 O   0  0  0  0  0  0  0  0  0  0  0  0
   12.7193   25.1231    7.0118 N   0  0  0  0  0  0  0  0  0  0  0  0
   13.0216   25.6096    7.8125 H   0  0  0  0  0  0  0  0  0  0  0  0
   13.6944   24.3295    6.2567 C   0  0  0  0  0  0  0  0  0  0  0  0
   14.5037   23.4220    7.1618 C   0  0  0  0  0  0  0  0  0  0  0  0
   13.8447   22.6434    8.1836 C   0  0  0  0  0  0  0  0  0  0  0  0
   14.6799   21.7757    9.0336 C   0  0  0  0  0  0  0  0  0  0  0  0
   16.1415   21.6961    8.8583 C   0  0  0  0  0  0  0  0  0  0  0  0
   16.6907   22.5326    7.7925 C   0  0  0  0  0  0  0  0  0  0  0  0
   15.8942   23.3581    6.9835 N   0  0  0  0  0  0  0  0  0  0  0  0
   10.2162   25.3162    8.9191 C   0  0  0  0  0  0  0  0  0  0  0  0
   10.9152   25.9489   10.1698 C   0  0  0  0  0  0  0  0  0  0  0  0
    8.7113   25.1945    9.2098 C   0  0  0  0  0  0  0  0  0  0  0  0
    6.2059   27.1244    6.6644 O   0  0  0  0  0  0  0  0  0  0  0  0
    5.3373   28.0182    7.4023 C   0  0  0  0  0  0  0  0  0  0  0  0
    3.9271   27.5489    7.3096 C   0  0  0  0  0  0  0  0  0  0  0  0
    3.6070   26.5360    6.3003 C   0  0  0  0  0  0  0  0  0  0  0  0
    2.2726   26.0509    6.1903 C   0  0  0  0  0  0  0  0  0  0  0  0
    1.2473   26.5708    7.0857 C   0  0  0  0  0  0  0  0  0  0  0  0
    1.5492   27.5782    8.0985 C   0  0  0  0  0  0  0  0  0  0  0  0
    2.9097   28.0643    8.2027 C   0  0  0  0  0  0  0  0  0  0  0  0
 29 30  2  0  0  0
 29 34  1  0  0  0
 29 28  1  0  0  0
 30 31  1  0  0  0
 31 32  2  0  0  0
 32 33  1  0  0  0
 33 34  2  0  0  0
 57 58  2  0  0  0
 57 62  1  0  0  0
 57 56  1  0  0  0
 58 59  1  0  0  0
 59 60  2  0  0  0
 60 61  1  0  0  0
 61 62  2  0  0  0
 56 55  1  0  0  0
 55 35  1  0  0  0
 35  1  1  0  0  0
 35 36  1  0  0  0
  1  4  1  0  0  0
  1  2  1  0  0  0
  4  7  1  0  0  0
  4  5  1  0  0  0
  7  8  1  0  0  0
  7 27  1  0  0  0
  8  9  2  0  0  0
  8 10  1  0  0  0
 10 12  1  0  0  0
 12 24  1  0  0  0
 12 13  1  0  0  0
 24 25  1  0  0  0
 24 26  1  0  0  0
 13 14  2  0  0  0
 13 15  1  0  0  0
 15 17  1  0  0  0
 17 18  1  0  0  0
 27 28  1  0  0  0
 36 37  2  0  0  0
 36 38  1  0  0  0
 38 40  1  0  0  0
 40 52  1  0  0  0
 40 41  1  0  0  0
 52 53  1  0  0  0
 52 54  1  0  0  0
 41 42  2  0  0  0
 41 43  1  0  0  0
 43 45  1  0  0  0
 45 46  1  0  0  0
 46 47  2  0  0  0
 46 51  1  0  0  0
 47 48  1  0  0  0
 48 49  2  0  0  0
 49 50  1  0  0  0
 50 51  2  0  0  0
 18 19  2  0  0  0
 18 23  1  0  0  0
 19 20  1  0  0  0
 20 21  2  0  0  0
 21 22  1  0  0  0
 22 23  2  0  0  0
 10 11  1  0  0  0
 15 16  1  0  0  0
  5  6  1  0  0  0
  2  3  1  0  0  0
 38 39  1  0  0  0
 43 44  1  0  0  0
M  END
> <minimizedAffinity>
-9.59068

$$$$
1EC3_MS3_A_501


 62 65  0  0  0  0  0  0  0  0999 V2000
   13.7504   23.8139    5.6717 C   0  0  0  0  0  0  0  0  0  0  0  0
   14.9076   24.5625    5.1271 O   0  0  0  0  0  0  0  0  0  0  0  0
   14.7749   25.5125    5.2712 H   0  0  0  0  0  0  0  0  0  0  0  0
   12.4751   24.1696    4.9373 C   0  0  0  0  0  0  0  0  0  0  0  0
   12.1857   25.5373    5.2594 O   0  0  0  0  0  0  0  0  0  0  0  0
   12.9271   26.0984    4.9829 H   0  0  0  0  0  0  0  0  0  0  0  0
   12.6026   23.8969    3.4350 C   0  0  0  0  0  0  0  0  0  0  0  0
   11.3265   24.3516    2.6849 C   0  0  0  0  0  0  0  0  0  0  0  0
   11.2854   24.4317    1.4595 O   0  0  0  0  0  0  0  0  0  0  0  0
   10.2477   24.6672    3.5150 N   0  0  0  0  0  0  0  0  0  0  0  0
   10.3987   24.5689    4.4829 H   0  0  0  0  0  0  0  0  0  0  0  0
    8.9188   25.1273    3.1094 C   0  0  0  0  0  0  0  0  0  0  0  0
    8.4334   26.0449    4.2485 C   0  0  0  0  0  0  0  0  0  0  0  0
    9.1731   26.3020    5.1930 O   0  0  0  0  0  0  0  0  0  0  0  0
    7.1402   26.5266    4.1130 N   0  0  0  0  0  0  0  0  0  0  0  0
    6.5891   26.2924    3.3315 H   0  0  0  0  0  0  0  0  0  0  0  0
    6.5584   27.5025    5.3023 C   0  0  0  0  0  0  0  0  0  0  0  0
    5.2040   27.0467    5.8894 C   0  0  0  0  0  0  0  0  0  0  0  0
    4.7243   27.6144    7.1107 C   0  0  0  0  0  0  0  0  0  0  0  0
    3.4501   27.1835    7.6563 C   0  0  0  0  0  0  0  0  0  0  0  0
    2.6946   26.1913    6.9549 C   0  0  0  0  0  0  0  0  0  0  0  0
    3.2135   25.6468    5.7310 C   0  0  0  0  0  0  0  0  0  0  0  0
    4.4402   26.0787    5.2301 N   0  0  0  0  0  0  0  0  0  0  0  0
    7.9027   23.9327    2.8218 C   0  0  0  0  0  0  0  0  0  0  0  0
    6.9629   24.1561    1.5962 C   0  0  0  0  0  0  0  0  0  0  0  0
    8.6253   22.6033    2.5509 C   0  0  0  0  0  0  0  0  0  0  0  0
   12.9038   22.4725    3.1253 O   0  0  0  0  0  0  0  0  0  0  0  0
   14.1374   22.1436    2.4068 C   0  0  0  0  0  0  0  0  0  0  0  0
   14.5129   20.8280    2.9068 C   0  0  0  0  0  0  0  0  0  0  0  0
   14.9285   19.7798    1.9745 C   0  0  0  0  0  0  0  0  0  0  0  0
   15.2854   18.4630    2.5216 C   0  0  0  0  0  0  0  0  0  0  0  0
   15.2242   18.2222    3.9536 C   0  0  0  0  0  0  0  0  0  0  0  0
   14.8142   19.2666    4.8812 C   0  0  0  0  0  0  0  0  0  0  0  0
   14.4517   20.5849    4.3673 C   0  0  0  0  0  0  0  0  0  0  0  0
   13.6415   23.9947    7.1621 C   0  0  0  0  0  0  0  0  0  0  0  0
   14.3194   22.8049    7.7479 C   0  0  0  0  0  0  0  0  0  0  0  0
   13.7677   21.6861    7.6925 O   0  0  0  0  0  0  0  0  0  0  0  0
   15.5573   23.0187    8.3309 N   0  0  0  0  0  0  0  0  0  0  0  0
   15.9153   23.9358    8.3357 H   0  0  0  0  0  0  0  0  0  0  0  0
   16.3752   21.9462    8.9485 C   0  0  0  0  0  0  0  0  0  0  0  0
   17.3320   21.4425    7.8672 C   0  0  0  0  0  0  0  0  0  0  0  0
   16.8902   21.1597    6.7813 O   0  0  0  0  0  0  0  0  0  0  0  0
   18.6500   21.3560    8.2450 N   0  0  0  0  0  0  0  0  0  0  0  0
   18.8992   21.6166    9.1610 H   0  0  0  0  0  0  0  0  0  0  0  0
   19.6991   20.8894    7.3326 C   0  0  0  0  0  0  0  0  0  0  0  0
   19.4242   19.4865    6.8287 C   0  0  0  0  0  0  0  0  0  0  0  0
   19.2983   18.3929    7.7628 C   0  0  0  0  0  0  0  0  0  0  0  0
   19.0282   17.0500    7.2182 C   0  0  0  0  0  0  0  0  0  0  0  0
   18.8896   16.8161    5.7693 C   0  0  0  0  0  0  0  0  0  0  0  0
   19.0394   18.0013    4.9266 C   0  0  0  0  0  0  0  0  0  0  0  0
   19.2962   19.2796    5.4466 N   0  0  0  0  0  0  0  0  0  0  0  0
   15.5012   20.7346    9.5235 C   0  0  0  0  0  0  0  0  0  0  0  0
   16.3296   19.4386    9.8188 C   0  0  0  0  0  0  0  0  0  0  0  0
   14.7164   21.1122   10.7906 C   0  0  0  0  0  0  0  0  0  0  0  0
   12.2255   24.0727    7.5555 O   0  0  0  0  0  0  0  0  0  0  0  0
   11.9824   24.6742    8.8504 C   0  0  0  0  0  0  0  0  0  0  0  0
   10.8139   25.5941    8.7731 C   0  0  0  0  0  0  0  0  0  0  0  0
    9.4772   24.9988    8.6962 C   0  0  0  0  0  0  0  0  0  0  0  0
    8.3336   25.8453    8.6358 C   0  0  0  0  0  0  0  0  0  0  0  0
    8.5132   27.2912    8.6522 C   0  0  0  0  0  0  0  0  0  0  0  0
    9.8375   27.9011    8.7308 C   0  0  0  0  0  0  0  0  0  0  0  0
   10.9941   27.0313    8.7928 C   0  0  0  0  0  0  0  0  0  0  0  0
 29 30  2  0  0  0
 29 34  1  0  0  0
 29 28  1  0  0  0
 30 31  1  0  0  0
 31 32  2  0  0  0
 32 33  1  0  0  0
 33 34  2  0  0  0
 57 58  2  0  0  0
 57 62  1  0  0  0
 57 56  1  0  0  0
 58 59  1  0  0  0
 59 60  2  0  0  0
 60 61  1  0  0  0
 61 62  2  0  0  0
 56 55  1  0  0  0
 55 35  1  0  0  0
 35  1  1  0  0  0
 35 36  1  0  0  0
  1  4  1  0  0  0
  1  2  1  0  0  0
  4  7  1  0  0  0
  4  5  1  0  0  0
  7  8  1  0  0  0
  7 27  1  0  0  0
  8  9  2  0  0  0
  8 10  1  0  0  0
 10 12  1  0  0  0
 12 24  1  0  0  0
 12 13  1  0  0  0
 24 25  1  0  0  0
 24 26  1  0  0  0
 13 14  2  0  0  0
 13 15  1  0  0  0
 15 17  1  0  0  0
 17 18  1  0  0  0
 27 28  1  0  0  0
 36 37  2  0  0  0
 36 38  1  0  0  0
 38 40  1  0  0  0
 40 52  1  0  0  0
 40 41  1  0  0  0
 52 53  1  0  0  0
 52 54  1  0  0  0
 41 42  2  0  0  0
 41 43  1  0  0  0
 43 45  1  0  0  0
 45 46  1  0  0  0
 46 47  2  0  0  0
 46 51  1  0  0  0
 47 48  1  0  0  0
 48 49  2  0  0  0
 49 50  1  0  0  0
 50 51  2  0  0  0
 18 19  2  0  0  0
 18 23  1  0  0  0
 19 20  1  0  0  0
 20 21  2  0  0  0
 21 22  1  0  0  0
 22 23  2  0  0  0
 10 11  1  0  0  0
 15 16  1  0  0  0
  5  6  1  0  0  0
  2  3  1  0  0  0
 38 39  1  0  0  0
 43 44  1  0  0  0
M  END
> <minimizedAffinity>
-9.54039

$$$$
