4ZGK_4NX_A_201


 35 39  0  0  0  0  0  0  0  0999 V2000
    9.8565    3.6022  -25.5637 C   0  0  0  0  0  0  0  0  0  0  0  0
   10.2398    3.3904  -24.3081 C   0  0  0  0  0  0  0  0  0  0  0  0
   11.2479    2.8122  -23.9833 O   0  0  0  0  0  0  0  0  0  0  0  0
    9.2579    3.8579  -23.3408 O   0  0  0  0  0  0  0  0  0  0  0  0
    8.1581    4.3158  -24.1077 C   0  0  0  0  0  0  0  0  0  0  0  0
    7.9327    5.6637  -23.7710 O   0  0  0  0  0  0  0  0  0  0  0  0
    8.6192    4.1133  -25.5614 C   0  0  0  0  0  0  0  0  0  0  0  0
    7.6458    5.7224  -22.8463 H   0  0  0  0  0  0  0  0  0  0  0  0
    7.8766    4.3495  -26.8337 C   0  0  0  0  0  0  0  0  0  0  0  0
    7.6907    5.5258  -27.5657 C   0  0  0  0  0  0  0  0  0  0  0  0
    6.9418    5.2589  -28.6573 N   0  0  0  0  0  0  0  0  0  0  0  0
    6.5782    3.9640  -28.7219 C   0  0  0  0  0  0  0  0  0  0  0  0
    7.1685    3.2667  -27.5554 C   0  0  0  0  0  0  0  0  0  0  0  0
    5.8248    3.2262  -29.6184 C   0  0  0  0  0  0  0  0  0  0  0  0
    5.6551    1.8635  -29.3918 C   0  0  0  0  0  0  0  0  0  0  0  0
    4.6622    0.9328  -30.5392 Cl  0  0  0  0  0  0  0  0  0  0  0  0
    6.2051    1.1951  -28.2879 C   0  0  0  0  0  0  0  0  0  0  0  0
    6.9778    1.9003  -27.3731 C   0  0  0  0  0  0  0  0  0  0  0  0
    6.6904    5.9337  -29.3287 H   0  0  0  0  0  0  0  0  0  0  0  0
   10.7314    3.3121  -26.7944 C   0  0  0  0  0  0  0  0  0  0  0  0
   14.9115    7.6609  -28.0098 Cl  0  0  0  0  0  0  0  0  0  0  0  0
   13.6842    6.3579  -27.6442 C   0  0  0  0  0  0  0  0  0  0  0  0
   12.3399    6.5223  -28.0370 C   0  0  0  0  0  0  0  0  0  0  0  0
   11.3961    5.5280  -27.7644 C   0  0  0  0  0  0  0  0  0  0  0  0
   14.0739    5.1811  -27.0135 C   0  0  0  0  0  0  0  0  0  0  0  0
   13.1369    4.1835  -26.7332 C   0  0  0  0  0  0  0  0  0  0  0  0
   11.7910    4.3596  -27.0963 C   0  0  0  0  0  0  0  0  0  0  0  0
    6.9284    3.4566  -23.8514 C   0  0  0  0  0  0  0  0  0  0  0  0
    7.2237    2.1316  -23.1255 C   0  0  0  0  0  0  0  0  0  0  0  0
    7.4404    0.9643  -23.8300 C   0  0  0  0  0  0  0  0  0  0  0  0
    7.6982   -0.2545  -23.1934 C   0  0  0  0  0  0  0  0  0  0  0  0
    7.1987    2.0896  -21.7460 C   0  0  0  0  0  0  0  0  0  0  0  0
    7.4240    0.8791  -21.0733 C   0  0  0  0  0  0  0  0  0  0  0  0
    7.6596   -0.2867  -21.8028 C   0  0  0  0  0  0  0  0  0  0  0  0
    7.9084   -1.8174  -20.9177 Cl  0  0  0  0  0  0  0  0  0  0  0  0
 35 34  1  0  0  0
 31 34  2  0  0  0
 31 30  1  0  0  0
 21 22  1  0  0  0
 34 33  1  0  0  0
 23 22  2  0  0  0
 23 24  1  0  0  0
 30 29  2  0  0  0
 22 25  1  0  0  0
  3  2  2  0  0  0
 24 27  2  0  0  0
 33 32  2  0  0  0
 29 32  1  0  0  0
 29 28  1  0  0  0
 25 26  2  0  0  0
  2  4  1  0  0  0
  2  1  1  0  0  0
  4  5  1  0  0  0
 27 26  1  0  0  0
 27 20  1  0  0  0
 28  5  1  0  0  0
  1 20  1  0  0  0
  1  7  2  0  0  0
  5  7  1  0  0  0
  5  6  1  0  0  0
  7  9  1  0  0  0
  9 10  2  0  0  0
  9 13  1  0  0  0
 10 11  1  0  0  0
 11 12  1  0  0  0
 13 18  2  0  0  0
 13 12  1  0  0  0
 18 17  1  0  0  0
 12 14  2  0  0  0
 17 15  2  0  0  0
 14 15  1  0  0  0
 15 16  1  0  0  0
  6  8  1  0  0  0
 11 19  1  0  0  0
M  END
> <minimizedAffinity>
-8.75079

$$$$
4ZGK_4NX_A_201


 35 39  0  0  0  0  0  0  0  0999 V2000
    9.2712    4.0368  -27.0080 C   0  0  0  0  0  0  0  0  0  0  0  0
    9.5737    5.3189  -27.1893 C   0  0  0  0  0  0  0  0  0  0  0  0
   10.6532    5.7299  -27.5385 O   0  0  0  0  0  0  0  0  0  0  0  0
    8.4756    6.2051  -26.8324 O   0  0  0  0  0  0  0  0  0  0  0  0
    7.4601    5.3621  -26.3172 C   0  0  0  0  0  0  0  0  0  0  0  0
    6.3014    5.5659  -27.0899 O   0  0  0  0  0  0  0  0  0  0  0  0
    8.0535    3.9497  -26.4586 C   0  0  0  0  0  0  0  0  0  0  0  0
    5.9789    6.4710  -26.9566 H   0  0  0  0  0  0  0  0  0  0  0  0
    7.4886    2.6364  -26.0320 C   0  0  0  0  0  0  0  0  0  0  0  0
    6.6165    1.7697  -26.6973 C   0  0  0  0  0  0  0  0  0  0  0  0
    6.3766    0.6929  -25.9184 N   0  0  0  0  0  0  0  0  0  0  0  0
    7.0188    0.7650  -24.7370 C   0  0  0  0  0  0  0  0  0  0  0  0
    7.8044    2.0212  -24.7220 C   0  0  0  0  0  0  0  0  0  0  0  0
    7.0814   -0.0645  -23.6309 C   0  0  0  0  0  0  0  0  0  0  0  0
    7.8794    0.3106  -22.5540 C   0  0  0  0  0  0  0  0  0  0  0  0
    7.9297   -0.7536  -21.1279 Cl  0  0  0  0  0  0  0  0  0  0  0  0
    8.6227    1.5001  -22.5276 C   0  0  0  0  0  0  0  0  0  0  0  0
    8.5945    2.3520  -23.6251 C   0  0  0  0  0  0  0  0  0  0  0  0
    5.7985   -0.0585  -26.1839 H   0  0  0  0  0  0  0  0  0  0  0  0
   10.1915    2.8687  -27.3987 C   0  0  0  0  0  0  0  0  0  0  0  0
   10.2290    1.3319  -33.3569 Cl  0  0  0  0  0  0  0  0  0  0  0  0
   10.2004    1.7815  -31.5864 C   0  0  0  0  0  0  0  0  0  0  0  0
   11.2119    2.6041  -31.0491 C   0  0  0  0  0  0  0  0  0  0  0  0
   11.1945    2.9557  -29.6964 C   0  0  0  0  0  0  0  0  0  0  0  0
    9.1623    1.3500  -30.7674 C   0  0  0  0  0  0  0  0  0  0  0  0
    9.1386    1.6928  -29.4133 C   0  0  0  0  0  0  0  0  0  0  0  0
   10.1628    2.4867  -28.8699 C   0  0  0  0  0  0  0  0  0  0  0  0
    7.2147    5.6536  -24.8438 C   0  0  0  0  0  0  0  0  0  0  0  0
    5.7273    5.7407  -24.4564 C   0  0  0  0  0  0  0  0  0  0  0  0
    5.0887    6.9596  -24.3449 C   0  0  0  0  0  0  0  0  0  0  0  0
    3.7417    7.0657  -23.9823 C   0  0  0  0  0  0  0  0  0  0  0  0
    5.0361    4.5881  -24.1416 C   0  0  0  0  0  0  0  0  0  0  0  0
    3.6919    4.6581  -23.7455 C   0  0  0  0  0  0  0  0  0  0  0  0
    3.0584    5.8981  -23.6567 C   0  0  0  0  0  0  0  0  0  0  0  0
    1.3574    5.9560  -23.1165 Cl  0  0  0  0  0  0  0  0  0  0  0  0
 35 34  1  0  0  0
 31 34  2  0  0  0
 31 30  1  0  0  0
 21 22  1  0  0  0
 34 33  1  0  0  0
 23 22  2  0  0  0
 23 24  1  0  0  0
 30 29  2  0  0  0
 22 25  1  0  0  0
  3  2  2  0  0  0
 24 27  2  0  0  0
 33 32  2  0  0  0
 29 32  1  0  0  0
 29 28  1  0  0  0
 25 26  2  0  0  0
  2  4  1  0  0  0
  2  1  1  0  0  0
  4  5  1  0  0  0
 27 26  1  0  0  0
 27 20  1  0  0  0
 28  5  1  0  0  0
  1 20  1  0  0  0
  1  7  2  0  0  0
  5  7  1  0  0  0
  5  6  1  0  0  0
  7  9  1  0  0  0
  9 10  2  0  0  0
  9 13  1  0  0  0
 10 11  1  0  0  0
 11 12  1  0  0  0
 13 18  2  0  0  0
 13 12  1  0  0  0
 18 17  1  0  0  0
 12 14  2  0  0  0
 17 15  2  0  0  0
 14 15  1  0  0  0
 15 16  1  0  0  0
  6  8  1  0  0  0
 11 19  1  0  0  0
M  END
> <minimizedAffinity>
-8.09041

$$$$
4ZGK_4NX_A_201


 35 39  0  0  0  0  0  0  0  0999 V2000
    5.3350    2.8308  -26.6275 C   0  0  0  0  0  0  0  0  0  0  0  0
    5.2108    2.8282  -27.9514 C   0  0  0  0  0  0  0  0  0  0  0  0
    4.2314    2.4580  -28.5513 O   0  0  0  0  0  0  0  0  0  0  0  0
    6.4326    3.2427  -28.6252 O   0  0  0  0  0  0  0  0  0  0  0  0
    7.3885    3.4294  -27.5964 C   0  0  0  0  0  0  0  0  0  0  0  0
    7.8558    4.7545  -27.6811 O   0  0  0  0  0  0  0  0  0  0  0  0
    6.5988    3.1365  -26.3089 C   0  0  0  0  0  0  0  0  0  0  0  0
    8.3428    4.8731  -28.5116 H   0  0  0  0  0  0  0  0  0  0  0  0
    7.0701    3.1042  -24.8937 C   0  0  0  0  0  0  0  0  0  0  0  0
    7.4347    4.1488  -24.0393 C   0  0  0  0  0  0  0  0  0  0  0  0
    7.7995    3.6404  -22.8426 N   0  0  0  0  0  0  0  0  0  0  0  0
    7.7271    2.2960  -22.8164 C   0  0  0  0  0  0  0  0  0  0  0  0
    7.2325    1.8411  -24.1369 C   0  0  0  0  0  0  0  0  0  0  0  0
    7.9969    1.3429  -21.8499 C   0  0  0  0  0  0  0  0  0  0  0  0
    7.7904    0.0004  -22.1538 C   0  0  0  0  0  0  0  0  0  0  0  0
    8.1663   -1.2157  -20.9095 Cl  0  0  0  0  0  0  0  0  0  0  0  0
    7.3276   -0.4410  -23.4024 C   0  0  0  0  0  0  0  0  0  0  0  0
    7.0343    0.4877  -24.3937 C   0  0  0  0  0  0  0  0  0  0  0  0
    8.0857    4.1896  -22.0772 H   0  0  0  0  0  0  0  0  0  0  0  0
    4.1825    2.5430  -25.6514 C   0  0  0  0  0  0  0  0  0  0  0  0
    0.9134    7.4303  -23.8375 Cl  0  0  0  0  0  0  0  0  0  0  0  0
    1.8976    5.9840  -24.3640 C   0  0  0  0  0  0  0  0  0  0  0  0
    1.5230    5.2530  -25.5102 C   0  0  0  0  0  0  0  0  0  0  0  0
    2.2734    4.1478  -25.9215 C   0  0  0  0  0  0  0  0  0  0  0  0
    3.0424    5.6191  -23.6634 C   0  0  0  0  0  0  0  0  0  0  0  0
    3.7964    4.5135  -24.0645 C   0  0  0  0  0  0  0  0  0  0  0  0
    3.4064    3.7655  -25.1884 C   0  0  0  0  0  0  0  0  0  0  0  0
    8.5217    2.4218  -27.7252 C   0  0  0  0  0  0  0  0  0  0  0  0
    9.9247    3.0184  -27.5114 C   0  0  0  0  0  0  0  0  0  0  0  0
   10.3531    3.4037  -26.2568 C   0  0  0  0  0  0  0  0  0  0  0  0
   11.6182    3.9597  -26.0386 C   0  0  0  0  0  0  0  0  0  0  0  0
   10.7433    3.2427  -28.5998 C   0  0  0  0  0  0  0  0  0  0  0  0
   12.0075    3.8254  -28.4231 C   0  0  0  0  0  0  0  0  0  0  0  0
   12.4302    4.1912  -27.1447 C   0  0  0  0  0  0  0  0  0  0  0  0
   14.0300    4.9620  -26.9576 Cl  0  0  0  0  0  0  0  0  0  0  0  0
 35 34  1  0  0  0
 31 34  2  0  0  0
 31 30  1  0  0  0
 21 22  1  0  0  0
 34 33  1  0  0  0
 23 22  2  0  0  0
 23 24  1  0  0  0
 30 29  2  0  0  0
 22 25  1  0  0  0
  3  2  2  0  0  0
 24 27  2  0  0  0
 33 32  2  0  0  0
 29 32  1  0  0  0
 29 28  1  0  0  0
 25 26  2  0  0  0
  2  4  1  0  0  0
  2  1  1  0  0  0
  4  5  1  0  0  0
 27 26  1  0  0  0
 27 20  1  0  0  0
 28  5  1  0  0  0
  1 20  1  0  0  0
  1  7  2  0  0  0
  5  7  1  0  0  0
  5  6  1  0  0  0
  7  9  1  0  0  0
  9 10  2  0  0  0
  9 13  1  0  0  0
 10 11  1  0  0  0
 11 12  1  0  0  0
 13 18  2  0  0  0
 13 12  1  0  0  0
 18 17  1  0  0  0
 12 14  2  0  0  0
 17 15  2  0  0  0
 14 15  1  0  0  0
 15 16  1  0  0  0
  6  8  1  0  0  0
 11 19  1  0  0  0
M  END
> <minimizedAffinity>
-7.99593

$$$$
4ZGK_4NX_A_201


 35 39  0  0  0  0  0  0  0  0999 V2000
    6.1959    3.4921  -27.1670 C   0  0  0  0  0  0  0  0  0  0  0  0
    6.1867    3.4809  -28.4967 C   0  0  0  0  0  0  0  0  0  0  0  0
    6.5681    4.3869  -29.1964 O   0  0  0  0  0  0  0  0  0  0  0  0
    5.5758    2.2758  -29.0382 O   0  0  0  0  0  0  0  0  0  0  0  0
    5.1113    1.5483  -27.9147 C   0  0  0  0  0  0  0  0  0  0  0  0
    5.7174    0.2783  -27.9464 O   0  0  0  0  0  0  0  0  0  0  0  0
    5.5493    2.4096  -26.7174 C   0  0  0  0  0  0  0  0  0  0  0  0
    5.4007   -0.2118  -28.7212 H   0  0  0  0  0  0  0  0  0  0  0  0
    5.2969    2.2076  -25.2609 C   0  0  0  0  0  0  0  0  0  0  0  0
    4.3071    2.7453  -24.4330 C   0  0  0  0  0  0  0  0  0  0  0  0
    4.4734    2.2782  -23.1769 N   0  0  0  0  0  0  0  0  0  0  0  0
    5.5351    1.4562  -23.0750 C   0  0  0  0  0  0  0  0  0  0  0  0
    6.1441    1.3305  -24.4199 C   0  0  0  0  0  0  0  0  0  0  0  0
    6.1036    0.7545  -22.0262 C   0  0  0  0  0  0  0  0  0  0  0  0
    7.2179   -0.0413  -22.2757 C   0  0  0  0  0  0  0  0  0  0  0  0
    7.9536   -0.9176  -20.9121 Cl  0  0  0  0  0  0  0  0  0  0  0  0
    7.8051   -0.1629  -23.5439 C   0  0  0  0  0  0  0  0  0  0  0  0
    7.2547    0.5170  -24.6237 C   0  0  0  0  0  0  0  0  0  0  0  0
    3.8858    2.5118  -22.4222 H   0  0  0  0  0  0  0  0  0  0  0  0
    6.8698    4.5820  -26.3173 C   0  0  0  0  0  0  0  0  0  0  0  0
   11.6956    2.7074  -22.9914 Cl  0  0  0  0  0  0  0  0  0  0  0  0
   10.2524    3.2647  -23.9633 C   0  0  0  0  0  0  0  0  0  0  0  0
   10.2825    3.2049  -25.3718 C   0  0  0  0  0  0  0  0  0  0  0  0
    9.1807    3.6255  -26.1219 C   0  0  0  0  0  0  0  0  0  0  0  0
    9.1025    3.7128  -23.3217 C   0  0  0  0  0  0  0  0  0  0  0  0
    7.9979    4.1392  -24.0631 C   0  0  0  0  0  0  0  0  0  0  0  0
    8.0384    4.1094  -25.4674 C   0  0  0  0  0  0  0  0  0  0  0  0
    3.5927    1.4496  -27.9277 C   0  0  0  0  0  0  0  0  0  0  0  0
    2.9507    1.7674  -29.2903 C   0  0  0  0  0  0  0  0  0  0  0  0
    2.3791    2.9989  -29.5404 C   0  0  0  0  0  0  0  0  0  0  0  0
    1.7786    3.3076  -30.7657 C   0  0  0  0  0  0  0  0  0  0  0  0
    2.8766    0.7831  -30.2551 C   0  0  0  0  0  0  0  0  0  0  0  0
    2.2557    1.0472  -31.4854 C   0  0  0  0  0  0  0  0  0  0  0  0
    1.7000    2.3041  -31.7265 C   0  0  0  0  0  0  0  0  0  0  0  0
    0.8868    2.5976  -33.2889 Cl  0  0  0  0  0  0  0  0  0  0  0  0
 35 34  1  0  0  0
 31 34  2  0  0  0
 31 30  1  0  0  0
 21 22  1  0  0  0
 34 33  1  0  0  0
 23 22  2  0  0  0
 23 24  1  0  0  0
 30 29  2  0  0  0
 22 25  1  0  0  0
  3  2  2  0  0  0
 24 27  2  0  0  0
 33 32  2  0  0  0
 29 32  1  0  0  0
 29 28  1  0  0  0
 25 26  2  0  0  0
  2  4  1  0  0  0
  2  1  1  0  0  0
  4  5  1  0  0  0
 27 26  1  0  0  0
 27 20  1  0  0  0
 28  5  1  0  0  0
  1 20  1  0  0  0
  1  7  2  0  0  0
  5  7  1  0  0  0
  5  6  1  0  0  0
  7  9  1  0  0  0
  9 10  2  0  0  0
  9 13  1  0  0  0
 10 11  1  0  0  0
 11 12  1  0  0  0
 13 18  2  0  0  0
 13 12  1  0  0  0
 18 17  1  0  0  0
 12 14  2  0  0  0
 17 15  2  0  0  0
 14 15  1  0  0  0
 15 16  1  0  0  0
  6  8  1  0  0  0
 11 19  1  0  0  0
M  END
> <minimizedAffinity>
-7.95795

$$$$
4ZGK_4NX_A_201


 35 39  0  0  0  0  0  0  0  0999 V2000
    5.2451    3.5296  -25.9716 C   0  0  0  0  0  0  0  0  0  0  0  0
    4.9675    3.5698  -27.2715 C   0  0  0  0  0  0  0  0  0  0  0  0
    3.8556    3.6163  -27.7378 O   0  0  0  0  0  0  0  0  0  0  0  0
    6.1605    3.4611  -28.0983 O   0  0  0  0  0  0  0  0  0  0  0  0
    7.2317    3.2579  -27.1937 C   0  0  0  0  0  0  0  0  0  0  0  0
    8.1687    4.2876  -27.4011 O   0  0  0  0  0  0  0  0  0  0  0  0
    6.5560    3.3096  -25.8125 C   0  0  0  0  0  0  0  0  0  0  0  0
    8.5564    4.1986  -28.2857 H   0  0  0  0  0  0  0  0  0  0  0  0
    7.1473    3.0998  -24.4588 C   0  0  0  0  0  0  0  0  0  0  0  0
    7.7866    4.0017  -23.6032 C   0  0  0  0  0  0  0  0  0  0  0  0
    8.1613    3.3590  -22.4762 N   0  0  0  0  0  0  0  0  0  0  0  0
    7.8351    2.0527  -22.5018 C   0  0  0  0  0  0  0  0  0  0  0  0
    7.1368    1.7830  -23.7804 C   0  0  0  0  0  0  0  0  0  0  0  0
    8.0094    1.0064  -21.6128 C   0  0  0  0  0  0  0  0  0  0  0  0
    7.5206   -0.2520  -21.9518 C   0  0  0  0  0  0  0  0  0  0  0  0
    7.7750   -1.5936  -20.8099 Cl  0  0  0  0  0  0  0  0  0  0  0  0
    6.8629   -0.5189  -23.1618 C   0  0  0  0  0  0  0  0  0  0  0  0
    6.6586    0.5094  -24.0739 C   0  0  0  0  0  0  0  0  0  0  0  0
    8.6204    3.7953  -21.7224 H   0  0  0  0  0  0  0  0  0  0  0  0
    4.2025    3.7287  -24.8593 C   0  0  0  0  0  0  0  0  0  0  0  0
    3.1517    9.5217  -23.0705 Cl  0  0  0  0  0  0  0  0  0  0  0  0
    3.4797    7.8072  -23.6096 C   0  0  0  0  0  0  0  0  0  0  0  0
    2.4668    6.8305  -23.5165 C   0  0  0  0  0  0  0  0  0  0  0  0
    2.7091    5.5177  -23.9309 C   0  0  0  0  0  0  0  0  0  0  0  0
    4.7139    7.4638  -24.1513 C   0  0  0  0  0  0  0  0  0  0  0  0
    4.9666    6.1533  -24.5643 C   0  0  0  0  0  0  0  0  0  0  0  0
    3.9683    5.1719  -24.4430 C   0  0  0  0  0  0  0  0  0  0  0  0
    7.8512    1.8822  -27.3935 C   0  0  0  0  0  0  0  0  0  0  0  0
    8.4762    1.6668  -28.7838 C   0  0  0  0  0  0  0  0  0  0  0  0
    9.7505    2.1136  -29.0707 C   0  0  0  0  0  0  0  0  0  0  0  0
   10.3357    1.9412  -30.3297 C   0  0  0  0  0  0  0  0  0  0  0  0
    7.7264    1.0843  -29.7856 C   0  0  0  0  0  0  0  0  0  0  0  0
    8.2697    0.9213  -31.0689 C   0  0  0  0  0  0  0  0  0  0  0  0
    9.5664    1.3627  -31.3346 C   0  0  0  0  0  0  0  0  0  0  0  0
   10.2163    1.1719  -32.9867 Cl  0  0  0  0  0  0  0  0  0  0  0  0
 35 34  1  0  0  0
 31 34  2  0  0  0
 31 30  1  0  0  0
 21 22  1  0  0  0
 34 33  1  0  0  0
 23 22  2  0  0  0
 23 24  1  0  0  0
 30 29  2  0  0  0
 22 25  1  0  0  0
  3  2  2  0  0  0
 24 27  2  0  0  0
 33 32  2  0  0  0
 29 32  1  0  0  0
 29 28  1  0  0  0
 25 26  2  0  0  0
  2  4  1  0  0  0
  2  1  1  0  0  0
  4  5  1  0  0  0
 27 26  1  0  0  0
 27 20  1  0  0  0
 28  5  1  0  0  0
  1 20  1  0  0  0
  1  7  2  0  0  0
  5  7  1  0  0  0
  5  6  1  0  0  0
  7  9  1  0  0  0
  9 10  2  0  0  0
  9 13  1  0  0  0
 10 11  1  0  0  0
 11 12  1  0  0  0
 13 18  2  0  0  0
 13 12  1  0  0  0
 18 17  1  0  0  0
 12 14  2  0  0  0
 17 15  2  0  0  0
 14 15  1  0  0  0
 15 16  1  0  0  0
  6  8  1  0  0  0
 11 19  1  0  0  0
M  END
> <minimizedAffinity>
-7.91073

$$$$
4ZGK_4NX_A_201


 35 39  0  0  0  0  0  0  0  0999 V2000
    9.8573    3.6092  -25.6199 C   0  0  0  0  0  0  0  0  0  0  0  0
   10.2001    3.4104  -24.3505 C   0  0  0  0  0  0  0  0  0  0  0  0
   11.1963    2.8343  -23.9876 O   0  0  0  0  0  0  0  0  0  0  0  0
    9.1888    3.8898  -23.4199 O   0  0  0  0  0  0  0  0  0  0  0  0
    8.1148    4.3409  -24.2262 C   0  0  0  0  0  0  0  0  0  0  0  0
    7.8812    5.6928  -23.9114 O   0  0  0  0  0  0  0  0  0  0  0  0
    8.6215    4.1222  -25.6624 C   0  0  0  0  0  0  0  0  0  0  0  0
    7.5652    5.7618  -22.9969 H   0  0  0  0  0  0  0  0  0  0  0  0
    7.9200    4.3456  -26.9601 C   0  0  0  0  0  0  0  0  0  0  0  0
    7.2943    3.4352  -27.8168 C   0  0  0  0  0  0  0  0  0  0  0  0
    6.7943    4.0963  -28.8828 N   0  0  0  0  0  0  0  0  0  0  0  0
    7.0496    5.4174  -28.8291 C   0  0  0  0  0  0  0  0  0  0  0  0
    7.7843    5.6882  -27.5713 C   0  0  0  0  0  0  0  0  0  0  0  0
    6.7592    6.4818  -29.6647 C   0  0  0  0  0  0  0  0  0  0  0  0
    7.1638    7.7599  -29.2903 C   0  0  0  0  0  0  0  0  0  0  0  0
    6.8060    9.1153  -30.3873 Cl  0  0  0  0  0  0  0  0  0  0  0  0
    7.8644    8.0261  -28.1044 C   0  0  0  0  0  0  0  0  0  0  0  0
    8.1630    6.9843  -27.2345 C   0  0  0  0  0  0  0  0  0  0  0  0
    6.2998    3.6623  -29.6152 H   0  0  0  0  0  0  0  0  0  0  0  0
   10.7703    3.3046  -26.8189 C   0  0  0  0  0  0  0  0  0  0  0  0
   14.9333    7.6793  -27.9998 Cl  0  0  0  0  0  0  0  0  0  0  0  0
   13.7111    6.3687  -27.6446 C   0  0  0  0  0  0  0  0  0  0  0  0
   12.3658    6.5314  -28.0349 C   0  0  0  0  0  0  0  0  0  0  0  0
   11.4260    5.5313  -27.7702 C   0  0  0  0  0  0  0  0  0  0  0  0
   14.1057    5.1879  -27.0244 C   0  0  0  0  0  0  0  0  0  0  0  0
   13.1726    4.1844  -26.7520 C   0  0  0  0  0  0  0  0  0  0  0  0
   11.8257    4.3587  -27.1125 C   0  0  0  0  0  0  0  0  0  0  0  0
    6.8760    3.4863  -24.0000 C   0  0  0  0  0  0  0  0  0  0  0  0
    7.1422    2.1789  -23.2321 C   0  0  0  0  0  0  0  0  0  0  0  0
    7.2103    2.1619  -21.8533 C   0  0  0  0  0  0  0  0  0  0  0  0
    7.4633    0.9893  -21.1333 C   0  0  0  0  0  0  0  0  0  0  0  0
    7.3916    1.0158  -23.9321 C   0  0  0  0  0  0  0  0  0  0  0  0
    7.6779   -0.1734  -23.2445 C   0  0  0  0  0  0  0  0  0  0  0  0
    7.7241   -0.1746  -21.8500 C   0  0  0  0  0  0  0  0  0  0  0  0
    8.1250   -1.6962  -21.0059 Cl  0  0  0  0  0  0  0  0  0  0  0  0
 35 34  1  0  0  0
 31 34  2  0  0  0
 31 30  1  0  0  0
 21 22  1  0  0  0
 34 33  1  0  0  0
 23 22  2  0  0  0
 23 24  1  0  0  0
 30 29  2  0  0  0
 22 25  1  0  0  0
  3  2  2  0  0  0
 24 27  2  0  0  0
 33 32  2  0  0  0
 29 32  1  0  0  0
 29 28  1  0  0  0
 25 26  2  0  0  0
  2  4  1  0  0  0
  2  1  1  0  0  0
  4  5  1  0  0  0
 27 26  1  0  0  0
 27 20  1  0  0  0
 28  5  1  0  0  0
  1 20  1  0  0  0
  1  7  2  0  0  0
  5  7  1  0  0  0
  5  6  1  0  0  0
  7  9  1  0  0  0
  9 10  2  0  0  0
  9 13  1  0  0  0
 10 11  1  0  0  0
 11 12  1  0  0  0
 13 18  2  0  0  0
 13 12  1  0  0  0
 18 17  1  0  0  0
 12 14  2  0  0  0
 17 15  2  0  0  0
 14 15  1  0  0  0
 15 16  1  0  0  0
  6  8  1  0  0  0
 11 19  1  0  0  0
M  END
> <minimizedAffinity>
-7.78825

$$$$
4ZGK_4NX_A_201


 35 39  0  0  0  0  0  0  0  0999 V2000
    5.3298    2.5750  -25.6254 C   0  0  0  0  0  0  0  0  0  0  0  0
    4.1271    2.1752  -26.0277 C   0  0  0  0  0  0  0  0  0  0  0  0
    3.1936    1.9538  -25.2958 O   0  0  0  0  0  0  0  0  0  0  0  0
    4.0705    1.9407  -27.4631 O   0  0  0  0  0  0  0  0  0  0  0  0
    5.3907    2.1474  -27.9336 C   0  0  0  0  0  0  0  0  0  0  0  0
    5.3426    3.1540  -28.9163 O   0  0  0  0  0  0  0  0  0  0  0  0
    6.1669    2.5575  -26.6700 C   0  0  0  0  0  0  0  0  0  0  0  0
    4.8418    2.8338  -29.6828 H   0  0  0  0  0  0  0  0  0  0  0  0
    7.6207    2.8477  -26.5023 C   0  0  0  0  0  0  0  0  0  0  0  0
    8.6046    2.1515  -25.7942 C   0  0  0  0  0  0  0  0  0  0  0  0
    9.7862    2.7921  -25.9245 N   0  0  0  0  0  0  0  0  0  0  0  0
    9.6815    3.9081  -26.6707 C   0  0  0  0  0  0  0  0  0  0  0  0
    8.2743    4.0252  -27.1194 C   0  0  0  0  0  0  0  0  0  0  0  0
   10.5837    4.8781  -27.0717 C   0  0  0  0  0  0  0  0  0  0  0  0
   10.1363    5.9188  -27.8804 C   0  0  0  0  0  0  0  0  0  0  0  0
   11.3023    7.1728  -28.3669 Cl  0  0  0  0  0  0  0  0  0  0  0  0
    8.8053    6.0416  -28.3062 C   0  0  0  0  0  0  0  0  0  0  0  0
    7.8735    5.0802  -27.9338 C   0  0  0  0  0  0  0  0  0  0  0  0
   10.6276    2.4792  -25.5203 H   0  0  0  0  0  0  0  0  0  0  0  0
    5.6617    3.0004  -24.1857 C   0  0  0  0  0  0  0  0  0  0  0  0
    8.2400   -1.4565  -20.8165 Cl  0  0  0  0  0  0  0  0  0  0  0  0
    7.4805   -0.1205  -21.8044 C   0  0  0  0  0  0  0  0  0  0  0  0
    6.5901   -0.4341  -22.8520 C   0  0  0  0  0  0  0  0  0  0  0  0
    6.0020    0.5827  -23.6096 C   0  0  0  0  0  0  0  0  0  0  0  0
    7.7431    1.2123  -21.5054 C   0  0  0  0  0  0  0  0  0  0  0  0
    7.1633    2.2353  -22.2596 C   0  0  0  0  0  0  0  0  0  0  0  0
    6.3003    1.9232  -23.3238 C   0  0  0  0  0  0  0  0  0  0  0  0
    5.9765    0.8531  -28.4793 C   0  0  0  0  0  0  0  0  0  0  0  0
    6.9711    1.0491  -29.6378 C   0  0  0  0  0  0  0  0  0  0  0  0
    6.5567    0.9850  -30.9532 C   0  0  0  0  0  0  0  0  0  0  0  0
    7.4432    1.1472  -32.0233 C   0  0  0  0  0  0  0  0  0  0  0  0
    8.3132    1.2176  -29.3630 C   0  0  0  0  0  0  0  0  0  0  0  0
    9.2358    1.3544  -30.4113 C   0  0  0  0  0  0  0  0  0  0  0  0
    8.7951    1.3054  -31.7343 C   0  0  0  0  0  0  0  0  0  0  0  0
    9.9985    1.4481  -33.0456 Cl  0  0  0  0  0  0  0  0  0  0  0  0
 35 34  1  0  0  0
 31 34  2  0  0  0
 31 30  1  0  0  0
 21 22  1  0  0  0
 34 33  1  0  0  0
 23 22  2  0  0  0
 23 24  1  0  0  0
 30 29  2  0  0  0
 22 25  1  0  0  0
  3  2  2  0  0  0
 24 27  2  0  0  0
 33 32  2  0  0  0
 29 32  1  0  0  0
 29 28  1  0  0  0
 25 26  2  0  0  0
  2  4  1  0  0  0
  2  1  1  0  0  0
  4  5  1  0  0  0
 27 26  1  0  0  0
 27 20  1  0  0  0
 28  5  1  0  0  0
  1 20  1  0  0  0
  1  7  2  0  0  0
  5  7  1  0  0  0
  5  6  1  0  0  0
  7  9  1  0  0  0
  9 10  2  0  0  0
  9 13  1  0  0  0
 10 11  1  0  0  0
 11 12  1  0  0  0
 13 18  2  0  0  0
 13 12  1  0  0  0
 18 17  1  0  0  0
 12 14  2  0  0  0
 17 15  2  0  0  0
 14 15  1  0  0  0
 15 16  1  0  0  0
  6  8  1  0  0  0
 11 19  1  0  0  0
M  END
> <minimizedAffinity>
-7.60527

$$$$
4ZGK_4NX_A_201


 35 39  0  0  0  0  0  0  0  0999 V2000
   10.9653    3.9517  -28.5653 C   0  0  0  0  0  0  0  0  0  0  0  0
   12.1877    3.4931  -28.8176 C   0  0  0  0  0  0  0  0  0  0  0  0
   13.2071    3.9750  -28.3879 O   0  0  0  0  0  0  0  0  0  0  0  0
   12.1813    2.3800  -29.7554 O   0  0  0  0  0  0  0  0  0  0  0  0
   10.8296    2.2247  -30.1505 C   0  0  0  0  0  0  0  0  0  0  0  0
   10.4412    0.9079  -29.8402 O   0  0  0  0  0  0  0  0  0  0  0  0
   10.0863    3.2947  -29.3321 C   0  0  0  0  0  0  0  0  0  0  0  0
   10.9442    0.2849  -30.3877 H   0  0  0  0  0  0  0  0  0  0  0  0
    8.6430    3.6720  -29.3529 C   0  0  0  0  0  0  0  0  0  0  0  0
    7.9775    4.6558  -30.0900 C   0  0  0  0  0  0  0  0  0  0  0  0
    6.6637    4.6350  -29.7786 N   0  0  0  0  0  0  0  0  0  0  0  0
    6.3743    3.7023  -28.8514 C   0  0  0  0  0  0  0  0  0  0  0  0
    7.6297    2.9917  -28.5134 C   0  0  0  0  0  0  0  0  0  0  0  0
    5.2060    3.3120  -28.2203 C   0  0  0  0  0  0  0  0  0  0  0  0
    5.2555    2.2694  -27.2996 C   0  0  0  0  0  0  0  0  0  0  0  0
    3.7497    1.7958  -26.4769 Cl  0  0  0  0  0  0  0  0  0  0  0  0
    6.4396    1.5938  -26.9687 C   0  0  0  0  0  0  0  0  0  0  0  0
    7.6301    1.9496  -27.5910 C   0  0  0  0  0  0  0  0  0  0  0  0
    5.9943    5.2330  -30.1829 H   0  0  0  0  0  0  0  0  0  0  0  0
   10.6500    5.0488  -27.5352 C   0  0  0  0  0  0  0  0  0  0  0  0
    7.8977    3.0900  -22.3922 Cl  0  0  0  0  0  0  0  0  0  0  0  0
    8.6990    3.6802  -23.9243 C   0  0  0  0  0  0  0  0  0  0  0  0
    9.9495    3.1583  -24.3147 C   0  0  0  0  0  0  0  0  0  0  0  0
   10.5668    3.6020  -25.4877 C   0  0  0  0  0  0  0  0  0  0  0  0
    8.0648    4.6161  -24.7346 C   0  0  0  0  0  0  0  0  0  0  0  0
    8.6759    5.0685  -25.9066 C   0  0  0  0  0  0  0  0  0  0  0  0
    9.9362    4.5722  -26.2805 C   0  0  0  0  0  0  0  0  0  0  0  0
   10.6639    2.5278  -31.6327 C   0  0  0  0  0  0  0  0  0  0  0  0
    9.8124    1.4977  -32.3967 C   0  0  0  0  0  0  0  0  0  0  0  0
    8.4551    1.3855  -32.1713 C   0  0  0  0  0  0  0  0  0  0  0  0
    7.6621    0.4492  -32.8434 C   0  0  0  0  0  0  0  0  0  0  0  0
   10.4243    0.6191  -33.2679 C   0  0  0  0  0  0  0  0  0  0  0  0
    9.6656   -0.3525  -33.9380 C   0  0  0  0  0  0  0  0  0  0  0  0
    8.2916   -0.4382  -33.7108 C   0  0  0  0  0  0  0  0  0  0  0  0
    7.3601   -1.7078  -34.5529 Cl  0  0  0  0  0  0  0  0  0  0  0  0
 35 34  1  0  0  0
 31 34  2  0  0  0
 31 30  1  0  0  0
 21 22  1  0  0  0
 34 33  1  0  0  0
 23 22  2  0  0  0
 23 24  1  0  0  0
 30 29  2  0  0  0
 22 25  1  0  0  0
  3  2  2  0  0  0
 24 27  2  0  0  0
 33 32  2  0  0  0
 29 32  1  0  0  0
 29 28  1  0  0  0
 25 26  2  0  0  0
  2  4  1  0  0  0
  2  1  1  0  0  0
  4  5  1  0  0  0
 27 26  1  0  0  0
 27 20  1  0  0  0
 28  5  1  0  0  0
  1 20  1  0  0  0
  1  7  2  0  0  0
  5  7  1  0  0  0
  5  6  1  0  0  0
  7  9  1  0  0  0
  9 10  2  0  0  0
  9 13  1  0  0  0
 10 11  1  0  0  0
 11 12  1  0  0  0
 13 18  2  0  0  0
 13 12  1  0  0  0
 18 17  1  0  0  0
 12 14  2  0  0  0
 17 15  2  0  0  0
 14 15  1  0  0  0
 15 16  1  0  0  0
  6  8  1  0  0  0
 11 19  1  0  0  0
M  END
> <minimizedAffinity>
-7.49942

$$$$
4ZGK_4NX_A_201


 35 39  0  0  0  0  0  0  0  0999 V2000
    5.5026    3.0673  -24.3940 C   0  0  0  0  0  0  0  0  0  0  0  0
    5.3874    1.8165  -24.8305 C   0  0  0  0  0  0  0  0  0  0  0  0
    6.1625    0.9256  -24.5824 O   0  0  0  0  0  0  0  0  0  0  0  0
    4.2561    1.6435  -25.7298 O   0  0  0  0  0  0  0  0  0  0  0  0
    3.7035    2.9372  -25.8974 C   0  0  0  0  0  0  0  0  0  0  0  0
    2.3547    2.8818  -25.4990 O   0  0  0  0  0  0  0  0  0  0  0  0
    4.5762    3.8252  -24.9936 C   0  0  0  0  0  0  0  0  0  0  0  0
    1.8613    2.3088  -26.1067 H   0  0  0  0  0  0  0  0  0  0  0  0
    4.5334    5.3025  -24.7890 C   0  0  0  0  0  0  0  0  0  0  0  0
    5.3637    6.3082  -25.2924 C   0  0  0  0  0  0  0  0  0  0  0  0
    4.9421    7.5064  -24.8341 N   0  0  0  0  0  0  0  0  0  0  0  0
    3.8725    7.3946  -24.0237 C   0  0  0  0  0  0  0  0  0  0  0  0
    3.5108    5.9600  -23.9426 C   0  0  0  0  0  0  0  0  0  0  0  0
    3.1053    8.3081  -23.3219 C   0  0  0  0  0  0  0  0  0  0  0  0
    2.0266    7.8456  -22.5738 C   0  0  0  0  0  0  0  0  0  0  0  0
    1.0648    9.0292  -21.6559 Cl  0  0  0  0  0  0  0  0  0  0  0  0
    1.6791    6.4893  -22.4862 C   0  0  0  0  0  0  0  0  0  0  0  0
    2.4187    5.5442  -23.1869 C   0  0  0  0  0  0  0  0  0  0  0  0
    5.3678    8.3633  -25.0658 H   0  0  0  0  0  0  0  0  0  0  0  0
    6.5350    3.5264  -23.3513 C   0  0  0  0  0  0  0  0  0  0  0  0
   12.3562    3.6090  -25.3437 Cl  0  0  0  0  0  0  0  0  0  0  0  0
   10.6329    3.5729  -24.7382 C   0  0  0  0  0  0  0  0  0  0  0  0
    9.5938    4.1040  -25.5299 C   0  0  0  0  0  0  0  0  0  0  0  0
    8.2724    4.0762  -25.0752 C   0  0  0  0  0  0  0  0  0  0  0  0
   10.3293    2.9871  -23.5138 C   0  0  0  0  0  0  0  0  0  0  0  0
    9.0121    2.9584  -23.0491 C   0  0  0  0  0  0  0  0  0  0  0  0
    7.9801    3.5154  -23.8233 C   0  0  0  0  0  0  0  0  0  0  0  0
    3.8476    3.4013  -27.3396 C   0  0  0  0  0  0  0  0  0  0  0  0
    4.9668    2.6915  -28.1227 C   0  0  0  0  0  0  0  0  0  0  0  0
    6.2685    3.1497  -28.0814 C   0  0  0  0  0  0  0  0  0  0  0  0
    7.3006    2.5297  -28.7938 C   0  0  0  0  0  0  0  0  0  0  0  0
    4.6555    1.6237  -28.9402 C   0  0  0  0  0  0  0  0  0  0  0  0
    5.6595    0.9952  -29.6922 C   0  0  0  0  0  0  0  0  0  0  0  0
    6.9728    1.4614  -29.6229 C   0  0  0  0  0  0  0  0  0  0  0  0
    8.2210    0.6617  -30.6185 Cl  0  0  0  0  0  0  0  0  0  0  0  0
 35 34  1  0  0  0
 31 34  2  0  0  0
 31 30  1  0  0  0
 21 22  1  0  0  0
 34 33  1  0  0  0
 23 22  2  0  0  0
 23 24  1  0  0  0
 30 29  2  0  0  0
 22 25  1  0  0  0
  3  2  2  0  0  0
 24 27  2  0  0  0
 33 32  2  0  0  0
 29 32  1  0  0  0
 29 28  1  0  0  0
 25 26  2  0  0  0
  2  4  1  0  0  0
  2  1  1  0  0  0
  4  5  1  0  0  0
 27 26  1  0  0  0
 27 20  1  0  0  0
 28  5  1  0  0  0
  1 20  1  0  0  0
  1  7  2  0  0  0
  5  7  1  0  0  0
  5  6  1  0  0  0
  7  9  1  0  0  0
  9 10  2  0  0  0
  9 13  1  0  0  0
 10 11  1  0  0  0
 11 12  1  0  0  0
 13 18  2  0  0  0
 13 12  1  0  0  0
 18 17  1  0  0  0
 12 14  2  0  0  0
 17 15  2  0  0  0
 14 15  1  0  0  0
 15 16  1  0  0  0
  6  8  1  0  0  0
 11 19  1  0  0  0
M  END
> <minimizedAffinity>
-7.42636

$$$$
4ZGK_4NX_A_201


 35 39  0  0  0  0  0  0  0  0999 V2000
    3.8729    4.0540  -26.3289 C   0  0  0  0  0  0  0  0  0  0  0  0
    3.5247    4.7301  -25.2381 C   0  0  0  0  0  0  0  0  0  0  0  0
    2.9667    5.8000  -25.2390 O   0  0  0  0  0  0  0  0  0  0  0  0
    3.9713    4.0799  -24.0148 O   0  0  0  0  0  0  0  0  0  0  0  0
    4.7226    2.9549  -24.4358 C   0  0  0  0  0  0  0  0  0  0  0  0
    4.1341    1.8097  -23.8672 O   0  0  0  0  0  0  0  0  0  0  0  0
    4.6198    3.0025  -25.9701 C   0  0  0  0  0  0  0  0  0  0  0  0
    4.2325    1.8406  -22.9027 H   0  0  0  0  0  0  0  0  0  0  0  0
    5.2547    2.1192  -26.9912 C   0  0  0  0  0  0  0  0  0  0  0  0
    4.7650    0.9723  -27.6229 C   0  0  0  0  0  0  0  0  0  0  0  0
    5.6976    0.5008  -28.4782 N   0  0  0  0  0  0  0  0  0  0  0  0
    6.8205    1.2441  -28.4685 C   0  0  0  0  0  0  0  0  0  0  0  0
    6.6180    2.3620  -27.5174 C   0  0  0  0  0  0  0  0  0  0  0  0
    8.0258    1.1639  -29.1440 C   0  0  0  0  0  0  0  0  0  0  0  0
    8.9948    2.1346  -28.9071 C   0  0  0  0  0  0  0  0  0  0  0  0
   10.5496    2.0038  -29.7638 Cl  0  0  0  0  0  0  0  0  0  0  0  0
    8.8150    3.1937  -28.0049 C   0  0  0  0  0  0  0  0  0  0  0  0
    7.6133    3.3140  -27.3176 C   0  0  0  0  0  0  0  0  0  0  0  0
    5.5711   -0.2949  -29.0440 H   0  0  0  0  0  0  0  0  0  0  0  0
    3.4488    4.4390  -27.7558 C   0  0  0  0  0  0  0  0  0  0  0  0
    7.8553    6.6887  -31.4143 Cl  0  0  0  0  0  0  0  0  0  0  0  0
    6.5533    6.0314  -30.3140 C   0  0  0  0  0  0  0  0  0  0  0  0
    5.7918    4.9124  -30.7093 C   0  0  0  0  0  0  0  0  0  0  0  0
    4.7968    4.4014  -29.8711 C   0  0  0  0  0  0  0  0  0  0  0  0
    6.3320    6.6036  -29.0657 C   0  0  0  0  0  0  0  0  0  0  0  0
    5.3369    6.1024  -28.2229 C   0  0  0  0  0  0  0  0  0  0  0  0
    4.5563    5.0067  -28.6288 C   0  0  0  0  0  0  0  0  0  0  0  0
    6.1822    3.1001  -24.0301 C   0  0  0  0  0  0  0  0  0  0  0  0
    6.7542    1.8819  -23.2826 C   0  0  0  0  0  0  0  0  0  0  0  0
    7.0452    0.7079  -23.9481 C   0  0  0  0  0  0  0  0  0  0  0  0
    7.5538   -0.4167  -23.2893 C   0  0  0  0  0  0  0  0  0  0  0  0
    6.9103    1.9346  -21.9121 C   0  0  0  0  0  0  0  0  0  0  0  0
    7.3903    0.8163  -21.2137 C   0  0  0  0  0  0  0  0  0  0  0  0
    7.6965   -0.3556  -21.9065 C   0  0  0  0  0  0  0  0  0  0  0  0
    8.2724   -1.7720  -20.9845 Cl  0  0  0  0  0  0  0  0  0  0  0  0
 35 34  1  0  0  0
 31 34  2  0  0  0
 31 30  1  0  0  0
 21 22  1  0  0  0
 34 33  1  0  0  0
 23 22  2  0  0  0
 23 24  1  0  0  0
 30 29  2  0  0  0
 22 25  1  0  0  0
  3  2  2  0  0  0
 24 27  2  0  0  0
 33 32  2  0  0  0
 29 32  1  0  0  0
 29 28  1  0  0  0
 25 26  2  0  0  0
  2  4  1  0  0  0
  2  1  1  0  0  0
  4  5  1  0  0  0
 27 26  1  0  0  0
 27 20  1  0  0  0
 28  5  1  0  0  0
  1 20  1  0  0  0
  1  7  2  0  0  0
  5  7  1  0  0  0
  5  6  1  0  0  0
  7  9  1  0  0  0
  9 10  2  0  0  0
  9 13  1  0  0  0
 10 11  1  0  0  0
 11 12  1  0  0  0
 13 18  2  0  0  0
 13 12  1  0  0  0
 18 17  1  0  0  0
 12 14  2  0  0  0
 17 15  2  0  0  0
 14 15  1  0  0  0
 15 16  1  0  0  0
  6  8  1  0  0  0
 11 19  1  0  0  0
M  END
> <minimizedAffinity>
-7.31642

$$$$
