4UCC_ZKW_A_301


 22 23  0  0  0  0  0  0  0  0999 V2000
  -18.8142   15.5516  -20.6763 C   0  0  0  0  0  0  0  0  0  0  0  0
  -18.6455   14.2161  -20.9591 C   0  0  0  0  0  0  0  0  0  0  0  0
  -19.8742   13.6159  -20.7015 C   0  0  0  0  0  0  0  0  0  0  0  0
  -20.7844   14.5167  -20.2862 N   0  0  0  0  0  0  0  0  0  0  0  0
  -20.1092   15.7046  -20.2766 N   0  0  0  0  0  0  0  0  0  0  0  0
  -16.6725   16.4122  -20.1514 O   0  0  0  0  0  0  0  0  0  0  0  0
  -17.7414   16.6385  -20.7743 C   0  0  0  0  0  0  0  0  0  0  0  0
  -17.9725   17.6585  -21.4738 O   0  0  0  0  0  0  0  0  0  0  0  0
  -16.5793   15.6255  -19.6511 H   0  0  0  0  0  0  0  0  0  0  0  0
  -20.1920   12.1159  -20.8247 C   0  0  0  0  0  0  0  0  0  0  0  0
  -19.3800   11.4074  -21.4663 O   0  0  0  0  0  0  0  0  0  0  0  0
  -21.2453   11.7104  -20.2768 O   0  0  0  0  0  0  0  0  0  0  0  0
  -18.6155   11.7960  -21.8437 H   0  0  0  0  0  0  0  0  0  0  0  0
  -20.8471   16.9164  -19.9084 C   0  0  0  0  0  0  0  0  0  0  0  0
  -20.6965   17.3140  -18.4574 C   0  0  0  0  0  0  0  0  0  0  0  0
  -19.4420   17.3654  -17.8441 C   0  0  0  0  0  0  0  0  0  0  0  0
  -21.7957   17.6425  -17.6722 C   0  0  0  0  0  0  0  0  0  0  0  0
  -23.3778   17.6735  -18.3783 Cl  0  0  0  0  0  0  0  0  0  0  0  0
  -21.6814   17.9801  -16.3414 C   0  0  0  0  0  0  0  0  0  0  0  0
  -20.4192   18.0347  -15.7835 C   0  0  0  0  0  0  0  0  0  0  0  0
  -20.2457   18.5368  -14.1232 Cl  0  0  0  0  0  0  0  0  0  0  0  0
  -19.2961   17.7358  -16.5196 C   0  0  0  0  0  0  0  0  0  0  0  0
  6  7  1  0  0  0
  7  8  2  0  0  0
  7  1  1  0  0  0
  1  2  2  0  0  0
  1  5  1  0  0  0
  2  3  1  0  0  0
  3 10  1  0  0  0
  3  4  2  0  0  0
 10 11  1  0  0  0
 10 12  2  0  0  0
  4  5  1  0  0  0
  5 14  1  0  0  0
 14 15  1  0  0  0
 15 16  1  0  0  0
 15 17  2  0  0  0
 16 22  2  0  0  0
 17 18  1  0  0  0
 17 19  1  0  0  0
 19 20  2  0  0  0
 20 21  1  0  0  0
 20 22  1  0  0  0
  6  9  1  0  0  0
 11 13  1  0  0  0
M  END
> <minimizedAffinity>
-6.95090

$$$$
4UCC_ZKW_A_301


 22 23  0  0  0  0  0  0  0  0999 V2000
  -21.1118    9.1782  -21.4711 C   0  0  0  0  0  0  0  0  0  0  0  0
  -21.6075    8.5075  -20.3774 C   0  0  0  0  0  0  0  0  0  0  0  0
  -22.0997    9.4886  -19.5221 C   0  0  0  0  0  0  0  0  0  0  0  0
  -21.9386   10.7202  -20.0416 N   0  0  0  0  0  0  0  0  0  0  0  0
  -21.3260   10.5058  -21.2441 N   0  0  0  0  0  0  0  0  0  0  0  0
  -19.2503    8.1560  -22.5168 O   0  0  0  0  0  0  0  0  0  0  0  0
  -20.4339    8.5450  -22.6883 C   0  0  0  0  0  0  0  0  0  0  0  0
  -21.0889    8.4295  -23.7564 O   0  0  0  0  0  0  0  0  0  0  0  0
  -18.8320    8.2799  -21.6875 H   0  0  0  0  0  0  0  0  0  0  0  0
  -22.7230    9.2510  -18.1360 C   0  0  0  0  0  0  0  0  0  0  0  0
  -22.0496    9.5972  -17.1362 O   0  0  0  0  0  0  0  0  0  0  0  0
  -23.8606    8.7228  -18.1065 O   0  0  0  0  0  0  0  0  0  0  0  0
  -21.2051    9.9863  -17.2521 H   0  0  0  0  0  0  0  0  0  0  0  0
  -21.0489   11.6664  -22.0955 C   0  0  0  0  0  0  0  0  0  0  0  0
  -20.6760   12.9171  -21.3320 C   0  0  0  0  0  0  0  0  0  0  0  0
  -19.3583   13.1619  -20.9368 C   0  0  0  0  0  0  0  0  0  0  0  0
  -21.6247   13.8738  -20.9892 C   0  0  0  0  0  0  0  0  0  0  0  0
  -23.2671   13.6792  -21.5060 Cl  0  0  0  0  0  0  0  0  0  0  0  0
  -21.3093   15.0057  -20.2700 C   0  0  0  0  0  0  0  0  0  0  0  0
  -19.9904   15.2135  -19.9169 C   0  0  0  0  0  0  0  0  0  0  0  0
  -19.5570   16.6778  -19.0762 Cl  0  0  0  0  0  0  0  0  0  0  0  0
  -19.0087   14.3074  -20.2453 C   0  0  0  0  0  0  0  0  0  0  0  0
  6  7  1  0  0  0
  7  8  2  0  0  0
  7  1  1  0  0  0
  1  2  2  0  0  0
  1  5  1  0  0  0
  2  3  1  0  0  0
  3 10  1  0  0  0
  3  4  2  0  0  0
 10 11  1  0  0  0
 10 12  2  0  0  0
  4  5  1  0  0  0
  5 14  1  0  0  0
 14 15  1  0  0  0
 15 16  1  0  0  0
 15 17  2  0  0  0
 16 22  2  0  0  0
 17 18  1  0  0  0
 17 19  1  0  0  0
 19 20  2  0  0  0
 20 21  1  0  0  0
 20 22  1  0  0  0
  6  9  1  0  0  0
 11 13  1  0  0  0
M  END
> <minimizedAffinity>
-6.55921

$$$$
4UCC_ZKW_A_301


 22 23  0  0  0  0  0  0  0  0999 V2000
  -21.1172   17.1859  -20.0594 C   0  0  0  0  0  0  0  0  0  0  0  0
  -19.7868   17.4605  -20.2748 C   0  0  0  0  0  0  0  0  0  0  0  0
  -19.1619   16.2247  -20.4115 C   0  0  0  0  0  0  0  0  0  0  0  0
  -20.0429   15.2128  -20.3003 N   0  0  0  0  0  0  0  0  0  0  0  0
  -21.2434   15.8281  -20.0822 N   0  0  0  0  0  0  0  0  0  0  0  0
  -22.6295   18.8321  -20.8378 O   0  0  0  0  0  0  0  0  0  0  0  0
  -22.2248   18.2144  -19.8199 C   0  0  0  0  0  0  0  0  0  0  0  0
  -22.6738   18.3628  -18.6539 O   0  0  0  0  0  0  0  0  0  0  0  0
  -22.2410   18.6633  -21.6736 H   0  0  0  0  0  0  0  0  0  0  0  0
  -17.6568   15.9906  -20.6263 C   0  0  0  0  0  0  0  0  0  0  0  0
  -16.8656   16.7799  -20.0571 O   0  0  0  0  0  0  0  0  0  0  0  0
  -17.3298   15.0274  -21.3607 O   0  0  0  0  0  0  0  0  0  0  0  0
  -17.1994   17.4747  -19.5244 H   0  0  0  0  0  0  0  0  0  0  0  0
  -22.4390   14.9885  -19.9625 C   0  0  0  0  0  0  0  0  0  0  0  0
  -23.0855   14.6428  -21.2849 C   0  0  0  0  0  0  0  0  0  0  0  0
  -23.9649   15.5258  -21.9171 C   0  0  0  0  0  0  0  0  0  0  0  0
  -22.8360   13.4349  -21.9263 C   0  0  0  0  0  0  0  0  0  0  0  0
  -21.7015   12.3174  -21.2433 Cl  0  0  0  0  0  0  0  0  0  0  0  0
  -23.4368   13.0904  -23.1172 C   0  0  0  0  0  0  0  0  0  0  0  0
  -24.2849   14.0028  -23.7135 C   0  0  0  0  0  0  0  0  0  0  0  0
  -24.9932   13.6196  -25.2595 Cl  0  0  0  0  0  0  0  0  0  0  0  0
  -24.5536   15.2196  -23.1305 C   0  0  0  0  0  0  0  0  0  0  0  0
  6  7  1  0  0  0
  7  8  2  0  0  0
  7  1  1  0  0  0
  1  2  2  0  0  0
  1  5  1  0  0  0
  2  3  1  0  0  0
  3 10  1  0  0  0
  3  4  2  0  0  0
 10 11  1  0  0  0
 10 12  2  0  0  0
  4  5  1  0  0  0
  5 14  1  0  0  0
 14 15  1  0  0  0
 15 16  1  0  0  0
 15 17  2  0  0  0
 16 22  2  0  0  0
 17 18  1  0  0  0
 17 19  1  0  0  0
 19 20  2  0  0  0
 20 21  1  0  0  0
 20 22  1  0  0  0
  6  9  1  0  0  0
 11 13  1  0  0  0
M  END
> <minimizedAffinity>
-6.21192

$$$$
4UCC_ZKW_A_301


 22 23  0  0  0  0  0  0  0  0999 V2000
  -18.3808   15.3954  -20.5475 C   0  0  0  0  0  0  0  0  0  0  0  0
  -18.6281   14.1804  -21.1430 C   0  0  0  0  0  0  0  0  0  0  0  0
  -19.7912   13.6977  -20.5509 C   0  0  0  0  0  0  0  0  0  0  0  0
  -20.2703   14.5587  -19.6336 N   0  0  0  0  0  0  0  0  0  0  0  0
  -19.3843   15.5990  -19.6465 N   0  0  0  0  0  0  0  0  0  0  0  0
  -16.9394   17.1758  -19.9514 O   0  0  0  0  0  0  0  0  0  0  0  0
  -17.1937   16.3174  -20.8347 C   0  0  0  0  0  0  0  0  0  0  0  0
  -16.5408   16.1535  -21.8977 O   0  0  0  0  0  0  0  0  0  0  0  0
  -17.4764   17.2335  -19.1857 H   0  0  0  0  0  0  0  0  0  0  0  0
  -20.4624   12.3453  -20.8454 C   0  0  0  0  0  0  0  0  0  0  0  0
  -19.7488   11.4487  -21.3553 O   0  0  0  0  0  0  0  0  0  0  0  0
  -21.6788   12.2389  -20.5574 O   0  0  0  0  0  0  0  0  0  0  0  0
  -18.8452   11.6163  -21.5377 H   0  0  0  0  0  0  0  0  0  0  0  0
  -19.6528   16.7468  -18.7752 C   0  0  0  0  0  0  0  0  0  0  0  0
  -20.9325   17.4832  -19.1011 C   0  0  0  0  0  0  0  0  0  0  0  0
  -21.3263   17.7066  -20.4231 C   0  0  0  0  0  0  0  0  0  0  0  0
  -21.7692   17.9705  -18.1035 C   0  0  0  0  0  0  0  0  0  0  0  0
  -21.3883   17.6706  -16.4399 Cl  0  0  0  0  0  0  0  0  0  0  0  0
  -22.9245   18.6679  -18.3805 C   0  0  0  0  0  0  0  0  0  0  0  0
  -23.2821   18.8486  -19.7022 C   0  0  0  0  0  0  0  0  0  0  0  0
  -24.7803   19.6586  -20.0735 Cl  0  0  0  0  0  0  0  0  0  0  0  0
  -22.4993   18.3724  -20.7284 C   0  0  0  0  0  0  0  0  0  0  0  0
  6  7  1  0  0  0
  7  8  2  0  0  0
  7  1  1  0  0  0
  1  2  2  0  0  0
  1  5  1  0  0  0
  2  3  1  0  0  0
  3 10  1  0  0  0
  3  4  2  0  0  0
 10 11  1  0  0  0
 10 12  2  0  0  0
  4  5  1  0  0  0
  5 14  1  0  0  0
 14 15  1  0  0  0
 15 16  1  0  0  0
 15 17  2  0  0  0
 16 22  2  0  0  0
 17 18  1  0  0  0
 17 19  1  0  0  0
 19 20  2  0  0  0
 20 21  1  0  0  0
 20 22  1  0  0  0
  6  9  1  0  0  0
 11 13  1  0  0  0
M  END
> <minimizedAffinity>
-6.10317

$$$$
4UCC_ZKW_A_301


 22 23  0  0  0  0  0  0  0  0999 V2000
  -22.7234   10.6062  -21.8900 C   0  0  0  0  0  0  0  0  0  0  0  0
  -23.1346    9.6380  -21.0039 C   0  0  0  0  0  0  0  0  0  0  0  0
  -22.2506    9.7056  -19.9314 C   0  0  0  0  0  0  0  0  0  0  0  0
  -21.3290   10.6700  -20.1133 N   0  0  0  0  0  0  0  0  0  0  0  0
  -21.6383   11.2126  -21.3286 N   0  0  0  0  0  0  0  0  0  0  0  0
  -23.3771    9.9669  -24.0734 O   0  0  0  0  0  0  0  0  0  0  0  0
  -23.3569   10.9158  -23.2482 C   0  0  0  0  0  0  0  0  0  0  0  0
  -23.8317   12.0635  -23.4493 O   0  0  0  0  0  0  0  0  0  0  0  0
  -23.0004    9.1398  -23.8455 H   0  0  0  0  0  0  0  0  0  0  0  0
  -22.2604    8.7946  -18.6919 C   0  0  0  0  0  0  0  0  0  0  0  0
  -21.8483    9.2864  -17.6142 O   0  0  0  0  0  0  0  0  0  0  0  0
  -22.6766    7.6218  -18.8508 O   0  0  0  0  0  0  0  0  0  0  0  0
  -21.5546   10.1757  -17.5871 H   0  0  0  0  0  0  0  0  0  0  0  0
  -20.8355   12.3423  -21.8059 C   0  0  0  0  0  0  0  0  0  0  0  0
  -21.0411   13.6199  -21.0238 C   0  0  0  0  0  0  0  0  0  0  0  0
  -22.3149   14.1655  -20.8444 C   0  0  0  0  0  0  0  0  0  0  0  0
  -19.9754   14.3063  -20.4528 C   0  0  0  0  0  0  0  0  0  0  0  0
  -18.3735   13.6560  -20.5683 Cl  0  0  0  0  0  0  0  0  0  0  0  0
  -20.1395   15.4861  -19.7606 C   0  0  0  0  0  0  0  0  0  0  0  0
  -21.4194   15.9775  -19.5939 C   0  0  0  0  0  0  0  0  0  0  0  0
  -21.6570   17.4260  -18.6537 Cl  0  0  0  0  0  0  0  0  0  0  0  0
  -22.5112   15.3293  -20.1235 C   0  0  0  0  0  0  0  0  0  0  0  0
  6  7  1  0  0  0
  7  8  2  0  0  0
  7  1  1  0  0  0
  1  2  2  0  0  0
  1  5  1  0  0  0
  2  3  1  0  0  0
  3 10  1  0  0  0
  3  4  2  0  0  0
 10 11  1  0  0  0
 10 12  2  0  0  0
  4  5  1  0  0  0
  5 14  1  0  0  0
 14 15  1  0  0  0
 15 16  1  0  0  0
 15 17  2  0  0  0
 16 22  2  0  0  0
 17 18  1  0  0  0
 17 19  1  0  0  0
 19 20  2  0  0  0
 20 21  1  0  0  0
 20 22  1  0  0  0
  6  9  1  0  0  0
 11 13  1  0  0  0
M  END
> <minimizedAffinity>
-6.08268

$$$$
4UCC_ZKW_A_301


 22 23  0  0  0  0  0  0  0  0999 V2000
  -20.1837   10.0691  -22.1301 C   0  0  0  0  0  0  0  0  0  0  0  0
  -19.7814   11.3831  -22.1870 C   0  0  0  0  0  0  0  0  0  0  0  0
  -20.4590   12.0320  -21.1594 C   0  0  0  0  0  0  0  0  0  0  0  0
  -21.2450   11.1806  -20.4739 N   0  0  0  0  0  0  0  0  0  0  0  0
  -21.0610    9.9750  -21.0901 N   0  0  0  0  0  0  0  0  0  0  0  0
  -18.8677    8.1633  -22.6196 O   0  0  0  0  0  0  0  0  0  0  0  0
  -19.7411    8.9470  -23.0719 C   0  0  0  0  0  0  0  0  0  0  0  0
  -20.2791    8.8586  -24.2060 O   0  0  0  0  0  0  0  0  0  0  0  0
  -18.5159    8.2988  -21.7617 H   0  0  0  0  0  0  0  0  0  0  0  0
  -20.3823   13.5329  -20.8311 C   0  0  0  0  0  0  0  0  0  0  0  0
  -19.3194   14.1312  -21.1231 O   0  0  0  0  0  0  0  0  0  0  0  0
  -21.3894   14.0493  -20.2898 O   0  0  0  0  0  0  0  0  0  0  0  0
  -18.6149   13.6643  -21.5276 H   0  0  0  0  0  0  0  0  0  0  0  0
  -21.7549    8.8056  -20.5426 C   0  0  0  0  0  0  0  0  0  0  0  0
  -23.1537    8.6092  -21.0820 C   0  0  0  0  0  0  0  0  0  0  0  0
  -23.4112    8.6182  -22.4554 C   0  0  0  0  0  0  0  0  0  0  0  0
  -24.2412    8.4140  -20.2382 C   0  0  0  0  0  0  0  0  0  0  0  0
  -23.9939    8.3170  -18.5259 Cl  0  0  0  0  0  0  0  0  0  0  0  0
  -25.5267    8.2611  -20.7095 C   0  0  0  0  0  0  0  0  0  0  0  0
  -25.7298    8.2591  -22.0756 C   0  0  0  0  0  0  0  0  0  0  0  0
  -27.3366    7.9877  -22.6948 Cl  0  0  0  0  0  0  0  0  0  0  0  0
  -24.6868    8.4313  -22.9560 C   0  0  0  0  0  0  0  0  0  0  0  0
  6  7  1  0  0  0
  7  8  2  0  0  0
  7  1  1  0  0  0
  1  2  2  0  0  0
  1  5  1  0  0  0
  2  3  1  0  0  0
  3 10  1  0  0  0
  3  4  2  0  0  0
 10 11  1  0  0  0
 10 12  2  0  0  0
  4  5  1  0  0  0
  5 14  1  0  0  0
 14 15  1  0  0  0
 15 16  1  0  0  0
 15 17  2  0  0  0
 16 22  2  0  0  0
 17 18  1  0  0  0
 17 19  1  0  0  0
 19 20  2  0  0  0
 20 21  1  0  0  0
 20 22  1  0  0  0
  6  9  1  0  0  0
 11 13  1  0  0  0
M  END
> <minimizedAffinity>
-5.94401

$$$$
4UCC_ZKW_A_301


 22 23  0  0  0  0  0  0  0  0999 V2000
  -20.2959   10.2627  -22.3855 C   0  0  0  0  0  0  0  0  0  0  0  0
  -19.6160   11.3872  -21.9791 C   0  0  0  0  0  0  0  0  0  0  0  0
  -20.5753   12.2325  -21.4299 C   0  0  0  0  0  0  0  0  0  0  0  0
  -21.8014   11.6781  -21.4717 N   0  0  0  0  0  0  0  0  0  0  0  0
  -21.6066   10.4633  -22.0663 N   0  0  0  0  0  0  0  0  0  0  0  0
  -19.4939    8.0359  -22.3505 O   0  0  0  0  0  0  0  0  0  0  0  0
  -19.6889    9.0416  -23.0800 C   0  0  0  0  0  0  0  0  0  0  0  0
  -19.4486    9.1018  -24.3137 O   0  0  0  0  0  0  0  0  0  0  0  0
  -19.7001    8.0726  -21.4372 H   0  0  0  0  0  0  0  0  0  0  0  0
  -20.3240   13.6422  -20.8680 C   0  0  0  0  0  0  0  0  0  0  0  0
  -19.2137   14.1701  -21.1161 O   0  0  0  0  0  0  0  0  0  0  0  0
  -21.2487   14.1606  -20.1970 O   0  0  0  0  0  0  0  0  0  0  0  0
  -18.5793   13.7082  -21.6280 H   0  0  0  0  0  0  0  0  0  0  0  0
  -22.7627    9.5755  -22.2203 C   0  0  0  0  0  0  0  0  0  0  0  0
  -23.3386    9.0794  -20.9132 C   0  0  0  0  0  0  0  0  0  0  0  0
  -22.5650    8.3461  -20.0097 C   0  0  0  0  0  0  0  0  0  0  0  0
  -24.6587    9.3284  -20.5554 C   0  0  0  0  0  0  0  0  0  0  0  0
  -25.6618   10.2928  -21.5879 Cl  0  0  0  0  0  0  0  0  0  0  0  0
  -25.2092    8.8611  -19.3821 C   0  0  0  0  0  0  0  0  0  0  0  0
  -24.4008    8.1561  -18.5121 C   0  0  0  0  0  0  0  0  0  0  0  0
  -25.0555    7.6246  -16.9864 Cl  0  0  0  0  0  0  0  0  0  0  0  0
  -23.0829    7.8960  -18.8089 C   0  0  0  0  0  0  0  0  0  0  0  0
  6  7  1  0  0  0
  7  8  2  0  0  0
  7  1  1  0  0  0
  1  2  2  0  0  0
  1  5  1  0  0  0
  2  3  1  0  0  0
  3 10  1  0  0  0
  3  4  2  0  0  0
 10 11  1  0  0  0
 10 12  2  0  0  0
  4  5  1  0  0  0
  5 14  1  0  0  0
 14 15  1  0  0  0
 15 16  1  0  0  0
 15 17  2  0  0  0
 16 22  2  0  0  0
 17 18  1  0  0  0
 17 19  1  0  0  0
 19 20  2  0  0  0
 20 21  1  0  0  0
 20 22  1  0  0  0
  6  9  1  0  0  0
 11 13  1  0  0  0
M  END
> <minimizedAffinity>
-5.86922

$$$$
4UCC_ZKW_A_301


 22 23  0  0  0  0  0  0  0  0999 V2000
  -21.2449   17.1596  -20.0516 C   0  0  0  0  0  0  0  0  0  0  0  0
  -19.8928   17.3362  -20.2317 C   0  0  0  0  0  0  0  0  0  0  0  0
  -19.3547   16.0575  -20.3409 C   0  0  0  0  0  0  0  0  0  0  0  0
  -20.3088   15.1125  -20.2465 N   0  0  0  0  0  0  0  0  0  0  0  0
  -21.4676   15.8141  -20.0671 N   0  0  0  0  0  0  0  0  0  0  0  0
  -22.6736   18.4450  -18.6697 O   0  0  0  0  0  0  0  0  0  0  0  0
  -22.2820   18.2670  -19.8515 C   0  0  0  0  0  0  0  0  0  0  0  0
  -22.6562   18.9360  -20.8493 O   0  0  0  0  0  0  0  0  0  0  0  0
  -22.3453   17.9018  -17.9805 H   0  0  0  0  0  0  0  0  0  0  0  0
  -17.8649   15.7143  -20.5114 C   0  0  0  0  0  0  0  0  0  0  0  0
  -17.5862   14.6036  -21.0231 O   0  0  0  0  0  0  0  0  0  0  0  0
  -17.0353   16.5706  -20.1211 O   0  0  0  0  0  0  0  0  0  0  0  0
  -18.2733   14.0237  -21.2869 H   0  0  0  0  0  0  0  0  0  0  0  0
  -22.7231   15.0634  -19.9744 C   0  0  0  0  0  0  0  0  0  0  0  0
  -23.3252   14.6997  -21.3129 C   0  0  0  0  0  0  0  0  0  0  0  0
  -22.8096   13.6528  -22.0816 C   0  0  0  0  0  0  0  0  0  0  0  0
  -24.4126   15.3897  -21.8364 C   0  0  0  0  0  0  0  0  0  0  0  0
  -25.1550   16.6530  -20.9116 Cl  0  0  0  0  0  0  0  0  0  0  0  0
  -24.9572   15.0912  -23.0662 C   0  0  0  0  0  0  0  0  0  0  0  0
  -24.4254   14.0366  -23.7819 C   0  0  0  0  0  0  0  0  0  0  0  0
  -25.1503   13.5916  -25.3034 Cl  0  0  0  0  0  0  0  0  0  0  0  0
  -23.3602   13.3095  -23.3029 C   0  0  0  0  0  0  0  0  0  0  0  0
  6  7  1  0  0  0
  7  8  2  0  0  0
  7  1  1  0  0  0
  1  2  2  0  0  0
  1  5  1  0  0  0
  2  3  1  0  0  0
  3 10  1  0  0  0
  3  4  2  0  0  0
 10 11  1  0  0  0
 10 12  2  0  0  0
  4  5  1  0  0  0
  5 14  1  0  0  0
 14 15  1  0  0  0
 15 16  1  0  0  0
 15 17  2  0  0  0
 16 22  2  0  0  0
 17 18  1  0  0  0
 17 19  1  0  0  0
 19 20  2  0  0  0
 20 21  1  0  0  0
 20 22  1  0  0  0
  6  9  1  0  0  0
 11 13  1  0  0  0
M  END
> <minimizedAffinity>
-5.79934

$$$$
4UCC_ZKW_A_301


 22 23  0  0  0  0  0  0  0  0999 V2000
  -21.3269   15.5882  -19.9227 C   0  0  0  0  0  0  0  0  0  0  0  0
  -20.1021   15.0030  -20.1449 C   0  0  0  0  0  0  0  0  0  0  0  0
  -19.2086   16.0532  -20.3323 C   0  0  0  0  0  0  0  0  0  0  0  0
  -19.8227   17.2465  -20.2263 N   0  0  0  0  0  0  0  0  0  0  0  0
  -21.1295   16.9367  -19.9745 N   0  0  0  0  0  0  0  0  0  0  0  0
  -23.0219   14.7667  -18.4891 O   0  0  0  0  0  0  0  0  0  0  0  0
  -22.6492   14.8548  -19.6870 C   0  0  0  0  0  0  0  0  0  0  0  0
  -23.2848   14.4148  -20.6798 O   0  0  0  0  0  0  0  0  0  0  0  0
  -22.4887   15.1216  -17.8052 H   0  0  0  0  0  0  0  0  0  0  0  0
  -17.7110   15.9199  -20.6572 C   0  0  0  0  0  0  0  0  0  0  0  0
  -16.9308   16.7406  -20.1178 O   0  0  0  0  0  0  0  0  0  0  0  0
  -17.3788   15.0006  -21.4436 O   0  0  0  0  0  0  0  0  0  0  0  0
  -17.2677   17.3976  -19.5409 H   0  0  0  0  0  0  0  0  0  0  0  0
  -22.0716   18.0382  -19.7561 C   0  0  0  0  0  0  0  0  0  0  0  0
  -22.2520   18.4173  -18.3035 C   0  0  0  0  0  0  0  0  0  0  0  0
  -21.3934   17.9322  -17.3135 C   0  0  0  0  0  0  0  0  0  0  0  0
  -23.2777   19.2600  -17.8905 C   0  0  0  0  0  0  0  0  0  0  0  0
  -24.3399   19.9612  -19.0663 Cl  0  0  0  0  0  0  0  0  0  0  0  0
  -23.4751   19.5944  -16.5687 C   0  0  0  0  0  0  0  0  0  0  0  0
  -22.5902   19.1052  -15.6279 C   0  0  0  0  0  0  0  0  0  0  0  0
  -22.7745   19.5802  -13.9609 Cl  0  0  0  0  0  0  0  0  0  0  0  0
  -21.5478   18.2811  -15.9841 C   0  0  0  0  0  0  0  0  0  0  0  0
  6  7  1  0  0  0
  7  8  2  0  0  0
  7  1  1  0  0  0
  1  2  2  0  0  0
  1  5  1  0  0  0
  2  3  1  0  0  0
  3 10  1  0  0  0
  3  4  2  0  0  0
 10 11  1  0  0  0
 10 12  2  0  0  0
  4  5  1  0  0  0
  5 14  1  0  0  0
 14 15  1  0  0  0
 15 16  1  0  0  0
 15 17  2  0  0  0
 16 22  2  0  0  0
 17 18  1  0  0  0
 17 19  1  0  0  0
 19 20  2  0  0  0
 20 21  1  0  0  0
 20 22  1  0  0  0
  6  9  1  0  0  0
 11 13  1  0  0  0
M  END
> <minimizedAffinity>
-5.77907

$$$$
4UCC_ZKW_A_301


 22 23  0  0  0  0  0  0  0  0999 V2000
  -21.8582   18.1111  -19.8118 C   0  0  0  0  0  0  0  0  0  0  0  0
  -20.8223   17.9506  -20.7022 C   0  0  0  0  0  0  0  0  0  0  0  0
  -19.8062   17.3187  -19.9918 C   0  0  0  0  0  0  0  0  0  0  0  0
  -20.1724   17.0773  -18.7190 N   0  0  0  0  0  0  0  0  0  0  0  0
  -21.4417   17.5753  -18.6287 N   0  0  0  0  0  0  0  0  0  0  0  0
  -23.4930   19.7656  -19.3722 O   0  0  0  0  0  0  0  0  0  0  0  0
  -23.2025   18.7828  -20.1011 C   0  0  0  0  0  0  0  0  0  0  0  0
  -23.9114   18.3420  -21.0426 O   0  0  0  0  0  0  0  0  0  0  0  0
  -22.9088   20.0316  -18.6896 H   0  0  0  0  0  0  0  0  0  0  0  0
  -18.4138   16.9546  -20.5348 C   0  0  0  0  0  0  0  0  0  0  0  0
  -17.9626   17.6531  -21.4737 O   0  0  0  0  0  0  0  0  0  0  0  0
  -17.8315   15.9802  -20.0004 O   0  0  0  0  0  0  0  0  0  0  0  0
  -18.4684   18.3652  -21.8128 H   0  0  0  0  0  0  0  0  0  0  0  0
  -22.1551   17.4239  -17.3572 C   0  0  0  0  0  0  0  0  0  0  0  0
  -21.7508   18.4258  -16.2994 C   0  0  0  0  0  0  0  0  0  0  0  0
  -20.4211   18.5538  -15.8896 C   0  0  0  0  0  0  0  0  0  0  0  0
  -22.6814   19.2589  -15.6889 C   0  0  0  0  0  0  0  0  0  0  0  0
  -24.3384   19.2123  -16.1937 Cl  0  0  0  0  0  0  0  0  0  0  0  0
  -22.3369   20.1582  -14.7037 C   0  0  0  0  0  0  0  0  0  0  0  0
  -21.0074   20.2618  -14.3443 C   0  0  0  0  0  0  0  0  0  0  0  0
  -20.5388   21.4490  -13.1570 Cl  0  0  0  0  0  0  0  0  0  0  0  0
  -20.0431   19.4735  -14.9284 C   0  0  0  0  0  0  0  0  0  0  0  0
  6  7  1  0  0  0
  7  8  2  0  0  0
  7  1  1  0  0  0
  1  2  2  0  0  0
  1  5  1  0  0  0
  2  3  1  0  0  0
  3 10  1  0  0  0
  3  4  2  0  0  0
 10 11  1  0  0  0
 10 12  2  0  0  0
  4  5  1  0  0  0
  5 14  1  0  0  0
 14 15  1  0  0  0
 15 16  1  0  0  0
 15 17  2  0  0  0
 16 22  2  0  0  0
 17 18  1  0  0  0
 17 19  1  0  0  0
 19 20  2  0  0  0
 20 21  1  0  0  0
 20 22  1  0  0  0
  6  9  1  0  0  0
 11 13  1  0  0  0
M  END
> <minimizedAffinity>
-5.77312

$$$$
