3DJQ_UDP_A_125
  RCSB PDB12061708203D
Coordinates from PDB:3DJQ:A:125 Model:1 without hydrogens
 25 26  0  0  0  0            999 V2000
   29.7440   39.5150    6.6750   N 0  0  0  0  0  0  0  0  0  0  0  0
   29.5600   38.5460    5.7010   C 0  0  0  0  0  0  0  0  0  0  0  0
   29.4210   38.9070    4.3720   N 0  0  0  0  0  0  0  0  0  0  0  0
   29.4610   40.2310    3.9890   C 0  0  0  0  0  0  0  0  0  0  0  0
   29.6350   41.2120    4.9650   C 0  0  0  0  0  0  0  0  0  0  0  0
   29.7110   40.8400    6.3090   C 0  0  0  0  0  0  0  0  0  0  0  0
   29.5330   37.3600    6.0100   O 0  0  0  0  0  0  0  0  0  0  0  0
   29.3350   40.5240    2.7970   O 0  0  0  0  0  0  0  0  0  0  0  0
   29.8760   39.1140    8.1010   C 0  0  0  0  0  0  0  0  0  0  0  0
   31.3200   38.8960    8.5430   C 0  0  0  0  0  0  0  0  0  0  0  0
   31.4590   37.5900    9.0710   O 0  0  0  0  0  0  0  0  0  0  0  0
   31.5760   39.9600    9.5980   C 0  0  0  0  0  0  0  0  0  0  0  0
   30.2050   40.5130    9.9520   C 0  0  0  0  0  0  0  0  0  0  0  0
   29.3050   40.1040    8.9350   O 0  0  0  0  0  0  0  0  0  0  0  0
   32.1860   39.4280   10.7510   O 0  0  0  0  0  0  0  0  0  0  0  0
   30.2340   42.0330   10.1230   C 0  0  0  0  0  0  0  0  0  0  0  0
   29.6140   42.7130    9.0500   O 0  0  0  0  0  0  0  0  0  0  0  0
   30.2710   44.0450    8.4120   P 0  0  0  0  0  0  0  0  0  0  0  0
   30.1030   44.0570    6.9400   O 0  0  0  0  0  0  0  0  0  0  0  0
   31.7130   44.1540    8.7480   O 0  0  0  0  0  0  0  0  0  0  0  0
   29.4130   45.2640    9.0200   O 0  0  0  0  0  0  0  0  0  0  0  0
   29.4210   45.6410   10.5870   P 0  0  0  0  0  0  0  0  0  0  0  0
   28.5390   44.6880   11.3020   O 0  0  0  0  0  0  0  0  0  0  0  0
   28.8940   47.0180   10.7320   O 0  0  0  0  0  0  0  0  0  0  0  0
   30.7910   45.5620   11.1420   O 0  0  0  0  0  0  0  0  0  0  0  0
  1  2  1  0  0  0  0
  1  6  1  0  0  0  0
  1  9  1  0  0  0  0
  2  3  1  0  0  0  0
  2  7  2  0  0  0  0
  3  4  1  0  0  0  0
  4  5  1  0  0  0  0
  4  8  2  0  0  0  0
  5  6  2  0  0  0  0
  9 10  1  0  0  0  0
  9 14  1  0  0  0  0
 10 11  1  0  0  0  0
 10 12  1  0  0  0  0
 12 13  1  0  0  0  0
 12 15  1  0  0  0  0
 13 14  1  0  0  0  0
 13 16  1  0  0  0  0
 16 17  1  0  0  0  0
 17 18  1  0  0  0  0
 18 19  2  0  0  0  0
 18 20  1  0  0  0  0
 18 21  1  0  0  0  0
 21 22  1  0  0  0  0
 22 23  2  0  0  0  0
 22 24  1  0  0  0  0
 22 25  1  0  0  0  0
A    1
N1
A    2
C2
A    3
N3
A    4
C4
A    5
C5
A    6
C6
A    7
O2
A    8
O4
A    9
C1'
A   10
C2'
A   11
O2'
A   12
C3'
A   13
C4'
A   14
O4'
A   15
O3'
A   16
C5'
A   17
O5'
A   18
PA
A   19
O1A
A   20
O2A
A   21
O3A
A   22
PB
A   23
O1B
A   24
O2B
A   25
O3B
M  END
>  <InstanceId>
3DJQ_UDP_A_125

>  <ChemCompId>
UDP

>  <PdbId>
3DJQ

>  <ChainId>
A

>  <ResidueNumber>
125

>  <InsertionCode>


>  <Model>
1

>  <AltIds>


>  <MissingHeavyAtoms>
0

>  <ObservedFormula>
C9 N2 O12 P2

>  <Name>
URIDINE-5'-DIPHOSPHATE

>  <SystematicName>
[(2R,3S,4R,5R)-5-(2,4-dioxopyrimidin-1-yl)-3,4-dihydroxy-oxolan-2-yl]methyl phosphono hydrogen phosphate

>  <Synonyms>


>  <Type>
RNA LINKING

>  <Formula>
C9 H14 N2 O12 P2

>  <MolecularWeight>
404.161

>  <ModifiedDate>
2011-06-04

>  <Parent>


>  <OneLetterCode>
N

>  <SubcomponentList>


>  <AmbiguousFlag>
N

>  <InChI>
InChI=1S/C9H14N2O12P2/c12-5-1-2-11(9(15)10-5)8-7(14)6(13)4(22-8)3-21-25(19,20)23-24(16,17)18/h1-2,4,6-8,13-14H,3H2,(H,19,20)(H,10,12,15)(H2,16,17,18)/t4-,6-,7-,8-/m1/s1

>  <InChIKey>
XCCTYIAWTASOJW-XVFCMESISA-N

>  <SMILES>
C1=CN(C(=O)NC1=O)[C@H]2[C@@H]([C@@H]([C@H](O2)CO[P@@](=O)(O)OP(=O)(O)O)O)O

$$$$
