5MEH_DMJ_A_506
  RCSB PDB12061719013D
Coordinates from PDB:5MEH:A:506 Model:1 without hydrogens
 11 11  0  0  0  0            999 V2000
   23.9160   18.7610   48.2190   C 0  0  0  0  0  0  0  0  0  0  0  0
   22.9400   18.3750   47.2130   O 0  0  0  0  0  0  0  0  0  0  0  0
   24.8790   17.5790   48.5260   C 0  0  0  0  0  0  0  0  0  0  0  0
   25.8010   17.9680   49.5630   O 0  0  0  0  0  0  0  0  0  0  0  0
   25.6510   17.1700   47.2250   C 0  0  0  0  0  0  0  0  0  0  0  0
   26.8700   16.4720   47.6150   O 0  0  0  0  0  0  0  0  0  0  0  0
   26.0190   18.3670   46.2900   C 0  0  0  0  0  0  0  0  0  0  0  0
   26.0600   19.5920   47.1740   N 0  0  0  0  0  0  0  0  0  0  0  0
   24.7070   20.0280   47.7690   C 0  0  0  0  0  0  0  0  0  0  0  0
   25.0150   20.9900   48.9200   C 0  0  0  0  0  0  0  0  0  0  0  0
   25.8550   22.0490   48.4340   O 0  0  0  0  0  0  0  0  0  0  0  0
  1  2  1  0  0  0  0
  1  3  1  0  0  0  0
  1  9  1  0  0  0  0
  3  4  1  0  0  0  0
  3  5  1  0  0  0  0
  5  6  1  0  0  0  0
  5  7  1  0  0  0  0
  7  8  1  0  0  0  0
  8  9  1  0  0  0  0
  9 10  1  0  0  0  0
 10 11  1  0  0  0  0
A    1
C4
A    2
O4
A    3
C3
A    4
O3
A    5
C2
A    6
O2
A    7
C1
A    8
N5
A    9
C5
A   10
C6
A   11
O6
M  END
>  <InstanceId>
5MEH_DMJ_A_506

>  <ChemCompId>
DMJ

>  <PdbId>
5MEH

>  <ChainId>
A

>  <ResidueNumber>
506

>  <InsertionCode>


>  <Model>
1

>  <AltIds>


>  <MissingHeavyAtoms>
0

>  <ObservedFormula>
C6 N O4

>  <Name>
1-DEOXYMANNOJIRIMYCIN

>  <SystematicName>
(2R,3R,4R,5R)-2-(hydroxymethyl)piperidine-3,4,5-triol

>  <Synonyms>


>  <Type>
NON-POLYMER

>  <Formula>
C6 H13 N O4

>  <MolecularWeight>
163.172

>  <ModifiedDate>
2011-06-04

>  <Parent>


>  <OneLetterCode>


>  <SubcomponentList>


>  <AmbiguousFlag>
N

>  <InChI>
InChI=1S/C6H13NO4/c8-2-3-5(10)6(11)4(9)1-7-3/h3-11H,1-2H2/t3-,4-,5-,6-/m1/s1

>  <InChIKey>
LXBIFEVIBLOUGU-KVTDHHQDSA-N

>  <SMILES>
C1[C@H]([C@H]([C@@H]([C@H](N1)CO)O)O)O

$$$$
