2ZDL_45U_A_501
  RCSB PDB12061707433D
Coordinates from PDB:2ZDL:A:501 Model:1 without hydrogens
 27 29  0  0  0  0            999 V2000
  -27.1140    1.2500   17.3120   O 0  0  0  0  0  0  0  0  0  0  0  0
  -28.2890    1.2680   16.9750   C 0  0  0  0  0  0  0  0  0  0  0  0
  -29.2010    1.5240   18.1660   C 0  0  0  0  0  0  0  0  0  0  0  0
  -30.2100    0.5790   18.2950   O 0  0  0  0  0  0  0  0  0  0  0  0
  -30.4210   -0.5130   19.1540   C 0  0  0  0  0  0  0  0  0  0  0  0
  -29.0460   -1.2220   19.2190   C 0  0  0  0  0  0  0  0  0  0  0  0
  -29.2770   -2.6990   19.5300   C 0  0  0  0  0  0  0  0  0  0  0  0
  -30.7170   -2.9980   19.2280   C 0  0  0  0  0  0  0  0  0  0  0  0
  -31.2390   -1.7150   18.5130   C 0  0  0  0  0  0  0  0  0  0  0  0
  -28.6000    1.0760   15.6800   N 0  0  0  0  0  0  0  0  0  0  0  0
  -27.6310    0.5370   14.7420   C 0  0  0  0  0  0  0  0  0  0  0  0
  -26.5880    1.6070   14.5670   C 0  0  0  0  0  0  0  0  0  0  0  0
  -26.7650    2.7840   14.8010   O 0  0  0  0  0  0  0  0  0  0  0  0
  -28.4420    0.4190   13.4560   C 0  0  0  0  0  0  0  0  0  0  0  0
  -29.8100    1.0510   13.6610   C 0  0  0  0  0  0  0  0  0  0  0  0
  -30.0450    1.0760   15.1600   C 0  0  0  0  0  0  0  0  0  0  0  0
  -25.4480    1.1950   14.0890   N 0  0  0  0  0  0  0  0  0  0  0  0
  -24.3670    2.0320   13.5620   C 0  0  0  0  0  0  0  0  0  0  0  0
  -23.2710    1.8660   14.6350   C 0  0  0  0  0  0  0  0  0  0  0  0
  -23.3580    2.1610   15.9910   C 0  0  0  0  0  0  0  0  0  0  0  0
  -22.2870    1.9780   16.9340   C 0  0  0  0  0  0  0  0  0  0  0  0
  -21.0350    1.4970   16.6720   C 0  0  0  0  0  0  0  0  0  0  0  0
  -19.8770    1.2890   17.6450   C 0  0  0  0  0  0  0  0  0  0  0  0
  -19.7140    2.0500   18.7200   N 0  0  0  0  0  0  0  0  0  0  0  0
  -19.0610    0.2870   17.3180   N 0  0  0  0  0  0  0  0  0  0  0  0
  -20.9680    1.2070   15.3150   C 0  0  0  0  0  0  0  0  0  0  0  0
  -22.0060    1.3780   14.3650   C 0  0  0  0  0  0  0  0  0  0  0  0
 14 15  1  0  0  0  0
 14 11  1  0  0  0  0
 18 17  1  0  0  0  0
 18 19  1  0  0  0  0
 15 16  1  0  0  0  0
 17 12  1  0  0  0  0
 27 19  2  0  0  0  0
 27 26  1  0  0  0  0
 12 11  1  0  0  0  0
 12 13  2  0  0  0  0
 19 20  1  0  0  0  0
 11 10  1  0  0  0  0
 16 10  1  0  0  0  0
 26 22  2  0  0  0  0
 10  2  1  0  0  0  0
 20 21  2  0  0  0  0
 22 21  1  0  0  0  0
 22 23  1  0  0  0  0
  2  1  2  0  0  0  0
  2  3  1  0  0  0  0
 25 23  1  0  0  0  0
 23 24  2  0  0  0  0
  3  4  1  0  0  0  0
  4  5  1  0  0  0  0
  9  5  1  0  0  0  0
  9  8  1  0  0  0  0
  5  6  1  0  0  0  0
  6  7  1  0  0  0  0
  8  7  1  0  0  0  0
A    1
O32
A    2
C14
A    3
C5
A    4
O21
A    5
C44
A    6
C49
A    7
C48
A    8
C47
A    9
C45
A   10
N1
A   11
C1
A   12
C7
A   13
O22
A   14
C2
A   15
C3
A   16
C4
A   17
N23
A   18
C24
A   19
C25
A   20
C30
A   21
C29
A   22
C28
A   23
C21
A   24
N47
A   25
N46
A   26
C27
A   27
C26
M  END
>  <InstanceId>
2ZDL_45U_A_501

>  <ChemCompId>
45U

>  <PdbId>
2ZDL

>  <ChainId>
A

>  <ResidueNumber>
501

>  <InsertionCode>


>  <Model>
1

>  <AltIds>


>  <MissingHeavyAtoms>
0

>  <ObservedFormula>
C20 N4 O3

>  <Name>
(S)-N-(4-carbamimidoylbenzyl)-1-(2-(cyclopentyloxy)ethanoyl)pyrrolidine-2-carboxamide

>  <SystematicName>
(2S)-N-[(4-carbamimidoylphenyl)methyl]-1-(2-cyclopentyloxyethanoyl)pyrrolidine-2-carboxamide

>  <Synonyms>


>  <Type>
peptide-like

>  <Formula>
C20 H28 N4 O3

>  <MolecularWeight>
372.461

>  <ModifiedDate>
2012-01-05

>  <Parent>


>  <OneLetterCode>


>  <SubcomponentList>
01Y PRO 00S

>  <AmbiguousFlag>
N

>  <InChI>
InChI=1S/C20H28N4O3/c21-19(22)15-9-7-14(8-10-15)12-23-20(26)17-6-3-11-24(17)18(25)13-27-16-4-1-2-5-16/h7-10,16-17H,1-6,11-13H2,(H3,21,22)(H,23,26)/t17-/m0/s1

>  <InChIKey>
ZWXWAYUCJVQHOR-KRWDZBQOSA-N

>  <SMILES>
[H]/N=C(/c1ccc(cc1)CNC(=O)[C@@H]2CCCN2C(=O)COC3CCCC3)\N

$$$$
