3K8Q_22A_A_290


 22 23  0  0  0  0  0  0  0  0999 V2000
   13.3590    9.1469   56.0797 N   0  0  0  0  0  0  0  0  0  0  0  0
   12.7731    9.4175   57.2626 C   0  0  0  0  0  0  0  0  0  0  0  0
   13.0778   10.5056   57.9861 N   0  0  0  0  0  0  0  0  0  0  0  0
   14.0207   11.3671   57.5208 C   0  0  0  0  0  0  0  0  0  0  0  0
   14.5631   11.2084   56.2243 C   0  0  0  0  0  0  0  0  0  0  0  0
   14.3166    9.9397   55.5454 C   0  0  0  0  0  0  0  0  0  0  0  0
   14.8236    9.6893   54.4275 O   0  0  0  0  0  0  0  0  0  0  0  0
   15.6110   12.1865   56.0393 N   0  0  0  0  0  0  0  0  0  0  0  0
   15.4468   13.0192   57.1236 C   0  0  0  0  0  0  0  0  0  0  0  0
   14.4833   12.5626   58.0388 C   0  0  0  0  0  0  0  0  0  0  0  0
   13.0798    8.3423   55.5858 H   0  0  0  0  0  0  0  0  0  0  0  0
   16.2773   12.2433   55.3168 H   0  0  0  0  0  0  0  0  0  0  0  0
   14.1329   13.2155   59.3521 C   0  0  0  0  0  0  0  0  0  0  0  0
   12.6718   13.2018   59.4537 N   0  0  0  0  0  0  0  0  0  0  0  0
   12.3227   13.8977   58.7948 H   0  0  0  0  0  0  0  0  0  0  0  0
   12.0317   13.4784   60.7439 C   0  0  0  0  0  0  0  0  0  0  0  0
   12.3096   14.9155   61.1663 C   0  0  0  0  0  0  0  0  0  0  0  0
   11.4403   15.3566   62.2314 O   0  0  0  0  0  0  0  0  0  0  0  0
   10.5188   15.3270   61.9299 H   0  0  0  0  0  0  0  0  0  0  0  0
   12.4347   12.5116   61.8704 C   0  0  0  0  0  0  0  0  0  0  0  0
   13.1615   13.1250   62.9521 O   0  0  0  0  0  0  0  0  0  0  0  0
   13.9992   13.4818   62.6174 H   0  0  0  0  0  0  0  0  0  0  0  0
  1  2  1  0  0  0
  2  3  2  0  0  0
  4  3  1  0  0  0
  4 10  1  0  0  0
  5  4  2  0  0  0
  6  1  1  0  0  0
  6  5  1  0  0  0
  7  6  2  0  0  0
  8  5  1  0  0  0
  8  9  1  0  0  0
  9 10  2  0  0  0
 10 13  1  0  0  0
 14 16  1  0  0  0
 13 14  1  0  0  0
 16 20  1  0  0  0
 16 17  1  0  0  0
 17 18  1  0  0  0
 21 20  1  0  0  0
  1 11  1  0  0  0
  8 12  1  0  0  0
 14 15  1  0  0  0
 21 22  1  0  0  0
 18 19  1  0  0  0
M  END
> <minimizedAffinity>
-7.71934

$$$$
3K8Q_22A_A_290


 22 23  0  0  0  0  0  0  0  0999 V2000
   11.6081   15.3289   60.4561 N   0  0  0  0  0  0  0  0  0  0  0  0
   11.2204   14.0591   60.2263 C   0  0  0  0  0  0  0  0  0  0  0  0
   12.0934   13.0449   60.1291 N   0  0  0  0  0  0  0  0  0  0  0  0
   13.4224   13.3012   60.2547 C   0  0  0  0  0  0  0  0  0  0  0  0
   13.8745   14.5860   60.6360 C   0  0  0  0  0  0  0  0  0  0  0  0
   12.9090   15.6797   60.5809 C   0  0  0  0  0  0  0  0  0  0  0  0
   13.2466   16.8603   60.8296 O   0  0  0  0  0  0  0  0  0  0  0  0
   15.3187   14.6021   60.5820 N   0  0  0  0  0  0  0  0  0  0  0  0
   15.6337   13.2706   60.4281 C   0  0  0  0  0  0  0  0  0  0  0  0
   14.5104   12.4482   60.2386 C   0  0  0  0  0  0  0  0  0  0  0  0
   10.9191   16.0276   60.5361 H   0  0  0  0  0  0  0  0  0  0  0  0
   15.9267   15.3742   60.6407 H   0  0  0  0  0  0  0  0  0  0  0  0
   14.5366   10.9644   59.9711 C   0  0  0  0  0  0  0  0  0  0  0  0
   13.5504   10.7075   58.9191 N   0  0  0  0  0  0  0  0  0  0  0  0
   12.9341    9.9718   59.2645 H   0  0  0  0  0  0  0  0  0  0  0  0
   14.0021   10.2938   57.5867 C   0  0  0  0  0  0  0  0  0  0  0  0
   14.0945   11.5054   56.6679 C   0  0  0  0  0  0  0  0  0  0  0  0
   15.0496   11.3190   55.6013 O   0  0  0  0  0  0  0  0  0  0  0  0
   15.9334   11.1860   55.9783 H   0  0  0  0  0  0  0  0  0  0  0  0
   13.1343    9.2039   56.9345 C   0  0  0  0  0  0  0  0  0  0  0  0
   13.1751    9.1903   55.4948 O   0  0  0  0  0  0  0  0  0  0  0  0
   12.8234   10.0273   55.1534 H   0  0  0  0  0  0  0  0  0  0  0  0
  1  2  1  0  0  0
  2  3  2  0  0  0
  4  3  1  0  0  0
  4 10  1  0  0  0
  5  4  2  0  0  0
  6  1  1  0  0  0
  6  5  1  0  0  0
  7  6  2  0  0  0
  8  5  1  0  0  0
  8  9  1  0  0  0
  9 10  2  0  0  0
 10 13  1  0  0  0
 14 16  1  0  0  0
 13 14  1  0  0  0
 16 20  1  0  0  0
 16 17  1  0  0  0
 17 18  1  0  0  0
 21 20  1  0  0  0
  1 11  1  0  0  0
  8 12  1  0  0  0
 14 15  1  0  0  0
 21 22  1  0  0  0
 18 19  1  0  0  0
M  END
> <minimizedAffinity>
-7.29316

$$$$
3K8Q_22A_A_290


 22 23  0  0  0  0  0  0  0  0999 V2000
   11.5769   15.3261   60.5264 N   0  0  0  0  0  0  0  0  0  0  0  0
   11.2042   14.0682   60.2191 C   0  0  0  0  0  0  0  0  0  0  0  0
   12.0913   13.0810   60.0222 N   0  0  0  0  0  0  0  0  0  0  0  0
   13.4190   13.3542   60.1235 C   0  0  0  0  0  0  0  0  0  0  0  0
   13.8607   14.6175   60.5810 C   0  0  0  0  0  0  0  0  0  0  0  0
   12.8749   15.6930   60.6346 C   0  0  0  0  0  0  0  0  0  0  0  0
   13.1997   16.8595   60.9560 O   0  0  0  0  0  0  0  0  0  0  0  0
   15.3018   14.6662   60.4825 N   0  0  0  0  0  0  0  0  0  0  0  0
   15.6350   13.3554   60.2242 C   0  0  0  0  0  0  0  0  0  0  0  0
   14.5207   12.5262   60.0122 C   0  0  0  0  0  0  0  0  0  0  0  0
   10.8788   16.0035   60.6778 H   0  0  0  0  0  0  0  0  0  0  0  0
   15.8978   15.4441   60.5768 H   0  0  0  0  0  0  0  0  0  0  0  0
   14.5642   11.0659   59.6390 C   0  0  0  0  0  0  0  0  0  0  0  0
   13.3939   10.8105   58.7961 N   0  0  0  0  0  0  0  0  0  0  0  0
   12.9786    9.9380   59.1227 H   0  0  0  0  0  0  0  0  0  0  0  0
   13.5588   10.6861   57.3441 C   0  0  0  0  0  0  0  0  0  0  0  0
   13.2697    9.2556   56.9073 C   0  0  0  0  0  0  0  0  0  0  0  0
   13.1592    9.1270   55.4734 O   0  0  0  0  0  0  0  0  0  0  0  0
   12.4214    9.6708   55.1559 H   0  0  0  0  0  0  0  0  0  0  0  0
   14.9377   11.1267   56.8238 C   0  0  0  0  0  0  0  0  0  0  0  0
   15.0720   11.0976   55.3901 O   0  0  0  0  0  0  0  0  0  0  0  0
   14.9648   10.1869   55.0737 H   0  0  0  0  0  0  0  0  0  0  0  0
  1  2  1  0  0  0
  2  3  2  0  0  0
  4  3  1  0  0  0
  4 10  1  0  0  0
  5  4  2  0  0  0
  6  1  1  0  0  0
  6  5  1  0  0  0
  7  6  2  0  0  0
  8  5  1  0  0  0
  8  9  1  0  0  0
  9 10  2  0  0  0
 10 13  1  0  0  0
 14 16  1  0  0  0
 13 14  1  0  0  0
 16 20  1  0  0  0
 16 17  1  0  0  0
 17 18  1  0  0  0
 21 20  1  0  0  0
  1 11  1  0  0  0
  8 12  1  0  0  0
 14 15  1  0  0  0
 21 22  1  0  0  0
 18 19  1  0  0  0
M  END
> <minimizedAffinity>
-7.26243

$$$$
3K8Q_22A_A_290


 22 23  0  0  0  0  0  0  0  0999 V2000
   13.5245    8.8253   55.7952 N   0  0  0  0  0  0  0  0  0  0  0  0
   12.8039    9.0387   56.9136 C   0  0  0  0  0  0  0  0  0  0  0  0
   12.9848   10.1154   57.6935 N   0  0  0  0  0  0  0  0  0  0  0  0
   13.9371   11.0248   57.3559 C   0  0  0  0  0  0  0  0  0  0  0  0
   14.6223   10.9248   56.1227 C   0  0  0  0  0  0  0  0  0  0  0  0
   14.5017    9.6685   55.3889 C   0  0  0  0  0  0  0  0  0  0  0  0
   15.1361    9.4704   54.3270 O   0  0  0  0  0  0  0  0  0  0  0  0
   15.6440   11.9461   56.0781 N   0  0  0  0  0  0  0  0  0  0  0  0
   15.3304   12.7396   57.1589 C   0  0  0  0  0  0  0  0  0  0  0  0
   14.2928   12.2207   57.9516 C   0  0  0  0  0  0  0  0  0  0  0  0
   13.3328    8.0259   55.2534 H   0  0  0  0  0  0  0  0  0  0  0  0
   16.3816   12.0490   55.4343 H   0  0  0  0  0  0  0  0  0  0  0  0
   13.7766   12.8208   59.2350 C   0  0  0  0  0  0  0  0  0  0  0  0
   13.7501   11.7417   60.2249 N   0  0  0  0  0  0  0  0  0  0  0  0
   12.8143   11.7351   60.6306 H   0  0  0  0  0  0  0  0  0  0  0  0
   14.6986   11.7595   61.3432 C   0  0  0  0  0  0  0  0  0  0  0  0
   14.6133   13.0913   62.0781 C   0  0  0  0  0  0  0  0  0  0  0  0
   13.6676   13.0614   63.1687 O   0  0  0  0  0  0  0  0  0  0  0  0
   12.7807   12.8757   62.8226 H   0  0  0  0  0  0  0  0  0  0  0  0
   16.1556   11.4725   60.9419 C   0  0  0  0  0  0  0  0  0  0  0  0
   17.1142   12.4147   61.4597 O   0  0  0  0  0  0  0  0  0  0  0  0
   16.9258   13.2967   61.1029 H   0  0  0  0  0  0  0  0  0  0  0  0
  1  2  1  0  0  0
  2  3  2  0  0  0
  4  3  1  0  0  0
  4 10  1  0  0  0
  5  4  2  0  0  0
  6  1  1  0  0  0
  6  5  1  0  0  0
  7  6  2  0  0  0
  8  5  1  0  0  0
  8  9  1  0  0  0
  9 10  2  0  0  0
 10 13  1  0  0  0
 14 16  1  0  0  0
 13 14  1  0  0  0
 16 20  1  0  0  0
 16 17  1  0  0  0
 17 18  1  0  0  0
 21 20  1  0  0  0
  1 11  1  0  0  0
  8 12  1  0  0  0
 14 15  1  0  0  0
 21 22  1  0  0  0
 18 19  1  0  0  0
M  END
> <minimizedAffinity>
-7.20509

$$$$
3K8Q_22A_A_290


 22 23  0  0  0  0  0  0  0  0999 V2000
   15.4784   12.2437   55.8806 N   0  0  0  0  0  0  0  0  0  0  0  0
   15.8164   13.2876   56.6627 C   0  0  0  0  0  0  0  0  0  0  0  0
   15.3297   13.4470   57.9028 N   0  0  0  0  0  0  0  0  0  0  0  0
   14.4528   12.5310   58.3926 C   0  0  0  0  0  0  0  0  0  0  0  0
   14.1738   11.3458   57.6730 C   0  0  0  0  0  0  0  0  0  0  0  0
   14.6033   11.2914   56.2787 C   0  0  0  0  0  0  0  0  0  0  0  0
   14.3294   10.3098   55.5501 O   0  0  0  0  0  0  0  0  0  0  0  0
   13.1354   10.6182   58.3667 N   0  0  0  0  0  0  0  0  0  0  0  0
   13.0522   11.2787   59.5719 C   0  0  0  0  0  0  0  0  0  0  0  0
   13.8451   12.4372   59.6309 C   0  0  0  0  0  0  0  0  0  0  0  0
   15.8833   12.1710   54.9862 H   0  0  0  0  0  0  0  0  0  0  0  0
   12.6160    9.8422   58.0546 H   0  0  0  0  0  0  0  0  0  0  0  0
   13.9097   13.4060   60.7846 C   0  0  0  0  0  0  0  0  0  0  0  0
   13.6382   14.7361   60.2346 N   0  0  0  0  0  0  0  0  0  0  0  0
   14.3523   15.3619   60.6073 H   0  0  0  0  0  0  0  0  0  0  0  0
   12.3413   15.3735   60.4844 C   0  0  0  0  0  0  0  0  0  0  0  0
   12.4081   16.2112   61.7551 C   0  0  0  0  0  0  0  0  0  0  0  0
   11.1925   16.1371   62.5307 O   0  0  0  0  0  0  0  0  0  0  0  0
   10.4530   16.4827   62.0066 H   0  0  0  0  0  0  0  0  0  0  0  0
   11.1587   14.3929   60.5622 C   0  0  0  0  0  0  0  0  0  0  0  0
   10.3193   14.3758   59.3919 O   0  0  0  0  0  0  0  0  0  0  0  0
    9.9129   15.2484   59.2727 H   0  0  0  0  0  0  0  0  0  0  0  0
  1  2  1  0  0  0
  2  3  2  0  0  0
  4  3  1  0  0  0
  4 10  1  0  0  0
  5  4  2  0  0  0
  6  1  1  0  0  0
  6  5  1  0  0  0
  7  6  2  0  0  0
  8  5  1  0  0  0
  8  9  1  0  0  0
  9 10  2  0  0  0
 10 13  1  0  0  0
 14 16  1  0  0  0
 13 14  1  0  0  0
 16 20  1  0  0  0
 16 17  1  0  0  0
 17 18  1  0  0  0
 21 20  1  0  0  0
  1 11  1  0  0  0
  8 12  1  0  0  0
 14 15  1  0  0  0
 21 22  1  0  0  0
 18 19  1  0  0  0
M  END
> <minimizedAffinity>
-6.93085

$$$$
3K8Q_22A_A_290


 22 23  0  0  0  0  0  0  0  0999 V2000
   12.3540   14.0461   61.9395 N   0  0  0  0  0  0  0  0  0  0  0  0
   11.6525   13.8440   60.8069 C   0  0  0  0  0  0  0  0  0  0  0  0
   11.9741   12.8901   59.9199 N   0  0  0  0  0  0  0  0  0  0  0  0
   13.0542   12.1004   60.1597 C   0  0  0  0  0  0  0  0  0  0  0  0
   13.7392   12.1738   61.3949 C   0  0  0  0  0  0  0  0  0  0  0  0
   13.4503   13.3181   62.2544 C   0  0  0  0  0  0  0  0  0  0  0  0
   14.0678   13.4981   63.3295 O   0  0  0  0  0  0  0  0  0  0  0  0
   14.8990   11.3138   61.3316 N   0  0  0  0  0  0  0  0  0  0  0  0
   14.6851   10.5968   60.1757 C   0  0  0  0  0  0  0  0  0  0  0  0
   13.5693   11.0360   59.4433 C   0  0  0  0  0  0  0  0  0  0  0  0
   12.0578   14.7497   62.5612 H   0  0  0  0  0  0  0  0  0  0  0  0
   15.6550   11.2552   61.9595 H   0  0  0  0  0  0  0  0  0  0  0  0
   13.1234   10.5000   58.1063 C   0  0  0  0  0  0  0  0  0  0  0  0
   13.2942   11.5857   57.1380 N   0  0  0  0  0  0  0  0  0  0  0  0
   12.4456   11.6145   56.5728 H   0  0  0  0  0  0  0  0  0  0  0  0
   14.4257   11.5548   56.2056 C   0  0  0  0  0  0  0  0  0  0  0  0
   14.7788   10.1133   55.8617 C   0  0  0  0  0  0  0  0  0  0  0  0
   15.2576    9.9694   54.5072 O   0  0  0  0  0  0  0  0  0  0  0  0
   14.5627   10.2423   53.8879 H   0  0  0  0  0  0  0  0  0  0  0  0
   15.6767   12.2985   56.7037 C   0  0  0  0  0  0  0  0  0  0  0  0
   15.5826   13.7343   56.6400 O   0  0  0  0  0  0  0  0  0  0  0  0
   15.4789   14.0109   55.7161 H   0  0  0  0  0  0  0  0  0  0  0  0
  1  2  1  0  0  0
  2  3  2  0  0  0
  4  3  1  0  0  0
  4 10  1  0  0  0
  5  4  2  0  0  0
  6  1  1  0  0  0
  6  5  1  0  0  0
  7  6  2  0  0  0
  8  5  1  0  0  0
  8  9  1  0  0  0
  9 10  2  0  0  0
 10 13  1  0  0  0
 14 16  1  0  0  0
 13 14  1  0  0  0
 16 20  1  0  0  0
 16 17  1  0  0  0
 17 18  1  0  0  0
 21 20  1  0  0  0
  1 11  1  0  0  0
  8 12  1  0  0  0
 14 15  1  0  0  0
 21 22  1  0  0  0
 18 19  1  0  0  0
M  END
> <minimizedAffinity>
-6.86965

$$$$
3K8Q_22A_A_290


 22 23  0  0  0  0  0  0  0  0999 V2000
   15.8473   12.4525   56.1391 N   0  0  0  0  0  0  0  0  0  0  0  0
   15.7128   13.2870   57.1886 C   0  0  0  0  0  0  0  0  0  0  0  0
   14.8325   13.0668   58.1769 N   0  0  0  0  0  0  0  0  0  0  0  0
   14.0339   11.9683   58.1193 C   0  0  0  0  0  0  0  0  0  0  0  0
   14.2296   10.9881   57.1186 C   0  0  0  0  0  0  0  0  0  0  0  0
   15.0866   11.3432   55.9913 C   0  0  0  0  0  0  0  0  0  0  0  0
   15.2516   10.5614   55.0264 O   0  0  0  0  0  0  0  0  0  0  0  0
   13.1800   10.0006   57.2282 N   0  0  0  0  0  0  0  0  0  0  0  0
   12.5909   10.3129   58.4328 C   0  0  0  0  0  0  0  0  0  0  0  0
   13.0895   11.4928   59.0102 C   0  0  0  0  0  0  0  0  0  0  0  0
   16.5242   12.6576   55.4544 H   0  0  0  0  0  0  0  0  0  0  0  0
   12.9445    9.2823   56.5974 H   0  0  0  0  0  0  0  0  0  0  0  0
   12.5960   12.1299   60.2847 C   0  0  0  0  0  0  0  0  0  0  0  0
   12.4693   13.5645   60.0180 N   0  0  0  0  0  0  0  0  0  0  0  0
   13.1206   13.7842   59.2643 H   0  0  0  0  0  0  0  0  0  0  0  0
   12.7234   14.5278   61.0942 C   0  0  0  0  0  0  0  0  0  0  0  0
   12.2956   15.9230   60.6569 C   0  0  0  0  0  0  0  0  0  0  0  0
   13.2656   16.9337   61.0067 O   0  0  0  0  0  0  0  0  0  0  0  0
   13.3694   16.9624   61.9707 H   0  0  0  0  0  0  0  0  0  0  0  0
   14.1798   14.5547   61.5885 C   0  0  0  0  0  0  0  0  0  0  0  0
   15.1549   14.8096   60.5595 O   0  0  0  0  0  0  0  0  0  0  0  0
   15.1268   14.0957   59.9035 H   0  0  0  0  0  0  0  0  0  0  0  0
  1  2  1  0  0  0
  2  3  2  0  0  0
  4  3  1  0  0  0
  4 10  1  0  0  0
  5  4  2  0  0  0
  6  1  1  0  0  0
  6  5  1  0  0  0
  7  6  2  0  0  0
  8  5  1  0  0  0
  8  9  1  0  0  0
  9 10  2  0  0  0
 10 13  1  0  0  0
 14 16  1  0  0  0
 13 14  1  0  0  0
 16 20  1  0  0  0
 16 17  1  0  0  0
 17 18  1  0  0  0
 21 20  1  0  0  0
  1 11  1  0  0  0
  8 12  1  0  0  0
 14 15  1  0  0  0
 21 22  1  0  0  0
 18 19  1  0  0  0
M  END
> <minimizedAffinity>
-6.80265

$$$$
3K8Q_22A_A_290


 22 23  0  0  0  0  0  0  0  0999 V2000
   11.4467   15.5340   61.2441 N   0  0  0  0  0  0  0  0  0  0  0  0
   11.6060   14.5555   60.3315 C   0  0  0  0  0  0  0  0  0  0  0  0
   12.6684   13.7361   60.3307 N   0  0  0  0  0  0  0  0  0  0  0  0
   13.6311   13.8996   61.2763 C   0  0  0  0  0  0  0  0  0  0  0  0
   13.4474   14.8142   62.3394 C   0  0  0  0  0  0  0  0  0  0  0  0
   12.3591   15.7791   62.2128 C   0  0  0  0  0  0  0  0  0  0  0  0
   12.1752   16.6708   63.0734 O   0  0  0  0  0  0  0  0  0  0  0  0
   14.6617   14.8628   63.1217 N   0  0  0  0  0  0  0  0  0  0  0  0
   15.3827   13.7962   62.6335 C   0  0  0  0  0  0  0  0  0  0  0  0
   14.7851   13.1788   61.5218 C   0  0  0  0  0  0  0  0  0  0  0  0
   10.6361   16.0914   61.2045 H   0  0  0  0  0  0  0  0  0  0  0  0
   14.9115   15.5008   63.8287 H   0  0  0  0  0  0  0  0  0  0  0  0
   15.3666   12.0374   60.7263 C   0  0  0  0  0  0  0  0  0  0  0  0
   15.5171   12.5155   59.3501 N   0  0  0  0  0  0  0  0  0  0  0  0
   14.8822   13.3062   59.2403 H   0  0  0  0  0  0  0  0  0  0  0  0
   15.2569   11.6024   58.2323 C   0  0  0  0  0  0  0  0  0  0  0  0
   15.9354   12.1176   56.9694 C   0  0  0  0  0  0  0  0  0  0  0  0
   15.2295   11.7381   55.7684 O   0  0  0  0  0  0  0  0  0  0  0  0
   15.2067   10.7708   55.6988 H   0  0  0  0  0  0  0  0  0  0  0  0
   13.7651   11.3442   57.9602 C   0  0  0  0  0  0  0  0  0  0  0  0
   13.0126   12.5176   57.5974 O   0  0  0  0  0  0  0  0  0  0  0  0
   13.0268   13.1507   58.3321 H   0  0  0  0  0  0  0  0  0  0  0  0
  1  2  1  0  0  0
  2  3  2  0  0  0
  4  3  1  0  0  0
  4 10  1  0  0  0
  5  4  2  0  0  0
  6  1  1  0  0  0
  6  5  1  0  0  0
  7  6  2  0  0  0
  8  5  1  0  0  0
  8  9  1  0  0  0
  9 10  2  0  0  0
 10 13  1  0  0  0
 14 16  1  0  0  0
 13 14  1  0  0  0
 16 20  1  0  0  0
 16 17  1  0  0  0
 17 18  1  0  0  0
 21 20  1  0  0  0
  1 11  1  0  0  0
  8 12  1  0  0  0
 14 15  1  0  0  0
 21 22  1  0  0  0
 18 19  1  0  0  0
M  END
> <minimizedAffinity>
-6.73009

$$$$
3K8Q_22A_A_290


 22 23  0  0  0  0  0  0  0  0999 V2000
   14.5010   15.1658   63.4555 N   0  0  0  0  0  0  0  0  0  0  0  0
   15.0739   14.0162   63.0484 C   0  0  0  0  0  0  0  0  0  0  0  0
   14.5461   13.2504   62.0813 N   0  0  0  0  0  0  0  0  0  0  0  0
   13.3832   13.6359   61.4924 C   0  0  0  0  0  0  0  0  0  0  0  0
   12.8156   14.8991   61.7796 C   0  0  0  0  0  0  0  0  0  0  0  0
   13.3371   15.6208   62.9365 C   0  0  0  0  0  0  0  0  0  0  0  0
   12.8392   16.7101   63.3039 O   0  0  0  0  0  0  0  0  0  0  0  0
   11.5399   14.9956   61.1071 N   0  0  0  0  0  0  0  0  0  0  0  0
   11.5541   13.9051   60.2666 C   0  0  0  0  0  0  0  0  0  0  0  0
   12.6617   13.0628   60.4616 C   0  0  0  0  0  0  0  0  0  0  0  0
   14.9459   15.6945   64.1568 H   0  0  0  0  0  0  0  0  0  0  0  0
   10.8351   15.6734   61.2217 H   0  0  0  0  0  0  0  0  0  0  0  0
   12.9172   11.7596   59.7475 C   0  0  0  0  0  0  0  0  0  0  0  0
   14.3328   11.7549   59.3714 N   0  0  0  0  0  0  0  0  0  0  0  0
   14.7337   12.6270   59.7164 H   0  0  0  0  0  0  0  0  0  0  0  0
   14.7076   11.6440   57.9579 C   0  0  0  0  0  0  0  0  0  0  0  0
   15.0398   13.0210   57.3970 C   0  0  0  0  0  0  0  0  0  0  0  0
   15.7929   12.9500   56.1672 O   0  0  0  0  0  0  0  0  0  0  0  0
   16.6383   12.5035   56.3311 H   0  0  0  0  0  0  0  0  0  0  0  0
   13.6515   10.9572   57.0752 C   0  0  0  0  0  0  0  0  0  0  0  0
   14.0162   10.8441   55.6864 O   0  0  0  0  0  0  0  0  0  0  0  0
   14.1214   11.7304   55.3065 H   0  0  0  0  0  0  0  0  0  0  0  0
  1  2  1  0  0  0
  2  3  2  0  0  0
  4  3  1  0  0  0
  4 10  1  0  0  0
  5  4  2  0  0  0
  6  1  1  0  0  0
  6  5  1  0  0  0
  7  6  2  0  0  0
  8  5  1  0  0  0
  8  9  1  0  0  0
  9 10  2  0  0  0
 10 13  1  0  0  0
 14 16  1  0  0  0
 13 14  1  0  0  0
 16 20  1  0  0  0
 16 17  1  0  0  0
 17 18  1  0  0  0
 21 20  1  0  0  0
  1 11  1  0  0  0
  8 12  1  0  0  0
 14 15  1  0  0  0
 21 22  1  0  0  0
 18 19  1  0  0  0
M  END
> <minimizedAffinity>
-6.65508

$$$$
3K8Q_22A_A_290


 22 23  0  0  0  0  0  0  0  0999 V2000
   17.6504   12.8737   60.9211 N   0  0  0  0  0  0  0  0  0  0  0  0
   17.1890   11.8905   60.1235 C   0  0  0  0  0  0  0  0  0  0  0  0
   15.9312   11.8709   59.6569 N   0  0  0  0  0  0  0  0  0  0  0  0
   15.0799   12.8713   60.0065 C   0  0  0  0  0  0  0  0  0  0  0  0
   15.5487   13.9978   60.7218 C   0  0  0  0  0  0  0  0  0  0  0  0
   16.8719   13.9017   61.3312 C   0  0  0  0  0  0  0  0  0  0  0  0
   17.3299   14.8246   62.0438 O   0  0  0  0  0  0  0  0  0  0  0  0
   14.4198   14.8379   61.0515 N   0  0  0  0  0  0  0  0  0  0  0  0
   13.4045   14.2962   60.2954 C   0  0  0  0  0  0  0  0  0  0  0  0
   13.7690   13.1095   59.6373 C   0  0  0  0  0  0  0  0  0  0  0  0
   18.5891   12.8430   61.2164 H   0  0  0  0  0  0  0  0  0  0  0  0
   14.3852   15.6071   61.6650 H   0  0  0  0  0  0  0  0  0  0  0  0
   12.8585   12.2491   58.7980 C   0  0  0  0  0  0  0  0  0  0  0  0
   13.4291   10.9001   58.8034 N   0  0  0  0  0  0  0  0  0  0  0  0
   14.2489   10.9279   59.4096 H   0  0  0  0  0  0  0  0  0  0  0  0
   13.8541   10.2872   57.5407 C   0  0  0  0  0  0  0  0  0  0  0  0
   14.1041   11.3667   56.4952 C   0  0  0  0  0  0  0  0  0  0  0  0
   15.1360   10.9976   55.5552 O   0  0  0  0  0  0  0  0  0  0  0  0
   15.9728   10.8675   56.0282 H   0  0  0  0  0  0  0  0  0  0  0  0
   12.8775    9.2352   56.9876 C   0  0  0  0  0  0  0  0  0  0  0  0
   13.0034    8.9885   55.5742 O   0  0  0  0  0  0  0  0  0  0  0  0
   12.7993    9.8008   55.0847 H   0  0  0  0  0  0  0  0  0  0  0  0
  1  2  1  0  0  0
  2  3  2  0  0  0
  4  3  1  0  0  0
  4 10  1  0  0  0
  5  4  2  0  0  0
  6  1  1  0  0  0
  6  5  1  0  0  0
  7  6  2  0  0  0
  8  5  1  0  0  0
  8  9  1  0  0  0
  9 10  2  0  0  0
 10 13  1  0  0  0
 14 16  1  0  0  0
 13 14  1  0  0  0
 16 20  1  0  0  0
 16 17  1  0  0  0
 17 18  1  0  0  0
 21 20  1  0  0  0
  1 11  1  0  0  0
  8 12  1  0  0  0
 14 15  1  0  0  0
 21 22  1  0  0  0
 18 19  1  0  0  0
M  END
> <minimizedAffinity>
-6.46000

$$$$
