5ITO_6DB_A_304


 24 23  0  0  0  0  0  0  0  0999 V2000
   17.9981   -6.2028   -4.3531 C   0  0  0  0  0  0  0  0  0  0  0  0
   16.7816   -7.0497   -4.6403 C   0  0  0  0  0  0  0  0  0  0  0  0
   15.6101   -6.5673   -4.5945 O   0  0  0  0  0  0  0  0  0  0  0  0
   16.9378   -8.2616   -4.9474 O   0  0  0  0  0  0  0  0  0  0  0  0
   17.7993   -8.6283   -4.9842 H   0  0  0  0  0  0  0  0  0  0  0  0
   18.9649   -6.9651   -3.5257 N   0  0  0  0  0  0  0  0  0  0  0  0
   18.6213   -7.9234   -3.4623 H   0  0  0  0  0  0  0  0  0  0  0  0
   19.2162   -6.4927   -2.1413 C   0  0  0  0  0  0  0  0  0  0  0  0
   20.1665   -7.3746   -1.3771 C   0  0  0  0  0  0  0  0  0  0  0  0
   17.3217   -7.3625   -0.9484 O   0  0  0  0  0  0  0  0  0  0  0  0
   17.9558   -6.3319   -1.3101 C   0  0  0  0  0  0  0  0  0  0  0  0
   17.5677   -5.1718   -1.0219 O   0  0  0  0  0  0  0  0  0  0  0  0
   18.0621   -4.4283   -1.3061 H   0  0  0  0  0  0  0  0  0  0  0  0
   18.5658   -5.6744   -5.6659 C   0  0  0  0  0  0  0  0  0  0  0  0
   19.5931   -6.5830   -6.2837 C   0  0  0  0  0  0  0  0  0  0  0  0
   19.3227   -7.1524   -7.6225 C   0  0  0  0  0  0  0  0  0  0  0  0
   20.4056   -8.0142   -8.0361 N   0  0  0  0  0  0  0  0  0  0  0  0
   20.8678   -8.5610   -7.3604 H   0  0  0  0  0  0  0  0  0  0  0  0
   20.8235   -8.0937   -9.3992 C   0  0  0  0  0  0  0  0  0  0  0  0
   20.5719   -7.1454  -10.2336 N   0  0  0  0  0  0  0  0  0  0  0  0
   21.5016   -9.1556   -9.7668 N   0  0  0  0  0  0  0  0  0  0  0  0
   20.0619   -6.3555   -9.9419 H   0  0  0  0  0  0  0  0  0  0  0  0
   21.6855   -9.8717   -9.1167 H   0  0  0  0  0  0  0  0  0  0  0  0
   21.8264   -9.2360  -10.6928 H   0  0  0  0  0  0  0  0  0  0  0  0
 10 11  2  0  0  0
  9  8  1  0  0  0
 11 12  1  0  0  0
 11  8  1  0  0  0
  8  6  1  0  0  0
  6  1  1  0  0  0
  3  2  2  0  0  0
  1  2  1  0  0  0
  1 14  1  0  0  0
  2  4  1  0  0  0
 14 15  1  0  0  0
 15 16  1  0  0  0
 16 17  1  0  0  0
 17 19  1  0  0  0
 19 20  2  0  0  0
 19 21  1  0  0  0
  6  7  1  0  0  0
  4  5  1  0  0  0
 17 18  1  0  0  0
 20 22  1  0  0  0
 21 23  1  0  0  0
 21 24  1  0  0  0
 12 13  1  0  0  0
M  END
> <minimizedAffinity>
-8.85078

$$$$
5ITO_6DB_A_304


 24 23  0  0  0  0  0  0  0  0999 V2000
   17.9595   -6.4939   -4.1726 C   0  0  0  0  0  0  0  0  0  0  0  0
   16.6676   -7.1224   -4.6370 C   0  0  0  0  0  0  0  0  0  0  0  0
   16.6239   -8.3169   -5.0591 O   0  0  0  0  0  0  0  0  0  0  0  0
   15.6057   -6.4461   -4.5888 O   0  0  0  0  0  0  0  0  0  0  0  0
   15.6268   -5.5623   -4.2784 H   0  0  0  0  0  0  0  0  0  0  0  0
   18.7766   -7.4922   -3.4405 N   0  0  0  0  0  0  0  0  0  0  0  0
   18.1900   -8.3128   -3.2889 H   0  0  0  0  0  0  0  0  0  0  0  0
   19.3356   -7.0985   -2.1231 C   0  0  0  0  0  0  0  0  0  0  0  0
   18.6802   -5.8745   -1.5425 C   0  0  0  0  0  0  0  0  0  0  0  0
   21.5604   -7.4545   -1.2907 O   0  0  0  0  0  0  0  0  0  0  0  0
   20.8355   -6.8631   -2.1392 C   0  0  0  0  0  0  0  0  0  0  0  0
   21.3117   -6.0674   -2.9876 O   0  0  0  0  0  0  0  0  0  0  0  0
   20.7455   -5.6451   -3.6033 H   0  0  0  0  0  0  0  0  0  0  0  0
   18.6626   -5.8492   -5.3623 C   0  0  0  0  0  0  0  0  0  0  0  0
   19.6158   -6.7739   -6.0685 C   0  0  0  0  0  0  0  0  0  0  0  0
   19.5650   -6.8519   -7.5454 C   0  0  0  0  0  0  0  0  0  0  0  0
   20.3453   -7.9701   -8.0221 N   0  0  0  0  0  0  0  0  0  0  0  0
   20.5832   -8.6906   -7.3948 H   0  0  0  0  0  0  0  0  0  0  0  0
   20.7805   -8.0580   -9.3791 C   0  0  0  0  0  0  0  0  0  0  0  0
   20.5581   -7.1056  -10.2172 N   0  0  0  0  0  0  0  0  0  0  0  0
   21.4441   -9.1323   -9.7371 N   0  0  0  0  0  0  0  0  0  0  0  0
   20.0586   -6.3063   -9.9329 H   0  0  0  0  0  0  0  0  0  0  0  0
   21.6057   -9.8513   -9.0843 H   0  0  0  0  0  0  0  0  0  0  0  0
   21.7802   -9.2191  -10.6583 H   0  0  0  0  0  0  0  0  0  0  0  0
 10 11  2  0  0  0
  9  8  1  0  0  0
 11 12  1  0  0  0
 11  8  1  0  0  0
  8  6  1  0  0  0
  6  1  1  0  0  0
  3  2  2  0  0  0
  1  2  1  0  0  0
  1 14  1  0  0  0
  2  4  1  0  0  0
 14 15  1  0  0  0
 15 16  1  0  0  0
 16 17  1  0  0  0
 17 19  1  0  0  0
 19 20  2  0  0  0
 19 21  1  0  0  0
  6  7  1  0  0  0
  4  5  1  0  0  0
 17 18  1  0  0  0
 20 22  1  0  0  0
 21 23  1  0  0  0
 21 24  1  0  0  0
 12 13  1  0  0  0
M  END
> <minimizedAffinity>
-8.65056

$$$$
5ITO_6DB_A_304


 24 23  0  0  0  0  0  0  0  0999 V2000
   18.7546   -6.4079   -2.7441 C   0  0  0  0  0  0  0  0  0  0  0  0
   20.1985   -6.2687   -3.1629 C   0  0  0  0  0  0  0  0  0  0  0  0
   20.8344   -5.1833   -3.0053 O   0  0  0  0  0  0  0  0  0  0  0  0
   20.7882   -7.2611   -3.6673 O   0  0  0  0  0  0  0  0  0  0  0  0
   20.3276   -8.0681   -3.7882 H   0  0  0  0  0  0  0  0  0  0  0  0
   18.5377   -5.7421   -1.4365 N   0  0  0  0  0  0  0  0  0  0  0  0
   19.3212   -5.1068   -1.2852 H   0  0  0  0  0  0  0  0  0  0  0  0
   18.4258   -6.6012   -0.2313 C   0  0  0  0  0  0  0  0  0  0  0  0
   18.2610   -8.0612   -0.5570 C   0  0  0  0  0  0  0  0  0  0  0  0
   17.3470   -6.5605    1.9143 O   0  0  0  0  0  0  0  0  0  0  0  0
   17.2993   -6.2005    0.7047 C   0  0  0  0  0  0  0  0  0  0  0  0
   16.3382   -5.5363    0.2415 O   0  0  0  0  0  0  0  0  0  0  0  0
   16.3342   -5.2852   -0.6613 H   0  0  0  0  0  0  0  0  0  0  0  0
   17.8534   -5.9070   -3.8676 C   0  0  0  0  0  0  0  0  0  0  0  0
   17.4752   -6.9768   -4.8549 C   0  0  0  0  0  0  0  0  0  0  0  0
   17.8787   -6.8115   -6.2690 C   0  0  0  0  0  0  0  0  0  0  0  0
   19.2185   -7.3097   -6.4764 N   0  0  0  0  0  0  0  0  0  0  0  0
   19.7526   -7.5872   -5.6974 H   0  0  0  0  0  0  0  0  0  0  0  0
   19.7888   -7.4102   -7.7816 C   0  0  0  0  0  0  0  0  0  0  0  0
   19.3979   -6.6488   -8.7441 N   0  0  0  0  0  0  0  0  0  0  0  0
   20.7493   -8.2865   -7.9603 N   0  0  0  0  0  0  0  0  0  0  0  0
   18.6760   -5.9965   -8.5937 H   0  0  0  0  0  0  0  0  0  0  0  0
   21.0365   -8.8611   -7.2142 H   0  0  0  0  0  0  0  0  0  0  0  0
   21.1827   -8.3693   -8.8404 H   0  0  0  0  0  0  0  0  0  0  0  0
 10 11  2  0  0  0
  9  8  1  0  0  0
 11 12  1  0  0  0
 11  8  1  0  0  0
  8  6  1  0  0  0
  6  1  1  0  0  0
  3  2  2  0  0  0
  1  2  1  0  0  0
  1 14  1  0  0  0
  2  4  1  0  0  0
 14 15  1  0  0  0
 15 16  1  0  0  0
 16 17  1  0  0  0
 17 19  1  0  0  0
 19 20  2  0  0  0
 19 21  1  0  0  0
  6  7  1  0  0  0
  4  5  1  0  0  0
 17 18  1  0  0  0
 20 22  1  0  0  0
 21 23  1  0  0  0
 21 24  1  0  0  0
 12 13  1  0  0  0
M  END
> <minimizedAffinity>
-7.61942

$$$$
5ITO_6DB_A_304


 24 23  0  0  0  0  0  0  0  0999 V2000
   19.6131   -7.0547   -3.8661 C   0  0  0  0  0  0  0  0  0  0  0  0
   20.3829   -6.3087   -2.8029 C   0  0  0  0  0  0  0  0  0  0  0  0
   20.8422   -6.8976   -1.7785 O   0  0  0  0  0  0  0  0  0  0  0  0
   20.5855   -5.0736   -2.9467 O   0  0  0  0  0  0  0  0  0  0  0  0
   20.2506   -4.6284   -3.7001 H   0  0  0  0  0  0  0  0  0  0  0  0
   18.4375   -7.7296   -3.2638 N   0  0  0  0  0  0  0  0  0  0  0  0
   17.9969   -8.2848   -3.9973 H   0  0  0  0  0  0  0  0  0  0  0  0
   17.3828   -6.8773   -2.6603 C   0  0  0  0  0  0  0  0  0  0  0  0
   17.2562   -7.0555   -1.1713 C   0  0  0  0  0  0  0  0  0  0  0  0
   15.1213   -7.6848   -2.6123 O   0  0  0  0  0  0  0  0  0  0  0  0
   16.0083   -7.0761   -3.2739 C   0  0  0  0  0  0  0  0  0  0  0  0
   15.7987   -6.6446   -4.4356 O   0  0  0  0  0  0  0  0  0  0  0  0
   16.4790   -6.1970   -4.8989 H   0  0  0  0  0  0  0  0  0  0  0  0
   19.2803   -6.1022   -5.0094 C   0  0  0  0  0  0  0  0  0  0  0  0
   18.8396   -6.8035   -6.2650 C   0  0  0  0  0  0  0  0  0  0  0  0
   19.6300   -6.6088   -7.5007 C   0  0  0  0  0  0  0  0  0  0  0  0
   20.0376   -7.8816   -8.0487 N   0  0  0  0  0  0  0  0  0  0  0  0
   19.8606   -8.7030   -7.5358 H   0  0  0  0  0  0  0  0  0  0  0  0
   20.6905   -7.9797   -9.3148 C   0  0  0  0  0  0  0  0  0  0  0  0
   20.5259   -7.0833  -10.2249 N   0  0  0  0  0  0  0  0  0  0  0  0
   21.4908   -9.0016   -9.5093 N   0  0  0  0  0  0  0  0  0  0  0  0
   19.9219   -6.3229  -10.0633 H   0  0  0  0  0  0  0  0  0  0  0  0
   21.6057   -9.6782   -8.8034 H   0  0  0  0  0  0  0  0  0  0  0  0
   21.9762   -9.0915  -10.3610 H   0  0  0  0  0  0  0  0  0  0  0  0
 10 11  2  0  0  0
  9  8  1  0  0  0
 11 12  1  0  0  0
 11  8  1  0  0  0
  8  6  1  0  0  0
  6  1  1  0  0  0
  3  2  2  0  0  0
  1  2  1  0  0  0
  1 14  1  0  0  0
  2  4  1  0  0  0
 14 15  1  0  0  0
 15 16  1  0  0  0
 16 17  1  0  0  0
 17 19  1  0  0  0
 19 20  2  0  0  0
 19 21  1  0  0  0
  6  7  1  0  0  0
  4  5  1  0  0  0
 17 18  1  0  0  0
 20 22  1  0  0  0
 21 23  1  0  0  0
 21 24  1  0  0  0
 12 13  1  0  0  0
M  END
> <minimizedAffinity>
-7.54197

$$$$
5ITO_6DB_A_304


 24 23  0  0  0  0  0  0  0  0999 V2000
   17.9433   -7.3061   -4.2855 C   0  0  0  0  0  0  0  0  0  0  0  0
   16.5081   -6.9785   -3.9501 C   0  0  0  0  0  0  0  0  0  0  0  0
   15.9658   -7.3874   -2.8796 O   0  0  0  0  0  0  0  0  0  0  0  0
   15.8394   -6.2690   -4.7480 O   0  0  0  0  0  0  0  0  0  0  0  0
   16.2304   -5.9615   -5.5421 H   0  0  0  0  0  0  0  0  0  0  0  0
   18.1279   -7.3356   -5.7570 N   0  0  0  0  0  0  0  0  0  0  0  0
   18.2676   -8.3095   -6.0263 H   0  0  0  0  0  0  0  0  0  0  0  0
   19.2506   -6.5525   -6.3307 C   0  0  0  0  0  0  0  0  0  0  0  0
   18.9490   -5.0829   -6.4493 C   0  0  0  0  0  0  0  0  0  0  0  0
   20.6297   -7.9115   -7.7522 O   0  0  0  0  0  0  0  0  0  0  0  0
   19.7111   -7.0470   -7.6905 C   0  0  0  0  0  0  0  0  0  0  0  0
   19.1759   -6.5644   -8.7202 O   0  0  0  0  0  0  0  0  0  0  0  0
   18.4965   -5.9243   -8.6389 H   0  0  0  0  0  0  0  0  0  0  0  0
   18.8658   -6.3399   -3.5503 C   0  0  0  0  0  0  0  0  0  0  0  0
   19.7726   -7.0147   -2.5578 C   0  0  0  0  0  0  0  0  0  0  0  0
   19.4385   -6.9279   -1.1188 C   0  0  0  0  0  0  0  0  0  0  0  0
   18.3631   -5.9880   -0.9029 N   0  0  0  0  0  0  0  0  0  0  0  0
   18.2989   -5.1925   -1.4794 H   0  0  0  0  0  0  0  0  0  0  0  0
   17.3908   -6.1824    0.1245 C   0  0  0  0  0  0  0  0  0  0  0  0
   17.7334   -6.5503    1.3104 N   0  0  0  0  0  0  0  0  0  0  0  0
   16.1351   -5.9430   -0.1727 N   0  0  0  0  0  0  0  0  0  0  0  0
   18.6797   -6.7260    1.5171 H   0  0  0  0  0  0  0  0  0  0  0  0
   15.8898   -5.6625   -1.0840 H   0  0  0  0  0  0  0  0  0  0  0  0
   15.4384   -6.0439    0.5155 H   0  0  0  0  0  0  0  0  0  0  0  0
 10 11  2  0  0  0
  9  8  1  0  0  0
 11 12  1  0  0  0
 11  8  1  0  0  0
  8  6  1  0  0  0
  6  1  1  0  0  0
  3  2  2  0  0  0
  1  2  1  0  0  0
  1 14  1  0  0  0
  2  4  1  0  0  0
 14 15  1  0  0  0
 15 16  1  0  0  0
 16 17  1  0  0  0
 17 19  1  0  0  0
 19 20  2  0  0  0
 19 21  1  0  0  0
  6  7  1  0  0  0
  4  5  1  0  0  0
 17 18  1  0  0  0
 20 22  1  0  0  0
 21 23  1  0  0  0
 21 24  1  0  0  0
 12 13  1  0  0  0
M  END
> <minimizedAffinity>
-7.34885

$$$$
5ITO_6DB_A_304


 24 23  0  0  0  0  0  0  0  0999 V2000
   19.6639   -7.4421   -2.4571 C   0  0  0  0  0  0  0  0  0  0  0  0
   21.1124   -7.2283   -2.0884 C   0  0  0  0  0  0  0  0  0  0  0  0
   21.9086   -6.6076   -2.8552 O   0  0  0  0  0  0  0  0  0  0  0  0
   21.5342   -7.6652   -0.9846 O   0  0  0  0  0  0  0  0  0  0  0  0
   20.9541   -8.1252   -0.4103 H   0  0  0  0  0  0  0  0  0  0  0  0
   18.8651   -7.7226   -1.2392 N   0  0  0  0  0  0  0  0  0  0  0  0
   18.0455   -8.2560   -1.5293 H   0  0  0  0  0  0  0  0  0  0  0  0
   18.3814   -6.5653   -0.4457 C   0  0  0  0  0  0  0  0  0  0  0  0
   18.7473   -6.6508    1.0116 C   0  0  0  0  0  0  0  0  0  0  0  0
   16.2009   -7.0594   -1.3233 O   0  0  0  0  0  0  0  0  0  0  0  0
   16.8825   -6.3413   -0.5393 C   0  0  0  0  0  0  0  0  0  0  0  0
   16.3647   -5.4301    0.1544 O   0  0  0  0  0  0  0  0  0  0  0  0
   16.8995   -4.9154    0.7263 H   0  0  0  0  0  0  0  0  0  0  0  0
   19.1722   -6.2549   -3.2781 C   0  0  0  0  0  0  0  0  0  0  0  0
   18.0144   -6.5874   -4.1789 C   0  0  0  0  0  0  0  0  0  0  0  0
   18.0462   -6.1115   -5.5797 C   0  0  0  0  0  0  0  0  0  0  0  0
   19.3612   -6.2947   -6.1486 N   0  0  0  0  0  0  0  0  0  0  0  0
   20.1376   -5.8852   -5.7027 H   0  0  0  0  0  0  0  0  0  0  0  0
   19.5648   -7.0540   -7.3405 C   0  0  0  0  0  0  0  0  0  0  0  0
   19.9812   -8.2720   -7.2961 N   0  0  0  0  0  0  0  0  0  0  0  0
   19.2830   -6.4772   -8.4852 N   0  0  0  0  0  0  0  0  0  0  0  0
   20.1882   -8.6902   -6.4293 H   0  0  0  0  0  0  0  0  0  0  0  0
   18.9657   -5.5454   -8.5019 H   0  0  0  0  0  0  0  0  0  0  0  0
   19.3889   -6.9763   -9.3272 H   0  0  0  0  0  0  0  0  0  0  0  0
 10 11  2  0  0  0
  9  8  1  0  0  0
 11 12  1  0  0  0
 11  8  1  0  0  0
  8  6  1  0  0  0
  6  1  1  0  0  0
  3  2  2  0  0  0
  1  2  1  0  0  0
  1 14  1  0  0  0
  2  4  1  0  0  0
 14 15  1  0  0  0
 15 16  1  0  0  0
 16 17  1  0  0  0
 17 19  1  0  0  0
 19 20  2  0  0  0
 19 21  1  0  0  0
  6  7  1  0  0  0
  4  5  1  0  0  0
 17 18  1  0  0  0
 20 22  1  0  0  0
 21 23  1  0  0  0
 21 24  1  0  0  0
 12 13  1  0  0  0
M  END
> <minimizedAffinity>
-7.28884

$$$$
5ITO_6DB_A_304


 24 23  0  0  0  0  0  0  0  0999 V2000
   19.9799   -6.2964   -3.1156 C   0  0  0  0  0  0  0  0  0  0  0  0
   21.2221   -7.0770   -2.7587 C   0  0  0  0  0  0  0  0  0  0  0  0
   22.3618   -6.5243   -2.7053 O   0  0  0  0  0  0  0  0  0  0  0  0
   21.1189   -8.3042   -2.4933 O   0  0  0  0  0  0  0  0  0  0  0  0
   20.2814   -8.7227   -2.5297 H   0  0  0  0  0  0  0  0  0  0  0  0
   19.2809   -6.9445   -4.2521 N   0  0  0  0  0  0  0  0  0  0  0  0
   19.9964   -7.3112   -4.8799 H   0  0  0  0  0  0  0  0  0  0  0  0
   18.3623   -6.1109   -5.0672 C   0  0  0  0  0  0  0  0  0  0  0  0
   17.1416   -6.8569   -5.5344 C   0  0  0  0  0  0  0  0  0  0  0  0
   19.3318   -6.2167   -7.2622 O   0  0  0  0  0  0  0  0  0  0  0  0
   19.0205   -5.4826   -6.2828 C   0  0  0  0  0  0  0  0  0  0  0  0
   19.2555   -4.2481   -6.2703 O   0  0  0  0  0  0  0  0  0  0  0  0
   19.0113   -3.7322   -5.5272 H   0  0  0  0  0  0  0  0  0  0  0  0
   19.1242   -6.1123   -1.8670 C   0  0  0  0  0  0  0  0  0  0  0  0
   18.0752   -7.1769   -1.6968 C   0  0  0  0  0  0  0  0  0  0  0  0
   16.9317   -6.9083   -0.7968 C   0  0  0  0  0  0  0  0  0  0  0  0
   17.0252   -7.7150    0.3978 N   0  0  0  0  0  0  0  0  0  0  0  0
   16.4000   -8.4657    0.5193 H   0  0  0  0  0  0  0  0  0  0  0  0
   18.0005   -7.4523    1.4069 C   0  0  0  0  0  0  0  0  0  0  0  0
   18.3517   -6.2488    1.7024 N   0  0  0  0  0  0  0  0  0  0  0  0
   18.5064   -8.4805    2.0468 N   0  0  0  0  0  0  0  0  0  0  0  0
   17.9628   -5.4883    1.2128 H   0  0  0  0  0  0  0  0  0  0  0  0
   18.2275   -9.3942    1.8088 H   0  0  0  0  0  0  0  0  0  0  0  0
   19.1648   -8.3381    2.7648 H   0  0  0  0  0  0  0  0  0  0  0  0
 10 11  2  0  0  0
  9  8  1  0  0  0
 11 12  1  0  0  0
 11  8  1  0  0  0
  8  6  1  0  0  0
  6  1  1  0  0  0
  3  2  2  0  0  0
  1  2  1  0  0  0
  1 14  1  0  0  0
  2  4  1  0  0  0
 14 15  1  0  0  0
 15 16  1  0  0  0
 16 17  1  0  0  0
 17 19  1  0  0  0
 19 20  2  0  0  0
 19 21  1  0  0  0
  6  7  1  0  0  0
  4  5  1  0  0  0
 17 18  1  0  0  0
 20 22  1  0  0  0
 21 23  1  0  0  0
 21 24  1  0  0  0
 12 13  1  0  0  0
M  END
> <minimizedAffinity>
-6.99765

$$$$
5ITO_6DB_A_304


 24 23  0  0  0  0  0  0  0  0999 V2000
   19.5457   -6.3266   -3.5575 C   0  0  0  0  0  0  0  0  0  0  0  0
   19.5202   -6.2364   -5.0644 C   0  0  0  0  0  0  0  0  0  0  0  0
   19.2788   -5.1439   -5.6607 O   0  0  0  0  0  0  0  0  0  0  0  0
   19.7597   -7.2699   -5.7439 O   0  0  0  0  0  0  0  0  0  0  0  0
   19.9394   -8.0825   -5.3133 H   0  0  0  0  0  0  0  0  0  0  0  0
   18.5016   -7.2692   -3.0866 N   0  0  0  0  0  0  0  0  0  0  0  0
   18.5716   -8.1109   -3.6586 H   0  0  0  0  0  0  0  0  0  0  0  0
   17.0883   -6.8184   -3.1340 C   0  0  0  0  0  0  0  0  0  0  0  0
   16.2597   -7.3432   -1.9927 C   0  0  0  0  0  0  0  0  0  0  0  0
   15.4444   -6.4215   -4.8397 O   0  0  0  0  0  0  0  0  0  0  0  0
   16.3763   -7.1683   -4.4288 C   0  0  0  0  0  0  0  0  0  0  0  0
   16.7235   -8.2065   -5.0460 O   0  0  0  0  0  0  0  0  0  0  0  0
   17.4193   -8.7387   -4.7133 H   0  0  0  0  0  0  0  0  0  0  0  0
   20.9593   -6.6648   -3.0965 C   0  0  0  0  0  0  0  0  0  0  0  0
   21.0064   -7.7425   -2.0482 C   0  0  0  0  0  0  0  0  0  0  0  0
   20.6600   -7.3904   -0.6532 C   0  0  0  0  0  0  0  0  0  0  0  0
   19.3062   -7.7917   -0.3493 N   0  0  0  0  0  0  0  0  0  0  0  0
   18.8091   -8.3349   -1.0029 H   0  0  0  0  0  0  0  0  0  0  0  0
   18.6697   -7.4214    0.8740 C   0  0  0  0  0  0  0  0  0  0  0  0
   18.6896   -6.2055    1.2984 N   0  0  0  0  0  0  0  0  0  0  0  0
   18.0355   -8.3590    1.5383 N   0  0  0  0  0  0  0  0  0  0  0  0
   19.1700   -5.5139    0.7884 H   0  0  0  0  0  0  0  0  0  0  0  0
   18.0298   -9.2836    1.2003 H   0  0  0  0  0  0  0  0  0  0  0  0
   17.5653   -8.1376    2.3744 H   0  0  0  0  0  0  0  0  0  0  0  0
 10 11  2  0  0  0
  9  8  1  0  0  0
 11 12  1  0  0  0
 11  8  1  0  0  0
  8  6  1  0  0  0
  6  1  1  0  0  0
  3  2  2  0  0  0
  1  2  1  0  0  0
  1 14  1  0  0  0
  2  4  1  0  0  0
 14 15  1  0  0  0
 15 16  1  0  0  0
 16 17  1  0  0  0
 17 19  1  0  0  0
 19 20  2  0  0  0
 19 21  1  0  0  0
  6  7  1  0  0  0
  4  5  1  0  0  0
 17 18  1  0  0  0
 20 22  1  0  0  0
 21 23  1  0  0  0
 21 24  1  0  0  0
 12 13  1  0  0  0
M  END
> <minimizedAffinity>
-6.97069

$$$$
5ITO_6DB_A_304


 24 23  0  0  0  0  0  0  0  0999 V2000
   17.3132   -6.4783   -2.8019 C   0  0  0  0  0  0  0  0  0  0  0  0
   16.5581   -7.1544   -3.9209 C   0  0  0  0  0  0  0  0  0  0  0  0
   15.5153   -6.6391   -4.4251 O   0  0  0  0  0  0  0  0  0  0  0  0
   16.9850   -8.2500   -4.3733 O   0  0  0  0  0  0  0  0  0  0  0  0
   17.7549   -8.6396   -4.0079 H   0  0  0  0  0  0  0  0  0  0  0  0
   17.6360   -7.4616   -1.7392 N   0  0  0  0  0  0  0  0  0  0  0  0
   16.7887   -7.9986   -1.5544 H   0  0  0  0  0  0  0  0  0  0  0  0
   18.1224   -6.9408   -0.4373 C   0  0  0  0  0  0  0  0  0  0  0  0
   18.7457   -8.0009    0.4302 C   0  0  0  0  0  0  0  0  0  0  0  0
   16.3708   -5.3209   -0.1595 O   0  0  0  0  0  0  0  0  0  0  0  0
   17.0533   -6.2368    0.3794 C   0  0  0  0  0  0  0  0  0  0  0  0
   16.8919   -6.5740    1.5793 O   0  0  0  0  0  0  0  0  0  0  0  0
   17.4154   -7.2579    1.9483 H   0  0  0  0  0  0  0  0  0  0  0  0
   18.5217   -5.7485   -3.3782 C   0  0  0  0  0  0  0  0  0  0  0  0
   19.7645   -6.5943   -3.4297 C   0  0  0  0  0  0  0  0  0  0  0  0
   20.2834   -7.0125   -4.7509 C   0  0  0  0  0  0  0  0  0  0  0  0
   19.3842   -6.5999   -5.8034 N   0  0  0  0  0  0  0  0  0  0  0  0
   18.6459   -5.9848   -5.5894 H   0  0  0  0  0  0  0  0  0  0  0  0
   19.5380   -7.0607   -7.1461 C   0  0  0  0  0  0  0  0  0  0  0  0
   19.1374   -6.3555   -8.1466 N   0  0  0  0  0  0  0  0  0  0  0  0
   20.1311   -8.2172   -7.3285 N   0  0  0  0  0  0  0  0  0  0  0  0
   18.6942   -5.4899   -7.9928 H   0  0  0  0  0  0  0  0  0  0  0  0
   20.4314   -8.7442   -6.5530 H   0  0  0  0  0  0  0  0  0  0  0  0
   20.2756   -8.5579   -8.2408 H   0  0  0  0  0  0  0  0  0  0  0  0
 10 11  2  0  0  0
  9  8  1  0  0  0
 11 12  1  0  0  0
 11  8  1  0  0  0
  8  6  1  0  0  0
  6  1  1  0  0  0
  3  2  2  0  0  0
  1  2  1  0  0  0
  1 14  1  0  0  0
  2  4  1  0  0  0
 14 15  1  0  0  0
 15 16  1  0  0  0
 16 17  1  0  0  0
 17 19  1  0  0  0
 19 20  2  0  0  0
 19 21  1  0  0  0
  6  7  1  0  0  0
  4  5  1  0  0  0
 17 18  1  0  0  0
 20 22  1  0  0  0
 21 23  1  0  0  0
 21 24  1  0  0  0
 12 13  1  0  0  0
M  END
> <minimizedAffinity>
-6.54153

$$$$
5ITO_6DB_A_304


 24 23  0  0  0  0  0  0  0  0999 V2000
   19.0999   -6.9163   -5.5342 C   0  0  0  0  0  0  0  0  0  0  0  0
   19.5881   -6.7809   -6.9565 C   0  0  0  0  0  0  0  0  0  0  0  0
   20.2807   -7.6868   -7.5105 O   0  0  0  0  0  0  0  0  0  0  0  0
   19.2860   -5.7482   -7.6120 O   0  0  0  0  0  0  0  0  0  0  0  0
   18.7744   -5.0726   -7.2122 H   0  0  0  0  0  0  0  0  0  0  0  0
   20.2503   -6.9007   -4.5979 N   0  0  0  0  0  0  0  0  0  0  0  0
   20.6019   -7.8560   -4.5324 H   0  0  0  0  0  0  0  0  0  0  0  0
   20.0110   -6.4216   -3.2136 C   0  0  0  0  0  0  0  0  0  0  0  0
   20.5644   -5.0456   -2.9583 C   0  0  0  0  0  0  0  0  0  0  0  0
   20.2675   -7.1256   -0.9316 O   0  0  0  0  0  0  0  0  0  0  0  0
   20.5526   -7.3502   -2.1413 C   0  0  0  0  0  0  0  0  0  0  0  0
   21.2885   -8.3079   -2.4888 O   0  0  0  0  0  0  0  0  0  0  0  0
   21.4803   -8.4463   -3.3955 H   0  0  0  0  0  0  0  0  0  0  0  0
   18.0449   -5.8501   -5.2598 C   0  0  0  0  0  0  0  0  0  0  0  0
   16.7658   -6.4040   -4.6942 C   0  0  0  0  0  0  0  0  0  0  0  0
   16.8462   -7.4487   -3.6493 C   0  0  0  0  0  0  0  0  0  0  0  0
   16.1908   -7.0085   -2.4396 N   0  0  0  0  0  0  0  0  0  0  0  0
   15.2087   -6.9415   -2.4238 H   0  0  0  0  0  0  0  0  0  0  0  0
   16.9298   -6.6682   -1.2663 C   0  0  0  0  0  0  0  0  0  0  0  0
   17.4355   -5.4940   -1.1099 N   0  0  0  0  0  0  0  0  0  0  0  0
   17.0507   -7.5857   -0.3356 N   0  0  0  0  0  0  0  0  0  0  0  0
   17.3361   -4.8170   -1.8177 H   0  0  0  0  0  0  0  0  0  0  0  0
   16.6582   -8.4785   -0.4707 H   0  0  0  0  0  0  0  0  0  0  0  0
   17.5337   -7.3813    0.4975 H   0  0  0  0  0  0  0  0  0  0  0  0
 10 11  2  0  0  0
  9  8  1  0  0  0
 11 12  1  0  0  0
 11  8  1  0  0  0
  8  6  1  0  0  0
  6  1  1  0  0  0
  3  2  2  0  0  0
  1  2  1  0  0  0
  1 14  1  0  0  0
  2  4  1  0  0  0
 14 15  1  0  0  0
 15 16  1  0  0  0
 16 17  1  0  0  0
 17 19  1  0  0  0
 19 20  2  0  0  0
 19 21  1  0  0  0
  6  7  1  0  0  0
  4  5  1  0  0  0
 17 18  1  0  0  0
 20 22  1  0  0  0
 21 23  1  0  0  0
 21 24  1  0  0  0
 12 13  1  0  0  0
M  END
> <minimizedAffinity>
-6.50713

$$$$
