2Q64_1UN_B_1001


 44 47  0  0  0  0  0  0  0  0999 V2000
   -9.8971   16.7645   27.0510 C   0  0  0  0  0  0  0  0  0  0  0  0
   -9.9797   18.1790   26.8411 O   0  0  0  0  0  0  0  0  0  0  0  0
   -9.4672   18.6379   27.5250 H   0  0  0  0  0  0  0  0  0  0  0  0
  -10.5159   16.4148   28.3996 C   0  0  0  0  0  0  0  0  0  0  0  0
  -12.7023   13.4453   27.6002 C   0  0  0  0  0  0  0  0  0  0  0  0
  -12.8443   12.8701   29.0180 C   0  0  0  0  0  0  0  0  0  0  0  0
  -13.1997   11.3771   28.9922 C   0  0  0  0  0  0  0  0  0  0  0  0
  -12.2253   10.5702   28.1245 C   0  0  0  0  0  0  0  0  0  0  0  0
  -12.1272   11.1350   26.7074 C   0  0  0  0  0  0  0  0  0  0  0  0
  -11.7613   12.6162   26.7139 C   0  0  0  0  0  0  0  0  0  0  0  0
  -10.9432   15.0095   28.4037 N   0  0  0  0  0  0  0  0  0  0  0  0
  -11.0237   14.5076   29.8040 C   0  0  0  0  0  0  0  0  0  0  0  0
  -11.5912   13.0861   29.8776 C   0  0  0  0  0  0  0  0  0  0  0  0
  -12.2253   14.8945   27.6654 C   0  0  0  0  0  0  0  0  0  0  0  0
   -9.6730   14.4828   30.4818 C   0  0  0  0  0  0  0  0  0  0  0  0
   -9.6575   15.0283   31.7055 N   0  0  0  0  0  0  0  0  0  0  0  0
   -8.6953   13.9852   29.9305 O   0  0  0  0  0  0  0  0  0  0  0  0
  -10.5277   15.2960   32.0802 H   0  0  0  0  0  0  0  0  0  0  0  0
   -8.4892   15.2659   32.5374 C   0  0  0  0  0  0  0  0  0  0  0  0
   -7.5519   16.2919   31.9051 C   0  0  0  0  0  0  0  0  0  0  0  0
   -7.7823   13.9371   32.7699 C   0  0  0  0  0  0  0  0  0  0  0  0
   -8.9712   15.8139   33.8748 C   0  0  0  0  0  0  0  0  0  0  0  0
   -8.4558   16.2891   26.9038 C   0  0  0  0  0  0  0  0  0  0  0  0
   -8.0149   16.6213   25.5599 N   0  0  0  0  0  0  0  0  0  0  0  0
   -7.5206   15.7425   24.6798 C   0  0  0  0  0  0  0  0  0  0  0  0
   -7.3705   14.5509   24.9199 O   0  0  0  0  0  0  0  0  0  0  0  0
   -8.0848   17.5614   25.2760 H   0  0  0  0  0  0  0  0  0  0  0  0
   -7.1564   16.2753   23.3200 C   0  0  0  0  0  0  0  0  0  0  0  0
   -5.9197   16.8985   23.1014 C   0  0  0  0  0  0  0  0  0  0  0  0
   -5.5705   17.4132   21.8520 C   0  0  0  0  0  0  0  0  0  0  0  0
   -6.4412   17.3310   20.7638 C   0  0  0  0  0  0  0  0  0  0  0  0
   -7.6994   16.7330   20.8831 C   0  0  0  0  0  0  0  0  0  0  0  0
   -8.1202   16.1697   22.1879 C   0  0  0  0  0  0  0  0  0  0  0  0
   -8.5481   16.6487   19.8239 O   0  0  0  0  0  0  0  0  0  0  0  0
   -9.4806   15.5227   22.3387 C   0  0  0  0  0  0  0  0  0  0  0  0
   -8.2963   17.0002   18.9926 H   0  0  0  0  0  0  0  0  0  0  0  0
   -7.5200   16.8983   27.9482 C   0  0  0  0  0  0  0  0  0  0  0  0
   -5.9943   16.0167   28.0143 S   0  0  0  0  0  0  0  0  0  0  0  0
   -4.9238   16.8065   26.9483 C   0  0  0  0  0  0  0  0  0  0  0  0
   -3.9634   16.0633   26.2525 C   0  0  0  0  0  0  0  0  0  0  0  0
   -3.0841   16.7057   25.3760 C   0  0  0  0  0  0  0  0  0  0  0  0
   -3.1574   18.0861   25.1911 C   0  0  0  0  0  0  0  0  0  0  0  0
   -4.1111   18.8341   25.8826 C   0  0  0  0  0  0  0  0  0  0  0  0
   -4.9909   18.1954   26.7581 C   0  0  0  0  0  0  0  0  0  0  0  0
  5  6  1  0  0  0
  5 10  1  0  0  0
  5 14  1  0  0  0
  6  7  1  0  0  0
  6 13  1  0  0  0
  7  8  1  0  0  0
  8  9  1  0  0  0
  9 10  1  0  0  0
 11 12  1  0  0  0
 11 14  1  0  0  0
 11  4  1  0  0  0
 12 13  1  0  0  0
 12 15  1  0  0  0
 15 16  1  0  0  0
 15 17  2  0  0  0
 16 19  1  0  0  0
 19 20  1  0  0  0
 19 21  1  0  0  0
 19 22  1  0  0  0
  4  1  1  0  0  0
  1 23  1  0  0  0
  1  2  1  0  0  0
 23 24  1  0  0  0
 23 37  1  0  0  0
 24 25  1  0  0  0
 37 38  1  0  0  0
 25 26  2  0  0  0
 25 28  1  0  0  0
 28 29  2  0  0  0
 28 33  1  0  0  0
 29 30  1  0  0  0
 30 31  2  0  0  0
 31 32  1  0  0  0
 32 33  2  0  0  0
 32 34  1  0  0  0
 33 35  1  0  0  0
 38 39  1  0  0  0
 39 40  2  0  0  0
 39 44  1  0  0  0
 40 41  1  0  0  0
 41 42  2  0  0  0
 42 43  1  0  0  0
 43 44  2  0  0  0
 16 18  1  0  0  0
  2  3  1  0  0  0
 24 27  1  0  0  0
 34 36  1  0  0  0
M  END
> <minimizedAffinity>
-11.24751

$$$$
2Q64_1UN_B_1001


 44 47  0  0  0  0  0  0  0  0999 V2000
   -9.5875   16.9888   27.1977 C   0  0  0  0  0  0  0  0  0  0  0  0
  -10.7601   17.7767   27.4346 O   0  0  0  0  0  0  0  0  0  0  0  0
  -11.4286   17.5719   26.7623 H   0  0  0  0  0  0  0  0  0  0  0  0
   -8.9981   17.3523   25.8396 C   0  0  0  0  0  0  0  0  0  0  0  0
   -5.3397   17.8475   26.6195 C   0  0  0  0  0  0  0  0  0  0  0  0
   -4.7757   17.7083   25.1970 C   0  0  0  0  0  0  0  0  0  0  0  0
   -3.2942   17.3068   25.2103 C   0  0  0  0  0  0  0  0  0  0  0  0
   -3.0456   16.0586   26.0668 C   0  0  0  0  0  0  0  0  0  0  0  0
   -3.5796   16.2313   27.4886 C   0  0  0  0  0  0  0  0  0  0  0  0
   -5.0555   16.6178   27.4946 C   0  0  0  0  0  0  0  0  0  0  0  0
   -7.5595   17.0559   25.8240 N   0  0  0  0  0  0  0  0  0  0  0  0
   -7.0892   16.8977   24.4195 C   0  0  0  0  0  0  0  0  0  0  0  0
   -5.5698   16.7175   24.3348 C   0  0  0  0  0  0  0  0  0  0  0  0
   -6.8410   18.1215   26.5660 C   0  0  0  0  0  0  0  0  0  0  0  0
   -7.7172   15.7046   23.7363 C   0  0  0  0  0  0  0  0  0  0  0  0
   -8.3139   15.9852   22.5699 N   0  0  0  0  0  0  0  0  0  0  0  0
   -7.6560   14.5838   24.2336 O   0  0  0  0  0  0  0  0  0  0  0  0
   -8.2021   16.9009   22.2262 H   0  0  0  0  0  0  0  0  0  0  0  0
   -9.1094   15.0777   21.7592 C   0  0  0  0  0  0  0  0  0  0  0  0
  -10.4643   14.7945   22.4031 C   0  0  0  0  0  0  0  0  0  0  0  0
   -8.3157   13.7950   21.5485 C   0  0  0  0  0  0  0  0  0  0  0  0
   -9.3473   15.7432   20.4095 C   0  0  0  0  0  0  0  0  0  0  0  0
   -9.9067   15.5049   27.3426 C   0  0  0  0  0  0  0  0  0  0  0  0
  -10.3550   15.2794   28.7060 N   0  0  0  0  0  0  0  0  0  0  0  0
   -9.7327   14.4950   29.5941 C   0  0  0  0  0  0  0  0  0  0  0  0
   -8.7136   13.8625   29.3462 O   0  0  0  0  0  0  0  0  0  0  0  0
  -11.1764   15.7369   28.9979 H   0  0  0  0  0  0  0  0  0  0  0  0
  -10.3322   14.4220   30.9729 C   0  0  0  0  0  0  0  0  0  0  0  0
  -11.5290   13.7276   31.1988 C   0  0  0  0  0  0  0  0  0  0  0  0
  -12.1089   13.6625   32.4666 C   0  0  0  0  0  0  0  0  0  0  0  0
  -11.5211   14.2894   33.5669 C   0  0  0  0  0  0  0  0  0  0  0  0
  -10.3300   15.0109   33.4418 C   0  0  0  0  0  0  0  0  0  0  0  0
   -9.6719   15.1115   32.1175 C   0  0  0  0  0  0  0  0  0  0  0  0
   -9.7536   15.6198   34.5125 O   0  0  0  0  0  0  0  0  0  0  0  0
   -8.3844   15.8922   31.9605 C   0  0  0  0  0  0  0  0  0  0  0  0
  -10.1577   15.5652   35.3562 H   0  0  0  0  0  0  0  0  0  0  0  0
  -10.9549   15.0222   26.3397 C   0  0  0  0  0  0  0  0  0  0  0  0
  -10.9889   13.2608   26.2659 S   0  0  0  0  0  0  0  0  0  0  0  0
  -12.1722   12.7451   27.3795 C   0  0  0  0  0  0  0  0  0  0  0  0
  -13.3265   13.5130   27.5709 C   0  0  0  0  0  0  0  0  0  0  0  0
  -14.3007   13.0940   28.4817 C   0  0  0  0  0  0  0  0  0  0  0  0
  -14.1285   11.9130   29.2033 C   0  0  0  0  0  0  0  0  0  0  0  0
  -12.9795   11.1427   29.0191 C   0  0  0  0  0  0  0  0  0  0  0  0
  -12.0052   11.5584   28.1100 C   0  0  0  0  0  0  0  0  0  0  0  0
  5  6  1  0  0  0
  5 10  1  0  0  0
  5 14  1  0  0  0
  6  7  1  0  0  0
  6 13  1  0  0  0
  7  8  1  0  0  0
  8  9  1  0  0  0
  9 10  1  0  0  0
 11 12  1  0  0  0
 11 14  1  0  0  0
 11  4  1  0  0  0
 12 13  1  0  0  0
 12 15  1  0  0  0
 15 16  1  0  0  0
 15 17  2  0  0  0
 16 19  1  0  0  0
 19 20  1  0  0  0
 19 21  1  0  0  0
 19 22  1  0  0  0
  4  1  1  0  0  0
  1 23  1  0  0  0
  1  2  1  0  0  0
 23 24  1  0  0  0
 23 37  1  0  0  0
 24 25  1  0  0  0
 37 38  1  0  0  0
 25 26  2  0  0  0
 25 28  1  0  0  0
 28 29  2  0  0  0
 28 33  1  0  0  0
 29 30  1  0  0  0
 30 31  2  0  0  0
 31 32  1  0  0  0
 32 33  2  0  0  0
 32 34  1  0  0  0
 33 35  1  0  0  0
 38 39  1  0  0  0
 39 40  2  0  0  0
 39 44  1  0  0  0
 40 41  1  0  0  0
 41 42  2  0  0  0
 42 43  1  0  0  0
 43 44  2  0  0  0
 16 18  1  0  0  0
  2  3  1  0  0  0
 24 27  1  0  0  0
 34 36  1  0  0  0
M  END
> <minimizedAffinity>
-10.86762

$$$$
2Q64_1UN_B_1001


 44 47  0  0  0  0  0  0  0  0999 V2000
  -10.0205   16.7507   27.1079 C   0  0  0  0  0  0  0  0  0  0  0  0
  -10.2042   18.1674   27.0030 O   0  0  0  0  0  0  0  0  0  0  0  0
   -9.5828   18.6187   27.5954 H   0  0  0  0  0  0  0  0  0  0  0  0
  -10.3354   16.3023   28.5305 C   0  0  0  0  0  0  0  0  0  0  0  0
  -12.6137   13.4306   27.6358 C   0  0  0  0  0  0  0  0  0  0  0  0
  -12.8554   12.8743   29.0476 C   0  0  0  0  0  0  0  0  0  0  0  0
  -13.2782   11.3992   29.0121 C   0  0  0  0  0  0  0  0  0  0  0  0
  -12.2990   10.5409   28.2010 C   0  0  0  0  0  0  0  0  0  0  0  0
  -12.1015   11.0888   26.7877 C   0  0  0  0  0  0  0  0  0  0  0  0
  -11.6678   12.5515   26.8045 C   0  0  0  0  0  0  0  0  0  0  0  0
  -10.8273   14.9183   28.5206 N   0  0  0  0  0  0  0  0  0  0  0  0
  -11.0034   14.4323   29.9177 C   0  0  0  0  0  0  0  0  0  0  0  0
  -11.6397   13.0392   29.9700 C   0  0  0  0  0  0  0  0  0  0  0  0
  -12.0736   14.8567   27.7173 C   0  0  0  0  0  0  0  0  0  0  0  0
   -9.6922   14.3505   30.6650 C   0  0  0  0  0  0  0  0  0  0  0  0
   -9.6569   15.0608   31.8006 N   0  0  0  0  0  0  0  0  0  0  0  0
   -8.7619   13.6703   30.2418 O   0  0  0  0  0  0  0  0  0  0  0  0
  -10.5018   15.4775   32.0867 H   0  0  0  0  0  0  0  0  0  0  0  0
   -8.5006   15.2802   32.6539 C   0  0  0  0  0  0  0  0  0  0  0  0
   -7.7166   13.9891   32.8760 C   0  0  0  0  0  0  0  0  0  0  0  0
   -8.9781   15.8737   33.9728 C   0  0  0  0  0  0  0  0  0  0  0  0
   -7.5893   16.2832   31.9577 C   0  0  0  0  0  0  0  0  0  0  0  0
   -8.6209   16.3610   26.6452 C   0  0  0  0  0  0  0  0  0  0  0  0
   -8.6269   16.3310   25.1927 N   0  0  0  0  0  0  0  0  0  0  0  0
   -8.1168   15.3432   24.4476 C   0  0  0  0  0  0  0  0  0  0  0  0
   -7.5693   14.3522   24.9149 O   0  0  0  0  0  0  0  0  0  0  0  0
   -9.0361   17.0929   24.7222 H   0  0  0  0  0  0  0  0  0  0  0  0
   -8.2568   15.4769   22.9549 C   0  0  0  0  0  0  0  0  0  0  0  0
   -9.1898   14.7036   22.2499 C   0  0  0  0  0  0  0  0  0  0  0  0
   -9.3231   14.8015   20.8641 C   0  0  0  0  0  0  0  0  0  0  0  0
   -8.5294   15.6750   20.1183 C   0  0  0  0  0  0  0  0  0  0  0  0
   -7.5666   16.4837   20.7295 C   0  0  0  0  0  0  0  0  0  0  0  0
   -7.3839   16.4195   22.1990 C   0  0  0  0  0  0  0  0  0  0  0  0
   -6.7943   17.3378   20.0058 O   0  0  0  0  0  0  0  0  0  0  0  0
   -6.3433   17.2835   22.8791 C   0  0  0  0  0  0  0  0  0  0  0  0
   -6.8981   17.3897   19.0760 H   0  0  0  0  0  0  0  0  0  0  0  0
   -7.5387   17.3082   27.1641 C   0  0  0  0  0  0  0  0  0  0  0  0
   -6.0529   16.4285   27.5210 S   0  0  0  0  0  0  0  0  0  0  0  0
   -4.8916   16.9437   26.3842 C   0  0  0  0  0  0  0  0  0  0  0  0
   -4.1644   15.9949   25.6564 C   0  0  0  0  0  0  0  0  0  0  0  0
   -3.2120   16.4119   24.7219 C   0  0  0  0  0  0  0  0  0  0  0  0
   -2.9808   17.7710   24.5107 C   0  0  0  0  0  0  0  0  0  0  0  0
   -3.7008   18.7230   25.2336 C   0  0  0  0  0  0  0  0  0  0  0  0
   -4.6528   18.3096   26.1671 C   0  0  0  0  0  0  0  0  0  0  0  0
  5  6  1  0  0  0
  5 10  1  0  0  0
  5 14  1  0  0  0
  6  7  1  0  0  0
  6 13  1  0  0  0
  7  8  1  0  0  0
  8  9  1  0  0  0
  9 10  1  0  0  0
 11 12  1  0  0  0
 11 14  1  0  0  0
 11  4  1  0  0  0
 12 13  1  0  0  0
 12 15  1  0  0  0
 15 16  1  0  0  0
 15 17  2  0  0  0
 16 19  1  0  0  0
 19 20  1  0  0  0
 19 21  1  0  0  0
 19 22  1  0  0  0
  4  1  1  0  0  0
  1 23  1  0  0  0
  1  2  1  0  0  0
 23 24  1  0  0  0
 23 37  1  0  0  0
 24 25  1  0  0  0
 37 38  1  0  0  0
 25 26  2  0  0  0
 25 28  1  0  0  0
 28 29  2  0  0  0
 28 33  1  0  0  0
 29 30  1  0  0  0
 30 31  2  0  0  0
 31 32  1  0  0  0
 32 33  2  0  0  0
 32 34  1  0  0  0
 33 35  1  0  0  0
 38 39  1  0  0  0
 39 40  2  0  0  0
 39 44  1  0  0  0
 40 41  1  0  0  0
 41 42  2  0  0  0
 42 43  1  0  0  0
 43 44  2  0  0  0
 16 18  1  0  0  0
  2  3  1  0  0  0
 24 27  1  0  0  0
 34 36  1  0  0  0
M  END
> <minimizedAffinity>
-10.74539

$$$$
2Q64_1UN_B_1001


 44 47  0  0  0  0  0  0  0  0999 V2000
   -7.4883   15.8977   28.0166 C   0  0  0  0  0  0  0  0  0  0  0  0
   -7.4617   14.4797   27.8155 O   0  0  0  0  0  0  0  0  0  0  0  0
   -7.9883   14.2542   27.0327 H   0  0  0  0  0  0  0  0  0  0  0  0
   -8.9209   16.3453   28.2834 C   0  0  0  0  0  0  0  0  0  0  0  0
  -11.7466   14.2595   26.9042 C   0  0  0  0  0  0  0  0  0  0  0  0
  -12.4884   13.9711   28.2186 C   0  0  0  0  0  0  0  0  0  0  0  0
  -13.3590   12.7111   28.1148 C   0  0  0  0  0  0  0  0  0  0  0  0
  -12.5603   11.5017   27.6120 C   0  0  0  0  0  0  0  0  0  0  0  0
  -11.8613   11.7960   26.2849 C   0  0  0  0  0  0  0  0  0  0  0  0
  -10.9805   13.0387   26.3739 C   0  0  0  0  0  0  0  0  0  0  0  0
   -9.8301   15.1960   28.1836 N   0  0  0  0  0  0  0  0  0  0  0  0
  -10.4850   14.9514   29.4990 C   0  0  0  0  0  0  0  0  0  0  0  0
  -11.5436   13.8461   29.4218 C   0  0  0  0  0  0  0  0  0  0  0  0
  -10.7964   15.4413   27.0844 C   0  0  0  0  0  0  0  0  0  0  0  0
   -9.4940   14.5442   30.5651 C   0  0  0  0  0  0  0  0  0  0  0  0
   -9.6320   15.1964   31.7274 N   0  0  0  0  0  0  0  0  0  0  0  0
   -8.6532   13.6755   30.3514 O   0  0  0  0  0  0  0  0  0  0  0  0
  -10.4114   15.7924   31.8090 H   0  0  0  0  0  0  0  0  0  0  0  0
   -8.7503   15.1153   32.8804 C   0  0  0  0  0  0  0  0  0  0  0  0
   -8.7312   13.7080   33.4718 C   0  0  0  0  0  0  0  0  0  0  0  0
   -9.2027   16.1437   33.9088 C   0  0  0  0  0  0  0  0  0  0  0  0
   -7.3411   15.4620   32.4166 C   0  0  0  0  0  0  0  0  0  0  0  0
   -6.8391   16.6135   26.8372 C   0  0  0  0  0  0  0  0  0  0  0  0
   -7.6652   16.3762   25.6658 N   0  0  0  0  0  0  0  0  0  0  0  0
   -7.2768   15.6903   24.5842 C   0  0  0  0  0  0  0  0  0  0  0  0
   -6.1639   15.1948   24.4567 O   0  0  0  0  0  0  0  0  0  0  0  0
   -8.5772   16.7470   25.6679 H   0  0  0  0  0  0  0  0  0  0  0  0
   -8.2939   15.5179   23.4882 C   0  0  0  0  0  0  0  0  0  0  0  0
   -9.3817   14.6482   23.6493 C   0  0  0  0  0  0  0  0  0  0  0  0
  -10.3260   14.4627   22.6385 C   0  0  0  0  0  0  0  0  0  0  0  0
  -10.2264   15.1359   21.4195 C   0  0  0  0  0  0  0  0  0  0  0  0
   -9.1745   16.0199   21.1611 C   0  0  0  0  0  0  0  0  0  0  0  0
   -8.1442   16.2538   22.2007 C   0  0  0  0  0  0  0  0  0  0  0  0
   -9.0769   16.6793   19.9758 O   0  0  0  0  0  0  0  0  0  0  0  0
   -6.9947   17.2034   21.9383 C   0  0  0  0  0  0  0  0  0  0  0  0
   -9.7205   16.5418   19.3088 H   0  0  0  0  0  0  0  0  0  0  0  0
   -6.6578   18.1123   27.0789 C   0  0  0  0  0  0  0  0  0  0  0  0
   -4.9473   18.5328   27.1595 S   0  0  0  0  0  0  0  0  0  0  0  0
   -4.2049   17.8355   25.7924 C   0  0  0  0  0  0  0  0  0  0  0  0
   -3.3578   16.7326   25.9497 C   0  0  0  0  0  0  0  0  0  0  0  0
   -2.7476   16.1559   24.8319 C   0  0  0  0  0  0  0  0  0  0  0  0
   -2.9776   16.6750   23.5580 C   0  0  0  0  0  0  0  0  0  0  0  0
   -3.8196   17.7755   23.3933 C   0  0  0  0  0  0  0  0  0  0  0  0
   -4.4308   18.3531   24.5076 C   0  0  0  0  0  0  0  0  0  0  0  0
  5  6  1  0  0  0
  5 10  1  0  0  0
  5 14  1  0  0  0
  6  7  1  0  0  0
  6 13  1  0  0  0
  7  8  1  0  0  0
  8  9  1  0  0  0
  9 10  1  0  0  0
 11 12  1  0  0  0
 11 14  1  0  0  0
 11  4  1  0  0  0
 12 13  1  0  0  0
 12 15  1  0  0  0
 15 16  1  0  0  0
 15 17  2  0  0  0
 16 19  1  0  0  0
 19 20  1  0  0  0
 19 21  1  0  0  0
 19 22  1  0  0  0
  4  1  1  0  0  0
  1 23  1  0  0  0
  1  2  1  0  0  0
 23 24  1  0  0  0
 23 37  1  0  0  0
 24 25  1  0  0  0
 37 38  1  0  0  0
 25 26  2  0  0  0
 25 28  1  0  0  0
 28 29  2  0  0  0
 28 33  1  0  0  0
 29 30  1  0  0  0
 30 31  2  0  0  0
 31 32  1  0  0  0
 32 33  2  0  0  0
 32 34  1  0  0  0
 33 35  1  0  0  0
 38 39  1  0  0  0
 39 40  2  0  0  0
 39 44  1  0  0  0
 40 41  1  0  0  0
 41 42  2  0  0  0
 42 43  1  0  0  0
 43 44  2  0  0  0
 16 18  1  0  0  0
  2  3  1  0  0  0
 24 27  1  0  0  0
 34 36  1  0  0  0
M  END
> <minimizedAffinity>
-10.50704

$$$$
2Q64_1UN_B_1001


 44 47  0  0  0  0  0  0  0  0999 V2000
   -9.9665   14.3633   26.2762 C   0  0  0  0  0  0  0  0  0  0  0  0
   -8.7448   13.6465   26.4894 O   0  0  0  0  0  0  0  0  0  0  0  0
   -8.2939   14.0015   27.2714 H   0  0  0  0  0  0  0  0  0  0  0  0
   -9.6527   15.8290   25.9985 C   0  0  0  0  0  0  0  0  0  0  0  0
   -6.4448   17.2209   27.4161 C   0  0  0  0  0  0  0  0  0  0  0  0
   -5.8387   17.7804   26.1197 C   0  0  0  0  0  0  0  0  0  0  0  0
   -4.3135   17.9212   26.2204 C   0  0  0  0  0  0  0  0  0  0  0  0
   -3.6449   16.6147   26.6668 C   0  0  0  0  0  0  0  0  0  0  0  0
   -4.2352   16.0949   27.9775 C   0  0  0  0  0  0  0  0  0  0  0  0
   -5.7502   15.9362   27.8909 C   0  0  0  0  0  0  0  0  0  0  0  0
   -8.2052   16.0576   26.0990 N   0  0  0  0  0  0  0  0  0  0  0  0
   -7.6797   16.5627   24.7999 C   0  0  0  0  0  0  0  0  0  0  0  0
   -6.1979   16.9440   24.8839 C   0  0  0  0  0  0  0  0  0  0  0  0
   -7.9411   16.9757   27.2347 C   0  0  0  0  0  0  0  0  0  0  0  0
   -7.8143   15.5429   23.6924 C   0  0  0  0  0  0  0  0  0  0  0  0
   -8.2670   16.0405   22.5336 N   0  0  0  0  0  0  0  0  0  0  0  0
   -7.5136   14.3664   23.8731 O   0  0  0  0  0  0  0  0  0  0  0  0
   -8.3704   17.0183   22.4838 H   0  0  0  0  0  0  0  0  0  0  0  0
   -8.6213   15.2864   21.3423 C   0  0  0  0  0  0  0  0  0  0  0  0
   -9.2920   16.1745   20.2973 C   0  0  0  0  0  0  0  0  0  0  0  0
   -9.5253   14.1311   21.7520 C   0  0  0  0  0  0  0  0  0  0  0  0
   -7.3369   14.7256   20.7449 C   0  0  0  0  0  0  0  0  0  0  0  0
  -10.9145   14.1587   27.4527 C   0  0  0  0  0  0  0  0  0  0  0  0
  -10.2949   14.7463   28.6282 N   0  0  0  0  0  0  0  0  0  0  0  0
   -9.9658   14.0708   29.7357 C   0  0  0  0  0  0  0  0  0  0  0  0
  -10.1674   12.8721   29.8862 O   0  0  0  0  0  0  0  0  0  0  0  0
  -10.1032   15.7118   28.6085 H   0  0  0  0  0  0  0  0  0  0  0  0
   -9.2934   14.8519   30.8327 C   0  0  0  0  0  0  0  0  0  0  0  0
   -7.9752   15.3061   30.6854 C   0  0  0  0  0  0  0  0  0  0  0  0
   -7.3292   16.0176   31.6975 C   0  0  0  0  0  0  0  0  0  0  0  0
   -7.9693   16.3066   32.9041 C   0  0  0  0  0  0  0  0  0  0  0  0
   -9.2819   15.8914   33.1482 C   0  0  0  0  0  0  0  0  0  0  0  0
  -10.0143   15.1328   32.1066 C   0  0  0  0  0  0  0  0  0  0  0  0
   -9.9089   16.1744   34.3214 O   0  0  0  0  0  0  0  0  0  0  0  0
  -11.4345   14.6701   32.3538 C   0  0  0  0  0  0  0  0  0  0  0  0
   -9.4590   16.6532   34.9895 H   0  0  0  0  0  0  0  0  0  0  0  0
  -12.2993   14.7601   27.2112 C   0  0  0  0  0  0  0  0  0  0  0  0
  -13.5253   13.4962   27.1192 S   0  0  0  0  0  0  0  0  0  0  0  0
  -13.3201   12.5114   28.4955 C   0  0  0  0  0  0  0  0  0  0  0  0
  -13.6855   12.9963   29.7565 C   0  0  0  0  0  0  0  0  0  0  0  0
  -13.5207   12.1924   30.8882 C   0  0  0  0  0  0  0  0  0  0  0  0
  -12.9921   10.9073   30.7682 C   0  0  0  0  0  0  0  0  0  0  0  0
  -12.6239   10.4174   29.5145 C   0  0  0  0  0  0  0  0  0  0  0  0
  -12.7878   11.2177   28.3826 C   0  0  0  0  0  0  0  0  0  0  0  0
  5  6  1  0  0  0
  5 10  1  0  0  0
  5 14  1  0  0  0
  6  7  1  0  0  0
  6 13  1  0  0  0
  7  8  1  0  0  0
  8  9  1  0  0  0
  9 10  1  0  0  0
 11 12  1  0  0  0
 11 14  1  0  0  0
 11  4  1  0  0  0
 12 13  1  0  0  0
 12 15  1  0  0  0
 15 16  1  0  0  0
 15 17  2  0  0  0
 16 19  1  0  0  0
 19 20  1  0  0  0
 19 21  1  0  0  0
 19 22  1  0  0  0
  4  1  1  0  0  0
  1 23  1  0  0  0
  1  2  1  0  0  0
 23 24  1  0  0  0
 23 37  1  0  0  0
 24 25  1  0  0  0
 37 38  1  0  0  0
 25 26  2  0  0  0
 25 28  1  0  0  0
 28 29  2  0  0  0
 28 33  1  0  0  0
 29 30  1  0  0  0
 30 31  2  0  0  0
 31 32  1  0  0  0
 32 33  2  0  0  0
 32 34  1  0  0  0
 33 35  1  0  0  0
 38 39  1  0  0  0
 39 40  2  0  0  0
 39 44  1  0  0  0
 40 41  1  0  0  0
 41 42  2  0  0  0
 42 43  1  0  0  0
 43 44  2  0  0  0
 16 18  1  0  0  0
  2  3  1  0  0  0
 24 27  1  0  0  0
 34 36  1  0  0  0
M  END
> <minimizedAffinity>
-10.08869

$$$$
2Q64_1UN_B_1001


 44 47  0  0  0  0  0  0  0  0999 V2000
   -8.5921   14.3666   25.8884 C   0  0  0  0  0  0  0  0  0  0  0  0
   -7.9675   13.4106   26.7532 O   0  0  0  0  0  0  0  0  0  0  0  0
   -8.5184   13.2784   27.5405 H   0  0  0  0  0  0  0  0  0  0  0  0
   -8.6960   15.7077   26.6058 C   0  0  0  0  0  0  0  0  0  0  0  0
   -9.2926   15.4047   30.3193 C   0  0  0  0  0  0  0  0  0  0  0  0
   -8.2759   16.4489   30.8061 C   0  0  0  0  0  0  0  0  0  0  0  0
   -7.8576   16.1988   32.2616 C   0  0  0  0  0  0  0  0  0  0  0  0
   -7.3736   14.7596   32.4803 C   0  0  0  0  0  0  0  0  0  0  0  0
   -8.4141   13.7364   32.0253 C   0  0  0  0  0  0  0  0  0  0  0  0
   -8.8319   13.9622   30.5753 C   0  0  0  0  0  0  0  0  0  0  0  0
   -8.3465   15.5444   28.0231 N   0  0  0  0  0  0  0  0  0  0  0  0
   -7.3326   16.5624   28.4163 C   0  0  0  0  0  0  0  0  0  0  0  0
   -7.0268   16.5250   29.9174 C   0  0  0  0  0  0  0  0  0  0  0  0
   -9.5871   15.6089   28.8348 C   0  0  0  0  0  0  0  0  0  0  0  0
   -6.0204   16.3737   27.6904 C   0  0  0  0  0  0  0  0  0  0  0  0
   -5.5174   17.4945   27.1555 N   0  0  0  0  0  0  0  0  0  0  0  0
   -5.4834   15.2715   27.6263 O   0  0  0  0  0  0  0  0  0  0  0  0
   -5.9868   18.3336   27.3672 H   0  0  0  0  0  0  0  0  0  0  0  0
   -4.3504   17.6001   26.2949 C   0  0  0  0  0  0  0  0  0  0  0  0
   -3.0579   17.3742   27.0753 C   0  0  0  0  0  0  0  0  0  0  0  0
   -4.3639   18.9689   25.6271 C   0  0  0  0  0  0  0  0  0  0  0  0
   -4.4607   16.5225   25.2235 C   0  0  0  0  0  0  0  0  0  0  0  0
   -9.9340   13.8380   25.3938 C   0  0  0  0  0  0  0  0  0  0  0  0
  -10.7584   13.5637   26.5583 N   0  0  0  0  0  0  0  0  0  0  0  0
  -11.4979   12.4610   26.7272 C   0  0  0  0  0  0  0  0  0  0  0  0
  -11.5726   11.5593   25.9016 O   0  0  0  0  0  0  0  0  0  0  0  0
  -10.7742   14.2380   27.2753 H   0  0  0  0  0  0  0  0  0  0  0  0
  -12.2532   12.3421   28.0237 C   0  0  0  0  0  0  0  0  0  0  0  0
  -12.1422   11.1905   28.8155 C   0  0  0  0  0  0  0  0  0  0  0  0
  -12.8471   11.0549   30.0124 C   0  0  0  0  0  0  0  0  0  0  0  0
  -13.6969   12.0624   30.4727 C   0  0  0  0  0  0  0  0  0  0  0  0
  -13.8787   13.2460   29.7510 C   0  0  0  0  0  0  0  0  0  0  0  0
  -13.1535   13.4417   28.4732 C   0  0  0  0  0  0  0  0  0  0  0  0
  -14.7034   14.2303   30.1986 O   0  0  0  0  0  0  0  0  0  0  0  0
  -13.3407   14.7142   27.6745 C   0  0  0  0  0  0  0  0  0  0  0  0
  -15.1686   14.1213   31.0046 H   0  0  0  0  0  0  0  0  0  0  0  0
  -10.6404   14.8064   24.4447 C   0  0  0  0  0  0  0  0  0  0  0  0
  -10.3428   14.3667   22.7633 S   0  0  0  0  0  0  0  0  0  0  0  0
   -8.9191   15.1753   22.2885 C   0  0  0  0  0  0  0  0  0  0  0  0
   -8.2045   14.7249   21.1726 C   0  0  0  0  0  0  0  0  0  0  0  0
   -7.0372   15.3852   20.7780 C   0  0  0  0  0  0  0  0  0  0  0  0
   -6.5787   16.4921   21.4919 C   0  0  0  0  0  0  0  0  0  0  0  0
   -7.2849   16.9462   22.6066 C   0  0  0  0  0  0  0  0  0  0  0  0
   -8.4511   16.2892   23.0027 C   0  0  0  0  0  0  0  0  0  0  0  0
  5  6  1  0  0  0
  5 10  1  0  0  0
  5 14  1  0  0  0
  6  7  1  0  0  0
  6 13  1  0  0  0
  7  8  1  0  0  0
  8  9  1  0  0  0
  9 10  1  0  0  0
 11 12  1  0  0  0
 11 14  1  0  0  0
 11  4  1  0  0  0
 12 13  1  0  0  0
 12 15  1  0  0  0
 15 16  1  0  0  0
 15 17  2  0  0  0
 16 19  1  0  0  0
 19 20  1  0  0  0
 19 21  1  0  0  0
 19 22  1  0  0  0
  4  1  1  0  0  0
  1 23  1  0  0  0
  1  2  1  0  0  0
 23 24  1  0  0  0
 23 37  1  0  0  0
 24 25  1  0  0  0
 37 38  1  0  0  0
 25 26  2  0  0  0
 25 28  1  0  0  0
 28 29  2  0  0  0
 28 33  1  0  0  0
 29 30  1  0  0  0
 30 31  2  0  0  0
 31 32  1  0  0  0
 32 33  2  0  0  0
 32 34  1  0  0  0
 33 35  1  0  0  0
 38 39  1  0  0  0
 39 40  2  0  0  0
 39 44  1  0  0  0
 40 41  1  0  0  0
 41 42  2  0  0  0
 42 43  1  0  0  0
 43 44  2  0  0  0
 16 18  1  0  0  0
  2  3  1  0  0  0
 24 27  1  0  0  0
 34 36  1  0  0  0
M  END
> <minimizedAffinity>
-9.96522

$$$$
2Q64_1UN_B_1001


 44 47  0  0  0  0  0  0  0  0999 V2000
   -9.3920   17.1691   27.6394 C   0  0  0  0  0  0  0  0  0  0  0  0
  -10.6601   17.8164   27.4816 O   0  0  0  0  0  0  0  0  0  0  0  0
  -11.3329   17.1573   27.2498 H   0  0  0  0  0  0  0  0  0  0  0  0
   -8.9773   16.5365   26.3158 C   0  0  0  0  0  0  0  0  0  0  0  0
   -5.6011   18.1596   26.7688 C   0  0  0  0  0  0  0  0  0  0  0  0
   -5.2920   18.4727   25.2966 C   0  0  0  0  0  0  0  0  0  0  0  0
   -3.7844   18.6277   25.0534 C   0  0  0  0  0  0  0  0  0  0  0  0
   -2.9918   17.4236   25.5780 C   0  0  0  0  0  0  0  0  0  0  0  0
   -3.2840   17.1520   27.0536 C   0  0  0  0  0  0  0  0  0  0  0  0
   -4.7781   16.9820   27.3114 C   0  0  0  0  0  0  0  0  0  0  0  0
   -7.5489   16.7779   26.0728 N   0  0  0  0  0  0  0  0  0  0  0  0
   -7.3172   17.0372   24.6244 C   0  0  0  0  0  0  0  0  0  0  0  0
   -5.8642   17.4257   24.3311 C   0  0  0  0  0  0  0  0  0  0  0  0
   -7.0931   17.8872   26.9470 C   0  0  0  0  0  0  0  0  0  0  0  0
   -7.6368   15.8329   23.7688 C   0  0  0  0  0  0  0  0  0  0  0  0
   -8.3380   16.1109   22.6614 N   0  0  0  0  0  0  0  0  0  0  0  0
   -7.2589   14.7093   24.0882 O   0  0  0  0  0  0  0  0  0  0  0  0
   -8.4880   17.0632   22.4616 H   0  0  0  0  0  0  0  0  0  0  0  0
   -8.9002   15.1523   21.7241 C   0  0  0  0  0  0  0  0  0  0  0  0
   -9.2222   15.8052   20.3822 C   0  0  0  0  0  0  0  0  0  0  0  0
  -10.1415   14.5324   22.3522 C   0  0  0  0  0  0  0  0  0  0  0  0
   -7.8622   14.0614   21.4922 C   0  0  0  0  0  0  0  0  0  0  0  0
   -9.4426   16.1768   28.7960 C   0  0  0  0  0  0  0  0  0  0  0  0
  -10.3882   15.1321   28.4422 N   0  0  0  0  0  0  0  0  0  0  0  0
  -11.0896   14.4077   29.3223 C   0  0  0  0  0  0  0  0  0  0  0  0
  -10.9983   14.5383   30.5367 O   0  0  0  0  0  0  0  0  0  0  0  0
  -10.5227   14.9432   27.4854 H   0  0  0  0  0  0  0  0  0  0  0  0
  -12.0514   13.3974   28.7566 C   0  0  0  0  0  0  0  0  0  0  0  0
  -13.2259   13.0616   29.4447 C   0  0  0  0  0  0  0  0  0  0  0  0
  -14.1217   12.1154   28.9445 C   0  0  0  0  0  0  0  0  0  0  0  0
  -13.8849   11.4598   27.7349 C   0  0  0  0  0  0  0  0  0  0  0  0
  -12.7388   11.7219   26.9782 C   0  0  0  0  0  0  0  0  0  0  0  0
  -11.7546   12.7184   27.4634 C   0  0  0  0  0  0  0  0  0  0  0  0
  -12.5073   11.0870   25.7980 O   0  0  0  0  0  0  0  0  0  0  0  0
  -10.5050   13.0127   26.6610 C   0  0  0  0  0  0  0  0  0  0  0  0
  -13.1202   10.4546   25.4782 H   0  0  0  0  0  0  0  0  0  0  0  0
   -8.0742   15.5809   29.1274 C   0  0  0  0  0  0  0  0  0  0  0  0
   -7.3907   16.3391   30.5651 S   0  0  0  0  0  0  0  0  0  0  0  0
   -7.9528   15.4476   31.9052 C   0  0  0  0  0  0  0  0  0  0  0  0
   -8.5476   16.1145   32.9822 C   0  0  0  0  0  0  0  0  0  0  0  0
   -9.0116   15.3883   34.0829 C   0  0  0  0  0  0  0  0  0  0  0  0
   -8.8840   13.9998   34.1148 C   0  0  0  0  0  0  0  0  0  0  0  0
   -8.2905   13.3278   33.0454 C   0  0  0  0  0  0  0  0  0  0  0  0
   -7.8268   14.0504   31.9447 C   0  0  0  0  0  0  0  0  0  0  0  0
  5  6  1  0  0  0
  5 10  1  0  0  0
  5 14  1  0  0  0
  6  7  1  0  0  0
  6 13  1  0  0  0
  7  8  1  0  0  0
  8  9  1  0  0  0
  9 10  1  0  0  0
 11 12  1  0  0  0
 11 14  1  0  0  0
 11  4  1  0  0  0
 12 13  1  0  0  0
 12 15  1  0  0  0
 15 16  1  0  0  0
 15 17  2  0  0  0
 16 19  1  0  0  0
 19 20  1  0  0  0
 19 21  1  0  0  0
 19 22  1  0  0  0
  4  1  1  0  0  0
  1 23  1  0  0  0
  1  2  1  0  0  0
 23 24  1  0  0  0
 23 37  1  0  0  0
 24 25  1  0  0  0
 37 38  1  0  0  0
 25 26  2  0  0  0
 25 28  1  0  0  0
 28 29  2  0  0  0
 28 33  1  0  0  0
 29 30  1  0  0  0
 30 31  2  0  0  0
 31 32  1  0  0  0
 32 33  2  0  0  0
 32 34  1  0  0  0
 33 35  1  0  0  0
 38 39  1  0  0  0
 39 40  2  0  0  0
 39 44  1  0  0  0
 40 41  1  0  0  0
 41 42  2  0  0  0
 42 43  1  0  0  0
 43 44  2  0  0  0
 16 18  1  0  0  0
  2  3  1  0  0  0
 24 27  1  0  0  0
 34 36  1  0  0  0
M  END
> <minimizedAffinity>
-9.86404

$$$$
2Q64_1UN_B_1001


 44 47  0  0  0  0  0  0  0  0999 V2000
   -8.6649   16.7699   27.0559 C   0  0  0  0  0  0  0  0  0  0  0  0
   -9.6161   17.2874   26.1183 O   0  0  0  0  0  0  0  0  0  0  0  0
  -10.3223   16.6367   25.9816 H   0  0  0  0  0  0  0  0  0  0  0  0
   -8.0234   15.5104   26.4848 C   0  0  0  0  0  0  0  0  0  0  0  0
   -9.2518   14.2209   23.1582 C   0  0  0  0  0  0  0  0  0  0  0  0
   -7.9155   14.2181   22.3998 C   0  0  0  0  0  0  0  0  0  0  0  0
   -8.1246   14.2801   20.8804 C   0  0  0  0  0  0  0  0  0  0  0  0
   -9.0301   15.4495   20.4731 C   0  0  0  0  0  0  0  0  0  0  0  0
  -10.3690   15.4130   21.2097 C   0  0  0  0  0  0  0  0  0  0  0  0
  -10.1798   15.3645   22.7229 C   0  0  0  0  0  0  0  0  0  0  0  0
   -8.1965   15.4791   25.0264 N   0  0  0  0  0  0  0  0  0  0  0  0
   -6.8664   15.5158   24.3566 C   0  0  0  0  0  0  0  0  0  0  0  0
   -6.9789   15.3528   22.8371 C   0  0  0  0  0  0  0  0  0  0  0  0
   -9.0027   14.2872   24.6633 C   0  0  0  0  0  0  0  0  0  0  0  0
   -6.1327   16.8124   24.6115 C   0  0  0  0  0  0  0  0  0  0  0  0
   -5.1624   16.7278   25.5318 N   0  0  0  0  0  0  0  0  0  0  0  0
   -6.4218   17.8363   23.9989 O   0  0  0  0  0  0  0  0  0  0  0  0
   -4.9558   15.8280   25.8736 H   0  0  0  0  0  0  0  0  0  0  0  0
   -4.3832   17.8269   26.0779 C   0  0  0  0  0  0  0  0  0  0  0  0
   -3.2580   17.3217   26.9775 C   0  0  0  0  0  0  0  0  0  0  0  0
   -5.3226   18.7577   26.8332 C   0  0  0  0  0  0  0  0  0  0  0  0
   -3.7630   18.5853   24.9110 C   0  0  0  0  0  0  0  0  0  0  0  0
   -9.3224   16.5527   28.4144 C   0  0  0  0  0  0  0  0  0  0  0  0
   -9.8748   15.2091   28.4294 N   0  0  0  0  0  0  0  0  0  0  0  0
  -11.1134   14.8887   28.0362 C   0  0  0  0  0  0  0  0  0  0  0  0
  -11.9306   15.7057   27.6301 O   0  0  0  0  0  0  0  0  0  0  0  0
   -9.2959   14.4812   28.7523 H   0  0  0  0  0  0  0  0  0  0  0  0
  -11.4868   13.4316   28.0887 C   0  0  0  0  0  0  0  0  0  0  0  0
  -11.6180   12.6818   26.9112 C   0  0  0  0  0  0  0  0  0  0  0  0
  -11.9793   11.3340   26.9386 C   0  0  0  0  0  0  0  0  0  0  0  0
  -12.2280   10.6733   28.1431 C   0  0  0  0  0  0  0  0  0  0  0  0
  -12.1288   11.3366   29.3699 C   0  0  0  0  0  0  0  0  0  0  0  0
  -11.7480   12.7688   29.3979 C   0  0  0  0  0  0  0  0  0  0  0  0
  -12.3673   10.6946   30.5448 O   0  0  0  0  0  0  0  0  0  0  0  0
  -11.6400   13.5059   30.7158 C   0  0  0  0  0  0  0  0  0  0  0  0
  -12.6090    9.7893   30.5433 H   0  0  0  0  0  0  0  0  0  0  0  0
   -8.3554   16.7550   29.5813 C   0  0  0  0  0  0  0  0  0  0  0  0
   -7.6430   15.2209   30.0794 S   0  0  0  0  0  0  0  0  0  0  0  0
   -8.1222   14.9579   31.6942 C   0  0  0  0  0  0  0  0  0  0  0  0
   -8.4233   16.0504   32.5154 C   0  0  0  0  0  0  0  0  0  0  0  0
   -8.8183   15.8404   33.8398 C   0  0  0  0  0  0  0  0  0  0  0  0
   -8.9132   14.5456   34.3493 C   0  0  0  0  0  0  0  0  0  0  0  0
   -8.6131   13.4512   33.5372 C   0  0  0  0  0  0  0  0  0  0  0  0
   -8.2190   13.6579   32.2141 C   0  0  0  0  0  0  0  0  0  0  0  0
  5  6  1  0  0  0
  5 10  1  0  0  0
  5 14  1  0  0  0
  6  7  1  0  0  0
  6 13  1  0  0  0
  7  8  1  0  0  0
  8  9  1  0  0  0
  9 10  1  0  0  0
 11 12  1  0  0  0
 11 14  1  0  0  0
 11  4  1  0  0  0
 12 13  1  0  0  0
 12 15  1  0  0  0
 15 16  1  0  0  0
 15 17  2  0  0  0
 16 19  1  0  0  0
 19 20  1  0  0  0
 19 21  1  0  0  0
 19 22  1  0  0  0
  4  1  1  0  0  0
  1 23  1  0  0  0
  1  2  1  0  0  0
 23 24  1  0  0  0
 23 37  1  0  0  0
 24 25  1  0  0  0
 37 38  1  0  0  0
 25 26  2  0  0  0
 25 28  1  0  0  0
 28 29  2  0  0  0
 28 33  1  0  0  0
 29 30  1  0  0  0
 30 31  2  0  0  0
 31 32  1  0  0  0
 32 33  2  0  0  0
 32 34  1  0  0  0
 33 35  1  0  0  0
 38 39  1  0  0  0
 39 40  2  0  0  0
 39 44  1  0  0  0
 40 41  1  0  0  0
 41 42  2  0  0  0
 42 43  1  0  0  0
 43 44  2  0  0  0
 16 18  1  0  0  0
  2  3  1  0  0  0
 24 27  1  0  0  0
 34 36  1  0  0  0
M  END
> <minimizedAffinity>
-9.82676

$$$$
2Q64_1UN_B_1001


 44 47  0  0  0  0  0  0  0  0999 V2000
   -8.7091   15.5286   27.6623 C   0  0  0  0  0  0  0  0  0  0  0  0
   -8.4586   14.1548   27.9813 O   0  0  0  0  0  0  0  0  0  0  0  0
   -9.1775   13.6054   27.6317 H   0  0  0  0  0  0  0  0  0  0  0  0
   -9.9998   15.9787   28.3372 C   0  0  0  0  0  0  0  0  0  0  0  0
  -13.0381   13.8283   27.7190 C   0  0  0  0  0  0  0  0  0  0  0  0
  -13.4858   13.6305   29.1756 C   0  0  0  0  0  0  0  0  0  0  0  0
  -14.3504   12.3727   29.3382 C   0  0  0  0  0  0  0  0  0  0  0  0
  -13.6670   11.1278   28.7583 C   0  0  0  0  0  0  0  0  0  0  0  0
  -13.2639   11.3309   27.2978 C   0  0  0  0  0  0  0  0  0  0  0  0
  -12.3923   12.5705   27.1197 C   0  0  0  0  0  0  0  0  0  0  0  0
  -10.9021   14.8318   28.5048 N   0  0  0  0  0  0  0  0  0  0  0  0
  -11.2648   14.6772   29.9412 C   0  0  0  0  0  0  0  0  0  0  0  0
  -12.3088   13.5768   30.1593 C   0  0  0  0  0  0  0  0  0  0  0  0
  -12.0792   15.0126   27.6193 C   0  0  0  0  0  0  0  0  0  0  0  0
  -10.0696   14.3325   30.7997 C   0  0  0  0  0  0  0  0  0  0  0  0
   -9.9292   15.1018   31.8878 N   0  0  0  0  0  0  0  0  0  0  0  0
   -9.3175   13.4098   30.4994 O   0  0  0  0  0  0  0  0  0  0  0  0
  -10.6570   15.7377   32.0754 H   0  0  0  0  0  0  0  0  0  0  0  0
   -8.8136   15.0949   32.8200 C   0  0  0  0  0  0  0  0  0  0  0  0
   -8.5284   13.6883   33.3402 C   0  0  0  0  0  0  0  0  0  0  0  0
   -9.1293   16.0550   33.9594 C   0  0  0  0  0  0  0  0  0  0  0  0
   -7.5803   15.5929   32.0769 C   0  0  0  0  0  0  0  0  0  0  0  0
   -8.7127   15.7307   26.1511 C   0  0  0  0  0  0  0  0  0  0  0  0
   -7.3606   16.0763   25.7472 N   0  0  0  0  0  0  0  0  0  0  0  0
   -6.7686   17.2519   25.9896 C   0  0  0  0  0  0  0  0  0  0  0  0
   -7.3145   18.1808   26.5722 O   0  0  0  0  0  0  0  0  0  0  0  0
   -6.8420   15.3961   25.2597 H   0  0  0  0  0  0  0  0  0  0  0  0
   -5.3448   17.4036   25.5254 C   0  0  0  0  0  0  0  0  0  0  0  0
   -4.2930   17.4767   26.4496 C   0  0  0  0  0  0  0  0  0  0  0  0
   -2.9683   17.6337   26.0393 C   0  0  0  0  0  0  0  0  0  0  0  0
   -2.6332   17.7268   24.6873 C   0  0  0  0  0  0  0  0  0  0  0  0
   -3.6117   17.6703   23.6902 C   0  0  0  0  0  0  0  0  0  0  0  0
   -5.0345   17.5039   24.0710 C   0  0  0  0  0  0  0  0  0  0  0  0
   -3.2877   17.7575   22.3724 O   0  0  0  0  0  0  0  0  0  0  0  0
   -6.1094   17.4455   23.0066 C   0  0  0  0  0  0  0  0  0  0  0  0
   -2.3926   17.8628   22.1160 H   0  0  0  0  0  0  0  0  0  0  0  0
   -9.2095   14.5020   25.3888 C   0  0  0  0  0  0  0  0  0  0  0  0
  -10.3274   14.9680   24.1072 S   0  0  0  0  0  0  0  0  0  0  0  0
   -9.4378   14.9624   22.6530 C   0  0  0  0  0  0  0  0  0  0  0  0
   -8.1783   14.3536   22.6124 C   0  0  0  0  0  0  0  0  0  0  0  0
   -7.4451   14.3447   21.4222 C   0  0  0  0  0  0  0  0  0  0  0  0
   -7.9620   14.9414   20.2724 C   0  0  0  0  0  0  0  0  0  0  0  0
   -9.2164   15.5519   20.3054 C   0  0  0  0  0  0  0  0  0  0  0  0
   -9.9510   15.5617   21.4924 C   0  0  0  0  0  0  0  0  0  0  0  0
  5  6  1  0  0  0
  5 10  1  0  0  0
  5 14  1  0  0  0
  6  7  1  0  0  0
  6 13  1  0  0  0
  7  8  1  0  0  0
  8  9  1  0  0  0
  9 10  1  0  0  0
 11 12  1  0  0  0
 11 14  1  0  0  0
 11  4  1  0  0  0
 12 13  1  0  0  0
 12 15  1  0  0  0
 15 16  1  0  0  0
 15 17  2  0  0  0
 16 19  1  0  0  0
 19 20  1  0  0  0
 19 21  1  0  0  0
 19 22  1  0  0  0
  4  1  1  0  0  0
  1 23  1  0  0  0
  1  2  1  0  0  0
 23 24  1  0  0  0
 23 37  1  0  0  0
 24 25  1  0  0  0
 37 38  1  0  0  0
 25 26  2  0  0  0
 25 28  1  0  0  0
 28 29  2  0  0  0
 28 33  1  0  0  0
 29 30  1  0  0  0
 30 31  2  0  0  0
 31 32  1  0  0  0
 32 33  2  0  0  0
 32 34  1  0  0  0
 33 35  1  0  0  0
 38 39  1  0  0  0
 39 40  2  0  0  0
 39 44  1  0  0  0
 40 41  1  0  0  0
 41 42  2  0  0  0
 42 43  1  0  0  0
 43 44  2  0  0  0
 16 18  1  0  0  0
  2  3  1  0  0  0
 24 27  1  0  0  0
 34 36  1  0  0  0
M  END
> <minimizedAffinity>
-9.78995

$$$$
2Q64_1UN_B_1001


 44 47  0  0  0  0  0  0  0  0999 V2000
   -9.7532   15.6132   26.9002 C   0  0  0  0  0  0  0  0  0  0  0  0
   -8.7644   14.5775   26.9379 O   0  0  0  0  0  0  0  0  0  0  0  0
   -8.0037   14.8755   27.4608 H   0  0  0  0  0  0  0  0  0  0  0  0
   -9.1744   16.8420   26.2082 C   0  0  0  0  0  0  0  0  0  0  0  0
   -5.5487   17.6259   26.8992 C   0  0  0  0  0  0  0  0  0  0  0  0
   -5.0531   17.7409   25.4493 C   0  0  0  0  0  0  0  0  0  0  0  0
   -3.5398   17.5058   25.3460 C   0  0  0  0  0  0  0  0  0  0  0  0
   -3.1170   16.1890   26.0098 C   0  0  0  0  0  0  0  0  0  0  0  0
   -3.5862   16.1103   27.4625 C   0  0  0  0  0  0  0  0  0  0  0  0
   -5.0915   16.3287   27.5825 C   0  0  0  0  0  0  0  0  0  0  0  0
   -7.7161   16.7098   26.0928 N   0  0  0  0  0  0  0  0  0  0  0  0
   -7.3106   16.7933   24.6619 C   0  0  0  0  0  0  0  0  0  0  0  0
   -5.7878   16.7935   24.4909 C   0  0  0  0  0  0  0  0  0  0  0  0
   -7.0709   17.7386   26.9458 C   0  0  0  0  0  0  0  0  0  0  0  0
   -7.8495   15.6409   23.8458 C   0  0  0  0  0  0  0  0  0  0  0  0
   -8.4514   16.0040   22.7051 N   0  0  0  0  0  0  0  0  0  0  0  0
   -7.7182   14.4800   24.2231 O   0  0  0  0  0  0  0  0  0  0  0  0
   -8.3979   16.9565   22.4619 H   0  0  0  0  0  0  0  0  0  0  0  0
   -9.1753   15.1375   21.7894 C   0  0  0  0  0  0  0  0  0  0  0  0
   -8.4626   13.8002   21.6038 C   0  0  0  0  0  0  0  0  0  0  0  0
   -9.3419   15.8668   20.4627 C   0  0  0  0  0  0  0  0  0  0  0  0
  -10.5512   14.8711   22.3871 C   0  0  0  0  0  0  0  0  0  0  0  0
  -10.2774   15.8982   28.3034 C   0  0  0  0  0  0  0  0  0  0  0  0
  -10.7510   14.6437   28.8625 N   0  0  0  0  0  0  0  0  0  0  0  0
  -11.9636   14.1207   28.6451 C   0  0  0  0  0  0  0  0  0  0  0  0
  -12.8215   14.6568   27.9547 O   0  0  0  0  0  0  0  0  0  0  0  0
  -10.1350   14.1417   29.4438 H   0  0  0  0  0  0  0  0  0  0  0  0
  -12.2524   12.7879   29.2821 C   0  0  0  0  0  0  0  0  0  0  0  0
  -12.0252   11.5942   28.5826 C   0  0  0  0  0  0  0  0  0  0  0  0
  -12.3021   10.3496   29.1502 C   0  0  0  0  0  0  0  0  0  0  0  0
  -12.8202   10.2398   30.4419 C   0  0  0  0  0  0  0  0  0  0  0  0
  -13.0862   11.3725   31.2171 C   0  0  0  0  0  0  0  0  0  0  0  0
  -12.8101   12.7191   30.6626 C   0  0  0  0  0  0  0  0  0  0  0  0
  -13.5879   11.2683   32.4768 O   0  0  0  0  0  0  0  0  0  0  0  0
  -13.0959   13.9581   31.4844 C   0  0  0  0  0  0  0  0  0  0  0  0
  -13.7677   10.4239   32.8411 H   0  0  0  0  0  0  0  0  0  0  0  0
   -9.2256   16.5348   29.2123 C   0  0  0  0  0  0  0  0  0  0  0  0
   -8.0740   15.3270   29.7817 S   0  0  0  0  0  0  0  0  0  0  0  0
   -8.3242   15.1622   31.4600 C   0  0  0  0  0  0  0  0  0  0  0  0
   -8.6328   13.9065   31.9956 C   0  0  0  0  0  0  0  0  0  0  0  0
   -8.8374   13.7654   33.3712 C   0  0  0  0  0  0  0  0  0  0  0  0
   -8.7369   14.8713   34.2151 C   0  0  0  0  0  0  0  0  0  0  0  0
   -8.4312   16.1268   33.6883 C   0  0  0  0  0  0  0  0  0  0  0  0
   -8.2258   16.2707   32.3151 C   0  0  0  0  0  0  0  0  0  0  0  0
  5  6  1  0  0  0
  5 10  1  0  0  0
  5 14  1  0  0  0
  6  7  1  0  0  0
  6 13  1  0  0  0
  7  8  1  0  0  0
  8  9  1  0  0  0
  9 10  1  0  0  0
 11 12  1  0  0  0
 11 14  1  0  0  0
 11  4  1  0  0  0
 12 13  1  0  0  0
 12 15  1  0  0  0
 15 16  1  0  0  0
 15 17  2  0  0  0
 16 19  1  0  0  0
 19 20  1  0  0  0
 19 21  1  0  0  0
 19 22  1  0  0  0
  4  1  1  0  0  0
  1 23  1  0  0  0
  1  2  1  0  0  0
 23 24  1  0  0  0
 23 37  1  0  0  0
 24 25  1  0  0  0
 37 38  1  0  0  0
 25 26  2  0  0  0
 25 28  1  0  0  0
 28 29  2  0  0  0
 28 33  1  0  0  0
 29 30  1  0  0  0
 30 31  2  0  0  0
 31 32  1  0  0  0
 32 33  2  0  0  0
 32 34  1  0  0  0
 33 35  1  0  0  0
 38 39  1  0  0  0
 39 40  2  0  0  0
 39 44  1  0  0  0
 40 41  1  0  0  0
 41 42  2  0  0  0
 42 43  1  0  0  0
 43 44  2  0  0  0
 16 18  1  0  0  0
  2  3  1  0  0  0
 24 27  1  0  0  0
 34 36  1  0  0  0
M  END
> <minimizedAffinity>
-9.56835

$$$$
