4LPS_GDP_A_302
  RCSB PDB12061713363D
Coordinates from PDB:4LPS:A:302 Model:1 without hydrogens
 28 30  0  0  0  0            999 V2000
   12.1290   -6.1360   -1.3140   P 0  0  0  0  0  0  0  0  0  0  0  0
   11.4880   -7.5010   -1.3330   O 0  0  0  0  0  0  0  0  0  0  0  0
   12.9230   -5.9070   -2.5750   O 0  0  0  0  0  0  0  0  0  0  0  0
   13.0710   -6.0140   -0.1420   O 0  0  0  0  0  0  0  0  0  0  0  0
   10.9910   -5.0150   -1.1590   O 0  0  0  0  0  0  0  0  0  0  0  0
    9.9660   -4.6240   -2.3400   P 0  0  0  0  0  0  0  0  0  0  0  0
   10.5580   -3.5370   -3.1990   O 0  0  0  0  0  0  0  0  0  0  0  0
    9.5700   -5.8200   -3.1670   O 0  0  0  0  0  0  0  0  0  0  0  0
    8.7310   -4.0250   -1.5190   O 0  0  0  0  0  0  0  0  0  0  0  0
    7.7700   -4.8900   -0.9180   C 0  0  0  0  0  0  0  0  0  0  0  0
    6.4770   -4.1130   -0.7210   C 0  0  0  0  0  0  0  0  0  0  0  0
    6.7360   -2.9360    0.0460   O 0  0  0  0  0  0  0  0  0  0  0  0
    5.9200   -3.6460   -2.0530   C 0  0  0  0  0  0  0  0  0  0  0  0
    4.4980   -3.7960   -2.0090   O 0  0  0  0  0  0  0  0  0  0  0  0
    6.2490   -2.1730   -2.1260   C 0  0  0  0  0  0  0  0  0  0  0  0
    5.2320   -1.4650   -2.8330   O 0  0  0  0  0  0  0  0  0  0  0  0
    6.2590   -1.7860   -0.6600   C 0  0  0  0  0  0  0  0  0  0  0  0
    7.1460   -0.6380   -0.3680   N 0  0  0  0  0  0  0  0  0  0  0  0
    8.4300   -0.4620   -0.7350   C 0  0  0  0  0  0  0  0  0  0  0  0
    8.9070    0.7110   -0.2480   N 0  0  0  0  0  0  0  0  0  0  0  0
    7.9180    1.2960    0.4580   C 0  0  0  0  0  0  0  0  0  0  0  0
    7.7360    2.5420    1.2400   C 0  0  0  0  0  0  0  0  0  0  0  0
    8.6650    3.3660    1.3600   O 0  0  0  0  0  0  0  0  0  0  0  0
    6.5470    2.7610    1.8160   N 0  0  0  0  0  0  0  0  0  0  0  0
    5.5270    1.8890    1.7020   C 0  0  0  0  0  0  0  0  0  0  0  0
    4.3480    2.1680    2.3070   N 0  0  0  0  0  0  0  0  0  0  0  0
    5.6220    0.7310    1.0050   N 0  0  0  0  0  0  0  0  0  0  0  0
    6.7680    0.3940    0.3780   C 0  0  0  0  0  0  0  0  0  0  0  0
  1  2  2  0  0  0  0
  1  3  1  0  0  0  0
  1  4  1  0  0  0  0
  1  5  1  0  0  0  0
  5  6  1  0  0  0  0
  6  7  2  0  0  0  0
  6  8  1  0  0  0  0
  6  9  1  0  0  0  0
  9 10  1  0  0  0  0
 10 11  1  0  0  0  0
 11 12  1  0  0  0  0
 11 13  1  0  0  0  0
 12 17  1  0  0  0  0
 13 14  1  0  0  0  0
 13 15  1  0  0  0  0
 15 16  1  0  0  0  0
 15 17  1  0  0  0  0
 17 18  1  0  0  0  0
 18 19  1  0  0  0  0
 18 28  1  0  0  0  0
 19 20  2  0  0  0  0
 20 21  1  0  0  0  0
 21 22  1  0  0  0  0
 21 28  2  0  0  0  0
 22 23  2  0  0  0  0
 22 24  1  0  0  0  0
 24 25  1  0  0  0  0
 25 26  1  0  0  0  0
 25 27  2  0  0  0  0
 27 28  1  0  0  0  0
A    1
PB
A    2
O1B
A    3
O2B
A    4
O3B
A    5
O3A
A    6
PA
A    7
O1A
A    8
O2A
A    9
O5'
A   10
C5'
A   11
C4'
A   12
O4'
A   13
C3'
A   14
O3'
A   15
C2'
A   16
O2'
A   17
C1'
A   18
N9
A   19
C8
A   20
N7
A   21
C5
A   22
C6
A   23
O6
A   24
N1
A   25
C2
A   26
N2
A   27
N3
A   28
C4
M  END
>  <InstanceId>
4LPS_GDP_A_302

>  <ChemCompId>
GDP

>  <PdbId>
4LPS

>  <ChainId>
A

>  <ResidueNumber>
302

>  <InsertionCode>


>  <Model>
1

>  <AltIds>


>  <MissingHeavyAtoms>
0

>  <ObservedFormula>
C10 N5 O11 P2

>  <Name>
GUANOSINE-5'-DIPHOSPHATE

>  <SystematicName>
[(2R,3S,4R,5R)-5-(2-azanyl-6-oxidanylidene-1H-purin-9-yl)-3,4-bis(oxidanyl)oxolan-2-yl]methyl phosphono hydrogen phosphate

>  <Synonyms>


>  <Type>
RNA LINKING

>  <Formula>
C10 H15 N5 O11 P2

>  <MolecularWeight>
443.201

>  <ModifiedDate>
2014-05-12

>  <Parent>
G

>  <OneLetterCode>
G

>  <SubcomponentList>


>  <AmbiguousFlag>
N

>  <InChI>
InChI=1S/C10H15N5O11P2/c11-10-13-7-4(8(18)14-10)12-2-15(7)9-6(17)5(16)3(25-9)1-24-28(22,23)26-27(19,20)21/h2-3,5-6,9,16-17H,1H2,(H,22,23)(H2,19,20,21)(H3,11,13,14,18)/t3-,5-,6-,9-/m1/s1

>  <InChIKey>
QGWNDRXFNXRZMB-UUOKFMHZSA-N

>  <SMILES>
c1nc2c(n1[C@H]3[C@@H]([C@@H]([C@H](O3)CO[P@](=O)(O)OP(=O)(O)O)O)O)N=C(NC2=O)N

$$$$
