5J1R_6FG_A_301


 14 15  0  0  0  0  0  0  0  0999 V2000
   28.7155   13.9378   16.9012 O   0  0  0  0  0  0  0  0  0  0  0  0
   28.9340   14.4023   15.7698 C   0  0  0  0  0  0  0  0  0  0  0  0
   29.5245   15.6599   15.5854 N   0  0  0  0  0  0  0  0  0  0  0  0
   30.2618   16.4064   16.6184 C   0  0  0  0  0  0  0  0  0  0  0  0
   30.9003   17.6079   15.9355 C   0  0  0  0  0  0  0  0  0  0  0  0
   30.3579   17.4984   14.5427 C   0  0  0  0  0  0  0  0  0  0  0  0
   29.4549   16.2846   14.3171 C   0  0  0  0  0  0  0  0  0  0  0  0
   28.5816   13.4872   14.6399 C   0  0  0  0  0  0  0  0  0  0  0  0
   28.1487   12.1959   15.3020 C   0  0  0  0  0  0  0  0  0  0  0  0
   28.0167   11.2603   14.2138 C   0  0  0  0  0  0  0  0  0  0  0  0
   27.5584    9.9812   14.3380 C   0  0  0  0  0  0  0  0  0  0  0  0
   28.3557   11.5950   12.9068 C   0  0  0  0  0  0  0  0  0  0  0  0
   28.0535   10.4418   12.2232 O   0  0  0  0  0  0  0  0  0  0  0  0
   27.5675    9.4463   13.0659 C   0  0  0  0  0  0  0  0  0  0  0  0
 13 12  1  0  0  0
 13 14  1  0  0  0
 12 10  2  0  0  0
 14 11  2  0  0  0
  7  6  1  0  0  0
  7  3  1  0  0  0
 10 11  1  0  0  0
 10  9  1  0  0  0
  6  5  1  0  0  0
  8  9  1  0  0  0
  8  2  1  0  0  0
  3  2  1  0  0  0
  3  4  1  0  0  0
  2  1  2  0  0  0
  5  4  1  0  0  0
M  END
> <minimizedAffinity>
-8.05097

$$$$
5J1R_6FG_A_301


 14 15  0  0  0  0  0  0  0  0999 V2000
   31.0877   18.0398   14.9616 O   0  0  0  0  0  0  0  0  0  0  0  0
   30.6459   17.1875   15.7503 C   0  0  0  0  0  0  0  0  0  0  0  0
   30.0195   16.0163   15.3026 N   0  0  0  0  0  0  0  0  0  0  0  0
   30.1137   15.4779   13.9354 C   0  0  0  0  0  0  0  0  0  0  0  0
   29.4609   14.1026   13.9477 C   0  0  0  0  0  0  0  0  0  0  0  0
   28.9323   14.0220   15.3477 C   0  0  0  0  0  0  0  0  0  0  0  0
   29.2505   15.2462   16.2077 C   0  0  0  0  0  0  0  0  0  0  0  0
   30.8991   17.4822   17.1951 C   0  0  0  0  0  0  0  0  0  0  0  0
   32.3757   17.8083   17.2754 C   0  0  0  0  0  0  0  0  0  0  0  0
   32.4512   18.9081   18.2038 C   0  0  0  0  0  0  0  0  0  0  0  0
   32.6282   18.7793   19.5505 C   0  0  0  0  0  0  0  0  0  0  0  0
   32.3468   20.2322   17.7903 C   0  0  0  0  0  0  0  0  0  0  0  0
   32.4953   20.9186   18.9715 O   0  0  0  0  0  0  0  0  0  0  0  0
   32.6682   20.0629   20.0556 C   0  0  0  0  0  0  0  0  0  0  0  0
 13 12  1  0  0  0
 13 14  1  0  0  0
 12 10  2  0  0  0
 14 11  2  0  0  0
  7  6  1  0  0  0
  7  3  1  0  0  0
 10 11  1  0  0  0
 10  9  1  0  0  0
  6  5  1  0  0  0
  8  9  1  0  0  0
  8  2  1  0  0  0
  3  2  1  0  0  0
  3  4  1  0  0  0
  2  1  2  0  0  0
  5  4  1  0  0  0
M  END
> <minimizedAffinity>
-7.91646

$$$$
5J1R_6FG_A_301


 14 15  0  0  0  0  0  0  0  0999 V2000
   27.8465   12.2865   15.9604 O   0  0  0  0  0  0  0  0  0  0  0  0
   28.2837   12.3584   14.7997 C   0  0  0  0  0  0  0  0  0  0  0  0
   28.2603   11.2606   13.9287 N   0  0  0  0  0  0  0  0  0  0  0  0
   27.4383   10.0531   14.1137 C   0  0  0  0  0  0  0  0  0  0  0  0
   27.5653    9.2235   12.8436 C   0  0  0  0  0  0  0  0  0  0  0  0
   28.5757   10.0062   12.0609 C   0  0  0  0  0  0  0  0  0  0  0  0
   29.0508   11.2839   12.7547 C   0  0  0  0  0  0  0  0  0  0  0  0
   28.7654   13.7162   14.3963 C   0  0  0  0  0  0  0  0  0  0  0  0
   28.9355   14.4737   15.6965 C   0  0  0  0  0  0  0  0  0  0  0  0
   29.7403   15.6163   15.3444 C   0  0  0  0  0  0  0  0  0  0  0  0
   30.0548   16.6380   16.1922 C   0  0  0  0  0  0  0  0  0  0  0  0
   30.2795   15.7761   14.0721 C   0  0  0  0  0  0  0  0  0  0  0  0
   30.9712   16.9571   14.1952 O   0  0  0  0  0  0  0  0  0  0  0  0
   30.8531   17.5019   15.4705 C   0  0  0  0  0  0  0  0  0  0  0  0
 13 12  1  0  0  0
 13 14  1  0  0  0
 12 10  2  0  0  0
 14 11  2  0  0  0
  7  6  1  0  0  0
  7  3  1  0  0  0
 10 11  1  0  0  0
 10  9  1  0  0  0
  6  5  1  0  0  0
  8  9  1  0  0  0
  8  2  1  0  0  0
  3  2  1  0  0  0
  3  4  1  0  0  0
  2  1  2  0  0  0
  5  4  1  0  0  0
M  END
> <minimizedAffinity>
-7.84971

$$$$
5J1R_6FG_A_301


 14 15  0  0  0  0  0  0  0  0999 V2000
   28.6322   12.0064   11.8286 O   0  0  0  0  0  0  0  0  0  0  0  0
   28.3256   11.6428   12.9763 C   0  0  0  0  0  0  0  0  0  0  0  0
   27.8509   10.3514   13.2436 N   0  0  0  0  0  0  0  0  0  0  0  0
   27.9853    9.1981   12.3383 C   0  0  0  0  0  0  0  0  0  0  0  0
   27.5219    7.9676   13.1056 C   0  0  0  0  0  0  0  0  0  0  0  0
   27.0402    8.5667   14.3921 C   0  0  0  0  0  0  0  0  0  0  0  0
   27.2117   10.0842   14.4779 C   0  0  0  0  0  0  0  0  0  0  0  0
   28.5695   12.6646   14.0416 C   0  0  0  0  0  0  0  0  0  0  0  0
   29.4825   13.6886   13.4005 C   0  0  0  0  0  0  0  0  0  0  0  0
   29.6611   14.6964   14.4151 C   0  0  0  0  0  0  0  0  0  0  0  0
   30.3502   15.8613   14.2425 C   0  0  0  0  0  0  0  0  0  0  0  0
   29.1290   14.5603   15.6931 C   0  0  0  0  0  0  0  0  0  0  0  0
   29.5153   15.7334   16.2958 O   0  0  0  0  0  0  0  0  0  0  0  0
   30.2568   16.5420   15.4394 C   0  0  0  0  0  0  0  0  0  0  0  0
 13 12  1  0  0  0
 13 14  1  0  0  0
 12 10  2  0  0  0
 14 11  2  0  0  0
  7  6  1  0  0  0
  7  3  1  0  0  0
 10 11  1  0  0  0
 10  9  1  0  0  0
  6  5  1  0  0  0
  8  9  1  0  0  0
  8  2  1  0  0  0
  3  2  1  0  0  0
  3  4  1  0  0  0
  2  1  2  0  0  0
  5  4  1  0  0  0
M  END
> <minimizedAffinity>
-7.70002

$$$$
5J1R_6FG_A_301


 14 15  0  0  0  0  0  0  0  0999 V2000
   30.8442   18.4224   15.1070 O   0  0  0  0  0  0  0  0  0  0  0  0
   31.0240   17.7725   16.1505 C   0  0  0  0  0  0  0  0  0  0  0  0
   31.6886   18.3164   17.2581 N   0  0  0  0  0  0  0  0  0  0  0  0
   31.9282   19.7525   17.4777 C   0  0  0  0  0  0  0  0  0  0  0  0
   32.4887   19.9049   18.8850 C   0  0  0  0  0  0  0  0  0  0  0  0
   32.6298   18.4776   19.3196 C   0  0  0  0  0  0  0  0  0  0  0  0
   32.1575   17.4583   18.2815 C   0  0  0  0  0  0  0  0  0  0  0  0
   30.4175   16.4048   16.1472 C   0  0  0  0  0  0  0  0  0  0  0  0
   30.3523   16.0087   14.6870 C   0  0  0  0  0  0  0  0  0  0  0  0
   29.5742   14.7957   14.6779 C   0  0  0  0  0  0  0  0  0  0  0  0
   29.4845   13.9363   13.6220 C   0  0  0  0  0  0  0  0  0  0  0  0
   28.8278   14.3886   15.7790 C   0  0  0  0  0  0  0  0  0  0  0  0
   28.2868   13.2034   15.3418 O   0  0  0  0  0  0  0  0  0  0  0  0
   28.6684   12.9038   14.0373 C   0  0  0  0  0  0  0  0  0  0  0  0
 13 12  1  0  0  0
 13 14  1  0  0  0
 12 10  2  0  0  0
 14 11  2  0  0  0
  7  6  1  0  0  0
  7  3  1  0  0  0
 10 11  1  0  0  0
 10  9  1  0  0  0
  6  5  1  0  0  0
  8  9  1  0  0  0
  8  2  1  0  0  0
  3  2  1  0  0  0
  3  4  1  0  0  0
  2  1  2  0  0  0
  5  4  1  0  0  0
M  END
> <minimizedAffinity>
-7.33162

$$$$
5J1R_6FG_A_301


 14 15  0  0  0  0  0  0  0  0999 V2000
   27.5486   12.4707   15.8809 O   0  0  0  0  0  0  0  0  0  0  0  0
   28.3211   12.6723   14.9291 C   0  0  0  0  0  0  0  0  0  0  0  0
   28.9889   13.8931   14.7612 N   0  0  0  0  0  0  0  0  0  0  0  0
   29.1561   14.9151   15.8078 C   0  0  0  0  0  0  0  0  0  0  0  0
   30.1090   15.9683   15.2597 C   0  0  0  0  0  0  0  0  0  0  0  0
   30.3213   15.4941   13.8540 C   0  0  0  0  0  0  0  0  0  0  0  0
   29.5872   14.1958   13.5146 C   0  0  0  0  0  0  0  0  0  0  0  0
   28.5272   11.4935   14.0311 C   0  0  0  0  0  0  0  0  0  0  0  0
   27.8103   10.3490   14.7162 C   0  0  0  0  0  0  0  0  0  0  0  0
   27.5107    9.4240   13.6524 C   0  0  0  0  0  0  0  0  0  0  0  0
   27.1760    9.7834   12.3795 C   0  0  0  0  0  0  0  0  0  0  0  0
   27.5393    8.0462   13.8418 C   0  0  0  0  0  0  0  0  0  0  0  0
   27.2222    7.5738   12.5909 O   0  0  0  0  0  0  0  0  0  0  0  0
   26.9972    8.6051   11.6838 C   0  0  0  0  0  0  0  0  0  0  0  0
 13 12  1  0  0  0
 13 14  1  0  0  0
 12 10  2  0  0  0
 14 11  2  0  0  0
  7  6  1  0  0  0
  7  3  1  0  0  0
 10 11  1  0  0  0
 10  9  1  0  0  0
  6  5  1  0  0  0
  8  9  1  0  0  0
  8  2  1  0  0  0
  3  2  1  0  0  0
  3  4  1  0  0  0
  2  1  2  0  0  0
  5  4  1  0  0  0
M  END
> <minimizedAffinity>
-7.08122

$$$$
5J1R_6FG_A_301


 14 15  0  0  0  0  0  0  0  0999 V2000
   29.8194   14.2555   13.1394 O   0  0  0  0  0  0  0  0  0  0  0  0
   29.2255   13.7472   14.1050 C   0  0  0  0  0  0  0  0  0  0  0  0
   28.7212   12.4402   14.0616 N   0  0  0  0  0  0  0  0  0  0  0  0
   29.1133   11.4160   13.0793 C   0  0  0  0  0  0  0  0  0  0  0  0
   28.4858   10.1023   13.5244 C   0  0  0  0  0  0  0  0  0  0  0  0
   27.6680   10.5325   14.7043 C   0  0  0  0  0  0  0  0  0  0  0  0
   27.7819   12.0217   15.0343 C   0  0  0  0  0  0  0  0  0  0  0  0
   29.1580   14.6132   15.3232 C   0  0  0  0  0  0  0  0  0  0  0  0
   29.2116   16.0326   14.7983 C   0  0  0  0  0  0  0  0  0  0  0  0
   30.2782   16.6517   15.5440 C   0  0  0  0  0  0  0  0  0  0  0  0
   30.2162   16.9764   16.8677 C   0  0  0  0  0  0  0  0  0  0  0  0
   31.4964   16.9790   14.9573 C   0  0  0  0  0  0  0  0  0  0  0  0
   32.1961   17.5081   16.0151 O   0  0  0  0  0  0  0  0  0  0  0  0
   31.4446   17.5186   17.1865 C   0  0  0  0  0  0  0  0  0  0  0  0
 13 12  1  0  0  0
 13 14  1  0  0  0
 12 10  2  0  0  0
 14 11  2  0  0  0
  7  6  1  0  0  0
  7  3  1  0  0  0
 10 11  1  0  0  0
 10  9  1  0  0  0
  6  5  1  0  0  0
  8  9  1  0  0  0
  8  2  1  0  0  0
  3  2  1  0  0  0
  3  4  1  0  0  0
  2  1  2  0  0  0
  5  4  1  0  0  0
M  END
> <minimizedAffinity>
-7.04192

$$$$
5J1R_6FG_A_301


 14 15  0  0  0  0  0  0  0  0999 V2000
   27.2858    9.5585   11.4863 O   0  0  0  0  0  0  0  0  0  0  0  0
   27.5977    8.9346   12.5144 C   0  0  0  0  0  0  0  0  0  0  0  0
   27.2040    7.6059   12.7241 N   0  0  0  0  0  0  0  0  0  0  0  0
   26.7162    6.6942   11.6759 C   0  0  0  0  0  0  0  0  0  0  0  0
   26.6033    5.3103   12.3003 C   0  0  0  0  0  0  0  0  0  0  0  0
   26.9425    5.5874   13.7335 C   0  0  0  0  0  0  0  0  0  0  0  0
   27.2919    7.0483   14.0222 C   0  0  0  0  0  0  0  0  0  0  0  0
   28.4748    9.6902   13.4621 C   0  0  0  0  0  0  0  0  0  0  0  0
   28.6480   11.0559   12.8312 C   0  0  0  0  0  0  0  0  0  0  0  0
   28.5209   11.9788   13.9308 C   0  0  0  0  0  0  0  0  0  0  0  0
   28.8927   13.2910   13.8929 C   0  0  0  0  0  0  0  0  0  0  0  0
   27.9921   11.5958   15.1592 C   0  0  0  0  0  0  0  0  0  0  0  0
   28.0391   12.7681   15.8747 O   0  0  0  0  0  0  0  0  0  0  0  0
   28.5802   13.8131   15.1315 C   0  0  0  0  0  0  0  0  0  0  0  0
 13 12  1  0  0  0
 13 14  1  0  0  0
 12 10  2  0  0  0
 14 11  2  0  0  0
  7  6  1  0  0  0
  7  3  1  0  0  0
 10 11  1  0  0  0
 10  9  1  0  0  0
  6  5  1  0  0  0
  8  9  1  0  0  0
  8  2  1  0  0  0
  3  2  1  0  0  0
  3  4  1  0  0  0
  2  1  2  0  0  0
  5  4  1  0  0  0
M  END
> <minimizedAffinity>
-6.89268

$$$$
5J1R_6FG_A_301


 14 15  0  0  0  0  0  0  0  0999 V2000
   29.6476   11.7357   11.9655 O   0  0  0  0  0  0  0  0  0  0  0  0
   28.9388   11.9949   12.9525 C   0  0  0  0  0  0  0  0  0  0  0  0
   29.1589   13.1284   13.7468 N   0  0  0  0  0  0  0  0  0  0  0  0
   29.9641   14.2952   13.3489 C   0  0  0  0  0  0  0  0  0  0  0  0
   29.7645   15.3640   14.4146 C   0  0  0  0  0  0  0  0  0  0  0  0
   28.9198   14.6445   15.4220 C   0  0  0  0  0  0  0  0  0  0  0  0
   28.5576   13.2123   15.0255 C   0  0  0  0  0  0  0  0  0  0  0  0
   27.8048   11.0446   13.1743 C   0  0  0  0  0  0  0  0  0  0  0  0
   28.1804    9.7988   12.3995 C   0  0  0  0  0  0  0  0  0  0  0  0
   27.6429    8.7137   13.1810 C   0  0  0  0  0  0  0  0  0  0  0  0
   27.7286    7.3944   12.8437 C   0  0  0  0  0  0  0  0  0  0  0  0
   26.9721    8.9287   14.3805 C   0  0  0  0  0  0  0  0  0  0  0  0
   26.6676    7.6488   14.7773 O   0  0  0  0  0  0  0  0  0  0  0  0
   27.1149    6.6978   13.8648 C   0  0  0  0  0  0  0  0  0  0  0  0
 13 12  1  0  0  0
 13 14  1  0  0  0
 12 10  2  0  0  0
 14 11  2  0  0  0
  7  6  1  0  0  0
  7  3  1  0  0  0
 10 11  1  0  0  0
 10  9  1  0  0  0
  6  5  1  0  0  0
  8  9  1  0  0  0
  8  2  1  0  0  0
  3  2  1  0  0  0
  3  4  1  0  0  0
  2  1  2  0  0  0
  5  4  1  0  0  0
M  END
> <minimizedAffinity>
-6.85515

$$$$
5J1R_6FG_A_301


 14 15  0  0  0  0  0  0  0  0999 V2000
   30.3317   16.1085   13.5899 O   0  0  0  0  0  0  0  0  0  0  0  0
   29.9166   15.5408   14.6141 C   0  0  0  0  0  0  0  0  0  0  0  0
   29.2598   14.3037   14.5623 N   0  0  0  0  0  0  0  0  0  0  0  0
   29.2887   13.3795   13.4165 C   0  0  0  0  0  0  0  0  0  0  0  0
   28.6237   12.0857   13.8653 C   0  0  0  0  0  0  0  0  0  0  0  0
   28.1561   12.4388   15.2447 C   0  0  0  0  0  0  0  0  0  0  0  0
   28.5237   13.8566   15.6856 C   0  0  0  0  0  0  0  0  0  0  0  0
   30.2357   16.2479   15.8934 C   0  0  0  0  0  0  0  0  0  0  0  0
   31.3115   17.2497   15.5294 C   0  0  0  0  0  0  0  0  0  0  0  0
   31.7007   17.8328   16.7886 C   0  0  0  0  0  0  0  0  0  0  0  0
   32.2019   17.1345   17.8481 C   0  0  0  0  0  0  0  0  0  0  0  0
   31.5942   19.1978   17.0347 C   0  0  0  0  0  0  0  0  0  0  0  0
   32.0870   19.3024   18.3132 O   0  0  0  0  0  0  0  0  0  0  0  0
   32.4638   18.0668   18.8314 C   0  0  0  0  0  0  0  0  0  0  0  0
 13 12  1  0  0  0
 13 14  1  0  0  0
 12 10  2  0  0  0
 14 11  2  0  0  0
  7  6  1  0  0  0
  7  3  1  0  0  0
 10 11  1  0  0  0
 10  9  1  0  0  0
  6  5  1  0  0  0
  8  9  1  0  0  0
  8  2  1  0  0  0
  3  2  1  0  0  0
  3  4  1  0  0  0
  2  1  2  0  0  0
  5  4  1  0  0  0
M  END
> <minimizedAffinity>
-6.80919

$$$$
