4HW3_19G_A_400


 26 28  0  0  0  0  0  0  0  0999 V2000
   36.0885   -7.9476   21.5478 C   0  0  0  0  0  0  0  0  0  0  0  0
   34.5719   -7.2142   21.6689 S   0  0  0  0  0  0  0  0  0  0  0  0
   34.5261   -6.9310   23.3419 C   0  0  0  0  0  0  0  0  0  0  0  0
   33.5956   -6.3533   24.2027 C   0  0  0  0  0  0  0  0  0  0  0  0
   33.8433   -6.2733   25.5661 C   0  0  0  0  0  0  0  0  0  0  0  0
   35.0544   -6.7678   26.0681 C   0  0  0  0  0  0  0  0  0  0  0  0
   35.9985   -7.3311   25.2190 C   0  0  0  0  0  0  0  0  0  0  0  0
   35.7424   -7.4243   23.8513 C   0  0  0  0  0  0  0  0  0  0  0  0
   36.6174   -7.9897   22.8619 C   0  0  0  0  0  0  0  0  0  0  0  0
   36.0870   -9.3603   19.6958 O   0  0  0  0  0  0  0  0  0  0  0  0
   36.6714   -8.4038   20.2594 C   0  0  0  0  0  0  0  0  0  0  0  0
   37.6883   -7.8815   19.7353 O   0  0  0  0  0  0  0  0  0  0  0  0
   38.1203   -7.1674   20.1612 H   0  0  0  0  0  0  0  0  0  0  0  0
   37.9508   -8.5802   23.1904 C   0  0  0  0  0  0  0  0  0  0  0  0
   38.1023  -10.0382   22.8906 C   0  0  0  0  0  0  0  0  0  0  0  0
   38.1052  -11.0033   24.0348 C   0  0  0  0  0  0  0  0  0  0  0  0
   37.6811  -10.3852   25.1955 O   0  0  0  0  0  0  0  0  0  0  0  0
   38.4563  -10.2953   26.3202 C   0  0  0  0  0  0  0  0  0  0  0  0
   38.0587  -10.8935   27.4958 C   0  0  0  0  0  0  0  0  0  0  0  0
   38.8801  -10.7806   28.6162 C   0  0  0  0  0  0  0  0  0  0  0  0
   38.4594  -11.4099   29.9070 C   0  0  0  0  0  0  0  0  0  0  0  0
   40.0846  -10.0768   28.5642 C   0  0  0  0  0  0  0  0  0  0  0  0
   41.1119   -9.9375   29.9613 Cl  0  0  0  0  0  0  0  0  0  0  0  0
   40.4696   -9.4814   27.3734 C   0  0  0  0  0  0  0  0  0  0  0  0
   41.7597   -8.7211   27.3184 C   0  0  0  0  0  0  0  0  0  0  0  0
   39.6547   -9.5975   26.2476 C   0  0  0  0  0  0  0  0  0  0  0  0
 10 11  2  0  0  0
 12 11  1  0  0  0
 11  1  1  0  0  0
  1  2  1  0  0  0
  1  9  2  0  0  0
  2  3  1  0  0  0
 14 15  1  0  0  0
 14  9  1  0  0  0
 15 16  1  0  0  0
  9  8  1  0  0  0
  3  8  2  0  0  0
  3  4  1  0  0  0
  8  7  1  0  0  0
 16 17  1  0  0  0
 17 18  1  0  0  0
  4  5  2  0  0  0
  7  6  2  0  0  0
 18 26  2  0  0  0
 18 19  1  0  0  0
  5  6  1  0  0  0
 26 24  1  0  0  0
 19 20  2  0  0  0
 24 25  1  0  0  0
 24 22  2  0  0  0
 20 22  1  0  0  0
 20 21  1  0  0  0
 22 23  1  0  0  0
 12 13  1  0  0  0
M  END
> <minimizedAffinity>
-10.62092

$$$$
4HW3_19G_A_400


 26 28  0  0  0  0  0  0  0  0999 V2000
   35.9084   -7.8403   21.5404 C   0  0  0  0  0  0  0  0  0  0  0  0
   34.3903   -7.1243   21.7284 S   0  0  0  0  0  0  0  0  0  0  0  0
   34.4067   -6.8598   23.4051 C   0  0  0  0  0  0  0  0  0  0  0  0
   33.5045   -6.3014   24.3078 C   0  0  0  0  0  0  0  0  0  0  0  0
   33.8043   -6.2336   25.6613 C   0  0  0  0  0  0  0  0  0  0  0  0
   35.0390   -6.7207   26.1104 C   0  0  0  0  0  0  0  0  0  0  0  0
   35.9550   -7.2647   25.2191 C   0  0  0  0  0  0  0  0  0  0  0  0
   35.6469   -7.3458   23.8613 C   0  0  0  0  0  0  0  0  0  0  0  0
   36.4884   -7.8911   22.8325 C   0  0  0  0  0  0  0  0  0  0  0  0
   35.8800   -9.2639   19.6970 O   0  0  0  0  0  0  0  0  0  0  0  0
   36.4453   -8.2762   20.2253 C   0  0  0  0  0  0  0  0  0  0  0  0
   37.4069   -7.7086   19.6468 O   0  0  0  0  0  0  0  0  0  0  0  0
   37.8250   -6.9715   20.0465 H   0  0  0  0  0  0  0  0  0  0  0  0
   37.8395   -8.4710   23.1024 C   0  0  0  0  0  0  0  0  0  0  0  0
   37.9930   -9.9248   22.7835 C   0  0  0  0  0  0  0  0  0  0  0  0
   38.1261  -10.8919   23.9182 C   0  0  0  0  0  0  0  0  0  0  0  0
   37.6994  -10.3183   25.1006 O   0  0  0  0  0  0  0  0  0  0  0  0
   38.4956  -10.2115   26.2090 C   0  0  0  0  0  0  0  0  0  0  0  0
   39.6885   -9.5247   26.1523 C   0  0  0  0  0  0  0  0  0  0  0  0
   40.4665   -9.4369   27.3055 C   0  0  0  0  0  0  0  0  0  0  0  0
   41.7730   -8.7085   27.2614 C   0  0  0  0  0  0  0  0  0  0  0  0
   40.0592  -10.0298   28.5018 C   0  0  0  0  0  0  0  0  0  0  0  0
   41.0283   -9.9187   29.9424 Cl  0  0  0  0  0  0  0  0  0  0  0  0
   38.8561  -10.7167   28.5414 C   0  0  0  0  0  0  0  0  0  0  0  0
   38.4210  -11.3581   29.8239 C   0  0  0  0  0  0  0  0  0  0  0  0
   38.0706  -10.8014   27.3922 C   0  0  0  0  0  0  0  0  0  0  0  0
 10 11  2  0  0  0
 12 11  1  0  0  0
 11  1  1  0  0  0
  1  2  1  0  0  0
  1  9  2  0  0  0
  2  3  1  0  0  0
 14 15  1  0  0  0
 14  9  1  0  0  0
 15 16  1  0  0  0
  9  8  1  0  0  0
  3  8  2  0  0  0
  3  4  1  0  0  0
  8  7  1  0  0  0
 16 17  1  0  0  0
 17 18  1  0  0  0
  4  5  2  0  0  0
  7  6  2  0  0  0
 18 26  2  0  0  0
 18 19  1  0  0  0
  5  6  1  0  0  0
 26 24  1  0  0  0
 19 20  2  0  0  0
 24 25  1  0  0  0
 24 22  2  0  0  0
 20 22  1  0  0  0
 20 21  1  0  0  0
 22 23  1  0  0  0
 12 13  1  0  0  0
M  END
> <minimizedAffinity>
-10.61925

$$$$
4HW3_19G_A_400


 26 28  0  0  0  0  0  0  0  0999 V2000
   35.1075   -7.6324   21.2305 C   0  0  0  0  0  0  0  0  0  0  0  0
   33.6146   -7.1463   21.8531 S   0  0  0  0  0  0  0  0  0  0  0  0
   34.0366   -6.9553   23.4862 C   0  0  0  0  0  0  0  0  0  0  0  0
   33.3401   -6.5693   24.6292 C   0  0  0  0  0  0  0  0  0  0  0  0
   33.9731   -6.5188   25.8634 C   0  0  0  0  0  0  0  0  0  0  0  0
   35.3331   -6.8461   25.9449 C   0  0  0  0  0  0  0  0  0  0  0  0
   36.0441   -7.2164   24.8104 C   0  0  0  0  0  0  0  0  0  0  0  0
   35.4036   -7.2810   23.5732 C   0  0  0  0  0  0  0  0  0  0  0  0
   36.0074   -7.6571   22.3250 C   0  0  0  0  0  0  0  0  0  0  0  0
   35.6178   -6.9514   19.0622 O   0  0  0  0  0  0  0  0  0  0  0  0
   35.3311   -7.9307   19.7922 C   0  0  0  0  0  0  0  0  0  0  0  0
   35.2487   -9.0864   19.3032 O   0  0  0  0  0  0  0  0  0  0  0  0
   35.0342   -9.8138   19.8536 H   0  0  0  0  0  0  0  0  0  0  0  0
   37.4434   -8.0520   22.1969 C   0  0  0  0  0  0  0  0  0  0  0  0
   37.7042   -9.5238   22.1293 C   0  0  0  0  0  0  0  0  0  0  0  0
   38.0804  -10.2382   23.3897 C   0  0  0  0  0  0  0  0  0  0  0  0
   38.6066   -9.3549   24.3128 O   0  0  0  0  0  0  0  0  0  0  0  0
   38.8694   -9.6997   25.6112 C   0  0  0  0  0  0  0  0  0  0  0  0
   37.9896  -10.4888   26.3192 C   0  0  0  0  0  0  0  0  0  0  0  0
   38.2980  -10.8194   27.6377 C   0  0  0  0  0  0  0  0  0  0  0  0
   37.3486  -11.6627   28.4293 C   0  0  0  0  0  0  0  0  0  0  0  0
   39.4711  -10.3658   28.2435 C   0  0  0  0  0  0  0  0  0  0  0  0
   39.8582  -10.7800   29.8883 Cl  0  0  0  0  0  0  0  0  0  0  0  0
   40.3453   -9.5731   27.5167 C   0  0  0  0  0  0  0  0  0  0  0  0
   41.6019   -9.0813   28.1682 C   0  0  0  0  0  0  0  0  0  0  0  0
   40.0447   -9.2454   26.1949 C   0  0  0  0  0  0  0  0  0  0  0  0
 10 11  2  0  0  0
 12 11  1  0  0  0
 11  1  1  0  0  0
  1  2  1  0  0  0
  1  9  2  0  0  0
  2  3  1  0  0  0
 14 15  1  0  0  0
 14  9  1  0  0  0
 15 16  1  0  0  0
  9  8  1  0  0  0
  3  8  2  0  0  0
  3  4  1  0  0  0
  8  7  1  0  0  0
 16 17  1  0  0  0
 17 18  1  0  0  0
  4  5  2  0  0  0
  7  6  2  0  0  0
 18 26  2  0  0  0
 18 19  1  0  0  0
  5  6  1  0  0  0
 26 24  1  0  0  0
 19 20  2  0  0  0
 24 25  1  0  0  0
 24 22  2  0  0  0
 20 22  1  0  0  0
 20 21  1  0  0  0
 22 23  1  0  0  0
 12 13  1  0  0  0
M  END
> <minimizedAffinity>
-10.25835

$$$$
4HW3_19G_A_400


 26 28  0  0  0  0  0  0  0  0999 V2000
   34.9783   -7.2893   24.6030 C   0  0  0  0  0  0  0  0  0  0  0  0
   34.8753   -6.9148   22.9593 S   0  0  0  0  0  0  0  0  0  0  0  0
   36.1634   -7.8522   22.3732 C   0  0  0  0  0  0  0  0  0  0  0  0
   36.7062   -8.0726   21.1093 C   0  0  0  0  0  0  0  0  0  0  0  0
   37.8012   -8.9091   20.9427 C   0  0  0  0  0  0  0  0  0  0  0  0
   38.3477   -9.5468   22.0643 C   0  0  0  0  0  0  0  0  0  0  0  0
   37.8061   -9.3494   23.3281 C   0  0  0  0  0  0  0  0  0  0  0  0
   36.7150   -8.4972   23.4966 C   0  0  0  0  0  0  0  0  0  0  0  0
   36.0625   -8.1917   24.7396 C   0  0  0  0  0  0  0  0  0  0  0  0
   34.5741   -6.1083   26.5697 O   0  0  0  0  0  0  0  0  0  0  0  0
   34.0472   -6.7403   25.6226 C   0  0  0  0  0  0  0  0  0  0  0  0
   32.7986   -6.8804   25.5676 O   0  0  0  0  0  0  0  0  0  0  0  0
   32.4111   -7.3535   24.8577 H   0  0  0  0  0  0  0  0  0  0  0  0
   36.4964   -8.7591   26.0527 C   0  0  0  0  0  0  0  0  0  0  0  0
   35.9602  -10.1178   26.3771 C   0  0  0  0  0  0  0  0  0  0  0  0
   36.8761  -11.2943   26.2448 C   0  0  0  0  0  0  0  0  0  0  0  0
   37.4321  -11.6196   27.4672 O   0  0  0  0  0  0  0  0  0  0  0  0
   38.4361  -10.8930   28.0484 C   0  0  0  0  0  0  0  0  0  0  0  0
   38.4457  -10.6725   29.4083 C   0  0  0  0  0  0  0  0  0  0  0  0
   39.4891   -9.9305   29.9594 C   0  0  0  0  0  0  0  0  0  0  0  0
   39.5104   -9.6666   31.4322 C   0  0  0  0  0  0  0  0  0  0  0  0
   40.5108   -9.4126   29.1614 C   0  0  0  0  0  0  0  0  0  0  0  0
   41.8149   -8.4885   29.8486 Cl  0  0  0  0  0  0  0  0  0  0  0  0
   40.4858   -9.6440   27.7952 C   0  0  0  0  0  0  0  0  0  0  0  0
   41.5792   -9.0837   26.9375 C   0  0  0  0  0  0  0  0  0  0  0  0
   39.4479  -10.3919   27.2399 C   0  0  0  0  0  0  0  0  0  0  0  0
 10 11  2  0  0  0
 12 11  1  0  0  0
 11  1  1  0  0  0
  1  2  1  0  0  0
  1  9  2  0  0  0
  2  3  1  0  0  0
 14 15  1  0  0  0
 14  9  1  0  0  0
 15 16  1  0  0  0
  9  8  1  0  0  0
  3  8  2  0  0  0
  3  4  1  0  0  0
  8  7  1  0  0  0
 16 17  1  0  0  0
 17 18  1  0  0  0
  4  5  2  0  0  0
  7  6  2  0  0  0
 18 26  2  0  0  0
 18 19  1  0  0  0
  5  6  1  0  0  0
 26 24  1  0  0  0
 19 20  2  0  0  0
 24 25  1  0  0  0
 24 22  2  0  0  0
 20 22  1  0  0  0
 20 21  1  0  0  0
 22 23  1  0  0  0
 12 13  1  0  0  0
M  END
> <minimizedAffinity>
-9.65628

$$$$
4HW3_19G_A_400


 26 28  0  0  0  0  0  0  0  0999 V2000
   34.4277   -6.8702   23.2847 C   0  0  0  0  0  0  0  0  0  0  0  0
   34.1143   -7.2548   21.6702 S   0  0  0  0  0  0  0  0  0  0  0  0
   35.5918   -7.9826   21.2596 C   0  0  0  0  0  0  0  0  0  0  0  0
   36.0986   -8.5604   20.0977 C   0  0  0  0  0  0  0  0  0  0  0  0
   37.3870   -9.0756   20.0645 C   0  0  0  0  0  0  0  0  0  0  0  0
   38.1714   -9.0230   21.2244 C   0  0  0  0  0  0  0  0  0  0  0  0
   37.6728   -8.4649   22.3947 C   0  0  0  0  0  0  0  0  0  0  0  0
   36.3834   -7.9344   22.4230 C   0  0  0  0  0  0  0  0  0  0  0  0
   35.7447   -7.3194   23.5535 C   0  0  0  0  0  0  0  0  0  0  0  0
   33.1844   -5.0052   23.9184 O   0  0  0  0  0  0  0  0  0  0  0  0
   33.4357   -6.2082   24.1709 C   0  0  0  0  0  0  0  0  0  0  0  0
   32.8610   -6.7916   25.1252 O   0  0  0  0  0  0  0  0  0  0  0  0
   33.0529   -7.6902   25.3088 H   0  0  0  0  0  0  0  0  0  0  0  0
   36.4120   -7.1551   24.8810 C   0  0  0  0  0  0  0  0  0  0  0  0
   35.9794   -8.1153   25.9437 C   0  0  0  0  0  0  0  0  0  0  0  0
   35.9010   -9.5699   25.5992 C   0  0  0  0  0  0  0  0  0  0  0  0
   37.1654  -10.0979   25.4212 O   0  0  0  0  0  0  0  0  0  0  0  0
   38.1222  -10.0917   26.4002 C   0  0  0  0  0  0  0  0  0  0  0  0
   39.3430   -9.4910   26.1840 C   0  0  0  0  0  0  0  0  0  0  0  0
   40.2871   -9.5042   27.2094 C   0  0  0  0  0  0  0  0  0  0  0  0
   41.6249   -8.8707   26.9899 C   0  0  0  0  0  0  0  0  0  0  0  0
   40.0162  -10.1119   28.4366 C   0  0  0  0  0  0  0  0  0  0  0  0
   41.1929  -10.1266   29.7179 Cl  0  0  0  0  0  0  0  0  0  0  0  0
   38.7828  -10.7113   28.6373 C   0  0  0  0  0  0  0  0  0  0  0  0
   38.4935  -11.3687   29.9524 C   0  0  0  0  0  0  0  0  0  0  0  0
   37.8322  -10.6946   27.6171 C   0  0  0  0  0  0  0  0  0  0  0  0
 10 11  2  0  0  0
 12 11  1  0  0  0
 11  1  1  0  0  0
  1  2  1  0  0  0
  1  9  2  0  0  0
  2  3  1  0  0  0
 14 15  1  0  0  0
 14  9  1  0  0  0
 15 16  1  0  0  0
  9  8  1  0  0  0
  3  8  2  0  0  0
  3  4  1  0  0  0
  8  7  1  0  0  0
 16 17  1  0  0  0
 17 18  1  0  0  0
  4  5  2  0  0  0
  7  6  2  0  0  0
 18 26  2  0  0  0
 18 19  1  0  0  0
  5  6  1  0  0  0
 26 24  1  0  0  0
 19 20  2  0  0  0
 24 25  1  0  0  0
 24 22  2  0  0  0
 20 22  1  0  0  0
 20 21  1  0  0  0
 22 23  1  0  0  0
 12 13  1  0  0  0
M  END
> <minimizedAffinity>
-9.59036

$$$$
4HW3_19G_A_400


 26 28  0  0  0  0  0  0  0  0999 V2000
   37.0621   -9.1173   24.2541 C   0  0  0  0  0  0  0  0  0  0  0  0
   36.6117   -8.1491   22.9455 S   0  0  0  0  0  0  0  0  0  0  0  0
   35.3393   -7.2811   23.6591 C   0  0  0  0  0  0  0  0  0  0  0  0
   34.4718   -6.2876   23.2110 C   0  0  0  0  0  0  0  0  0  0  0  0
   33.4960   -5.7660   24.0490 C   0  0  0  0  0  0  0  0  0  0  0  0
   33.4033   -6.2407   25.3641 C   0  0  0  0  0  0  0  0  0  0  0  0
   34.2727   -7.2191   25.8294 C   0  0  0  0  0  0  0  0  0  0  0  0
   35.2433   -7.7529   24.9822 C   0  0  0  0  0  0  0  0  0  0  0  0
   36.1972   -8.7721   25.3223 C   0  0  0  0  0  0  0  0  0  0  0  0
   39.3051   -9.6704   24.5528 O   0  0  0  0  0  0  0  0  0  0  0  0
   38.1795  -10.0950   24.1963 C   0  0  0  0  0  0  0  0  0  0  0  0
   38.0389  -11.2866   23.8200 O   0  0  0  0  0  0  0  0  0  0  0  0
   37.1957  -11.5978   23.5550 H   0  0  0  0  0  0  0  0  0  0  0  0
   36.2598   -9.4175   26.6691 C   0  0  0  0  0  0  0  0  0  0  0  0
   35.9740  -10.8859   26.6948 C   0  0  0  0  0  0  0  0  0  0  0  0
   36.2769  -11.6479   27.9471 C   0  0  0  0  0  0  0  0  0  0  0  0
   37.6183  -11.9738   28.0075 O   0  0  0  0  0  0  0  0  0  0  0  0
   38.5716  -11.1253   28.5027 C   0  0  0  0  0  0  0  0  0  0  0  0
   38.5753  -10.7753   29.8351 C   0  0  0  0  0  0  0  0  0  0  0  0
   39.5666   -9.9118   30.2983 C   0  0  0  0  0  0  0  0  0  0  0  0
   39.5795   -9.5070   31.7388 C   0  0  0  0  0  0  0  0  0  0  0  0
   40.5425   -9.4017   29.4404 C   0  0  0  0  0  0  0  0  0  0  0  0
   41.7818   -8.3259   30.0180 Cl  0  0  0  0  0  0  0  0  0  0  0  0
   40.5243   -9.7643   28.1029 C   0  0  0  0  0  0  0  0  0  0  0  0
   41.5684   -9.2128   27.1803 C   0  0  0  0  0  0  0  0  0  0  0  0
   39.5389  -10.6337   27.6360 C   0  0  0  0  0  0  0  0  0  0  0  0
 10 11  2  0  0  0
 12 11  1  0  0  0
 11  1  1  0  0  0
  1  2  1  0  0  0
  1  9  2  0  0  0
  2  3  1  0  0  0
 14 15  1  0  0  0
 14  9  1  0  0  0
 15 16  1  0  0  0
  9  8  1  0  0  0
  3  8  2  0  0  0
  3  4  1  0  0  0
  8  7  1  0  0  0
 16 17  1  0  0  0
 17 18  1  0  0  0
  4  5  2  0  0  0
  7  6  2  0  0  0
 18 26  2  0  0  0
 18 19  1  0  0  0
  5  6  1  0  0  0
 26 24  1  0  0  0
 19 20  2  0  0  0
 24 25  1  0  0  0
 24 22  2  0  0  0
 20 22  1  0  0  0
 20 21  1  0  0  0
 22 23  1  0  0  0
 12 13  1  0  0  0
M  END
> <minimizedAffinity>
-9.39803

$$$$
4HW3_19G_A_400


 26 28  0  0  0  0  0  0  0  0999 V2000
   40.3335   -9.7373   27.7596 C   0  0  0  0  0  0  0  0  0  0  0  0
   39.8934  -10.5027   29.1995 S   0  0  0  0  0  0  0  0  0  0  0  0
   38.3347  -11.0263   28.7779 C   0  0  0  0  0  0  0  0  0  0  0  0
   37.3373  -11.7363   29.4424 C   0  0  0  0  0  0  0  0  0  0  0  0
   36.1264  -12.0096   28.8214 C   0  0  0  0  0  0  0  0  0  0  0  0
   35.9232  -11.5755   27.5048 C   0  0  0  0  0  0  0  0  0  0  0  0
   36.9155  -10.8812   26.8244 C   0  0  0  0  0  0  0  0  0  0  0  0
   38.1262  -10.5943   27.4542 C   0  0  0  0  0  0  0  0  0  0  0  0
   39.2316   -9.8786   26.8797 C   0  0  0  0  0  0  0  0  0  0  0  0
   42.2549   -8.7140   28.5885 O   0  0  0  0  0  0  0  0  0  0  0  0
   41.6552   -9.0906   27.5527 C   0  0  0  0  0  0  0  0  0  0  0  0
   42.1725   -8.9181   26.4196 O   0  0  0  0  0  0  0  0  0  0  0  0
   41.7196   -9.2015   25.6498 H   0  0  0  0  0  0  0  0  0  0  0  0
   39.2139   -9.3225   25.4922 C   0  0  0  0  0  0  0  0  0  0  0  0
   39.0203  -10.3244   24.3981 C   0  0  0  0  0  0  0  0  0  0  0  0
   38.0476  -10.0061   23.3058 C   0  0  0  0  0  0  0  0  0  0  0  0
   37.9234   -8.6392   23.1461 O   0  0  0  0  0  0  0  0  0  0  0  0
   36.7416   -7.9710   23.3212 C   0  0  0  0  0  0  0  0  0  0  0  0
   35.9313   -7.6851   22.2444 C   0  0  0  0  0  0  0  0  0  0  0  0
   34.7345   -7.0064   22.4680 C   0  0  0  0  0  0  0  0  0  0  0  0
   33.8471   -6.6727   21.3103 C   0  0  0  0  0  0  0  0  0  0  0  0
   34.3517   -6.6156   23.7523 C   0  0  0  0  0  0  0  0  0  0  0  0
   32.8570   -5.7707   24.0328 Cl  0  0  0  0  0  0  0  0  0  0  0  0
   35.1786   -6.9114   24.8244 C   0  0  0  0  0  0  0  0  0  0  0  0
   34.7709   -6.4874   26.2026 C   0  0  0  0  0  0  0  0  0  0  0  0
   36.3736   -7.5967   24.6069 C   0  0  0  0  0  0  0  0  0  0  0  0
 10 11  2  0  0  0
 12 11  1  0  0  0
 11  1  1  0  0  0
  1  2  1  0  0  0
  1  9  2  0  0  0
  2  3  1  0  0  0
 14 15  1  0  0  0
 14  9  1  0  0  0
 15 16  1  0  0  0
  9  8  1  0  0  0
  3  8  2  0  0  0
  3  4  1  0  0  0
  8  7  1  0  0  0
 16 17  1  0  0  0
 17 18  1  0  0  0
  4  5  2  0  0  0
  7  6  2  0  0  0
 18 26  2  0  0  0
 18 19  1  0  0  0
  5  6  1  0  0  0
 26 24  1  0  0  0
 19 20  2  0  0  0
 24 25  1  0  0  0
 24 22  2  0  0  0
 20 22  1  0  0  0
 20 21  1  0  0  0
 22 23  1  0  0  0
 12 13  1  0  0  0
M  END
> <minimizedAffinity>
-9.06238

$$$$
4HW3_19G_A_400


 26 28  0  0  0  0  0  0  0  0999 V2000
   37.7744  -11.1111   28.1976 C   0  0  0  0  0  0  0  0  0  0  0  0
   38.6026  -10.8440   29.6451 S   0  0  0  0  0  0  0  0  0  0  0  0
   39.9676  -10.0323   29.0457 C   0  0  0  0  0  0  0  0  0  0  0  0
   41.1065   -9.4855   29.6329 C   0  0  0  0  0  0  0  0  0  0  0  0
   42.0836   -8.8780   28.8566 C   0  0  0  0  0  0  0  0  0  0  0  0
   41.9032   -8.8052   27.4690 C   0  0  0  0  0  0  0  0  0  0  0  0
   40.7646   -9.3313   26.8720 C   0  0  0  0  0  0  0  0  0  0  0  0
   39.7902   -9.9544   27.6512 C   0  0  0  0  0  0  0  0  0  0  0  0
   38.5740  -10.5499   27.1709 C   0  0  0  0  0  0  0  0  0  0  0  0
   35.8617  -11.9606   29.2201 O   0  0  0  0  0  0  0  0  0  0  0  0
   36.4565  -11.7938   28.1281 C   0  0  0  0  0  0  0  0  0  0  0  0
   35.9377  -12.1911   27.0536 O   0  0  0  0  0  0  0  0  0  0  0  0
   36.3869  -12.0636   26.2413 H   0  0  0  0  0  0  0  0  0  0  0  0
   38.1969  -10.5876   25.7249 C   0  0  0  0  0  0  0  0  0  0  0  0
   37.5189   -9.3603   25.2028 C   0  0  0  0  0  0  0  0  0  0  0  0
   38.2663   -8.4886   24.2425 C   0  0  0  0  0  0  0  0  0  0  0  0
   37.6412   -7.2637   24.1074 O   0  0  0  0  0  0  0  0  0  0  0  0
   36.2872   -7.1284   23.9591 C   0  0  0  0  0  0  0  0  0  0  0  0
   35.5066   -6.6940   25.0079 C   0  0  0  0  0  0  0  0  0  0  0  0
   34.1324   -6.5664   24.8124 C   0  0  0  0  0  0  0  0  0  0  0  0
   33.2646   -6.1108   25.9432 C   0  0  0  0  0  0  0  0  0  0  0  0
   33.5435   -6.8710   23.5840 C   0  0  0  0  0  0  0  0  0  0  0  0
   31.8288   -6.7097   23.3382 Cl  0  0  0  0  0  0  0  0  0  0  0  0
   34.3435   -7.3064   22.5394 C   0  0  0  0  0  0  0  0  0  0  0  0
   33.7112   -7.6388   21.2221 C   0  0  0  0  0  0  0  0  0  0  0  0
   35.7199   -7.4288   22.7277 C   0  0  0  0  0  0  0  0  0  0  0  0
 10 11  2  0  0  0
 12 11  1  0  0  0
 11  1  1  0  0  0
  1  2  1  0  0  0
  1  9  2  0  0  0
  2  3  1  0  0  0
 14 15  1  0  0  0
 14  9  1  0  0  0
 15 16  1  0  0  0
  9  8  1  0  0  0
  3  8  2  0  0  0
  3  4  1  0  0  0
  8  7  1  0  0  0
 16 17  1  0  0  0
 17 18  1  0  0  0
  4  5  2  0  0  0
  7  6  2  0  0  0
 18 26  2  0  0  0
 18 19  1  0  0  0
  5  6  1  0  0  0
 26 24  1  0  0  0
 19 20  2  0  0  0
 24 25  1  0  0  0
 24 22  2  0  0  0
 20 22  1  0  0  0
 20 21  1  0  0  0
 22 23  1  0  0  0
 12 13  1  0  0  0
M  END
> <minimizedAffinity>
-9.04298

$$$$
4HW3_19G_A_400


 26 28  0  0  0  0  0  0  0  0999 V2000
   37.7870  -11.0873   28.2326 C   0  0  0  0  0  0  0  0  0  0  0  0
   38.6061  -10.8358   29.6881 S   0  0  0  0  0  0  0  0  0  0  0  0
   39.9797  -10.0269   29.1048 C   0  0  0  0  0  0  0  0  0  0  0  0
   41.1172   -9.4908   29.7044 C   0  0  0  0  0  0  0  0  0  0  0  0
   42.1032   -8.8827   28.9399 C   0  0  0  0  0  0  0  0  0  0  0  0
   41.9332   -8.7984   27.5516 C   0  0  0  0  0  0  0  0  0  0  0  0
   40.7961   -9.3137   26.9423 C   0  0  0  0  0  0  0  0  0  0  0  0
   39.8128   -9.9375   27.7097 C   0  0  0  0  0  0  0  0  0  0  0  0
   38.5970  -10.5226   27.2161 C   0  0  0  0  0  0  0  0  0  0  0  0
   35.8686  -11.9467   29.2362 O   0  0  0  0  0  0  0  0  0  0  0  0
   36.4659  -11.7623   28.1484 C   0  0  0  0  0  0  0  0  0  0  0  0
   35.9469  -12.1369   27.0659 O   0  0  0  0  0  0  0  0  0  0  0  0
   36.3980  -11.9964   26.2567 H   0  0  0  0  0  0  0  0  0  0  0  0
   38.2301  -10.5472   25.7672 C   0  0  0  0  0  0  0  0  0  0  0  0
   37.5411   -9.3217   25.2553 C   0  0  0  0  0  0  0  0  0  0  0  0
   38.2511   -8.4762   24.2445 C   0  0  0  0  0  0  0  0  0  0  0  0
   37.6293   -7.2494   24.1115 O   0  0  0  0  0  0  0  0  0  0  0  0
   36.2796   -7.1119   23.9290 C   0  0  0  0  0  0  0  0  0  0  0  0
   35.7059   -7.3831   22.7062 C   0  0  0  0  0  0  0  0  0  0  0  0
   34.3273   -7.2338   22.5650 C   0  0  0  0  0  0  0  0  0  0  0  0
   33.6862   -7.5085   21.2411 C   0  0  0  0  0  0  0  0  0  0  0  0
   33.5302   -6.8164   23.6324 C   0  0  0  0  0  0  0  0  0  0  0  0
   31.8090   -6.6322   23.4580 Cl  0  0  0  0  0  0  0  0  0  0  0  0
   34.1236   -6.5481   24.8557 C   0  0  0  0  0  0  0  0  0  0  0  0
   33.2693   -6.0948   26.0003 C   0  0  0  0  0  0  0  0  0  0  0  0
   35.5016   -6.7029   25.0041 C   0  0  0  0  0  0  0  0  0  0  0  0
 10 11  2  0  0  0
 12 11  1  0  0  0
 11  1  1  0  0  0
  1  2  1  0  0  0
  1  9  2  0  0  0
  2  3  1  0  0  0
 14 15  1  0  0  0
 14  9  1  0  0  0
 15 16  1  0  0  0
  9  8  1  0  0  0
  3  8  2  0  0  0
  3  4  1  0  0  0
  8  7  1  0  0  0
 16 17  1  0  0  0
 17 18  1  0  0  0
  4  5  2  0  0  0
  7  6  2  0  0  0
 18 26  2  0  0  0
 18 19  1  0  0  0
  5  6  1  0  0  0
 26 24  1  0  0  0
 19 20  2  0  0  0
 24 25  1  0  0  0
 24 22  2  0  0  0
 20 22  1  0  0  0
 20 21  1  0  0  0
 22 23  1  0  0  0
 12 13  1  0  0  0
M  END
> <minimizedAffinity>
-9.00263

$$$$
4HW3_19G_A_400


 26 28  0  0  0  0  0  0  0  0999 V2000
   35.1347   -7.6001   23.3768 C   0  0  0  0  0  0  0  0  0  0  0  0
   33.5660   -7.2300   22.8721 S   0  0  0  0  0  0  0  0  0  0  0  0
   33.8005   -7.2323   21.1909 C   0  0  0  0  0  0  0  0  0  0  0  0
   32.9682   -7.0153   20.0951 C   0  0  0  0  0  0  0  0  0  0  0  0
   33.4675   -7.0742   18.8014 C   0  0  0  0  0  0  0  0  0  0  0  0
   34.8227   -7.3726   18.6076 C   0  0  0  0  0  0  0  0  0  0  0  0
   35.6604   -7.6079   19.6904 C   0  0  0  0  0  0  0  0  0  0  0  0
   35.1611   -7.5342   20.9904 C   0  0  0  0  0  0  0  0  0  0  0  0
   35.9100   -7.7414   22.1989 C   0  0  0  0  0  0  0  0  0  0  0  0
   36.1264   -6.7787   25.3178 O   0  0  0  0  0  0  0  0  0  0  0  0
   35.5165   -7.7479   24.8052 C   0  0  0  0  0  0  0  0  0  0  0  0
   35.2560   -8.7700   25.4899 O   0  0  0  0  0  0  0  0  0  0  0  0
   34.8002   -9.4906   25.1013 H   0  0  0  0  0  0  0  0  0  0  0  0
   37.3705   -8.0596   22.2120 C   0  0  0  0  0  0  0  0  0  0  0  0
   37.7138   -9.5156   22.1815 C   0  0  0  0  0  0  0  0  0  0  0  0
   38.0722  -10.1892   23.4694 C   0  0  0  0  0  0  0  0  0  0  0  0
   38.5906   -9.2775   24.3690 O   0  0  0  0  0  0  0  0  0  0  0  0
   38.9522   -9.6114   25.6463 C   0  0  0  0  0  0  0  0  0  0  0  0
   40.1229   -9.1322   26.1919 C   0  0  0  0  0  0  0  0  0  0  0  0
   40.4509   -9.4937   27.4975 C   0  0  0  0  0  0  0  0  0  0  0  0
   41.7255   -8.9964   28.1036 C   0  0  0  0  0  0  0  0  0  0  0  0
   39.6203  -10.3262   28.2497 C   0  0  0  0  0  0  0  0  0  0  0  0
   40.0276  -10.7761   29.8802 Cl  0  0  0  0  0  0  0  0  0  0  0  0
   38.4461  -10.7992   27.6855 C   0  0  0  0  0  0  0  0  0  0  0  0
   37.5568  -11.6973   28.4905 C   0  0  0  0  0  0  0  0  0  0  0  0
   38.1098  -10.4346   26.3821 C   0  0  0  0  0  0  0  0  0  0  0  0
 10 11  2  0  0  0
 12 11  1  0  0  0
 11  1  1  0  0  0
  1  2  1  0  0  0
  1  9  2  0  0  0
  2  3  1  0  0  0
 14 15  1  0  0  0
 14  9  1  0  0  0
 15 16  1  0  0  0
  9  8  1  0  0  0
  3  8  2  0  0  0
  3  4  1  0  0  0
  8  7  1  0  0  0
 16 17  1  0  0  0
 17 18  1  0  0  0
  4  5  2  0  0  0
  7  6  2  0  0  0
 18 26  2  0  0  0
 18 19  1  0  0  0
  5  6  1  0  0  0
 26 24  1  0  0  0
 19 20  2  0  0  0
 24 25  1  0  0  0
 24 22  2  0  0  0
 20 22  1  0  0  0
 20 21  1  0  0  0
 22 23  1  0  0  0
 12 13  1  0  0  0
M  END
> <minimizedAffinity>
-8.84626

$$$$
