2VMD_MBG_A_501


 17 17  0  0  0  0  0  0  0  0999 V2000
    2.6203   15.1479    7.9954 C   0  0  0  0  0  0  0  0  0  0  0  0
    2.2253   15.2881    9.4810 C   0  0  0  0  0  0  0  0  0  0  0  0
    3.3623   14.7617   10.3463 C   0  0  0  0  0  0  0  0  0  0  0  0
    3.7186   13.3230    9.9477 C   0  0  0  0  0  0  0  0  0  0  0  0
    3.9731   13.2715    8.4329 C   0  0  0  0  0  0  0  0  0  0  0  0
    1.9574   16.6354    9.8864 O   0  0  0  0  0  0  0  0  0  0  0  0
    3.0053   14.8835   11.7326 O   0  0  0  0  0  0  0  0  0  0  0  0
    2.6398   12.4392   10.3009 O   0  0  0  0  0  0  0  0  0  0  0  0
    2.8316   13.7348    7.7050 O   0  0  0  0  0  0  0  0  0  0  0  0
    2.7611   17.1691    9.7860 H   0  0  0  0  0  0  0  0  0  0  0  0
    2.2067   14.3616   11.9078 H   0  0  0  0  0  0  0  0  0  0  0  0
    1.8331   12.7119    9.8365 H   0  0  0  0  0  0  0  0  0  0  0  0
    4.2773   11.8513    7.9740 C   0  0  0  0  0  0  0  0  0  0  0  0
    4.6320   11.0538    9.1140 O   0  0  0  0  0  0  0  0  0  0  0  0
    5.4140   11.4340    9.5438 H   0  0  0  0  0  0  0  0  0  0  0  0
    0.3819   15.0160    7.1172 C   0  0  0  0  0  0  0  0  0  0  0  0
    1.6608   15.7138    7.0746 O   0  0  0  0  0  0  0  0  0  0  0  0
  1  2  1  0  0  0
  1 17  1  0  0  0
  1  9  1  0  0  0
  2  3  1  0  0  0
  2  6  1  0  0  0
  3  4  1  0  0  0
  3  7  1  0  0  0
  4  5  1  0  0  0
  4  8  1  0  0  0
  5 13  1  0  0  0
  5  9  1  0  0  0
 13 14  1  0  0  0
 16 17  1  0  0  0
  6 10  1  0  0  0
  7 11  1  0  0  0
  8 12  1  0  0  0
 14 15  1  0  0  0
M  END
> <minimizedAffinity>
-4.97699

$$$$
2VMD_MBG_A_501


 17 17  0  0  0  0  0  0  0  0999 V2000
    5.5446   11.2027    6.9284 C   0  0  0  0  0  0  0  0  0  0  0  0
    6.6340   10.1858    6.5264 C   0  0  0  0  0  0  0  0  0  0  0  0
    7.0170   10.4213    5.0716 C   0  0  0  0  0  0  0  0  0  0  0  0
    5.7740   10.3638    4.1731 C   0  0  0  0  0  0  0  0  0  0  0  0
    4.7083   11.3205    4.7308 C   0  0  0  0  0  0  0  0  0  0  0  0
    7.8290   10.2738    7.3109 O   0  0  0  0  0  0  0  0  0  0  0  0
    8.0288    9.4780    4.6837 O   0  0  0  0  0  0  0  0  0  0  0  0
    5.2637    9.0193    4.1343 O   0  0  0  0  0  0  0  0  0  0  0  0
    4.3769   10.9872    6.0823 O   0  0  0  0  0  0  0  0  0  0  0  0
    8.2358   11.1451    7.1838 H   0  0  0  0  0  0  0  0  0  0  0  0
    7.6834    8.5764    4.7779 H   0  0  0  0  0  0  0  0  0  0  0  0
    5.0262    8.7376    5.0316 H   0  0  0  0  0  0  0  0  0  0  0  0
    3.4293   11.2608    3.9058 C   0  0  0  0  0  0  0  0  0  0  0  0
    2.6160   10.1749    4.3757 O   0  0  0  0  0  0  0  0  0  0  0  0
    3.1044    9.3419    4.2840 H   0  0  0  0  0  0  0  0  0  0  0  0
    4.0850   12.0647    8.6388 C   0  0  0  0  0  0  0  0  0  0  0  0
    5.1731   11.1475    8.3240 O   0  0  0  0  0  0  0  0  0  0  0  0
  1  2  1  0  0  0
  1 17  1  0  0  0
  1  9  1  0  0  0
  2  3  1  0  0  0
  2  6  1  0  0  0
  3  4  1  0  0  0
  3  7  1  0  0  0
  4  5  1  0  0  0
  4  8  1  0  0  0
  5 13  1  0  0  0
  5  9  1  0  0  0
 13 14  1  0  0  0
 16 17  1  0  0  0
  6 10  1  0  0  0
  7 11  1  0  0  0
  8 12  1  0  0  0
 14 15  1  0  0  0
M  END
> <minimizedAffinity>
-4.60043

$$$$
2VMD_MBG_A_501


 17 17  0  0  0  0  0  0  0  0999 V2000
    1.6244   14.9883    8.2478 C   0  0  0  0  0  0  0  0  0  0  0  0
    1.7439   15.7647    9.5765 C   0  0  0  0  0  0  0  0  0  0  0  0
    3.2162   15.8908    9.9442 C   0  0  0  0  0  0  0  0  0  0  0  0
    3.8786   14.5071    9.9898 C   0  0  0  0  0  0  0  0  0  0  0  0
    3.5960   13.7728    8.6696 C   0  0  0  0  0  0  0  0  0  0  0  0
    1.1922   17.0855    9.5295 O   0  0  0  0  0  0  0  0  0  0  0  0
    3.3410   16.6092   11.1821 O   0  0  0  0  0  0  0  0  0  0  0  0
    3.3566   13.7542   11.0990 O   0  0  0  0  0  0  0  0  0  0  0  0
    2.1886   13.6574    8.4381 O   0  0  0  0  0  0  0  0  0  0  0  0
    1.6796   17.6166    8.8804 H   0  0  0  0  0  0  0  0  0  0  0  0
    2.8798   16.1250   11.8848 H   0  0  0  0  0  0  0  0  0  0  0  0
    2.3978   13.6493   10.9959 H   0  0  0  0  0  0  0  0  0  0  0  0
    4.1858   12.3685    8.6837 C   0  0  0  0  0  0  0  0  0  0  0  0
    3.2095   11.4529    9.2030 O   0  0  0  0  0  0  0  0  0  0  0  0
    2.9672   11.7157   10.1047 H   0  0  0  0  0  0  0  0  0  0  0  0
    0.2311   14.9676    6.2838 C   0  0  0  0  0  0  0  0  0  0  0  0
    0.2748   14.8956    7.7388 O   0  0  0  0  0  0  0  0  0  0  0  0
  1  2  1  0  0  0
  1 17  1  0  0  0
  1  9  1  0  0  0
  2  3  1  0  0  0
  2  6  1  0  0  0
  3  4  1  0  0  0
  3  7  1  0  0  0
  4  5  1  0  0  0
  4  8  1  0  0  0
  5 13  1  0  0  0
  5  9  1  0  0  0
 13 14  1  0  0  0
 16 17  1  0  0  0
  6 10  1  0  0  0
  7 11  1  0  0  0
  8 12  1  0  0  0
 14 15  1  0  0  0
M  END
> <minimizedAffinity>
-4.48777

$$$$
2VMD_MBG_A_501


 17 17  0  0  0  0  0  0  0  0999 V2000
    3.2455   13.6376    9.5403 C   0  0  0  0  0  0  0  0  0  0  0  0
    2.2014   14.5640    8.8813 C   0  0  0  0  0  0  0  0  0  0  0  0
    2.5718   16.0119    9.1727 C   0  0  0  0  0  0  0  0  0  0  0  0
    2.7121   16.2364   10.6845 C   0  0  0  0  0  0  0  0  0  0  0  0
    3.6769   15.1873   11.2592 C   0  0  0  0  0  0  0  0  0  0  0  0
    2.1080   14.4160    7.4599 O   0  0  0  0  0  0  0  0  0  0  0  0
    1.6049   16.8850    8.5672 O   0  0  0  0  0  0  0  0  0  0  0  0
    1.4235   16.1247   11.3144 O   0  0  0  0  0  0  0  0  0  0  0  0
    3.2175   13.8610   10.9808 O   0  0  0  0  0  0  0  0  0  0  0  0
    2.9547   14.6583    7.0533 H   0  0  0  0  0  0  0  0  0  0  0  0
    0.7273   16.7023    8.9380 H   0  0  0  0  0  0  0  0  0  0  0  0
    1.0600   15.2402   11.1522 H   0  0  0  0  0  0  0  0  0  0  0  0
    3.8093   15.3304   12.7699 C   0  0  0  0  0  0  0  0  0  0  0  0
    3.0216   14.3149   13.4100 O   0  0  0  0  0  0  0  0  0  0  0  0
    2.0922   14.4157   13.1513 H   0  0  0  0  0  0  0  0  0  0  0  0
    4.2050   11.6655    8.5457 C   0  0  0  0  0  0  0  0  0  0  0  0
    3.0595   12.2353    9.2439 O   0  0  0  0  0  0  0  0  0  0  0  0
  1  2  1  0  0  0
  1 17  1  0  0  0
  1  9  1  0  0  0
  2  3  1  0  0  0
  2  6  1  0  0  0
  3  4  1  0  0  0
  3  7  1  0  0  0
  4  5  1  0  0  0
  4  8  1  0  0  0
  5 13  1  0  0  0
  5  9  1  0  0  0
 13 14  1  0  0  0
 16 17  1  0  0  0
  6 10  1  0  0  0
  7 11  1  0  0  0
  8 12  1  0  0  0
 14 15  1  0  0  0
M  END
> <minimizedAffinity>
-4.35206

$$$$
2VMD_MBG_A_501


 17 17  0  0  0  0  0  0  0  0999 V2000
    4.1843   12.0086    4.9128 C   0  0  0  0  0  0  0  0  0  0  0  0
    5.0066   10.7601    5.2970 C   0  0  0  0  0  0  0  0  0  0  0  0
    5.2105    9.9017    4.0560 C   0  0  0  0  0  0  0  0  0  0  0  0
    3.8602    9.5622    3.4102 C   0  0  0  0  0  0  0  0  0  0  0  0
    3.0729   10.8623    3.1827 C   0  0  0  0  0  0  0  0  0  0  0  0
    6.2991   11.0590    5.8369 O   0  0  0  0  0  0  0  0  0  0  0  0
    5.9722    8.7335    4.4013 O   0  0  0  0  0  0  0  0  0  0  0  0
    3.1197    8.6763    4.2684 O   0  0  0  0  0  0  0  0  0  0  0  0
    2.8869   11.5710    4.4118 O   0  0  0  0  0  0  0  0  0  0  0  0
    6.8310   11.5171    5.1675 H   0  0  0  0  0  0  0  0  0  0  0  0
    5.4900    8.2181    5.0666 H   0  0  0  0  0  0  0  0  0  0  0  0
    2.9685    9.1069    5.1244 H   0  0  0  0  0  0  0  0  0  0  0  0
    1.6978   10.5770    2.5931 C   0  0  0  0  0  0  0  0  0  0  0  0
    0.7541   10.4035    3.6611 O   0  0  0  0  0  0  0  0  0  0  0  0
    1.0315    9.6610    4.2202 H   0  0  0  0  0  0  0  0  0  0  0  0
    3.4387   14.2139    5.5290 C   0  0  0  0  0  0  0  0  0  0  0  0
    4.0150   12.9571    5.9901 O   0  0  0  0  0  0  0  0  0  0  0  0
  1  2  1  0  0  0
  1 17  1  0  0  0
  1  9  1  0  0  0
  2  3  1  0  0  0
  2  6  1  0  0  0
  3  4  1  0  0  0
  3  7  1  0  0  0
  4  5  1  0  0  0
  4  8  1  0  0  0
  5 13  1  0  0  0
  5  9  1  0  0  0
 13 14  1  0  0  0
 16 17  1  0  0  0
  6 10  1  0  0  0
  7 11  1  0  0  0
  8 12  1  0  0  0
 14 15  1  0  0  0
M  END
> <minimizedAffinity>
-4.11389

$$$$
2VMD_MBG_A_501


 17 17  0  0  0  0  0  0  0  0999 V2000
    5.0339   12.3666    6.4631 C   0  0  0  0  0  0  0  0  0  0  0  0
    5.1293   10.8398    6.2573 C   0  0  0  0  0  0  0  0  0  0  0  0
    5.2483   10.5486    4.7674 C   0  0  0  0  0  0  0  0  0  0  0  0
    4.0848   11.1914    4.0001 C   0  0  0  0  0  0  0  0  0  0  0  0
    4.0034   12.6809    4.3698 C   0  0  0  0  0  0  0  0  0  0  0  0
    6.2511   10.2343    6.9102 O   0  0  0  0  0  0  0  0  0  0  0  0
    5.3344    9.1293    4.5620 O   0  0  0  0  0  0  0  0  0  0  0  0
    2.8540   10.5275    4.3374 O   0  0  0  0  0  0  0  0  0  0  0  0
    3.8396   12.8508    5.7812 O   0  0  0  0  0  0  0  0  0  0  0  0
    7.0729   10.5923    6.5394 H   0  0  0  0  0  0  0  0  0  0  0  0
    4.5328    8.7038    4.9044 H   0  0  0  0  0  0  0  0  0  0  0  0
    2.6944   10.6071    5.2909 H   0  0  0  0  0  0  0  0  0  0  0  0
    2.8274   13.3565    3.6765 C   0  0  0  0  0  0  0  0  0  0  0  0
    1.6703   13.2721    4.5221 O   0  0  0  0  0  0  0  0  0  0  0  0
    1.4602   12.3402    4.6905 H   0  0  0  0  0  0  0  0  0  0  0  0
    4.0900   11.9878    8.6459 C   0  0  0  0  0  0  0  0  0  0  0  0
    5.0233   12.7747    7.8495 O   0  0  0  0  0  0  0  0  0  0  0  0
  1  2  1  0  0  0
  1 17  1  0  0  0
  1  9  1  0  0  0
  2  3  1  0  0  0
  2  6  1  0  0  0
  3  4  1  0  0  0
  3  7  1  0  0  0
  4  5  1  0  0  0
  4  8  1  0  0  0
  5 13  1  0  0  0
  5  9  1  0  0  0
 13 14  1  0  0  0
 16 17  1  0  0  0
  6 10  1  0  0  0
  7 11  1  0  0  0
  8 12  1  0  0  0
 14 15  1  0  0  0
M  END
> <minimizedAffinity>
-4.04746

$$$$
2VMD_MBG_A_501


 17 17  0  0  0  0  0  0  0  0999 V2000
    7.2145    9.6612    5.4215 C   0  0  0  0  0  0  0  0  0  0  0  0
    6.2252    9.2078    4.3268 C   0  0  0  0  0  0  0  0  0  0  0  0
    5.4899   10.4281    3.7893 C   0  0  0  0  0  0  0  0  0  0  0  0
    4.8155   11.1960    4.9344 C   0  0  0  0  0  0  0  0  0  0  0  0
    5.8595   11.4899    6.0233 C   0  0  0  0  0  0  0  0  0  0  0  0
    6.8478    8.5508    3.2168 O   0  0  0  0  0  0  0  0  0  0  0  0
    4.5626   10.0187    2.7712 O   0  0  0  0  0  0  0  0  0  0  0  0
    3.7381   10.4124    5.4773 O   0  0  0  0  0  0  0  0  0  0  0  0
    6.4560   10.2805    6.5017 O   0  0  0  0  0  0  0  0  0  0  0  0
    7.4518    9.1671    2.7737 H   0  0  0  0  0  0  0  0  0  0  0  0
    3.9171    9.4022    3.1507 H   0  0  0  0  0  0  0  0  0  0  0  0
    4.0870    9.5723    5.8140 H   0  0  0  0  0  0  0  0  0  0  0  0
    5.2289   12.2041    7.2118 C   0  0  0  0  0  0  0  0  0  0  0  0
    4.7728   11.2275    8.1602 O   0  0  0  0  0  0  0  0  0  0  0  0
    4.1171   10.6497    7.7394 H   0  0  0  0  0  0  0  0  0  0  0  0
    9.4550    8.7966    5.5992 C   0  0  0  0  0  0  0  0  0  0  0  0
    8.0506    8.6005    5.9361 O   0  0  0  0  0  0  0  0  0  0  0  0
  1  2  1  0  0  0
  1 17  1  0  0  0
  1  9  1  0  0  0
  2  3  1  0  0  0
  2  6  1  0  0  0
  3  4  1  0  0  0
  3  7  1  0  0  0
  4  5  1  0  0  0
  4  8  1  0  0  0
  5 13  1  0  0  0
  5  9  1  0  0  0
 13 14  1  0  0  0
 16 17  1  0  0  0
  6 10  1  0  0  0
  7 11  1  0  0  0
  8 12  1  0  0  0
 14 15  1  0  0  0
M  END
> <minimizedAffinity>
-3.89641

$$$$
2VMD_MBG_A_501


 17 17  0  0  0  0  0  0  0  0999 V2000
    2.9763   13.7731    9.1470 C   0  0  0  0  0  0  0  0  0  0  0  0
    3.7843   14.3791   10.3142 C   0  0  0  0  0  0  0  0  0  0  0  0
    3.6140   15.8922   10.2999 C   0  0  0  0  0  0  0  0  0  0  0  0
    4.0067   16.4638    8.9307 C   0  0  0  0  0  0  0  0  0  0  0  0
    3.2379   15.7098    7.8341 C   0  0  0  0  0  0  0  0  0  0  0  0
    3.3824   13.9080   11.6056 O   0  0  0  0  0  0  0  0  0  0  0  0
    4.3648   16.4691   11.3804 O   0  0  0  0  0  0  0  0  0  0  0  0
    5.4243   16.3203    8.7322 O   0  0  0  0  0  0  0  0  0  0  0  0
    3.5027   14.3049    7.8957 O   0  0  0  0  0  0  0  0  0  0  0  0
    2.4625   14.1668   11.7724 H   0  0  0  0  0  0  0  0  0  0  0  0
    5.3046   16.2556   11.2713 H   0  0  0  0  0  0  0  0  0  0  0  0
    5.6626   15.3808    8.7697 H   0  0  0  0  0  0  0  0  0  0  0  0
    3.6331   16.2014    6.4477 C   0  0  0  0  0  0  0  0  0  0  0  0
    4.7659   15.4495    5.9866 O   0  0  0  0  0  0  0  0  0  0  0  0
    5.5066   15.5712    6.6010 H   0  0  0  0  0  0  0  0  0  0  0  0
    4.2388   11.7867    8.6380 C   0  0  0  0  0  0  0  0  0  0  0  0
    2.9741   12.3281    9.1195 O   0  0  0  0  0  0  0  0  0  0  0  0
  1  2  1  0  0  0
  1 17  1  0  0  0
  1  9  1  0  0  0
  2  3  1  0  0  0
  2  6  1  0  0  0
  3  4  1  0  0  0
  3  7  1  0  0  0
  4  5  1  0  0  0
  4  8  1  0  0  0
  5 13  1  0  0  0
  5  9  1  0  0  0
 13 14  1  0  0  0
 16 17  1  0  0  0
  6 10  1  0  0  0
  7 11  1  0  0  0
  8 12  1  0  0  0
 14 15  1  0  0  0
M  END
> <minimizedAffinity>
-3.88853

$$$$
2VMD_MBG_A_501


 17 17  0  0  0  0  0  0  0  0999 V2000
    3.7965   15.9374   10.5481 C   0  0  0  0  0  0  0  0  0  0  0  0
    3.0480   14.6330   10.8960 C   0  0  0  0  0  0  0  0  0  0  0  0
    3.4891   13.5385    9.9337 C   0  0  0  0  0  0  0  0  0  0  0  0
    3.2822   13.9861    8.4802 C   0  0  0  0  0  0  0  0  0  0  0  0
    3.9615   15.3492    8.2745 C   0  0  0  0  0  0  0  0  0  0  0  0
    3.2864   14.1637   12.2279 O   0  0  0  0  0  0  0  0  0  0  0  0
    2.7964   12.3190   10.2449 O   0  0  0  0  0  0  0  0  0  0  0  0
    1.8751   14.0841    8.1971 O   0  0  0  0  0  0  0  0  0  0  0  0
    3.4445   16.3228    9.1867 O   0  0  0  0  0  0  0  0  0  0  0  0
    4.2272   13.9521   12.3326 H   0  0  0  0  0  0  0  0  0  0  0  0
    1.8409   12.4568   10.1506 H   0  0  0  0  0  0  0  0  0  0  0  0
    1.4694   14.7316    8.7947 H   0  0  0  0  0  0  0  0  0  0  0  0
    3.7386   15.8672    6.8595 C   0  0  0  0  0  0  0  0  0  0  0  0
    2.5000   16.5918    6.8129 O   0  0  0  0  0  0  0  0  0  0  0  0
    1.7714   16.0032    7.0651 H   0  0  0  0  0  0  0  0  0  0  0  0
    4.7353   17.4206   12.1966 C   0  0  0  0  0  0  0  0  0  0  0  0
    3.5393   17.0263   11.4629 O   0  0  0  0  0  0  0  0  0  0  0  0
  1  2  1  0  0  0
  1 17  1  0  0  0
  1  9  1  0  0  0
  2  3  1  0  0  0
  2  6  1  0  0  0
  3  4  1  0  0  0
  3  7  1  0  0  0
  4  5  1  0  0  0
  4  8  1  0  0  0
  5 13  1  0  0  0
  5  9  1  0  0  0
 13 14  1  0  0  0
 16 17  1  0  0  0
  6 10  1  0  0  0
  7 11  1  0  0  0
  8 12  1  0  0  0
 14 15  1  0  0  0
M  END
> <minimizedAffinity>
-3.85188

$$$$
2VMD_MBG_A_501


 17 17  0  0  0  0  0  0  0  0999 V2000
    5.6980   13.9806    7.0240 C   0  0  0  0  0  0  0  0  0  0  0  0
    4.4075   13.5233    7.7369 C   0  0  0  0  0  0  0  0  0  0  0  0
    4.5911   12.0911    8.2202 C   0  0  0  0  0  0  0  0  0  0  0  0
    4.9946   11.1784    7.0541 C   0  0  0  0  0  0  0  0  0  0  0  0
    6.2113   11.7873    6.3394 C   0  0  0  0  0  0  0  0  0  0  0  0
    4.0552   14.3238    8.8710 O   0  0  0  0  0  0  0  0  0  0  0  0
    3.3945   11.6520    8.8830 O   0  0  0  0  0  0  0  0  0  0  0  0
    3.8942   11.0459    6.1370 O   0  0  0  0  0  0  0  0  0  0  0  0
    5.9248   13.1106    5.8763 O   0  0  0  0  0  0  0  0  0  0  0  0
    4.7526   14.2585    9.5420 H   0  0  0  0  0  0  0  0  0  0  0  0
    2.6506   11.6830    8.2613 H   0  0  0  0  0  0  0  0  0  0  0  0
    3.6526   11.9202    5.7934 H   0  0  0  0  0  0  0  0  0  0  0  0
    6.6200   10.9474    5.1363 C   0  0  0  0  0  0  0  0  0  0  0  0
    6.2945    9.5722    5.3895 O   0  0  0  0  0  0  0  0  0  0  0  0
    6.7694    9.2675    6.1785 H   0  0  0  0  0  0  0  0  0  0  0  0
    6.6874   16.1569    7.3133 C   0  0  0  0  0  0  0  0  0  0  0  0
    5.6842   15.3658    6.6118 O   0  0  0  0  0  0  0  0  0  0  0  0
  1  2  1  0  0  0
  1 17  1  0  0  0
  1  9  1  0  0  0
  2  3  1  0  0  0
  2  6  1  0  0  0
  3  4  1  0  0  0
  3  7  1  0  0  0
  4  5  1  0  0  0
  4  8  1  0  0  0
  5 13  1  0  0  0
  5  9  1  0  0  0
 13 14  1  0  0  0
 16 17  1  0  0  0
  6 10  1  0  0  0
  7 11  1  0  0  0
  8 12  1  0  0  0
 14 15  1  0  0  0
M  END
> <minimizedAffinity>
-3.81405

$$$$
