1BWA_XV6_B_638
  RCSB PDB12061702073D
Coordinates from PDB:1BWA:B:638 Model:1 without hydrogens
 54 60  0  0  0  0            999 V2000
   -8.3580   14.3690   27.8590   O 0  0  0  0  0  0  0  0  0  0  0  0
  -11.8910   18.7620   28.8900   O 0  0  0  0  0  0  0  0  0  0  0  0
  -10.1370   19.7280   26.9430   O 0  0  0  0  0  0  0  0  0  0  0  0
   -9.7930   15.7280   28.9200   N 0  0  0  0  0  0  0  0  0  0  0  0
   -8.7840   16.2900   26.8400   N 0  0  0  0  0  0  0  0  0  0  0  0
   -8.9730   15.4370   27.8730   C 0  0  0  0  0  0  0  0  0  0  0  0
   -9.6530   14.9090   30.1200   C 0  0  0  0  0  0  0  0  0  0  0  0
  -10.9500   16.6370   28.8860   C 0  0  0  0  0  0  0  0  0  0  0  0
  -10.6870   18.1030   28.6250   C 0  0  0  0  0  0  0  0  0  0  0  0
  -10.2740   18.3520   27.1950   C 0  0  0  0  0  0  0  0  0  0  0  0
   -8.9120   17.7630   26.9200   C 0  0  0  0  0  0  0  0  0  0  0  0
   -8.1480   15.7780   25.6230   C 0  0  0  0  0  0  0  0  0  0  0  0
  -12.0780   16.0090   28.0290   C 0  0  0  0  0  0  0  0  0  0  0  0
  -12.5890   14.7250   28.6350   C 0  0  0  0  0  0  0  0  0  0  0  0
  -12.1590   13.4760   28.1180   C 0  0  0  0  0  0  0  0  0  0  0  0
  -12.5370   12.2830   28.7720   C 0  0  0  0  0  0  0  0  0  0  0  0
  -13.3440   12.3320   29.9340   C 0  0  0  0  0  0  0  0  0  0  0  0
  -13.7830   13.5790   30.4380   C 0  0  0  0  0  0  0  0  0  0  0  0
  -13.4120   14.7790   29.7860   C 0  0  0  0  0  0  0  0  0  0  0  0
   -7.7630   18.3390   27.7900   C 0  0  0  0  0  0  0  0  0  0  0  0
   -6.3930   18.2430   27.1510   C 0  0  0  0  0  0  0  0  0  0  0  0
   -6.1140   18.9910   25.9780   C 0  0  0  0  0  0  0  0  0  0  0  0
   -4.8300   18.9310   25.4040   C 0  0  0  0  0  0  0  0  0  0  0  0
   -3.8360   18.1180   26.0040   C 0  0  0  0  0  0  0  0  0  0  0  0
   -4.1140   17.3680   27.1680   C 0  0  0  0  0  0  0  0  0  0  0  0
   -5.4020   17.4330   27.7450   C 0  0  0  0  0  0  0  0  0  0  0  0
   -9.6150   15.6240   31.4390   C 0  0  0  0  0  0  0  0  0  0  0  0
  -10.3830   15.1080   32.4860   C 0  0  0  0  0  0  0  0  0  0  0  0
  -10.3150   15.7180   33.7460   C 0  0  0  0  0  0  0  0  0  0  0  0
   -9.4980   16.8440   33.9610   C 0  0  0  0  0  0  0  0  0  0  0  0
   -8.7280   17.3670   32.9040   C 0  0  0  0  0  0  0  0  0  0  0  0
   -8.7880   16.7530   31.6390   C 0  0  0  0  0  0  0  0  0  0  0  0
  -11.0400   15.1270   34.9080   C 0  0  0  0  0  0  0  0  0  0  0  0
  -11.4380   15.7730   35.8640   O 0  0  0  0  0  0  0  0  0  0  0  0
  -11.1630   13.7970   34.8420   N 0  0  0  0  0  0  0  0  0  0  0  0
  -11.8210   11.7350   36.0720   N 0  0  0  0  0  0  0  0  0  0  0  0
  -11.7640   13.0730   35.9500   C 0  0  0  0  0  0  0  0  0  0  0  0
  -12.4490   11.3390   37.2270   C 0  0  0  0  0  0  0  0  0  0  0  0
  -12.4960   13.8250   37.2690   S 0  0  0  0  0  0  0  0  0  0  0  0
  -12.9080   12.3870   38.0520   C 0  0  0  0  0  0  0  0  0  0  0  0
   -8.8520   16.0600   24.3210   C 0  0  0  0  0  0  0  0  0  0  0  0
   -8.0610   16.4370   23.2340   C 0  0  0  0  0  0  0  0  0  0  0  0
   -8.6740   16.6870   21.9910   C 0  0  0  0  0  0  0  0  0  0  0  0
  -10.0620   16.5500   21.8310   C 0  0  0  0  0  0  0  0  0  0  0  0
  -10.8510   16.1590   22.9300   C 0  0  0  0  0  0  0  0  0  0  0  0
  -10.2500   15.9200   24.1780   C 0  0  0  0  0  0  0  0  0  0  0  0
   -7.8340   17.1140   20.8420   C 0  0  0  0  0  0  0  0  0  0  0  0
   -8.2430   17.7920   19.9120   O 0  0  0  0  0  0  0  0  0  0  0  0
   -6.5720   16.6560   20.9400   N 0  0  0  0  0  0  0  0  0  0  0  0
   -4.4000   16.0960   19.9120   N 0  0  0  0  0  0  0  0  0  0  0  0
   -5.5410   16.8080   19.9110   C 0  0  0  0  0  0  0  0  0  0  0  0
   -3.6460   16.3330   18.7850   C 0  0  0  0  0  0  0  0  0  0  0  0
   -5.6640   17.7690   18.5030   S 0  0  0  0  0  0  0  0  0  0  0  0
   -4.1910   17.2530   17.8610   C 0  0  0  0  0  0  0  0  0  0  0  0
  1  6  2  0  0  0  0
  2  9  1  0  0  0  0
  3 10  1  0  0  0  0
  4  6  1  0  0  0  0
  4  7  1  0  0  0  0
  4  8  1  0  0  0  0
  5  6  1  0  0  0  0
  5 11  1  0  0  0  0
  5 12  1  0  0  0  0
  7 27  1  0  0  0  0
  8  9  1  0  0  0  0
  8 13  1  0  0  0  0
  9 10  1  0  0  0  0
 10 11  1  0  0  0  0
 11 20  1  0  0  0  0
 12 41  1  0  0  0  0
 13 14  1  0  0  0  0
 14 15  2  0  0  0  0
 14 19  1  0  0  0  0
 15 16  1  0  0  0  0
 16 17  2  0  0  0  0
 17 18  1  0  0  0  0
 18 19  2  0  0  0  0
 20 21  1  0  0  0  0
 21 22  2  0  0  0  0
 21 26  1  0  0  0  0
 22 23  1  0  0  0  0
 23 24  2  0  0  0  0
 24 25  1  0  0  0  0
 25 26  2  0  0  0  0
 27 28  2  0  0  0  0
 27 32  1  0  0  0  0
 28 29  1  0  0  0  0
 29 30  2  0  0  0  0
 29 33  1  0  0  0  0
 30 31  1  0  0  0  0
 31 32  2  0  0  0  0
 33 34  2  0  0  0  0
 33 35  1  0  0  0  0
 35 37  1  0  0  0  0
 36 37  2  0  0  0  0
 36 38  1  0  0  0  0
 37 39  1  0  0  0  0
 38 40  2  0  0  0  0
 39 40  1  0  0  0  0
 41 42  2  0  0  0  0
 41 46  1  0  0  0  0
 42 43  1  0  0  0  0
 43 44  2  0  0  0  0
 43 47  1  0  0  0  0
 44 45  1  0  0  0  0
 45 46  2  0  0  0  0
 47 48  2  0  0  0  0
 47 49  1  0  0  0  0
 49 51  1  0  0  0  0
 50 51  2  0  0  0  0
 50 52  1  0  0  0  0
 51 53  1  0  0  0  0
 52 54  2  0  0  0  0
 53 54  1  0  0  0  0
A    1
O1
A    2
O4
A    3
O5
A    4
N2
A    5
N7
A    6
C1
A    7
C2
A    8
C3
A    9
C4
A   10
C5
A   11
C6
A   12
C7
A   13
C31
A   14
C32
A   15
C33
A   16
C34
A   17
C35
A   18
C36
A   19
C37
A   20
C61
A   21
C62
A   22
C63
A   23
C64
A   24
C65
A   25
C66
A   26
C67
A   27
C20
A   28
C21
A   29
C22
A   30
C23
A   31
C24
A   32
C25
A   33
C26
A   34
O26
A   35
N26
A   36
N27
A   37
C27
A   38
C28
A   39
S29
A   40
C29
A   41
C70
A   42
C71
A   43
C72
A   44
C73
A   45
C74
A   46
C75
A   47
C76
A   48
O76
A   49
N76
A   50
N77
A   51
C77
A   52
C78
A   53
S79
A   54
C79
M  END
>  <InstanceId>
1BWA_XV6_B_638

>  <ChemCompId>
XV6

>  <PdbId>
1BWA

>  <ChainId>
B

>  <ResidueNumber>
638

>  <InsertionCode>


>  <Model>
1

>  <AltIds>


>  <MissingHeavyAtoms>
0

>  <ObservedFormula>
C41 N6 O5 S2

>  <Name>
[4R-(4ALPHA,5ALPHA,6BETA,7BETA)]-3,3'-[[TETRAHYDRO-5,6-DIHYDROXY-2-OXO-4,7-BIS(PHENYLMETHYL)-1H-1,3-DIAZEPINE-1,3(2H)-DIYL] BIS(METHYLENE)]BIS[N-2-THIAZOLYLBENZAMIDE]

>  <SystematicName>
3-[[(4R,5S,6S,7R)-5,6-dihydroxy-2-oxo-4,7-bis(phenylmethyl)-3-[[3-(1,3-thiazol-2-ylcarbamoyl)phenyl]methyl]-1,3-diazepan-1-yl]methyl]-N-(1,3-thiazol-2-yl)benzamide

>  <Synonyms>
XV638

>  <Type>
NON-POLYMER

>  <Formula>
C41 H38 N6 O5 S2

>  <MolecularWeight>
758.908

>  <ModifiedDate>
2011-06-04

>  <Parent>


>  <OneLetterCode>


>  <SubcomponentList>


>  <AmbiguousFlag>
N

>  <InChI>
InChI=1S/C41H38N6O5S2/c48-35-33(23-27-9-3-1-4-10-27)46(25-29-13-7-15-31(21-29)37(50)44-39-42-17-19-53-39)41(52)47(34(36(35)49)24-28-11-5-2-6-12-28)26-30-14-8-16-32(22-30)38(51)45-40-43-18-20-54-40/h1-22,33-36,48-49H,23-26H2,(H,42,44,50)(H,43,45,51)/t33-,34-,35+,36+/m1/s1

>  <InChIKey>
JDALSSGOBMTZEP-NWJWHWDBSA-N

>  <SMILES>
c1ccc(cc1)C[C@@H]2[C@@H]([C@H]([C@H](N(C(=O)N2Cc3cccc(c3)C(=O)Nc4nccs4)Cc5cccc(c5)C(=O)Nc6nccs6)Cc7ccccc7)O)O

$$$$
