6CWH_6LA_A_201


 24 25  0  0  0  0  0  0  0  0999 V2000
   10.0243  -47.2402   32.1208 C   0  0  0  0  0  0  0  0  0  0  0  0
    8.7345  -47.5697   31.3490 C   0  0  0  0  0  0  0  0  0  0  0  0
    8.1605  -48.7445   31.9331 O   0  0  0  0  0  0  0  0  0  0  0  0
    7.7941  -46.4408   31.4426 C   0  0  0  0  0  0  0  0  0  0  0  0
    6.6541  -46.6264   30.5962 O   0  0  0  0  0  0  0  0  0  0  0  0
    5.7736  -45.6142   30.6135 C   0  0  0  0  0  0  0  0  0  0  0  0
    4.7141  -45.9277   29.5709 C   0  0  0  0  0  0  0  0  0  0  0  0
    6.4300  -44.3536   30.2444 O   0  0  0  0  0  0  0  0  0  0  0  0
    7.4614  -44.0318   31.1402 C   0  0  0  0  0  0  0  0  0  0  0  0
    8.4672  -45.1530   30.9461 C   0  0  0  0  0  0  0  0  0  0  0  0
    9.5705  -44.8750   31.8033 O   0  0  0  0  0  0  0  0  0  0  0  0
   10.5346  -45.8989   31.6171 C   0  0  0  0  0  0  0  0  0  0  0  0
    7.9702  -48.5800   32.8699 H   0  0  0  0  0  0  0  0  0  0  0  0
   10.0104  -47.5609   35.9576 C   0  0  0  0  0  0  0  0  0  0  0  0
   10.3288  -47.9026   34.5280 C   0  0  0  0  0  0  0  0  0  0  0  0
   10.9526  -48.9134   34.2841 O   0  0  0  0  0  0  0  0  0  0  0  0
    9.7985  -47.0951   33.5979 N   0  0  0  0  0  0  0  0  0  0  0  0
    9.2226  -46.3578   33.9042 H   0  0  0  0  0  0  0  0  0  0  0  0
    5.0900  -45.5761   32.0051 C   0  0  0  0  0  0  0  0  0  0  0  0
    4.4760  -44.5591   32.4127 O   0  0  0  0  0  0  0  0  0  0  0  0
    5.1467  -46.6271   32.5891 O   0  0  0  0  0  0  0  0  0  0  0  0
    5.6259  -47.3427   32.2202 H   0  0  0  0  0  0  0  0  0  0  0  0
   11.6426  -45.5586   32.4512 O   0  0  0  0  0  0  0  0  0  0  0  0
   12.2475  -44.2848   32.0419 C   0  0  0  0  0  0  0  0  0  0  0  0
  7  6  1  0  0  0
 20 19  2  0  0  0
  8  6  1  0  0  0
  8  9  1  0  0  0
  6 19  1  0  0  0
  6  5  1  0  0  0
 19 21  1  0  0  0
  9 10  1  0  0  0
  5  4  1  0  0  0
 10  4  1  0  0  0
 10 11  1  0  0  0
  4  2  1  0  0  0
 11 12  1  0  0  0
  2  3  1  0  0  0
  2  1  1  0  0  0
 12  1  1  0  0  0
 12 23  1  0  0  0
  1 17  1  0  0  0
 17 15  1  0  0  0
 23 24  1  0  0  0
 15 14  1  0  0  0
 15 16  2  0  0  0
 17 18  1  0  0  0
  3 13  1  0  0  0
 21 22  1  0  0  0
M  END
> <minimizedAffinity>
-8.77971

$$$$
