2PK5_075_A_900
  RCSB PDB12061706393D
Coordinates from PDB:2PK5:A:900 Model:1 without hydrogens
 56 61  0  0  0  0            999 V2000
   15.3200  -26.8240  -12.1370   C 0  0  0  0  0  0  0  0  0  0  0  0
   16.1680  -26.1380  -13.0060   C 0  0  0  0  0  0  0  0  0  0  0  0
   17.4720  -25.8340  -12.6250   C 0  0  0  0  0  0  0  0  0  0  0  0
   17.8960  -26.2190  -11.3520   C 0  0  0  0  0  0  0  0  0  0  0  0
   17.0110  -26.9070  -10.5150   C 0  0  0  0  0  0  0  0  0  0  0  0
   18.3430  -25.1600  -13.4730   C 0  0  0  0  0  0  0  0  0  0  0  0
   19.6400  -24.8560  -13.0410   C 0  0  0  0  0  0  0  0  0  0  0  0
   20.0700  -25.2340  -11.7630   C 0  0  0  0  0  0  0  0  0  0  0  0
   19.1930  -25.9250  -10.9270   C 0  0  0  0  0  0  0  0  0  0  0  0
   18.8850  -24.3620  -15.6970   C 0  0  0  0  0  0  0  0  0  0  0  0
   18.2540  -23.8690  -16.9850   C 0  0  0  0  0  0  0  0  0  0  0  0
   15.7640  -27.1940  -10.9230   N 0  0  0  0  0  0  0  0  0  0  0  0
   17.9290  -24.7770  -14.7250   O 0  0  0  0  0  0  0  0  0  0  0  0
   18.9520  -23.2530  -17.7650   O 0  0  0  0  0  0  0  0  0  0  0  0
   15.1570  -22.8160  -18.0880   C 0  0  0  0  0  0  0  0  0  0  0  0
   13.9920  -23.1920  -18.1930   O 0  0  0  0  0  0  0  0  0  0  0  0
   16.3240  -23.7100  -18.4450   C 0  0  0  0  0  0  0  0  0  0  0  0
   15.9440  -24.9760  -19.2370   C 0  0  0  0  0  0  0  0  0  0  0  0
   17.1910  -25.6790  -20.1170   S 0  0  0  0  0  0  0  0  0  0  0  0
   17.9750  -24.6800  -20.7930   O 0  0  0  0  0  0  0  0  0  0  0  0
   18.1460  -26.5960  -19.0980   C 0  0  0  0  0  0  0  0  0  0  0  0
   16.6470  -26.5340  -21.1190   O 0  0  0  0  0  0  0  0  0  0  0  0
   16.9770  -24.1510  -17.2210   N 0  0  0  0  0  0  0  0  0  0  0  0
   13.0950  -18.9080  -18.4150   C 0  0  0  0  0  0  0  0  0  0  0  0
   15.5010  -21.5970  -17.6440   N 0  0  0  0  0  0  0  0  0  0  0  0
   13.0460  -17.8590  -17.7830   O 0  0  0  0  0  0  0  0  0  0  0  0
   14.3830  -19.6820  -18.4760   C 0  0  0  0  0  0  0  0  0  0  0  0
   15.3330  -20.8100  -14.9630   C 0  0  0  0  0  0  0  0  0  0  0  0
   15.0670  -19.8190  -16.0530   C 0  0  0  0  0  0  0  0  0  0  0  0
   15.8770  -22.6420  -12.9570   C 0  0  0  0  0  0  0  0  0  0  0  0
   14.5160  -20.5850  -17.2560   C 0  0  0  0  0  0  0  0  0  0  0  0
   15.4980  -18.7890  -18.5700   O 0  0  0  0  0  0  0  0  0  0  0  0
   16.6580  -21.0600  -14.5970   C 0  0  0  0  0  0  0  0  0  0  0  0
   14.2670  -21.4720  -14.3370   C 0  0  0  0  0  0  0  0  0  0  0  0
   16.9310  -21.9870  -13.5940   C 0  0  0  0  0  0  0  0  0  0  0  0
   14.5530  -22.3880  -13.3250   C 0  0  0  0  0  0  0  0  0  0  0  0
   10.0270  -18.7220  -17.8540   C 0  0  0  0  0  0  0  0  0  0  0  0
   12.0510  -19.4310  -19.0760   N 0  0  0  0  0  0  0  0  0  0  0  0
   10.0340  -19.7240  -17.1200   O 0  0  0  0  0  0  0  0  0  0  0  0
   10.7880  -18.6900  -19.1530   C 0  0  0  0  0  0  0  0  0  0  0  0
    9.9260  -19.2400  -20.3010   C 0  0  0  0  0  0  0  0  0  0  0  0
   12.0150  -20.7250  -19.7810   C 0  0  0  0  0  0  0  0  0  0  0  0
   10.3100  -18.5520  -21.5920   C 0  0  0  0  0  0  0  0  0  0  0  0
    8.4110  -19.1100  -20.1450   C 0  0  0  0  0  0  0  0  0  0  0  0
   10.3640  -20.9290  -20.3420   S 0  0  0  0  0  0  0  0  0  0  0  0
    9.3720  -17.5850  -17.5960   N 0  0  0  0  0  0  0  0  0  0  0  0
    7.8910  -15.3880  -17.6250   O 0  0  0  0  0  0  0  0  0  0  0  0
    8.5260  -17.4410  -16.4250   C 0  0  0  0  0  0  0  0  0  0  0  0
    9.1530  -16.8350  -15.2460   C 0  0  0  0  0  0  0  0  0  0  0  0
   10.4160  -17.1180  -14.7360   C 0  0  0  0  0  0  0  0  0  0  0  0
   10.8140  -16.4180  -13.5920   C 0  0  0  0  0  0  0  0  0  0  0  0
    7.4060  -16.4440  -16.7670   C 0  0  0  0  0  0  0  0  0  0  0  0
    8.2950  -15.9260  -14.6780   C 0  0  0  0  0  0  0  0  0  0  0  0
    8.6710  -15.2120  -13.5510   C 0  0  0  0  0  0  0  0  0  0  0  0
    9.9450  -15.4730  -13.0280   C 0  0  0  0  0  0  0  0  0  0  0  0
    6.9880  -15.8100  -15.4400   C 0  0  0  0  0  0  0  0  0  0  0  0
 39 37  2  0  0  0  0
 37 40  1  0  0  0  0
 37 46  1  0  0  0  0
 46 48  1  0  0  0  0
 48 52  1  0  0  0  0
 48 49  1  0  0  0  0
 49 50  2  0  0  0  0
 49 53  1  0  0  0  0
 50 51  1  0  0  0  0
 51 55  2  0  0  0  0
 55 54  1  0  0  0  0
 54 53  2  0  0  0  0
 53 56  1  0  0  0  0
 56 52  1  0  0  0  0
 52 47  1  0  0  0  0
 40 41  1  0  0  0  0
 40 38  1  0  0  0  0
 41 43  1  0  0  0  0
 41 45  1  0  0  0  0
 41 44  1  0  0  0  0
 45 42  1  0  0  0  0
 42 38  1  0  0  0  0
 38 24  1  0  0  0  0
 24 27  1  0  0  0  0
 24 26  2  0  0  0  0
 27 32  1  0  0  0  0
 27 31  1  0  0  0  0
 31 25  1  0  0  0  0
 31 29  1  0  0  0  0
 29 28  1  0  0  0  0
 28 33  2  0  0  0  0
 28 34  1  0  0  0  0
 33 35  1  0  0  0  0
 35 30  2  0  0  0  0
 30 36  1  0  0  0  0
 36 34  2  0  0  0  0
 25 15  1  0  0  0  0
 15 17  1  0  0  0  0
 15 16  2  0  0  0  0
 17 18  1  0  0  0  0
 17 23  1  0  0  0  0
 18 19  1  0  0  0  0
 19 22  2  0  0  0  0
 19 20  2  0  0  0  0
 19 21  1  0  0  0  0
 23 11  1  0  0  0  0
 11 14  2  0  0  0  0
 11 10  1  0  0  0  0
 10 13  1  0  0  0  0
 13  6  1  0  0  0  0
  6  7  2  0  0  0  0
  6  3  1  0  0  0  0
  3  2  2  0  0  0  0
  3  4  1  0  0  0  0
  2  1  1  0  0  0  0
  4  9  1  0  0  0  0
  4  5  2  0  0  0  0
  5 12  1  0  0  0  0
 12  1  2  0  0  0  0
  9  8  2  0  0  0  0
  8  7  1  0  0  0  0
A    1
C
A    2
C1
A    3
C2
A    4
C3
A    5
C4
A    6
C5
A    7
C6
A    8
C7
A    9
C8
A   10
C9
A   11
C10
A   12
N
A   13
O
A   14
O2
A   15
C12
A   16
O5
A   17
C21
A   18
C11
A   19
S
A   20
O8
A   21
C28
A   22
O6
A   23
N1
A   24
C16
A   25
N2
A   26
O3
A   27
C14
A   28
C22
A   29
C15
A   30
C25
A   31
C13
A   32
O1
A   33
C23
A   34
C27
A   35
C24
A   36
C26
A   37
C20
A   38
N3
A   39
O4
A   40
C17
A   41
C18
A   42
C19
A   43
C29
A   44
C30
A   45
S1
A   46
N4
A   47
O7
A   48
C31
A   49
C32
A   50
C33
A   51
C34
A   52
C35
A   53
C36
A   54
C37
A   55
C38
A   56
C39
M  END
>  <InstanceId>
2PK5_075_A_900

>  <ChemCompId>
075

>  <PdbId>
2PK5

>  <ChainId>
A

>  <ResidueNumber>
900

>  <InsertionCode>


>  <Model>
1

>  <AltIds>


>  <MissingHeavyAtoms>
0

>  <ObservedFormula>
C40 N5 O9 S2

>  <Name>
(4R)-N-[(1S,2R)-2-hydroxy-2,3-dihydro-1H-inden-1-yl]-3-[(2S,3S)-2-hydroxy-3-({N-[(isoquinolin-5-yloxy)acetyl]-3-(methylsulfonyl)-L-alanyl}amino)-4-phenylbutanoyl]-5,5-dimethyl-1,3-thiazolidine-4-carboxamide

>  <SystematicName>
(4R)-N-[(1S,2R)-2-hydroxy-2,3-dihydro-1H-inden-1-yl]-3-[(2S,3S)-2-hydroxy-3-[[(2R)-2-(2-isoquinolin-5-yloxyethanoylamino)-3-methylsulfonyl-propanoyl]amino]-4-phenyl-butanoyl]-5,5-dimethyl-1,3-thiazolidine-4-carboxamide

>  <Synonyms>
KNI-10075

>  <Type>
peptide-like

>  <Formula>
C40 H45 N5 O9 S2

>  <MolecularWeight>
803.943

>  <ModifiedDate>
2011-06-04

>  <Parent>


>  <OneLetterCode>


>  <SubcomponentList>
TUC KNB 005 00B 00X

>  <AmbiguousFlag>
N

>  <InChI>
InChI=1S/C40H45N5O9S2/c1-40(2)36(38(50)44-34-28-14-8-7-12-25(28)19-31(34)46)45(23-55-40)39(51)35(48)29(18-24-10-5-4-6-11-24)43-37(49)30(22-56(3,52)53)42-33(47)21-54-32-15-9-13-26-20-41-17-16-27(26)32/h4-17,20,29-31,34-36,46,48H,18-19,21-23H2,1-3H3,(H,42,47)(H,43,49)(H,44,50)/t29-,30-,31+,34-,35-,36+/m0/s1

>  <InChIKey>
GNSJNHNIJIEWNZ-SHJYOGRKSA-N

>  <SMILES>
CC1([C@H](N(CS1)C(=O)[C@H]([C@H](Cc2ccccc2)NC(=O)[C@H](CS(=O)(=O)C)NC(=O)COc3cccc4c3ccnc4)O)C(=O)N[C@H]5c6ccccc6C[C@H]5O)C

$$$$
