3G5K_BB2_A_1001
  RCSB PDB12061708423D
Coordinates from PDB:3G5K:A:1001 Model:1 without hydrogens
 27 27  0  0  0  0            999 V2000
   33.3760   12.8130   12.0480   C 0  0  0  0  0  0  0  0  0  0  0  0
   31.9010   12.9620   12.0570   C 0  0  0  0  0  0  0  0  0  0  0  0
   31.0180   12.2060   12.5790   O 0  0  0  0  0  0  0  0  0  0  0  0
   31.2830   13.8200   11.3500   N 0  0  0  0  0  0  0  0  0  0  0  0
   29.8530   13.7860   11.4270   O 0  0  0  0  0  0  0  0  0  0  0  0
   33.7960   11.8750   10.8610   C 0  0  0  0  0  0  0  0  0  0  0  0
   35.1290   11.4290   11.0940   C 0  0  0  0  0  0  0  0  0  0  0  0
   36.0550   12.1480   10.8560   O 0  0  0  0  0  0  0  0  0  0  0  0
   33.7260   12.4420    9.4330   C 0  0  0  0  0  0  0  0  0  0  0  0
   34.1960   11.4750    8.2700   C 0  0  0  0  0  0  0  0  0  0  0  0
   33.3820   10.1690    8.2320   C 0  0  0  0  0  0  0  0  0  0  0  0
   33.7410    9.3870    6.9400   C 0  0  0  0  0  0  0  0  0  0  0  0
   35.2730    8.9950    6.8200   C 0  0  0  0  0  0  0  0  0  0  0  0
   35.4310   10.0850   11.3730   N 0  0  0  0  0  0  0  0  0  0  0  0
   36.8270    9.5770   11.4930   C 0  0  0  0  0  0  0  0  0  0  0  0
   37.0490    9.1710   12.9770   C 0  0  0  0  0  0  0  0  0  0  0  0
   36.1330    8.0580   13.3450   C 0  0  0  0  0  0  0  0  0  0  0  0
   37.1240   10.4620   13.7410   C 0  0  0  0  0  0  0  0  0  0  0  0
   36.9100    8.3580   10.5090   C 0  0  0  0  0  0  0  0  0  0  0  0
   35.8670    7.7390   10.1260   O 0  0  0  0  0  0  0  0  0  0  0  0
   38.1140    7.8940   10.1780   N 0  0  0  0  0  0  0  0  0  0  0  0
   38.3630    6.7580    9.2960   C 0  0  0  0  0  0  0  0  0  0  0  0
   39.3660    8.6750   10.5210   C 0  0  0  0  0  0  0  0  0  0  0  0
   40.5010    8.0330    9.7660   C 0  0  0  0  0  0  0  0  0  0  0  0
   39.8470    7.0250    8.8090   C 0  0  0  0  0  0  0  0  0  0  0  0
   38.3570    5.4860   10.1450   C 0  0  0  0  0  0  0  0  0  0  0  0
   38.3070    4.4310    9.1070   O 0  0  0  0  0  0  0  0  0  0  0  0
  1  2  1  0  0  0  0
  1  6  1  0  0  0  0
  2  3  2  0  0  0  0
  2  4  1  0  0  0  0
  4  5  1  0  0  0  0
  6  7  1  0  0  0  0
  6  9  1  0  0  0  0
  7  8  2  0  0  0  0
  7 14  1  0  0  0  0
  9 10  1  0  0  0  0
 10 11  1  0  0  0  0
 11 12  1  0  0  0  0
 12 13  1  0  0  0  0
 14 15  1  0  0  0  0
 15 16  1  0  0  0  0
 15 19  1  0  0  0  0
 16 17  1  0  0  0  0
 16 18  1  0  0  0  0
 19 20  2  0  0  0  0
 19 21  1  0  0  0  0
 21 22  1  0  0  0  0
 21 23  1  0  0  0  0
 22 25  1  0  0  0  0
 22 26  1  0  0  0  0
 23 24  1  0  0  0  0
 24 25  1  0  0  0  0
 26 27  1  0  0  0  0
A    1
C5
A    2
C3
A    3
O4
A    4
N1
A    5
O2
A    6
C6
A    7
C12
A    8
O13
A    9
C7
A   10
C8
A   11
C9
A   12
C10
A   13
C11
A   14
N14
A   15
C15
A   16
C16
A   17
C18
A   18
C17
A   19
C19
A   20
O20
A   21
N21
A   22
C22
A   23
C23
A   24
C24
A   25
C25
A   26
C26
A   27
O27
M  END
>  <InstanceId>
3G5K_BB2_A_1001

>  <ChemCompId>
BB2

>  <PdbId>
3G5K

>  <ChainId>
A

>  <ResidueNumber>
1001

>  <InsertionCode>


>  <Model>
1

>  <AltIds>


>  <MissingHeavyAtoms>
0

>  <ObservedFormula>
C19 N3 O5

>  <Name>
ACTINONIN

>  <SystematicName>
(2R)-N'-hydroxy-N-[(2S)-1-[(2S)-2-(hydroxymethyl)pyrrolidin-1-yl]-3-methyl-1-oxo-butan-2-yl]-2-pentyl-butanediamide

>  <Synonyms>
2-[(FORMYL-HYDROXY-AMINO)-METHYL]-HEPTANOIC ACID [1-(2-HYDROXYMETHYL-PYRROLIDINE-1-CARBONYL)-2-METHYL-PROPYL]-AMIDE

>  <Type>
NON-POLYMER

>  <Formula>
C19 H35 N3 O5

>  <MolecularWeight>
385.498

>  <ModifiedDate>
2011-06-04

>  <Parent>


>  <OneLetterCode>


>  <SubcomponentList>


>  <AmbiguousFlag>
N

>  <InChI>
InChI=1S/C19H35N3O5/c1-4-5-6-8-14(11-16(24)21-27)18(25)20-17(13(2)3)19(26)22-10-7-9-15(22)12-23/h13-15,17,23,27H,4-12H2,1-3H3,(H,20,25)(H,21,24)/t14-,15+,17+/m1/s1

>  <InChIKey>
XJLATMLVMSFZBN-VYDXJSESSA-N

>  <SMILES>
CCCCC[C@H](CC(=O)NO)C(=O)N[C@@H](C(C)C)C(=O)N1CCC[C@H]1CO

$$$$
