1WUR_8DG_A_821


 41 43  0  0  0  0  0  0  0  0999 V2000
  -28.2151  -19.2219    5.8792 C   0  0  0  0  0  0  0  0  0  0  0  0
  -26.9282  -19.7649    6.3003 O   0  0  0  0  0  0  0  0  0  0  0  0
  -27.8640  -17.9216    5.1190 C   0  0  0  0  0  0  0  0  0  0  0  0
  -28.5053  -16.8084    5.7312 O   0  0  0  0  0  0  0  0  0  0  0  0
  -26.3650  -17.8489    5.1953 C   0  0  0  0  0  0  0  0  0  0  0  0
  -26.1296  -18.6151    6.4471 C   0  0  0  0  0  0  0  0  0  0  0  0
  -28.2441  -16.7576    6.6640 H   0  0  0  0  0  0  0  0  0  0  0  0
  -24.7341  -18.9809    6.7056 N   0  0  0  0  0  0  0  0  0  0  0  0
  -23.7825  -19.4404    5.8151 C   0  0  0  0  0  0  0  0  0  0  0  0
  -22.6168  -19.6525    6.3808 N   0  0  0  0  0  0  0  0  0  0  0  0
  -22.8213  -19.3138    7.7202 C   0  0  0  0  0  0  0  0  0  0  0  0
  -21.9350  -19.3212    8.8368 C   0  0  0  0  0  0  0  0  0  0  0  0
  -20.7437  -19.6308    8.8921 O   0  0  0  0  0  0  0  0  0  0  0  0
  -22.5766  -18.9040   10.0174 N   0  0  0  0  0  0  0  0  0  0  0  0
  -23.9056  -18.5265   10.0864 C   0  0  0  0  0  0  0  0  0  0  0  0
  -24.3506  -18.1618   11.2985 N   0  0  0  0  0  0  0  0  0  0  0  0
  -24.7213  -18.5084    9.0582 N   0  0  0  0  0  0  0  0  0  0  0  0
  -24.1216  -18.9110    7.9123 C   0  0  0  0  0  0  0  0  0  0  0  0
  -24.0667  -19.6084    4.6230 O   0  0  0  0  0  0  0  0  0  0  0  0
  -21.7887  -19.9760    5.9579 H   0  0  0  0  0  0  0  0  0  0  0  0
  -22.0463  -18.8793   10.8465 H   0  0  0  0  0  0  0  0  0  0  0  0
  -23.7407  -18.1746   12.0712 H   0  0  0  0  0  0  0  0  0  0  0  0
  -25.2871  -17.8814   11.4153 H   0  0  0  0  0  0  0  0  0  0  0  0
  -29.0421  -20.2028    5.0896 C   0  0  0  0  0  0  0  0  0  0  0  0
  -30.3677  -20.2088    5.6407 O   0  0  0  0  0  0  0  0  0  0  0  0
  -31.6790  -20.0853    4.7489 P   0  0  0  0  0  0  0  0  0  0  0  0
  -32.5030  -21.3295    4.7951 O   0  0  0  0  0  0  0  0  0  0  0  0
  -32.4154  -18.8200    5.0199 O   0  0  0  0  0  0  0  0  0  0  0  0
  -33.2064  -18.7799    4.4598 H   0  0  0  0  0  0  0  0  0  0  0  0
  -31.0334  -19.9774    3.2715 O   0  0  0  0  0  0  0  0  0  0  0  0
  -31.1581  -18.9688    2.0557 P   0  0  0  0  0  0  0  0  0  0  0  0
  -30.8611  -19.6959    0.8070 O   0  0  0  0  0  0  0  0  0  0  0  0
  -32.4880  -18.3305    2.0445 O   0  0  0  0  0  0  0  0  0  0  0  0
  -32.5461  -17.7176    1.2949 H   0  0  0  0  0  0  0  0  0  0  0  0
  -30.0145  -17.8636    2.3421 O   0  0  0  0  0  0  0  0  0  0  0  0
  -29.5182  -16.6471    1.4210 P   0  0  0  0  0  0  0  0  0  0  0  0
  -29.8609  -15.3630    2.1122 O   0  0  0  0  0  0  0  0  0  0  0  0
  -28.0398  -16.8285    1.2296 O   0  0  0  0  0  0  0  0  0  0  0  0
  -30.2230  -16.7049    0.0637 O   0  0  0  0  0  0  0  0  0  0  0  0
  -27.6951  -16.1110    0.6753 H   0  0  0  0  0  0  0  0  0  0  0  0
  -29.9201  -15.9680   -0.4896 H   0  0  0  0  0  0  0  0  0  0  0  0
 36 37  2  0  0  0
 36 38  1  0  0  0
 36 39  1  0  0  0
 36 35  1  0  0  0
 35 31  1  0  0  0
 31 32  2  0  0  0
 31 33  1  0  0  0
 31 30  1  0  0  0
 30 26  1  0  0  0
 26 27  2  0  0  0
 26 28  1  0  0  0
 26 25  1  0  0  0
 25 24  1  0  0  0
 24  1  1  0  0  0
  1  2  1  0  0  0
  1  3  1  0  0  0
  2  6  1  0  0  0
  3  4  1  0  0  0
  3  5  1  0  0  0
  5  6  1  0  0  0
  6  8  1  0  0  0
  8  9  1  0  0  0
  8 18  1  0  0  0
  9 10  1  0  0  0
  9 19  2  0  0  0
 10 11  1  0  0  0
 11 12  1  0  0  0
 11 18  2  0  0  0
 12 13  2  0  0  0
 12 14  1  0  0  0
 14 15  1  0  0  0
 15 16  1  0  0  0
 15 17  2  0  0  0
 17 18  1  0  0  0
 38 40  1  0  0  0
 39 41  1  0  0  0
 33 34  1  0  0  0
 28 29  1  0  0  0
  4  7  1  0  0  0
 10 20  1  0  0  0
 14 21  1  0  0  0
 16 22  1  0  0  0
 16 23  1  0  0  0
M  END
> <minimizedAffinity>
-10.83092

$$$$
1WUR_8DG_A_821


 41 43  0  0  0  0  0  0  0  0999 V2000
  -26.7826  -17.8998    5.4794 C   0  0  0  0  0  0  0  0  0  0  0  0
  -27.8350  -17.7905    4.4750 O   0  0  0  0  0  0  0  0  0  0  0  0
  -26.9111  -19.3397    6.0292 C   0  0  0  0  0  0  0  0  0  0  0  0
  -27.1351  -19.3088    7.4342 O   0  0  0  0  0  0  0  0  0  0  0  0
  -28.0673  -19.9195    5.2642 C   0  0  0  0  0  0  0  0  0  0  0  0
  -28.8204  -18.6776    4.9478 C   0  0  0  0  0  0  0  0  0  0  0  0
  -27.9277  -18.7827    7.6237 H   0  0  0  0  0  0  0  0  0  0  0  0
  -29.8972  -18.8301    3.9653 N   0  0  0  0  0  0  0  0  0  0  0  0
  -30.9868  -19.6793    4.0030 C   0  0  0  0  0  0  0  0  0  0  0  0
  -31.7752  -19.5416    2.9622 N   0  0  0  0  0  0  0  0  0  0  0  0
  -31.1617  -18.5454    2.1993 C   0  0  0  0  0  0  0  0  0  0  0  0
  -31.5367  -17.9454    0.9616 C   0  0  0  0  0  0  0  0  0  0  0  0
  -32.5188  -18.1613    0.2496 O   0  0  0  0  0  0  0  0  0  0  0  0
  -30.6073  -16.9735    0.5481 N   0  0  0  0  0  0  0  0  0  0  0  0
  -29.4695  -16.6359    1.2588 C   0  0  0  0  0  0  0  0  0  0  0  0
  -28.6935  -15.6888    0.7102 N   0  0  0  0  0  0  0  0  0  0  0  0
  -29.1272  -17.1788    2.4038 N   0  0  0  0  0  0  0  0  0  0  0  0
  -30.0090  -18.1206    2.8164 C   0  0  0  0  0  0  0  0  0  0  0  0
  -31.1430  -20.4595    4.9501 O   0  0  0  0  0  0  0  0  0  0  0  0
  -32.6077  -20.0287    2.7648 H   0  0  0  0  0  0  0  0  0  0  0  0
  -30.7774  -16.5041   -0.3004 H   0  0  0  0  0  0  0  0  0  0  0  0
  -28.9482  -15.2802   -0.1485 H   0  0  0  0  0  0  0  0  0  0  0  0
  -27.8693  -15.4026    1.1663 H   0  0  0  0  0  0  0  0  0  0  0  0
  -25.4166  -17.5549    4.9458 C   0  0  0  0  0  0  0  0  0  0  0  0
  -24.4708  -17.7146    6.0140 O   0  0  0  0  0  0  0  0  0  0  0  0
  -23.1669  -18.6173    5.8910 P   0  0  0  0  0  0  0  0  0  0  0  0
  -23.4684  -19.9528    5.2957 O   0  0  0  0  0  0  0  0  0  0  0  0
  -22.0384  -17.8768    5.2625 O   0  0  0  0  0  0  0  0  0  0  0  0
  -21.2633  -18.4572    5.2045 H   0  0  0  0  0  0  0  0  0  0  0  0
  -22.8054  -18.8437    7.4496 O   0  0  0  0  0  0  0  0  0  0  0  0
  -22.0820  -19.9775    8.2878 P   0  0  0  0  0  0  0  0  0  0  0  0
  -22.4202  -21.2875    7.6997 O   0  0  0  0  0  0  0  0  0  0  0  0
  -20.6284  -19.7335    8.3456 O   0  0  0  0  0  0  0  0  0  0  0  0
  -20.2029  -20.4360    8.8616 H   0  0  0  0  0  0  0  0  0  0  0  0
  -22.7259  -19.8470    9.7642 O   0  0  0  0  0  0  0  0  0  0  0  0
  -24.0518  -19.0753   10.2342 P   0  0  0  0  0  0  0  0  0  0  0  0
  -24.7585  -19.9263   11.2445 O   0  0  0  0  0  0  0  0  0  0  0  0
  -23.6050  -17.7559   10.7951 O   0  0  0  0  0  0  0  0  0  0  0  0
  -24.9669  -18.8388    9.0304 O   0  0  0  0  0  0  0  0  0  0  0  0
  -24.3788  -17.2527   11.0934 H   0  0  0  0  0  0  0  0  0  0  0  0
  -25.7668  -18.3723    9.3191 H   0  0  0  0  0  0  0  0  0  0  0  0
 36 37  2  0  0  0
 36 38  1  0  0  0
 36 39  1  0  0  0
 36 35  1  0  0  0
 35 31  1  0  0  0
 31 32  2  0  0  0
 31 33  1  0  0  0
 31 30  1  0  0  0
 30 26  1  0  0  0
 26 27  2  0  0  0
 26 28  1  0  0  0
 26 25  1  0  0  0
 25 24  1  0  0  0
 24  1  1  0  0  0
  1  2  1  0  0  0
  1  3  1  0  0  0
  2  6  1  0  0  0
  3  4  1  0  0  0
  3  5  1  0  0  0
  5  6  1  0  0  0
  6  8  1  0  0  0
  8  9  1  0  0  0
  8 18  1  0  0  0
  9 10  1  0  0  0
  9 19  2  0  0  0
 10 11  1  0  0  0
 11 12  1  0  0  0
 11 18  2  0  0  0
 12 13  2  0  0  0
 12 14  1  0  0  0
 14 15  1  0  0  0
 15 16  1  0  0  0
 15 17  2  0  0  0
 17 18  1  0  0  0
 38 40  1  0  0  0
 39 41  1  0  0  0
 33 34  1  0  0  0
 28 29  1  0  0  0
  4  7  1  0  0  0
 10 20  1  0  0  0
 14 21  1  0  0  0
 16 22  1  0  0  0
 16 23  1  0  0  0
M  END
> <minimizedAffinity>
-9.77135

$$$$
1WUR_8DG_A_821


 41 43  0  0  0  0  0  0  0  0999 V2000
  -26.6096  -17.7882    5.4603 C   0  0  0  0  0  0  0  0  0  0  0  0
  -27.5412  -17.5761    4.3578 O   0  0  0  0  0  0  0  0  0  0  0  0
  -26.8559  -19.2478    5.9085 C   0  0  0  0  0  0  0  0  0  0  0  0
  -27.2300  -19.2817    7.2811 O   0  0  0  0  0  0  0  0  0  0  0  0
  -27.9448  -19.7309    4.9925 C   0  0  0  0  0  0  0  0  0  0  0  0
  -28.6076  -18.4399    4.6707 C   0  0  0  0  0  0  0  0  0  0  0  0
  -28.0163  -18.7299    7.4156 H   0  0  0  0  0  0  0  0  0  0  0  0
  -29.5765  -18.4890    3.5721 N   0  0  0  0  0  0  0  0  0  0  0  0
  -29.4833  -17.9280    2.3126 C   0  0  0  0  0  0  0  0  0  0  0  0
  -30.5293  -18.1861    1.5622 N   0  0  0  0  0  0  0  0  0  0  0  0
  -31.3546  -18.9590    2.3820 C   0  0  0  0  0  0  0  0  0  0  0  0
  -32.6270  -19.5547    2.1397 C   0  0  0  0  0  0  0  0  0  0  0  0
  -33.3221  -19.5362    1.1226 O   0  0  0  0  0  0  0  0  0  0  0  0
  -33.1027  -20.2500    3.2664 N   0  0  0  0  0  0  0  0  0  0  0  0
  -32.4169  -20.3492    4.4637 C   0  0  0  0  0  0  0  0  0  0  0  0
  -33.0256  -21.0487    5.4334 N   0  0  0  0  0  0  0  0  0  0  0  0
  -31.2406  -19.8110    4.6863 N   0  0  0  0  0  0  0  0  0  0  0  0
  -30.7678  -19.1334    3.6129 C   0  0  0  0  0  0  0  0  0  0  0  0
  -28.4886  -17.2666    1.9913 O   0  0  0  0  0  0  0  0  0  0  0  0
  -30.6940  -17.9004    0.6345 H   0  0  0  0  0  0  0  0  0  0  0  0
  -33.9789  -20.6938    3.1986 H   0  0  0  0  0  0  0  0  0  0  0  0
  -33.9079  -21.4533    5.2687 H   0  0  0  0  0  0  0  0  0  0  0  0
  -32.5900  -21.1575    6.3095 H   0  0  0  0  0  0  0  0  0  0  0  0
  -25.1807  -17.4797    5.0959 C   0  0  0  0  0  0  0  0  0  0  0  0
  -24.3398  -17.9633    6.1541 O   0  0  0  0  0  0  0  0  0  0  0  0
  -22.9438  -18.6804    5.8946 P   0  0  0  0  0  0  0  0  0  0  0  0
  -23.1189  -20.0892    5.4326 O   0  0  0  0  0  0  0  0  0  0  0  0
  -22.0375  -17.8422    5.0621 O   0  0  0  0  0  0  0  0  0  0  0  0
  -21.1990  -18.3104    4.9253 H   0  0  0  0  0  0  0  0  0  0  0  0
  -22.3414  -18.7253    7.3933 O   0  0  0  0  0  0  0  0  0  0  0  0
  -21.7637  -19.8533    8.3447 P   0  0  0  0  0  0  0  0  0  0  0  0
  -21.4180  -21.0302    7.5252 O   0  0  0  0  0  0  0  0  0  0  0  0
  -20.6199  -19.3410    9.1228 O   0  0  0  0  0  0  0  0  0  0  0  0
  -20.2798  -20.0438    9.6984 H   0  0  0  0  0  0  0  0  0  0  0  0
  -22.9940  -20.2040    9.3319 O   0  0  0  0  0  0  0  0  0  0  0  0
  -24.0377  -19.2196   10.0504 P   0  0  0  0  0  0  0  0  0  0  0  0
  -24.6851  -19.9625   11.1788 O   0  0  0  0  0  0  0  0  0  0  0  0
  -23.2534  -18.0257   10.5137 O   0  0  0  0  0  0  0  0  0  0  0  0
  -25.1050  -18.7758    9.0472 O   0  0  0  0  0  0  0  0  0  0  0  0
  -23.8480  -17.4003   10.9566 H   0  0  0  0  0  0  0  0  0  0  0  0
  -25.7335  -18.1811    9.4857 H   0  0  0  0  0  0  0  0  0  0  0  0
 36 37  2  0  0  0
 36 38  1  0  0  0
 36 39  1  0  0  0
 36 35  1  0  0  0
 35 31  1  0  0  0
 31 32  2  0  0  0
 31 33  1  0  0  0
 31 30  1  0  0  0
 30 26  1  0  0  0
 26 27  2  0  0  0
 26 28  1  0  0  0
 26 25  1  0  0  0
 25 24  1  0  0  0
 24  1  1  0  0  0
  1  2  1  0  0  0
  1  3  1  0  0  0
  2  6  1  0  0  0
  3  4  1  0  0  0
  3  5  1  0  0  0
  5  6  1  0  0  0
  6  8  1  0  0  0
  8  9  1  0  0  0
  8 18  1  0  0  0
  9 10  1  0  0  0
  9 19  2  0  0  0
 10 11  1  0  0  0
 11 12  1  0  0  0
 11 18  2  0  0  0
 12 13  2  0  0  0
 12 14  1  0  0  0
 14 15  1  0  0  0
 15 16  1  0  0  0
 15 17  2  0  0  0
 17 18  1  0  0  0
 38 40  1  0  0  0
 39 41  1  0  0  0
 33 34  1  0  0  0
 28 29  1  0  0  0
  4  7  1  0  0  0
 10 20  1  0  0  0
 14 21  1  0  0  0
 16 22  1  0  0  0
 16 23  1  0  0  0
M  END
> <minimizedAffinity>
-9.63137

$$$$
1WUR_8DG_A_821


 41 43  0  0  0  0  0  0  0  0999 V2000
  -28.1532  -19.2198    5.8636 C   0  0  0  0  0  0  0  0  0  0  0  0
  -26.8631  -19.7548    6.2853 O   0  0  0  0  0  0  0  0  0  0  0  0
  -27.8098  -17.9167    5.1045 C   0  0  0  0  0  0  0  0  0  0  0  0
  -28.4588  -16.8082    5.7171 O   0  0  0  0  0  0  0  0  0  0  0  0
  -26.3114  -17.8345    5.1821 C   0  0  0  0  0  0  0  0  0  0  0  0
  -26.0720  -18.6000    6.4336 C   0  0  0  0  0  0  0  0  0  0  0  0
  -28.1986  -16.7564    6.6501 H   0  0  0  0  0  0  0  0  0  0  0  0
  -24.6744  -18.9570    6.6928 N   0  0  0  0  0  0  0  0  0  0  0  0
  -23.7164  -19.4002    5.8009 C   0  0  0  0  0  0  0  0  0  0  0  0
  -22.5507  -19.6083    6.3681 N   0  0  0  0  0  0  0  0  0  0  0  0
  -22.7621  -19.2843    7.7101 C   0  0  0  0  0  0  0  0  0  0  0  0
  -21.8791  -19.2953    8.8294 C   0  0  0  0  0  0  0  0  0  0  0  0
  -20.6855  -19.5958    8.8854 O   0  0  0  0  0  0  0  0  0  0  0  0
  -22.5277  -18.8948   10.0119 N   0  0  0  0  0  0  0  0  0  0  0  0
  -23.8599  -18.5287   10.0805 C   0  0  0  0  0  0  0  0  0  0  0  0
  -24.3116  -18.1794   11.2946 N   0  0  0  0  0  0  0  0  0  0  0  0
  -24.6726  -18.5072    9.0499 N   0  0  0  0  0  0  0  0  0  0  0  0
  -24.0662  -18.8939    7.9020 C   0  0  0  0  0  0  0  0  0  0  0  0
  -23.9956  -19.5589    4.6063 O   0  0  0  0  0  0  0  0  0  0  0  0
  -21.7187  -19.9210    5.9447 H   0  0  0  0  0  0  0  0  0  0  0  0
  -22.0002  -18.8738   10.8429 H   0  0  0  0  0  0  0  0  0  0  0  0
  -23.7039  -18.1948   12.0691 H   0  0  0  0  0  0  0  0  0  0  0  0
  -25.2506  -17.9077   11.4111 H   0  0  0  0  0  0  0  0  0  0  0  0
  -28.9732  -20.2055    5.0726 C   0  0  0  0  0  0  0  0  0  0  0  0
  -30.3491  -20.0369    5.4459 O   0  0  0  0  0  0  0  0  0  0  0  0
  -31.5244  -19.8874    4.3845 P   0  0  0  0  0  0  0  0  0  0  0  0
  -32.2251  -21.1835    4.1434 O   0  0  0  0  0  0  0  0  0  0  0  0
  -32.4084  -18.7308    4.6969 O   0  0  0  0  0  0  0  0  0  0  0  0
  -33.1108  -18.6714    4.0306 H   0  0  0  0  0  0  0  0  0  0  0  0
  -30.6862  -19.5258    3.0512 O   0  0  0  0  0  0  0  0  0  0  0  0
  -31.0203  -18.8561    1.6543 P   0  0  0  0  0  0  0  0  0  0  0  0
  -30.6114  -17.4394    1.7004 O   0  0  0  0  0  0  0  0  0  0  0  0
  -30.3799  -19.6017    0.5543 O   0  0  0  0  0  0  0  0  0  0  0  0
  -30.5950  -19.1782   -0.2915 H   0  0  0  0  0  0  0  0  0  0  0  0
  -32.6282  -18.9682    1.5385 O   0  0  0  0  0  0  0  0  0  0  0  0
  -33.5214  -20.0347    0.7390 P   0  0  0  0  0  0  0  0  0  0  0  0
  -34.4629  -20.6811    1.7085 O   0  0  0  0  0  0  0  0  0  0  0  0
  -34.2321  -19.2744   -0.3436 O   0  0  0  0  0  0  0  0  0  0  0  0
  -32.6181  -21.0990    0.1115 O   0  0  0  0  0  0  0  0  0  0  0  0
  -34.7871  -19.8834   -0.8554 H   0  0  0  0  0  0  0  0  0  0  0  0
  -33.1620  -21.7414   -0.3706 H   0  0  0  0  0  0  0  0  0  0  0  0
 36 37  2  0  0  0
 36 38  1  0  0  0
 36 39  1  0  0  0
 36 35  1  0  0  0
 35 31  1  0  0  0
 31 32  2  0  0  0
 31 33  1  0  0  0
 31 30  1  0  0  0
 30 26  1  0  0  0
 26 27  2  0  0  0
 26 28  1  0  0  0
 26 25  1  0  0  0
 25 24  1  0  0  0
 24  1  1  0  0  0
  1  2  1  0  0  0
  1  3  1  0  0  0
  2  6  1  0  0  0
  3  4  1  0  0  0
  3  5  1  0  0  0
  5  6  1  0  0  0
  6  8  1  0  0  0
  8  9  1  0  0  0
  8 18  1  0  0  0
  9 10  1  0  0  0
  9 19  2  0  0  0
 10 11  1  0  0  0
 11 12  1  0  0  0
 11 18  2  0  0  0
 12 13  2  0  0  0
 12 14  1  0  0  0
 14 15  1  0  0  0
 15 16  1  0  0  0
 15 17  2  0  0  0
 17 18  1  0  0  0
 38 40  1  0  0  0
 39 41  1  0  0  0
 33 34  1  0  0  0
 28 29  1  0  0  0
  4  7  1  0  0  0
 10 20  1  0  0  0
 14 21  1  0  0  0
 16 22  1  0  0  0
 16 23  1  0  0  0
M  END
> <minimizedAffinity>
-9.62776

$$$$
1WUR_8DG_A_821


 41 43  0  0  0  0  0  0  0  0999 V2000
  -28.0667  -19.1068    5.7052 C   0  0  0  0  0  0  0  0  0  0  0  0
  -26.7928  -19.6885    6.1139 O   0  0  0  0  0  0  0  0  0  0  0  0
  -27.6973  -17.7267    5.1126 C   0  0  0  0  0  0  0  0  0  0  0  0
  -28.3727  -16.6935    5.8208 O   0  0  0  0  0  0  0  0  0  0  0  0
  -26.2033  -17.6565    5.2578 C   0  0  0  0  0  0  0  0  0  0  0  0
  -26.0112  -18.5594    6.4230 C   0  0  0  0  0  0  0  0  0  0  0  0
  -28.1495  -16.7482    6.7632 H   0  0  0  0  0  0  0  0  0  0  0  0
  -24.6239  -18.9459    6.6949 N   0  0  0  0  0  0  0  0  0  0  0  0
  -23.6691  -19.4147    5.8126 C   0  0  0  0  0  0  0  0  0  0  0  0
  -22.5128  -19.6458    6.3899 N   0  0  0  0  0  0  0  0  0  0  0  0
  -22.7272  -19.3104    7.7286 C   0  0  0  0  0  0  0  0  0  0  0  0
  -21.8533  -19.3354    8.8548 C   0  0  0  0  0  0  0  0  0  0  0  0
  -20.6671  -19.6620    8.9215 O   0  0  0  0  0  0  0  0  0  0  0  0
  -22.5018  -18.9147   10.0302 N   0  0  0  0  0  0  0  0  0  0  0  0
  -23.8261  -18.5188   10.0866 C   0  0  0  0  0  0  0  0  0  0  0  0
  -24.2792  -18.1534   11.2955 N   0  0  0  0  0  0  0  0  0  0  0  0
  -24.6302  -18.4844    9.0497 N   0  0  0  0  0  0  0  0  0  0  0  0
  -24.0237  -18.8902    7.9084 C   0  0  0  0  0  0  0  0  0  0  0  0
  -23.9426  -19.5733    4.6167 O   0  0  0  0  0  0  0  0  0  0  0  0
  -21.6847  -19.9790    5.9745 H   0  0  0  0  0  0  0  0  0  0  0  0
  -21.9804  -18.9012   10.8652 H   0  0  0  0  0  0  0  0  0  0  0  0
  -23.6780  -18.1783   12.0747 H   0  0  0  0  0  0  0  0  0  0  0  0
  -25.2129  -17.8603   11.4034 H   0  0  0  0  0  0  0  0  0  0  0  0
  -28.8525  -19.9950    4.7760 C   0  0  0  0  0  0  0  0  0  0  0  0
  -30.0770  -19.3207    4.4493 O   0  0  0  0  0  0  0  0  0  0  0  0
  -30.4736  -18.9128    2.9638 P   0  0  0  0  0  0  0  0  0  0  0  0
  -29.9804  -17.5487    2.6106 O   0  0  0  0  0  0  0  0  0  0  0  0
  -30.1403  -19.9863    1.9874 O   0  0  0  0  0  0  0  0  0  0  0  0
  -30.3955  -19.7028    1.0956 H   0  0  0  0  0  0  0  0  0  0  0  0
  -32.0829  -18.8371    3.0883 O   0  0  0  0  0  0  0  0  0  0  0  0
  -33.2982  -18.9007    2.0733 P   0  0  0  0  0  0  0  0  0  0  0  0
  -34.2595  -19.9127    2.5509 O   0  0  0  0  0  0  0  0  0  0  0  0
  -33.9060  -17.5671    1.9063 O   0  0  0  0  0  0  0  0  0  0  0  0
  -34.6468  -17.6251    1.2828 H   0  0  0  0  0  0  0  0  0  0  0  0
  -32.6265  -19.3824    0.6847 O   0  0  0  0  0  0  0  0  0  0  0  0
  -32.3847  -18.5588   -0.6710 P   0  0  0  0  0  0  0  0  0  0  0  0
  -31.5906  -17.3321   -0.3411 O   0  0  0  0  0  0  0  0  0  0  0  0
  -31.6656  -19.4820   -1.6121 O   0  0  0  0  0  0  0  0  0  0  0  0
  -33.7304  -18.1532   -1.2769 O   0  0  0  0  0  0  0  0  0  0  0  0
  -31.4977  -19.0230   -2.4500 H   0  0  0  0  0  0  0  0  0  0  0  0
  -33.5794  -17.6558   -2.0958 H   0  0  0  0  0  0  0  0  0  0  0  0
 36 37  2  0  0  0
 36 38  1  0  0  0
 36 39  1  0  0  0
 36 35  1  0  0  0
 35 31  1  0  0  0
 31 32  2  0  0  0
 31 33  1  0  0  0
 31 30  1  0  0  0
 30 26  1  0  0  0
 26 27  2  0  0  0
 26 28  1  0  0  0
 26 25  1  0  0  0
 25 24  1  0  0  0
 24  1  1  0  0  0
  1  2  1  0  0  0
  1  3  1  0  0  0
  2  6  1  0  0  0
  3  4  1  0  0  0
  3  5  1  0  0  0
  5  6  1  0  0  0
  6  8  1  0  0  0
  8  9  1  0  0  0
  8 18  1  0  0  0
  9 10  1  0  0  0
  9 19  2  0  0  0
 10 11  1  0  0  0
 11 12  1  0  0  0
 11 18  2  0  0  0
 12 13  2  0  0  0
 12 14  1  0  0  0
 14 15  1  0  0  0
 15 16  1  0  0  0
 15 17  2  0  0  0
 17 18  1  0  0  0
 38 40  1  0  0  0
 39 41  1  0  0  0
 33 34  1  0  0  0
 28 29  1  0  0  0
  4  7  1  0  0  0
 10 20  1  0  0  0
 14 21  1  0  0  0
 16 22  1  0  0  0
 16 23  1  0  0  0
M  END
> <minimizedAffinity>
-9.46136

$$$$
1WUR_8DG_A_821


 41 43  0  0  0  0  0  0  0  0999 V2000
  -28.0313  -18.6505    5.4088 C   0  0  0  0  0  0  0  0  0  0  0  0
  -26.8260  -19.4160    5.7082 O   0  0  0  0  0  0  0  0  0  0  0  0
  -27.5344  -17.2016    5.1946 C   0  0  0  0  0  0  0  0  0  0  0  0
  -28.1768  -16.3234    6.1117 O   0  0  0  0  0  0  0  0  0  0  0  0
  -26.0499  -17.2904    5.4105 C   0  0  0  0  0  0  0  0  0  0  0  0
  -25.9877  -18.4648    6.3196 C   0  0  0  0  0  0  0  0  0  0  0  0
  -28.0126  -16.6263    7.0185 H   0  0  0  0  0  0  0  0  0  0  0  0
  -24.6483  -19.0173    6.5398 N   0  0  0  0  0  0  0  0  0  0  0  0
  -23.8199  -19.6591    5.6389 C   0  0  0  0  0  0  0  0  0  0  0  0
  -22.6696  -20.0095    6.1660 N   0  0  0  0  0  0  0  0  0  0  0  0
  -22.7541  -19.5727    7.4899 C   0  0  0  0  0  0  0  0  0  0  0  0
  -21.8220  -19.6501    8.5659 C   0  0  0  0  0  0  0  0  0  0  0  0
  -20.6867  -20.1281    8.5888 O   0  0  0  0  0  0  0  0  0  0  0  0
  -22.3353  -19.0800    9.7453 N   0  0  0  0  0  0  0  0  0  0  0  0
  -23.5906  -18.5079    9.8481 C   0  0  0  0  0  0  0  0  0  0  0  0
  -23.9155  -18.0169   11.0537 N   0  0  0  0  0  0  0  0  0  0  0  0
  -24.4468  -18.4256    8.8566 N   0  0  0  0  0  0  0  0  0  0  0  0
  -23.9711  -18.9733    7.7127 C   0  0  0  0  0  0  0  0  0  0  0  0
  -24.1861  -19.8476    4.4726 O   0  0  0  0  0  0  0  0  0  0  0  0
  -21.9196  -20.4737    5.7285 H   0  0  0  0  0  0  0  0  0  0  0  0
  -21.7652  -19.0888   10.5479 H   0  0  0  0  0  0  0  0  0  0  0  0
  -23.2750  -18.0776   11.7989 H   0  0  0  0  0  0  0  0  0  0  0  0
  -24.7945  -17.5959   11.1932 H   0  0  0  0  0  0  0  0  0  0  0  0
  -28.8214  -19.2161    4.2574 C   0  0  0  0  0  0  0  0  0  0  0  0
  -29.6014  -18.1524    3.6909 O   0  0  0  0  0  0  0  0  0  0  0  0
  -29.4941  -17.7148    2.1654 P   0  0  0  0  0  0  0  0  0  0  0  0
  -30.3028  -16.4931    1.8784 O   0  0  0  0  0  0  0  0  0  0  0  0
  -28.0803  -17.6698    1.7006 O   0  0  0  0  0  0  0  0  0  0  0  0
  -28.0545  -17.4002    0.7692 H   0  0  0  0  0  0  0  0  0  0  0  0
  -30.2161  -18.9646    1.4388 O   0  0  0  0  0  0  0  0  0  0  0  0
  -31.6075  -19.2019    0.7184 P   0  0  0  0  0  0  0  0  0  0  0  0
  -31.6831  -18.3221   -0.4633 O   0  0  0  0  0  0  0  0  0  0  0  0
  -31.7825  -20.6277    0.3832 O   0  0  0  0  0  0  0  0  0  0  0  0
  -32.6379  -20.7539   -0.0563 H   0  0  0  0  0  0  0  0  0  0  0  0
  -32.7022  -18.7520    1.8186 O   0  0  0  0  0  0  0  0  0  0  0  0
  -33.1967  -19.5190    3.1384 P   0  0  0  0  0  0  0  0  0  0  0  0
  -32.9856  -20.9883    2.9358 O   0  0  0  0  0  0  0  0  0  0  0  0
  -32.3940  -18.9680    4.2817 O   0  0  0  0  0  0  0  0  0  0  0  0
  -34.6832  -19.2402    3.3724 O   0  0  0  0  0  0  0  0  0  0  0  0
  -32.6613  -19.4058    5.1050 H   0  0  0  0  0  0  0  0  0  0  0  0
  -34.9777  -19.7056    4.1709 H   0  0  0  0  0  0  0  0  0  0  0  0
 36 37  2  0  0  0
 36 38  1  0  0  0
 36 39  1  0  0  0
 36 35  1  0  0  0
 35 31  1  0  0  0
 31 32  2  0  0  0
 31 33  1  0  0  0
 31 30  1  0  0  0
 30 26  1  0  0  0
 26 27  2  0  0  0
 26 28  1  0  0  0
 26 25  1  0  0  0
 25 24  1  0  0  0
 24  1  1  0  0  0
  1  2  1  0  0  0
  1  3  1  0  0  0
  2  6  1  0  0  0
  3  4  1  0  0  0
  3  5  1  0  0  0
  5  6  1  0  0  0
  6  8  1  0  0  0
  8  9  1  0  0  0
  8 18  1  0  0  0
  9 10  1  0  0  0
  9 19  2  0  0  0
 10 11  1  0  0  0
 11 12  1  0  0  0
 11 18  2  0  0  0
 12 13  2  0  0  0
 12 14  1  0  0  0
 14 15  1  0  0  0
 15 16  1  0  0  0
 15 17  2  0  0  0
 17 18  1  0  0  0
 38 40  1  0  0  0
 39 41  1  0  0  0
 33 34  1  0  0  0
 28 29  1  0  0  0
  4  7  1  0  0  0
 10 20  1  0  0  0
 14 21  1  0  0  0
 16 22  1  0  0  0
 16 23  1  0  0  0
M  END
> <minimizedAffinity>
-8.86298

$$$$
1WUR_8DG_A_821


 41 43  0  0  0  0  0  0  0  0999 V2000
  -32.9985  -18.3256   -0.9889 C   0  0  0  0  0  0  0  0  0  0  0  0
  -32.3613  -17.9265    0.2613 O   0  0  0  0  0  0  0  0  0  0  0  0
  -32.2946  -19.6442   -1.3862 C   0  0  0  0  0  0  0  0  0  0  0  0
  -31.6965  -19.5118   -2.6707 O   0  0  0  0  0  0  0  0  0  0  0  0
  -31.2889  -19.8639   -0.2915 C   0  0  0  0  0  0  0  0  0  0  0  0
  -31.0642  -18.4601    0.1426 C   0  0  0  0  0  0  0  0  0  0  0  0
  -31.0773  -18.7652   -2.6636 H   0  0  0  0  0  0  0  0  0  0  0  0
  -30.3205  -18.3025    1.3956 N   0  0  0  0  0  0  0  0  0  0  0  0
  -29.2123  -17.5169    1.6493 C   0  0  0  0  0  0  0  0  0  0  0  0
  -28.8085  -17.5942    2.8963 N   0  0  0  0  0  0  0  0  0  0  0  0
  -29.7051  -18.4854    3.4901 C   0  0  0  0  0  0  0  0  0  0  0  0
  -29.8004  -18.9704    4.8273 C   0  0  0  0  0  0  0  0  0  0  0  0
  -29.1015  -18.7117    5.8085 O   0  0  0  0  0  0  0  0  0  0  0  0
  -30.8687  -19.8727    4.9821 N   0  0  0  0  0  0  0  0  0  0  0  0
  -31.7273  -20.2410    3.9619 C   0  0  0  0  0  0  0  0  0  0  0  0
  -32.6882  -21.1179    4.2905 N   0  0  0  0  0  0  0  0  0  0  0  0
  -31.6488  -19.7880    2.7325 N   0  0  0  0  0  0  0  0  0  0  0  0
  -30.6226  -18.9201    2.5633 C   0  0  0  0  0  0  0  0  0  0  0  0
  -28.7066  -16.8345    0.7500 O   0  0  0  0  0  0  0  0  0  0  0  0
  -28.0483  -17.1305    3.3162 H   0  0  0  0  0  0  0  0  0  0  0  0
  -31.0145  -20.2667    5.8725 H   0  0  0  0  0  0  0  0  0  0  0  0
  -32.7491  -21.4591    5.2120 H   0  0  0  0  0  0  0  0  0  0  0  0
  -33.3324  -21.4202    3.6101 H   0  0  0  0  0  0  0  0  0  0  0  0
  -34.4981  -18.4255   -0.8839 C   0  0  0  0  0  0  0  0  0  0  0  0
  -34.8292  -19.7827   -0.5535 O   0  0  0  0  0  0  0  0  0  0  0  0
  -35.4208  -20.2126    0.8592 P   0  0  0  0  0  0  0  0  0  0  0  0
  -36.6677  -21.0214    0.7178 O   0  0  0  0  0  0  0  0  0  0  0  0
  -34.3749  -20.7986    1.7421 O   0  0  0  0  0  0  0  0  0  0  0  0
  -34.7714  -21.0479    2.5915 H   0  0  0  0  0  0  0  0  0  0  0  0
  -35.8342  -18.7734    1.4667 O   0  0  0  0  0  0  0  0  0  0  0  0
  -35.4565  -17.9446    2.7635 P   0  0  0  0  0  0  0  0  0  0  0  0
  -36.2090  -18.4912    3.9086 O   0  0  0  0  0  0  0  0  0  0  0  0
  -33.9973  -17.9544    2.9796 O   0  0  0  0  0  0  0  0  0  0  0  0
  -33.7850  -17.4432    3.7762 H   0  0  0  0  0  0  0  0  0  0  0  0
  -35.9584  -16.4447    2.4321 O   0  0  0  0  0  0  0  0  0  0  0  0
  -35.0979  -15.1261    2.1232 P   0  0  0  0  0  0  0  0  0  0  0  0
  -35.9279  -14.2101    1.2769 O   0  0  0  0  0  0  0  0  0  0  0  0
  -34.7398  -14.5256    3.4522 O   0  0  0  0  0  0  0  0  0  0  0  0
  -33.8209  -15.5064    1.3701 O   0  0  0  0  0  0  0  0  0  0  0  0
  -34.2160  -13.7211    3.3129 H   0  0  0  0  0  0  0  0  0  0  0  0
  -33.3041  -14.7065    1.1855 H   0  0  0  0  0  0  0  0  0  0  0  0
 36 37  2  0  0  0
 36 38  1  0  0  0
 36 39  1  0  0  0
 36 35  1  0  0  0
 35 31  1  0  0  0
 31 32  2  0  0  0
 31 33  1  0  0  0
 31 30  1  0  0  0
 30 26  1  0  0  0
 26 27  2  0  0  0
 26 28  1  0  0  0
 26 25  1  0  0  0
 25 24  1  0  0  0
 24  1  1  0  0  0
  1  2  1  0  0  0
  1  3  1  0  0  0
  2  6  1  0  0  0
  3  4  1  0  0  0
  3  5  1  0  0  0
  5  6  1  0  0  0
  6  8  1  0  0  0
  8  9  1  0  0  0
  8 18  1  0  0  0
  9 10  1  0  0  0
  9 19  2  0  0  0
 10 11  1  0  0  0
 11 12  1  0  0  0
 11 18  2  0  0  0
 12 13  2  0  0  0
 12 14  1  0  0  0
 14 15  1  0  0  0
 15 16  1  0  0  0
 15 17  2  0  0  0
 17 18  1  0  0  0
 38 40  1  0  0  0
 39 41  1  0  0  0
 33 34  1  0  0  0
 28 29  1  0  0  0
  4  7  1  0  0  0
 10 20  1  0  0  0
 14 21  1  0  0  0
 16 22  1  0  0  0
 16 23  1  0  0  0
M  END
> <minimizedAffinity>
-8.84434

$$$$
1WUR_8DG_A_821


 41 43  0  0  0  0  0  0  0  0999 V2000
  -34.3109  -19.5803    1.4714 C   0  0  0  0  0  0  0  0  0  0  0  0
  -32.9645  -19.6986    2.0205 O   0  0  0  0  0  0  0  0  0  0  0  0
  -35.1212  -18.8518    2.5691 C   0  0  0  0  0  0  0  0  0  0  0  0
  -36.2267  -19.6516    2.9732 O   0  0  0  0  0  0  0  0  0  0  0  0
  -34.1240  -18.6311    3.6714 C   0  0  0  0  0  0  0  0  0  0  0  0
  -33.1903  -19.7575    3.4087 C   0  0  0  0  0  0  0  0  0  0  0  0
  -35.9067  -20.5145    3.2797 H   0  0  0  0  0  0  0  0  0  0  0  0
  -31.9236  -19.7068    4.1440 N   0  0  0  0  0  0  0  0  0  0  0  0
  -31.5894  -20.3277    5.3326 C   0  0  0  0  0  0  0  0  0  0  0  0
  -30.3532  -20.0857    5.7029 N   0  0  0  0  0  0  0  0  0  0  0  0
  -29.8526  -19.2556    4.6974 C   0  0  0  0  0  0  0  0  0  0  0  0
  -28.5685  -18.6614    4.5227 C   0  0  0  0  0  0  0  0  0  0  0  0
  -27.5629  -18.7417    5.2301 O   0  0  0  0  0  0  0  0  0  0  0  0
  -28.5070  -17.8821    3.3530 N   0  0  0  0  0  0  0  0  0  0  0  0
  -29.5628  -17.7162    2.4746 C   0  0  0  0  0  0  0  0  0  0  0  0
  -29.3252  -16.9327    1.4117 N   0  0  0  0  0  0  0  0  0  0  0  0
  -30.7428  -18.2705    2.6272 N   0  0  0  0  0  0  0  0  0  0  0  0
  -30.8222  -19.0223    3.7512 C   0  0  0  0  0  0  0  0  0  0  0  0
  -32.4163  -21.0268    5.9305 O   0  0  0  0  0  0  0  0  0  0  0  0
  -29.8864  -20.4141    6.5050 H   0  0  0  0  0  0  0  0  0  0  0  0
  -27.6592  -17.4261    3.1465 H   0  0  0  0  0  0  0  0  0  0  0  0
  -28.4410  -16.5159    1.2951 H   0  0  0  0  0  0  0  0  0  0  0  0
  -30.0352  -16.7747    0.7482 H   0  0  0  0  0  0  0  0  0  0  0  0
  -34.3437  -18.9097    0.1227 C   0  0  0  0  0  0  0  0  0  0  0  0
  -34.2754  -17.4911    0.3319 O   0  0  0  0  0  0  0  0  0  0  0  0
  -33.0654  -16.5953   -0.1814 P   0  0  0  0  0  0  0  0  0  0  0  0
  -33.5259  -15.5082   -1.0953 O   0  0  0  0  0  0  0  0  0  0  0  0
  -32.1853  -16.1600    0.9379 O   0  0  0  0  0  0  0  0  0  0  0  0
  -31.4612  -15.6177    0.5877 H   0  0  0  0  0  0  0  0  0  0  0  0
  -32.2463  -17.6694   -1.0682 O   0  0  0  0  0  0  0  0  0  0  0  0
  -32.2476  -18.1130   -2.5896 P   0  0  0  0  0  0  0  0  0  0  0  0
  -33.6455  -18.2173   -3.0494 O   0  0  0  0  0  0  0  0  0  0  0  0
  -31.4448  -17.1807   -3.4033 O   0  0  0  0  0  0  0  0  0  0  0  0
  -31.4570  -17.4674   -4.3299 H   0  0  0  0  0  0  0  0  0  0  0  0
  -31.5560  -19.5735   -2.5744 O   0  0  0  0  0  0  0  0  0  0  0  0
  -31.0639  -20.4561   -1.3281 P   0  0  0  0  0  0  0  0  0  0  0  0
  -32.1603  -21.4102   -0.9650 O   0  0  0  0  0  0  0  0  0  0  0  0
  -29.8071  -21.1527   -1.7645 O   0  0  0  0  0  0  0  0  0  0  0  0
  -30.7594  -19.5447   -0.1369 O   0  0  0  0  0  0  0  0  0  0  0  0
  -29.4723  -21.7010   -1.0377 H   0  0  0  0  0  0  0  0  0  0  0  0
  -30.4624  -20.0823    0.6139 H   0  0  0  0  0  0  0  0  0  0  0  0
 36 37  2  0  0  0
 36 38  1  0  0  0
 36 39  1  0  0  0
 36 35  1  0  0  0
 35 31  1  0  0  0
 31 32  2  0  0  0
 31 33  1  0  0  0
 31 30  1  0  0  0
 30 26  1  0  0  0
 26 27  2  0  0  0
 26 28  1  0  0  0
 26 25  1  0  0  0
 25 24  1  0  0  0
 24  1  1  0  0  0
  1  2  1  0  0  0
  1  3  1  0  0  0
  2  6  1  0  0  0
  3  4  1  0  0  0
  3  5  1  0  0  0
  5  6  1  0  0  0
  6  8  1  0  0  0
  8  9  1  0  0  0
  8 18  1  0  0  0
  9 10  1  0  0  0
  9 19  2  0  0  0
 10 11  1  0  0  0
 11 12  1  0  0  0
 11 18  2  0  0  0
 12 13  2  0  0  0
 12 14  1  0  0  0
 14 15  1  0  0  0
 15 16  1  0  0  0
 15 17  2  0  0  0
 17 18  1  0  0  0
 38 40  1  0  0  0
 39 41  1  0  0  0
 33 34  1  0  0  0
 28 29  1  0  0  0
  4  7  1  0  0  0
 10 20  1  0  0  0
 14 21  1  0  0  0
 16 22  1  0  0  0
 16 23  1  0  0  0
M  END
> <minimizedAffinity>
-8.79185

$$$$
1WUR_8DG_A_821


 41 43  0  0  0  0  0  0  0  0999 V2000
  -28.3902  -19.0357    6.1135 C   0  0  0  0  0  0  0  0  0  0  0  0
  -27.1279  -19.6797    6.4604 O   0  0  0  0  0  0  0  0  0  0  0  0
  -27.9845  -17.7987    5.2783 C   0  0  0  0  0  0  0  0  0  0  0  0
  -28.4760  -16.6121    5.8911 O   0  0  0  0  0  0  0  0  0  0  0  0
  -26.4835  -17.8607    5.2418 C   0  0  0  0  0  0  0  0  0  0  0  0
  -26.2218  -18.6034    6.5025 C   0  0  0  0  0  0  0  0  0  0  0  0
  -28.1407  -16.5545    6.7995 H   0  0  0  0  0  0  0  0  0  0  0  0
  -24.8485  -19.0862    6.6724 N   0  0  0  0  0  0  0  0  0  0  0  0
  -24.0252  -19.6934    5.7433 C   0  0  0  0  0  0  0  0  0  0  0  0
  -22.8387  -19.9813    6.2261 N   0  0  0  0  0  0  0  0  0  0  0  0
  -22.8925  -19.5379    7.5494 C   0  0  0  0  0  0  0  0  0  0  0  0
  -21.9157  -19.5593    8.5877 C   0  0  0  0  0  0  0  0  0  0  0  0
  -20.7577  -19.9797    8.5682 O   0  0  0  0  0  0  0  0  0  0  0  0
  -22.4098  -19.0057    9.7829 N   0  0  0  0  0  0  0  0  0  0  0  0
  -23.6873  -18.4964    9.9323 C   0  0  0  0  0  0  0  0  0  0  0  0
  -23.9885  -18.0120   11.1467 N   0  0  0  0  0  0  0  0  0  0  0  0
  -24.5852  -18.4654    8.9754 N   0  0  0  0  0  0  0  0  0  0  0  0
  -24.1283  -18.9983    7.8169 C   0  0  0  0  0  0  0  0  0  0  0  0
  -24.4275  -19.9099    4.5938 O   0  0  0  0  0  0  0  0  0  0  0  0
  -22.0842  -20.4109    5.7619 H   0  0  0  0  0  0  0  0  0  0  0  0
  -21.8086  -18.9791   10.5621 H   0  0  0  0  0  0  0  0  0  0  0  0
  -23.3166  -18.0341   11.8660 H   0  0  0  0  0  0  0  0  0  0  0  0
  -24.8813  -17.6344   11.3186 H   0  0  0  0  0  0  0  0  0  0  0  0
  -29.3587  -19.9626    5.4262 C   0  0  0  0  0  0  0  0  0  0  0  0
  -30.4820  -19.1835    4.9880 O   0  0  0  0  0  0  0  0  0  0  0  0
  -31.9123  -19.8132    4.6913 P   0  0  0  0  0  0  0  0  0  0  0  0
  -31.8329  -21.2833    4.4438 O   0  0  0  0  0  0  0  0  0  0  0  0
  -32.9239  -19.3876    5.6975 O   0  0  0  0  0  0  0  0  0  0  0  0
  -33.7806  -19.7898    5.4847 H   0  0  0  0  0  0  0  0  0  0  0  0
  -32.2751  -19.0970    3.2889 O   0  0  0  0  0  0  0  0  0  0  0  0
  -33.6020  -18.8444    2.4602 P   0  0  0  0  0  0  0  0  0  0  0  0
  -34.2905  -20.1347    2.2669 O   0  0  0  0  0  0  0  0  0  0  0  0
  -34.4483  -17.8379    3.1286 O   0  0  0  0  0  0  0  0  0  0  0  0
  -35.2545  -17.6963    2.6082 H   0  0  0  0  0  0  0  0  0  0  0  0
  -33.0778  -18.2749    1.0416 O   0  0  0  0  0  0  0  0  0  0  0  0
  -33.0646  -16.7685    0.4893 P   0  0  0  0  0  0  0  0  0  0  0  0
  -31.7000  -16.1947    0.7198 O   0  0  0  0  0  0  0  0  0  0  0  0
  -33.4271  -16.8413   -0.9662 O   0  0  0  0  0  0  0  0  0  0  0  0
  -34.1068  -15.9340    1.2376 O   0  0  0  0  0  0  0  0  0  0  0  0
  -33.4313  -15.9476   -1.3434 H   0  0  0  0  0  0  0  0  0  0  0  0
  -34.0952  -15.0245    0.9006 H   0  0  0  0  0  0  0  0  0  0  0  0
 36 37  2  0  0  0
 36 38  1  0  0  0
 36 39  1  0  0  0
 36 35  1  0  0  0
 35 31  1  0  0  0
 31 32  2  0  0  0
 31 33  1  0  0  0
 31 30  1  0  0  0
 30 26  1  0  0  0
 26 27  2  0  0  0
 26 28  1  0  0  0
 26 25  1  0  0  0
 25 24  1  0  0  0
 24  1  1  0  0  0
  1  2  1  0  0  0
  1  3  1  0  0  0
  2  6  1  0  0  0
  3  4  1  0  0  0
  3  5  1  0  0  0
  5  6  1  0  0  0
  6  8  1  0  0  0
  8  9  1  0  0  0
  8 18  1  0  0  0
  9 10  1  0  0  0
  9 19  2  0  0  0
 10 11  1  0  0  0
 11 12  1  0  0  0
 11 18  2  0  0  0
 12 13  2  0  0  0
 12 14  1  0  0  0
 14 15  1  0  0  0
 15 16  1  0  0  0
 15 17  2  0  0  0
 17 18  1  0  0  0
 38 40  1  0  0  0
 39 41  1  0  0  0
 33 34  1  0  0  0
 28 29  1  0  0  0
  4  7  1  0  0  0
 10 20  1  0  0  0
 14 21  1  0  0  0
 16 22  1  0  0  0
 16 23  1  0  0  0
M  END
> <minimizedAffinity>
-8.64743

$$$$
1WUR_8DG_A_821


 41 43  0  0  0  0  0  0  0  0999 V2000
  -34.0308  -20.6311    1.5513 C   0  0  0  0  0  0  0  0  0  0  0  0
  -32.7424  -20.6846    2.2336 O   0  0  0  0  0  0  0  0  0  0  0  0
  -34.6796  -19.3141    2.0378 C   0  0  0  0  0  0  0  0  0  0  0  0
  -35.9302  -19.5855    2.6603 O   0  0  0  0  0  0  0  0  0  0  0  0
  -33.6661  -18.7377    2.9858 C   0  0  0  0  0  0  0  0  0  0  0  0
  -32.9854  -19.9826    3.4292 C   0  0  0  0  0  0  0  0  0  0  0  0
  -35.7988  -20.2094    3.3913 H   0  0  0  0  0  0  0  0  0  0  0  0
  -31.7411  -19.7845    4.1778 N   0  0  0  0  0  0  0  0  0  0  0  0
  -31.3872  -20.2900    5.4143 C   0  0  0  0  0  0  0  0  0  0  0  0
  -30.1797  -19.9308    5.7842 N   0  0  0  0  0  0  0  0  0  0  0  0
  -29.7202  -19.1419    4.7272 C   0  0  0  0  0  0  0  0  0  0  0  0
  -28.4793  -18.4688    4.5280 C   0  0  0  0  0  0  0  0  0  0  0  0
  -27.4853  -18.4223    5.2546 O   0  0  0  0  0  0  0  0  0  0  0  0
  -28.4505  -17.7750    3.3044 N   0  0  0  0  0  0  0  0  0  0  0  0
  -29.4973  -17.7526    2.4003 C   0  0  0  0  0  0  0  0  0  0  0  0
  -29.2954  -17.0339    1.2854 N   0  0  0  0  0  0  0  0  0  0  0  0
  -30.6368  -18.3800    2.5759 N   0  0  0  0  0  0  0  0  0  0  0  0
  -30.6844  -19.0510    3.7516 C   0  0  0  0  0  0  0  0  0  0  0  0
  -32.1733  -21.0026    6.0502 O   0  0  0  0  0  0  0  0  0  0  0  0
  -29.7068  -20.1639    6.6156 H   0  0  0  0  0  0  0  0  0  0  0  0
  -27.6340  -17.2740    3.0773 H   0  0  0  0  0  0  0  0  0  0  0  0
  -28.4416  -16.5625    1.1515 H   0  0  0  0  0  0  0  0  0  0  0  0
  -30.0012  -16.9779    0.6013 H   0  0  0  0  0  0  0  0  0  0  0  0
  -33.9138  -20.7536    0.0543 C   0  0  0  0  0  0  0  0  0  0  0  0
  -32.5275  -20.9417   -0.2674 O   0  0  0  0  0  0  0  0  0  0  0  0
  -31.7428  -20.0190   -1.2985 P   0  0  0  0  0  0  0  0  0  0  0  0
  -30.3422  -20.4896   -1.5127 O   0  0  0  0  0  0  0  0  0  0  0  0
  -32.5328  -19.7773   -2.5372 O   0  0  0  0  0  0  0  0  0  0  0  0
  -32.0241  -19.2128   -3.1401 H   0  0  0  0  0  0  0  0  0  0  0  0
  -31.6748  -18.6309   -0.4742 O   0  0  0  0  0  0  0  0  0  0  0  0
  -32.3957  -17.2231   -0.5720 P   0  0  0  0  0  0  0  0  0  0  0  0
  -33.8193  -17.4431   -0.8905 O   0  0  0  0  0  0  0  0  0  0  0  0
  -32.1991  -16.4513    0.6697 O   0  0  0  0  0  0  0  0  0  0  0  0
  -32.6464  -15.5941    0.5918 H   0  0  0  0  0  0  0  0  0  0  0  0
  -31.6563  -16.4870   -1.8060 O   0  0  0  0  0  0  0  0  0  0  0  0
  -32.2502  -16.0297   -3.2247 P   0  0  0  0  0  0  0  0  0  0  0  0
  -31.1533  -15.3704   -4.0036 O   0  0  0  0  0  0  0  0  0  0  0  0
  -32.7733  -17.2694   -3.8913 O   0  0  0  0  0  0  0  0  0  0  0  0
  -33.3965  -15.0385   -3.0104 O   0  0  0  0  0  0  0  0  0  0  0  0
  -33.1441  -17.0389   -4.7575 H   0  0  0  0  0  0  0  0  0  0  0  0
  -33.7523  -14.7649   -3.8703 H   0  0  0  0  0  0  0  0  0  0  0  0
 36 37  2  0  0  0
 36 38  1  0  0  0
 36 39  1  0  0  0
 36 35  1  0  0  0
 35 31  1  0  0  0
 31 32  2  0  0  0
 31 33  1  0  0  0
 31 30  1  0  0  0
 30 26  1  0  0  0
 26 27  2  0  0  0
 26 28  1  0  0  0
 26 25  1  0  0  0
 25 24  1  0  0  0
 24  1  1  0  0  0
  1  2  1  0  0  0
  1  3  1  0  0  0
  2  6  1  0  0  0
  3  4  1  0  0  0
  3  5  1  0  0  0
  5  6  1  0  0  0
  6  8  1  0  0  0
  8  9  1  0  0  0
  8 18  1  0  0  0
  9 10  1  0  0  0
  9 19  2  0  0  0
 10 11  1  0  0  0
 11 12  1  0  0  0
 11 18  2  0  0  0
 12 13  2  0  0  0
 12 14  1  0  0  0
 14 15  1  0  0  0
 15 16  1  0  0  0
 15 17  2  0  0  0
 17 18  1  0  0  0
 38 40  1  0  0  0
 39 41  1  0  0  0
 33 34  1  0  0  0
 28 29  1  0  0  0
  4  7  1  0  0  0
 10 20  1  0  0  0
 14 21  1  0  0  0
 16 22  1  0  0  0
 16 23  1  0  0  0
M  END
> <minimizedAffinity>
-8.62331

$$$$
