4W9L_3JJ_C_301


 45 47  0  0  0  0  0  0  0  0999 V2000
   11.8935   53.9465   91.6250 C   0  0  0  0  0  0  0  0  0  0  0  0
   10.7190   53.7543   91.3761 O   0  0  0  0  0  0  0  0  0  0  0  0
   12.8020   54.2624   90.6686 N   0  0  0  0  0  0  0  0  0  0  0  0
   14.2396   54.5858   90.7789 C   0  0  0  0  0  0  0  0  0  0  0  0
   14.5780   55.3372   89.4847 C   0  0  0  0  0  0  0  0  0  0  0  0
   14.3260   56.7421   89.6396 O   0  0  0  0  0  0  0  0  0  0  0  0
   13.6525   54.8458   88.4673 C   0  0  0  0  0  0  0  0  0  0  0  0
   12.3856   54.4147   89.2390 C   0  0  0  0  0  0  0  0  0  0  0  0
   13.3939   56.8799   89.8702 H   0  0  0  0  0  0  0  0  0  0  0  0
   11.8749   53.2201   88.7004 C   0  0  0  0  0  0  0  0  0  0  0  0
   12.3425   52.1469   89.0534 O   0  0  0  0  0  0  0  0  0  0  0  0
   10.8958   53.3133   87.7576 N   0  0  0  0  0  0  0  0  0  0  0  0
   10.5363   54.1979   87.5178 H   0  0  0  0  0  0  0  0  0  0  0  0
   10.3667   52.1102   87.0912 C   0  0  0  0  0  0  0  0  0  0  0  0
   11.1115   51.8600   85.8953 C   0  0  0  0  0  0  0  0  0  0  0  0
   11.5823   50.5915   85.5041 C   0  0  0  0  0  0  0  0  0  0  0  0
   12.2893   50.4203   84.2914 C   0  0  0  0  0  0  0  0  0  0  0  0
   11.3913   52.9384   85.0463 C   0  0  0  0  0  0  0  0  0  0  0  0
   12.1052   52.7690   83.8456 C   0  0  0  0  0  0  0  0  0  0  0  0
   12.5733   51.4967   83.4503 C   0  0  0  0  0  0  0  0  0  0  0  0
   13.2608   51.3037   82.2996 C   0  0  0  0  0  0  0  0  0  0  0  0
   12.7606   50.3004   80.9631 S   0  0  0  0  0  0  0  0  0  0  0  0
   14.0650   50.6252   80.0282 C   0  0  0  0  0  0  0  0  0  0  0  0
   14.8643   51.4603   80.6931 N   0  0  0  0  0  0  0  0  0  0  0  0
   14.4371   51.8301   81.9294 C   0  0  0  0  0  0  0  0  0  0  0  0
   15.2975   52.7958   82.7743 C   0  0  0  0  0  0  0  0  0  0  0  0
   12.3916   53.7952   93.0617 C   0  0  0  0  0  0  0  0  0  0  0  0
   11.5764   55.4141   94.6954 C   0  0  0  0  0  0  0  0  0  0  0  0
   12.5671   56.1278   94.5914 O   0  0  0  0  0  0  0  0  0  0  0  0
   11.4090   54.3000   94.0011 N   0  0  0  0  0  0  0  0  0  0  0  0
   10.5771   53.7891   94.1286 H   0  0  0  0  0  0  0  0  0  0  0  0
   10.5176   55.6125   95.8154 C   0  0  0  0  0  0  0  0  0  0  0  0
   11.1538   53.4680   97.6954 C   0  0  0  0  0  0  0  0  0  0  0  0
   11.6475   54.9037   97.9419 C   0  0  0  0  0  0  0  0  0  0  0  0
   12.3142   55.1497   98.9487 O   0  0  0  0  0  0  0  0  0  0  0  0
   11.2869   55.8625   97.0601 N   0  0  0  0  0  0  0  0  0  0  0  0
   11.5526   56.7898   97.2568 H   0  0  0  0  0  0  0  0  0  0  0  0
    9.4591   56.6939   95.5913 C   0  0  0  0  0  0  0  0  0  0  0  0
   10.0668   57.9957   95.0774 C   0  0  0  0  0  0  0  0  0  0  0  0
    8.7729   56.9729   96.9427 C   0  0  0  0  0  0  0  0  0  0  0  0
    8.3901   56.1629   94.6311 C   0  0  0  0  0  0  0  0  0  0  0  0
   12.6712   52.3296   93.5015 C   0  0  0  0  0  0  0  0  0  0  0  0
   13.3238   51.5119   92.3661 C   0  0  0  0  0  0  0  0  0  0  0  0
   11.3712   51.5981   93.9607 C   0  0  0  0  0  0  0  0  0  0  0  0
   13.6555   52.3547   94.7014 C   0  0  0  0  0  0  0  0  0  0  0  0
 24 23  2  0  0  0
 24 25  1  0  0  0
 23 22  1  0  0  0
 26 25  1  0  0  0
 25 21  2  0  0  0
 22 21  1  0  0  0
 21 20  1  0  0  0
 20 19  2  0  0  0
 20 17  1  0  0  0
 19 18  1  0  0  0
 17 16  2  0  0  0
 18 15  2  0  0  0
 16 15  1  0  0  0
 15 14  1  0  0  0
 14 12  1  0  0  0
 12 10  1  0  0  0
  7  8  1  0  0  0
  7  5  1  0  0  0
 10 11  2  0  0  0
 10  8  1  0  0  0
  8  3  1  0  0  0
  5  6  1  0  0  0
  5  4  1  0  0  0
  3  4  1  0  0  0
  3  1  1  0  0  0
  2  1  2  0  0  0
  1 27  1  0  0  0
 43 42  1  0  0  0
 27 42  1  0  0  0
 27 30  1  0  0  0
 42 44  1  0  0  0
 42 45  1  0  0  0
 30 28  1  0  0  0
 41 38  1  0  0  0
 29 28  2  0  0  0
 28 32  1  0  0  0
 39 38  1  0  0  0
 38 32  1  0  0  0
 38 40  1  0  0  0
 32 36  1  0  0  0
 36 34  1  0  0  0
 33 34  1  0  0  0
 34 35  2  0  0  0
 36 37  1  0  0  0
 30 31  1  0  0  0
  6  9  1  0  0  0
 12 13  1  0  0  0
M  END
> <minimizedAffinity>
-9.22868

$$$$
4W9L_3JJ_C_301


 45 47  0  0  0  0  0  0  0  0999 V2000
   11.8351   54.1274   91.5317 C   0  0  0  0  0  0  0  0  0  0  0  0
   10.6733   53.9376   91.2276 O   0  0  0  0  0  0  0  0  0  0  0  0
   12.7992   54.3854   90.6131 N   0  0  0  0  0  0  0  0  0  0  0  0
   14.2332   54.6963   90.7873 C   0  0  0  0  0  0  0  0  0  0  0  0
   14.6531   55.3798   89.4794 C   0  0  0  0  0  0  0  0  0  0  0  0
   14.4137   56.7934   89.5527 O   0  0  0  0  0  0  0  0  0  0  0  0
   13.7775   54.8507   88.4370 C   0  0  0  0  0  0  0  0  0  0  0  0
   12.4640   54.4730   89.1569 C   0  0  0  0  0  0  0  0  0  0  0  0
   13.4726   56.9536   89.7244 H   0  0  0  0  0  0  0  0  0  0  0  0
   11.9659   53.2600   88.6486 C   0  0  0  0  0  0  0  0  0  0  0  0
   12.3865   52.1996   89.0888 O   0  0  0  0  0  0  0  0  0  0  0  0
   11.0544   53.3188   87.6377 N   0  0  0  0  0  0  0  0  0  0  0  0
   10.7303   54.1951   87.3277 H   0  0  0  0  0  0  0  0  0  0  0  0
   10.5464   52.0907   87.0014 C   0  0  0  0  0  0  0  0  0  0  0  0
   11.2789   51.8379   85.7984 C   0  0  0  0  0  0  0  0  0  0  0  0
   11.6085   50.5530   85.3248 C   0  0  0  0  0  0  0  0  0  0  0  0
   12.3129   50.3840   84.1103 C   0  0  0  0  0  0  0  0  0  0  0  0
   11.6953   52.9318   85.0291 C   0  0  0  0  0  0  0  0  0  0  0  0
   12.4065   52.7630   83.8267 C   0  0  0  0  0  0  0  0  0  0  0  0
   12.7331   51.4750   83.3488 C   0  0  0  0  0  0  0  0  0  0  0  0
   13.4144   51.2824   82.1943 C   0  0  0  0  0  0  0  0  0  0  0  0
   12.9024   50.2877   80.8560 S   0  0  0  0  0  0  0  0  0  0  0  0
   14.2047   50.6082   79.9169 C   0  0  0  0  0  0  0  0  0  0  0  0
   15.0120   51.4357   80.5816 N   0  0  0  0  0  0  0  0  0  0  0  0
   14.5924   51.8031   81.8212 C   0  0  0  0  0  0  0  0  0  0  0  0
   15.4622   52.7602   82.6662 C   0  0  0  0  0  0  0  0  0  0  0  0
   12.2514   54.0400   92.9994 C   0  0  0  0  0  0  0  0  0  0  0  0
   11.2261   55.6678   94.5004 C   0  0  0  0  0  0  0  0  0  0  0  0
   12.1587   56.4566   94.4005 O   0  0  0  0  0  0  0  0  0  0  0  0
   11.1855   54.5084   93.8637 N   0  0  0  0  0  0  0  0  0  0  0  0
   10.3932   53.9362   93.9826 H   0  0  0  0  0  0  0  0  0  0  0  0
   10.1007   55.8346   95.5589 C   0  0  0  0  0  0  0  0  0  0  0  0
    8.0334   57.8873   95.3321 C   0  0  0  0  0  0  0  0  0  0  0  0
    7.8562   56.5136   94.6631 C   0  0  0  0  0  0  0  0  0  0  0  0
    6.8258   56.2777   94.0296 O   0  0  0  0  0  0  0  0  0  0  0  0
    8.8267   55.5892   94.8374 N   0  0  0  0  0  0  0  0  0  0  0  0
    8.6787   54.6920   94.4601 H   0  0  0  0  0  0  0  0  0  0  0  0
   10.1972   54.9760   96.8212 C   0  0  0  0  0  0  0  0  0  0  0  0
   11.6433   54.6686   97.1984 C   0  0  0  0  0  0  0  0  0  0  0  0
    9.4687   53.6459   96.5468 C   0  0  0  0  0  0  0  0  0  0  0  0
    9.4615   55.6780   97.9669 C   0  0  0  0  0  0  0  0  0  0  0  0
   12.5868   52.6042   93.4952 C   0  0  0  0  0  0  0  0  0  0  0  0
   13.5064   52.6332   94.7349 C   0  0  0  0  0  0  0  0  0  0  0  0
   13.2710   51.7466   92.3851 C   0  0  0  0  0  0  0  0  0  0  0  0
   11.2630   51.9000   93.8964 C   0  0  0  0  0  0  0  0  0  0  0  0
 24 23  2  0  0  0
 24 25  1  0  0  0
 23 22  1  0  0  0
 26 25  1  0  0  0
 25 21  2  0  0  0
 22 21  1  0  0  0
 21 20  1  0  0  0
 20 19  2  0  0  0
 20 17  1  0  0  0
 19 18  1  0  0  0
 17 16  2  0  0  0
 18 15  2  0  0  0
 16 15  1  0  0  0
 15 14  1  0  0  0
 14 12  1  0  0  0
 12 10  1  0  0  0
  7  8  1  0  0  0
  7  5  1  0  0  0
 10 11  2  0  0  0
 10  8  1  0  0  0
  8  3  1  0  0  0
  5  6  1  0  0  0
  5  4  1  0  0  0
  3  4  1  0  0  0
  3  1  1  0  0  0
  2  1  2  0  0  0
  1 27  1  0  0  0
 43 42  1  0  0  0
 27 42  1  0  0  0
 27 30  1  0  0  0
 42 44  1  0  0  0
 42 45  1  0  0  0
 30 28  1  0  0  0
 41 38  1  0  0  0
 29 28  2  0  0  0
 28 32  1  0  0  0
 39 38  1  0  0  0
 38 32  1  0  0  0
 38 40  1  0  0  0
 32 36  1  0  0  0
 36 34  1  0  0  0
 33 34  1  0  0  0
 34 35  2  0  0  0
 36 37  1  0  0  0
 30 31  1  0  0  0
  6  9  1  0  0  0
 12 13  1  0  0  0
M  END
> <minimizedAffinity>
-8.87953

$$$$
4W9L_3JJ_C_301


 45 47  0  0  0  0  0  0  0  0999 V2000
   11.7169   51.0243   89.6117 C   0  0  0  0  0  0  0  0  0  0  0  0
   12.1459   50.5922   88.5592 O   0  0  0  0  0  0  0  0  0  0  0  0
   11.0496   52.2017   89.7017 N   0  0  0  0  0  0  0  0  0  0  0  0
   10.4105   52.8572   90.8615 C   0  0  0  0  0  0  0  0  0  0  0  0
    9.4114   53.8513   90.2551 C   0  0  0  0  0  0  0  0  0  0  0  0
    8.1490   53.2109   90.0154 O   0  0  0  0  0  0  0  0  0  0  0  0
    9.9501   54.2365   88.9533 C   0  0  0  0  0  0  0  0  0  0  0  0
   10.7859   53.0264   88.4807 C   0  0  0  0  0  0  0  0  0  0  0  0
    8.2765   52.4595   89.4153 H   0  0  0  0  0  0  0  0  0  0  0  0
   11.9718   53.4683   87.8672 C   0  0  0  0  0  0  0  0  0  0  0  0
   12.9370   53.7656   88.5564 O   0  0  0  0  0  0  0  0  0  0  0  0
   11.9795   53.5926   86.5105 N   0  0  0  0  0  0  0  0  0  0  0  0
   11.1854   53.3235   85.9945 H   0  0  0  0  0  0  0  0  0  0  0  0
   13.1583   54.1238   85.8036 C   0  0  0  0  0  0  0  0  0  0  0  0
   13.3585   53.3910   84.5911 C   0  0  0  0  0  0  0  0  0  0  0  0
   14.5457   53.4186   83.8336 C   0  0  0  0  0  0  0  0  0  0  0  0
   14.6766   52.6436   82.6580 C   0  0  0  0  0  0  0  0  0  0  0  0
   12.3151   52.5842   84.1197 C   0  0  0  0  0  0  0  0  0  0  0  0
   12.4421   51.8225   82.9434 C   0  0  0  0  0  0  0  0  0  0  0  0
   13.6337   51.8460   82.1860 C   0  0  0  0  0  0  0  0  0  0  0  0
   13.7849   51.1218   81.0517 C   0  0  0  0  0  0  0  0  0  0  0  0
   12.7533   49.8183   80.5228 S   0  0  0  0  0  0  0  0  0  0  0  0
   13.5706   49.5268   79.1343 C   0  0  0  0  0  0  0  0  0  0  0  0
   14.5958   50.3765   79.0608 N   0  0  0  0  0  0  0  0  0  0  0  0
   14.7221   51.2431   80.1003 C   0  0  0  0  0  0  0  0  0  0  0  0
   15.8802   52.2654   80.1021 C   0  0  0  0  0  0  0  0  0  0  0  0
   11.9611   50.2408   90.9008 C   0  0  0  0  0  0  0  0  0  0  0  0
   13.3598   51.4718   92.4763 C   0  0  0  0  0  0  0  0  0  0  0  0
   14.4039   51.0603   91.9839 O   0  0  0  0  0  0  0  0  0  0  0  0
   12.1627   51.1422   92.0186 N   0  0  0  0  0  0  0  0  0  0  0  0
   11.3706   51.5277   92.4582 H   0  0  0  0  0  0  0  0  0  0  0  0
   13.3185   52.2372   93.8280 C   0  0  0  0  0  0  0  0  0  0  0  0
   13.2120   55.1548   93.7047 C   0  0  0  0  0  0  0  0  0  0  0  0
   11.9205   54.3201   93.7358 C   0  0  0  0  0  0  0  0  0  0  0  0
   10.8295   54.8928   93.7141 O   0  0  0  0  0  0  0  0  0  0  0  0
   12.0313   52.9767   93.8354 N   0  0  0  0  0  0  0  0  0  0  0  0
   11.2019   52.4530   93.9184 H   0  0  0  0  0  0  0  0  0  0  0  0
   13.4902   51.4106   95.1036 C   0  0  0  0  0  0  0  0  0  0  0  0
   13.4385   49.9107   94.8281 C   0  0  0  0  0  0  0  0  0  0  0  0
   12.3391   51.7730   96.0620 C   0  0  0  0  0  0  0  0  0  0  0  0
   14.8029   51.8047   95.7880 C   0  0  0  0  0  0  0  0  0  0  0  0
   10.7910   49.3082   91.3258 C   0  0  0  0  0  0  0  0  0  0  0  0
   11.2721   47.8570   91.5405 C   0  0  0  0  0  0  0  0  0  0  0  0
    9.6365   49.3018   90.2755 C   0  0  0  0  0  0  0  0  0  0  0  0
   10.2123   49.8255   92.6700 C   0  0  0  0  0  0  0  0  0  0  0  0
 24 23  2  0  0  0
 24 25  1  0  0  0
 23 22  1  0  0  0
 26 25  1  0  0  0
 25 21  2  0  0  0
 22 21  1  0  0  0
 21 20  1  0  0  0
 20 19  2  0  0  0
 20 17  1  0  0  0
 19 18  1  0  0  0
 17 16  2  0  0  0
 18 15  2  0  0  0
 16 15  1  0  0  0
 15 14  1  0  0  0
 14 12  1  0  0  0
 12 10  1  0  0  0
  7  8  1  0  0  0
  7  5  1  0  0  0
 10 11  2  0  0  0
 10  8  1  0  0  0
  8  3  1  0  0  0
  5  6  1  0  0  0
  5  4  1  0  0  0
  3  4  1  0  0  0
  3  1  1  0  0  0
  2  1  2  0  0  0
  1 27  1  0  0  0
 43 42  1  0  0  0
 27 42  1  0  0  0
 27 30  1  0  0  0
 42 44  1  0  0  0
 42 45  1  0  0  0
 30 28  1  0  0  0
 41 38  1  0  0  0
 29 28  2  0  0  0
 28 32  1  0  0  0
 39 38  1  0  0  0
 38 32  1  0  0  0
 38 40  1  0  0  0
 32 36  1  0  0  0
 36 34  1  0  0  0
 33 34  1  0  0  0
 34 35  2  0  0  0
 36 37  1  0  0  0
 30 31  1  0  0  0
  6  9  1  0  0  0
 12 13  1  0  0  0
M  END
> <minimizedAffinity>
-6.97933

$$$$
4W9L_3JJ_C_301


 45 47  0  0  0  0  0  0  0  0999 V2000
    9.6816   53.2433   90.6898 C   0  0  0  0  0  0  0  0  0  0  0  0
    9.6477   54.2296   89.9796 O   0  0  0  0  0  0  0  0  0  0  0  0
   10.4178   52.1460   90.3834 N   0  0  0  0  0  0  0  0  0  0  0  0
   10.6315   50.8922   91.1356 C   0  0  0  0  0  0  0  0  0  0  0  0
   11.9184   50.2938   90.5524 C   0  0  0  0  0  0  0  0  0  0  0  0
   13.0685   50.8135   91.2369 O   0  0  0  0  0  0  0  0  0  0  0  0
   11.9988   50.7550   89.1690 C   0  0  0  0  0  0  0  0  0  0  0  0
   11.2564   52.1095   89.1442 C   0  0  0  0  0  0  0  0  0  0  0  0
   13.0841   51.7799   91.1550 H   0  0  0  0  0  0  0  0  0  0  0  0
   10.4853   52.2165   87.9729 C   0  0  0  0  0  0  0  0  0  0  0  0
    9.6429   51.3666   87.7216 O   0  0  0  0  0  0  0  0  0  0  0  0
   10.7462   53.2551   87.1306 N   0  0  0  0  0  0  0  0  0  0  0  0
   11.4207   53.9262   87.3830 H   0  0  0  0  0  0  0  0  0  0  0  0
   10.0341   53.3890   85.8475 C   0  0  0  0  0  0  0  0  0  0  0  0
   10.8738   52.9275   84.7848 C   0  0  0  0  0  0  0  0  0  0  0  0
   10.4158   52.1959   83.6717 C   0  0  0  0  0  0  0  0  0  0  0  0
   11.3053   51.7980   82.6468 C   0  0  0  0  0  0  0  0  0  0  0  0
   12.2420   53.2223   84.8403 C   0  0  0  0  0  0  0  0  0  0  0  0
   13.1283   52.8156   83.8258 C   0  0  0  0  0  0  0  0  0  0  0  0
   12.6691   52.0863   82.7072 C   0  0  0  0  0  0  0  0  0  0  0  0
   13.4985   51.6840   81.7151 C   0  0  0  0  0  0  0  0  0  0  0  0
   13.0359   50.7830   80.2949 S   0  0  0  0  0  0  0  0  0  0  0  0
   14.5373   50.7383   79.6432 C   0  0  0  0  0  0  0  0  0  0  0  0
   15.3733   51.3759   80.4634 N   0  0  0  0  0  0  0  0  0  0  0  0
   14.8181   51.8885   81.5933 C   0  0  0  0  0  0  0  0  0  0  0  0
   15.7093   52.6447   82.6034 C   0  0  0  0  0  0  0  0  0  0  0  0
    8.8395   53.2059   91.9644 C   0  0  0  0  0  0  0  0  0  0  0  0
    9.5486   54.4813   93.9200 C   0  0  0  0  0  0  0  0  0  0  0  0
    9.9953   53.4943   94.4928 O   0  0  0  0  0  0  0  0  0  0  0  0
    8.9957   54.4345   92.7186 N   0  0  0  0  0  0  0  0  0  0  0  0
    8.6748   55.2744   92.3175 H   0  0  0  0  0  0  0  0  0  0  0  0
    9.3727   55.8517   94.6313 C   0  0  0  0  0  0  0  0  0  0  0  0
    6.6595   56.9363   94.6048 C   0  0  0  0  0  0  0  0  0  0  0  0
    7.1419   56.0494   95.7652 C   0  0  0  0  0  0  0  0  0  0  0  0
    6.3737   55.8004   96.6961 O   0  0  0  0  0  0  0  0  0  0  0  0
    8.4203   55.6109   95.7442 N   0  0  0  0  0  0  0  0  0  0  0  0
    8.7416   55.0968   96.5199 H   0  0  0  0  0  0  0  0  0  0  0  0
   10.6410   56.5480   95.1279 C   0  0  0  0  0  0  0  0  0  0  0  0
   11.8419   56.2637   94.2306 C   0  0  0  0  0  0  0  0  0  0  0  0
   10.9495   56.0191   96.5421 C   0  0  0  0  0  0  0  0  0  0  0  0
   10.3784   58.0528   95.2442 C   0  0  0  0  0  0  0  0  0  0  0  0
    7.3094   53.0560   91.7279 C   0  0  0  0  0  0  0  0  0  0  0  0
    7.0103   52.2598   90.4396 C   0  0  0  0  0  0  0  0  0  0  0  0
    6.5927   54.4396   91.6381 C   0  0  0  0  0  0  0  0  0  0  0  0
    6.7000   52.2781   92.9249 C   0  0  0  0  0  0  0  0  0  0  0  0
 24 23  2  0  0  0
 24 25  1  0  0  0
 23 22  1  0  0  0
 26 25  1  0  0  0
 25 21  2  0  0  0
 22 21  1  0  0  0
 21 20  1  0  0  0
 20 19  2  0  0  0
 20 17  1  0  0  0
 19 18  1  0  0  0
 17 16  2  0  0  0
 18 15  2  0  0  0
 16 15  1  0  0  0
 15 14  1  0  0  0
 14 12  1  0  0  0
 12 10  1  0  0  0
  7  8  1  0  0  0
  7  5  1  0  0  0
 10 11  2  0  0  0
 10  8  1  0  0  0
  8  3  1  0  0  0
  5  6  1  0  0  0
  5  4  1  0  0  0
  3  4  1  0  0  0
  3  1  1  0  0  0
  2  1  2  0  0  0
  1 27  1  0  0  0
 43 42  1  0  0  0
 27 42  1  0  0  0
 27 30  1  0  0  0
 42 44  1  0  0  0
 42 45  1  0  0  0
 30 28  1  0  0  0
 41 38  1  0  0  0
 29 28  2  0  0  0
 28 32  1  0  0  0
 39 38  1  0  0  0
 38 32  1  0  0  0
 38 40  1  0  0  0
 32 36  1  0  0  0
 36 34  1  0  0  0
 33 34  1  0  0  0
 34 35  2  0  0  0
 36 37  1  0  0  0
 30 31  1  0  0  0
  6  9  1  0  0  0
 12 13  1  0  0  0
M  END
> <minimizedAffinity>
-6.77899

$$$$
4W9L_3JJ_C_301


 45 47  0  0  0  0  0  0  0  0999 V2000
    9.6560   51.8460   87.0074 C   0  0  0  0  0  0  0  0  0  0  0  0
   10.0839   50.7608   87.3504 O   0  0  0  0  0  0  0  0  0  0  0  0
    8.3652   52.0404   86.6389 N   0  0  0  0  0  0  0  0  0  0  0  0
    7.6523   53.2757   86.2526 C   0  0  0  0  0  0  0  0  0  0  0  0
    6.1654   52.9558   86.4549 C   0  0  0  0  0  0  0  0  0  0  0  0
    5.7705   53.2386   87.8058 O   0  0  0  0  0  0  0  0  0  0  0  0
    6.0222   51.5155   86.2594 C   0  0  0  0  0  0  0  0  0  0  0  0
    7.3850   50.9094   86.6612 C   0  0  0  0  0  0  0  0  0  0  0  0
    6.3099   52.7130   88.4171 H   0  0  0  0  0  0  0  0  0  0  0  0
    7.7368   49.8789   85.7710 C   0  0  0  0  0  0  0  0  0  0  0  0
    7.5773   48.7122   86.1001 O   0  0  0  0  0  0  0  0  0  0  0  0
    8.2932   50.2296   84.5778 N   0  0  0  0  0  0  0  0  0  0  0  0
    8.3852   51.1823   84.3472 H   0  0  0  0  0  0  0  0  0  0  0  0
    8.7592   49.2047   83.6271 C   0  0  0  0  0  0  0  0  0  0  0  0
    9.9885   49.6299   83.0310 C   0  0  0  0  0  0  0  0  0  0  0  0
   11.2026   48.9220   83.1244 C   0  0  0  0  0  0  0  0  0  0  0  0
   12.3712   49.3945   82.4832 C   0  0  0  0  0  0  0  0  0  0  0  0
    9.9962   50.8236   82.2982 C   0  0  0  0  0  0  0  0  0  0  0  0
   11.1624   51.2990   81.6704 C   0  0  0  0  0  0  0  0  0  0  0  0
   12.3788   50.5873   81.7596 C   0  0  0  0  0  0  0  0  0  0  0  0
   13.5158   51.0196   81.1641 C   0  0  0  0  0  0  0  0  0  0  0  0
   14.0975   50.5352   79.5925 S   0  0  0  0  0  0  0  0  0  0  0  0
   15.4319   51.4835   79.6216 C   0  0  0  0  0  0  0  0  0  0  0  0
   15.4535   52.1477   80.7777 N   0  0  0  0  0  0  0  0  0  0  0  0
   14.4189   51.8981   81.6232 C   0  0  0  0  0  0  0  0  0  0  0  0
   14.3587   52.6222   82.9865 C   0  0  0  0  0  0  0  0  0  0  0  0
   10.6041   53.0430   86.9485 C   0  0  0  0  0  0  0  0  0  0  0  0
   11.1908   53.7570   89.2068 C   0  0  0  0  0  0  0  0  0  0  0  0
   10.1669   54.4165   89.3431 O   0  0  0  0  0  0  0  0  0  0  0  0
   11.4701   53.0692   88.1113 N   0  0  0  0  0  0  0  0  0  0  0  0
   12.3062   52.5501   88.0845 H   0  0  0  0  0  0  0  0  0  0  0  0
   12.3771   53.8398   90.2071 C   0  0  0  0  0  0  0  0  0  0  0  0
   14.9402   54.7301   89.1224 C   0  0  0  0  0  0  0  0  0  0  0  0
   13.9384   55.7406   89.7062 C   0  0  0  0  0  0  0  0  0  0  0  0
   14.2264   56.9388   89.7203 O   0  0  0  0  0  0  0  0  0  0  0  0
   12.7870   55.2664   90.2320 N   0  0  0  0  0  0  0  0  0  0  0  0
   12.1788   55.9110   90.6606 H   0  0  0  0  0  0  0  0  0  0  0  0
   12.1363   53.3074   91.6208 C   0  0  0  0  0  0  0  0  0  0  0  0
   11.4147   54.3225   92.5023 C   0  0  0  0  0  0  0  0  0  0  0  0
   13.5083   52.9983   92.2511 C   0  0  0  0  0  0  0  0  0  0  0  0
   11.3581   51.9904   91.5388 C   0  0  0  0  0  0  0  0  0  0  0  0
   11.5584   53.0560   85.7202 C   0  0  0  0  0  0  0  0  0  0  0  0
   12.8397   53.8683   86.0065 C   0  0  0  0  0  0  0  0  0  0  0  0
   10.8683   53.6424   84.4491 C   0  0  0  0  0  0  0  0  0  0  0  0
   11.9771   51.5946   85.4064 C   0  0  0  0  0  0  0  0  0  0  0  0
 24 23  2  0  0  0
 24 25  1  0  0  0
 23 22  1  0  0  0
 26 25  1  0  0  0
 25 21  2  0  0  0
 22 21  1  0  0  0
 21 20  1  0  0  0
 20 19  2  0  0  0
 20 17  1  0  0  0
 19 18  1  0  0  0
 17 16  2  0  0  0
 18 15  2  0  0  0
 16 15  1  0  0  0
 15 14  1  0  0  0
 14 12  1  0  0  0
 12 10  1  0  0  0
  7  8  1  0  0  0
  7  5  1  0  0  0
 10 11  2  0  0  0
 10  8  1  0  0  0
  8  3  1  0  0  0
  5  6  1  0  0  0
  5  4  1  0  0  0
  3  4  1  0  0  0
  3  1  1  0  0  0
  2  1  2  0  0  0
  1 27  1  0  0  0
 43 42  1  0  0  0
 27 42  1  0  0  0
 27 30  1  0  0  0
 42 44  1  0  0  0
 42 45  1  0  0  0
 30 28  1  0  0  0
 41 38  1  0  0  0
 29 28  2  0  0  0
 28 32  1  0  0  0
 39 38  1  0  0  0
 38 32  1  0  0  0
 38 40  1  0  0  0
 32 36  1  0  0  0
 36 34  1  0  0  0
 33 34  1  0  0  0
 34 35  2  0  0  0
 36 37  1  0  0  0
 30 31  1  0  0  0
  6  9  1  0  0  0
 12 13  1  0  0  0
M  END
> <minimizedAffinity>
-6.75979

$$$$
4W9L_3JJ_C_301


 45 47  0  0  0  0  0  0  0  0999 V2000
   11.6674   51.0730   89.5762 C   0  0  0  0  0  0  0  0  0  0  0  0
   12.3047   50.5931   88.6587 O   0  0  0  0  0  0  0  0  0  0  0  0
   10.8439   52.1389   89.4164 N   0  0  0  0  0  0  0  0  0  0  0  0
    9.9548   52.8187   90.3810 C   0  0  0  0  0  0  0  0  0  0  0  0
    8.9363   53.5748   89.5177 C   0  0  0  0  0  0  0  0  0  0  0  0
    7.8213   52.7282   89.1998 O   0  0  0  0  0  0  0  0  0  0  0  0
    9.6105   53.8855   88.2599 C   0  0  0  0  0  0  0  0  0  0  0  0
   10.6615   52.7692   88.0711 C   0  0  0  0  0  0  0  0  0  0  0  0
    8.1370   51.9410   88.7291 H   0  0  0  0  0  0  0  0  0  0  0  0
   11.8576   53.3118   87.5680 C   0  0  0  0  0  0  0  0  0  0  0  0
   12.7086   53.7260   88.3421 O   0  0  0  0  0  0  0  0  0  0  0  0
   11.9997   53.3968   86.2156 N   0  0  0  0  0  0  0  0  0  0  0  0
   11.2964   53.0331   85.6305 H   0  0  0  0  0  0  0  0  0  0  0  0
   13.1900   54.0247   85.6155 C   0  0  0  0  0  0  0  0  0  0  0  0
   13.5110   53.3636   84.3878 C   0  0  0  0  0  0  0  0  0  0  0  0
   12.6953   52.3953   83.7706 C   0  0  0  0  0  0  0  0  0  0  0  0
   13.0696   51.8057   82.5408 C   0  0  0  0  0  0  0  0  0  0  0  0
   14.7095   53.6977   83.7443 C   0  0  0  0  0  0  0  0  0  0  0  0
   15.0867   53.1018   82.5267 C   0  0  0  0  0  0  0  0  0  0  0  0
   14.2672   52.1345   81.9049 C   0  0  0  0  0  0  0  0  0  0  0  0
   14.6036   51.5463   80.7324 C   0  0  0  0  0  0  0  0  0  0  0  0
   15.9880   51.9419   79.7475 S   0  0  0  0  0  0  0  0  0  0  0  0
   15.6874   50.8161   78.5973 C   0  0  0  0  0  0  0  0  0  0  0  0
   14.5769   50.1573   78.9305 N   0  0  0  0  0  0  0  0  0  0  0  0
   13.9795   50.5507   80.0863 C   0  0  0  0  0  0  0  0  0  0  0  0
   12.6875   49.8444   80.5537 C   0  0  0  0  0  0  0  0  0  0  0  0
   11.8149   50.4880   90.9802 C   0  0  0  0  0  0  0  0  0  0  0  0
   12.7556   52.1672   92.4799 C   0  0  0  0  0  0  0  0  0  0  0  0
   13.9068   51.9487   92.1212 O   0  0  0  0  0  0  0  0  0  0  0  0
   11.7077   51.5292   91.9837 N   0  0  0  0  0  0  0  0  0  0  0  0
   10.8122   51.7732   92.3118 H   0  0  0  0  0  0  0  0  0  0  0  0
   12.4184   53.0481   93.7149 C   0  0  0  0  0  0  0  0  0  0  0  0
   12.4957   51.2096   95.9848 C   0  0  0  0  0  0  0  0  0  0  0  0
   13.7068   52.0956   95.6472 C   0  0  0  0  0  0  0  0  0  0  0  0
   14.7180   52.0307   96.3486 O   0  0  0  0  0  0  0  0  0  0  0  0
   13.5980   52.9571   94.6114 N   0  0  0  0  0  0  0  0  0  0  0  0
   14.3526   53.5657   94.4398 H   0  0  0  0  0  0  0  0  0  0  0  0
   12.0351   54.5050   93.4491 C   0  0  0  0  0  0  0  0  0  0  0  0
   12.4855   55.4324   94.5739 C   0  0  0  0  0  0  0  0  0  0  0  0
   10.4997   54.5786   93.3381 C   0  0  0  0  0  0  0  0  0  0  0  0
   12.6174   54.9427   92.1015 C   0  0  0  0  0  0  0  0  0  0  0  0
   10.7373   49.4327   91.3608 C   0  0  0  0  0  0  0  0  0  0  0  0
   11.3799   48.0997   91.8008 C   0  0  0  0  0  0  0  0  0  0  0  0
    9.7543   49.1486   90.1821 C   0  0  0  0  0  0  0  0  0  0  0  0
    9.9090   49.9825   92.5528 C   0  0  0  0  0  0  0  0  0  0  0  0
 24 23  2  0  0  0
 24 25  1  0  0  0
 23 22  1  0  0  0
 26 25  1  0  0  0
 25 21  2  0  0  0
 22 21  1  0  0  0
 21 20  1  0  0  0
 20 19  2  0  0  0
 20 17  1  0  0  0
 19 18  1  0  0  0
 17 16  2  0  0  0
 18 15  2  0  0  0
 16 15  1  0  0  0
 15 14  1  0  0  0
 14 12  1  0  0  0
 12 10  1  0  0  0
  7  8  1  0  0  0
  7  5  1  0  0  0
 10 11  2  0  0  0
 10  8  1  0  0  0
  8  3  1  0  0  0
  5  6  1  0  0  0
  5  4  1  0  0  0
  3  4  1  0  0  0
  3  1  1  0  0  0
  2  1  2  0  0  0
  1 27  1  0  0  0
 43 42  1  0  0  0
 27 42  1  0  0  0
 27 30  1  0  0  0
 42 44  1  0  0  0
 42 45  1  0  0  0
 30 28  1  0  0  0
 41 38  1  0  0  0
 29 28  2  0  0  0
 28 32  1  0  0  0
 39 38  1  0  0  0
 38 32  1  0  0  0
 38 40  1  0  0  0
 32 36  1  0  0  0
 36 34  1  0  0  0
 33 34  1  0  0  0
 34 35  2  0  0  0
 36 37  1  0  0  0
 30 31  1  0  0  0
  6  9  1  0  0  0
 12 13  1  0  0  0
M  END
> <minimizedAffinity>
-6.75681

$$$$
4W9L_3JJ_C_301


 45 47  0  0  0  0  0  0  0  0999 V2000
   11.7527   54.1391   91.6237 C   0  0  0  0  0  0  0  0  0  0  0  0
   10.6074   53.8500   91.3357 O   0  0  0  0  0  0  0  0  0  0  0  0
   12.7083   54.3633   90.6875 N   0  0  0  0  0  0  0  0  0  0  0  0
   14.1193   54.7763   90.8352 C   0  0  0  0  0  0  0  0  0  0  0  0
   14.5099   55.3516   89.4674 C   0  0  0  0  0  0  0  0  0  0  0  0
   14.1854   56.7484   89.3993 O   0  0  0  0  0  0  0  0  0  0  0  0
   13.6777   54.6699   88.4795 C   0  0  0  0  0  0  0  0  0  0  0  0
   12.3825   54.2861   89.2286 C   0  0  0  0  0  0  0  0  0  0  0  0
   13.2347   56.8672   89.5509 H   0  0  0  0  0  0  0  0  0  0  0  0
   11.9631   53.0008   88.8414 C   0  0  0  0  0  0  0  0  0  0  0  0
   12.3787   52.0204   89.4423 O   0  0  0  0  0  0  0  0  0  0  0  0
   11.1339   52.8981   87.7652 N   0  0  0  0  0  0  0  0  0  0  0  0
   10.8095   53.7159   87.3235 H   0  0  0  0  0  0  0  0  0  0  0  0
   10.7153   51.5817   87.2524 C   0  0  0  0  0  0  0  0  0  0  0  0
   10.1021   51.7417   85.9695 C   0  0  0  0  0  0  0  0  0  0  0  0
    9.1626   50.8467   85.4215 C   0  0  0  0  0  0  0  0  0  0  0  0
    8.5797   51.0888   84.1559 C   0  0  0  0  0  0  0  0  0  0  0  0
   10.4455   52.8616   85.2015 C   0  0  0  0  0  0  0  0  0  0  0  0
    9.8738   53.0955   83.9372 C   0  0  0  0  0  0  0  0  0  0  0  0
    8.9283   52.2012   83.3892 C   0  0  0  0  0  0  0  0  0  0  0  0
    8.3602   52.4019   82.1763 C   0  0  0  0  0  0  0  0  0  0  0  0
    6.8003   53.1251   81.8823 S   0  0  0  0  0  0  0  0  0  0  0  0
    6.8859   53.0216   80.2506 C   0  0  0  0  0  0  0  0  0  0  0  0
    8.0486   52.4565   79.9232 N   0  0  0  0  0  0  0  0  0  0  0  0
    8.8532   52.1127   80.9633 C   0  0  0  0  0  0  0  0  0  0  0  0
   10.2210   51.4523   80.6811 C   0  0  0  0  0  0  0  0  0  0  0  0
   12.1594   54.2226   93.0943 C   0  0  0  0  0  0  0  0  0  0  0  0
   11.1043   55.8662   94.5570 C   0  0  0  0  0  0  0  0  0  0  0  0
   12.0668   56.6240   94.5214 O   0  0  0  0  0  0  0  0  0  0  0  0
   11.0618   54.7166   93.9029 N   0  0  0  0  0  0  0  0  0  0  0  0
   10.2454   54.1703   93.9684 H   0  0  0  0  0  0  0  0  0  0  0  0
    9.9261   56.0584   95.5517 C   0  0  0  0  0  0  0  0  0  0  0  0
    7.7679   58.0153   95.3257 C   0  0  0  0  0  0  0  0  0  0  0  0
    7.6827   56.6615   94.6007 C   0  0  0  0  0  0  0  0  0  0  0  0
    6.6878   56.4004   93.9219 O   0  0  0  0  0  0  0  0  0  0  0  0
    8.6916   55.7794   94.7759 N   0  0  0  0  0  0  0  0  0  0  0  0
    8.6016   54.8912   94.3608 H   0  0  0  0  0  0  0  0  0  0  0  0
    9.9645   55.2423   96.8450 C   0  0  0  0  0  0  0  0  0  0  0  0
   11.3893   55.0257   97.3461 C   0  0  0  0  0  0  0  0  0  0  0  0
    9.3317   53.8670   96.5567 C   0  0  0  0  0  0  0  0  0  0  0  0
    9.1021   55.9348   97.9049 C   0  0  0  0  0  0  0  0  0  0  0  0
   12.5672   52.8645   93.7337 C   0  0  0  0  0  0  0  0  0  0  0  0
   11.3300   52.0296   94.1282 C   0  0  0  0  0  0  0  0  0  0  0  0
   13.4633   53.0579   94.9969 C   0  0  0  0  0  0  0  0  0  0  0  0
   13.3803   52.0531   92.6897 C   0  0  0  0  0  0  0  0  0  0  0  0
 24 23  2  0  0  0
 24 25  1  0  0  0
 23 22  1  0  0  0
 26 25  1  0  0  0
 25 21  2  0  0  0
 22 21  1  0  0  0
 21 20  1  0  0  0
 20 19  2  0  0  0
 20 17  1  0  0  0
 19 18  1  0  0  0
 17 16  2  0  0  0
 18 15  2  0  0  0
 16 15  1  0  0  0
 15 14  1  0  0  0
 14 12  1  0  0  0
 12 10  1  0  0  0
  7  8  1  0  0  0
  7  5  1  0  0  0
 10 11  2  0  0  0
 10  8  1  0  0  0
  8  3  1  0  0  0
  5  6  1  0  0  0
  5  4  1  0  0  0
  3  4  1  0  0  0
  3  1  1  0  0  0
  2  1  2  0  0  0
  1 27  1  0  0  0
 43 42  1  0  0  0
 27 42  1  0  0  0
 27 30  1  0  0  0
 42 44  1  0  0  0
 42 45  1  0  0  0
 30 28  1  0  0  0
 41 38  1  0  0  0
 29 28  2  0  0  0
 28 32  1  0  0  0
 39 38  1  0  0  0
 38 32  1  0  0  0
 38 40  1  0  0  0
 32 36  1  0  0  0
 36 34  1  0  0  0
 33 34  1  0  0  0
 34 35  2  0  0  0
 36 37  1  0  0  0
 30 31  1  0  0  0
  6  9  1  0  0  0
 12 13  1  0  0  0
M  END
> <minimizedAffinity>
-6.74162

$$$$
4W9L_3JJ_C_301


 45 47  0  0  0  0  0  0  0  0999 V2000
   10.3610   53.0726   90.4578 C   0  0  0  0  0  0  0  0  0  0  0  0
   10.5386   52.0527   91.0954 O   0  0  0  0  0  0  0  0  0  0  0  0
    9.4380   53.1657   89.4683 N   0  0  0  0  0  0  0  0  0  0  0  0
    9.0392   54.3168   88.6321 C   0  0  0  0  0  0  0  0  0  0  0  0
    7.6497   53.9531   88.0925 C   0  0  0  0  0  0  0  0  0  0  0  0
    6.6296   54.3647   89.0152 O   0  0  0  0  0  0  0  0  0  0  0  0
    7.6017   52.4950   88.0236 C   0  0  0  0  0  0  0  0  0  0  0  0
    8.5633   52.0002   89.1266 C   0  0  0  0  0  0  0  0  0  0  0  0
    6.7765   53.9351   89.8723 H   0  0  0  0  0  0  0  0  0  0  0  0
    9.3005   50.8951   88.6648 C   0  0  0  0  0  0  0  0  0  0  0  0
    9.3030   49.8557   89.3087 O   0  0  0  0  0  0  0  0  0  0  0  0
   10.0304   51.0473   87.5244 N   0  0  0  0  0  0  0  0  0  0  0  0
    9.9833   51.8964   87.0285 H   0  0  0  0  0  0  0  0  0  0  0  0
   10.8891   49.9604   87.0221 C   0  0  0  0  0  0  0  0  0  0  0  0
   11.5279   50.3770   85.8114 C   0  0  0  0  0  0  0  0  0  0  0  0
   11.6275   51.7162   85.3865 C   0  0  0  0  0  0  0  0  0  0  0  0
   12.2996   52.0511   84.1882 C   0  0  0  0  0  0  0  0  0  0  0  0
   12.1016   49.3986   84.9895 C   0  0  0  0  0  0  0  0  0  0  0  0
   12.7599   49.7317   83.7913 C   0  0  0  0  0  0  0  0  0  0  0  0
   12.8643   51.0745   83.3672 C   0  0  0  0  0  0  0  0  0  0  0  0
   13.4938   51.4246   82.2203 C   0  0  0  0  0  0  0  0  0  0  0  0
   15.1230   52.0344   82.0905 S   0  0  0  0  0  0  0  0  0  0  0  0
   15.1084   52.1708   80.4589 C   0  0  0  0  0  0  0  0  0  0  0  0
   13.9155   51.7761   80.0123 N   0  0  0  0  0  0  0  0  0  0  0  0
   13.0311   51.3737   80.9628 C   0  0  0  0  0  0  0  0  0  0  0  0
   11.6233   50.8984   80.5397 C   0  0  0  0  0  0  0  0  0  0  0  0
   11.2278   54.2981   90.7442 C   0  0  0  0  0  0  0  0  0  0  0  0
   10.5844   54.6143   93.0766 C   0  0  0  0  0  0  0  0  0  0  0  0
    9.3931   54.7212   92.8097 O   0  0  0  0  0  0  0  0  0  0  0  0
   11.5165   54.4025   92.1614 N   0  0  0  0  0  0  0  0  0  0  0  0
   12.4511   54.3113   92.4570 H   0  0  0  0  0  0  0  0  0  0  0  0
   11.1584   54.9437   94.4825 C   0  0  0  0  0  0  0  0  0  0  0  0
   11.4071   57.8322   94.8476 C   0  0  0  0  0  0  0  0  0  0  0  0
   10.1530   57.0826   95.3283 C   0  0  0  0  0  0  0  0  0  0  0  0
    9.2468   57.7107   95.8789 O   0  0  0  0  0  0  0  0  0  0  0  0
   10.1120   55.7409   95.1705 N   0  0  0  0  0  0  0  0  0  0  0  0
    9.3353   55.2595   95.5368 H   0  0  0  0  0  0  0  0  0  0  0  0
   11.6132   53.7646   95.3444 C   0  0  0  0  0  0  0  0  0  0  0  0
   11.5624   54.0883   96.8346 C   0  0  0  0  0  0  0  0  0  0  0  0
   13.0694   53.4331   94.9640 C   0  0  0  0  0  0  0  0  0  0  0  0
   10.7582   52.5374   95.0131 C   0  0  0  0  0  0  0  0  0  0  0  0
   12.6138   54.2930   90.0379 C   0  0  0  0  0  0  0  0  0  0  0  0
   13.7161   53.7241   90.9568 C   0  0  0  0  0  0  0  0  0  0  0  0
   13.0387   55.7209   89.5724 C   0  0  0  0  0  0  0  0  0  0  0  0
   12.5224   53.3872   88.7807 C   0  0  0  0  0  0  0  0  0  0  0  0
 24 23  2  0  0  0
 24 25  1  0  0  0
 23 22  1  0  0  0
 26 25  1  0  0  0
 25 21  2  0  0  0
 22 21  1  0  0  0
 21 20  1  0  0  0
 20 19  2  0  0  0
 20 17  1  0  0  0
 19 18  1  0  0  0
 17 16  2  0  0  0
 18 15  2  0  0  0
 16 15  1  0  0  0
 15 14  1  0  0  0
 14 12  1  0  0  0
 12 10  1  0  0  0
  7  8  1  0  0  0
  7  5  1  0  0  0
 10 11  2  0  0  0
 10  8  1  0  0  0
  8  3  1  0  0  0
  5  6  1  0  0  0
  5  4  1  0  0  0
  3  4  1  0  0  0
  3  1  1  0  0  0
  2  1  2  0  0  0
  1 27  1  0  0  0
 43 42  1  0  0  0
 27 42  1  0  0  0
 27 30  1  0  0  0
 42 44  1  0  0  0
 42 45  1  0  0  0
 30 28  1  0  0  0
 41 38  1  0  0  0
 29 28  2  0  0  0
 28 32  1  0  0  0
 39 38  1  0  0  0
 38 32  1  0  0  0
 38 40  1  0  0  0
 32 36  1  0  0  0
 36 34  1  0  0  0
 33 34  1  0  0  0
 34 35  2  0  0  0
 36 37  1  0  0  0
 30 31  1  0  0  0
  6  9  1  0  0  0
 12 13  1  0  0  0
M  END
> <minimizedAffinity>
-6.62449

$$$$
4W9L_3JJ_C_301


 45 47  0  0  0  0  0  0  0  0999 V2000
   11.3129   51.9589   85.6890 C   0  0  0  0  0  0  0  0  0  0  0  0
   12.3506   52.5910   85.6434 O   0  0  0  0  0  0  0  0  0  0  0  0
   10.3185   52.2470   86.5654 N   0  0  0  0  0  0  0  0  0  0  0  0
    8.9808   51.6422   86.7329 C   0  0  0  0  0  0  0  0  0  0  0  0
    8.1613   52.6946   87.4911 C   0  0  0  0  0  0  0  0  0  0  0  0
    7.5498   53.6123   86.5719 O   0  0  0  0  0  0  0  0  0  0  0  0
    9.1124   53.4607   88.2921 C   0  0  0  0  0  0  0  0  0  0  0  0
   10.4478   53.3939   87.5185 C   0  0  0  0  0  0  0  0  0  0  0  0
    8.2372   54.0448   86.0415 H   0  0  0  0  0  0  0  0  0  0  0  0
   11.5180   53.2261   88.4155 C   0  0  0  0  0  0  0  0  0  0  0  0
   11.8722   52.0998   88.7332 O   0  0  0  0  0  0  0  0  0  0  0  0
   12.0940   54.3451   88.9371 N   0  0  0  0  0  0  0  0  0  0  0  0
   11.7886   55.2320   88.6379 H   0  0  0  0  0  0  0  0  0  0  0  0
   13.1672   54.2484   89.9421 C   0  0  0  0  0  0  0  0  0  0  0  0
   12.6226   54.4744   91.2458 C   0  0  0  0  0  0  0  0  0  0  0  0
   11.2760   54.2510   91.5933 C   0  0  0  0  0  0  0  0  0  0  0  0
   10.8190   54.4727   92.9131 C   0  0  0  0  0  0  0  0  0  0  0  0
   13.4762   54.9423   92.2529 C   0  0  0  0  0  0  0  0  0  0  0  0
   13.0179   55.1740   93.5630 C   0  0  0  0  0  0  0  0  0  0  0  0
   11.6691   54.9456   93.9133 C   0  0  0  0  0  0  0  0  0  0  0  0
   11.2007   55.1576   95.1662 C   0  0  0  0  0  0  0  0  0  0  0  0
   11.0907   53.9652   96.4346 S   0  0  0  0  0  0  0  0  0  0  0  0
   10.4835   54.9893   97.5586 C   0  0  0  0  0  0  0  0  0  0  0  0
   10.3580   56.1967   97.0066 N   0  0  0  0  0  0  0  0  0  0  0  0
   10.7410   56.2957   95.7062 C   0  0  0  0  0  0  0  0  0  0  0  0
   10.6320   57.6562   94.9824 C   0  0  0  0  0  0  0  0  0  0  0  0
   11.1179   50.7663   84.7537 C   0  0  0  0  0  0  0  0  0  0  0  0
   11.5444   51.4747   82.4580 C   0  0  0  0  0  0  0  0  0  0  0  0
   10.4309   51.9690   82.3262 O   0  0  0  0  0  0  0  0  0  0  0  0
   11.9535   50.8962   83.5758 N   0  0  0  0  0  0  0  0  0  0  0  0
   12.8694   50.5367   83.6091 H   0  0  0  0  0  0  0  0  0  0  0  0
   12.5132   51.2668   81.2610 C   0  0  0  0  0  0  0  0  0  0  0  0
   14.8972   52.6335   80.2673 C   0  0  0  0  0  0  0  0  0  0  0  0
   14.9806   51.6786   81.4701 C   0  0  0  0  0  0  0  0  0  0  0  0
   16.0690   51.4856   82.0149 O   0  0  0  0  0  0  0  0  0  0  0  0
   13.8533   51.0422   81.8589 N   0  0  0  0  0  0  0  0  0  0  0  0
   13.9259   50.3850   82.5883 H   0  0  0  0  0  0  0  0  0  0  0  0
   12.1605   50.1642   80.2610 C   0  0  0  0  0  0  0  0  0  0  0  0
   13.3697   49.7223   79.4421 C   0  0  0  0  0  0  0  0  0  0  0  0
   11.0933   50.7207   79.2985 C   0  0  0  0  0  0  0  0  0  0  0  0
   11.5358   48.9834   81.0109 C   0  0  0  0  0  0  0  0  0  0  0  0
   11.4860   49.3878   85.3734 C   0  0  0  0  0  0  0  0  0  0  0  0
   11.7748   49.5050   86.8854 C   0  0  0  0  0  0  0  0  0  0  0  0
   12.7255   48.7448   84.6760 C   0  0  0  0  0  0  0  0  0  0  0  0
   10.2808   48.4272   85.1883 C   0  0  0  0  0  0  0  0  0  0  0  0
 24 23  2  0  0  0
 24 25  1  0  0  0
 23 22  1  0  0  0
 26 25  1  0  0  0
 25 21  2  0  0  0
 22 21  1  0  0  0
 21 20  1  0  0  0
 20 19  2  0  0  0
 20 17  1  0  0  0
 19 18  1  0  0  0
 17 16  2  0  0  0
 18 15  2  0  0  0
 16 15  1  0  0  0
 15 14  1  0  0  0
 14 12  1  0  0  0
 12 10  1  0  0  0
  7  8  1  0  0  0
  7  5  1  0  0  0
 10 11  2  0  0  0
 10  8  1  0  0  0
  8  3  1  0  0  0
  5  6  1  0  0  0
  5  4  1  0  0  0
  3  4  1  0  0  0
  3  1  1  0  0  0
  2  1  2  0  0  0
  1 27  1  0  0  0
 43 42  1  0  0  0
 27 42  1  0  0  0
 27 30  1  0  0  0
 42 44  1  0  0  0
 42 45  1  0  0  0
 30 28  1  0  0  0
 41 38  1  0  0  0
 29 28  2  0  0  0
 28 32  1  0  0  0
 39 38  1  0  0  0
 38 32  1  0  0  0
 38 40  1  0  0  0
 32 36  1  0  0  0
 36 34  1  0  0  0
 33 34  1  0  0  0
 34 35  2  0  0  0
 36 37  1  0  0  0
 30 31  1  0  0  0
  6  9  1  0  0  0
 12 13  1  0  0  0
M  END
> <minimizedAffinity>
-6.59965

$$$$
4W9L_3JJ_C_301


 45 47  0  0  0  0  0  0  0  0999 V2000
   11.4751   51.9274   85.8812 C   0  0  0  0  0  0  0  0  0  0  0  0
   12.5360   52.5167   85.9567 O   0  0  0  0  0  0  0  0  0  0  0  0
   10.4049   52.2455   86.6514 N   0  0  0  0  0  0  0  0  0  0  0  0
    9.0341   51.6943   86.6656 C   0  0  0  0  0  0  0  0  0  0  0  0
    8.1805   52.7702   87.3496 C   0  0  0  0  0  0  0  0  0  0  0  0
    7.7077   53.7235   86.3858 O   0  0  0  0  0  0  0  0  0  0  0  0
    9.0701   53.4867   88.2598 C   0  0  0  0  0  0  0  0  0  0  0  0
   10.4769   53.3744   87.6317 C   0  0  0  0  0  0  0  0  0  0  0  0
    8.4645   54.1338   85.9388 H   0  0  0  0  0  0  0  0  0  0  0  0
   11.4375   53.1517   88.6346 C   0  0  0  0  0  0  0  0  0  0  0  0
   11.7240   52.0075   88.9567 O   0  0  0  0  0  0  0  0  0  0  0  0
   11.9832   54.2393   89.2473 N   0  0  0  0  0  0  0  0  0  0  0  0
   11.7365   55.1422   88.9421 H   0  0  0  0  0  0  0  0  0  0  0  0
   12.9368   54.0848   90.3599 C   0  0  0  0  0  0  0  0  0  0  0  0
   12.2971   54.4382   91.5900 C   0  0  0  0  0  0  0  0  0  0  0  0
   10.9320   54.2258   91.8645 C   0  0  0  0  0  0  0  0  0  0  0  0
   10.3785   54.5785   93.1172 C   0  0  0  0  0  0  0  0  0  0  0  0
   13.0701   55.0286   92.5979 C   0  0  0  0  0  0  0  0  0  0  0  0
   12.5158   55.3900   93.8397 C   0  0  0  0  0  0  0  0  0  0  0  0
   11.1484   55.1730   94.1174 C   0  0  0  0  0  0  0  0  0  0  0  0
   10.5885   55.5086   95.3040 C   0  0  0  0  0  0  0  0  0  0  0  0
   10.1072   54.3984   96.5604 S   0  0  0  0  0  0  0  0  0  0  0  0
    9.5824   55.5532   97.5956 C   0  0  0  0  0  0  0  0  0  0  0  0
    9.7547   56.7448   97.0224 N   0  0  0  0  0  0  0  0  0  0  0  0
   10.2963   56.7292   95.7758 C   0  0  0  0  0  0  0  0  0  0  0  0
   10.5337   58.0627   95.0327 C   0  0  0  0  0  0  0  0  0  0  0  0
   11.3342   50.7553   84.9109 C   0  0  0  0  0  0  0  0  0  0  0  0
   12.2971   51.5645   82.8199 C   0  0  0  0  0  0  0  0  0  0  0  0
   11.3561   52.3158   82.5923 O   0  0  0  0  0  0  0  0  0  0  0  0
   12.3708   50.8004   83.8979 N   0  0  0  0  0  0  0  0  0  0  0  0
   13.1680   50.2353   84.0179 H   0  0  0  0  0  0  0  0  0  0  0  0
   13.3926   51.2536   81.7626 C   0  0  0  0  0  0  0  0  0  0  0  0
   12.0904   48.8748   80.6742 C   0  0  0  0  0  0  0  0  0  0  0  0
   12.0468   50.2128   79.9168 C   0  0  0  0  0  0  0  0  0  0  0  0
   11.4596   50.2769   78.8352 O   0  0  0  0  0  0  0  0  0  0  0  0
   12.7026   51.2684   80.4483 N   0  0  0  0  0  0  0  0  0  0  0  0
   12.7242   52.1042   79.9283 H   0  0  0  0  0  0  0  0  0  0  0  0
   14.6273   52.1565   81.7508 C   0  0  0  0  0  0  0  0  0  0  0  0
   14.7639   52.9267   80.4407 C   0  0  0  0  0  0  0  0  0  0  0  0
   15.8703   51.2624   81.9258 C   0  0  0  0  0  0  0  0  0  0  0  0
   14.5693   53.1072   82.9506 C   0  0  0  0  0  0  0  0  0  0  0  0
   11.4565   49.3503   85.5672 C   0  0  0  0  0  0  0  0  0  0  0  0
   10.1460   48.5455   85.4317 C   0  0  0  0  0  0  0  0  0  0  0  0
   11.8333   49.4413   87.0790 C   0  0  0  0  0  0  0  0  0  0  0  0
   12.5799   48.5634   84.8404 C   0  0  0  0  0  0  0  0  0  0  0  0
 24 23  2  0  0  0
 24 25  1  0  0  0
 23 22  1  0  0  0
 26 25  1  0  0  0
 25 21  2  0  0  0
 22 21  1  0  0  0
 21 20  1  0  0  0
 20 19  2  0  0  0
 20 17  1  0  0  0
 19 18  1  0  0  0
 17 16  2  0  0  0
 18 15  2  0  0  0
 16 15  1  0  0  0
 15 14  1  0  0  0
 14 12  1  0  0  0
 12 10  1  0  0  0
  7  8  1  0  0  0
  7  5  1  0  0  0
 10 11  2  0  0  0
 10  8  1  0  0  0
  8  3  1  0  0  0
  5  6  1  0  0  0
  5  4  1  0  0  0
  3  4  1  0  0  0
  3  1  1  0  0  0
  2  1  2  0  0  0
  1 27  1  0  0  0
 43 42  1  0  0  0
 27 42  1  0  0  0
 27 30  1  0  0  0
 42 44  1  0  0  0
 42 45  1  0  0  0
 30 28  1  0  0  0
 41 38  1  0  0  0
 29 28  2  0  0  0
 28 32  1  0  0  0
 39 38  1  0  0  0
 38 32  1  0  0  0
 38 40  1  0  0  0
 32 36  1  0  0  0
 36 34  1  0  0  0
 33 34  1  0  0  0
 34 35  2  0  0  0
 36 37  1  0  0  0
 30 31  1  0  0  0
  6  9  1  0  0  0
 12 13  1  0  0  0
M  END
> <minimizedAffinity>
-6.52696

$$$$
