4W9L_3JJ_C_301
  RCSB PDB12061715563D
Coordinates from PDB:4W9L:C:301 Model:1 without hydrogens
 41 43  0  0  0  0            999 V2000
   11.2140   53.6730   97.5410   C 0  0  0  0  0  0  0  0  0  0  0  0
   11.4920   55.1780   97.6940   C 0  0  0  0  0  0  0  0  0  0  0  0
   12.1080   55.5820   98.6820   O 0  0  0  0  0  0  0  0  0  0  0  0
   11.0030   56.0160   96.7530   N 0  0  0  0  0  0  0  0  0  0  0  0
   10.2880   55.5780   95.5280   C 0  0  0  0  0  0  0  0  0  0  0  0
    9.1040   56.4960   95.2190   C 0  0  0  0  0  0  0  0  0  0  0  0
    9.5520   57.9050   94.8420   C 0  0  0  0  0  0  0  0  0  0  0  0
    8.2280   56.5820   96.4840   C 0  0  0  0  0  0  0  0  0  0  0  0
    8.2540   55.8680   94.1100   C 0  0  0  0  0  0  0  0  0  0  0  0
   11.3780   55.4330   94.4300   C 0  0  0  0  0  0  0  0  0  0  0  0
   12.3040   56.2270   94.3120   O 0  0  0  0  0  0  0  0  0  0  0  0
   11.3200   54.2840   93.7760   N 0  0  0  0  0  0  0  0  0  0  0  0
   12.3580   53.8340   92.8690   C 0  0  0  0  0  0  0  0  0  0  0  0
   12.6270   52.3500   93.2500   C 0  0  0  0  0  0  0  0  0  0  0  0
   13.6410   51.6930   92.2890   C 0  0  0  0  0  0  0  0  0  0  0  0
   11.3180   51.5000   93.2530   C 0  0  0  0  0  0  0  0  0  0  0  0
   13.2270   52.3100   94.6810   C 0  0  0  0  0  0  0  0  0  0  0  0
   11.9390   54.0540   91.4160   C 0  0  0  0  0  0  0  0  0  0  0  0
   10.7880   53.8410   91.0870   O 0  0  0  0  0  0  0  0  0  0  0  0
   12.8900   54.4530   90.5350   N 0  0  0  0  0  0  0  0  0  0  0  0
   14.3070   54.8130   90.7490   C 0  0  0  0  0  0  0  0  0  0  0  0
   14.6940   55.6490   89.5220   C 0  0  0  0  0  0  0  0  0  0  0  0
   14.3860   57.0340   89.7410   O 0  0  0  0  0  0  0  0  0  0  0  0
   13.8460   55.1900   88.4250   C 0  0  0  0  0  0  0  0  0  0  0  0
   12.5520   54.6760   89.0940   C 0  0  0  0  0  0  0  0  0  0  0  0
   12.1140   53.5000   88.4590   C 0  0  0  0  0  0  0  0  0  0  0  0
   12.5850   52.4210   88.7890   O 0  0  0  0  0  0  0  0  0  0  0  0
   11.2020   53.6200   87.4540   N 0  0  0  0  0  0  0  0  0  0  0  0
   10.7550   52.4420   86.6900   C 0  0  0  0  0  0  0  0  0  0  0  0
   11.5730   52.2890   85.5260   C 0  0  0  0  0  0  0  0  0  0  0  0
   12.4880   53.2560   85.0660   C 0  0  0  0  0  0  0  0  0  0  0  0
   13.2820   53.0190   83.9200   C 0  0  0  0  0  0  0  0  0  0  0  0
   11.4710   51.1010   84.7910   C 0  0  0  0  0  0  0  0  0  0  0  0
   12.2530   50.8710   83.6440   C 0  0  0  0  0  0  0  0  0  0  0  0
   13.1740   51.8380   83.1850   C 0  0  0  0  0  0  0  0  0  0  0  0
   13.9410   51.6430   82.0860   C 0  0  0  0  0  0  0  0  0  0  0  0
   15.5960   52.1570   81.8870   S 0  0  0  0  0  0  0  0  0  0  0  0
   15.7700   51.5410   80.3800   C 0  0  0  0  0  0  0  0  0  0  0  0
   14.6210   50.9660   80.0230   N 0  0  0  0  0  0  0  0  0  0  0  0
   13.6210   51.0210   80.9420   C 0  0  0  0  0  0  0  0  0  0  0  0
   12.2530   50.3810   80.6170   C 0  0  0  0  0  0  0  0  0  0  0  0
 39 38  2  0  0  0  0
 39 40  1  0  0  0  0
 38 37  1  0  0  0  0
 41 40  1  0  0  0  0
 40 36  2  0  0  0  0
 37 36  1  0  0  0  0
 36 35  1  0  0  0  0
 35 34  2  0  0  0  0
 35 32  1  0  0  0  0
 34 33  1  0  0  0  0
 32 31  2  0  0  0  0
 33 30  2  0  0  0  0
 31 30  1  0  0  0  0
 30 29  1  0  0  0  0
 29 28  1  0  0  0  0
 28 26  1  0  0  0  0
 24 25  1  0  0  0  0
 24 22  1  0  0  0  0
 26 27  2  0  0  0  0
 26 25  1  0  0  0  0
 25 20  1  0  0  0  0
 22 23  1  0  0  0  0
 22 21  1  0  0  0  0
 20 21  1  0  0  0  0
 20 18  1  0  0  0  0
 19 18  2  0  0  0  0
 18 13  1  0  0  0  0
 15 14  1  0  0  0  0
 13 14  1  0  0  0  0
 13 12  1  0  0  0  0
 14 16  1  0  0  0  0
 14 17  1  0  0  0  0
 12 10  1  0  0  0  0
  9  6  1  0  0  0  0
 11 10  2  0  0  0  0
 10  5  1  0  0  0  0
  7  6  1  0  0  0  0
  6  5  1  0  0  0  0
  6  8  1  0  0  0  0
  5  4  1  0  0  0  0
  4  2  1  0  0  0  0
  1  2  1  0  0  0  0
  2  3  2  0  0  0  0
A    1
CAD
A    2
CAA
A    3
OAC
A    4
N
A    5
CA
A    6
CB
A    7
CG1
A    8
CBO
A    9
CG2
A   10
C
A   11
O
A   12
NAH
A   13
CAI
A   14
CAJ
A   15
CAL
A   16
CAM
A   17
CAK
A   18
CAO
A   19
OAP
A   20
NAQ
A   21
CAU
A   22
CAT
A   23
OAX
A   24
CAS
A   25
CAR
A   26
CAV
A   27
OAW
A   28
NAY
A   29
CAZ
A   30
CBA
A   31
CBF
A   32
CBE
A   33
CBB
A   34
CBC
A   35
CBD
A   36
CBG
A   37
SBK
A   38
CBJ
A   39
NBI
A   40
CBH
A   41
CBL
M  END
>  <InstanceId>
4W9L_3JJ_C_301

>  <ChemCompId>
3JJ

>  <PdbId>
4W9L

>  <ChainId>
C

>  <ResidueNumber>
301

>  <InsertionCode>


>  <Model>
1

>  <AltIds>


>  <MissingHeavyAtoms>
0

>  <ObservedFormula>
C30 N5 O5 S

>  <Name>
N-acetyl-3-methyl-L-valyl-3-methyl-L-valyl-(4R)-4-hydroxy-N-[4-(4-methyl-1,3-thiazol-5-yl)benzyl]-L-prolinamide

>  <SystematicName>
(2S,4R)-1-[(2S)-2-[[(2S)-2-acetamido-3,3-dimethyl-butanoyl]amino]-3,3-dimethyl-butanoyl]-N-[[4-(4-methyl-1,3-thiazol-5-yl)phenyl]methyl]-4-oxidanyl-pyrrolidine-2-carboxamide

>  <Synonyms>


>  <Type>
NON-POLYMER

>  <Formula>
C30 H43 N5 O5 S

>  <MolecularWeight>
585.758

>  <ModifiedDate>
2014-09-05

>  <Parent>


>  <OneLetterCode>


>  <SubcomponentList>


>  <AmbiguousFlag>
N

>  <InChI>
InChI=1S/C30H43N5O5S/c1-17-23(41-16-32-17)20-11-9-19(10-12-20)14-31-26(38)22-13-21(37)15-35(22)28(40)25(30(6,7)8)34-27(39)24(29(3,4)5)33-18(2)36/h9-12,16,21-22,24-25,37H,13-15H2,1-8H3,(H,31,38)(H,33,36)(H,34,39)/t21-,22+,24-,25-/m1/s1

>  <InChIKey>
BSMNRBWKVZRMBK-PEISPCAHSA-N

>  <SMILES>
Cc1c(scn1)c2ccc(cc2)CNC(=O)[C@@H]3C[C@H](CN3C(=O)[C@H](C(C)(C)C)NC(=O)[C@H](C(C)(C)C)NC(=O)C)O

$$$$
