4CWF_H05_A_1224
  RCSB PDB12061712063D
Coordinates from PDB:4CWF:A:1224 Model:1 without hydrogens
 17 19  0  0  0  0            999 V2000
    6.2510   11.9160   24.0550   C 0  0  0  0  0  0  0  0  0  0  0  0
    5.2920   11.0910   23.5960   N 0  0  0  0  0  0  0  0  0  0  0  0
    7.4570   11.3580   23.7830   N 0  0  0  0  0  0  0  0  0  0  0  0
    5.8160    9.9340   22.9920   N 0  0  0  0  0  0  0  0  0  0  0  0
    3.9810   11.4080   23.7520   C 0  0  0  0  0  0  0  0  0  0  0  0
    3.6530   12.5890   24.3690   N 0  0  0  0  0  0  0  0  0  0  0  0
    7.1400   10.1890   23.1530   C 0  0  0  0  0  0  0  0  0  0  0  0
    5.9740   13.1280   24.6900   C 0  0  0  0  0  0  0  0  0  0  0  0
    4.6180   13.4510   24.8380   C 0  0  0  0  0  0  0  0  0  0  0  0
    8.1050    9.3410   22.7130   N 0  0  0  0  0  0  0  0  0  0  0  0
    6.9820   13.9860   25.1600   C 0  0  0  0  0  0  0  0  0  0  0  0
    2.8780   10.4870   23.2620   C 0  0  0  0  0  0  0  0  0  0  0  0
    4.2790   14.6550   25.4720   C 0  0  0  0  0  0  0  0  0  0  0  0
    2.7740    9.2490   24.1590   C 0  0  0  0  0  0  0  0  0  0  0  0
    6.6290   15.1730   25.7870   C 0  0  0  0  0  0  0  0  0  0  0  0
    5.2870   15.5030   25.9390   C 0  0  0  0  0  0  0  0  0  0  0  0
    2.2950    9.5740   25.5620   C 0  0  0  0  0  0  0  0  0  0  0  0
  2  1  1  0  0  0  0
  3  1  2  0  0  0  0
  1  8  1  0  0  0  0
  4  2  1  0  0  0  0
  2  5  1  0  0  0  0
  7  3  1  0  0  0  0
  4  7  2  0  0  0  0
 12  5  1  0  0  0  0
  5  6  2  0  0  0  0
  6  9  1  0  0  0  0
 10  7  1  0  0  0  0
  8  9  2  0  0  0  0
  8 11  1  0  0  0  0
  9 13  1  0  0  0  0
 11 15  2  0  0  0  0
 12 14  1  0  0  0  0
 13 16  2  0  0  0  0
 14 17  1  0  0  0  0
 15 16  1  0  0  0  0
A    1
C1
A    2
N2
A    3
N3
A    4
N4
A    5
C5
A    6
N6
A    7
C7
A    8
C8
A    9
C9
A   10
N10
A   11
C11
A   12
C12
A   13
C13
A   14
C14
A   15
C15
A   16
C16
A   17
C17
M  END
>  <InstanceId>
4CWF_H05_A_1224

>  <ChemCompId>
H05

>  <PdbId>
4CWF

>  <ChainId>
A

>  <ResidueNumber>
1224

>  <InsertionCode>


>  <Model>
1

>  <AltIds>


>  <MissingHeavyAtoms>
0

>  <ObservedFormula>
C12 N5

>  <Name>
5-propyl[1,2,4]triazolo[1,5-c]quinazolin-2-amine

>  <SystematicName>
5-propyl-[1,2,4]triazolo[1,5-c]quinazolin-2-amine

>  <Synonyms>


>  <Type>
NON-POLYMER

>  <Formula>
C12 H13 N5

>  <MolecularWeight>
227.265

>  <ModifiedDate>
2014-07-03

>  <Parent>


>  <OneLetterCode>


>  <SubcomponentList>


>  <AmbiguousFlag>
N

>  <InChI>
InChI=1S/C12H13N5/c1-2-5-10-14-9-7-4-3-6-8(9)11-15-12(13)16-17(10)11/h3-4,6-7H,2,5H2,1H3,(H2,13,16)

>  <InChIKey>
WFRPCMTYTZUBRF-UHFFFAOYSA-N

>  <SMILES>
CCCc1nc2ccccc2c3n1nc(n3)N

$$$$
