5VD1_P48_A_401
  RCSB PDB12061720003D
Coordinates from PDB:5VD1:A:401 Model:1 without hydrogens
 34 38  0  0  0  0            999 V2000
    1.3760   -2.9480   -1.9210   O 0  0  0  0  0  0  0  0  0  0  0  0
    2.1020   -3.8350   -2.3480   C 0  0  0  0  0  0  0  0  0  0  0  0
    1.6940   -5.0400   -2.6940   N 0  0  0  0  0  0  0  0  0  0  0  0
    0.3040   -5.4820   -2.6900   C 0  0  0  0  0  0  0  0  0  0  0  0
    3.5340   -3.5950   -2.4070   C 0  0  0  0  0  0  0  0  0  0  0  0
    4.4330   -4.5790   -2.4760   N 0  0  0  0  0  0  0  0  0  0  0  0
    5.6760   -4.0180   -2.5130   N 0  0  0  0  0  0  0  0  0  0  0  0
    6.7840   -4.9800   -2.6270   C 0  0  0  0  0  0  0  0  0  0  0  0
    5.6260   -2.6860   -2.5080   C 0  0  0  0  0  0  0  0  0  0  0  0
    4.2110   -2.2830   -2.4250   C 0  0  0  0  0  0  0  0  0  0  0  0
    6.7170   -1.7010   -2.4320   C 0  0  0  0  0  0  0  0  0  0  0  0
    6.3720   -0.3440   -2.5530   C 0  0  0  0  0  0  0  0  0  0  0  0
    4.9460    0.0810   -2.9190   C 0  0  0  0  0  0  0  0  0  0  0  0
    3.8310   -0.7990   -2.3430   C 0  0  0  0  0  0  0  0  0  0  0  0
    3.5940   -0.4130   -0.8940   C 0  0  0  0  0  0  0  0  0  0  0  0
    2.6430   -0.4870   -3.2320   C 0  0  0  0  0  0  0  0  0  0  0  0
    7.9780   -2.0940   -2.1220   N 0  0  0  0  0  0  0  0  0  0  0  0
    8.9670   -1.1870   -1.9690   C 0  0  0  0  0  0  0  0  0  0  0  0
    8.6520    0.1320   -2.1200   N 0  0  0  0  0  0  0  0  0  0  0  0
    7.4060    0.5680   -2.3920   C 0  0  0  0  0  0  0  0  0  0  0  0
   10.2500   -1.5200   -1.6860   N 0  0  0  0  0  0  0  0  0  0  0  0
   10.8990   -2.7360   -1.6770   C 0  0  0  0  0  0  0  0  0  0  0  0
   12.3060   -2.7900   -1.7540   C 0  0  0  0  0  0  0  0  0  0  0  0
   12.9940   -3.9880   -1.7460   C 0  0  0  0  0  0  0  0  0  0  0  0
   12.3170   -5.2160   -1.6880   C 0  0  0  0  0  0  0  0  0  0  0  0
   10.8880   -5.1950   -1.6090   C 0  0  0  0  0  0  0  0  0  0  0  0
   10.1850   -3.9660   -1.5910   C 0  0  0  0  0  0  0  0  0  0  0  0
   13.0530   -6.4270   -1.6960   N 0  0  0  0  0  0  0  0  0  0  0  0
   12.3930   -7.7430   -1.7030   C 0  0  0  0  0  0  0  0  0  0  0  0
   12.9110   -8.2950   -3.0140   C 0  0  0  0  0  0  0  0  0  0  0  0
   14.3310   -8.5670   -2.7730   N 0  0  0  0  0  0  0  0  0  0  0  0
   14.8320   -9.9320   -2.8990   C 0  0  0  0  0  0  0  0  0  0  0  0
   15.1470   -7.6790   -1.9510   C 0  0  0  0  0  0  0  0  0  0  0  0
   14.4810   -6.3130   -2.0930   C 0  0  0  0  0  0  0  0  0  0  0  0
  1  2  2  0  0  0  0
  2  3  1  0  0  0  0
  2  5  1  0  0  0  0
  3  4  1  0  0  0  0
  5  6  2  0  0  0  0
  5 10  1  0  0  0  0
  6  7  1  0  0  0  0
  7  8  1  0  0  0  0
  7  9  1  0  0  0  0
  9 10  2  0  0  0  0
  9 11  1  0  0  0  0
 10 14  1  0  0  0  0
 11 12  1  0  0  0  0
 11 17  2  0  0  0  0
 12 13  1  0  0  0  0
 12 20  2  0  0  0  0
 13 14  1  0  0  0  0
 14 15  1  0  0  0  0
 14 16  1  0  0  0  0
 17 18  1  0  0  0  0
 18 19  2  0  0  0  0
 18 21  1  0  0  0  0
 19 20  1  0  0  0  0
 21 22  1  0  0  0  0
 22 23  1  0  0  0  0
 22 27  2  0  0  0  0
 23 24  2  0  0  0  0
 24 25  1  0  0  0  0
 25 26  2  0  0  0  0
 25 28  1  0  0  0  0
 26 27  1  0  0  0  0
 28 29  1  0  0  0  0
 28 34  1  0  0  0  0
 29 30  1  0  0  0  0
 30 31  1  0  0  0  0
 31 32  1  0  0  0  0
 31 33  1  0  0  0  0
 33 34  1  0  0  0  0
A    1
O1
A    2
C2
A    3
N3
A    4
C4
A    5
C5
A    6
N6
A    7
N7
A    8
C8
A    9
C9
A   10
C10
A   11
C11
A   12
C12
A   13
C13
A   14
C14
A   15
C15
A   16
C16
A   17
N17
A   18
C18
A   19
N19
A   20
C20
A   21
N21
A   22
C22
A   23
C23
A   24
C24
A   25
C25
A   26
C26
A   27
C27
A   28
N28
A   29
C29
A   30
C30
A   31
N31
A   32
C32
A   33
C33
A   34
C34
M  END
>  <InstanceId>
5VD1_P48_A_401

>  <ChemCompId>
P48

>  <PdbId>
5VD1

>  <ChainId>
A

>  <ResidueNumber>
401

>  <InsertionCode>


>  <Model>
1

>  <AltIds>


>  <MissingHeavyAtoms>
0

>  <ObservedFormula>
C25 N8 O

>  <Name>
N,1,4,4-TETRAMETHYL-8-{[4-(4-METHYLPIPERAZIN-1-YL)PHENYL]AMINO}-4,5-DIHYDRO-1H-PYRAZOLO[4,3-H]QUINAZOLINE-3-CARBOXAMIDE

>  <SystematicName>
N,1,4,4-tetramethyl-8-[[4-(4-methylpiperazin-1-yl)phenyl]amino]-5H-pyrazolo[4,5-h]quinazoline-3-carboxamide

>  <Synonyms>


>  <Type>
non-polymer

>  <Formula>
C25 H32 N8 O

>  <MolecularWeight>
460.575

>  <ModifiedDate>
2011-06-04

>  <Parent>


>  <OneLetterCode>


>  <SubcomponentList>


>  <AmbiguousFlag>
N

>  <InChI>
InChI=1S/C25H32N8O/c1-25(2)14-16-15-27-24(29-20(16)22-19(25)21(23(34)26-3)30-32(22)5)28-17-6-8-18(9-7-17)33-12-10-31(4)11-13-33/h6-9,15H,10-14H2,1-5H3,(H,26,34)(H,27,28,29)

>  <InChIKey>
RXZMYLDMFYNEIM-UHFFFAOYSA-N

>  <SMILES>
CC1(Cc2cnc(nc2-c3c1c(nn3C)C(=O)NC)Nc4ccc(cc4)N5CCN(CC5)C)C

$$$$
