4AVS_N7P_A_208


 12 12  0  0  0  0  0  0  0  0999 V2000
   17.8916   16.6277   57.2133 C   0  0  0  0  0  0  0  0  0  0  0  0
   18.0682   16.3663   55.8244 N   0  0  0  0  0  0  0  0  0  0  0  0
   17.8623   15.0492   55.1818 C   0  0  0  0  0  0  0  0  0  0  0  0
   18.0489   14.9387   53.9688 O   0  0  0  0  0  0  0  0  0  0  0  0
   17.4409   13.8916   56.0053 C   0  0  0  0  0  0  0  0  0  0  0  0
   18.4750   17.5525   55.1410 C   0  0  0  0  0  0  0  0  0  0  0  0
   18.8596   18.5277   56.2004 C   0  0  0  0  0  0  0  0  0  0  0  0
   18.0795   18.0906   57.4097 C   0  0  0  0  0  0  0  0  0  0  0  0
   16.3114   15.5119   58.7010 O   0  0  0  0  0  0  0  0  0  0  0  0
   16.5372   16.2280   57.6521 C   0  0  0  0  0  0  0  0  0  0  0  0
   15.5700   16.6254   56.9681 O   0  0  0  0  0  0  0  0  0  0  0  0
   17.0271   15.2071   59.2232 H   0  0  0  0  0  0  0  0  0  0  0  0
  7  8  1  0  0  0
  7  6  1  0  0  0
  8  1  1  0  0  0
  6  2  1  0  0  0
  2  1  1  0  0  0
  2  3  1  0  0  0
  1 10  1  0  0  0
  5  3  1  0  0  0
  3  4  2  0  0  0
 10 11  2  0  0  0
 10  9  1  0  0  0
  9 12  1  0  0  0
M  END
> <minimizedAffinity>
-4.66242

$$$$
4AVS_N7P_A_208


 12 12  0  0  0  0  0  0  0  0999 V2000
   17.0446   15.7098   56.4121 C   0  0  0  0  0  0  0  0  0  0  0  0
   18.4380   15.8209   56.6854 N   0  0  0  0  0  0  0  0  0  0  0  0
   19.1112   17.0565   57.1439 C   0  0  0  0  0  0  0  0  0  0  0  0
   20.3265   17.0370   57.3461 O   0  0  0  0  0  0  0  0  0  0  0  0
   18.3157   18.2901   57.3472 C   0  0  0  0  0  0  0  0  0  0  0  0
   19.0936   14.5738   56.4514 C   0  0  0  0  0  0  0  0  0  0  0  0
   18.1162   13.7263   55.7115 C   0  0  0  0  0  0  0  0  0  0  0  0
   16.7732   14.2802   56.1012 C   0  0  0  0  0  0  0  0  0  0  0  0
   16.3844   15.6231   58.7598 O   0  0  0  0  0  0  0  0  0  0  0  0
   16.2471   16.1333   57.5831 C   0  0  0  0  0  0  0  0  0  0  0  0
   15.4105   17.0451   57.4102 O   0  0  0  0  0  0  0  0  0  0  0  0
   17.0080   14.9387   58.9039 H   0  0  0  0  0  0  0  0  0  0  0  0
  7  8  1  0  0  0
  7  6  1  0  0  0
  8  1  1  0  0  0
  6  2  1  0  0  0
  2  1  1  0  0  0
  2  3  1  0  0  0
  1 10  1  0  0  0
  5  3  1  0  0  0
  3  4  2  0  0  0
 10 11  2  0  0  0
 10  9  1  0  0  0
  9 12  1  0  0  0
M  END
> <minimizedAffinity>
-4.45651

$$$$
4AVS_N7P_A_208


 12 12  0  0  0  0  0  0  0  0999 V2000
   17.7469   17.0698   57.3840 C   0  0  0  0  0  0  0  0  0  0  0  0
   18.4047   17.6009   58.5303 N   0  0  0  0  0  0  0  0  0  0  0  0
   17.7946   18.5496   59.4883 C   0  0  0  0  0  0  0  0  0  0  0  0
   18.4615   18.9468   60.4452 O   0  0  0  0  0  0  0  0  0  0  0  0
   16.4003   19.0054   59.2784 C   0  0  0  0  0  0  0  0  0  0  0  0
   19.7360   17.0918   58.6224 C   0  0  0  0  0  0  0  0  0  0  0  0
   20.0228   16.4469   57.3098 C   0  0  0  0  0  0  0  0  0  0  0  0
   18.6678   16.0723   56.7750 C   0  0  0  0  0  0  0  0  0  0  0  0
   16.3626   15.6105   58.7658 O   0  0  0  0  0  0  0  0  0  0  0  0
   16.4759   16.4180   57.7663 C   0  0  0  0  0  0  0  0  0  0  0  0
   15.4639   16.6856   57.0839 O   0  0  0  0  0  0  0  0  0  0  0  0
   17.1132   15.4009   59.2861 H   0  0  0  0  0  0  0  0  0  0  0  0
  7  8  1  0  0  0
  7  6  1  0  0  0
  8  1  1  0  0  0
  6  2  1  0  0  0
  2  1  1  0  0  0
  2  3  1  0  0  0
  1 10  1  0  0  0
  5  3  1  0  0  0
  3  4  2  0  0  0
 10 11  2  0  0  0
 10  9  1  0  0  0
  9 12  1  0  0  0
M  END
> <minimizedAffinity>
-4.24257

$$$$
4AVS_N7P_A_208


 12 12  0  0  0  0  0  0  0  0999 V2000
   18.5003   15.7159   55.5251 C   0  0  0  0  0  0  0  0  0  0  0  0
   17.5915   15.3712   56.5662 N   0  0  0  0  0  0  0  0  0  0  0  0
   17.2822   16.2274   57.7330 C   0  0  0  0  0  0  0  0  0  0  0  0
   16.4800   15.8236   58.5765 O   0  0  0  0  0  0  0  0  0  0  0  0
   17.9425   17.5472   57.8669 C   0  0  0  0  0  0  0  0  0  0  0  0
   17.0242   14.0824   56.3271 C   0  0  0  0  0  0  0  0  0  0  0  0
   17.8412   13.4666   55.2435 C   0  0  0  0  0  0  0  0  0  0  0  0
   18.4196   14.6397   54.5008 C   0  0  0  0  0  0  0  0  0  0  0  0
   16.9381   17.3174   54.5506 O   0  0  0  0  0  0  0  0  0  0  0  0
   18.1358   17.0163   54.9228 C   0  0  0  0  0  0  0  0  0  0  0  0
   19.0449   17.8628   54.7876 O   0  0  0  0  0  0  0  0  0  0  0  0
   16.2467   16.6923   54.6461 H   0  0  0  0  0  0  0  0  0  0  0  0
  7  8  1  0  0  0
  7  6  1  0  0  0
  8  1  1  0  0  0
  6  2  1  0  0  0
  2  1  1  0  0  0
  2  3  1  0  0  0
  1 10  1  0  0  0
  5  3  1  0  0  0
  3  4  2  0  0  0
 10 11  2  0  0  0
 10  9  1  0  0  0
  9 12  1  0  0  0
M  END
> <minimizedAffinity>
-4.14641

$$$$
4AVS_N7P_A_208


 12 12  0  0  0  0  0  0  0  0999 V2000
   18.6585   16.4601   56.3517 C   0  0  0  0  0  0  0  0  0  0  0  0
   17.5338   15.6100   56.5537 N   0  0  0  0  0  0  0  0  0  0  0  0
   17.2666   14.3701   55.7911 C   0  0  0  0  0  0  0  0  0  0  0  0
   16.2567   13.7134   56.0499 O   0  0  0  0  0  0  0  0  0  0  0  0
   18.2122   13.9447   54.7325 C   0  0  0  0  0  0  0  0  0  0  0  0
   16.6994   16.1243   57.5924 C   0  0  0  0  0  0  0  0  0  0  0  0
   17.1670   17.5164   57.8460 C   0  0  0  0  0  0  0  0  0  0  0  0
   18.6039   17.5133   57.4014 C   0  0  0  0  0  0  0  0  0  0  0  0
   20.8020   15.6332   55.5291 O   0  0  0  0  0  0  0  0  0  0  0  0
   19.9189   15.6955   56.4672 C   0  0  0  0  0  0  0  0  0  0  0  0
   20.1315   15.0955   57.5424 O   0  0  0  0  0  0  0  0  0  0  0  0
   20.6556   16.0782   54.7176 H   0  0  0  0  0  0  0  0  0  0  0  0
  7  8  1  0  0  0
  7  6  1  0  0  0
  8  1  1  0  0  0
  6  2  1  0  0  0
  2  1  1  0  0  0
  2  3  1  0  0  0
  1 10  1  0  0  0
  5  3  1  0  0  0
  3  4  2  0  0  0
 10 11  2  0  0  0
 10  9  1  0  0  0
  9 12  1  0  0  0
M  END
> <minimizedAffinity>
-4.06070

$$$$
4AVS_N7P_A_208


 12 12  0  0  0  0  0  0  0  0999 V2000
   16.9256   15.3686   56.4537 C   0  0  0  0  0  0  0  0  0  0  0  0
   17.5104   16.3010   55.5497 N   0  0  0  0  0  0  0  0  0  0  0  0
   17.2275   17.7536   55.5369 C   0  0  0  0  0  0  0  0  0  0  0  0
   17.7905   18.4663   54.7043 O   0  0  0  0  0  0  0  0  0  0  0  0
   16.2740   18.3215   56.5188 C   0  0  0  0  0  0  0  0  0  0  0  0
   18.4046   15.6364   54.6562 C   0  0  0  0  0  0  0  0  0  0  0  0
   18.1387   14.1786   54.8151 C   0  0  0  0  0  0  0  0  0  0  0  0
   17.5726   14.0524   56.2028 C   0  0  0  0  0  0  0  0  0  0  0  0
   16.2579   15.6938   58.7783 O   0  0  0  0  0  0  0  0  0  0  0  0
   17.1530   15.7856   57.8541 C   0  0  0  0  0  0  0  0  0  0  0  0
   18.2823   16.2347   58.1446 O   0  0  0  0  0  0  0  0  0  0  0  0
   15.4068   15.3589   58.5746 H   0  0  0  0  0  0  0  0  0  0  0  0
  7  8  1  0  0  0
  7  6  1  0  0  0
  8  1  1  0  0  0
  6  2  1  0  0  0
  2  1  1  0  0  0
  2  3  1  0  0  0
  1 10  1  0  0  0
  5  3  1  0  0  0
  3  4  2  0  0  0
 10 11  2  0  0  0
 10  9  1  0  0  0
  9 12  1  0  0  0
M  END
> <minimizedAffinity>
-4.05129

$$$$
4AVS_N7P_A_208


 12 12  0  0  0  0  0  0  0  0999 V2000
   18.3394   16.3276   54.5609 C   0  0  0  0  0  0  0  0  0  0  0  0
   17.7435   15.9335   55.7930 N   0  0  0  0  0  0  0  0  0  0  0  0
   17.4844   14.5327   56.1940 C   0  0  0  0  0  0  0  0  0  0  0  0
   16.9586   14.3095   57.2857 O   0  0  0  0  0  0  0  0  0  0  0  0
   17.8571   13.4291   55.2780 C   0  0  0  0  0  0  0  0  0  0  0  0
   17.4285   17.0799   56.5844 C   0  0  0  0  0  0  0  0  0  0  0  0
   17.5596   18.2556   55.6780 C   0  0  0  0  0  0  0  0  0  0  0  0
   18.5259   17.8027   54.6181 C   0  0  0  0  0  0  0  0  0  0  0  0
   19.9817   15.0437   53.2921 O   0  0  0  0  0  0  0  0  0  0  0  0
   19.6452   15.6592   54.3746 C   0  0  0  0  0  0  0  0  0  0  0  0
   20.4605   15.7155   55.3198 O   0  0  0  0  0  0  0  0  0  0  0  0
   19.3802   14.9937   52.5754 H   0  0  0  0  0  0  0  0  0  0  0  0
  7  8  1  0  0  0
  7  6  1  0  0  0
  8  1  1  0  0  0
  6  2  1  0  0  0
  2  1  1  0  0  0
  2  3  1  0  0  0
  1 10  1  0  0  0
  5  3  1  0  0  0
  3  4  2  0  0  0
 10 11  2  0  0  0
 10  9  1  0  0  0
  9 12  1  0  0  0
M  END
> <minimizedAffinity>
-3.88551

$$$$
4AVS_N7P_A_208


 12 12  0  0  0  0  0  0  0  0999 V2000
   18.6398   15.3011   54.5800 C   0  0  0  0  0  0  0  0  0  0  0  0
   18.0266   16.0982   55.5885 N   0  0  0  0  0  0  0  0  0  0  0  0
   18.1577   17.5684   55.6966 C   0  0  0  0  0  0  0  0  0  0  0  0
   17.5838   18.1551   56.6156 O   0  0  0  0  0  0  0  0  0  0  0  0
   18.9760   18.3044   54.7044 C   0  0  0  0  0  0  0  0  0  0  0  0
   17.2709   15.2790   56.4816 C   0  0  0  0  0  0  0  0  0  0  0  0
   17.6746   13.8735   56.1936 C   0  0  0  0  0  0  0  0  0  0  0  0
   18.1519   13.9080   54.7676 C   0  0  0  0  0  0  0  0  0  0  0  0
   19.1344   16.0290   52.3039 O   0  0  0  0  0  0  0  0  0  0  0  0
   18.2727   15.7889   53.2332 C   0  0  0  0  0  0  0  0  0  0  0  0
   17.0581   15.9582   52.9939 O   0  0  0  0  0  0  0  0  0  0  0  0
   20.0485   15.9064   52.4695 H   0  0  0  0  0  0  0  0  0  0  0  0
  7  8  1  0  0  0
  7  6  1  0  0  0
  8  1  1  0  0  0
  6  2  1  0  0  0
  2  1  1  0  0  0
  2  3  1  0  0  0
  1 10  1  0  0  0
  5  3  1  0  0  0
  3  4  2  0  0  0
 10 11  2  0  0  0
 10  9  1  0  0  0
  9 12  1  0  0  0
M  END
> <minimizedAffinity>
-3.69825

$$$$
4AVS_N7P_A_208


 12 12  0  0  0  0  0  0  0  0999 V2000
   17.9583   16.9253   54.5010 C   0  0  0  0  0  0  0  0  0  0  0  0
   18.7401   16.3009   55.5146 N   0  0  0  0  0  0  0  0  0  0  0  0
   18.6626   14.8679   55.8761 C   0  0  0  0  0  0  0  0  0  0  0  0
   19.3866   14.4368   56.7751 O   0  0  0  0  0  0  0  0  0  0  0  0
   17.7176   13.9823   55.1562 C   0  0  0  0  0  0  0  0  0  0  0  0
   19.6059   17.2527   56.1346 C   0  0  0  0  0  0  0  0  0  0  0  0
   19.1288   18.5936   55.6925 C   0  0  0  0  0  0  0  0  0  0  0  0
   18.4361   18.3295   54.3838 C   0  0  0  0  0  0  0  0  0  0  0  0
   19.2617   15.8213   52.7582 O   0  0  0  0  0  0  0  0  0  0  0  0
   18.1226   16.2252   53.2089 C   0  0  0  0  0  0  0  0  0  0  0  0
   17.0918   16.0079   52.5370 O   0  0  0  0  0  0  0  0  0  0  0  0
   20.0429   15.9775   53.2516 H   0  0  0  0  0  0  0  0  0  0  0  0
  7  8  1  0  0  0
  7  6  1  0  0  0
  8  1  1  0  0  0
  6  2  1  0  0  0
  2  1  1  0  0  0
  2  3  1  0  0  0
  1 10  1  0  0  0
  5  3  1  0  0  0
  3  4  2  0  0  0
 10 11  2  0  0  0
 10  9  1  0  0  0
  9 12  1  0  0  0
M  END
> <minimizedAffinity>
-3.60505

$$$$
4AVS_N7P_A_208


 12 12  0  0  0  0  0  0  0  0999 V2000
   18.7469   15.4486   56.3340 C   0  0  0  0  0  0  0  0  0  0  0  0
   18.6294   15.9237   54.9965 N   0  0  0  0  0  0  0  0  0  0  0  0
   18.8952   17.3157   54.5700 C   0  0  0  0  0  0  0  0  0  0  0  0
   18.7570   17.6154   53.3829 O   0  0  0  0  0  0  0  0  0  0  0  0
   19.3175   18.3201   55.5743 C   0  0  0  0  0  0  0  0  0  0  0  0
   18.2158   14.8692   54.1266 C   0  0  0  0  0  0  0  0  0  0  0  0
   17.7653   13.7576   55.0112 C   0  0  0  0  0  0  0  0  0  0  0  0
   18.5117   13.9798   56.2980 C   0  0  0  0  0  0  0  0  0  0  0  0
   21.1832   15.5223   56.2135 O   0  0  0  0  0  0  0  0  0  0  0  0
   20.0945   15.7322   56.8727 C   0  0  0  0  0  0  0  0  0  0  0  0
   20.1645   16.2144   58.0233 O   0  0  0  0  0  0  0  0  0  0  0  0
   21.1455   15.1611   55.3497 H   0  0  0  0  0  0  0  0  0  0  0  0
  7  8  1  0  0  0
  7  6  1  0  0  0
  8  1  1  0  0  0
  6  2  1  0  0  0
  2  1  1  0  0  0
  2  3  1  0  0  0
  1 10  1  0  0  0
  5  3  1  0  0  0
  3  4  2  0  0  0
 10 11  2  0  0  0
 10  9  1  0  0  0
  9 12  1  0  0  0
M  END
> <minimizedAffinity>
-3.46538

$$$$
