5J7W_MTX_C_402


 40 42  0  0  0  0  0  0  0  0999 V2000
  -18.7436  -15.5592   17.4390 C   0  0  0  0  0  0  0  0  0  0  0  0
  -17.6443  -14.7161   17.1853 C   0  0  0  0  0  0  0  0  0  0  0  0
  -16.3500  -15.0066   17.6777 C   0  0  0  0  0  0  0  0  0  0  0  0
  -16.0709  -16.1977   18.3737 C   0  0  0  0  0  0  0  0  0  0  0  0
  -17.1848  -17.0022   18.6661 C   0  0  0  0  0  0  0  0  0  0  0  0
  -18.4839  -16.7071   18.2013 C   0  0  0  0  0  0  0  0  0  0  0  0
  -20.1742  -15.2590   17.0014 C   0  0  0  0  0  0  0  0  0  0  0  0
  -20.6135  -15.7996   15.7852 O   0  0  0  0  0  0  0  0  0  0  0  0
  -21.1065  -14.5948   17.6981 N   0  0  0  0  0  0  0  0  0  0  0  0
  -20.8632  -14.2265   18.5782 H   0  0  0  0  0  0  0  0  0  0  0  0
  -22.5163  -14.3862   17.1911 C   0  0  0  0  0  0  0  0  0  0  0  0
  -22.7241  -13.2371   16.1966 C   0  0  0  0  0  0  0  0  0  0  0  0
  -23.1418  -12.0904   16.5200 O   0  0  0  0  0  0  0  0  0  0  0  0
  -22.5055  -13.4103   14.9819 O   0  0  0  0  0  0  0  0  0  0  0  0
  -22.1939  -14.2392   14.6755 H   0  0  0  0  0  0  0  0  0  0  0  0
  -23.5807  -14.3367   18.3262 C   0  0  0  0  0  0  0  0  0  0  0  0
  -23.0772  -14.0735   19.7534 C   0  0  0  0  0  0  0  0  0  0  0  0
  -22.9651  -12.5765   20.0250 C   0  0  0  0  0  0  0  0  0  0  0  0
  -23.7609  -11.9585   20.8083 O   0  0  0  0  0  0  0  0  0  0  0  0
  -22.0243  -11.9620   19.4289 O   0  0  0  0  0  0  0  0  0  0  0  0
  -21.4480  -12.4295   18.8568 H   0  0  0  0  0  0  0  0  0  0  0  0
  -14.7848  -16.5134   18.9768 N   0  0  0  0  0  0  0  0  0  0  0  0
  -13.8089  -16.7445   17.9095 C   0  0  0  0  0  0  0  0  0  0  0  0
  -14.1972  -16.8291   20.3261 C   0  0  0  0  0  0  0  0  0  0  0  0
  -16.3054  -12.2968   22.5403 N   0  0  0  0  0  0  0  0  0  0  0  0
  -17.3799  -12.6008   23.3737 C   0  0  0  0  0  0  0  0  0  0  0  0
  -18.0479  -11.6793   24.0233 N   0  0  0  0  0  0  0  0  0  0  0  0
  -17.7986  -13.8732   23.5934 N   0  0  0  0  0  0  0  0  0  0  0  0
  -17.1349  -14.8813   22.9832 C   0  0  0  0  0  0  0  0  0  0  0  0
  -17.4575  -16.1539   23.1277 N   0  0  0  0  0  0  0  0  0  0  0  0
  -16.0804  -14.5747   22.1791 C   0  0  0  0  0  0  0  0  0  0  0  0
  -15.5151  -15.6434   21.6110 N   0  0  0  0  0  0  0  0  0  0  0  0
  -14.4316  -15.4844   20.8205 C   0  0  0  0  0  0  0  0  0  0  0  0
  -13.8913  -14.2458   20.4578 C   0  0  0  0  0  0  0  0  0  0  0  0
  -14.5108  -13.1483   21.0557 N   0  0  0  0  0  0  0  0  0  0  0  0
  -15.6079  -13.3093   21.9126 C   0  0  0  0  0  0  0  0  0  0  0  0
  -17.8066  -10.7306   23.9186 H   0  0  0  0  0  0  0  0  0  0  0  0
  -18.7909  -11.9357   24.6161 H   0  0  0  0  0  0  0  0  0  0  0  0
  -18.2154  -16.4073   23.7027 H   0  0  0  0  0  0  0  0  0  0  0  0
  -16.9401  -16.8490   22.6604 H   0  0  0  0  0  0  0  0  0  0  0  0
 25 26  2  0  0  0
 25 36  1  0  0  0
 26 27  1  0  0  0
 26 28  1  0  0  0
 28 29  2  0  0  0
 29 30  1  0  0  0
 29 31  1  0  0  0
 31 32  1  0  0  0
 31 36  2  0  0  0
 32 33  2  0  0  0
 33 34  1  0  0  0
 33 24  1  0  0  0
 34 35  2  0  0  0
 35 36  1  0  0  0
 24 22  1  0  0  0
 22 23  1  0  0  0
 22  4  1  0  0  0
  1  2  2  0  0  0
  1  6  1  0  0  0
  1  7  1  0  0  0
  2  3  1  0  0  0
  3  4  2  0  0  0
  4  5  1  0  0  0
  5  6  2  0  0  0
  7  8  2  0  0  0
  7  9  1  0  0  0
  9 11  1  0  0  0
 11 12  1  0  0  0
 11 16  1  0  0  0
 12 13  2  0  0  0
 12 14  1  0  0  0
 16 17  1  0  0  0
 17 18  1  0  0  0
 18 19  2  0  0  0
 18 20  1  0  0  0
 27 37  1  0  0  0
 27 38  1  0  0  0
 30 39  1  0  0  0
 30 40  1  0  0  0
  9 10  1  0  0  0
 14 15  1  0  0  0
 20 21  1  0  0  0
M  END
> <minimizedAffinity>
0.00000

$$$$
5J7W_MTX_C_402


 40 42  0  0  0  0  0  0  0  0999 V2000
  -13.9912  -21.0933   15.4375 C   0  0  0  0  0  0  0  0  0  0  0  0
  -14.2676  -20.4975   14.1916 C   0  0  0  0  0  0  0  0  0  0  0  0
  -14.0807  -19.1131   13.9670 C   0  0  0  0  0  0  0  0  0  0  0  0
  -13.5259  -18.2704   14.9484 C   0  0  0  0  0  0  0  0  0  0  0  0
  -13.3056  -18.8654   16.2017 C   0  0  0  0  0  0  0  0  0  0  0  0
  -13.5136  -20.2399   16.4425 C   0  0  0  0  0  0  0  0  0  0  0  0
  -14.2461  -22.5624   15.7615 C   0  0  0  0  0  0  0  0  0  0  0  0
  -13.1682  -23.4520   15.6571 O   0  0  0  0  0  0  0  0  0  0  0  0
  -15.3833  -23.0989   16.2250 N   0  0  0  0  0  0  0  0  0  0  0  0
  -16.1625  -22.5113   16.3547 H   0  0  0  0  0  0  0  0  0  0  0  0
  -15.5217  -24.5681   16.5573 C   0  0  0  0  0  0  0  0  0  0  0  0
  -15.7929  -25.5144   15.3810 C   0  0  0  0  0  0  0  0  0  0  0  0
  -16.9404  -25.9328   15.0616 O   0  0  0  0  0  0  0  0  0  0  0  0
  -14.8491  -25.9424   14.6886 O   0  0  0  0  0  0  0  0  0  0  0  0
  -13.9716  -25.6706   14.8734 H   0  0  0  0  0  0  0  0  0  0  0  0
  -16.5055  -24.8465   17.7314 C   0  0  0  0  0  0  0  0  0  0  0  0
  -17.4955  -23.7315   18.1007 C   0  0  0  0  0  0  0  0  0  0  0  0
  -18.7578  -23.8184   17.2483 C   0  0  0  0  0  0  0  0  0  0  0  0
  -19.8838  -24.1862   17.7231 O   0  0  0  0  0  0  0  0  0  0  0  0
  -18.6366  -23.4984   16.0232 O   0  0  0  0  0  0  0  0  0  0  0  0
  -17.8032  -23.2304   15.6892 H   0  0  0  0  0  0  0  0  0  0  0  0
  -13.3879  -16.8285   14.8089 N   0  0  0  0  0  0  0  0  0  0  0  0
  -12.3601  -16.5494   13.8037 C   0  0  0  0  0  0  0  0  0  0  0  0
  -13.8483  -15.5620   15.4795 C   0  0  0  0  0  0  0  0  0  0  0  0
  -19.0996  -17.0424   15.1330 N   0  0  0  0  0  0  0  0  0  0  0  0
  -19.5950  -17.4228   16.3786 C   0  0  0  0  0  0  0  0  0  0  0  0
  -20.8333  -17.8150   16.5523 N   0  0  0  0  0  0  0  0  0  0  0  0
  -18.8406  -17.3926   17.5066 N   0  0  0  0  0  0  0  0  0  0  0  0
  -17.5609  -16.9654   17.4112 C   0  0  0  0  0  0  0  0  0  0  0  0
  -16.7407  -16.8959   18.4441 N   0  0  0  0  0  0  0  0  0  0  0  0
  -17.0895  -16.5864   16.1918 C   0  0  0  0  0  0  0  0  0  0  0  0
  -15.8092  -16.2057   16.2104 N   0  0  0  0  0  0  0  0  0  0  0  0
  -15.2273  -15.7656   15.0737 C   0  0  0  0  0  0  0  0  0  0  0  0
  -15.8438  -15.7648   13.8178 C   0  0  0  0  0  0  0  0  0  0  0  0
  -17.1753  -16.1802   13.8280 N   0  0  0  0  0  0  0  0  0  0  0  0
  -17.7990  -16.5958   15.0120 C   0  0  0  0  0  0  0  0  0  0  0  0
  -21.4464  -17.8646   15.7836 H   0  0  0  0  0  0  0  0  0  0  0  0
  -21.1505  -18.0599   17.4516 H   0  0  0  0  0  0  0  0  0  0  0  0
  -17.0524  -17.1630   19.3389 H   0  0  0  0  0  0  0  0  0  0  0  0
  -15.8178  -16.5769   18.3192 H   0  0  0  0  0  0  0  0  0  0  0  0
 25 26  2  0  0  0
 25 36  1  0  0  0
 26 27  1  0  0  0
 26 28  1  0  0  0
 28 29  2  0  0  0
 29 30  1  0  0  0
 29 31  1  0  0  0
 31 32  1  0  0  0
 31 36  2  0  0  0
 32 33  2  0  0  0
 33 34  1  0  0  0
 33 24  1  0  0  0
 34 35  2  0  0  0
 35 36  1  0  0  0
 24 22  1  0  0  0
 22 23  1  0  0  0
 22  4  1  0  0  0
  1  2  2  0  0  0
  1  6  1  0  0  0
  1  7  1  0  0  0
  2  3  1  0  0  0
  3  4  2  0  0  0
  4  5  1  0  0  0
  5  6  2  0  0  0
  7  8  2  0  0  0
  7  9  1  0  0  0
  9 11  1  0  0  0
 11 12  1  0  0  0
 11 16  1  0  0  0
 12 13  2  0  0  0
 12 14  1  0  0  0
 16 17  1  0  0  0
 17 18  1  0  0  0
 18 19  2  0  0  0
 18 20  1  0  0  0
 27 37  1  0  0  0
 27 38  1  0  0  0
 30 39  1  0  0  0
 30 40  1  0  0  0
  9 10  1  0  0  0
 14 15  1  0  0  0
 20 21  1  0  0  0
M  END
> <minimizedAffinity>
0.00058

$$$$
5J7W_MTX_C_402


 40 42  0  0  0  0  0  0  0  0999 V2000
  -20.9723  -20.5009   19.1292 C   0  0  0  0  0  0  0  0  0  0  0  0
  -21.1654  -19.2091   18.6023 C   0  0  0  0  0  0  0  0  0  0  0  0
  -22.1372  -18.9446   17.6084 C   0  0  0  0  0  0  0  0  0  0  0  0
  -23.0237  -19.9389   17.1542 C   0  0  0  0  0  0  0  0  0  0  0  0
  -22.7852  -21.2325   17.6474 C   0  0  0  0  0  0  0  0  0  0  0  0
  -21.8011  -21.5105   18.6195 C   0  0  0  0  0  0  0  0  0  0  0  0
  -19.8905  -20.8611   20.1432 C   0  0  0  0  0  0  0  0  0  0  0  0
  -20.2355  -20.8451   21.5015 O   0  0  0  0  0  0  0  0  0  0  0  0
  -18.6460  -21.2812   19.8775 N   0  0  0  0  0  0  0  0  0  0  0  0
  -18.3625  -21.3488   18.9371 H   0  0  0  0  0  0  0  0  0  0  0  0
  -17.6579  -21.6560   20.9597 C   0  0  0  0  0  0  0  0  0  0  0  0
  -16.9083  -20.4999   21.6337 C   0  0  0  0  0  0  0  0  0  0  0  0
  -15.7426  -20.1338   21.3160 O   0  0  0  0  0  0  0  0  0  0  0  0
  -17.4340  -19.8742   22.5748 O   0  0  0  0  0  0  0  0  0  0  0  0
  -18.2984  -20.0963   22.8601 H   0  0  0  0  0  0  0  0  0  0  0  0
  -16.6717  -22.7828   20.5335 C   0  0  0  0  0  0  0  0  0  0  0  0
  -16.5227  -23.0571   19.0294 C   0  0  0  0  0  0  0  0  0  0  0  0
  -15.4751  -22.1383   18.4085 C   0  0  0  0  0  0  0  0  0  0  0  0
  -14.3374  -22.5610   18.0138 O   0  0  0  0  0  0  0  0  0  0  0  0
  -15.7932  -20.9119   18.2959 O   0  0  0  0  0  0  0  0  0  0  0  0
  -16.6323  -20.6166   18.5902 H   0  0  0  0  0  0  0  0  0  0  0  0
  -23.9846  -19.7518   16.0776 N   0  0  0  0  0  0  0  0  0  0  0  0
  -25.0281  -18.8308   16.5333 C   0  0  0  0  0  0  0  0  0  0  0  0
  -24.3198  -20.3250   14.7268 C   0  0  0  0  0  0  0  0  0  0  0  0
  -19.2177  -19.5806   12.9093 N   0  0  0  0  0  0  0  0  0  0  0  0
  -18.5373  -20.7933   12.8190 C   0  0  0  0  0  0  0  0  0  0  0  0
  -17.2974  -20.8739   12.4026 N   0  0  0  0  0  0  0  0  0  0  0  0
  -19.1145  -21.9813   13.1318 N   0  0  0  0  0  0  0  0  0  0  0  0
  -20.4048  -21.9807   13.5370 C   0  0  0  0  0  0  0  0  0  0  0  0
  -21.0625  -23.0783   13.8645 N   0  0  0  0  0  0  0  0  0  0  0  0
  -21.0638  -20.7921   13.6121 C   0  0  0  0  0  0  0  0  0  0  0  0
  -22.3223  -20.9071   14.0451 N   0  0  0  0  0  0  0  0  0  0  0  0
  -23.1027  -19.8079   14.1276 C   0  0  0  0  0  0  0  0  0  0  0  0
  -22.6612  -18.5033   13.8812 C   0  0  0  0  0  0  0  0  0  0  0  0
  -21.3397  -18.4140   13.4440 N   0  0  0  0  0  0  0  0  0  0  0  0
  -20.5375  -19.5555   13.3132 C   0  0  0  0  0  0  0  0  0  0  0  0
  -16.8070  -20.0567   12.1555 H   0  0  0  0  0  0  0  0  0  0  0  0
  -16.8563  -21.7516   12.3368 H   0  0  0  0  0  0  0  0  0  0  0  0
  -20.6130  -23.9531   13.8203 H   0  0  0  0  0  0  0  0  0  0  0  0
  -22.0021  -23.0216   14.1529 H   0  0  0  0  0  0  0  0  0  0  0  0
 25 26  2  0  0  0
 25 36  1  0  0  0
 26 27  1  0  0  0
 26 28  1  0  0  0
 28 29  2  0  0  0
 29 30  1  0  0  0
 29 31  1  0  0  0
 31 32  1  0  0  0
 31 36  2  0  0  0
 32 33  2  0  0  0
 33 34  1  0  0  0
 33 24  1  0  0  0
 34 35  2  0  0  0
 35 36  1  0  0  0
 24 22  1  0  0  0
 22 23  1  0  0  0
 22  4  1  0  0  0
  1  2  2  0  0  0
  1  6  1  0  0  0
  1  7  1  0  0  0
  2  3  1  0  0  0
  3  4  2  0  0  0
  4  5  1  0  0  0
  5  6  2  0  0  0
  7  8  2  0  0  0
  7  9  1  0  0  0
  9 11  1  0  0  0
 11 12  1  0  0  0
 11 16  1  0  0  0
 12 13  2  0  0  0
 12 14  1  0  0  0
 16 17  1  0  0  0
 17 18  1  0  0  0
 18 19  2  0  0  0
 18 20  1  0  0  0
 27 37  1  0  0  0
 27 38  1  0  0  0
 30 39  1  0  0  0
 30 40  1  0  0  0
  9 10  1  0  0  0
 14 15  1  0  0  0
 20 21  1  0  0  0
M  END
> <minimizedAffinity>
0.00147

$$$$
5J7W_MTX_C_402


 40 42  0  0  0  0  0  0  0  0999 V2000
  -16.5707  -19.6934   21.5373 C   0  0  0  0  0  0  0  0  0  0  0  0
  -16.4850  -21.0773   21.7842 C   0  0  0  0  0  0  0  0  0  0  0  0
  -17.5746  -21.9480   21.5466 C   0  0  0  0  0  0  0  0  0  0  0  0
  -18.7749  -21.4941   20.9683 C   0  0  0  0  0  0  0  0  0  0  0  0
  -18.8664  -20.1053   20.7775 C   0  0  0  0  0  0  0  0  0  0  0  0
  -17.7939  -19.2258   21.0361 C   0  0  0  0  0  0  0  0  0  0  0  0
  -15.4581  -18.6961   21.8466 C   0  0  0  0  0  0  0  0  0  0  0  0
  -14.6815  -18.2296   20.7772 O   0  0  0  0  0  0  0  0  0  0  0  0
  -15.1845  -18.1380   23.0339 N   0  0  0  0  0  0  0  0  0  0  0  0
  -15.7254  -18.4005   23.8134 H   0  0  0  0  0  0  0  0  0  0  0  0
  -14.0807  -17.1221   23.2281 C   0  0  0  0  0  0  0  0  0  0  0  0
  -12.6594  -17.6764   23.3885 C   0  0  0  0  0  0  0  0  0  0  0  0
  -12.0905  -17.8491   24.5022 O   0  0  0  0  0  0  0  0  0  0  0  0
  -11.9791  -17.9610   22.3838 O   0  0  0  0  0  0  0  0  0  0  0  0
  -12.3426  -17.8555   21.5266 H   0  0  0  0  0  0  0  0  0  0  0  0
  -14.3944  -16.0718   24.3337 C   0  0  0  0  0  0  0  0  0  0  0  0
  -15.5017  -16.4179   25.3406 C   0  0  0  0  0  0  0  0  0  0  0  0
  -14.9443  -17.2265   26.5080 C   0  0  0  0  0  0  0  0  0  0  0  0
  -14.8227  -16.7433   27.6829 O   0  0  0  0  0  0  0  0  0  0  0  0
  -14.6041  -18.4257   26.2546 O   0  0  0  0  0  0  0  0  0  0  0  0
  -14.6993  -18.7663   25.3869 H   0  0  0  0  0  0  0  0  0  0  0  0
  -19.9577  -22.3199   20.7781 N   0  0  0  0  0  0  0  0  0  0  0  0
  -19.6902  -23.2856   19.7100 C   0  0  0  0  0  0  0  0  0  0  0  0
  -21.3961  -22.3820   21.2171 C   0  0  0  0  0  0  0  0  0  0  0  0
  -19.9854  -22.2073   26.4961 N   0  0  0  0  0  0  0  0  0  0  0  0
  -20.2545  -20.9548   27.0442 C   0  0  0  0  0  0  0  0  0  0  0  0
  -20.0066  -20.6690   28.2990 N   0  0  0  0  0  0  0  0  0  0  0  0
  -20.8145  -19.9472   26.3276 N   0  0  0  0  0  0  0  0  0  0  0  0
  -21.1302  -20.1793   25.0331 C   0  0  0  0  0  0  0  0  0  0  0  0
  -21.6783  -19.2710   24.2464 N   0  0  0  0  0  0  0  0  0  0  0  0
  -20.8727  -21.4092   24.5098 C   0  0  0  0  0  0  0  0  0  0  0  0
  -21.2024  -21.5190   23.2200 N   0  0  0  0  0  0  0  0  0  0  0  0
  -21.0371  -22.7008   22.5872 C   0  0  0  0  0  0  0  0  0  0  0  0
  -20.4415  -23.8293   23.1609 C   0  0  0  0  0  0  0  0  0  0  0  0
  -20.0957  -23.6799   24.5039 N   0  0  0  0  0  0  0  0  0  0  0  0
  -20.3057  -22.4702   25.1793 C   0  0  0  0  0  0  0  0  0  0  0  0
  -19.6006  -21.3461   28.8871 H   0  0  0  0  0  0  0  0  0  0  0  0
  -20.2265  -19.7772   28.6534 H   0  0  0  0  0  0  0  0  0  0  0  0
  -21.8765  -18.3722   24.5958 H   0  0  0  0  0  0  0  0  0  0  0  0
  -21.8887  -19.4927   23.3105 H   0  0  0  0  0  0  0  0  0  0  0  0
 25 26  2  0  0  0
 25 36  1  0  0  0
 26 27  1  0  0  0
 26 28  1  0  0  0
 28 29  2  0  0  0
 29 30  1  0  0  0
 29 31  1  0  0  0
 31 32  1  0  0  0
 31 36  2  0  0  0
 32 33  2  0  0  0
 33 34  1  0  0  0
 33 24  1  0  0  0
 34 35  2  0  0  0
 35 36  1  0  0  0
 24 22  1  0  0  0
 22 23  1  0  0  0
 22  4  1  0  0  0
  1  2  2  0  0  0
  1  6  1  0  0  0
  1  7  1  0  0  0
  2  3  1  0  0  0
  3  4  2  0  0  0
  4  5  1  0  0  0
  5  6  2  0  0  0
  7  8  2  0  0  0
  7  9  1  0  0  0
  9 11  1  0  0  0
 11 12  1  0  0  0
 11 16  1  0  0  0
 12 13  2  0  0  0
 12 14  1  0  0  0
 16 17  1  0  0  0
 17 18  1  0  0  0
 18 19  2  0  0  0
 18 20  1  0  0  0
 27 37  1  0  0  0
 27 38  1  0  0  0
 30 39  1  0  0  0
 30 40  1  0  0  0
  9 10  1  0  0  0
 14 15  1  0  0  0
 20 21  1  0  0  0
M  END
> <minimizedAffinity>
0.00424

$$$$
5J7W_MTX_C_402


 40 42  0  0  0  0  0  0  0  0999 V2000
  -17.8347  -17.7564   20.0255 C   0  0  0  0  0  0  0  0  0  0  0  0
  -18.4254  -18.7925   19.2763 C   0  0  0  0  0  0  0  0  0  0  0  0
  -19.6564  -19.3795   19.6532 C   0  0  0  0  0  0  0  0  0  0  0  0
  -20.4019  -18.9022   20.7474 C   0  0  0  0  0  0  0  0  0  0  0  0
  -19.7769  -17.9065   21.5164 C   0  0  0  0  0  0  0  0  0  0  0  0
  -18.5371  -17.3331   21.1628 C   0  0  0  0  0  0  0  0  0  0  0  0
  -16.4747  -17.1393   19.7128 C   0  0  0  0  0  0  0  0  0  0  0  0
  -16.4505  -15.9520   18.9684 O   0  0  0  0  0  0  0  0  0  0  0  0
  -15.2796  -17.5627   20.1469 N   0  0  0  0  0  0  0  0  0  0  0  0
  -15.2416  -18.3713   20.7072 H   0  0  0  0  0  0  0  0  0  0  0  0
  -13.9866  -16.8521   19.8135 C   0  0  0  0  0  0  0  0  0  0  0  0
  -13.3717  -17.1558   18.4415 C   0  0  0  0  0  0  0  0  0  0  0  0
  -12.4454  -17.9924   18.2525 O   0  0  0  0  0  0  0  0  0  0  0  0
  -13.7615  -16.5427   17.4288 O   0  0  0  0  0  0  0  0  0  0  0  0
  -14.4467  -15.9076   17.5005 H   0  0  0  0  0  0  0  0  0  0  0  0
  -12.9147  -16.9587   20.9376 C   0  0  0  0  0  0  0  0  0  0  0  0
  -13.1027  -18.0636   21.9881 C   0  0  0  0  0  0  0  0  0  0  0  0
  -12.4900  -19.3776   21.5134 C   0  0  0  0  0  0  0  0  0  0  0  0
  -11.4292  -19.8667   22.0273 O   0  0  0  0  0  0  0  0  0  0  0  0
  -13.0965  -19.9765   20.5692 O   0  0  0  0  0  0  0  0  0  0  0  0
  -13.8744  -19.6049   20.2020 H   0  0  0  0  0  0  0  0  0  0  0  0
  -21.6281  -19.5156   21.2349 N   0  0  0  0  0  0  0  0  0  0  0  0
  -22.6868  -19.3008   20.2461 C   0  0  0  0  0  0  0  0  0  0  0  0
  -22.1755  -20.1478   22.4865 C   0  0  0  0  0  0  0  0  0  0  0  0
  -18.0051  -23.6700   22.7859 N   0  0  0  0  0  0  0  0  0  0  0  0
  -17.1310  -23.3235   23.8143 C   0  0  0  0  0  0  0  0  0  0  0  0
  -16.0554  -24.0208   24.0870 N   0  0  0  0  0  0  0  0  0  0  0  0
  -17.3406  -22.2545   24.6239 N   0  0  0  0  0  0  0  0  0  0  0  0
  -18.4497  -21.5065   24.4246 C   0  0  0  0  0  0  0  0  0  0  0  0
  -18.7504  -20.4470   25.1536 N   0  0  0  0  0  0  0  0  0  0  0  0
  -19.3025  -21.8591   23.4240 C   0  0  0  0  0  0  0  0  0  0  0  0
  -20.3497  -21.0388   23.3027 N   0  0  0  0  0  0  0  0  0  0  0  0
  -21.2960  -21.2973   22.3743 C   0  0  0  0  0  0  0  0  0  0  0  0
  -21.2214  -22.3313   21.4347 C   0  0  0  0  0  0  0  0  0  0  0  0
  -20.1105  -23.1625   21.5778 N   0  0  0  0  0  0  0  0  0  0  0  0
  -19.1474  -22.9262   22.5680 C   0  0  0  0  0  0  0  0  0  0  0  0
  -15.8316  -24.8123   23.5460 H   0  0  0  0  0  0  0  0  0  0  0  0
  -15.4712  -23.7531   24.8328 H   0  0  0  0  0  0  0  0  0  0  0  0
  -18.1533  -20.1669   25.8845 H   0  0  0  0  0  0  0  0  0  0  0  0
  -19.5716  -19.9375   24.9661 H   0  0  0  0  0  0  0  0  0  0  0  0
 25 26  2  0  0  0
 25 36  1  0  0  0
 26 27  1  0  0  0
 26 28  1  0  0  0
 28 29  2  0  0  0
 29 30  1  0  0  0
 29 31  1  0  0  0
 31 32  1  0  0  0
 31 36  2  0  0  0
 32 33  2  0  0  0
 33 34  1  0  0  0
 33 24  1  0  0  0
 34 35  2  0  0  0
 35 36  1  0  0  0
 24 22  1  0  0  0
 22 23  1  0  0  0
 22  4  1  0  0  0
  1  2  2  0  0  0
  1  6  1  0  0  0
  1  7  1  0  0  0
  2  3  1  0  0  0
  3  4  2  0  0  0
  4  5  1  0  0  0
  5  6  2  0  0  0
  7  8  2  0  0  0
  7  9  1  0  0  0
  9 11  1  0  0  0
 11 12  1  0  0  0
 11 16  1  0  0  0
 12 13  2  0  0  0
 12 14  1  0  0  0
 16 17  1  0  0  0
 17 18  1  0  0  0
 18 19  2  0  0  0
 18 20  1  0  0  0
 27 37  1  0  0  0
 27 38  1  0  0  0
 30 39  1  0  0  0
 30 40  1  0  0  0
  9 10  1  0  0  0
 14 15  1  0  0  0
 20 21  1  0  0  0
M  END
> <minimizedAffinity>
0.00538

$$$$
5J7W_MTX_C_402


 40 42  0  0  0  0  0  0  0  0999 V2000
  -21.5201  -19.1655   15.5340 C   0  0  0  0  0  0  0  0  0  0  0  0
  -20.6122  -19.6071   14.5520 C   0  0  0  0  0  0  0  0  0  0  0  0
  -20.2421  -20.9676   14.4337 C   0  0  0  0  0  0  0  0  0  0  0  0
  -20.8264  -21.9678   15.2331 C   0  0  0  0  0  0  0  0  0  0  0  0
  -21.6883  -21.5080   16.2426 C   0  0  0  0  0  0  0  0  0  0  0  0
  -22.0432  -20.1498   16.3847 C   0  0  0  0  0  0  0  0  0  0  0  0
  -21.8967  -17.7042   15.7594 C   0  0  0  0  0  0  0  0  0  0  0  0
  -23.0360  -17.2139   15.1066 O   0  0  0  0  0  0  0  0  0  0  0  0
  -21.3017  -16.8387   16.5917 N   0  0  0  0  0  0  0  0  0  0  0  0
  -20.5189  -17.1423   17.1058 H   0  0  0  0  0  0  0  0  0  0  0  0
  -21.7805  -15.4157   16.7755 C   0  0  0  0  0  0  0  0  0  0  0  0
  -21.3317  -14.3994   15.7178 C   0  0  0  0  0  0  0  0  0  0  0  0
  -20.3491  -13.6198   15.8600 O   0  0  0  0  0  0  0  0  0  0  0  0
  -21.9635  -14.2840   14.6497 O   0  0  0  0  0  0  0  0  0  0  0  0
  -22.7039  -14.8331   14.4816 H   0  0  0  0  0  0  0  0  0  0  0  0
  -21.5420  -14.8636   18.2115 C   0  0  0  0  0  0  0  0  0  0  0  0
  -20.5209  -15.6021   19.0898 C   0  0  0  0  0  0  0  0  0  0  0  0
  -19.1086  -15.0825   18.8389 C   0  0  0  0  0  0  0  0  0  0  0  0
  -18.4731  -14.3790   19.6932 O   0  0  0  0  0  0  0  0  0  0  0  0
  -18.5821  -15.3907   17.7227 O   0  0  0  0  0  0  0  0  0  0  0  0
  -19.0613  -15.9080   17.1056 H   0  0  0  0  0  0  0  0  0  0  0  0
  -20.4279  -23.3672   15.2180 N   0  0  0  0  0  0  0  0  0  0  0  0
  -20.8203  -23.9541   13.9348 C   0  0  0  0  0  0  0  0  0  0  0  0
  -19.8949  -24.4184   16.1543 C   0  0  0  0  0  0  0  0  0  0  0  0
  -15.7171  -21.2474   17.6968 N   0  0  0  0  0  0  0  0  0  0  0  0
  -15.9050  -20.7680   18.9917 C   0  0  0  0  0  0  0  0  0  0  0  0
  -15.0345  -19.9890   19.5856 N   0  0  0  0  0  0  0  0  0  0  0  0
  -16.9893  -21.0910   19.7416 N   0  0  0  0  0  0  0  0  0  0  0  0
  -17.9150  -21.9197   19.2072 C   0  0  0  0  0  0  0  0  0  0  0  0
  -19.0057  -22.2982   19.8487 N   0  0  0  0  0  0  0  0  0  0  0  0
  -17.7173  -22.3906   17.9456 C   0  0  0  0  0  0  0  0  0  0  0  0
  -18.7035  -23.1800   17.5109 N   0  0  0  0  0  0  0  0  0  0  0  0
  -18.6139  -23.7485   16.2891 C   0  0  0  0  0  0  0  0  0  0  0  0
  -17.5878  -23.4964   15.3720 C   0  0  0  0  0  0  0  0  0  0  0  0
  -16.5801  -22.6583   15.8491 N   0  0  0  0  0  0  0  0  0  0  0  0
  -16.6445  -22.1004   17.1330 C   0  0  0  0  0  0  0  0  0  0  0  0
  -14.2197  -19.7083   19.1095 H   0  0  0  0  0  0  0  0  0  0  0  0
  -15.1952  -19.6844   20.5079 H   0  0  0  0  0  0  0  0  0  0  0  0
  -19.1766  -21.9745   20.7626 H   0  0  0  0  0  0  0  0  0  0  0  0
  -19.6477  -22.9042   19.4129 H   0  0  0  0  0  0  0  0  0  0  0  0
 25 26  2  0  0  0
 25 36  1  0  0  0
 26 27  1  0  0  0
 26 28  1  0  0  0
 28 29  2  0  0  0
 29 30  1  0  0  0
 29 31  1  0  0  0
 31 32  1  0  0  0
 31 36  2  0  0  0
 32 33  2  0  0  0
 33 34  1  0  0  0
 33 24  1  0  0  0
 34 35  2  0  0  0
 35 36  1  0  0  0
 24 22  1  0  0  0
 22 23  1  0  0  0
 22  4  1  0  0  0
  1  2  2  0  0  0
  1  6  1  0  0  0
  1  7  1  0  0  0
  2  3  1  0  0  0
  3  4  2  0  0  0
  4  5  1  0  0  0
  5  6  2  0  0  0
  7  8  2  0  0  0
  7  9  1  0  0  0
  9 11  1  0  0  0
 11 12  1  0  0  0
 11 16  1  0  0  0
 12 13  2  0  0  0
 12 14  1  0  0  0
 16 17  1  0  0  0
 17 18  1  0  0  0
 18 19  2  0  0  0
 18 20  1  0  0  0
 27 37  1  0  0  0
 27 38  1  0  0  0
 30 39  1  0  0  0
 30 40  1  0  0  0
  9 10  1  0  0  0
 14 15  1  0  0  0
 20 21  1  0  0  0
M  END
> <minimizedAffinity>
0.00549

$$$$
5J7W_MTX_C_402


 40 42  0  0  0  0  0  0  0  0999 V2000
  -16.4073  -21.4935   19.6410 C   0  0  0  0  0  0  0  0  0  0  0  0
  -16.7057  -22.8257   19.2951 C   0  0  0  0  0  0  0  0  0  0  0  0
  -18.0177  -23.2348   18.9584 C   0  0  0  0  0  0  0  0  0  0  0  0
  -19.0804  -22.3167   18.8655 C   0  0  0  0  0  0  0  0  0  0  0  0
  -18.7813  -21.0035   19.2647 C   0  0  0  0  0  0  0  0  0  0  0  0
  -17.4812  -20.5920   19.6270 C   0  0  0  0  0  0  0  0  0  0  0  0
  -15.0304  -21.0107   20.0874 C   0  0  0  0  0  0  0  0  0  0  0  0
  -14.1722  -20.4874   19.1106 O   0  0  0  0  0  0  0  0  0  0  0  0
  -14.5670  -20.9494   21.3433 N   0  0  0  0  0  0  0  0  0  0  0  0
  -15.1443  -21.2680   22.0743 H   0  0  0  0  0  0  0  0  0  0  0  0
  -13.1953  -20.4119   21.6865 C   0  0  0  0  0  0  0  0  0  0  0  0
  -12.0170  -21.3783   21.5116 C   0  0  0  0  0  0  0  0  0  0  0  0
  -11.5057  -22.0458   22.4532 O   0  0  0  0  0  0  0  0  0  0  0  0
  -11.4841  -21.5233   20.3943 O   0  0  0  0  0  0  0  0  0  0  0  0
  -11.8157  -21.0561   19.6529 H   0  0  0  0  0  0  0  0  0  0  0  0
  -13.1357  -19.7101   23.0749 C   0  0  0  0  0  0  0  0  0  0  0  0
  -14.2715  -20.0092   24.0650 C   0  0  0  0  0  0  0  0  0  0  0  0
  -13.9707  -21.2651   24.8772 C   0  0  0  0  0  0  0  0  0  0  0  0
  -13.6751  -21.2268   26.1181 O   0  0  0  0  0  0  0  0  0  0  0  0
  -14.0328  -22.3715   24.2525 O   0  0  0  0  0  0  0  0  0  0  0  0
  -14.2511  -22.3835   23.3414 H   0  0  0  0  0  0  0  0  0  0  0  0
  -20.4640  -22.6865   18.6080 N   0  0  0  0  0  0  0  0  0  0  0  0
  -20.5714  -23.1777   17.2325 C   0  0  0  0  0  0  0  0  0  0  0  0
  -21.8206  -22.5710   19.2498 C   0  0  0  0  0  0  0  0  0  0  0  0
  -20.0611  -24.8372   23.9034 N   0  0  0  0  0  0  0  0  0  0  0  0
  -19.9504  -23.8835   24.9133 C   0  0  0  0  0  0  0  0  0  0  0  0
  -19.5515  -24.1857   26.1244 N   0  0  0  0  0  0  0  0  0  0  0  0
  -20.2700  -22.5778   24.7250 N   0  0  0  0  0  0  0  0  0  0  0  0
  -20.7226  -22.1970   23.5087 C   0  0  0  0  0  0  0  0  0  0  0  0
  -21.0619  -20.9542   23.2177 N   0  0  0  0  0  0  0  0  0  0  0  0
  -20.8368  -23.1381   22.5319 C   0  0  0  0  0  0  0  0  0  0  0  0
  -21.2701  -22.6474   21.3675 N   0  0  0  0  0  0  0  0  0  0  0  0
  -21.4674  -23.4817   20.3238 C   0  0  0  0  0  0  0  0  0  0  0  0
  -21.1554  -24.8455   20.3306 C   0  0  0  0  0  0  0  0  0  0  0  0
  -20.6925  -25.3258   21.5556 N   0  0  0  0  0  0  0  0  0  0  0  0
  -20.5278  -24.4740   22.6561 C   0  0  0  0  0  0  0  0  0  0  0  0
  -19.3010  -25.1123   26.3433 H   0  0  0  0  0  0  0  0  0  0  0  0
  -19.5024  -23.4861   26.8154 H   0  0  0  0  0  0  0  0  0  0  0  0
  -20.9904  -20.2511   23.9031 H   0  0  0  0  0  0  0  0  0  0  0  0
  -21.3863  -20.7309   22.3154 H   0  0  0  0  0  0  0  0  0  0  0  0
 25 26  2  0  0  0
 25 36  1  0  0  0
 26 27  1  0  0  0
 26 28  1  0  0  0
 28 29  2  0  0  0
 29 30  1  0  0  0
 29 31  1  0  0  0
 31 32  1  0  0  0
 31 36  2  0  0  0
 32 33  2  0  0  0
 33 34  1  0  0  0
 33 24  1  0  0  0
 34 35  2  0  0  0
 35 36  1  0  0  0
 24 22  1  0  0  0
 22 23  1  0  0  0
 22  4  1  0  0  0
  1  2  2  0  0  0
  1  6  1  0  0  0
  1  7  1  0  0  0
  2  3  1  0  0  0
  3  4  2  0  0  0
  4  5  1  0  0  0
  5  6  2  0  0  0
  7  8  2  0  0  0
  7  9  1  0  0  0
  9 11  1  0  0  0
 11 12  1  0  0  0
 11 16  1  0  0  0
 12 13  2  0  0  0
 12 14  1  0  0  0
 16 17  1  0  0  0
 17 18  1  0  0  0
 18 19  2  0  0  0
 18 20  1  0  0  0
 27 37  1  0  0  0
 27 38  1  0  0  0
 30 39  1  0  0  0
 30 40  1  0  0  0
  9 10  1  0  0  0
 14 15  1  0  0  0
 20 21  1  0  0  0
M  END
> <minimizedAffinity>
0.00559

$$$$
5J7W_MTX_C_402


 40 42  0  0  0  0  0  0  0  0999 V2000
  -19.3875  -18.2925   23.0359 C   0  0  0  0  0  0  0  0  0  0  0  0
  -19.3764  -17.4002   21.9462 C   0  0  0  0  0  0  0  0  0  0  0  0
  -19.1755  -17.8446   20.6180 C   0  0  0  0  0  0  0  0  0  0  0  0
  -19.0628  -19.2115   20.3018 C   0  0  0  0  0  0  0  0  0  0  0  0
  -19.0215  -20.0848   21.4014 C   0  0  0  0  0  0  0  0  0  0  0  0
  -19.1951  -19.6478   22.7316 C   0  0  0  0  0  0  0  0  0  0  0  0
  -19.5215  -17.8644   24.4942 C   0  0  0  0  0  0  0  0  0  0  0  0
  -20.7992  -17.8922   25.0695 O   0  0  0  0  0  0  0  0  0  0  0  0
  -18.5277  -17.5380   25.3319 N   0  0  0  0  0  0  0  0  0  0  0  0
  -17.6043  -17.5399   24.9905 H   0  0  0  0  0  0  0  0  0  0  0  0
  -18.7632  -17.1668   26.7793 C   0  0  0  0  0  0  0  0  0  0  0  0
  -19.2045  -15.7236   27.0537 C   0  0  0  0  0  0  0  0  0  0  0  0
  -18.4172  -14.7970   27.3932 O   0  0  0  0  0  0  0  0  0  0  0  0
  -20.4079  -15.4090   26.9749 O   0  0  0  0  0  0  0  0  0  0  0  0
  -21.0446  -16.0505   26.7277 H   0  0  0  0  0  0  0  0  0  0  0  0
  -17.5937  -17.5777   27.7213 C   0  0  0  0  0  0  0  0  0  0  0  0
  -16.2386  -17.8886   27.0680 C   0  0  0  0  0  0  0  0  0  0  0  0
  -15.4161  -16.6166   26.8860 C   0  0  0  0  0  0  0  0  0  0  0  0
  -14.3734  -16.3674   27.5782 O   0  0  0  0  0  0  0  0  0  0  0  0
  -15.8207  -15.8036   25.9952 O   0  0  0  0  0  0  0  0  0  0  0  0
  -16.5881  -16.0005   25.4950 H   0  0  0  0  0  0  0  0  0  0  0  0
  -18.7713  -19.7246   18.9718 N   0  0  0  0  0  0  0  0  0  0  0  0
  -19.9300  -19.4819   18.1096 C   0  0  0  0  0  0  0  0  0  0  0  0
  -17.7340  -20.5551   18.2646 C   0  0  0  0  0  0  0  0  0  0  0  0
  -13.6594  -17.3775   20.0503 N   0  0  0  0  0  0  0  0  0  0  0  0
  -12.9227  -18.0201   21.0433 C   0  0  0  0  0  0  0  0  0  0  0  0
  -11.8899  -17.4611   21.6247 N   0  0  0  0  0  0  0  0  0  0  0  0
  -13.2043  -19.2794   21.4643 N   0  0  0  0  0  0  0  0  0  0  0  0
  -14.2366  -19.9337   20.8849 C   0  0  0  0  0  0  0  0  0  0  0  0
  -14.5959  -21.1602   21.2177 N   0  0  0  0  0  0  0  0  0  0  0  0
  -14.9436  -19.3011   19.9089 C   0  0  0  0  0  0  0  0  0  0  0  0
  -15.9529  -20.0301   19.4246 N   0  0  0  0  0  0  0  0  0  0  0  0
  -16.7110  -19.5371   18.4214 C   0  0  0  0  0  0  0  0  0  0  0  0
  -16.5848  -18.2472   17.8943 C   0  0  0  0  0  0  0  0  0  0  0  0
  -15.5314  -17.5055   18.4289 N   0  0  0  0  0  0  0  0  0  0  0  0
  -14.7126  -18.0277   19.4391 C   0  0  0  0  0  0  0  0  0  0  0  0
  -11.6193  -16.5478   21.3756 H   0  0  0  0  0  0  0  0  0  0  0  0
  -11.3845  -17.9543   22.3107 H   0  0  0  0  0  0  0  0  0  0  0  0
  -14.1040  -21.6438   21.9201 H   0  0  0  0  0  0  0  0  0  0  0  0
  -15.3558  -21.5909   20.7634 H   0  0  0  0  0  0  0  0  0  0  0  0
 25 26  2  0  0  0
 25 36  1  0  0  0
 26 27  1  0  0  0
 26 28  1  0  0  0
 28 29  2  0  0  0
 29 30  1  0  0  0
 29 31  1  0  0  0
 31 32  1  0  0  0
 31 36  2  0  0  0
 32 33  2  0  0  0
 33 34  1  0  0  0
 33 24  1  0  0  0
 34 35  2  0  0  0
 35 36  1  0  0  0
 24 22  1  0  0  0
 22 23  1  0  0  0
 22  4  1  0  0  0
  1  2  2  0  0  0
  1  6  1  0  0  0
  1  7  1  0  0  0
  2  3  1  0  0  0
  3  4  2  0  0  0
  4  5  1  0  0  0
  5  6  2  0  0  0
  7  8  2  0  0  0
  7  9  1  0  0  0
  9 11  1  0  0  0
 11 12  1  0  0  0
 11 16  1  0  0  0
 12 13  2  0  0  0
 12 14  1  0  0  0
 16 17  1  0  0  0
 17 18  1  0  0  0
 18 19  2  0  0  0
 18 20  1  0  0  0
 27 37  1  0  0  0
 27 38  1  0  0  0
 30 39  1  0  0  0
 30 40  1  0  0  0
  9 10  1  0  0  0
 14 15  1  0  0  0
 20 21  1  0  0  0
M  END
> <minimizedAffinity>
0.00592

$$$$
5J7W_MTX_C_402


 40 42  0  0  0  0  0  0  0  0999 V2000
  -21.5201  -19.1655   15.2376 C   0  0  0  0  0  0  0  0  0  0  0  0
  -20.4790  -20.0035   14.7933 C   0  0  0  0  0  0  0  0  0  0  0  0
  -20.1595  -21.2133   15.4539 C   0  0  0  0  0  0  0  0  0  0  0  0
  -20.9197  -21.6899   16.5383 C   0  0  0  0  0  0  0  0  0  0  0  0
  -21.9195  -20.8199   17.0043 C   0  0  0  0  0  0  0  0  0  0  0  0
  -22.2282  -19.5993   16.3676 C   0  0  0  0  0  0  0  0  0  0  0  0
  -21.8596  -17.8147   14.6144 C   0  0  0  0  0  0  0  0  0  0  0  0
  -22.9196  -17.7644   13.6989 O   0  0  0  0  0  0  0  0  0  0  0  0
  -21.3059  -16.6305   14.9089 N   0  0  0  0  0  0  0  0  0  0  0  0
  -20.5819  -16.6019   15.5755 H   0  0  0  0  0  0  0  0  0  0  0  0
  -21.7450  -15.3357   14.2617 C   0  0  0  0  0  0  0  0  0  0  0  0
  -21.1645  -15.0313   12.8749 C   0  0  0  0  0  0  0  0  0  0  0  0
  -20.1755  -14.2727   12.6746 O   0  0  0  0  0  0  0  0  0  0  0  0
  -21.6870  -15.5197   11.8542 O   0  0  0  0  0  0  0  0  0  0  0  0
  -22.4252  -16.0913   11.9336 H   0  0  0  0  0  0  0  0  0  0  0  0
  -21.6162  -14.1003   15.2004 C   0  0  0  0  0  0  0  0  0  0  0  0
  -20.7062  -14.2414   16.4299 C   0  0  0  0  0  0  0  0  0  0  0  0
  -19.2590  -13.9106   16.0784 C   0  0  0  0  0  0  0  0  0  0  0  0
  -18.6777  -12.8502   16.4862 O   0  0  0  0  0  0  0  0  0  0  0  0
  -18.6457  -14.7556   15.3517 O   0  0  0  0  0  0  0  0  0  0  0  0
  -19.0860  -15.5296   15.0600 H   0  0  0  0  0  0  0  0  0  0  0  0
  -20.5920  -22.8789   17.3105 N   0  0  0  0  0  0  0  0  0  0  0  0
  -20.8100  -24.0594   16.4716 C   0  0  0  0  0  0  0  0  0  0  0  0
  -20.2611  -23.2728   18.7250 C   0  0  0  0  0  0  0  0  0  0  0  0
  -16.2231  -19.5993   19.0219 N   0  0  0  0  0  0  0  0  0  0  0  0
  -16.5896  -18.5169   19.8191 C   0  0  0  0  0  0  0  0  0  0  0  0
  -15.7855  -17.5073   20.0460 N   0  0  0  0  0  0  0  0  0  0  0  0
  -17.7950  -18.4390   20.4384 N   0  0  0  0  0  0  0  0  0  0  0  0
  -18.6656  -19.4616   20.2784 C   0  0  0  0  0  0  0  0  0  0  0  0
  -19.8628  -19.4884   20.8354 N   0  0  0  0  0  0  0  0  0  0  0  0
  -18.2942  -20.5190   19.5060 C   0  0  0  0  0  0  0  0  0  0  0  0
  -19.2383  -21.4579   19.3986 N   0  0  0  0  0  0  0  0  0  0  0  0
  -18.9849  -22.5815   18.6932 C   0  0  0  0  0  0  0  0  0  0  0  0
  -17.8139  -22.8101   17.9624 C   0  0  0  0  0  0  0  0  0  0  0  0
  -16.8528  -21.8065   18.0830 N   0  0  0  0  0  0  0  0  0  0  0  0
  -17.0919  -20.6582   18.8498 C   0  0  0  0  0  0  0  0  0  0  0  0
  -14.8918  -17.4874   19.6336 H   0  0  0  0  0  0  0  0  0  0  0  0
  -16.0752  -16.7686   20.6289 H   0  0  0  0  0  0  0  0  0  0  0  0
  -20.1602  -18.7383   21.3995 H   0  0  0  0  0  0  0  0  0  0  0  0
  -20.4579  -20.2584   20.6865 H   0  0  0  0  0  0  0  0  0  0  0  0
 25 26  2  0  0  0
 25 36  1  0  0  0
 26 27  1  0  0  0
 26 28  1  0  0  0
 28 29  2  0  0  0
 29 30  1  0  0  0
 29 31  1  0  0  0
 31 32  1  0  0  0
 31 36  2  0  0  0
 32 33  2  0  0  0
 33 34  1  0  0  0
 33 24  1  0  0  0
 34 35  2  0  0  0
 35 36  1  0  0  0
 24 22  1  0  0  0
 22 23  1  0  0  0
 22  4  1  0  0  0
  1  2  2  0  0  0
  1  6  1  0  0  0
  1  7  1  0  0  0
  2  3  1  0  0  0
  3  4  2  0  0  0
  4  5  1  0  0  0
  5  6  2  0  0  0
  7  8  2  0  0  0
  7  9  1  0  0  0
  9 11  1  0  0  0
 11 12  1  0  0  0
 11 16  1  0  0  0
 12 13  2  0  0  0
 12 14  1  0  0  0
 16 17  1  0  0  0
 17 18  1  0  0  0
 18 19  2  0  0  0
 18 20  1  0  0  0
 27 37  1  0  0  0
 27 38  1  0  0  0
 30 39  1  0  0  0
 30 40  1  0  0  0
  9 10  1  0  0  0
 14 15  1  0  0  0
 20 21  1  0  0  0
M  END
> <minimizedAffinity>
0.00713

$$$$
5J7W_MTX_C_402


 40 42  0  0  0  0  0  0  0  0999 V2000
  -13.9612  -18.5846   26.3818 C   0  0  0  0  0  0  0  0  0  0  0  0
  -15.2340  -18.2523   26.8850 C   0  0  0  0  0  0  0  0  0  0  0  0
  -16.3626  -19.0775   26.6678 C   0  0  0  0  0  0  0  0  0  0  0  0
  -16.2592  -20.3188   26.0124 C   0  0  0  0  0  0  0  0  0  0  0  0
  -14.9973  -20.6124   25.4695 C   0  0  0  0  0  0  0  0  0  0  0  0
  -13.8719  -19.7827   25.6588 C   0  0  0  0  0  0  0  0  0  0  0  0
  -12.7268  -17.6979   26.5170 C   0  0  0  0  0  0  0  0  0  0  0  0
  -11.8478  -17.9574   27.5773 O   0  0  0  0  0  0  0  0  0  0  0  0
  -12.3323  -16.7335   25.6744 N   0  0  0  0  0  0  0  0  0  0  0  0
  -12.8929  -16.5354   24.8897 H   0  0  0  0  0  0  0  0  0  0  0  0
  -11.0629  -15.9360   25.8765 C   0  0  0  0  0  0  0  0  0  0  0  0
  -11.1390  -14.7651   26.8645 C   0  0  0  0  0  0  0  0  0  0  0  0
  -11.3155  -13.5629   26.5221 O   0  0  0  0  0  0  0  0  0  0  0  0
  -10.9960  -14.9640   28.0865 O   0  0  0  0  0  0  0  0  0  0  0  0
  -10.8612  -15.8342   28.4069 H   0  0  0  0  0  0  0  0  0  0  0  0
  -10.3913  -15.4940   24.5433 C   0  0  0  0  0  0  0  0  0  0  0  0
  -11.2574  -15.5218   23.2749 C   0  0  0  0  0  0  0  0  0  0  0  0
  -12.0363  -14.2196   23.1175 C   0  0  0  0  0  0  0  0  0  0  0  0
  -11.7596  -13.3575   22.2181 O   0  0  0  0  0  0  0  0  0  0  0  0
  -12.9930  -14.0300   23.9342 O   0  0  0  0  0  0  0  0  0  0  0  0
  -13.1840  -14.6722   24.5892 H   0  0  0  0  0  0  0  0  0  0  0  0
  -17.3925  -21.1706   25.6847 N   0  0  0  0  0  0  0  0  0  0  0  0
  -17.9534  -21.7058   26.9272 C   0  0  0  0  0  0  0  0  0  0  0  0
  -18.0529  -21.7886   24.4815 C   0  0  0  0  0  0  0  0  0  0  0  0
  -18.4883  -16.9576   21.9594 N   0  0  0  0  0  0  0  0  0  0  0  0
  -17.5807  -16.8597   20.9067 C   0  0  0  0  0  0  0  0  0  0  0  0
  -17.4977  -15.7948   20.1474 N   0  0  0  0  0  0  0  0  0  0  0  0
  -16.7337  -17.8670   20.5746 N   0  0  0  0  0  0  0  0  0  0  0  0
  -16.7857  -19.0119   21.2927 C   0  0  0  0  0  0  0  0  0  0  0  0
  -16.0084  -20.0529   21.0548 N   0  0  0  0  0  0  0  0  0  0  0  0
  -17.6827  -19.1014   22.3125 C   0  0  0  0  0  0  0  0  0  0  0  0
  -17.6310  -20.2649   22.9669 N   0  0  0  0  0  0  0  0  0  0  0  0
  -18.4963  -20.5017   23.9766 C   0  0  0  0  0  0  0  0  0  0  0  0
  -19.4081  -19.5642   24.4739 C   0  0  0  0  0  0  0  0  0  0  0  0
  -19.4294  -18.3548   23.7793 N   0  0  0  0  0  0  0  0  0  0  0  0
  -18.5651  -18.1189   22.7019 C   0  0  0  0  0  0  0  0  0  0  0  0
  -18.0784  -15.0193   20.3220 H   0  0  0  0  0  0  0  0  0  0  0  0
  -16.8545  -15.7704   19.4024 H   0  0  0  0  0  0  0  0  0  0  0  0
  -15.3497  -20.0186   20.3240 H   0  0  0  0  0  0  0  0  0  0  0  0
  -16.0878  -20.8632   21.6083 H   0  0  0  0  0  0  0  0  0  0  0  0
 25 26  2  0  0  0
 25 36  1  0  0  0
 26 27  1  0  0  0
 26 28  1  0  0  0
 28 29  2  0  0  0
 29 30  1  0  0  0
 29 31  1  0  0  0
 31 32  1  0  0  0
 31 36  2  0  0  0
 32 33  2  0  0  0
 33 34  1  0  0  0
 33 24  1  0  0  0
 34 35  2  0  0  0
 35 36  1  0  0  0
 24 22  1  0  0  0
 22 23  1  0  0  0
 22  4  1  0  0  0
  1  2  2  0  0  0
  1  6  1  0  0  0
  1  7  1  0  0  0
  2  3  1  0  0  0
  3  4  2  0  0  0
  4  5  1  0  0  0
  5  6  2  0  0  0
  7  8  2  0  0  0
  7  9  1  0  0  0
  9 11  1  0  0  0
 11 12  1  0  0  0
 11 16  1  0  0  0
 12 13  2  0  0  0
 12 14  1  0  0  0
 16 17  1  0  0  0
 17 18  1  0  0  0
 18 19  2  0  0  0
 18 20  1  0  0  0
 27 37  1  0  0  0
 27 38  1  0  0  0
 30 39  1  0  0  0
 30 40  1  0  0  0
  9 10  1  0  0  0
 14 15  1  0  0  0
 20 21  1  0  0  0
M  END
> <minimizedAffinity>
0.00732

$$$$
