5J7W_MTX_C_402
  RCSB PDB12061718213D
Coordinates from PDB:5J7W:C:402 Model:1 without hydrogens
 33 35  0  0  0  0            999 V2000
  -13.3640  -18.0380   15.7640   N 0  0  0  0  0  0  0  0  0  0  0  0
  -13.0950  -16.8890   16.5050   C 0  0  0  0  0  0  0  0  0  0  0  0
  -12.9600  -15.7100   15.9490   N 0  0  0  0  0  0  0  0  0  0  0  0
  -12.9290  -16.9090   17.8520   N 0  0  0  0  0  0  0  0  0  0  0  0
  -13.0200  -18.0970   18.4920   C 0  0  0  0  0  0  0  0  0  0  0  0
  -12.8750  -18.2300   19.7980   N 0  0  0  0  0  0  0  0  0  0  0  0
  -13.2730  -19.2150   17.7580   C 0  0  0  0  0  0  0  0  0  0  0  0
  -13.3650  -20.3260   18.4940   N 0  0  0  0  0  0  0  0  0  0  0  0
  -13.5730  -21.5140   17.8860   C 0  0  0  0  0  0  0  0  0  0  0  0
  -13.8030  -21.6720   16.5150   C 0  0  0  0  0  0  0  0  0  0  0  0
  -13.7140  -20.4930   15.7750   N 0  0  0  0  0  0  0  0  0  0  0  0
  -13.4540  -19.2630   16.3940   C 0  0  0  0  0  0  0  0  0  0  0  0
  -13.7180  -22.4250   19.0070   C 0  0  0  0  0  0  0  0  0  0  0  0
  -15.1760  -22.0940   19.1810   N 0  0  0  0  0  0  0  0  0  0  0  0
  -16.0260  -23.1740   18.6750   C 0  0  0  0  0  0  0  0  0  0  0  0
  -17.9220  -19.2560   21.0120   C 0  0  0  0  0  0  0  0  0  0  0  0
  -17.1260  -20.1080   21.8020   C 0  0  0  0  0  0  0  0  0  0  0  0
  -16.2290  -21.0390   21.2270   C 0  0  0  0  0  0  0  0  0  0  0  0
  -16.0180  -21.1050   19.8370   C 0  0  0  0  0  0  0  0  0  0  0  0
  -16.8560  -20.2890   19.0590   C 0  0  0  0  0  0  0  0  0  0  0  0
  -17.7720  -19.3760   19.6230   C 0  0  0  0  0  0  0  0  0  0  0  0
  -18.9610  -18.2890   21.5720   C 0  0  0  0  0  0  0  0  0  0  0  0
  -19.7070  -17.5300   20.6600   O 0  0  0  0  0  0  0  0  0  0  0  0
  -19.3100  -18.1380   22.8570   N 0  0  0  0  0  0  0  0  0  0  0  0
  -20.3880  -17.1770   23.3070   C 0  0  0  0  0  0  0  0  0  0  0  0
  -20.2570  -16.6170   24.7290   C 0  0  0  0  0  0  0  0  0  0  0  0
  -20.8640  -15.5900   25.1420   O 0  0  0  0  0  0  0  0  0  0  0  0
  -19.4950  -17.1620   25.5510   O 0  0  0  0  0  0  0  0  0  0  0  0
  -21.8310  -17.7010   23.0480   C 0  0  0  0  0  0  0  0  0  0  0  0
  -22.4940  -18.5210   24.1650   C 0  0  0  0  0  0  0  0  0  0  0  0
  -23.7960  -19.1510   23.6800   C 0  0  0  0  0  0  0  0  0  0  0  0
  -24.8830  -19.0810   24.3450   O 0  0  0  0  0  0  0  0  0  0  0  0
  -23.7500  -19.7560   22.5620   O 0  0  0  0  0  0  0  0  0  0  0  0
  1  2  2  0  0  0  0
  1 12  1  0  0  0  0
  2  3  1  0  0  0  0
  2  4  1  0  0  0  0
  4  5  2  0  0  0  0
  5  6  1  0  0  0  0
  5  7  1  0  0  0  0
  7  8  1  0  0  0  0
  7 12  2  0  0  0  0
  8  9  2  0  0  0  0
  9 10  1  0  0  0  0
  9 13  1  0  0  0  0
 10 11  2  0  0  0  0
 11 12  1  0  0  0  0
 13 14  1  0  0  0  0
 14 15  1  0  0  0  0
 14 19  1  0  0  0  0
 16 17  2  0  0  0  0
 16 21  1  0  0  0  0
 16 22  1  0  0  0  0
 17 18  1  0  0  0  0
 18 19  2  0  0  0  0
 19 20  1  0  0  0  0
 20 21  2  0  0  0  0
 22 23  2  0  0  0  0
 22 24  1  0  0  0  0
 24 25  1  0  0  0  0
 25 26  1  0  0  0  0
 25 29  1  0  0  0  0
 26 27  2  0  0  0  0
 26 28  1  0  0  0  0
 29 30  1  0  0  0  0
 30 31  1  0  0  0  0
 31 32  2  0  0  0  0
 31 33  1  0  0  0  0
A    1
N1
A    2
C2
A    3
NA2
A    4
N3
A    5
C4
A    6
NA4
A    7
C4A
A    8
N5
A    9
C6
A   10
C7
A   11
N8
A   12
C8A
A   13
C9
A   14
N10
A   15
CM
A   16
C11
A   17
C12
A   18
C13
A   19
C14
A   20
C15
A   21
C16
A   22
C
A   23
O
A   24
N
A   25
CA
A   26
CT
A   27
O1
A   28
O2
A   29
CB
A   30
CG
A   31
CD
A   32
OE1
A   33
OE2
M  END
>  <InstanceId>
5J7W_MTX_C_402

>  <ChemCompId>
MTX

>  <PdbId>
5J7W

>  <ChainId>
C

>  <ResidueNumber>
402

>  <InsertionCode>


>  <Model>
1

>  <AltIds>


>  <MissingHeavyAtoms>
0

>  <ObservedFormula>
C20 N8 O5

>  <Name>
METHOTREXATE

>  <SystematicName>
(2S)-2-[[4-[(2,4-diaminopteridin-6-yl)methyl-methyl-amino]phenyl]carbonylamino]pentanedioic acid

>  <Synonyms>


>  <Type>
NON-POLYMER

>  <Formula>
C20 H22 N8 O5

>  <MolecularWeight>
454.439

>  <ModifiedDate>
2011-06-04

>  <Parent>


>  <OneLetterCode>


>  <SubcomponentList>


>  <AmbiguousFlag>
N

>  <InChI>
InChI=1S/C20H22N8O5/c1-28(9-11-8-23-17-15(24-11)16(21)26-20(22)27-17)12-4-2-10(3-5-12)18(31)25-13(19(32)33)6-7-14(29)30/h2-5,8,13H,6-7,9H2,1H3,(H,25,31)(H,29,30)(H,32,33)(H4,21,22,23,26,27)/t13-/m0/s1

>  <InChIKey>
FBOZXECLQNJBKD-ZDUSSCGKSA-N

>  <SMILES>
CN(Cc1cnc2c(n1)c(nc(n2)N)N)c3ccc(cc3)C(=O)N[C@@H](CCC(=O)O)C(=O)O

$$$$
