1EC1_BEE_A_501


 60 63  0  0  0  0  0  0  0  0999 V2000
   13.7171   22.8188    4.5615 C   0  0  0  0  0  0  0  0  0  0  0  0
   14.0859   22.5175    3.1706 O   0  0  0  0  0  0  0  0  0  0  0  0
   14.8938   23.0013    2.9382 H   0  0  0  0  0  0  0  0  0  0  0  0
   13.3953   24.2703    4.7431 C   0  0  0  0  0  0  0  0  0  0  0  0
   14.5015   24.9985    4.1712 O   0  0  0  0  0  0  0  0  0  0  0  0
   14.5995   24.7564    3.2370 H   0  0  0  0  0  0  0  0  0  0  0  0
   12.0033   24.6174    4.1429 C   0  0  0  0  0  0  0  0  0  0  0  0
   10.9690   24.7809    5.2438 C   0  0  0  0  0  0  0  0  0  0  0  0
   10.7687   23.8342    6.0071 O   0  0  0  0  0  0  0  0  0  0  0  0
   10.3221   25.9455    5.3325 N   0  0  0  0  0  0  0  0  0  0  0  0
   10.5495   26.6430    4.6759 H   0  0  0  0  0  0  0  0  0  0  0  0
    9.2814   26.2706    6.3500 C   0  0  0  0  0  0  0  0  0  0  0  0
    8.2236   27.0544    5.6013 C   0  0  0  0  0  0  0  0  0  0  0  0
    8.5773   28.0012    4.8557 O   0  0  0  0  0  0  0  0  0  0  0  0
    6.9225   26.6505    5.8074 N   0  0  0  0  0  0  0  0  0  0  0  0
    5.8783   27.3704    5.1180 C   0  0  0  0  0  0  0  0  0  0  0  0
    6.7121   25.8965    6.4045 H   0  0  0  0  0  0  0  0  0  0  0  0
    9.8762   27.1758    7.5061 C   0  0  0  0  0  0  0  0  0  0  0  0
    8.7611   27.9421    8.3083 C   0  0  0  0  0  0  0  0  0  0  0  0
   10.7421   26.3906    8.5336 C   0  0  0  0  0  0  0  0  0  0  0  0
   11.5645   23.5535    3.2150 O   0  0  0  0  0  0  0  0  0  0  0  0
   10.8451   24.0279    2.0195 C   0  0  0  0  0  0  0  0  0  0  0  0
    9.3659   24.1525    2.2504 C   0  0  0  0  0  0  0  0  0  0  0  0
    8.6991   25.3733    1.9638 C   0  0  0  0  0  0  0  0  0  0  0  0
    7.3073   25.4937    2.1873 C   0  0  0  0  0  0  0  0  0  0  0  0
    6.5823   24.3863    2.7037 C   0  0  0  0  0  0  0  0  0  0  0  0
    7.2475   23.1758    2.9880 C   0  0  0  0  0  0  0  0  0  0  0  0
    8.6389   23.0594    2.7604 C   0  0  0  0  0  0  0  0  0  0  0  0
    2.5657   25.1875    2.7685 S   0  0  0  0  0  0  0  0  0  0  0  0
    3.0576   24.0123    4.0110 C   0  0  0  0  0  0  0  0  0  0  0  0
    4.3628   23.7504    3.9948 C   0  0  0  0  0  0  0  0  0  0  0  0
    5.0811   24.4999    2.9491 C   0  0  0  0  0  0  0  0  0  0  0  0
    4.2600   25.2836    2.2421 C   0  0  0  0  0  0  0  0  0  0  0  0
   14.8325   22.3592    5.4933 C   0  0  0  0  0  0  0  0  0  0  0  0
   15.0820   20.9311    5.2330 C   0  0  0  0  0  0  0  0  0  0  0  0
   14.1642   20.1360    5.4410 O   0  0  0  0  0  0  0  0  0  0  0  0
   16.2983   20.5886    4.7715 N   0  0  0  0  0  0  0  0  0  0  0  0
   16.9675   21.2983    4.6386 H   0  0  0  0  0  0  0  0  0  0  0  0
   16.6662   19.2293    4.4626 C   0  0  0  0  0  0  0  0  0  0  0  0
   17.9781   18.9978    5.1666 C   0  0  0  0  0  0  0  0  0  0  0  0
   18.9400   19.8005    4.9847 O   0  0  0  0  0  0  0  0  0  0  0  0
   18.0129   17.9040    5.9512 N   0  0  0  0  0  0  0  0  0  0  0  0
   19.2699   17.6297    6.6466 C   0  0  0  0  0  0  0  0  0  0  0  0
   17.2292   17.3167    6.0519 H   0  0  0  0  0  0  0  0  0  0  0  0
   16.8672   19.0627    2.9035 C   0  0  0  0  0  0  0  0  0  0  0  0
   15.5437   19.3047    2.0691 C   0  0  0  0  0  0  0  0  0  0  0  0
   17.4602   17.6629    2.5300 C   0  0  0  0  0  0  0  0  0  0  0  0
   14.4452   22.6659    6.8553 O   0  0  0  0  0  0  0  0  0  0  0  0
   15.5555   23.0856    7.7114 C   0  0  0  0  0  0  0  0  0  0  0  0
   16.2265   21.8921    8.3268 C   0  0  0  0  0  0  0  0  0  0  0  0
   17.6586   21.7837    8.2892 C   0  0  0  0  0  0  0  0  0  0  0  0
   18.3153   20.6640    8.8794 C   0  0  0  0  0  0  0  0  0  0  0  0
   17.5336   19.6646    9.5021 C   0  0  0  0  0  0  0  0  0  0  0  0
   16.0976   19.7740    9.5405 C   0  0  0  0  0  0  0  0  0  0  0  0
   15.4450   20.8920    8.9518 C   0  0  0  0  0  0  0  0  0  0  0  0
   20.0401   16.8486   11.0686 S   0  0  0  0  0  0  0  0  0  0  0  0
   19.5398   18.3671   10.3059 C   0  0  0  0  0  0  0  0  0  0  0  0
   18.2190   18.4618   10.1277 C   0  0  0  0  0  0  0  0  0  0  0  0
   17.5052   17.2665   10.6148 C   0  0  0  0  0  0  0  0  0  0  0  0
   18.3299   16.3549   11.1258 C   0  0  0  0  0  0  0  0  0  0  0  0
 23 24  2  0  0  0
 23 28  1  0  0  0
 23 22  1  0  0  0
 24 25  1  0  0  0
 25 26  2  0  0  0
 26 27  1  0  0  0
 26 32  1  0  0  0
 27 28  2  0  0  0
 50 51  2  0  0  0
 50 55  1  0  0  0
 50 49  1  0  0  0
 51 52  1  0  0  0
 52 53  2  0  0  0
 53 54  1  0  0  0
 53 58  1  0  0  0
 54 55  2  0  0  0
 49 48  1  0  0  0
 48 34  1  0  0  0
 34  1  1  0  0  0
 34 35  1  0  0  0
  1  4  1  0  0  0
  1  2  1  0  0  0
  4  7  1  0  0  0
  4  5  1  0  0  0
  7  8  1  0  0  0
  7 21  1  0  0  0
  8  9  2  0  0  0
  8 10  1  0  0  0
 10 12  1  0  0  0
 12 18  1  0  0  0
 12 13  1  0  0  0
 18 19  1  0  0  0
 18 20  1  0  0  0
 13 14  2  0  0  0
 13 15  1  0  0  0
 15 16  1  0  0  0
 21 22  1  0  0  0
 35 36  2  0  0  0
 35 37  1  0  0  0
 37 39  1  0  0  0
 39 45  1  0  0  0
 39 40  1  0  0  0
 45 46  1  0  0  0
 45 47  1  0  0  0
 40 41  2  0  0  0
 40 42  1  0  0  0
 42 43  1  0  0  0
 29 30  1  0  0  0
 29 33  1  0  0  0
 30 31  2  0  0  0
 31 32  1  0  0  0
 32 33  2  0  0  0
 56 57  1  0  0  0
 56 60  1  0  0  0
 57 58  2  0  0  0
 58 59  1  0  0  0
 59 60  2  0  0  0
 10 11  1  0  0  0
 15 17  1  0  0  0
  5  6  1  0  0  0
  2  3  1  0  0  0
 37 38  1  0  0  0
 42 44  1  0  0  0
M  END
> <minimizedAffinity>
-10.85933

$$$$
1EC1_BEE_A_501


 60 63  0  0  0  0  0  0  0  0999 V2000
   13.1288   23.7519    5.7816 C   0  0  0  0  0  0  0  0  0  0  0  0
   13.5466   24.6817    6.8410 O   0  0  0  0  0  0  0  0  0  0  0  0
   13.9235   25.4805    6.4400 H   0  0  0  0  0  0  0  0  0  0  0  0
   14.2953   23.2912    4.9627 C   0  0  0  0  0  0  0  0  0  0  0  0
   14.8571   24.4783    4.3660 O   0  0  0  0  0  0  0  0  0  0  0  0
   15.1186   25.0985    5.0644 H   0  0  0  0  0  0  0  0  0  0  0  0
   15.2892   22.4563    5.8191 C   0  0  0  0  0  0  0  0  0  0  0  0
   15.3097   21.0082    5.3595 C   0  0  0  0  0  0  0  0  0  0  0  0
   14.2626   20.3602    5.4120 O   0  0  0  0  0  0  0  0  0  0  0  0
   16.4649   20.5030    4.9202 N   0  0  0  0  0  0  0  0  0  0  0  0
   17.2492   21.0981    4.9167 H   0  0  0  0  0  0  0  0  0  0  0  0
   16.6579   19.1063    4.4344 C   0  0  0  0  0  0  0  0  0  0  0  0
   17.9938   18.6695    4.9988 C   0  0  0  0  0  0  0  0  0  0  0  0
   18.9944   19.4134    4.8474 O   0  0  0  0  0  0  0  0  0  0  0  0
   17.9992   17.4556    5.6508 N   0  0  0  0  0  0  0  0  0  0  0  0
   19.2511   16.9949    6.2024 C   0  0  0  0  0  0  0  0  0  0  0  0
   17.1773   16.9208    5.7375 H   0  0  0  0  0  0  0  0  0  0  0  0
   16.7220   19.0557    2.8524 C   0  0  0  0  0  0  0  0  0  0  0  0
   17.2562   17.6781    2.3126 C   0  0  0  0  0  0  0  0  0  0  0  0
   15.3562   19.3362    2.1609 C   0  0  0  0  0  0  0  0  0  0  0  0
   14.9079   22.5100    7.2464 O   0  0  0  0  0  0  0  0  0  0  0  0
   16.0289   22.7031    8.1834 C   0  0  0  0  0  0  0  0  0  0  0  0
   16.6750   21.4068    8.5818 C   0  0  0  0  0  0  0  0  0  0  0  0
   18.0381   21.1621    8.2665 C   0  0  0  0  0  0  0  0  0  0  0  0
   18.6455   19.9388    8.6353 C   0  0  0  0  0  0  0  0  0  0  0  0
   17.8818   18.9558    9.3200 C   0  0  0  0  0  0  0  0  0  0  0  0
   16.5283   19.2014    9.6309 C   0  0  0  0  0  0  0  0  0  0  0  0
   15.9260   20.4273    9.2623 C   0  0  0  0  0  0  0  0  0  0  0  0
   20.2304   15.8325   10.5480 S   0  0  0  0  0  0  0  0  0  0  0  0
   18.5810   15.3282   10.1100 C   0  0  0  0  0  0  0  0  0  0  0  0
   17.8147   16.3400    9.7084 C   0  0  0  0  0  0  0  0  0  0  0  0
   18.5225   17.6322    9.7255 C   0  0  0  0  0  0  0  0  0  0  0  0
   19.7867   17.5045   10.1425 C   0  0  0  0  0  0  0  0  0  0  0  0
   12.0524   24.4087    4.9252 C   0  0  0  0  0  0  0  0  0  0  0  0
   10.8965   24.6972    5.7911 C   0  0  0  0  0  0  0  0  0  0  0  0
   10.4993   23.8052    6.5425 O   0  0  0  0  0  0  0  0  0  0  0  0
   10.3551   25.9262    5.7130 N   0  0  0  0  0  0  0  0  0  0  0  0
   10.7434   26.5713    5.0788 H   0  0  0  0  0  0  0  0  0  0  0  0
    9.2320   26.3415    6.5158 C   0  0  0  0  0  0  0  0  0  0  0  0
    8.2828   27.0177    5.5607 C   0  0  0  0  0  0  0  0  0  0  0  0
    8.7044   27.9387    4.8012 O   0  0  0  0  0  0  0  0  0  0  0  0
    7.0145   26.5685    5.6118 N   0  0  0  0  0  0  0  0  0  0  0  0
    6.0523   27.2029    4.7114 C   0  0  0  0  0  0  0  0  0  0  0  0
    6.7475   25.8471    6.2262 H   0  0  0  0  0  0  0  0  0  0  0  0
    9.7032   27.3770    7.6134 C   0  0  0  0  0  0  0  0  0  0  0  0
   10.8055   26.7989    8.5916 C   0  0  0  0  0  0  0  0  0  0  0  0
    8.5062   27.9287    8.4582 C   0  0  0  0  0  0  0  0  0  0  0  0
   11.7645   23.5361    3.8050 O   0  0  0  0  0  0  0  0  0  0  0  0
   11.3601   24.2410    2.5879 C   0  0  0  0  0  0  0  0  0  0  0  0
    9.8636   24.2858    2.4777 C   0  0  0  0  0  0  0  0  0  0  0  0
    9.2241   25.4615    1.9555 C   0  0  0  0  0  0  0  0  0  0  0  0
    7.8047   25.5184    1.8312 C   0  0  0  0  0  0  0  0  0  0  0  0
    7.0393   24.3989    2.2292 C   0  0  0  0  0  0  0  0  0  0  0  0
    7.6808   23.2197    2.7519 C   0  0  0  0  0  0  0  0  0  0  0  0
    9.0967   23.1650    2.8743 C   0  0  0  0  0  0  0  0  0  0  0  0
    2.9818   24.1433    2.6003 S   0  0  0  0  0  0  0  0  0  0  0  0
    4.6906   23.9184    3.0087 C   0  0  0  0  0  0  0  0  0  0  0  0
    5.5256   24.4485    2.1103 C   0  0  0  0  0  0  0  0  0  0  0  0
    4.8063   25.0921    0.9949 C   0  0  0  0  0  0  0  0  0  0  0  0
    3.4844   25.0059    1.1253 C   0  0  0  0  0  0  0  0  0  0  0  0
 23 24  2  0  0  0
 23 28  1  0  0  0
 23 22  1  0  0  0
 24 25  1  0  0  0
 25 26  2  0  0  0
 26 27  1  0  0  0
 26 32  1  0  0  0
 27 28  2  0  0  0
 50 51  2  0  0  0
 50 55  1  0  0  0
 50 49  1  0  0  0
 51 52  1  0  0  0
 52 53  2  0  0  0
 53 54  1  0  0  0
 53 58  1  0  0  0
 54 55  2  0  0  0
 49 48  1  0  0  0
 48 34  1  0  0  0
 34  1  1  0  0  0
 34 35  1  0  0  0
  1  4  1  0  0  0
  1  2  1  0  0  0
  4  7  1  0  0  0
  4  5  1  0  0  0
  7  8  1  0  0  0
  7 21  1  0  0  0
  8  9  2  0  0  0
  8 10  1  0  0  0
 10 12  1  0  0  0
 12 18  1  0  0  0
 12 13  1  0  0  0
 18 19  1  0  0  0
 18 20  1  0  0  0
 13 14  2  0  0  0
 13 15  1  0  0  0
 15 16  1  0  0  0
 21 22  1  0  0  0
 35 36  2  0  0  0
 35 37  1  0  0  0
 37 39  1  0  0  0
 39 45  1  0  0  0
 39 40  1  0  0  0
 45 46  1  0  0  0
 45 47  1  0  0  0
 40 41  2  0  0  0
 40 42  1  0  0  0
 42 43  1  0  0  0
 29 30  1  0  0  0
 29 33  1  0  0  0
 30 31  2  0  0  0
 31 32  1  0  0  0
 32 33  2  0  0  0
 56 57  1  0  0  0
 56 60  1  0  0  0
 57 58  2  0  0  0
 58 59  1  0  0  0
 59 60  2  0  0  0
 10 11  1  0  0  0
 15 17  1  0  0  0
  5  6  1  0  0  0
  2  3  1  0  0  0
 37 38  1  0  0  0
 42 44  1  0  0  0
M  END
> <minimizedAffinity>
-10.66723

$$$$
1EC1_BEE_A_501


 60 63  0  0  0  0  0  0  0  0999 V2000
   13.0598   24.6268    5.9927 C   0  0  0  0  0  0  0  0  0  0  0  0
   12.9029   25.5060    4.8249 O   0  0  0  0  0  0  0  0  0  0  0  0
   12.0989   25.2603    4.3409 H   0  0  0  0  0  0  0  0  0  0  0  0
   13.2447   23.1977    5.5844 C   0  0  0  0  0  0  0  0  0  0  0  0
   12.4350   23.0120    4.4051 O   0  0  0  0  0  0  0  0  0  0  0  0
   12.7201   23.6324    3.7161 H   0  0  0  0  0  0  0  0  0  0  0  0
   14.7507   22.8542    5.4047 C   0  0  0  0  0  0  0  0  0  0  0  0
   14.9410   21.3603    5.2028 C   0  0  0  0  0  0  0  0  0  0  0  0
   13.9832   20.6128    5.4102 O   0  0  0  0  0  0  0  0  0  0  0  0
   16.1408   20.9254    4.8106 N   0  0  0  0  0  0  0  0  0  0  0  0
   16.8453   21.5989    4.6716 H   0  0  0  0  0  0  0  0  0  0  0  0
   16.4954   19.4975    4.5670 C   0  0  0  0  0  0  0  0  0  0  0  0
   17.8353   19.2987    5.2445 C   0  0  0  0  0  0  0  0  0  0  0  0
   18.7657   20.1091    5.0093 O   0  0  0  0  0  0  0  0  0  0  0  0
   17.9236   18.2125    6.0876 N   0  0  0  0  0  0  0  0  0  0  0  0
   19.1831   17.9794    6.7534 C   0  0  0  0  0  0  0  0  0  0  0  0
   17.1540   17.6156    6.2311 H   0  0  0  0  0  0  0  0  0  0  0  0
   16.6489   19.2035    3.0180 C   0  0  0  0  0  0  0  0  0  0  0  0
   17.2826   17.7928    2.7302 C   0  0  0  0  0  0  0  0  0  0  0  0
   15.3106   19.2901    2.2283 C   0  0  0  0  0  0  0  0  0  0  0  0
   15.5214   23.2888    6.5890 O   0  0  0  0  0  0  0  0  0  0  0  0
   15.0147   22.7885    7.8793 C   0  0  0  0  0  0  0  0  0  0  0  0
   15.9148   21.7503    8.4868 C   0  0  0  0  0  0  0  0  0  0  0  0
   17.3182   21.8119    8.2778 C   0  0  0  0  0  0  0  0  0  0  0  0
   18.1659   20.8309    8.8439 C   0  0  0  0  0  0  0  0  0  0  0  0
   17.6032   19.7821    9.6197 C   0  0  0  0  0  0  0  0  0  0  0  0
   16.2092   19.7233    9.8246 C   0  0  0  0  0  0  0  0  0  0  0  0
   15.3659   20.7080    9.2587 C   0  0  0  0  0  0  0  0  0  0  0  0
   20.5029   17.5140   11.4160 S   0  0  0  0  0  0  0  0  0  0  0  0
   19.0912   16.5573   10.9077 C   0  0  0  0  0  0  0  0  0  0  0  0
   18.1470   17.2902   10.3216 C   0  0  0  0  0  0  0  0  0  0  0  0
   18.5038   18.7173   10.2378 C   0  0  0  0  0  0  0  0  0  0  0  0
   19.7049   18.9647   10.7713 C   0  0  0  0  0  0  0  0  0  0  0  0
   11.8682   24.8054    6.9263 C   0  0  0  0  0  0  0  0  0  0  0  0
   10.6595   24.3642    6.2094 C   0  0  0  0  0  0  0  0  0  0  0  0
   10.1576   23.2858    6.5304 O   0  0  0  0  0  0  0  0  0  0  0  0
   10.1737   25.1777    5.2545 N   0  0  0  0  0  0  0  0  0  0  0  0
   10.6478   26.0204    5.0693 H   0  0  0  0  0  0  0  0  0  0  0  0
    8.9903   24.8715    4.4902 C   0  0  0  0  0  0  0  0  0  0  0  0
    9.4824   24.5197    3.1103 C   0  0  0  0  0  0  0  0  0  0  0  0
    8.7111   23.9285    2.2990 O   0  0  0  0  0  0  0  0  0  0  0  0
   10.7574   24.8719    2.8583 N   0  0  0  0  0  0  0  0  0  0  0  0
   11.2852   24.5402    1.5353 C   0  0  0  0  0  0  0  0  0  0  0  0
   11.3083   25.3310    3.5328 H   0  0  0  0  0  0  0  0  0  0  0  0
    8.0535   26.1422    4.4085 C   0  0  0  0  0  0  0  0  0  0  0  0
    6.5422   25.7906    4.0944 C   0  0  0  0  0  0  0  0  0  0  0  0
    8.5652   27.1876    3.3616 C   0  0  0  0  0  0  0  0  0  0  0  0
   11.8376   26.1846    7.3692 O   0  0  0  0  0  0  0  0  0  0  0  0
   11.0497   26.4044    8.5828 C   0  0  0  0  0  0  0  0  0  0  0  0
    9.6350   26.7656    8.2341 C   0  0  0  0  0  0  0  0  0  0  0  0
    9.3757   27.9253    7.4267 C   0  0  0  0  0  0  0  0  0  0  0  0
    8.0397   28.2776    7.0742 C   0  0  0  0  0  0  0  0  0  0  0  0
    6.9767   27.4663    7.5315 C   0  0  0  0  0  0  0  0  0  0  0  0
    7.2369   26.3028    8.3403 C   0  0  0  0  0  0  0  0  0  0  0  0
    8.5703   25.9531    8.6900 C   0  0  0  0  0  0  0  0  0  0  0  0
    2.9440   27.9947    7.1780 S   0  0  0  0  0  0  0  0  0  0  0  0
    4.4746   27.3832    7.8269 C   0  0  0  0  0  0  0  0  0  0  0  0
    5.5475   27.8342    7.1707 C   0  0  0  0  0  0  0  0  0  0  0  0
    5.1825   28.7349    6.0611 C   0  0  0  0  0  0  0  0  0  0  0  0
    3.8663   28.9030    5.9548 C   0  0  0  0  0  0  0  0  0  0  0  0
 23 24  2  0  0  0
 23 28  1  0  0  0
 23 22  1  0  0  0
 24 25  1  0  0  0
 25 26  2  0  0  0
 26 27  1  0  0  0
 26 32  1  0  0  0
 27 28  2  0  0  0
 50 51  2  0  0  0
 50 55  1  0  0  0
 50 49  1  0  0  0
 51 52  1  0  0  0
 52 53  2  0  0  0
 53 54  1  0  0  0
 53 58  1  0  0  0
 54 55  2  0  0  0
 49 48  1  0  0  0
 48 34  1  0  0  0
 34  1  1  0  0  0
 34 35  1  0  0  0
  1  4  1  0  0  0
  1  2  1  0  0  0
  4  7  1  0  0  0
  4  5  1  0  0  0
  7  8  1  0  0  0
  7 21  1  0  0  0
  8  9  2  0  0  0
  8 10  1  0  0  0
 10 12  1  0  0  0
 12 18  1  0  0  0
 12 13  1  0  0  0
 18 19  1  0  0  0
 18 20  1  0  0  0
 13 14  2  0  0  0
 13 15  1  0  0  0
 15 16  1  0  0  0
 21 22  1  0  0  0
 35 36  2  0  0  0
 35 37  1  0  0  0
 37 39  1  0  0  0
 39 45  1  0  0  0
 39 40  1  0  0  0
 45 46  1  0  0  0
 45 47  1  0  0  0
 40 41  2  0  0  0
 40 42  1  0  0  0
 42 43  1  0  0  0
 29 30  1  0  0  0
 29 33  1  0  0  0
 30 31  2  0  0  0
 31 32  1  0  0  0
 32 33  2  0  0  0
 56 57  1  0  0  0
 56 60  1  0  0  0
 57 58  2  0  0  0
 58 59  1  0  0  0
 59 60  2  0  0  0
 10 11  1  0  0  0
 15 17  1  0  0  0
  5  6  1  0  0  0
  2  3  1  0  0  0
 37 38  1  0  0  0
 42 44  1  0  0  0
M  END
> <minimizedAffinity>
-9.32902

$$$$
1EC1_BEE_A_501


 60 63  0  0  0  0  0  0  0  0999 V2000
   14.2457   23.4528    4.4103 C   0  0  0  0  0  0  0  0  0  0  0  0
   15.6842   23.5993    4.1445 O   0  0  0  0  0  0  0  0  0  0  0  0
   16.1887   23.1350    4.8307 H   0  0  0  0  0  0  0  0  0  0  0  0
   13.8586   24.0903    5.7092 C   0  0  0  0  0  0  0  0  0  0  0  0
   13.1017   25.2690    5.3649 O   0  0  0  0  0  0  0  0  0  0  0  0
   12.3304   25.0145    4.8345 H   0  0  0  0  0  0  0  0  0  0  0  0
   13.1161   23.0822    6.6315 C   0  0  0  0  0  0  0  0  0  0  0  0
   11.6525   23.4638    6.7766 C   0  0  0  0  0  0  0  0  0  0  0  0
   10.8004   22.7232    6.2820 O   0  0  0  0  0  0  0  0  0  0  0  0
   11.3568   24.5877    7.4338 N   0  0  0  0  0  0  0  0  0  0  0  0
   12.1065   25.1152    7.7927 H   0  0  0  0  0  0  0  0  0  0  0  0
    9.9775   25.1052    7.6656 C   0  0  0  0  0  0  0  0  0  0  0  0
    9.6600   25.9513    6.4501 C   0  0  0  0  0  0  0  0  0  0  0  0
   10.6032   26.4693    5.8023 O   0  0  0  0  0  0  0  0  0  0  0  0
    8.3224   26.0856    6.1480 N   0  0  0  0  0  0  0  0  0  0  0  0
    7.9701   26.8866    4.9999 C   0  0  0  0  0  0  0  0  0  0  0  0
    7.6305   25.6501    6.6965 H   0  0  0  0  0  0  0  0  0  0  0  0
    9.9194   26.0158    8.9606 C   0  0  0  0  0  0  0  0  0  0  0  0
   11.2211   26.8779    9.1525 C   0  0  0  0  0  0  0  0  0  0  0  0
    8.7022   26.9852    8.9906 C   0  0  0  0  0  0  0  0  0  0  0  0
   13.7466   23.0486    7.9682 O   0  0  0  0  0  0  0  0  0  0  0  0
   15.2008   23.2876    7.9767 C   0  0  0  0  0  0  0  0  0  0  0  0
   15.9760   22.0988    8.4692 C   0  0  0  0  0  0  0  0  0  0  0  0
   17.3859   22.1789    8.6206 C   0  0  0  0  0  0  0  0  0  0  0  0
   18.1175   21.0577    9.0779 C   0  0  0  0  0  0  0  0  0  0  0  0
   17.4326   19.8505    9.3812 C   0  0  0  0  0  0  0  0  0  0  0  0
   16.0327   19.7739    9.2290 C   0  0  0  0  0  0  0  0  0  0  0  0
   15.3051   20.8986    8.7739 C   0  0  0  0  0  0  0  0  0  0  0  0
   20.1340   17.0359   10.6300 S   0  0  0  0  0  0  0  0  0  0  0  0
   18.4557   16.4449   10.6570 C   0  0  0  0  0  0  0  0  0  0  0  0
   17.5744   17.3560   10.2500 C   0  0  0  0  0  0  0  0  0  0  0  0
   18.2070   18.6332    9.8763 C   0  0  0  0  0  0  0  0  0  0  0  0
   19.5352   18.5967   10.0283 C   0  0  0  0  0  0  0  0  0  0  0  0
   13.8684   21.9767    4.3627 C   0  0  0  0  0  0  0  0  0  0  0  0
   15.0357   21.2253    3.8705 C   0  0  0  0  0  0  0  0  0  0  0  0
   15.1368   21.0434    2.6562 O   0  0  0  0  0  0  0  0  0  0  0  0
   15.9256   20.7952    4.7831 N   0  0  0  0  0  0  0  0  0  0  0  0
   15.7555   20.9893    5.7332 H   0  0  0  0  0  0  0  0  0  0  0  0
   17.1170   20.0629    4.4330 C   0  0  0  0  0  0  0  0  0  0  0  0
   16.6343   18.8263    3.7202 C   0  0  0  0  0  0  0  0  0  0  0  0
   15.6378   18.1888    4.1711 O   0  0  0  0  0  0  0  0  0  0  0  0
   17.3446   18.4910    2.6265 N   0  0  0  0  0  0  0  0  0  0  0  0
   16.9219   17.2900    1.9069 C   0  0  0  0  0  0  0  0  0  0  0  0
   18.1123   19.0289    2.3256 H   0  0  0  0  0  0  0  0  0  0  0  0
   17.9015   19.6462    5.7406 C   0  0  0  0  0  0  0  0  0  0  0  0
   19.2442   20.4572    5.9541 C   0  0  0  0  0  0  0  0  0  0  0  0
   18.2168   18.1132    5.7776 C   0  0  0  0  0  0  0  0  0  0  0  0
   12.6750   21.8362    3.5532 O   0  0  0  0  0  0  0  0  0  0  0  0
   12.4144   22.9749    2.6715 C   0  0  0  0  0  0  0  0  0  0  0  0
   10.9434   23.2680    2.6106 C   0  0  0  0  0  0  0  0  0  0  0  0
    9.9979   22.2007    2.7861 C   0  0  0  0  0  0  0  0  0  0  0  0
    8.5966   22.4611    2.7444 C   0  0  0  0  0  0  0  0  0  0  0  0
    8.1548   23.7861    2.5287 C   0  0  0  0  0  0  0  0  0  0  0  0
    9.1030   24.8565    2.3538 C   0  0  0  0  0  0  0  0  0  0  0  0
   10.5002   24.5944    2.3965 C   0  0  0  0  0  0  0  0  0  0  0  0
    4.1129   24.0933    3.0137 S   0  0  0  0  0  0  0  0  0  0  0  0
    5.7738   23.5625    3.3258 C   0  0  0  0  0  0  0  0  0  0  0  0
    6.6648   24.0772    2.4735 C   0  0  0  0  0  0  0  0  0  0  0  0
    6.0339   24.9647    1.4785 C   0  0  0  0  0  0  0  0  0  0  0  0
    4.7168   25.0606    1.6456 C   0  0  0  0  0  0  0  0  0  0  0  0
 23 24  2  0  0  0
 23 28  1  0  0  0
 23 22  1  0  0  0
 24 25  1  0  0  0
 25 26  2  0  0  0
 26 27  1  0  0  0
 26 32  1  0  0  0
 27 28  2  0  0  0
 50 51  2  0  0  0
 50 55  1  0  0  0
 50 49  1  0  0  0
 51 52  1  0  0  0
 52 53  2  0  0  0
 53 54  1  0  0  0
 53 58  1  0  0  0
 54 55  2  0  0  0
 49 48  1  0  0  0
 48 34  1  0  0  0
 34  1  1  0  0  0
 34 35  1  0  0  0
  1  4  1  0  0  0
  1  2  1  0  0  0
  4  7  1  0  0  0
  4  5  1  0  0  0
  7  8  1  0  0  0
  7 21  1  0  0  0
  8  9  2  0  0  0
  8 10  1  0  0  0
 10 12  1  0  0  0
 12 18  1  0  0  0
 12 13  1  0  0  0
 18 19  1  0  0  0
 18 20  1  0  0  0
 13 14  2  0  0  0
 13 15  1  0  0  0
 15 16  1  0  0  0
 21 22  1  0  0  0
 35 36  2  0  0  0
 35 37  1  0  0  0
 37 39  1  0  0  0
 39 45  1  0  0  0
 39 40  1  0  0  0
 45 46  1  0  0  0
 45 47  1  0  0  0
 40 41  2  0  0  0
 40 42  1  0  0  0
 42 43  1  0  0  0
 29 30  1  0  0  0
 29 33  1  0  0  0
 30 31  2  0  0  0
 31 32  1  0  0  0
 32 33  2  0  0  0
 56 57  1  0  0  0
 56 60  1  0  0  0
 57 58  2  0  0  0
 58 59  1  0  0  0
 59 60  2  0  0  0
 10 11  1  0  0  0
 15 17  1  0  0  0
  5  6  1  0  0  0
  2  3  1  0  0  0
 37 38  1  0  0  0
 42 44  1  0  0  0
M  END
> <minimizedAffinity>
-9.12745

$$$$
1EC1_BEE_A_501


 60 63  0  0  0  0  0  0  0  0999 V2000
    4.4544   25.6186    4.7642 C   0  0  0  0  0  0  0  0  0  0  0  0
    4.6141   25.9933    6.1768 O   0  0  0  0  0  0  0  0  0  0  0  0
    4.3435   26.9167    6.2990 H   0  0  0  0  0  0  0  0  0  0  0  0
    5.3458   26.4305    3.8757 C   0  0  0  0  0  0  0  0  0  0  0  0
    5.4068   27.7452    4.4662 O   0  0  0  0  0  0  0  0  0  0  0  0
    5.7502   27.6777    5.3709 H   0  0  0  0  0  0  0  0  0  0  0  0
    6.7239   25.7379    3.6770 C   0  0  0  0  0  0  0  0  0  0  0  0
    7.8157   26.4905    4.4189 C   0  0  0  0  0  0  0  0  0  0  0  0
    8.3528   27.4487    3.8597 O   0  0  0  0  0  0  0  0  0  0  0  0
    8.1444   26.0768    5.6449 N   0  0  0  0  0  0  0  0  0  0  0  0
    7.6600   25.3004    6.0079 H   0  0  0  0  0  0  0  0  0  0  0  0
    9.1894   26.7008    6.5067 C   0  0  0  0  0  0  0  0  0  0  0  0
   10.3780   25.7651    6.4321 C   0  0  0  0  0  0  0  0  0  0  0  0
   11.2850   25.9942    5.5941 O   0  0  0  0  0  0  0  0  0  0  0  0
   10.3638   24.7089    7.3169 N   0  0  0  0  0  0  0  0  0  0  0  0
   11.4741   23.7871    7.2807 C   0  0  0  0  0  0  0  0  0  0  0  0
    9.6217   24.5871    7.9523 H   0  0  0  0  0  0  0  0  0  0  0  0
    8.7031   26.8024    8.0110 C   0  0  0  0  0  0  0  0  0  0  0  0
    9.5099   27.8713    8.8363 C   0  0  0  0  0  0  0  0  0  0  0  0
    7.1900   27.1351    8.1590 C   0  0  0  0  0  0  0  0  0  0  0  0
    7.0645   25.6751    2.2398 O   0  0  0  0  0  0  0  0  0  0  0  0
    7.5112   24.3541    1.7631 C   0  0  0  0  0  0  0  0  0  0  0  0
    8.8871   24.0014    2.2522 C   0  0  0  0  0  0  0  0  0  0  0  0
    9.0841   22.8502    3.0603 C   0  0  0  0  0  0  0  0  0  0  0  0
   10.3785   22.5211    3.5270 C   0  0  0  0  0  0  0  0  0  0  0  0
   11.4789   23.3520    3.1846 C   0  0  0  0  0  0  0  0  0  0  0  0
   11.2799   24.4948    2.3827 C   0  0  0  0  0  0  0  0  0  0  0  0
    9.9841   24.8184    1.9163 C   0  0  0  0  0  0  0  0  0  0  0  0
   15.1145   21.7474    4.1779 S   0  0  0  0  0  0  0  0  0  0  0  0
   14.9202   23.4241    4.7416 C   0  0  0  0  0  0  0  0  0  0  0  0
   13.7391   23.9490    4.4226 C   0  0  0  0  0  0  0  0  0  0  0  0
   12.8808   23.0101    3.6790 C   0  0  0  0  0  0  0  0  0  0  0  0
   13.4796   21.8298    3.4871 C   0  0  0  0  0  0  0  0  0  0  0  0
    2.9873   25.7417    4.3691 C   0  0  0  0  0  0  0  0  0  0  0  0
    2.3054   26.5439    5.3991 C   0  0  0  0  0  0  0  0  0  0  0  0
    1.7239   25.9470    6.3066 O   0  0  0  0  0  0  0  0  0  0  0  0
    2.3730   27.8828    5.2874 N   0  0  0  0  0  0  0  0  0  0  0  0
    2.8613   28.2665    4.5234 H   0  0  0  0  0  0  0  0  0  0  0  0
    1.7629   28.7813    6.2354 C   0  0  0  0  0  0  0  0  0  0  0  0
    1.0832   29.8400    5.4064 C   0  0  0  0  0  0  0  0  0  0  0  0
    0.3999   30.7417    5.9746 O   0  0  0  0  0  0  0  0  0  0  0  0
    1.2633   29.7192    4.0775 N   0  0  0  0  0  0  0  0  0  0  0  0
    0.6124   30.7169    3.2291 C   0  0  0  0  0  0  0  0  0  0  0  0
    1.8076   28.9934    3.6950 H   0  0  0  0  0  0  0  0  0  0  0  0
    2.8729   29.4510    7.1400 C   0  0  0  0  0  0  0  0  0  0  0  0
    4.0478   30.1109    6.3091 C   0  0  0  0  0  0  0  0  0  0  0  0
    3.4789   28.4445    8.1747 C   0  0  0  0  0  0  0  0  0  0  0  0
    2.4496   24.4086    4.1883 O   0  0  0  0  0  0  0  0  0  0  0  0
    3.0563   23.6651    3.0833 C   0  0  0  0  0  0  0  0  0  0  0  0
    3.1367   22.2029    3.4137 C   0  0  0  0  0  0  0  0  0  0  0  0
    4.0484   21.7525    4.4285 C   0  0  0  0  0  0  0  0  0  0  0  0
    4.1302   20.3694    4.7655 C   0  0  0  0  0  0  0  0  0  0  0  0
    3.2989   19.4508    4.0853 C   0  0  0  0  0  0  0  0  0  0  0  0
    2.3840   19.9028    3.0683 C   0  0  0  0  0  0  0  0  0  0  0  0
    2.3038   21.2829    2.7344 C   0  0  0  0  0  0  0  0  0  0  0  0
    4.1822   15.4947    4.5705 S   0  0  0  0  0  0  0  0  0  0  0  0
    4.3518   17.1621    3.9972 C   0  0  0  0  0  0  0  0  0  0  0  0
    3.3813   17.9731    4.4279 C   0  0  0  0  0  0  0  0  0  0  0  0
    2.4046   17.2679    5.2792 C   0  0  0  0  0  0  0  0  0  0  0  0
    2.7016   15.9796    5.4336 C   0  0  0  0  0  0  0  0  0  0  0  0
 23 24  2  0  0  0
 23 28  1  0  0  0
 23 22  1  0  0  0
 24 25  1  0  0  0
 25 26  2  0  0  0
 26 27  1  0  0  0
 26 32  1  0  0  0
 27 28  2  0  0  0
 50 51  2  0  0  0
 50 55  1  0  0  0
 50 49  1  0  0  0
 51 52  1  0  0  0
 52 53  2  0  0  0
 53 54  1  0  0  0
 53 58  1  0  0  0
 54 55  2  0  0  0
 49 48  1  0  0  0
 48 34  1  0  0  0
 34  1  1  0  0  0
 34 35  1  0  0  0
  1  4  1  0  0  0
  1  2  1  0  0  0
  4  7  1  0  0  0
  4  5  1  0  0  0
  7  8  1  0  0  0
  7 21  1  0  0  0
  8  9  2  0  0  0
  8 10  1  0  0  0
 10 12  1  0  0  0
 12 18  1  0  0  0
 12 13  1  0  0  0
 18 19  1  0  0  0
 18 20  1  0  0  0
 13 14  2  0  0  0
 13 15  1  0  0  0
 15 16  1  0  0  0
 21 22  1  0  0  0
 35 36  2  0  0  0
 35 37  1  0  0  0
 37 39  1  0  0  0
 39 45  1  0  0  0
 39 40  1  0  0  0
 45 46  1  0  0  0
 45 47  1  0  0  0
 40 41  2  0  0  0
 40 42  1  0  0  0
 42 43  1  0  0  0
 29 30  1  0  0  0
 29 33  1  0  0  0
 30 31  2  0  0  0
 31 32  1  0  0  0
 32 33  2  0  0  0
 56 57  1  0  0  0
 56 60  1  0  0  0
 57 58  2  0  0  0
 58 59  1  0  0  0
 59 60  2  0  0  0
 10 11  1  0  0  0
 15 17  1  0  0  0
  5  6  1  0  0  0
  2  3  1  0  0  0
 37 38  1  0  0  0
 42 44  1  0  0  0
M  END
> <minimizedAffinity>
-8.92622

$$$$
1EC1_BEE_A_501


 60 63  0  0  0  0  0  0  0  0999 V2000
   12.9086   21.7695    4.9056 C   0  0  0  0  0  0  0  0  0  0  0  0
   13.3087   21.2587    3.5864 O   0  0  0  0  0  0  0  0  0  0  0  0
   13.6051   21.9962    3.0304 H   0  0  0  0  0  0  0  0  0  0  0  0
   11.7421   22.7034    4.8032 C   0  0  0  0  0  0  0  0  0  0  0  0
   11.1601   22.7605    6.1218 O   0  0  0  0  0  0  0  0  0  0  0  0
   11.8258   23.0699    6.7559 H   0  0  0  0  0  0  0  0  0  0  0  0
   12.1719   24.0784    4.2175 C   0  0  0  0  0  0  0  0  0  0  0  0
   11.7730   25.2087    5.1513 C   0  0  0  0  0  0  0  0  0  0  0  0
   12.6439   25.7253    5.8541 O   0  0  0  0  0  0  0  0  0  0  0  0
   10.4936   25.5899    5.1685 N   0  0  0  0  0  0  0  0  0  0  0  0
    9.8701   25.1162    4.5718 H   0  0  0  0  0  0  0  0  0  0  0  0
    9.9368   26.6784    6.0223 C   0  0  0  0  0  0  0  0  0  0  0  0
   10.0856   26.1833    7.4460 C   0  0  0  0  0  0  0  0  0  0  0  0
    9.5340   25.1052    7.7793 O   0  0  0  0  0  0  0  0  0  0  0  0
   10.8365   26.9815    8.2811 N   0  0  0  0  0  0  0  0  0  0  0  0
   11.0032   26.5529    9.6494 C   0  0  0  0  0  0  0  0  0  0  0  0
   11.2454   27.8159    7.9557 H   0  0  0  0  0  0  0  0  0  0  0  0
    8.4013   26.9169    5.7142 C   0  0  0  0  0  0  0  0  0  0  0  0
    7.7276   27.9096    6.7317 C   0  0  0  0  0  0  0  0  0  0  0  0
    8.1263   27.4528    4.2792 C   0  0  0  0  0  0  0  0  0  0  0  0
   11.5444   24.2925    2.8962 O   0  0  0  0  0  0  0  0  0  0  0  0
   10.5846   23.2517    2.4870 C   0  0  0  0  0  0  0  0  0  0  0  0
    9.1780   23.7711    2.3947 C   0  0  0  0  0  0  0  0  0  0  0  0
    8.1282   23.1165    3.0922 C   0  0  0  0  0  0  0  0  0  0  0  0
    6.8021   23.6009    3.0004 C   0  0  0  0  0  0  0  0  0  0  0  0
    6.5276   24.7443    2.2031 C   0  0  0  0  0  0  0  0  0  0  0  0
    7.5720   25.3915    1.5110 C   0  0  0  0  0  0  0  0  0  0  0  0
    8.8969   24.9050    1.6080 C   0  0  0  0  0  0  0  0  0  0  0  0
    2.7694   26.3043    2.6740 S   0  0  0  0  0  0  0  0  0  0  0  0
    3.1276   25.8573    0.9891 C   0  0  0  0  0  0  0  0  0  0  0  0
    4.3475   25.3480    0.8318 C   0  0  0  0  0  0  0  0  0  0  0  0
    5.1033   25.2796    2.0948 C   0  0  0  0  0  0  0  0  0  0  0  0
    4.3940   25.7461    3.1280 C   0  0  0  0  0  0  0  0  0  0  0  0
   14.1078   22.4242    5.5815 C   0  0  0  0  0  0  0  0  0  0  0  0
   15.3245   21.9711    4.8859 C   0  0  0  0  0  0  0  0  0  0  0  0
   15.7304   22.6404    3.9345 O   0  0  0  0  0  0  0  0  0  0  0  0
   15.9224   20.8570    5.3451 N   0  0  0  0  0  0  0  0  0  0  0  0
   15.5197   20.3897    6.1124 H   0  0  0  0  0  0  0  0  0  0  0  0
   17.1261   20.3161    4.7646 C   0  0  0  0  0  0  0  0  0  0  0  0
   16.6634   19.3012    3.7516 C   0  0  0  0  0  0  0  0  0  0  0  0
   17.3823   19.0484    2.7407 O   0  0  0  0  0  0  0  0  0  0  0  0
   15.4698   18.7387    4.0200 N   0  0  0  0  0  0  0  0  0  0  0  0
   14.9718   17.7554    3.0587 C   0  0  0  0  0  0  0  0  0  0  0  0
   14.9566   18.9779    4.8254 H   0  0  0  0  0  0  0  0  0  0  0  0
   17.9888   19.5966    5.8767 C   0  0  0  0  0  0  0  0  0  0  0  0
   19.3912   20.2862    6.1293 C   0  0  0  0  0  0  0  0  0  0  0  0
   18.2125   18.0795    5.5620 C   0  0  0  0  0  0  0  0  0  0  0  0
   14.0661   22.1054    6.9943 O   0  0  0  0  0  0  0  0  0  0  0  0
   15.0337   22.8486    7.8026 C   0  0  0  0  0  0  0  0  0  0  0  0
   16.0005   21.9090    8.4629 C   0  0  0  0  0  0  0  0  0  0  0  0
   17.4010   22.2288    8.4837 C   0  0  0  0  0  0  0  0  0  0  0  0
   18.3333   21.3554    9.1171 C   0  0  0  0  0  0  0  0  0  0  0  0
   17.8559   20.1717    9.7241 C   0  0  0  0  0  0  0  0  0  0  0  0
   16.4514   19.8517    9.7040 C   0  0  0  0  0  0  0  0  0  0  0  0
   15.5233   20.7247    9.0722 C   0  0  0  0  0  0  0  0  0  0  0  0
   20.4734   17.2438   10.8387 S   0  0  0  0  0  0  0  0  0  0  0  0
   19.3473   18.1411    9.8070 C   0  0  0  0  0  0  0  0  0  0  0  0
   18.8388   19.2276   10.3953 C   0  0  0  0  0  0  0  0  0  0  0  0
   19.3478   19.4061   11.7682 C   0  0  0  0  0  0  0  0  0  0  0  0
   20.2020   18.4484   12.1221 C   0  0  0  0  0  0  0  0  0  0  0  0
 23 24  2  0  0  0
 23 28  1  0  0  0
 23 22  1  0  0  0
 24 25  1  0  0  0
 25 26  2  0  0  0
 26 27  1  0  0  0
 26 32  1  0  0  0
 27 28  2  0  0  0
 50 51  2  0  0  0
 50 55  1  0  0  0
 50 49  1  0  0  0
 51 52  1  0  0  0
 52 53  2  0  0  0
 53 54  1  0  0  0
 53 58  1  0  0  0
 54 55  2  0  0  0
 49 48  1  0  0  0
 48 34  1  0  0  0
 34  1  1  0  0  0
 34 35  1  0  0  0
  1  4  1  0  0  0
  1  2  1  0  0  0
  4  7  1  0  0  0
  4  5  1  0  0  0
  7  8  1  0  0  0
  7 21  1  0  0  0
  8  9  2  0  0  0
  8 10  1  0  0  0
 10 12  1  0  0  0
 12 18  1  0  0  0
 12 13  1  0  0  0
 18 19  1  0  0  0
 18 20  1  0  0  0
 13 14  2  0  0  0
 13 15  1  0  0  0
 15 16  1  0  0  0
 21 22  1  0  0  0
 35 36  2  0  0  0
 35 37  1  0  0  0
 37 39  1  0  0  0
 39 45  1  0  0  0
 39 40  1  0  0  0
 45 46  1  0  0  0
 45 47  1  0  0  0
 40 41  2  0  0  0
 40 42  1  0  0  0
 42 43  1  0  0  0
 29 30  1  0  0  0
 29 33  1  0  0  0
 30 31  2  0  0  0
 31 32  1  0  0  0
 32 33  2  0  0  0
 56 57  1  0  0  0
 56 60  1  0  0  0
 57 58  2  0  0  0
 58 59  1  0  0  0
 59 60  2  0  0  0
 10 11  1  0  0  0
 15 17  1  0  0  0
  5  6  1  0  0  0
  2  3  1  0  0  0
 37 38  1  0  0  0
 42 44  1  0  0  0
M  END
> <minimizedAffinity>
-8.84137

$$$$
1EC1_BEE_A_501


 60 63  0  0  0  0  0  0  0  0999 V2000
    4.9227   25.7852    4.6249 C   0  0  0  0  0  0  0  0  0  0  0  0
    4.7602   26.0200    6.0671 O   0  0  0  0  0  0  0  0  0  0  0  0
    4.3882   26.9043    6.2108 H   0  0  0  0  0  0  0  0  0  0  0  0
    5.8977   26.7464    4.0176 C   0  0  0  0  0  0  0  0  0  0  0  0
    5.9160   27.8979    4.8863 O   0  0  0  0  0  0  0  0  0  0  0  0
    6.1755   27.6246    5.7800 H   0  0  0  0  0  0  0  0  0  0  0  0
    7.2823   26.0756    3.7911 C   0  0  0  0  0  0  0  0  0  0  0  0
    8.3280   26.6758    4.7157 C   0  0  0  0  0  0  0  0  0  0  0  0
    8.8489   27.7465    4.3971 O   0  0  0  0  0  0  0  0  0  0  0  0
    8.6361   26.0128    5.8329 N   0  0  0  0  0  0  0  0  0  0  0  0
    8.1673   25.1637    6.0015 H   0  0  0  0  0  0  0  0  0  0  0  0
    9.6359   26.4602    6.8449 C   0  0  0  0  0  0  0  0  0  0  0  0
   10.6912   25.3740    6.8694 C   0  0  0  0  0  0  0  0  0  0  0  0
   10.4148   24.2422    6.4001 O   0  0  0  0  0  0  0  0  0  0  0  0
   11.9026   25.7297    7.4212 N   0  0  0  0  0  0  0  0  0  0  0  0
   12.9390   24.7261    7.4705 C   0  0  0  0  0  0  0  0  0  0  0  0
   12.0561   26.6374    7.7700 H   0  0  0  0  0  0  0  0  0  0  0  0
    8.9801   26.5784    8.2821 C   0  0  0  0  0  0  0  0  0  0  0  0
    7.6715   27.4513    8.2796 C   0  0  0  0  0  0  0  0  0  0  0  0
    8.6308   25.2054    8.9260 C   0  0  0  0  0  0  0  0  0  0  0  0
    7.7138   26.2497    2.3879 O   0  0  0  0  0  0  0  0  0  0  0  0
    8.0487   25.0012    1.6802 C   0  0  0  0  0  0  0  0  0  0  0  0
    9.2418   24.3067    2.2727 C   0  0  0  0  0  0  0  0  0  0  0  0
    9.1281   22.9733    2.7485 C   0  0  0  0  0  0  0  0  0  0  0  0
   10.2494   22.3209    3.3128 C   0  0  0  0  0  0  0  0  0  0  0  0
   11.4886   23.0098    3.4033 C   0  0  0  0  0  0  0  0  0  0  0  0
   11.5980   24.3340    2.9307 C   0  0  0  0  0  0  0  0  0  0  0  0
   10.4746   24.9813    2.3648 C   0  0  0  0  0  0  0  0  0  0  0  0
   14.2966   21.0305    5.6341 S   0  0  0  0  0  0  0  0  0  0  0  0
   14.9099   21.5413    4.0437 C   0  0  0  0  0  0  0  0  0  0  0  0
   14.0011   22.1868    3.3159 C   0  0  0  0  0  0  0  0  0  0  0  0
   12.7071   22.3198    4.0081 C   0  0  0  0  0  0  0  0  0  0  0  0
   12.7298   21.7603    5.2225 C   0  0  0  0  0  0  0  0  0  0  0  0
    3.5603   25.8456    3.9440 C   0  0  0  0  0  0  0  0  0  0  0  0
    2.9018   27.0969    4.3562 C   0  0  0  0  0  0  0  0  0  0  0  0
    2.9940   28.0726    3.6095 O   0  0  0  0  0  0  0  0  0  0  0  0
    2.2292   27.0888    5.5212 N   0  0  0  0  0  0  0  0  0  0  0  0
    2.2146   26.2582    6.0495 H   0  0  0  0  0  0  0  0  0  0  0  0
    1.5289   28.2411    6.0311 C   0  0  0  0  0  0  0  0  0  0  0  0
    2.5909   29.1216    6.6372 C   0  0  0  0  0  0  0  0  0  0  0  0
    3.1496   28.7788    7.7203 O   0  0  0  0  0  0  0  0  0  0  0  0
    2.8527   30.2477    5.9470 N   0  0  0  0  0  0  0  0  0  0  0  0
    3.8683   31.1417    6.5023 C   0  0  0  0  0  0  0  0  0  0  0  0
    2.3828   30.4593    5.1082 H   0  0  0  0  0  0  0  0  0  0  0  0
    0.5048   27.8013    7.1522 C   0  0  0  0  0  0  0  0  0  0  0  0
    0.3824   26.2309    7.3114 C   0  0  0  0  0  0  0  0  0  0  0  0
   -0.9205   28.4060    6.9210 C   0  0  0  0  0  0  0  0  0  0  0  0
    2.8290   24.6403    4.2780 O   0  0  0  0  0  0  0  0  0  0  0  0
    2.5255   23.7882    3.1275 C   0  0  0  0  0  0  0  0  0  0  0  0
    2.8034   22.3487    3.4502 C   0  0  0  0  0  0  0  0  0  0  0  0
    1.9830   21.3197    2.8740 C   0  0  0  0  0  0  0  0  0  0  0  0
    2.2390   19.9461    3.1583 C   0  0  0  0  0  0  0  0  0  0  0  0
    3.3134   19.6151    4.0149 C   0  0  0  0  0  0  0  0  0  0  0  0
    4.1366   20.6471    4.5918 C   0  0  0  0  0  0  0  0  0  0  0  0
    3.8797   22.0164    4.3063 C   0  0  0  0  0  0  0  0  0  0  0  0
    3.3475   15.7113    5.2088 S   0  0  0  0  0  0  0  0  0  0  0  0
    2.7468   17.3644    4.9986 C   0  0  0  0  0  0  0  0  0  0  0  0
    3.5928   18.1562    4.3334 C   0  0  0  0  0  0  0  0  0  0  0  0
    4.8247   17.4471    3.9394 C   0  0  0  0  0  0  0  0  0  0  0  0
    4.8261   16.1748    4.3308 C   0  0  0  0  0  0  0  0  0  0  0  0
 23 24  2  0  0  0
 23 28  1  0  0  0
 23 22  1  0  0  0
 24 25  1  0  0  0
 25 26  2  0  0  0
 26 27  1  0  0  0
 26 32  1  0  0  0
 27 28  2  0  0  0
 50 51  2  0  0  0
 50 55  1  0  0  0
 50 49  1  0  0  0
 51 52  1  0  0  0
 52 53  2  0  0  0
 53 54  1  0  0  0
 53 58  1  0  0  0
 54 55  2  0  0  0
 49 48  1  0  0  0
 48 34  1  0  0  0
 34  1  1  0  0  0
 34 35  1  0  0  0
  1  4  1  0  0  0
  1  2  1  0  0  0
  4  7  1  0  0  0
  4  5  1  0  0  0
  7  8  1  0  0  0
  7 21  1  0  0  0
  8  9  2  0  0  0
  8 10  1  0  0  0
 10 12  1  0  0  0
 12 18  1  0  0  0
 12 13  1  0  0  0
 18 19  1  0  0  0
 18 20  1  0  0  0
 13 14  2  0  0  0
 13 15  1  0  0  0
 15 16  1  0  0  0
 21 22  1  0  0  0
 35 36  2  0  0  0
 35 37  1  0  0  0
 37 39  1  0  0  0
 39 45  1  0  0  0
 39 40  1  0  0  0
 45 46  1  0  0  0
 45 47  1  0  0  0
 40 41  2  0  0  0
 40 42  1  0  0  0
 42 43  1  0  0  0
 29 30  1  0  0  0
 29 33  1  0  0  0
 30 31  2  0  0  0
 31 32  1  0  0  0
 32 33  2  0  0  0
 56 57  1  0  0  0
 56 60  1  0  0  0
 57 58  2  0  0  0
 58 59  1  0  0  0
 59 60  2  0  0  0
 10 11  1  0  0  0
 15 17  1  0  0  0
  5  6  1  0  0  0
  2  3  1  0  0  0
 37 38  1  0  0  0
 42 44  1  0  0  0
M  END
> <minimizedAffinity>
-8.79153

$$$$
1EC1_BEE_A_501


 60 63  0  0  0  0  0  0  0  0999 V2000
    6.1756   26.1002    3.8822 C   0  0  0  0  0  0  0  0  0  0  0  0
    6.1033   27.5567    4.0691 O   0  0  0  0  0  0  0  0  0  0  0  0
    5.9866   27.9877    3.2080 H   0  0  0  0  0  0  0  0  0  0  0  0
    7.3655   25.7095    3.0607 C   0  0  0  0  0  0  0  0  0  0  0  0
    7.6321   26.8271    2.1885 O   0  0  0  0  0  0  0  0  0  0  0  0
    7.7962   27.6210    2.7212 H   0  0  0  0  0  0  0  0  0  0  0  0
    8.5582   25.2854    3.9641 C   0  0  0  0  0  0  0  0  0  0  0  0
    8.8620   26.3612    4.9932 C   0  0  0  0  0  0  0  0  0  0  0  0
    8.8607   27.5390    4.6299 O   0  0  0  0  0  0  0  0  0  0  0  0
    9.1186   25.9794    6.2465 N   0  0  0  0  0  0  0  0  0  0  0  0
    9.0979   25.0146    6.4411 H   0  0  0  0  0  0  0  0  0  0  0  0
    9.4341   26.9028    7.3743 C   0  0  0  0  0  0  0  0  0  0  0  0
   10.8096   26.4890    7.8549 C   0  0  0  0  0  0  0  0  0  0  0  0
   11.2370   26.9394    8.9466 O   0  0  0  0  0  0  0  0  0  0  0  0
   11.4972   25.6270    7.0287 N   0  0  0  0  0  0  0  0  0  0  0  0
   12.8149   25.2074    7.4427 C   0  0  0  0  0  0  0  0  0  0  0  0
   11.1033   25.3081    6.1847 H   0  0  0  0  0  0  0  0  0  0  0  0
    8.3974   26.7313    8.5598 C   0  0  0  0  0  0  0  0  0  0  0  0
    6.9426   27.1762    8.1599 C   0  0  0  0  0  0  0  0  0  0  0  0
    8.3121   25.2788    9.1122 C   0  0  0  0  0  0  0  0  0  0  0  0
    9.7629   25.0414    3.1428 O   0  0  0  0  0  0  0  0  0  0  0  0
   10.0158   23.6274    2.8135 C   0  0  0  0  0  0  0  0  0  0  0  0
   11.1620   23.0512    3.5952 C   0  0  0  0  0  0  0  0  0  0  0  0
   11.0179   22.7865    4.9832 C   0  0  0  0  0  0  0  0  0  0  0  0
   12.0989   22.2503    5.7216 C   0  0  0  0  0  0  0  0  0  0  0  0
   13.3303   21.9816    5.0659 C   0  0  0  0  0  0  0  0  0  0  0  0
   13.4705   22.2463    3.6878 C   0  0  0  0  0  0  0  0  0  0  0  0
   12.3858   22.7801    2.9531 C   0  0  0  0  0  0  0  0  0  0  0  0
   16.0819   20.6447    7.7899 S   0  0  0  0  0  0  0  0  0  0  0  0
   16.5685   20.3371    6.1061 C   0  0  0  0  0  0  0  0  0  0  0  0
   15.6779   20.7718    5.2172 C   0  0  0  0  0  0  0  0  0  0  0  0
   14.5049   21.4023    5.8478 C   0  0  0  0  0  0  0  0  0  0  0  0
   14.5930   21.4001    7.1823 C   0  0  0  0  0  0  0  0  0  0  0  0
    4.8707   25.6013    3.2725 C   0  0  0  0  0  0  0  0  0  0  0  0
    3.8329   26.6145    3.5292 C   0  0  0  0  0  0  0  0  0  0  0  0
    3.3047   27.1605    2.5592 O   0  0  0  0  0  0  0  0  0  0  0  0
    3.5200   26.8699    4.8123 N   0  0  0  0  0  0  0  0  0  0  0  0
    4.0006   26.3816    5.5193 H   0  0  0  0  0  0  0  0  0  0  0  0
    2.5129   27.8262    5.1991 C   0  0  0  0  0  0  0  0  0  0  0  0
    3.2707   29.0287    5.6989 C   0  0  0  0  0  0  0  0  0  0  0  0
    4.5352   28.9973    5.7537 O   0  0  0  0  0  0  0  0  0  0  0  0
    2.4998   30.0690    6.0681 N   0  0  0  0  0  0  0  0  0  0  0  0
    3.1894   31.2562    6.5722 C   0  0  0  0  0  0  0  0  0  0  0  0
    1.5182   30.0323    6.0019 H   0  0  0  0  0  0  0  0  0  0  0  0
    1.6265   27.2375    6.3682 C   0  0  0  0  0  0  0  0  0  0  0  0
    2.4737   26.7288    7.6051 C   0  0  0  0  0  0  0  0  0  0  0  0
    0.6915   26.0820    5.8769 C   0  0  0  0  0  0  0  0  0  0  0  0
    4.5829   24.2907    3.8190 O   0  0  0  0  0  0  0  0  0  0  0  0
    3.3622   23.6792    3.2920 C   0  0  0  0  0  0  0  0  0  0  0  0
    3.3464   22.2053    3.5762 C   0  0  0  0  0  0  0  0  0  0  0  0
    4.2676   21.6556    4.5318 C   0  0  0  0  0  0  0  0  0  0  0  0
    4.2595   20.2601    4.8248 C   0  0  0  0  0  0  0  0  0  0  0  0
    3.3298   19.4286    4.1603 C   0  0  0  0  0  0  0  0  0  0  0  0
    2.4055   19.9801    3.2027 C   0  0  0  0  0  0  0  0  0  0  0  0
    2.4150   21.3723    2.9126 C   0  0  0  0  0  0  0  0  0  0  0  0
    4.0526   15.4524    4.7384 S   0  0  0  0  0  0  0  0  0  0  0  0
    4.3753   17.1393    4.3048 C   0  0  0  0  0  0  0  0  0  0  0  0
    3.3153   17.9386    4.4562 C   0  0  0  0  0  0  0  0  0  0  0  0
    2.1334   17.2070    4.9498 C   0  0  0  0  0  0  0  0  0  0  0  0
    2.3789   15.9122    5.1375 C   0  0  0  0  0  0  0  0  0  0  0  0
 23 24  2  0  0  0
 23 28  1  0  0  0
 23 22  1  0  0  0
 24 25  1  0  0  0
 25 26  2  0  0  0
 26 27  1  0  0  0
 26 32  1  0  0  0
 27 28  2  0  0  0
 50 51  2  0  0  0
 50 55  1  0  0  0
 50 49  1  0  0  0
 51 52  1  0  0  0
 52 53  2  0  0  0
 53 54  1  0  0  0
 53 58  1  0  0  0
 54 55  2  0  0  0
 49 48  1  0  0  0
 48 34  1  0  0  0
 34  1  1  0  0  0
 34 35  1  0  0  0
  1  4  1  0  0  0
  1  2  1  0  0  0
  4  7  1  0  0  0
  4  5  1  0  0  0
  7  8  1  0  0  0
  7 21  1  0  0  0
  8  9  2  0  0  0
  8 10  1  0  0  0
 10 12  1  0  0  0
 12 18  1  0  0  0
 12 13  1  0  0  0
 18 19  1  0  0  0
 18 20  1  0  0  0
 13 14  2  0  0  0
 13 15  1  0  0  0
 15 16  1  0  0  0
 21 22  1  0  0  0
 35 36  2  0  0  0
 35 37  1  0  0  0
 37 39  1  0  0  0
 39 45  1  0  0  0
 39 40  1  0  0  0
 45 46  1  0  0  0
 45 47  1  0  0  0
 40 41  2  0  0  0
 40 42  1  0  0  0
 42 43  1  0  0  0
 29 30  1  0  0  0
 29 33  1  0  0  0
 30 31  2  0  0  0
 31 32  1  0  0  0
 32 33  2  0  0  0
 56 57  1  0  0  0
 56 60  1  0  0  0
 57 58  2  0  0  0
 58 59  1  0  0  0
 59 60  2  0  0  0
 10 11  1  0  0  0
 15 17  1  0  0  0
  5  6  1  0  0  0
  2  3  1  0  0  0
 37 38  1  0  0  0
 42 44  1  0  0  0
M  END
> <minimizedAffinity>
-8.57738

$$$$
1EC1_BEE_A_501


 60 63  0  0  0  0  0  0  0  0999 V2000
   12.3761   24.7463    6.3510 C   0  0  0  0  0  0  0  0  0  0  0  0
   12.6404   26.1287    6.7758 O   0  0  0  0  0  0  0  0  0  0  0  0
   11.8097   26.5465    7.0520 H   0  0  0  0  0  0  0  0  0  0  0  0
   11.4743   24.7010    5.1560 C   0  0  0  0  0  0  0  0  0  0  0  0
   10.9083   26.0222    5.0333 O   0  0  0  0  0  0  0  0  0  0  0  0
   11.6218   26.6716    4.9327 H   0  0  0  0  0  0  0  0  0  0  0  0
   12.2339   24.1952    3.8968 C   0  0  0  0  0  0  0  0  0  0  0  0
   11.3338   24.2366    2.6733 C   0  0  0  0  0  0  0  0  0  0  0  0
   11.8573   24.2119    1.5577 O   0  0  0  0  0  0  0  0  0  0  0  0
   10.0139   24.2997    2.8642 N   0  0  0  0  0  0  0  0  0  0  0  0
    9.6892   24.3165    3.7934 H   0  0  0  0  0  0  0  0  0  0  0  0
    8.9939   24.3467    1.7773 C   0  0  0  0  0  0  0  0  0  0  0  0
    8.3643   25.7203    1.8812 C   0  0  0  0  0  0  0  0  0  0  0  0
    7.5850   26.1059    0.9748 O   0  0  0  0  0  0  0  0  0  0  0  0
    8.7100   26.4537    2.9952 N   0  0  0  0  0  0  0  0  0  0  0  0
    8.1380   27.7716    3.1361 C   0  0  0  0  0  0  0  0  0  0  0  0
    9.3262   26.0913    3.6721 H   0  0  0  0  0  0  0  0  0  0  0  0
    7.8756   23.2460    1.9958 C   0  0  0  0  0  0  0  0  0  0  0  0
    8.4667   21.8717    2.4820 C   0  0  0  0  0  0  0  0  0  0  0  0
    6.7698   23.6684    3.0061 C   0  0  0  0  0  0  0  0  0  0  0  0
   12.7101   22.8114    4.1058 O   0  0  0  0  0  0  0  0  0  0  0  0
   13.4968   22.2491    2.9937 C   0  0  0  0  0  0  0  0  0  0  0  0
   14.5503   21.2867    3.4637 C   0  0  0  0  0  0  0  0  0  0  0  0
   15.1914   21.4855    4.7153 C   0  0  0  0  0  0  0  0  0  0  0  0
   16.1884   20.5835    5.1556 C   0  0  0  0  0  0  0  0  0  0  0  0
   16.5462   19.4799    4.3356 C   0  0  0  0  0  0  0  0  0  0  0  0
   15.9083   19.2858    3.0929 C   0  0  0  0  0  0  0  0  0  0  0  0
   14.9101   20.1890    2.6581 C   0  0  0  0  0  0  0  0  0  0  0  0
   19.2597   16.4670    4.9171 S   0  0  0  0  0  0  0  0  0  0  0  0
   19.2704   17.6711    6.2273 C   0  0  0  0  0  0  0  0  0  0  0  0
   18.3885   18.6512    6.0434 C   0  0  0  0  0  0  0  0  0  0  0  0
   17.6184   18.4978    4.7966 C   0  0  0  0  0  0  0  0  0  0  0  0
   17.9758   17.4012    4.1197 C   0  0  0  0  0  0  0  0  0  0  0  0
   11.8112   23.9539    7.5243 C   0  0  0  0  0  0  0  0  0  0  0  0
   10.8691   24.8243    8.2484 C   0  0  0  0  0  0  0  0  0  0  0  0
   11.2281   25.2922    9.3302 O   0  0  0  0  0  0  0  0  0  0  0  0
    9.6769   25.0620    7.6723 N   0  0  0  0  0  0  0  0  0  0  0  0
    9.4818   24.6398    6.8046 H   0  0  0  0  0  0  0  0  0  0  0  0
    8.6721   25.9070    8.2678 C   0  0  0  0  0  0  0  0  0  0  0  0
    7.8005   26.3616    7.1260 C   0  0  0  0  0  0  0  0  0  0  0  0
    8.2547   26.3497    5.9443 O   0  0  0  0  0  0  0  0  0  0  0  0
    6.5672   26.7671    7.4833 N   0  0  0  0  0  0  0  0  0  0  0  0
    5.6873   27.2297    6.4106 C   0  0  0  0  0  0  0  0  0  0  0  0
    6.2718   26.7529    8.4223 H   0  0  0  0  0  0  0  0  0  0  0  0
    9.3518   27.1630    8.9456 C   0  0  0  0  0  0  0  0  0  0  0  0
    8.4071   27.9124    9.9715 C   0  0  0  0  0  0  0  0  0  0  0  0
    9.8802   28.1909    7.8898 C   0  0  0  0  0  0  0  0  0  0  0  0
   12.9184   23.4672    8.3220 O   0  0  0  0  0  0  0  0  0  0  0  0
   14.2214   23.5780    7.6650 C   0  0  0  0  0  0  0  0  0  0  0  0
   15.1728   22.5502    8.2053 C   0  0  0  0  0  0  0  0  0  0  0  0
   14.6602   21.4074    8.9092 C   0  0  0  0  0  0  0  0  0  0  0  0
   15.5470   20.4138    9.4187 C   0  0  0  0  0  0  0  0  0  0  0  0
   16.9370   20.5721    9.2184 C   0  0  0  0  0  0  0  0  0  0  0  0
   17.4508   21.7176    8.5117 C   0  0  0  0  0  0  0  0  0  0  0  0
   16.5644   22.7070    8.0038 C   0  0  0  0  0  0  0  0  0  0  0  0
   18.9570   17.2433   10.4452 S   0  0  0  0  0  0  0  0  0  0  0  0
   17.6489   18.2124    9.7471 C   0  0  0  0  0  0  0  0  0  0  0  0
   17.8943   19.5257    9.7630 C   0  0  0  0  0  0  0  0  0  0  0  0
   19.2042   19.8392   10.3643 C   0  0  0  0  0  0  0  0  0  0  0  0
   19.8565   18.7481   10.7592 C   0  0  0  0  0  0  0  0  0  0  0  0
 23 24  2  0  0  0
 23 28  1  0  0  0
 23 22  1  0  0  0
 24 25  1  0  0  0
 25 26  2  0  0  0
 26 27  1  0  0  0
 26 32  1  0  0  0
 27 28  2  0  0  0
 50 51  2  0  0  0
 50 55  1  0  0  0
 50 49  1  0  0  0
 51 52  1  0  0  0
 52 53  2  0  0  0
 53 54  1  0  0  0
 53 58  1  0  0  0
 54 55  2  0  0  0
 49 48  1  0  0  0
 48 34  1  0  0  0
 34  1  1  0  0  0
 34 35  1  0  0  0
  1  4  1  0  0  0
  1  2  1  0  0  0
  4  7  1  0  0  0
  4  5  1  0  0  0
  7  8  1  0  0  0
  7 21  1  0  0  0
  8  9  2  0  0  0
  8 10  1  0  0  0
 10 12  1  0  0  0
 12 18  1  0  0  0
 12 13  1  0  0  0
 18 19  1  0  0  0
 18 20  1  0  0  0
 13 14  2  0  0  0
 13 15  1  0  0  0
 15 16  1  0  0  0
 21 22  1  0  0  0
 35 36  2  0  0  0
 35 37  1  0  0  0
 37 39  1  0  0  0
 39 45  1  0  0  0
 39 40  1  0  0  0
 45 46  1  0  0  0
 45 47  1  0  0  0
 40 41  2  0  0  0
 40 42  1  0  0  0
 42 43  1  0  0  0
 29 30  1  0  0  0
 29 33  1  0  0  0
 30 31  2  0  0  0
 31 32  1  0  0  0
 32 33  2  0  0  0
 56 57  1  0  0  0
 56 60  1  0  0  0
 57 58  2  0  0  0
 58 59  1  0  0  0
 59 60  2  0  0  0
 10 11  1  0  0  0
 15 17  1  0  0  0
  5  6  1  0  0  0
  2  3  1  0  0  0
 37 38  1  0  0  0
 42 44  1  0  0  0
M  END
> <minimizedAffinity>
-8.21969

$$$$
1EC1_BEE_A_501


 60 63  0  0  0  0  0  0  0  0999 V2000
   19.4308   17.6326    7.6901 C   0  0  0  0  0  0  0  0  0  0  0  0
   20.2975   16.7342    8.4667 O   0  0  0  0  0  0  0  0  0  0  0  0
   19.7906   15.9546    8.7427 H   0  0  0  0  0  0  0  0  0  0  0  0
   18.2946   18.1511    8.5168 C   0  0  0  0  0  0  0  0  0  0  0  0
   17.7106   16.9989    9.1590 O   0  0  0  0  0  0  0  0  0  0  0  0
   18.3837   16.5522    9.6959 H   0  0  0  0  0  0  0  0  0  0  0  0
   18.7692   19.2703    9.4866 C   0  0  0  0  0  0  0  0  0  0  0  0
   19.0089   18.7095   10.8783 C   0  0  0  0  0  0  0  0  0  0  0  0
   18.4902   19.2809   11.8394 O   0  0  0  0  0  0  0  0  0  0  0  0
   19.7739   17.6216   10.9960 N   0  0  0  0  0  0  0  0  0  0  0  0
   20.1460   17.2361   10.1701 H   0  0  0  0  0  0  0  0  0  0  0  0
   20.1077   16.9459   12.2828 C   0  0  0  0  0  0  0  0  0  0  0  0
   21.5827   16.6149   12.1878 C   0  0  0  0  0  0  0  0  0  0  0  0
   22.2023   16.8819   11.1284 O   0  0  0  0  0  0  0  0  0  0  0  0
   22.1375   16.0309   13.3056 N   0  0  0  0  0  0  0  0  0  0  0  0
   23.5403   15.6932   13.2611 C   0  0  0  0  0  0  0  0  0  0  0  0
   21.5956   15.8500   14.1075 H   0  0  0  0  0  0  0  0  0  0  0  0
   19.2849   15.6029   12.4528 C   0  0  0  0  0  0  0  0  0  0  0  0
   17.7914   15.8582   12.8755 C   0  0  0  0  0  0  0  0  0  0  0  0
   19.2688   14.7124   11.1765 C   0  0  0  0  0  0  0  0  0  0  0  0
   17.7591   20.3471    9.5616 O   0  0  0  0  0  0  0  0  0  0  0  0
   17.8407   21.3530    8.4878 C   0  0  0  0  0  0  0  0  0  0  0  0
   16.5242   22.0305    8.2332 C   0  0  0  0  0  0  0  0  0  0  0  0
   16.4838   23.4122    7.9070 C   0  0  0  0  0  0  0  0  0  0  0  0
   15.2440   24.0525    7.6738 C   0  0  0  0  0  0  0  0  0  0  0  0
   14.0400   23.3047    7.7716 C   0  0  0  0  0  0  0  0  0  0  0  0
   14.0835   21.9331    8.0965 C   0  0  0  0  0  0  0  0  0  0  0  0
   15.3258   21.2966    8.3263 C   0  0  0  0  0  0  0  0  0  0  0  0
   10.1835   24.4034    6.9352 S   0  0  0  0  0  0  0  0  0  0  0  0
   11.2062   25.7778    7.4168 C   0  0  0  0  0  0  0  0  0  0  0  0
   12.4611   25.4255    7.6877 C   0  0  0  0  0  0  0  0  0  0  0  0
   12.6953   23.9803    7.5220 C   0  0  0  0  0  0  0  0  0  0  0  0
   11.5899   23.3359    7.1330 C   0  0  0  0  0  0  0  0  0  0  0  0
   18.9450   16.9122    6.4378 C   0  0  0  0  0  0  0  0  0  0  0  0
   19.5920   15.5897    6.3949 C   0  0  0  0  0  0  0  0  0  0  0  0
   18.9149   14.6042    6.6920 O   0  0  0  0  0  0  0  0  0  0  0  0
   20.8833   15.5434    6.0206 N   0  0  0  0  0  0  0  0  0  0  0  0
   21.3403   16.3880    5.8036 H   0  0  0  0  0  0  0  0  0  0  0  0
   21.6284   14.3130    5.9227 C   0  0  0  0  0  0  0  0  0  0  0  0
   22.0733   13.9993    7.3276 C   0  0  0  0  0  0  0  0  0  0  0  0
   23.0388   14.6387    7.8394 O   0  0  0  0  0  0  0  0  0  0  0  0
   21.3801   13.0169    7.9337 N   0  0  0  0  0  0  0  0  0  0  0  0
   21.7831   12.6673    9.2955 C   0  0  0  0  0  0  0  0  0  0  0  0
   20.6371   12.5557    7.4816 H   0  0  0  0  0  0  0  0  0  0  0  0
   22.8961   14.5185    5.0009 C   0  0  0  0  0  0  0  0  0  0  0  0
   22.5980   15.3742    3.7028 C   0  0  0  0  0  0  0  0  0  0  0  0
   23.5478   13.1587    4.5804 C   0  0  0  0  0  0  0  0  0  0  0  0
   19.2176   17.7550    5.2912 O   0  0  0  0  0  0  0  0  0  0  0  0
   18.2664   17.5918    4.1910 C   0  0  0  0  0  0  0  0  0  0  0  0
   17.3003   18.7402    4.1554 C   0  0  0  0  0  0  0  0  0  0  0  0
   16.2477   18.7537    3.1776 C   0  0  0  0  0  0  0  0  0  0  0  0
   15.3125   19.8292    3.1359 C   0  0  0  0  0  0  0  0  0  0  0  0
   15.4384   20.8798    4.0728 C   0  0  0  0  0  0  0  0  0  0  0  0
   16.4933   20.8657    5.0539 C   0  0  0  0  0  0  0  0  0  0  0  0
   17.4245   19.7915    5.0939 C   0  0  0  0  0  0  0  0  0  0  0  0
   13.4304   24.4339    4.1262 S   0  0  0  0  0  0  0  0  0  0  0  0
   14.7955   23.3113    4.2444 C   0  0  0  0  0  0  0  0  0  0  0  0
   14.4542   22.0365    4.0350 C   0  0  0  0  0  0  0  0  0  0  0  0
   13.0136   21.8852    3.7566 C   0  0  0  0  0  0  0  0  0  0  0  0
   12.3676   23.0490    3.7738 C   0  0  0  0  0  0  0  0  0  0  0  0
 23 24  2  0  0  0
 23 28  1  0  0  0
 23 22  1  0  0  0
 24 25  1  0  0  0
 25 26  2  0  0  0
 26 27  1  0  0  0
 26 32  1  0  0  0
 27 28  2  0  0  0
 50 51  2  0  0  0
 50 55  1  0  0  0
 50 49  1  0  0  0
 51 52  1  0  0  0
 52 53  2  0  0  0
 53 54  1  0  0  0
 53 58  1  0  0  0
 54 55  2  0  0  0
 49 48  1  0  0  0
 48 34  1  0  0  0
 34  1  1  0  0  0
 34 35  1  0  0  0
  1  4  1  0  0  0
  1  2  1  0  0  0
  4  7  1  0  0  0
  4  5  1  0  0  0
  7  8  1  0  0  0
  7 21  1  0  0  0
  8  9  2  0  0  0
  8 10  1  0  0  0
 10 12  1  0  0  0
 12 18  1  0  0  0
 12 13  1  0  0  0
 18 19  1  0  0  0
 18 20  1  0  0  0
 13 14  2  0  0  0
 13 15  1  0  0  0
 15 16  1  0  0  0
 21 22  1  0  0  0
 35 36  2  0  0  0
 35 37  1  0  0  0
 37 39  1  0  0  0
 39 45  1  0  0  0
 39 40  1  0  0  0
 45 46  1  0  0  0
 45 47  1  0  0  0
 40 41  2  0  0  0
 40 42  1  0  0  0
 42 43  1  0  0  0
 29 30  1  0  0  0
 29 33  1  0  0  0
 30 31  2  0  0  0
 31 32  1  0  0  0
 32 33  2  0  0  0
 56 57  1  0  0  0
 56 60  1  0  0  0
 57 58  2  0  0  0
 58 59  1  0  0  0
 59 60  2  0  0  0
 10 11  1  0  0  0
 15 17  1  0  0  0
  5  6  1  0  0  0
  2  3  1  0  0  0
 37 38  1  0  0  0
 42 44  1  0  0  0
M  END
> <minimizedAffinity>
-8.15894

$$$$
