5J6L_6GC_A_301


 32 34  0  0  0  0  0  0  0  0999 V2000
  -33.6042  -12.3132   22.9149 C   0  0  0  0  0  0  0  0  0  0  0  0
  -32.2716  -11.9711   23.2161 C   0  0  0  0  0  0  0  0  0  0  0  0
  -34.6554  -11.9038   23.7712 C   0  0  0  0  0  0  0  0  0  0  0  0
  -31.9795  -11.2493   24.3748 C   0  0  0  0  0  0  0  0  0  0  0  0
  -33.0283  -10.8367   25.2259 C   0  0  0  0  0  0  0  0  0  0  0  0
  -34.3425  -11.1958   24.9330 C   0  0  0  0  0  0  0  0  0  0  0  0
  -30.7036  -10.9224   24.6960 O   0  0  0  0  0  0  0  0  0  0  0  0
  -33.8949  -13.0221   21.8097 O   0  0  0  0  0  0  0  0  0  0  0  0
  -29.9976  -11.1893   24.1408 H   0  0  0  0  0  0  0  0  0  0  0  0
  -33.2075  -13.2983   21.2360 H   0  0  0  0  0  0  0  0  0  0  0  0
  -32.7906   -9.9914   26.4170 C   0  0  0  0  0  0  0  0  0  0  0  0
  -32.9338   -8.2558   27.7808 C   0  0  0  0  0  0  0  0  0  0  0  0
  -32.0797  -10.2989   27.4770 N   0  0  0  0  0  0  0  0  0  0  0  0
  -33.3196   -8.7113   26.5643 N   0  0  0  0  0  0  0  0  0  0  0  0
  -32.1645   -9.2156   28.3549 N   0  0  0  0  0  0  0  0  0  0  0  0
  -33.2205   -7.1595   28.2620 O   0  0  0  0  0  0  0  0  0  0  0  0
  -31.7383   -9.1579   29.2405 H   0  0  0  0  0  0  0  0  0  0  0  0
  -33.5057   -7.3097   24.5505 C   0  0  0  0  0  0  0  0  0  0  0  0
  -34.1079   -8.0013   25.6181 C   0  0  0  0  0  0  0  0  0  0  0  0
  -35.6667   -6.6264   23.7395 C   0  0  0  0  0  0  0  0  0  0  0  0
  -35.5088   -8.0002   25.7219 C   0  0  0  0  0  0  0  0  0  0  0  0
  -36.2900   -7.3134   24.7875 C   0  0  0  0  0  0  0  0  0  0  0  0
  -34.2786   -6.6274   23.6140 C   0  0  0  0  0  0  0  0  0  0  0  0
  -36.0963   -8.6591   26.7376 F   0  0  0  0  0  0  0  0  0  0  0  0
  -36.0804  -12.3004   23.6660 C   0  0  0  0  0  0  0  0  0  0  0  0
  -36.4904  -13.4982   24.1942 N   0  0  0  0  0  0  0  0  0  0  0  0
  -36.9095  -11.4935   23.2605 O   0  0  0  0  0  0  0  0  0  0  0  0
  -35.5345  -14.5070   24.6819 C   0  0  0  0  0  0  0  0  0  0  0  0
  -37.9164  -13.8526   24.2611 C   0  0  0  0  0  0  0  0  0  0  0  0
  -38.0929  -15.2206   24.9542 C   0  0  0  0  0  0  0  0  0  0  0  0
  -40.4613  -14.5770   25.2894 C   0  0  0  0  0  0  0  0  0  0  0  0
  -39.2196  -15.1095   25.9896 C   0  0  0  0  0  0  0  0  0  0  0  0
  8  1  1  0  0  0
 27 25  2  0  0  0
  1  2  2  0  0  0
  1  3  1  0  0  0
 25  3  1  0  0  0
 25 26  1  0  0  0
  2  4  1  0  0  0
 23 20  2  0  0  0
 23 18  1  0  0  0
  3  6  2  0  0  0
 20 22  1  0  0  0
 29 26  1  0  0  0
 29 30  1  0  0  0
 26 28  1  0  0  0
 18 19  2  0  0  0
  4  7  1  0  0  0
  4  5  2  0  0  0
 22 21  2  0  0  0
  6  5  1  0  0  0
 32 30  1  0  0  0
 32 31  1  0  0  0
  5 11  1  0  0  0
 19 21  1  0  0  0
 19 14  1  0  0  0
 21 24  1  0  0  0
 11 14  1  0  0  0
 11 13  2  0  0  0
 14 12  1  0  0  0
 13 15  1  0  0  0
 12 16  2  0  0  0
 12 15  1  0  0  0
  7  9  1  0  0  0
  8 10  1  0  0  0
 15 17  1  0  0  0
M  END
> <minimizedAffinity>
-10.74522

$$$$
5J6L_6GC_A_301


 32 34  0  0  0  0  0  0  0  0999 V2000
  -33.1615  -12.6289   23.0521 C   0  0  0  0  0  0  0  0  0  0  0  0
  -31.9931  -11.8463   23.1314 C   0  0  0  0  0  0  0  0  0  0  0  0
  -34.1135  -12.5950   24.1001 C   0  0  0  0  0  0  0  0  0  0  0  0
  -31.7566  -11.0543   24.2564 C   0  0  0  0  0  0  0  0  0  0  0  0
  -32.7086  -11.0167   25.2989 C   0  0  0  0  0  0  0  0  0  0  0  0
  -33.8526  -11.8087   25.2238 C   0  0  0  0  0  0  0  0  0  0  0  0
  -30.6318  -10.3053   24.3645 O   0  0  0  0  0  0  0  0  0  0  0  0
  -33.3912  -13.4077   21.9801 O   0  0  0  0  0  0  0  0  0  0  0  0
  -29.9914  -10.3202   23.6806 H   0  0  0  0  0  0  0  0  0  0  0  0
  -32.7683  -13.4379   21.2809 H   0  0  0  0  0  0  0  0  0  0  0  0
  -32.5583  -10.1269   26.4718 C   0  0  0  0  0  0  0  0  0  0  0  0
  -32.8573   -8.3737   27.7870 C   0  0  0  0  0  0  0  0  0  0  0  0
  -31.8483  -10.3543   27.5523 N   0  0  0  0  0  0  0  0  0  0  0  0
  -33.1836   -8.8866   26.5759 N   0  0  0  0  0  0  0  0  0  0  0  0
  -32.0309   -9.2590   28.4000 N   0  0  0  0  0  0  0  0  0  0  0  0
  -33.2341   -7.2903   28.2341 O   0  0  0  0  0  0  0  0  0  0  0  0
  -31.6281   -9.1479   29.2914 H   0  0  0  0  0  0  0  0  0  0  0  0
  -33.4330   -7.5232   24.5429 C   0  0  0  0  0  0  0  0  0  0  0  0
  -34.0030   -8.2609   25.5972 C   0  0  0  0  0  0  0  0  0  0  0  0
  -35.6202   -7.0526   23.6546 C   0  0  0  0  0  0  0  0  0  0  0  0
  -35.4005   -8.3913   25.6550 C   0  0  0  0  0  0  0  0  0  0  0  0
  -36.2110   -7.7880   24.6885 C   0  0  0  0  0  0  0  0  0  0  0  0
  -34.2348   -6.9235   23.5746 C   0  0  0  0  0  0  0  0  0  0  0  0
  -35.9571   -9.0955   26.6575 F   0  0  0  0  0  0  0  0  0  0  0  0
  -35.3127  -13.4580   24.2270 C   0  0  0  0  0  0  0  0  0  0  0  0
  -36.5618  -12.8935   24.1729 N   0  0  0  0  0  0  0  0  0  0  0  0
  -35.1902  -14.6777   24.2130 O   0  0  0  0  0  0  0  0  0  0  0  0
  -36.7636  -11.4348   24.2011 C   0  0  0  0  0  0  0  0  0  0  0  0
  -37.7727  -13.7271   24.1256 C   0  0  0  0  0  0  0  0  0  0  0  0
  -38.8599  -13.1396   25.0507 C   0  0  0  0  0  0  0  0  0  0  0  0
  -40.2010  -11.7521   23.4977 C   0  0  0  0  0  0  0  0  0  0  0  0
  -40.1809  -13.0604   24.2745 C   0  0  0  0  0  0  0  0  0  0  0  0
  8  1  1  0  0  0
 27 25  2  0  0  0
  1  2  2  0  0  0
  1  3  1  0  0  0
 25  3  1  0  0  0
 25 26  1  0  0  0
  2  4  1  0  0  0
 23 20  2  0  0  0
 23 18  1  0  0  0
  3  6  2  0  0  0
 20 22  1  0  0  0
 29 26  1  0  0  0
 29 30  1  0  0  0
 26 28  1  0  0  0
 18 19  2  0  0  0
  4  7  1  0  0  0
  4  5  2  0  0  0
 22 21  2  0  0  0
  6  5  1  0  0  0
 32 30  1  0  0  0
 32 31  1  0  0  0
  5 11  1  0  0  0
 19 21  1  0  0  0
 19 14  1  0  0  0
 21 24  1  0  0  0
 11 14  1  0  0  0
 11 13  2  0  0  0
 14 12  1  0  0  0
 13 15  1  0  0  0
 12 16  2  0  0  0
 12 15  1  0  0  0
  7  9  1  0  0  0
  8 10  1  0  0  0
 15 17  1  0  0  0
M  END
> <minimizedAffinity>
-9.78909

$$$$
5J6L_6GC_A_301


 32 34  0  0  0  0  0  0  0  0999 V2000
  -33.4063   -9.2399   27.0270 C   0  0  0  0  0  0  0  0  0  0  0  0
  -32.2230  -10.0035   27.0024 C   0  0  0  0  0  0  0  0  0  0  0  0
  -34.2690   -9.2275   25.9039 C   0  0  0  0  0  0  0  0  0  0  0  0
  -31.8830  -10.7303   25.8601 C   0  0  0  0  0  0  0  0  0  0  0  0
  -32.7461  -10.7219   24.7422 C   0  0  0  0  0  0  0  0  0  0  0  0
  -33.9049   -9.9483   24.7651 C   0  0  0  0  0  0  0  0  0  0  0  0
  -30.7413  -11.4593   25.8050 O   0  0  0  0  0  0  0  0  0  0  0  0
  -33.7350   -8.5235   28.1165 O   0  0  0  0  0  0  0  0  0  0  0  0
  -30.1592  -11.4744   26.5391 H   0  0  0  0  0  0  0  0  0  0  0  0
  -33.1717   -8.5243   28.8653 H   0  0  0  0  0  0  0  0  0  0  0  0
  -32.4865  -11.5446   23.5398 C   0  0  0  0  0  0  0  0  0  0  0  0
  -32.8719  -12.9473   21.8734 C   0  0  0  0  0  0  0  0  0  0  0  0
  -31.3734  -11.6041   22.8463 N   0  0  0  0  0  0  0  0  0  0  0  0
  -33.4367  -12.3902   22.9721 N   0  0  0  0  0  0  0  0  0  0  0  0
  -31.6002  -12.4813   21.7830 N   0  0  0  0  0  0  0  0  0  0  0  0
  -33.4172  -13.7454   21.1110 O   0  0  0  0  0  0  0  0  0  0  0  0
  -30.9478  -12.7210   21.0857 H   0  0  0  0  0  0  0  0  0  0  0  0
  -35.8086  -11.7608   23.1512 C   0  0  0  0  0  0  0  0  0  0  0  0
  -34.7511  -12.6392   23.4526 C   0  0  0  0  0  0  0  0  0  0  0  0
  -37.3460  -13.1483   24.3782 C   0  0  0  0  0  0  0  0  0  0  0  0
  -35.0198  -13.7853   24.2192 C   0  0  0  0  0  0  0  0  0  0  0  0
  -36.3132  -14.0416   24.6847 C   0  0  0  0  0  0  0  0  0  0  0  0
  -37.0999  -12.0129   23.6082 C   0  0  0  0  0  0  0  0  0  0  0  0
  -34.0172  -14.6334   24.5127 F   0  0  0  0  0  0  0  0  0  0  0  0
  -35.4674   -8.3727   25.7250 C   0  0  0  0  0  0  0  0  0  0  0  0
  -35.3529   -7.1765   25.0634 N   0  0  0  0  0  0  0  0  0  0  0  0
  -36.5756   -8.8073   26.0184 O   0  0  0  0  0  0  0  0  0  0  0  0
  -34.0451   -6.6042   24.7009 C   0  0  0  0  0  0  0  0  0  0  0  0
  -36.5408   -6.3808   24.7179 C   0  0  0  0  0  0  0  0  0  0  0  0
  -36.9735   -6.6736   23.2653 C   0  0  0  0  0  0  0  0  0  0  0  0
  -38.4981   -8.6168   23.0771 C   0  0  0  0  0  0  0  0  0  0  0  0
  -38.4450   -7.1076   23.2647 C   0  0  0  0  0  0  0  0  0  0  0  0
  8  1  1  0  0  0
 27 25  2  0  0  0
  1  2  2  0  0  0
  1  3  1  0  0  0
 25  3  1  0  0  0
 25 26  1  0  0  0
  2  4  1  0  0  0
 23 20  2  0  0  0
 23 18  1  0  0  0
  3  6  2  0  0  0
 20 22  1  0  0  0
 29 26  1  0  0  0
 29 30  1  0  0  0
 26 28  1  0  0  0
 18 19  2  0  0  0
  4  7  1  0  0  0
  4  5  2  0  0  0
 22 21  2  0  0  0
  6  5  1  0  0  0
 32 30  1  0  0  0
 32 31  1  0  0  0
  5 11  1  0  0  0
 19 21  1  0  0  0
 19 14  1  0  0  0
 21 24  1  0  0  0
 11 14  1  0  0  0
 11 13  2  0  0  0
 14 12  1  0  0  0
 13 15  1  0  0  0
 12 16  2  0  0  0
 12 15  1  0  0  0
  7  9  1  0  0  0
  8 10  1  0  0  0
 15 17  1  0  0  0
M  END
> <minimizedAffinity>
-8.77598

$$$$
5J6L_6GC_A_301


 32 34  0  0  0  0  0  0  0  0999 V2000
  -35.9986   -7.2293   23.0169 C   0  0  0  0  0  0  0  0  0  0  0  0
  -34.6970   -6.7324   23.2229 C   0  0  0  0  0  0  0  0  0  0  0  0
  -36.5441   -8.1869   23.9064 C   0  0  0  0  0  0  0  0  0  0  0  0
  -33.9295   -7.2022   24.2901 C   0  0  0  0  0  0  0  0  0  0  0  0
  -34.4756   -8.1534   25.1799 C   0  0  0  0  0  0  0  0  0  0  0  0
  -35.7562   -8.6562   24.9590 C   0  0  0  0  0  0  0  0  0  0  0  0
  -32.6678   -6.7526   24.4999 O   0  0  0  0  0  0  0  0  0  0  0  0
  -36.7403   -6.7952   21.9825 O   0  0  0  0  0  0  0  0  0  0  0  0
  -32.2925   -6.1215   23.9178 H   0  0  0  0  0  0  0  0  0  0  0  0
  -36.3896   -6.1618   21.3877 H   0  0  0  0  0  0  0  0  0  0  0  0
  -33.7465   -8.6191   26.3805 C   0  0  0  0  0  0  0  0  0  0  0  0
  -32.4454   -9.8822   27.6472 C   0  0  0  0  0  0  0  0  0  0  0  0
  -33.6853   -8.0250   27.5496 N   0  0  0  0  0  0  0  0  0  0  0  0
  -33.0011   -9.7952   26.4144 N   0  0  0  0  0  0  0  0  0  0  0  0
  -32.8600   -8.8057   28.3626 N   0  0  0  0  0  0  0  0  0  0  0  0
  -31.7119  -10.7883   28.0429 O   0  0  0  0  0  0  0  0  0  0  0  0
  -32.6197   -8.6085   29.2968 H   0  0  0  0  0  0  0  0  0  0  0  0
  -33.8323  -11.7254   25.1345 C   0  0  0  0  0  0  0  0  0  0  0  0
  -32.8533  -10.7406   25.3631 C   0  0  0  0  0  0  0  0  0  0  0  0
  -32.5716  -12.5844   23.2725 C   0  0  0  0  0  0  0  0  0  0  0  0
  -31.7330  -10.6895   24.5170 C   0  0  0  0  0  0  0  0  0  0  0  0
  -31.5879  -11.6094   23.4739 C   0  0  0  0  0  0  0  0  0  0  0  0
  -33.6957  -12.6417   24.0944 C   0  0  0  0  0  0  0  0  0  0  0  0
  -30.7908   -9.7515   24.7247 F   0  0  0  0  0  0  0  0  0  0  0  0
  -37.8331   -8.9023   23.7458 C   0  0  0  0  0  0  0  0  0  0  0  0
  -37.8550  -10.2735   23.7793 N   0  0  0  0  0  0  0  0  0  0  0  0
  -38.8847   -8.2722   23.7504 O   0  0  0  0  0  0  0  0  0  0  0  0
  -36.6207  -11.0769   23.7612 C   0  0  0  0  0  0  0  0  0  0  0  0
  -39.1255  -11.0146   23.7930 C   0  0  0  0  0  0  0  0  0  0  0  0
  -38.8595  -12.5234   23.9825 C   0  0  0  0  0  0  0  0  0  0  0  0
  -39.8463  -14.6424   24.8021 C   0  0  0  0  0  0  0  0  0  0  0  0
  -40.1643  -13.2060   24.4132 C   0  0  0  0  0  0  0  0  0  0  0  0
  8  1  1  0  0  0
 27 25  2  0  0  0
  1  2  2  0  0  0
  1  3  1  0  0  0
 25  3  1  0  0  0
 25 26  1  0  0  0
  2  4  1  0  0  0
 23 20  2  0  0  0
 23 18  1  0  0  0
  3  6  2  0  0  0
 20 22  1  0  0  0
 29 26  1  0  0  0
 29 30  1  0  0  0
 26 28  1  0  0  0
 18 19  2  0  0  0
  4  7  1  0  0  0
  4  5  2  0  0  0
 22 21  2  0  0  0
  6  5  1  0  0  0
 32 30  1  0  0  0
 32 31  1  0  0  0
  5 11  1  0  0  0
 19 21  1  0  0  0
 19 14  1  0  0  0
 21 24  1  0  0  0
 11 14  1  0  0  0
 11 13  2  0  0  0
 14 12  1  0  0  0
 13 15  1  0  0  0
 12 16  2  0  0  0
 12 15  1  0  0  0
  7  9  1  0  0  0
  8 10  1  0  0  0
 15 17  1  0  0  0
M  END
> <minimizedAffinity>
-8.56750

$$$$
5J6L_6GC_A_301


 32 34  0  0  0  0  0  0  0  0999 V2000
  -34.0509   -8.2420   26.7406 C   0  0  0  0  0  0  0  0  0  0  0  0
  -33.3580   -9.3895   27.1727 C   0  0  0  0  0  0  0  0  0  0  0  0
  -34.2799   -8.0264   25.3597 C   0  0  0  0  0  0  0  0  0  0  0  0
  -32.8710  -10.3058   26.2388 C   0  0  0  0  0  0  0  0  0  0  0  0
  -33.1039  -10.0932   24.8622 C   0  0  0  0  0  0  0  0  0  0  0  0
  -33.7722   -8.9458   24.4398 C   0  0  0  0  0  0  0  0  0  0  0  0
  -32.1862  -11.4092   26.6281 O   0  0  0  0  0  0  0  0  0  0  0  0
  -34.5101   -7.3449   27.6310 O   0  0  0  0  0  0  0  0  0  0  0  0
  -32.0242  -11.5632   27.5381 H   0  0  0  0  0  0  0  0  0  0  0  0
  -34.3644   -7.4773   28.5471 H   0  0  0  0  0  0  0  0  0  0  0  0
  -32.6942  -11.0743   23.8328 C   0  0  0  0  0  0  0  0  0  0  0  0
  -32.8626  -12.7163   22.3603 C   0  0  0  0  0  0  0  0  0  0  0  0
  -31.5068  -11.2001   23.2872 N   0  0  0  0  0  0  0  0  0  0  0  0
  -33.5597  -12.0224   23.2925 N   0  0  0  0  0  0  0  0  0  0  0  0
  -31.5955  -12.2296   22.3470 N   0  0  0  0  0  0  0  0  0  0  0  0
  -33.3040  -13.6334   21.6677 O   0  0  0  0  0  0  0  0  0  0  0  0
  -30.8627  -12.5483   21.7719 H   0  0  0  0  0  0  0  0  0  0  0  0
  -35.9161  -11.3140   23.2926 C   0  0  0  0  0  0  0  0  0  0  0  0
  -34.9179  -12.2388   23.6518 C   0  0  0  0  0  0  0  0  0  0  0  0
  -37.5978  -12.6829   24.3377 C   0  0  0  0  0  0  0  0  0  0  0  0
  -35.2890  -13.3979   24.3534 C   0  0  0  0  0  0  0  0  0  0  0  0
  -36.6251  -13.6219   24.6993 C   0  0  0  0  0  0  0  0  0  0  0  0
  -37.2494  -11.5337   23.6303 C   0  0  0  0  0  0  0  0  0  0  0  0
  -34.3437  -14.2903   24.7012 F   0  0  0  0  0  0  0  0  0  0  0  0
  -34.8643   -6.8103   24.7445 C   0  0  0  0  0  0  0  0  0  0  0  0
  -36.1963   -6.7908   24.4170 N   0  0  0  0  0  0  0  0  0  0  0  0
  -34.2031   -5.7798   24.6838 O   0  0  0  0  0  0  0  0  0  0  0  0
  -37.0310   -8.0035   24.4598 C   0  0  0  0  0  0  0  0  0  0  0  0
  -36.8508   -5.5541   23.9633 C   0  0  0  0  0  0  0  0  0  0  0  0
  -37.4775   -4.8125   25.1633 C   0  0  0  0  0  0  0  0  0  0  0  0
  -39.5558   -4.6003   26.4943 C   0  0  0  0  0  0  0  0  0  0  0  0
  -38.9941   -5.0441   25.1515 C   0  0  0  0  0  0  0  0  0  0  0  0
  8  1  1  0  0  0
 27 25  2  0  0  0
  1  2  2  0  0  0
  1  3  1  0  0  0
 25  3  1  0  0  0
 25 26  1  0  0  0
  2  4  1  0  0  0
 23 20  2  0  0  0
 23 18  1  0  0  0
  3  6  2  0  0  0
 20 22  1  0  0  0
 29 26  1  0  0  0
 29 30  1  0  0  0
 26 28  1  0  0  0
 18 19  2  0  0  0
  4  7  1  0  0  0
  4  5  2  0  0  0
 22 21  2  0  0  0
  6  5  1  0  0  0
 32 30  1  0  0  0
 32 31  1  0  0  0
  5 11  1  0  0  0
 19 21  1  0  0  0
 19 14  1  0  0  0
 21 24  1  0  0  0
 11 14  1  0  0  0
 11 13  2  0  0  0
 14 12  1  0  0  0
 13 15  1  0  0  0
 12 16  2  0  0  0
 12 15  1  0  0  0
  7  9  1  0  0  0
  8 10  1  0  0  0
 15 17  1  0  0  0
M  END
> <minimizedAffinity>
-8.48579

$$$$
5J6L_6GC_A_301


 32 34  0  0  0  0  0  0  0  0999 V2000
  -35.9792   -6.7312   22.8345 C   0  0  0  0  0  0  0  0  0  0  0  0
  -34.6170   -6.4271   23.0238 C   0  0  0  0  0  0  0  0  0  0  0  0
  -36.6648   -7.5413   23.7723 C   0  0  0  0  0  0  0  0  0  0  0  0
  -33.9308   -6.9456   24.1234 C   0  0  0  0  0  0  0  0  0  0  0  0
  -34.6160   -7.7492   25.0611 C   0  0  0  0  0  0  0  0  0  0  0  0
  -35.9583   -8.0631   24.8574 C   0  0  0  0  0  0  0  0  0  0  0  0
  -32.6154   -6.6818   24.3189 O   0  0  0  0  0  0  0  0  0  0  0  0
  -36.6455   -6.2501   21.7701 O   0  0  0  0  0  0  0  0  0  0  0  0
  -32.1479   -6.1502   23.7051 H   0  0  0  0  0  0  0  0  0  0  0  0
  -36.2019   -5.7130   21.1433 H   0  0  0  0  0  0  0  0  0  0  0  0
  -33.9671   -8.2499   26.2932 C   0  0  0  0  0  0  0  0  0  0  0  0
  -32.7657   -9.5600   27.6097 C   0  0  0  0  0  0  0  0  0  0  0  0
  -33.9637   -7.6778   27.4748 N   0  0  0  0  0  0  0  0  0  0  0  0
  -33.2465   -9.4406   26.3484 N   0  0  0  0  0  0  0  0  0  0  0  0
  -33.2018   -8.4885   28.3198 N   0  0  0  0  0  0  0  0  0  0  0  0
  -32.0732  -10.4869   28.0303 O   0  0  0  0  0  0  0  0  0  0  0  0
  -33.0132   -8.3125   29.2698 H   0  0  0  0  0  0  0  0  0  0  0  0
  -31.8142  -10.4696   24.6325 C   0  0  0  0  0  0  0  0  0  0  0  0
  -33.0545  -10.3700   25.2900 C   0  0  0  0  0  0  0  0  0  0  0  0
  -32.6720  -12.2225   23.2233 C   0  0  0  0  0  0  0  0  0  0  0  0
  -34.0990  -11.2244   24.8995 C   0  0  0  0  0  0  0  0  0  0  0  0
  -33.9125  -12.1487   23.8670 C   0  0  0  0  0  0  0  0  0  0  0  0
  -31.6208  -11.3913   23.6063 C   0  0  0  0  0  0  0  0  0  0  0  0
  -35.2892  -11.1396   25.5216 F   0  0  0  0  0  0  0  0  0  0  0  0
  -38.0478   -8.0601   23.6410 C   0  0  0  0  0  0  0  0  0  0  0  0
  -38.2544   -9.4094   23.5041 N   0  0  0  0  0  0  0  0  0  0  0  0
  -39.0002   -7.3093   23.8199 O   0  0  0  0  0  0  0  0  0  0  0  0
  -37.1462  -10.3517   23.2736 C   0  0  0  0  0  0  0  0  0  0  0  0
  -39.6098   -9.9796   23.5401 C   0  0  0  0  0  0  0  0  0  0  0  0
  -39.6199  -11.3707   22.8711 C   0  0  0  0  0  0  0  0  0  0  0  0
  -39.0329  -12.9019   24.7277 C   0  0  0  0  0  0  0  0  0  0  0  0
  -40.1805  -12.3949   23.8665 C   0  0  0  0  0  0  0  0  0  0  0  0
  8  1  1  0  0  0
 27 25  2  0  0  0
  1  2  2  0  0  0
  1  3  1  0  0  0
 25  3  1  0  0  0
 25 26  1  0  0  0
  2  4  1  0  0  0
 23 20  2  0  0  0
 23 18  1  0  0  0
  3  6  2  0  0  0
 20 22  1  0  0  0
 29 26  1  0  0  0
 29 30  1  0  0  0
 26 28  1  0  0  0
 18 19  2  0  0  0
  4  7  1  0  0  0
  4  5  2  0  0  0
 22 21  2  0  0  0
  6  5  1  0  0  0
 32 30  1  0  0  0
 32 31  1  0  0  0
  5 11  1  0  0  0
 19 21  1  0  0  0
 19 14  1  0  0  0
 21 24  1  0  0  0
 11 14  1  0  0  0
 11 13  2  0  0  0
 14 12  1  0  0  0
 13 15  1  0  0  0
 12 16  2  0  0  0
 12 15  1  0  0  0
  7  9  1  0  0  0
  8 10  1  0  0  0
 15 17  1  0  0  0
M  END
> <minimizedAffinity>
-8.27332

$$$$
5J6L_6GC_A_301


 32 34  0  0  0  0  0  0  0  0999 V2000
  -38.1115  -12.5079   24.5293 C   0  0  0  0  0  0  0  0  0  0  0  0
  -37.2160  -13.5329   24.8914 C   0  0  0  0  0  0  0  0  0  0  0  0
  -37.6957  -11.4761   23.6527 C   0  0  0  0  0  0  0  0  0  0  0  0
  -35.9064  -13.5207   24.4082 C   0  0  0  0  0  0  0  0  0  0  0  0
  -35.4935  -12.4945   23.5300 C   0  0  0  0  0  0  0  0  0  0  0  0
  -36.3780  -11.4723   23.1918 C   0  0  0  0  0  0  0  0  0  0  0  0
  -35.0203  -14.4862   24.7554 O   0  0  0  0  0  0  0  0  0  0  0  0
  -39.3704  -12.5014   25.0020 O   0  0  0  0  0  0  0  0  0  0  0  0
  -35.2801  -15.1733   25.3372 H   0  0  0  0  0  0  0  0  0  0  0  0
  -39.6564  -13.1790   25.5825 H   0  0  0  0  0  0  0  0  0  0  0  0
  -34.1488  -12.4792   22.9125 C   0  0  0  0  0  0  0  0  0  0  0  0
  -31.9977  -12.0321   22.6566 C   0  0  0  0  0  0  0  0  0  0  0  0
  -33.7780  -13.0836   21.8076 N   0  0  0  0  0  0  0  0  0  0  0  0
  -33.0653  -11.7934   23.4563 N   0  0  0  0  0  0  0  0  0  0  0  0
  -32.4176  -12.8185   21.6329 N   0  0  0  0  0  0  0  0  0  0  0  0
  -30.8595  -11.5949   22.8272 O   0  0  0  0  0  0  0  0  0  0  0  0
  -31.8579  -13.1465   20.8924 H   0  0  0  0  0  0  0  0  0  0  0  0
  -32.5413  -11.4614   25.8373 C   0  0  0  0  0  0  0  0  0  0  0  0
  -33.0694  -10.9826   24.6239 C   0  0  0  0  0  0  0  0  0  0  0  0
  -33.0539   -9.3712   26.9157 C   0  0  0  0  0  0  0  0  0  0  0  0
  -33.5812   -9.6752   24.5766 C   0  0  0  0  0  0  0  0  0  0  0  0
  -33.5772   -8.8689   25.7188 C   0  0  0  0  0  0  0  0  0  0  0  0
  -32.5303  -10.6614   26.9775 C   0  0  0  0  0  0  0  0  0  0  0  0
  -34.0876   -9.2057   23.4216 F   0  0  0  0  0  0  0  0  0  0  0  0
  -38.4696  -10.2636   23.2921 C   0  0  0  0  0  0  0  0  0  0  0  0
  -38.0887   -9.0441   23.7916 N   0  0  0  0  0  0  0  0  0  0  0  0
  -39.3359  -10.3282   22.4271 O   0  0  0  0  0  0  0  0  0  0  0  0
  -37.0634   -8.9134   24.8408 C   0  0  0  0  0  0  0  0  0  0  0  0
  -38.7219   -7.8000   23.3280 C   0  0  0  0  0  0  0  0  0  0  0  0
  -37.7643   -6.6068   23.5336 C   0  0  0  0  0  0  0  0  0  0  0  0
  -35.4643   -6.1411   22.7406 C   0  0  0  0  0  0  0  0  0  0  0  0
  -36.8816   -6.4596   22.2874 C   0  0  0  0  0  0  0  0  0  0  0  0
  8  1  1  0  0  0
 27 25  2  0  0  0
  1  2  2  0  0  0
  1  3  1  0  0  0
 25  3  1  0  0  0
 25 26  1  0  0  0
  2  4  1  0  0  0
 23 20  2  0  0  0
 23 18  1  0  0  0
  3  6  2  0  0  0
 20 22  1  0  0  0
 29 26  1  0  0  0
 29 30  1  0  0  0
 26 28  1  0  0  0
 18 19  2  0  0  0
  4  7  1  0  0  0
  4  5  2  0  0  0
 22 21  2  0  0  0
  6  5  1  0  0  0
 32 30  1  0  0  0
 32 31  1  0  0  0
  5 11  1  0  0  0
 19 21  1  0  0  0
 19 14  1  0  0  0
 21 24  1  0  0  0
 11 14  1  0  0  0
 11 13  2  0  0  0
 14 12  1  0  0  0
 13 15  1  0  0  0
 12 16  2  0  0  0
 12 15  1  0  0  0
  7  9  1  0  0  0
  8 10  1  0  0  0
 15 17  1  0  0  0
M  END
> <minimizedAffinity>
-8.00778

$$$$
5J6L_6GC_A_301


 32 34  0  0  0  0  0  0  0  0999 V2000
  -34.7761  -10.1677   24.2932 C   0  0  0  0  0  0  0  0  0  0  0  0
  -34.0245   -9.0193   24.6095 C   0  0  0  0  0  0  0  0  0  0  0  0
  -36.1102  -10.2940   24.7515 C   0  0  0  0  0  0  0  0  0  0  0  0
  -34.5837   -8.0128   25.3989 C   0  0  0  0  0  0  0  0  0  0  0  0
  -35.9158   -8.1366   25.8515 C   0  0  0  0  0  0  0  0  0  0  0  0
  -36.6471   -9.2843   25.5523 C   0  0  0  0  0  0  0  0  0  0  0  0
  -33.8755   -6.9057   25.7316 O   0  0  0  0  0  0  0  0  0  0  0  0
  -34.2415  -11.1504   23.5469 O   0  0  0  0  0  0  0  0  0  0  0  0
  -32.9907   -6.8099   25.4384 H   0  0  0  0  0  0  0  0  0  0  0  0
  -33.3598  -11.0775   23.2383 H   0  0  0  0  0  0  0  0  0  0  0  0
  -36.5929   -7.0628   26.6119 C   0  0  0  0  0  0  0  0  0  0  0  0
  -37.6956   -5.1847   26.9988 C   0  0  0  0  0  0  0  0  0  0  0  0
  -36.7972   -7.0183   27.9080 N   0  0  0  0  0  0  0  0  0  0  0  0
  -37.1217   -5.9203   26.0160 N   0  0  0  0  0  0  0  0  0  0  0  0
  -37.5005   -5.8404   28.1712 N   0  0  0  0  0  0  0  0  0  0  0  0
  -38.2724   -4.1077   26.8471 O   0  0  0  0  0  0  0  0  0  0  0  0
  -37.8035   -5.5370   29.0574 H   0  0  0  0  0  0  0  0  0  0  0  0
  -36.0024   -4.8058   24.1294 C   0  0  0  0  0  0  0  0  0  0  0  0
  -37.0657   -5.5744   24.6383 C   0  0  0  0  0  0  0  0  0  0  0  0
  -36.9446   -4.9187   21.9172 C   0  0  0  0  0  0  0  0  0  0  0  0
  -38.0641   -6.0185   23.7554 C   0  0  0  0  0  0  0  0  0  0  0  0
  -38.0082   -5.6914   22.3972 C   0  0  0  0  0  0  0  0  0  0  0  0
  -35.9387   -4.4804   22.7765 C   0  0  0  0  0  0  0  0  0  0  0  0
  -39.0852   -6.7554   24.2300 F   0  0  0  0  0  0  0  0  0  0  0  0
  -36.9750  -11.4915   24.6214 C   0  0  0  0  0  0  0  0  0  0  0  0
  -38.1981  -11.3801   24.0104 N   0  0  0  0  0  0  0  0  0  0  0  0
  -36.5311  -12.5980   24.9071 O   0  0  0  0  0  0  0  0  0  0  0  0
  -38.7820  -10.0742   23.6596 C   0  0  0  0  0  0  0  0  0  0  0  0
  -39.0110  -12.5689   23.7113 C   0  0  0  0  0  0  0  0  0  0  0  0
  -39.7355  -13.0527   24.9856 C   0  0  0  0  0  0  0  0  0  0  0  0
  -38.8525  -15.3642   25.1010 C   0  0  0  0  0  0  0  0  0  0  0  0
  -40.0963  -14.5345   24.8179 C   0  0  0  0  0  0  0  0  0  0  0  0
  8  1  1  0  0  0
 27 25  2  0  0  0
  1  2  2  0  0  0
  1  3  1  0  0  0
 25  3  1  0  0  0
 25 26  1  0  0  0
  2  4  1  0  0  0
 23 20  2  0  0  0
 23 18  1  0  0  0
  3  6  2  0  0  0
 20 22  1  0  0  0
 29 26  1  0  0  0
 29 30  1  0  0  0
 26 28  1  0  0  0
 18 19  2  0  0  0
  4  7  1  0  0  0
  4  5  2  0  0  0
 22 21  2  0  0  0
  6  5  1  0  0  0
 32 30  1  0  0  0
 32 31  1  0  0  0
  5 11  1  0  0  0
 19 21  1  0  0  0
 19 14  1  0  0  0
 21 24  1  0  0  0
 11 14  1  0  0  0
 11 13  2  0  0  0
 14 12  1  0  0  0
 13 15  1  0  0  0
 12 16  2  0  0  0
 12 15  1  0  0  0
  7  9  1  0  0  0
  8 10  1  0  0  0
 15 17  1  0  0  0
M  END
> <minimizedAffinity>
-7.92117

$$$$
5J6L_6GC_A_301


 32 34  0  0  0  0  0  0  0  0999 V2000
  -35.6552  -12.2789   24.6304 C   0  0  0  0  0  0  0  0  0  0  0  0
  -34.4964  -11.5664   24.2656 C   0  0  0  0  0  0  0  0  0  0  0  0
  -36.8767  -11.5930   24.8384 C   0  0  0  0  0  0  0  0  0  0  0  0
  -34.5416  -10.1774   24.1338 C   0  0  0  0  0  0  0  0  0  0  0  0
  -35.7610   -9.4942   24.3362 C   0  0  0  0  0  0  0  0  0  0  0  0
  -36.8991  -10.2024   24.7168 C   0  0  0  0  0  0  0  0  0  0  0  0
  -33.4362   -9.4668   23.8004 O   0  0  0  0  0  0  0  0  0  0  0  0
  -35.6186  -13.6153   24.7758 O   0  0  0  0  0  0  0  0  0  0  0  0
  -32.6204   -9.9066   23.6630 H   0  0  0  0  0  0  0  0  0  0  0  0
  -34.8160  -14.0795   24.6407 H   0  0  0  0  0  0  0  0  0  0  0  0
  -35.8928   -8.0361   24.1205 C   0  0  0  0  0  0  0  0  0  0  0  0
  -35.7638   -5.8666   24.5319 C   0  0  0  0  0  0  0  0  0  0  0  0
  -36.3246   -7.4318   23.0380 N   0  0  0  0  0  0  0  0  0  0  0  0
  -35.5558   -7.0871   25.0827 N   0  0  0  0  0  0  0  0  0  0  0  0
  -36.2433   -6.0577   23.2765 N   0  0  0  0  0  0  0  0  0  0  0  0
  -35.5668   -4.7848   25.0857 O   0  0  0  0  0  0  0  0  0  0  0  0
  -36.4919   -5.3478   22.6412 H   0  0  0  0  0  0  0  0  0  0  0  0
  -35.9963   -7.5388   27.4610 C   0  0  0  0  0  0  0  0  0  0  0  0
  -35.0909   -7.3396   26.4021 C   0  0  0  0  0  0  0  0  0  0  0  0
  -34.1707   -7.8649   28.9957 C   0  0  0  0  0  0  0  0  0  0  0  0
  -33.7131   -7.4188   26.6646 C   0  0  0  0  0  0  0  0  0  0  0  0
  -33.2501   -7.6786   27.9581 C   0  0  0  0  0  0  0  0  0  0  0  0
  -35.5414   -7.8024   28.7508 C   0  0  0  0  0  0  0  0  0  0  0  0
  -32.8377   -7.2316   25.6600 F   0  0  0  0  0  0  0  0  0  0  0  0
  -38.1368  -12.1784   25.3566 C   0  0  0  0  0  0  0  0  0  0  0  0
  -39.1982  -12.3606   24.5069 N   0  0  0  0  0  0  0  0  0  0  0  0
  -38.1711  -12.6462   26.4893 O   0  0  0  0  0  0  0  0  0  0  0  0
  -39.2124  -11.8073   23.1420 C   0  0  0  0  0  0  0  0  0  0  0  0
  -40.4016  -13.0889   24.9371 C   0  0  0  0  0  0  0  0  0  0  0  0
  -40.2846  -14.5808   24.5582 C   0  0  0  0  0  0  0  0  0  0  0  0
  -38.2116  -15.8302   25.0847 C   0  0  0  0  0  0  0  0  0  0  0  0
  -39.5196  -15.3149   25.6672 C   0  0  0  0  0  0  0  0  0  0  0  0
  8  1  1  0  0  0
 27 25  2  0  0  0
  1  2  2  0  0  0
  1  3  1  0  0  0
 25  3  1  0  0  0
 25 26  1  0  0  0
  2  4  1  0  0  0
 23 20  2  0  0  0
 23 18  1  0  0  0
  3  6  2  0  0  0
 20 22  1  0  0  0
 29 26  1  0  0  0
 29 30  1  0  0  0
 26 28  1  0  0  0
 18 19  2  0  0  0
  4  7  1  0  0  0
  4  5  2  0  0  0
 22 21  2  0  0  0
  6  5  1  0  0  0
 32 30  1  0  0  0
 32 31  1  0  0  0
  5 11  1  0  0  0
 19 21  1  0  0  0
 19 14  1  0  0  0
 21 24  1  0  0  0
 11 14  1  0  0  0
 11 13  2  0  0  0
 14 12  1  0  0  0
 13 15  1  0  0  0
 12 16  2  0  0  0
 12 15  1  0  0  0
  7  9  1  0  0  0
  8 10  1  0  0  0
 15 17  1  0  0  0
M  END
> <minimizedAffinity>
-7.76048

$$$$
