5J6L_6GC_A_301
  RCSB PDB12061718213D
Coordinates from PDB:5J6L:A:301 Model:1 without hydrogens
 29 31  0  0  0  0            999 V2000
  -33.5650   -7.4340   24.6350   C 0  0  0  0  0  0  0  0  0  0  0  0
  -33.0660  -12.2080   23.1380   C 0  0  0  0  0  0  0  0  0  0  0  0
  -31.7760  -11.8780   23.5970   C 0  0  0  0  0  0  0  0  0  0  0  0
  -34.2090  -11.7660   23.8480   C 0  0  0  0  0  0  0  0  0  0  0  0
  -32.6580   -9.8240   26.6690   C 0  0  0  0  0  0  0  0  0  0  0  0
  -33.0320   -8.1090   28.0150   C 0  0  0  0  0  0  0  0  0  0  0  0
  -34.1320   -7.9770   25.8030   C 0  0  0  0  0  0  0  0  0  0  0  0
  -35.7430   -6.7690   23.8550   C 0  0  0  0  0  0  0  0  0  0  0  0
  -35.6160  -12.1450   23.5730   C 0  0  0  0  0  0  0  0  0  0  0  0
  -38.2210  -13.4310   25.2280   C 0  0  0  0  0  0  0  0  0  0  0  0
  -39.7220  -15.0460   26.3570   C 0  0  0  0  0  0  0  0  0  0  0  0
  -31.6190  -11.1360   24.7690   C 0  0  0  0  0  0  0  0  0  0  0  0
  -32.7590  -10.6910   25.4740   C 0  0  0  0  0  0  0  0  0  0  0  0
  -34.0320  -11.0380   25.0260   C 0  0  0  0  0  0  0  0  0  0  0  0
  -31.9660  -10.0570   27.7600   N 0  0  0  0  0  0  0  0  0  0  0  0
  -33.3180   -8.6030   26.7860   N 0  0  0  0  0  0  0  0  0  0  0  0
  -30.3880  -10.8200   25.2410   O 0  0  0  0  0  0  0  0  0  0  0  0
  -33.2280  -12.9360   22.0190   O 0  0  0  0  0  0  0  0  0  0  0  0
  -32.1960   -8.9860   28.6270   N 0  0  0  0  0  0  0  0  0  0  0  0
  -33.4470   -7.0460   28.4770   O 0  0  0  0  0  0  0  0  0  0  0  0
  -35.5250   -7.9130   25.9730   C 0  0  0  0  0  0  0  0  0  0  0  0
  -36.3320   -7.3090   25.0040   C 0  0  0  0  0  0  0  0  0  0  0  0
  -36.0820  -13.3660   23.9900   N 0  0  0  0  0  0  0  0  0  0  0  0
  -36.3960  -11.3110   23.1270   O 0  0  0  0  0  0  0  0  0  0  0  0
  -37.5080  -13.7120   23.8880   C 0  0  0  0  0  0  0  0  0  0  0  0
  -34.3640   -6.8350   23.6640   C 0  0  0  0  0  0  0  0  0  0  0  0
  -35.1850  -14.4070   24.5200   C 0  0  0  0  0  0  0  0  0  0  0  0
  -39.6140  -14.0730   25.1920   C 0  0  0  0  0  0  0  0  0  0  0  0
  -36.0790   -8.4300   27.0850   F 0  0  0  0  0  0  0  0  0  0  0  0
 18  2  1  0  0  0  0
 24  9  2  0  0  0  0
  2  3  2  0  0  0  0
  2  4  1  0  0  0  0
  9  4  1  0  0  0  0
  9 23  1  0  0  0  0
  3 12  1  0  0  0  0
 26  8  2  0  0  0  0
 26  1  1  0  0  0  0
  4 14  2  0  0  0  0
  8 22  1  0  0  0  0
 25 23  1  0  0  0  0
 25 10  1  0  0  0  0
 23 27  1  0  0  0  0
  1  7  2  0  0  0  0
 12 17  1  0  0  0  0
 12 13  2  0  0  0  0
 22 21  2  0  0  0  0
 14 13  1  0  0  0  0
 28 10  1  0  0  0  0
 28 11  1  0  0  0  0
 13  5  1  0  0  0  0
  7 21  1  0  0  0  0
  7 16  1  0  0  0  0
 21 29  1  0  0  0  0
  5 16  1  0  0  0  0
  5 15  2  0  0  0  0
 16  6  1  0  0  0  0
 15 19  1  0  0  0  0
  6 20  2  0  0  0  0
  6 19  1  0  0  0  0
A    1
C1
A    2
C2
A    3
C3
A    4
C7
A    5
C8
A    6
C14
A    7
C16
A    8
C19
A    9
C20
A   10
C24
A   11
C27
A   12
C4
A   13
C5
A   14
C6
A   15
N9
A   16
N10
A   17
O11
A   18
O12
A   19
N13
A   20
O15
A   21
C17
A   22
C18
A   23
N21
A   24
O22
A   25
C23
A   26
C25
A   27
C26
A   28
C28
A   29
F29
M  END
>  <InstanceId>
5J6L_6GC_A_301

>  <ChemCompId>
6GC

>  <PdbId>
5J6L

>  <ChainId>
A

>  <ResidueNumber>
301

>  <InsertionCode>


>  <Model>
1

>  <AltIds>


>  <MissingHeavyAtoms>
0

>  <ObservedFormula>
C20 N4 O4 F

>  <Name>
N-butyl-5-[4-(2-fluorophenyl)-5-oxo-4,5-dihydro-1H-1,2,4-triazol-3-yl]-2,4-dihydroxy-N-methylbenzamide

>  <SystematicName>
~{N}-butyl-5-[4-(2-fluorophenyl)-5-oxidanylidene-1~{H}-1,2,4-triazol-3-yl]-~{N}-methyl-2,4-bis(oxidanyl)benzamide

>  <Synonyms>


>  <Type>
NON-POLYMER

>  <Formula>
C20 H21 F N4 O4

>  <MolecularWeight>
400.404

>  <ModifiedDate>
2017-12-01

>  <Parent>


>  <OneLetterCode>


>  <SubcomponentList>


>  <AmbiguousFlag>
N

>  <InChI>
InChI=1S/C20H21FN4O4/c1-3-4-9-24(2)19(28)13-10-12(16(26)11-17(13)27)18-22-23-20(29)25(18)15-8-6-5-7-14(15)21/h5-8,10-11,26-27H,3-4,9H2,1-2H3,(H,23,29)

>  <InChIKey>
LRPFOJAUXAMOQR-UHFFFAOYSA-N

>  <SMILES>
CCCCN(C)C(=O)c1cc(c(cc1O)O)C2=NNC(=O)N2c3ccccc3F

$$$$
