1W5Y_BE6_A_1100


 58 63  0  0  0  0  0  0  0  0999 V2000
   13.7206   23.1680    5.2055 C   0  0  0  0  0  0  0  0  0  0  0  0
   14.2526   22.9207    3.8532 O   0  0  0  0  0  0  0  0  0  0  0  0
   15.0082   23.5069    3.6908 H   0  0  0  0  0  0  0  0  0  0  0  0
   13.3232   24.5943    5.2585 C   0  0  0  0  0  0  0  0  0  0  0  0
   14.3333   25.3507    4.5408 O   0  0  0  0  0  0  0  0  0  0  0  0
   14.3973   25.0220    3.6305 H   0  0  0  0  0  0  0  0  0  0  0  0
   11.9024   24.7409    4.5902 C   0  0  0  0  0  0  0  0  0  0  0  0
   10.7756   24.8270    5.5953 C   0  0  0  0  0  0  0  0  0  0  0  0
   10.5455   23.8653    6.3458 O   0  0  0  0  0  0  0  0  0  0  0  0
    9.9920   25.9496    5.6528 N   0  0  0  0  0  0  0  0  0  0  0  0
   10.1925   26.6971    5.0443 H   0  0  0  0  0  0  0  0  0  0  0  0
    8.8842   26.0808    6.5694 C   0  0  0  0  0  0  0  0  0  0  0  0
    9.2580   26.7528    7.8990 C   0  0  0  0  0  0  0  0  0  0  0  0
    8.1896   27.6237    8.3147 C   0  0  0  0  0  0  0  0  0  0  0  0
   10.4894   26.6962    8.6707 C   0  0  0  0  0  0  0  0  0  0  0  0
   10.6243   27.5453    9.8781 C   0  0  0  0  0  0  0  0  0  0  0  0
    9.5238   28.4125   10.2656 C   0  0  0  0  0  0  0  0  0  0  0  0
    7.7655   27.0209    6.0615 C   0  0  0  0  0  0  0  0  0  0  0  0
    8.4093   28.1093    5.3578 O   0  0  0  0  0  0  0  0  0  0  0  0
    8.2928   28.4702    9.5029 C   0  0  0  0  0  0  0  0  0  0  0  0
    7.0540   27.4518    7.3504 C   0  0  0  0  0  0  0  0  0  0  0  0
    9.0617   28.5296    5.9398 H   0  0  0  0  0  0  0  0  0  0  0  0
   11.6471   23.6063    3.6753 O   0  0  0  0  0  0  0  0  0  0  0  0
   11.0597   23.8936    2.3718 C   0  0  0  0  0  0  0  0  0  0  0  0
    9.5401   24.1569    2.4244 C   0  0  0  0  0  0  0  0  0  0  0  0
    8.7011   23.1073    2.9992 C   0  0  0  0  0  0  0  0  0  0  0  0
    7.2682   23.2232    3.0933 C   0  0  0  0  0  0  0  0  0  0  0  0
    6.5914   24.4190    2.6108 C   0  0  0  0  0  0  0  0  0  0  0  0
    7.3956   25.4969    2.0242 C   0  0  0  0  0  0  0  0  0  0  0  0
    8.8367   25.3650    1.9335 C   0  0  0  0  0  0  0  0  0  0  0  0
    6.5796   22.2811    3.5976 F   0  0  0  0  0  0  0  0  0  0  0  0
    9.7043   26.4640    1.3197 F   0  0  0  0  0  0  0  0  0  0  0  0
   14.7336   22.8533    6.2937 C   0  0  0  0  0  0  0  0  0  0  0  0
   14.9283   21.3914    6.0575 C   0  0  0  0  0  0  0  0  0  0  0  0
   13.9420   20.6309    6.1848 O   0  0  0  0  0  0  0  0  0  0  0  0
   16.1859   20.9565    5.7096 N   0  0  0  0  0  0  0  0  0  0  0  0
   16.9006   21.6290    5.6312 H   0  0  0  0  0  0  0  0  0  0  0  0
   16.5263   19.5711    5.4508 C   0  0  0  0  0  0  0  0  0  0  0  0
   16.4026   19.2925    3.9868 C   0  0  0  0  0  0  0  0  0  0  0  0
   17.4313   18.3566    3.5687 C   0  0  0  0  0  0  0  0  0  0  0  0
   15.3844   19.7453    3.0460 C   0  0  0  0  0  0  0  0  0  0  0  0
   15.4147   19.2359    1.6581 C   0  0  0  0  0  0  0  0  0  0  0  0
   16.4561   18.2953    1.2640 C   0  0  0  0  0  0  0  0  0  0  0  0
   17.9980   19.1103    5.6923 C   0  0  0  0  0  0  0  0  0  0  0  0
   18.8672   20.1908    5.2998 O   0  0  0  0  0  0  0  0  0  0  0  0
   17.4741   17.8429    2.2061 C   0  0  0  0  0  0  0  0  0  0  0  0
   18.1240   17.8592    4.7778 C   0  0  0  0  0  0  0  0  0  0  0  0
   18.6723   20.4464    4.3846 H   0  0  0  0  0  0  0  0  0  0  0  0
   14.2467   23.2321    7.6826 O   0  0  0  0  0  0  0  0  0  0  0  0
   15.2356   23.5189    8.7080 C   0  0  0  0  0  0  0  0  0  0  0  0
   16.2310   22.4032    8.9689 C   0  0  0  0  0  0  0  0  0  0  0  0
   15.8653   21.1354    9.6011 C   0  0  0  0  0  0  0  0  0  0  0  0
   16.9017   20.0913    9.8056 C   0  0  0  0  0  0  0  0  0  0  0  0
   18.2957   20.3485    9.3647 C   0  0  0  0  0  0  0  0  0  0  0  0
   18.6192   21.6441    8.7293 C   0  0  0  0  0  0  0  0  0  0  0  0
   17.6004   22.6280    8.5462 C   0  0  0  0  0  0  0  0  0  0  0  0
   19.8799   22.0004    8.2748 F   0  0  0  0  0  0  0  0  0  0  0  0
   14.7305   20.9411    9.9464 F   0  0  0  0  0  0  0  0  0  0  0  0
 25 26  2  0  0  0
 25 30  1  0  0  0
 25 24  1  0  0  0
 26 27  1  0  0  0
 27 28  2  0  0  0
 27 31  1  0  0  0
 28 29  1  0  0  0
 29 30  2  0  0  0
 30 32  1  0  0  0
 51 52  2  0  0  0
 51 56  1  0  0  0
 51 50  1  0  0  0
 52 53  1  0  0  0
 52 58  1  0  0  0
 53 54  2  0  0  0
 54 55  1  0  0  0
 55 56  2  0  0  0
 55 57  1  0  0  0
 50 49  1  0  0  0
 49 33  1  0  0  0
 33  1  1  0  0  0
 33 34  1  0  0  0
  1  4  1  0  0  0
  1  2  1  0  0  0
  4  7  1  0  0  0
  4  5  1  0  0  0
  7  8  1  0  0  0
  7 23  1  0  0  0
  8  9  2  0  0  0
  8 10  1  0  0  0
 10 12  1  0  0  0
 23 24  1  0  0  0
 34 35  2  0  0  0
 34 36  1  0  0  0
 36 38  1  0  0  0
 38 39  1  0  0  0
 38 44  1  0  0  0
 39 40  2  0  0  0
 39 41  1  0  0  0
 40 46  1  0  0  0
 40 47  1  0  0  0
 41 42  2  0  0  0
 42 43  1  0  0  0
 43 46  2  0  0  0
 44 45  1  0  0  0
 44 47  1  0  0  0
 12 13  1  0  0  0
 12 18  1  0  0  0
 13 14  2  0  0  0
 13 15  1  0  0  0
 14 20  1  0  0  0
 14 21  1  0  0  0
 15 16  2  0  0  0
 16 17  1  0  0  0
 17 20  2  0  0  0
 18 19  1  0  0  0
 18 21  1  0  0  0
 10 11  1  0  0  0
  5  6  1  0  0  0
  2  3  1  0  0  0
 36 37  1  0  0  0
 45 48  1  0  0  0
 19 22  1  0  0  0
M  END
> <minimizedAffinity>
-13.50992

$$$$
1W5Y_BE6_A_1100


 58 63  0  0  0  0  0  0  0  0999 V2000
   14.0107   23.0556    5.1542 C   0  0  0  0  0  0  0  0  0  0  0  0
   14.6606   22.8983    3.8405 O   0  0  0  0  0  0  0  0  0  0  0  0
   15.3818   23.5417    3.7574 H   0  0  0  0  0  0  0  0  0  0  0  0
   13.5079   24.4475    5.2228 C   0  0  0  0  0  0  0  0  0  0  0  0
   14.5111   25.2994    4.6104 O   0  0  0  0  0  0  0  0  0  0  0  0
   14.6668   25.0109    3.6975 H   0  0  0  0  0  0  0  0  0  0  0  0
   12.1341   24.5196    4.4517 C   0  0  0  0  0  0  0  0  0  0  0  0
   10.9422   24.6800    5.3688 C   0  0  0  0  0  0  0  0  0  0  0  0
   10.6245   23.7545    6.1327 O   0  0  0  0  0  0  0  0  0  0  0  0
   10.1975   25.8296    5.3311 N   0  0  0  0  0  0  0  0  0  0  0  0
   10.4678   26.5473    4.7138 H   0  0  0  0  0  0  0  0  0  0  0  0
    9.0325   26.0311    6.1598 C   0  0  0  0  0  0  0  0  0  0  0  0
    9.3430   26.6838    7.5150 C   0  0  0  0  0  0  0  0  0  0  0  0
    8.3009   27.6195    7.8483 C   0  0  0  0  0  0  0  0  0  0  0  0
   10.5057   26.5550    8.3793 C   0  0  0  0  0  0  0  0  0  0  0  0
   10.5987   27.3986    9.5945 C   0  0  0  0  0  0  0  0  0  0  0  0
    9.5265   28.3324    9.8971 C   0  0  0  0  0  0  0  0  0  0  0  0
    8.0156   27.0358    5.5683 C   0  0  0  0  0  0  0  0  0  0  0  0
    8.7768   28.0805    4.9177 O   0  0  0  0  0  0  0  0  0  0  0  0
    8.3636   28.4622    9.0419 C   0  0  0  0  0  0  0  0  0  0  0  0
    7.2346   27.5136    6.7991 C   0  0  0  0  0  0  0  0  0  0  0  0
    9.4068   28.4624    5.5487 H   0  0  0  0  0  0  0  0  0  0  0  0
   11.9467   23.3070    3.6246 O   0  0  0  0  0  0  0  0  0  0  0  0
   11.4918   23.4771    2.2495 C   0  0  0  0  0  0  0  0  0  0  0  0
   10.0648   24.0541    2.1387 C   0  0  0  0  0  0  0  0  0  0  0  0
    9.9377   25.4337    1.6734 C   0  0  0  0  0  0  0  0  0  0  0  0
    8.6641   26.0937    1.5401 C   0  0  0  0  0  0  0  0  0  0  0  0
    7.4312   25.3918    1.8687 C   0  0  0  0  0  0  0  0  0  0  0  0
    7.5132   24.0054    2.3418 C   0  0  0  0  0  0  0  0  0  0  0  0
    8.8023   23.3548    2.4738 C   0  0  0  0  0  0  0  0  0  0  0  0
    8.6040   27.2973    1.1352 F   0  0  0  0  0  0  0  0  0  0  0  0
    8.9253   21.9149    2.9727 F   0  0  0  0  0  0  0  0  0  0  0  0
   14.9582   22.7708    6.3078 C   0  0  0  0  0  0  0  0  0  0  0  0
   15.1672   21.3037    6.1209 C   0  0  0  0  0  0  0  0  0  0  0  0
   14.1967   20.5352    6.3077 O   0  0  0  0  0  0  0  0  0  0  0  0
   16.4197   20.8731    5.7502 N   0  0  0  0  0  0  0  0  0  0  0  0
   17.1217   21.5518    5.6241 H   0  0  0  0  0  0  0  0  0  0  0  0
   16.7726   19.4836    5.5333 C   0  0  0  0  0  0  0  0  0  0  0  0
   16.6458   19.1583    4.0792 C   0  0  0  0  0  0  0  0  0  0  0  0
   17.6819   18.2197    3.6862 C   0  0  0  0  0  0  0  0  0  0  0  0
   15.6196   19.5717    3.1292 C   0  0  0  0  0  0  0  0  0  0  0  0
   15.6493   19.0196    1.7577 C   0  0  0  0  0  0  0  0  0  0  0  0
   16.6983   18.0772    1.3887 C   0  0  0  0  0  0  0  0  0  0  0  0
   18.2496   19.0448    5.7828 C   0  0  0  0  0  0  0  0  0  0  0  0
   19.1067   20.1207    5.3532 O   0  0  0  0  0  0  0  0  0  0  0  0
   17.7243   17.6642    2.3400 C   0  0  0  0  0  0  0  0  0  0  0  0
   18.3842   17.7669    4.9072 C   0  0  0  0  0  0  0  0  0  0  0  0
   18.9057   20.3458    4.4313 H   0  0  0  0  0  0  0  0  0  0  0  0
   14.3902   23.1838    7.6555 O   0  0  0  0  0  0  0  0  0  0  0  0
   15.3152   23.4441    8.7456 C   0  0  0  0  0  0  0  0  0  0  0  0
   16.3387   22.3509    8.9929 C   0  0  0  0  0  0  0  0  0  0  0  0
   16.0018   21.0590    9.5911 C   0  0  0  0  0  0  0  0  0  0  0  0
   17.0650   20.0398    9.7842 C   0  0  0  0  0  0  0  0  0  0  0  0
   18.4561   20.3463    9.3666 C   0  0  0  0  0  0  0  0  0  0  0  0
   18.7501   21.6650    8.7652 C   0  0  0  0  0  0  0  0  0  0  0  0
   17.7061   22.6239    8.5924 C   0  0  0  0  0  0  0  0  0  0  0  0
   20.0054   22.0670    8.3346 F   0  0  0  0  0  0  0  0  0  0  0  0
   14.8690   20.8248    9.9179 F   0  0  0  0  0  0  0  0  0  0  0  0
 25 26  2  0  0  0
 25 30  1  0  0  0
 25 24  1  0  0  0
 26 27  1  0  0  0
 27 28  2  0  0  0
 27 31  1  0  0  0
 28 29  1  0  0  0
 29 30  2  0  0  0
 30 32  1  0  0  0
 51 52  2  0  0  0
 51 56  1  0  0  0
 51 50  1  0  0  0
 52 53  1  0  0  0
 52 58  1  0  0  0
 53 54  2  0  0  0
 54 55  1  0  0  0
 55 56  2  0  0  0
 55 57  1  0  0  0
 50 49  1  0  0  0
 49 33  1  0  0  0
 33  1  1  0  0  0
 33 34  1  0  0  0
  1  4  1  0  0  0
  1  2  1  0  0  0
  4  7  1  0  0  0
  4  5  1  0  0  0
  7  8  1  0  0  0
  7 23  1  0  0  0
  8  9  2  0  0  0
  8 10  1  0  0  0
 10 12  1  0  0  0
 23 24  1  0  0  0
 34 35  2  0  0  0
 34 36  1  0  0  0
 36 38  1  0  0  0
 38 39  1  0  0  0
 38 44  1  0  0  0
 39 40  2  0  0  0
 39 41  1  0  0  0
 40 46  1  0  0  0
 40 47  1  0  0  0
 41 42  2  0  0  0
 42 43  1  0  0  0
 43 46  2  0  0  0
 44 45  1  0  0  0
 44 47  1  0  0  0
 12 13  1  0  0  0
 12 18  1  0  0  0
 13 14  2  0  0  0
 13 15  1  0  0  0
 14 20  1  0  0  0
 14 21  1  0  0  0
 15 16  2  0  0  0
 16 17  1  0  0  0
 17 20  2  0  0  0
 18 19  1  0  0  0
 18 21  1  0  0  0
 10 11  1  0  0  0
  5  6  1  0  0  0
  2  3  1  0  0  0
 36 37  1  0  0  0
 45 48  1  0  0  0
 19 22  1  0  0  0
M  END
> <minimizedAffinity>
-13.50387

$$$$
1W5Y_BE6_A_1100


 58 63  0  0  0  0  0  0  0  0999 V2000
   13.0947   24.1347    5.6367 C   0  0  0  0  0  0  0  0  0  0  0  0
   13.3750   25.3599    6.4070 O   0  0  0  0  0  0  0  0  0  0  0  0
   13.7856   26.0198    5.8267 H   0  0  0  0  0  0  0  0  0  0  0  0
   14.3904   23.6562    5.1009 C   0  0  0  0  0  0  0  0  0  0  0  0
   15.1107   24.8180    4.6120 O   0  0  0  0  0  0  0  0  0  0  0  0
   15.2260   25.4547    5.3346 H   0  0  0  0  0  0  0  0  0  0  0  0
   15.1736   22.9327    6.2629 C   0  0  0  0  0  0  0  0  0  0  0  0
   15.3191   21.4428    6.0476 C   0  0  0  0  0  0  0  0  0  0  0  0
   14.3346   20.7009    6.1931 O   0  0  0  0  0  0  0  0  0  0  0  0
   16.5410   20.9123    5.7263 N   0  0  0  0  0  0  0  0  0  0  0  0
   17.3072   21.5214    5.6204 H   0  0  0  0  0  0  0  0  0  0  0  0
   16.7505   19.4965    5.5367 C   0  0  0  0  0  0  0  0  0  0  0  0
   16.5741   19.0345    4.0825 C   0  0  0  0  0  0  0  0  0  0  0  0
   17.5645   18.0370    3.7713 C   0  0  0  0  0  0  0  0  0  0  0  0
   15.6719   19.5090    3.0452 C   0  0  0  0  0  0  0  0  0  0  0  0
   15.7919   18.9554    1.6755 C   0  0  0  0  0  0  0  0  0  0  0  0
   16.8050   17.9500    1.3999 C   0  0  0  0  0  0  0  0  0  0  0  0
   18.2002   19.0390    5.8237 C   0  0  0  0  0  0  0  0  0  0  0  0
   19.0795   20.0898    5.3581 O   0  0  0  0  0  0  0  0  0  0  0  0
   17.7042   17.4703    2.4303 C   0  0  0  0  0  0  0  0  0  0  0  0
   18.3220   17.7324    5.0292 C   0  0  0  0  0  0  0  0  0  0  0  0
   18.8896   20.2812    4.4263 H   0  0  0  0  0  0  0  0  0  0  0  0
   14.5004   23.1694    7.5591 O   0  0  0  0  0  0  0  0  0  0  0  0
   15.3309   23.4679    8.7201 C   0  0  0  0  0  0  0  0  0  0  0  0
   16.3993   22.3920    9.0074 C   0  0  0  0  0  0  0  0  0  0  0  0
   17.7742   22.6966    8.6166 C   0  0  0  0  0  0  0  0  0  0  0  0
   18.8609   21.7722    8.8162 C   0  0  0  0  0  0  0  0  0  0  0  0
   18.6218   20.4740    9.4313 C   0  0  0  0  0  0  0  0  0  0  0  0
   17.2554   20.1264    9.8371 C   0  0  0  0  0  0  0  0  0  0  0  0
   16.1710   21.0658    9.6273 C   0  0  0  0  0  0  0  0  0  0  0  0
   20.0404   22.0803    8.4555 F   0  0  0  0  0  0  0  0  0  0  0  0
   14.7340   20.7328   10.0291 F   0  0  0  0  0  0  0  0  0  0  0  0
   12.1038   24.3724    4.5093 C   0  0  0  0  0  0  0  0  0  0  0  0
   10.8430   24.5274    5.2951 C   0  0  0  0  0  0  0  0  0  0  0  0
   10.3757   23.5217    5.8759 O   0  0  0  0  0  0  0  0  0  0  0  0
   10.2608   25.7727    5.3407 N   0  0  0  0  0  0  0  0  0  0  0  0
   10.7022   26.5057    4.8537 H   0  0  0  0  0  0  0  0  0  0  0  0
    9.0387   26.0749    6.0599 C   0  0  0  0  0  0  0  0  0  0  0  0
    9.3719   26.7909    7.3298 C   0  0  0  0  0  0  0  0  0  0  0  0
    8.3545   27.7847    7.6236 C   0  0  0  0  0  0  0  0  0  0  0  0
   10.4606   26.5436    8.2680 C   0  0  0  0  0  0  0  0  0  0  0  0
   10.5129   27.3206    9.5251 C   0  0  0  0  0  0  0  0  0  0  0  0
    9.4783   28.3105    9.7977 C   0  0  0  0  0  0  0  0  0  0  0  0
    8.0375   27.0924    5.4283 C   0  0  0  0  0  0  0  0  0  0  0  0
    8.8082   28.1212    4.7768 O   0  0  0  0  0  0  0  0  0  0  0  0
    8.3895   28.5569    8.8584 C   0  0  0  0  0  0  0  0  0  0  0  0
    7.2441   27.6090    6.6617 C   0  0  0  0  0  0  0  0  0  0  0  0
    9.4288   28.5114    5.4120 H   0  0  0  0  0  0  0  0  0  0  0  0
   12.0993   23.2543    3.4801 O   0  0  0  0  0  0  0  0  0  0  0  0
   11.5771   23.5370    2.1538 C   0  0  0  0  0  0  0  0  0  0  0  0
   10.1616   24.0844    2.1253 C   0  0  0  0  0  0  0  0  0  0  0  0
    8.9871   23.2861    2.4769 C   0  0  0  0  0  0  0  0  0  0  0  0
    7.6384   23.9068    2.4352 C   0  0  0  0  0  0  0  0  0  0  0  0
    7.5006   25.3303    2.0374 C   0  0  0  0  0  0  0  0  0  0  0  0
    8.7157   26.0989    1.6914 C   0  0  0  0  0  0  0  0  0  0  0  0
    9.9988   25.4738    1.7414 C   0  0  0  0  0  0  0  0  0  0  0  0
    8.7168   27.4315    1.3080 F   0  0  0  0  0  0  0  0  0  0  0  0
    9.1172   22.1364    2.8030 F   0  0  0  0  0  0  0  0  0  0  0  0
 25 26  2  0  0  0
 25 30  1  0  0  0
 25 24  1  0  0  0
 26 27  1  0  0  0
 27 28  2  0  0  0
 27 31  1  0  0  0
 28 29  1  0  0  0
 29 30  2  0  0  0
 30 32  1  0  0  0
 51 52  2  0  0  0
 51 56  1  0  0  0
 51 50  1  0  0  0
 52 53  1  0  0  0
 52 58  1  0  0  0
 53 54  2  0  0  0
 54 55  1  0  0  0
 55 56  2  0  0  0
 55 57  1  0  0  0
 50 49  1  0  0  0
 49 33  1  0  0  0
 33  1  1  0  0  0
 33 34  1  0  0  0
  1  4  1  0  0  0
  1  2  1  0  0  0
  4  7  1  0  0  0
  4  5  1  0  0  0
  7  8  1  0  0  0
  7 23  1  0  0  0
  8  9  2  0  0  0
  8 10  1  0  0  0
 10 12  1  0  0  0
 23 24  1  0  0  0
 34 35  2  0  0  0
 34 36  1  0  0  0
 36 38  1  0  0  0
 38 39  1  0  0  0
 38 44  1  0  0  0
 39 40  2  0  0  0
 39 41  1  0  0  0
 40 46  1  0  0  0
 40 47  1  0  0  0
 41 42  2  0  0  0
 42 43  1  0  0  0
 43 46  2  0  0  0
 44 45  1  0  0  0
 44 47  1  0  0  0
 12 13  1  0  0  0
 12 18  1  0  0  0
 13 14  2  0  0  0
 13 15  1  0  0  0
 14 20  1  0  0  0
 14 21  1  0  0  0
 15 16  2  0  0  0
 16 17  1  0  0  0
 17 20  2  0  0  0
 18 19  1  0  0  0
 18 21  1  0  0  0
 10 11  1  0  0  0
  5  6  1  0  0  0
  2  3  1  0  0  0
 36 37  1  0  0  0
 45 48  1  0  0  0
 19 22  1  0  0  0
M  END
> <minimizedAffinity>
-13.38621

$$$$
1W5Y_BE6_A_1100


 58 63  0  0  0  0  0  0  0  0999 V2000
   13.8019   23.1605    5.2723 C   0  0  0  0  0  0  0  0  0  0  0  0
   14.3714   23.0639    3.9161 O   0  0  0  0  0  0  0  0  0  0  0  0
   15.0655   23.7329    3.8085 H   0  0  0  0  0  0  0  0  0  0  0  0
   13.2617   24.5325    5.4166 C   0  0  0  0  0  0  0  0  0  0  0  0
   13.7569   25.3113    4.2961 O   0  0  0  0  0  0  0  0  0  0  0  0
   13.4803   24.8944    3.4651 H   0  0  0  0  0  0  0  0  0  0  0  0
   11.6867   24.4504    5.4173 C   0  0  0  0  0  0  0  0  0  0  0  0
   11.0925   24.3696    4.0289 C   0  0  0  0  0  0  0  0  0  0  0  0
   11.7288   23.8157    3.1182 O   0  0  0  0  0  0  0  0  0  0  0  0
    9.8714   24.9357    3.7714 N   0  0  0  0  0  0  0  0  0  0  0  0
    9.3884   25.3725    4.5097 H   0  0  0  0  0  0  0  0  0  0  0  0
    9.2644   24.9175    2.4616 C   0  0  0  0  0  0  0  0  0  0  0  0
    7.8077   24.4306    2.4617 C   0  0  0  0  0  0  0  0  0  0  0  0
    7.0403   25.2090    1.5249 C   0  0  0  0  0  0  0  0  0  0  0  0
    7.1468   23.4334    3.2890 C   0  0  0  0  0  0  0  0  0  0  0  0
    5.6838   23.2381    3.1538 C   0  0  0  0  0  0  0  0  0  0  0  0
    4.9430   24.0439    2.1971 C   0  0  0  0  0  0  0  0  0  0  0  0
    9.1123   26.3204    1.8277 C   0  0  0  0  0  0  0  0  0  0  0  0
    8.7808   27.2380    2.8965 O   0  0  0  0  0  0  0  0  0  0  0  0
    5.5966   25.0361    1.3673 C   0  0  0  0  0  0  0  0  0  0  0  0
    7.9845   26.1260    0.8062 C   0  0  0  0  0  0  0  0  0  0  0  0
    7.9959   26.9163    3.3670 H   0  0  0  0  0  0  0  0  0  0  0  0
   11.1132   25.6193    6.1202 O   0  0  0  0  0  0  0  0  0  0  0  0
   11.1861   25.6488    7.5765 C   0  0  0  0  0  0  0  0  0  0  0  0
   10.1012   26.5300    8.2307 C   0  0  0  0  0  0  0  0  0  0  0  0
    8.7471   26.4321    7.6898 C   0  0  0  0  0  0  0  0  0  0  0  0
    7.6485   27.2111    8.2015 C   0  0  0  0  0  0  0  0  0  0  0  0
    7.8537   28.1418    9.3027 C   0  0  0  0  0  0  0  0  0  0  0  0
    9.1985   28.2729    9.8744 C   0  0  0  0  0  0  0  0  0  0  0  0
   10.2953   27.4845    9.3472 C   0  0  0  0  0  0  0  0  0  0  0  0
    6.4882   27.0947    7.6952 F   0  0  0  0  0  0  0  0  0  0  0  0
   11.7108   27.6029    9.9124 F   0  0  0  0  0  0  0  0  0  0  0  0
   14.8293   22.8728    6.3545 C   0  0  0  0  0  0  0  0  0  0  0  0
   15.0341   21.4087    6.1407 C   0  0  0  0  0  0  0  0  0  0  0  0
   14.0649   20.6383    6.3261 O   0  0  0  0  0  0  0  0  0  0  0  0
   16.2816   20.9830    5.7480 N   0  0  0  0  0  0  0  0  0  0  0  0
   16.9829   21.6630    5.6249 H   0  0  0  0  0  0  0  0  0  0  0  0
   16.6300   19.5970    5.5037 C   0  0  0  0  0  0  0  0  0  0  0  0
   16.4792   19.2944    4.0470 C   0  0  0  0  0  0  0  0  0  0  0  0
   17.5081   18.3617    3.6223 C   0  0  0  0  0  0  0  0  0  0  0  0
   15.4377   19.7230    3.1205 C   0  0  0  0  0  0  0  0  0  0  0  0
   15.4445   19.1923    1.7402 C   0  0  0  0  0  0  0  0  0  0  0  0
   16.4867   18.2554    1.3393 C   0  0  0  0  0  0  0  0  0  0  0  0
   18.1107   19.1538    5.7219 C   0  0  0  0  0  0  0  0  0  0  0  0
   18.9613   20.2361    5.2951 O   0  0  0  0  0  0  0  0  0  0  0  0
   17.5280   17.8273    2.2672 C   0  0  0  0  0  0  0  0  0  0  0  0
   18.2301   17.8897    4.8244 C   0  0  0  0  0  0  0  0  0  0  0  0
   18.7453   20.4755    4.3802 H   0  0  0  0  0  0  0  0  0  0  0  0
   14.3540   23.2706    7.7422 O   0  0  0  0  0  0  0  0  0  0  0  0
   15.3509   23.5243    8.7685 C   0  0  0  0  0  0  0  0  0  0  0  0
   16.3326   22.3907    9.0032 C   0  0  0  0  0  0  0  0  0  0  0  0
   15.9524   21.1149    9.6101 C   0  0  0  0  0  0  0  0  0  0  0  0
   16.9758   20.0536    9.7897 C   0  0  0  0  0  0  0  0  0  0  0  0
   18.3717   20.3019    9.3500 C   0  0  0  0  0  0  0  0  0  0  0  0
   18.7101   21.6062    8.7406 C   0  0  0  0  0  0  0  0  0  0  0  0
   17.7036   22.6067    8.5811 C   0  0  0  0  0  0  0  0  0  0  0  0
   19.9741   21.9556    8.2898 F   0  0  0  0  0  0  0  0  0  0  0  0
   14.8161   20.9280    9.9547 F   0  0  0  0  0  0  0  0  0  0  0  0
 25 26  2  0  0  0
 25 30  1  0  0  0
 25 24  1  0  0  0
 26 27  1  0  0  0
 27 28  2  0  0  0
 27 31  1  0  0  0
 28 29  1  0  0  0
 29 30  2  0  0  0
 30 32  1  0  0  0
 51 52  2  0  0  0
 51 56  1  0  0  0
 51 50  1  0  0  0
 52 53  1  0  0  0
 52 58  1  0  0  0
 53 54  2  0  0  0
 54 55  1  0  0  0
 55 56  2  0  0  0
 55 57  1  0  0  0
 50 49  1  0  0  0
 49 33  1  0  0  0
 33  1  1  0  0  0
 33 34  1  0  0  0
  1  4  1  0  0  0
  1  2  1  0  0  0
  4  7  1  0  0  0
  4  5  1  0  0  0
  7  8  1  0  0  0
  7 23  1  0  0  0
  8  9  2  0  0  0
  8 10  1  0  0  0
 10 12  1  0  0  0
 23 24  1  0  0  0
 34 35  2  0  0  0
 34 36  1  0  0  0
 36 38  1  0  0  0
 38 39  1  0  0  0
 38 44  1  0  0  0
 39 40  2  0  0  0
 39 41  1  0  0  0
 40 46  1  0  0  0
 40 47  1  0  0  0
 41 42  2  0  0  0
 42 43  1  0  0  0
 43 46  2  0  0  0
 44 45  1  0  0  0
 44 47  1  0  0  0
 12 13  1  0  0  0
 12 18  1  0  0  0
 13 14  2  0  0  0
 13 15  1  0  0  0
 14 20  1  0  0  0
 14 21  1  0  0  0
 15 16  2  0  0  0
 16 17  1  0  0  0
 17 20  2  0  0  0
 18 19  1  0  0  0
 18 21  1  0  0  0
 10 11  1  0  0  0
  5  6  1  0  0  0
  2  3  1  0  0  0
 36 37  1  0  0  0
 45 48  1  0  0  0
 19 22  1  0  0  0
M  END
> <minimizedAffinity>
-12.98675

$$$$
1W5Y_BE6_A_1100


 58 63  0  0  0  0  0  0  0  0999 V2000
   13.1803   24.0306    5.3985 C   0  0  0  0  0  0  0  0  0  0  0  0
   13.4984   25.2290    6.1957 O   0  0  0  0  0  0  0  0  0  0  0  0
   13.8936   25.9037    5.6217 H   0  0  0  0  0  0  0  0  0  0  0  0
   14.4519   23.5595    4.8018 C   0  0  0  0  0  0  0  0  0  0  0  0
   15.4352   24.6095    4.9968 O   0  0  0  0  0  0  0  0  0  0  0  0
   15.5231   24.7983    5.9442 H   0  0  0  0  0  0  0  0  0  0  0  0
   14.8764   22.2234    5.5240 C   0  0  0  0  0  0  0  0  0  0  0  0
   15.5740   22.4548    6.8459 C   0  0  0  0  0  0  0  0  0  0  0  0
   15.2212   23.3984    7.5711 O   0  0  0  0  0  0  0  0  0  0  0  0
   16.6131   21.6454    7.2240 N   0  0  0  0  0  0  0  0  0  0  0  0
   16.8764   20.9062    6.6294 H   0  0  0  0  0  0  0  0  0  0  0  0
   17.3374   21.8326    8.4588 C   0  0  0  0  0  0  0  0  0  0  0  0
   17.2667   20.6258    9.4063 C   0  0  0  0  0  0  0  0  0  0  0  0
   18.5436   20.4403   10.0450 C   0  0  0  0  0  0  0  0  0  0  0  0
   16.1924   19.6744    9.6428 C   0  0  0  0  0  0  0  0  0  0  0  0
   16.4350   18.5204   10.5409 C   0  0  0  0  0  0  0  0  0  0  0  0
   17.7379   18.3667   11.1670 C   0  0  0  0  0  0  0  0  0  0  0  0
   18.8659   21.9751    8.2670 C   0  0  0  0  0  0  0  0  0  0  0  0
   19.2467   21.0808    7.1949 O   0  0  0  0  0  0  0  0  0  0  0  0
   18.8109   19.3137   10.9383 C   0  0  0  0  0  0  0  0  0  0  0  0
   19.4321   21.5770    9.6360 C   0  0  0  0  0  0  0  0  0  0  0  0
   18.9439   20.1824    7.4002 H   0  0  0  0  0  0  0  0  0  0  0  0
   15.7598   21.4247    4.6457 O   0  0  0  0  0  0  0  0  0  0  0  0
   15.1400   20.4742    3.7296 C   0  0  0  0  0  0  0  0  0  0  0  0
   16.0913   19.3485    3.2721 C   0  0  0  0  0  0  0  0  0  0  0  0
   17.1891   18.9970    4.1705 C   0  0  0  0  0  0  0  0  0  0  0  0
   18.1539   17.9749    3.8545 C   0  0  0  0  0  0  0  0  0  0  0  0
   18.0645   17.2377    2.6018 C   0  0  0  0  0  0  0  0  0  0  0  0
   16.9786   17.5601    1.6693 C   0  0  0  0  0  0  0  0  0  0  0  0
   16.0164   18.5934    1.9995 C   0  0  0  0  0  0  0  0  0  0  0  0
   19.0948   17.7072    4.6664 F   0  0  0  0  0  0  0  0  0  0  0  0
   14.8784   18.9617    1.0474 F   0  0  0  0  0  0  0  0  0  0  0  0
   12.1517   24.3107    4.3154 C   0  0  0  0  0  0  0  0  0  0  0  0
   10.9213   24.4509    5.1506 C   0  0  0  0  0  0  0  0  0  0  0  0
   10.4645   23.4305    5.7141 O   0  0  0  0  0  0  0  0  0  0  0  0
   10.3540   25.6992    5.2582 N   0  0  0  0  0  0  0  0  0  0  0  0
   10.7853   26.4440    4.7803 H   0  0  0  0  0  0  0  0  0  0  0  0
    9.1614   25.9883    6.0304 C   0  0  0  0  0  0  0  0  0  0  0  0
    9.5456   26.6722    7.3036 C   0  0  0  0  0  0  0  0  0  0  0  0
    8.5446   27.6622    7.6595 C   0  0  0  0  0  0  0  0  0  0  0  0
   10.6680   26.3984    8.1935 C   0  0  0  0  0  0  0  0  0  0  0  0
   10.7714   27.1445    9.4660 C   0  0  0  0  0  0  0  0  0  0  0  0
    9.7523   28.1313    9.8014 C   0  0  0  0  0  0  0  0  0  0  0  0
    8.1416   27.0243    5.4619 C   0  0  0  0  0  0  0  0  0  0  0  0
    8.8917   28.0658    4.8065 O   0  0  0  0  0  0  0  0  0  0  0  0
    8.6298   28.4042    8.9104 C   0  0  0  0  0  0  0  0  0  0  0  0
    7.3978   27.5139    6.7366 C   0  0  0  0  0  0  0  0  0  0  0  0
    9.5376   28.4383    5.4269 H   0  0  0  0  0  0  0  0  0  0  0  0
   12.1007   23.2251    3.2531 O   0  0  0  0  0  0  0  0  0  0  0  0
   11.4888   23.5384    1.9728 C   0  0  0  0  0  0  0  0  0  0  0  0
   10.0864   24.1132    2.0558 C   0  0  0  0  0  0  0  0  0  0  0  0
    8.9206   23.3256    2.4572 C   0  0  0  0  0  0  0  0  0  0  0  0
    7.5855   23.9729    2.5252 C   0  0  0  0  0  0  0  0  0  0  0  0
    7.4524   25.4117    2.1849 C   0  0  0  0  0  0  0  0  0  0  0  0
    8.6584   26.1686    1.7854 C   0  0  0  0  0  0  0  0  0  0  0  0
    9.9285   25.5179    1.7300 C   0  0  0  0  0  0  0  0  0  0  0  0
    8.6628   27.5134    1.4474 F   0  0  0  0  0  0  0  0  0  0  0  0
    9.0473   22.1631    2.7355 F   0  0  0  0  0  0  0  0  0  0  0  0
 25 26  2  0  0  0
 25 30  1  0  0  0
 25 24  1  0  0  0
 26 27  1  0  0  0
 27 28  2  0  0  0
 27 31  1  0  0  0
 28 29  1  0  0  0
 29 30  2  0  0  0
 30 32  1  0  0  0
 51 52  2  0  0  0
 51 56  1  0  0  0
 51 50  1  0  0  0
 52 53  1  0  0  0
 52 58  1  0  0  0
 53 54  2  0  0  0
 54 55  1  0  0  0
 55 56  2  0  0  0
 55 57  1  0  0  0
 50 49  1  0  0  0
 49 33  1  0  0  0
 33  1  1  0  0  0
 33 34  1  0  0  0
  1  4  1  0  0  0
  1  2  1  0  0  0
  4  7  1  0  0  0
  4  5  1  0  0  0
  7  8  1  0  0  0
  7 23  1  0  0  0
  8  9  2  0  0  0
  8 10  1  0  0  0
 10 12  1  0  0  0
 23 24  1  0  0  0
 34 35  2  0  0  0
 34 36  1  0  0  0
 36 38  1  0  0  0
 38 39  1  0  0  0
 38 44  1  0  0  0
 39 40  2  0  0  0
 39 41  1  0  0  0
 40 46  1  0  0  0
 40 47  1  0  0  0
 41 42  2  0  0  0
 42 43  1  0  0  0
 43 46  2  0  0  0
 44 45  1  0  0  0
 44 47  1  0  0  0
 12 13  1  0  0  0
 12 18  1  0  0  0
 13 14  2  0  0  0
 13 15  1  0  0  0
 14 20  1  0  0  0
 14 21  1  0  0  0
 15 16  2  0  0  0
 16 17  1  0  0  0
 17 20  2  0  0  0
 18 19  1  0  0  0
 18 21  1  0  0  0
 10 11  1  0  0  0
  5  6  1  0  0  0
  2  3  1  0  0  0
 36 37  1  0  0  0
 45 48  1  0  0  0
 19 22  1  0  0  0
M  END
> <minimizedAffinity>
-12.62803

$$$$
1W5Y_BE6_A_1100


 58 63  0  0  0  0  0  0  0  0999 V2000
   14.2044   23.5343    5.2878 C   0  0  0  0  0  0  0  0  0  0  0  0
   14.8621   24.7626    4.8067 O   0  0  0  0  0  0  0  0  0  0  0  0
   15.1402   25.2990    5.5655 H   0  0  0  0  0  0  0  0  0  0  0  0
   13.0455   23.9582    6.1076 C   0  0  0  0  0  0  0  0  0  0  0  0
   13.4877   25.0605    6.9425 O   0  0  0  0  0  0  0  0  0  0  0  0
   13.8210   25.7778    6.3811 H   0  0  0  0  0  0  0  0  0  0  0  0
   11.8813   24.3941    5.1371 C   0  0  0  0  0  0  0  0  0  0  0  0
   10.5849   24.6934    5.8563 C   0  0  0  0  0  0  0  0  0  0  0  0
   10.1225   23.8685    6.6604 O   0  0  0  0  0  0  0  0  0  0  0  0
    9.9081   25.8558    5.5949 N   0  0  0  0  0  0  0  0  0  0  0  0
   10.2938   26.4921    4.9502 H   0  0  0  0  0  0  0  0  0  0  0  0
    8.6523   26.1855    6.2265 C   0  0  0  0  0  0  0  0  0  0  0  0
    8.8082   26.8816    7.5867 C   0  0  0  0  0  0  0  0  0  0  0  0
    7.8074   27.9080    7.7191 C   0  0  0  0  0  0  0  0  0  0  0  0
    9.8138   26.7111    8.6235 C   0  0  0  0  0  0  0  0  0  0  0  0
    9.7918   27.6064    9.8046 C   0  0  0  0  0  0  0  0  0  0  0  0
    8.7658   28.6316    9.9022 C   0  0  0  0  0  0  0  0  0  0  0  0
    7.8206   27.2314    5.4471 C   0  0  0  0  0  0  0  0  0  0  0  0
    8.7530   28.1820    4.8805 O   0  0  0  0  0  0  0  0  0  0  0  0
    7.7587   28.8036    8.8743 C   0  0  0  0  0  0  0  0  0  0  0  0
    6.9053   27.8282    6.5238 C   0  0  0  0  0  0  0  0  0  0  0  0
    9.3102   28.5478    5.5852 H   0  0  0  0  0  0  0  0  0  0  0  0
   11.6392   23.3437    4.1234 O   0  0  0  0  0  0  0  0  0  0  0  0
   11.5177   23.7505    2.7283 C   0  0  0  0  0  0  0  0  0  0  0  0
   10.1059   24.2462    2.3509 C   0  0  0  0  0  0  0  0  0  0  0  0
   10.0016   25.5839    1.7716 C   0  0  0  0  0  0  0  0  0  0  0  0
    8.7415   26.1687    1.3902 C   0  0  0  0  0  0  0  0  0  0  0  0
    7.5001   25.4288    1.5701 C   0  0  0  0  0  0  0  0  0  0  0  0
    7.5588   24.0825    2.1504 C   0  0  0  0  0  0  0  0  0  0  0  0
    8.8342   23.5079    2.5322 C   0  0  0  0  0  0  0  0  0  0  0  0
    8.7005   27.3384    0.8938 F   0  0  0  0  0  0  0  0  0  0  0  0
    8.9313   22.1121    3.1484 F   0  0  0  0  0  0  0  0  0  0  0  0
   15.1411   22.6544    6.0988 C   0  0  0  0  0  0  0  0  0  0  0  0
   15.6275   21.7317    5.0297 C   0  0  0  0  0  0  0  0  0  0  0  0
   15.3282   21.9869    3.8412 O   0  0  0  0  0  0  0  0  0  0  0  0
   16.3833   20.6471    5.4091 N   0  0  0  0  0  0  0  0  0  0  0  0
   16.5700   20.5285    6.3684 H   0  0  0  0  0  0  0  0  0  0  0  0
   16.9226   19.6670    4.4867 C   0  0  0  0  0  0  0  0  0  0  0  0
   17.5991   18.5777    5.2561 C   0  0  0  0  0  0  0  0  0  0  0  0
   17.3996   17.3011    4.5932 C   0  0  0  0  0  0  0  0  0  0  0  0
   18.4458   18.6753    6.4394 C   0  0  0  0  0  0  0  0  0  0  0  0
   19.0998   17.4532    6.9547 C   0  0  0  0  0  0  0  0  0  0  0  0
   18.8856   16.1844    6.2698 C   0  0  0  0  0  0  0  0  0  0  0  0
   15.9249   18.8202    3.6358 C   0  0  0  0  0  0  0  0  0  0  0  0
   14.7765   18.5356    4.4586 O   0  0  0  0  0  0  0  0  0  0  0  0
   18.0385   16.0881    5.0860 C   0  0  0  0  0  0  0  0  0  0  0  0
   16.7565   17.5540    3.2849 C   0  0  0  0  0  0  0  0  0  0  0  0
   15.0652   18.1086    5.2802 H   0  0  0  0  0  0  0  0  0  0  0  0
   14.4523   21.9850    7.2766 O   0  0  0  0  0  0  0  0  0  0  0  0
   14.9593   22.2449    8.6134 C   0  0  0  0  0  0  0  0  0  0  0  0
   16.1723   21.4233    9.0102 C   0  0  0  0  0  0  0  0  0  0  0  0
   17.5481   21.8809    8.8148 C   0  0  0  0  0  0  0  0  0  0  0  0
   18.6771   21.0175    9.2460 C   0  0  0  0  0  0  0  0  0  0  0  0
   18.3937   19.7009    9.8704 C   0  0  0  0  0  0  0  0  0  0  0  0
   16.9873   19.2800   10.0489 C   0  0  0  0  0  0  0  0  0  0  0  0
   15.9234   20.1328    9.6243 C   0  0  0  0  0  0  0  0  0  0  0  0
   16.5958   18.0782   10.6192 F   0  0  0  0  0  0  0  0  0  0  0  0
   17.7598   22.9527    8.3133 F   0  0  0  0  0  0  0  0  0  0  0  0
 25 26  2  0  0  0
 25 30  1  0  0  0
 25 24  1  0  0  0
 26 27  1  0  0  0
 27 28  2  0  0  0
 27 31  1  0  0  0
 28 29  1  0  0  0
 29 30  2  0  0  0
 30 32  1  0  0  0
 51 52  2  0  0  0
 51 56  1  0  0  0
 51 50  1  0  0  0
 52 53  1  0  0  0
 52 58  1  0  0  0
 53 54  2  0  0  0
 54 55  1  0  0  0
 55 56  2  0  0  0
 55 57  1  0  0  0
 50 49  1  0  0  0
 49 33  1  0  0  0
 33  1  1  0  0  0
 33 34  1  0  0  0
  1  4  1  0  0  0
  1  2  1  0  0  0
  4  7  1  0  0  0
  4  5  1  0  0  0
  7  8  1  0  0  0
  7 23  1  0  0  0
  8  9  2  0  0  0
  8 10  1  0  0  0
 10 12  1  0  0  0
 23 24  1  0  0  0
 34 35  2  0  0  0
 34 36  1  0  0  0
 36 38  1  0  0  0
 38 39  1  0  0  0
 38 44  1  0  0  0
 39 40  2  0  0  0
 39 41  1  0  0  0
 40 46  1  0  0  0
 40 47  1  0  0  0
 41 42  2  0  0  0
 42 43  1  0  0  0
 43 46  2  0  0  0
 44 45  1  0  0  0
 44 47  1  0  0  0
 12 13  1  0  0  0
 12 18  1  0  0  0
 13 14  2  0  0  0
 13 15  1  0  0  0
 14 20  1  0  0  0
 14 21  1  0  0  0
 15 16  2  0  0  0
 16 17  1  0  0  0
 17 20  2  0  0  0
 18 19  1  0  0  0
 18 21  1  0  0  0
 10 11  1  0  0  0
  5  6  1  0  0  0
  2  3  1  0  0  0
 36 37  1  0  0  0
 45 48  1  0  0  0
 19 22  1  0  0  0
M  END
> <minimizedAffinity>
-12.41510

$$$$
1W5Y_BE6_A_1100


 58 63  0  0  0  0  0  0  0  0999 V2000
   14.0820   22.4683    5.5844 C   0  0  0  0  0  0  0  0  0  0  0  0
   14.7135   23.5076    6.4174 O   0  0  0  0  0  0  0  0  0  0  0  0
   14.2017   23.6233    7.2332 H   0  0  0  0  0  0  0  0  0  0  0  0
   12.7012   22.9236    5.2998 C   0  0  0  0  0  0  0  0  0  0  0  0
   11.9305   22.7520    6.5180 O   0  0  0  0  0  0  0  0  0  0  0  0
   12.3425   23.2585    7.2353 H   0  0  0  0  0  0  0  0  0  0  0  0
   12.7568   24.4356    4.8547 C   0  0  0  0  0  0  0  0  0  0  0  0
   12.1160   25.3754    5.8514 C   0  0  0  0  0  0  0  0  0  0  0  0
   12.7962   25.8504    6.7748 O   0  0  0  0  0  0  0  0  0  0  0  0
   10.7822   25.6736    5.7534 N   0  0  0  0  0  0  0  0  0  0  0  0
   10.2636   25.2811    5.0142 H   0  0  0  0  0  0  0  0  0  0  0  0
   10.1063   26.5400    6.6899 C   0  0  0  0  0  0  0  0  0  0  0  0
    8.6436   26.8288    6.3206 C   0  0  0  0  0  0  0  0  0  0  0  0
    7.8408   26.8486    7.5155 C   0  0  0  0  0  0  0  0  0  0  0  0
    8.0110   26.9753    5.0192 C   0  0  0  0  0  0  0  0  0  0  0  0
    6.5397   27.1399    4.9463 C   0  0  0  0  0  0  0  0  0  0  0  0
    5.7629   27.1542    6.1750 C   0  0  0  0  0  0  0  0  0  0  0  0
    9.9444   25.9248    8.1000 C   0  0  0  0  0  0  0  0  0  0  0  0
    9.6855   24.5121    7.9223 O   0  0  0  0  0  0  0  0  0  0  0  0
    6.3881   27.0127    7.4748 C   0  0  0  0  0  0  0  0  0  0  0  0
    8.7609   26.7018    8.6906 C   0  0  0  0  0  0  0  0  0  0  0  0
    8.9214   24.3947    7.3364 H   0  0  0  0  0  0  0  0  0  0  0  0
   12.1008   24.6067    3.5394 O   0  0  0  0  0  0  0  0  0  0  0  0
   11.2158   23.5468    3.0702 C   0  0  0  0  0  0  0  0  0  0  0  0
    9.8576   24.0625    2.5496 C   0  0  0  0  0  0  0  0  0  0  0  0
    9.8138   25.4337    2.0457 C   0  0  0  0  0  0  0  0  0  0  0  0
    8.6058   26.0388    1.5458 C   0  0  0  0  0  0  0  0  0  0  0  0
    7.3590   25.2867    1.5218 C   0  0  0  0  0  0  0  0  0  0  0  0
    7.3576   23.9068    2.0205 C   0  0  0  0  0  0  0  0  0  0  0  0
    8.5805   23.3118    2.5234 C   0  0  0  0  0  0  0  0  0  0  0  0
    8.6160   27.2372    1.1215 F   0  0  0  0  0  0  0  0  0  0  0  0
    8.6131   21.8804    3.0593 F   0  0  0  0  0  0  0  0  0  0  0  0
   14.0685   21.1092    6.2642 C   0  0  0  0  0  0  0  0  0  0  0  0
   14.7886   21.4406    7.5301 C   0  0  0  0  0  0  0  0  0  0  0  0
   14.1227   21.8705    8.4991 O   0  0  0  0  0  0  0  0  0  0  0  0
   16.1507   21.2534    7.5648 N   0  0  0  0  0  0  0  0  0  0  0  0
   16.5892   20.9085    6.7536 H   0  0  0  0  0  0  0  0  0  0  0  0
   16.9822   21.5313    8.7196 C   0  0  0  0  0  0  0  0  0  0  0  0
   17.1951   20.2708    9.4955 C   0  0  0  0  0  0  0  0  0  0  0  0
   18.5348   20.2503   10.0556 C   0  0  0  0  0  0  0  0  0  0  0  0
   16.2460   19.2069    9.8024 C   0  0  0  0  0  0  0  0  0  0  0  0
   16.6686   18.1056   10.6941 C   0  0  0  0  0  0  0  0  0  0  0  0
   18.0180   18.1094   11.2455 C   0  0  0  0  0  0  0  0  0  0  0  0
   18.4646   21.9585    8.4820 C   0  0  0  0  0  0  0  0  0  0  0  0
   18.9608   21.2148    7.3516 O   0  0  0  0  0  0  0  0  0  0  0  0
   18.9664   19.1744   10.9379 C   0  0  0  0  0  0  0  0  0  0  0  0
   19.1553   21.5727    9.8206 C   0  0  0  0  0  0  0  0  0  0  0  0
   18.8376   20.2657    7.5097 H   0  0  0  0  0  0  0  0  0  0  0  0
   14.7028   20.0180    5.4175 O   0  0  0  0  0  0  0  0  0  0  0  0
   15.2533   20.3796    4.1223 C   0  0  0  0  0  0  0  0  0  0  0  0
   16.1080   19.3098    3.4674 C   0  0  0  0  0  0  0  0  0  0  0  0
   15.8243   18.7581    2.1424 C   0  0  0  0  0  0  0  0  0  0  0  0
   16.7227   17.7227    1.5707 C   0  0  0  0  0  0  0  0  0  0  0  0
   17.8976   17.2617    2.3522 C   0  0  0  0  0  0  0  0  0  0  0  0
   18.1459   17.8483    3.6868 C   0  0  0  0  0  0  0  0  0  0  0  0
   17.2638   18.8426    4.2092 C   0  0  0  0  0  0  0  0  0  0  0  0
   19.2076   17.5027    4.5090 F   0  0  0  0  0  0  0  0  0  0  0  0
   14.8721   19.1472    1.5204 F   0  0  0  0  0  0  0  0  0  0  0  0
 25 26  2  0  0  0
 25 30  1  0  0  0
 25 24  1  0  0  0
 26 27  1  0  0  0
 27 28  2  0  0  0
 27 31  1  0  0  0
 28 29  1  0  0  0
 29 30  2  0  0  0
 30 32  1  0  0  0
 51 52  2  0  0  0
 51 56  1  0  0  0
 51 50  1  0  0  0
 52 53  1  0  0  0
 52 58  1  0  0  0
 53 54  2  0  0  0
 54 55  1  0  0  0
 55 56  2  0  0  0
 55 57  1  0  0  0
 50 49  1  0  0  0
 49 33  1  0  0  0
 33  1  1  0  0  0
 33 34  1  0  0  0
  1  4  1  0  0  0
  1  2  1  0  0  0
  4  7  1  0  0  0
  4  5  1  0  0  0
  7  8  1  0  0  0
  7 23  1  0  0  0
  8  9  2  0  0  0
  8 10  1  0  0  0
 10 12  1  0  0  0
 23 24  1  0  0  0
 34 35  2  0  0  0
 34 36  1  0  0  0
 36 38  1  0  0  0
 38 39  1  0  0  0
 38 44  1  0  0  0
 39 40  2  0  0  0
 39 41  1  0  0  0
 40 46  1  0  0  0
 40 47  1  0  0  0
 41 42  2  0  0  0
 42 43  1  0  0  0
 43 46  2  0  0  0
 44 45  1  0  0  0
 44 47  1  0  0  0
 12 13  1  0  0  0
 12 18  1  0  0  0
 13 14  2  0  0  0
 13 15  1  0  0  0
 14 20  1  0  0  0
 14 21  1  0  0  0
 15 16  2  0  0  0
 16 17  1  0  0  0
 17 20  2  0  0  0
 18 19  1  0  0  0
 18 21  1  0  0  0
 10 11  1  0  0  0
  5  6  1  0  0  0
  2  3  1  0  0  0
 36 37  1  0  0  0
 45 48  1  0  0  0
 19 22  1  0  0  0
M  END
> <minimizedAffinity>
-12.12341

$$$$
1W5Y_BE6_A_1100


 58 63  0  0  0  0  0  0  0  0999 V2000
   13.1093   24.4202    5.2114 C   0  0  0  0  0  0  0  0  0  0  0  0
   14.1506   25.3168    4.6780 O   0  0  0  0  0  0  0  0  0  0  0  0
   14.2102   25.2069    3.7161 H   0  0  0  0  0  0  0  0  0  0  0  0
   13.5005   23.0390    4.8456 C   0  0  0  0  0  0  0  0  0  0  0  0
   13.5285   22.9680    3.3959 O   0  0  0  0  0  0  0  0  0  0  0  0
   14.1505   23.6281    3.0518 H   0  0  0  0  0  0  0  0  0  0  0  0
   14.9175   22.7404    5.4701 C   0  0  0  0  0  0  0  0  0  0  0  0
   15.2316   21.2636    5.5594 C   0  0  0  0  0  0  0  0  0  0  0  0
   14.3170   20.4516    5.7716 O   0  0  0  0  0  0  0  0  0  0  0  0
   16.5256   20.8292    5.4397 N   0  0  0  0  0  0  0  0  0  0  0  0
   17.2335   21.4934    5.2756 H   0  0  0  0  0  0  0  0  0  0  0  0
   16.8933   19.4369    5.5445 C   0  0  0  0  0  0  0  0  0  0  0  0
   16.9183   18.7007    4.1967 C   0  0  0  0  0  0  0  0  0  0  0  0
   18.0300   17.7863    4.1688 C   0  0  0  0  0  0  0  0  0  0  0  0
   16.0883   18.8697    3.0145 C   0  0  0  0  0  0  0  0  0  0  0  0
   16.4067   18.0941    1.7921 C   0  0  0  0  0  0  0  0  0  0  0  0
   17.5379   17.1811    1.8024 C   0  0  0  0  0  0  0  0  0  0  0  0
   18.3426   19.2123    6.0367 C   0  0  0  0  0  0  0  0  0  0  0  0
   19.1577   20.2567    5.4544 O   0  0  0  0  0  0  0  0  0  0  0  0
   18.3661   17.0055    2.9787 C   0  0  0  0  0  0  0  0  0  0  0  0
   18.6765   17.8064    5.5217 C   0  0  0  0  0  0  0  0  0  0  0  0
   19.0495   20.2518    4.4905 H   0  0  0  0  0  0  0  0  0  0  0  0
   15.0183   23.3375    6.8203 O   0  0  0  0  0  0  0  0  0  0  0  0
   14.6760   22.5042    7.9671 C   0  0  0  0  0  0  0  0  0  0  0  0
   15.8856   21.7618    8.5732 C   0  0  0  0  0  0  0  0  0  0  0  0
   15.6289   20.4631    9.1923 C   0  0  0  0  0  0  0  0  0  0  0  0
   16.6683   19.6766    9.8058 C   0  0  0  0  0  0  0  0  0  0  0  0
   18.0425   20.1581    9.8278 C   0  0  0  0  0  0  0  0  0  0  0  0
   18.3443   21.4585    9.2191 C   0  0  0  0  0  0  0  0  0  0  0  0
   17.2874   22.2405    8.6077 C   0  0  0  0  0  0  0  0  0  0  0  0
   16.3956   18.5538   10.3361 F   0  0  0  0  0  0  0  0  0  0  0  0
   17.5643   23.6035    7.9730 F   0  0  0  0  0  0  0  0  0  0  0  0
   11.7282   24.7475    4.6682 C   0  0  0  0  0  0  0  0  0  0  0  0
   11.1847   25.5562    5.8003 C   0  0  0  0  0  0  0  0  0  0  0  0
   11.9046   25.7262    6.8104 O   0  0  0  0  0  0  0  0  0  0  0  0
    9.9175   26.0750    5.6718 N   0  0  0  0  0  0  0  0  0  0  0  0
    9.4263   25.8903    4.8388 H   0  0  0  0  0  0  0  0  0  0  0  0
    9.2586   26.8765    6.6845 C   0  0  0  0  0  0  0  0  0  0  0  0
    7.7921   26.9350    6.3977 C   0  0  0  0  0  0  0  0  0  0  0  0
    7.0406   26.9367    7.6404 C   0  0  0  0  0  0  0  0  0  0  0  0
    7.1093   27.0802    5.1173 C   0  0  0  0  0  0  0  0  0  0  0  0
    5.6382   27.2300    5.1032 C   0  0  0  0  0  0  0  0  0  0  0  0
    4.9073   27.2311    6.3643 C   0  0  0  0  0  0  0  0  0  0  0  0
    9.2281   26.3421    8.1509 C   0  0  0  0  0  0  0  0  0  0  0  0
    9.0688   24.9110    8.0943 O   0  0  0  0  0  0  0  0  0  0  0  0
    5.5915   27.0860    7.6446 C   0  0  0  0  0  0  0  0  0  0  0  0
    7.9979   27.0722    8.7603 C   0  0  0  0  0  0  0  0  0  0  0  0
    8.2807   24.6937    7.5721 H   0  0  0  0  0  0  0  0  0  0  0  0
   10.9263   23.5085    4.3057 O   0  0  0  0  0  0  0  0  0  0  0  0
   10.4374   23.3750    2.9438 C   0  0  0  0  0  0  0  0  0  0  0  0
    9.0283   23.8907    2.7148 C   0  0  0  0  0  0  0  0  0  0  0  0
    8.7362   25.1292    1.9929 C   0  0  0  0  0  0  0  0  0  0  0  0
    7.3253   25.5524    1.8021 C   0  0  0  0  0  0  0  0  0  0  0  0
    6.2298   24.7117    2.3469 C   0  0  0  0  0  0  0  0  0  0  0  0
    6.5722   23.4674    3.0689 C   0  0  0  0  0  0  0  0  0  0  0  0
    7.9386   23.0871    3.2357 C   0  0  0  0  0  0  0  0  0  0  0  0
    5.6410   22.6001    3.6198 F   0  0  0  0  0  0  0  0  0  0  0  0
    9.6352   25.7948    1.5527 F   0  0  0  0  0  0  0  0  0  0  0  0
 25 26  2  0  0  0
 25 30  1  0  0  0
 25 24  1  0  0  0
 26 27  1  0  0  0
 27 28  2  0  0  0
 27 31  1  0  0  0
 28 29  1  0  0  0
 29 30  2  0  0  0
 30 32  1  0  0  0
 51 52  2  0  0  0
 51 56  1  0  0  0
 51 50  1  0  0  0
 52 53  1  0  0  0
 52 58  1  0  0  0
 53 54  2  0  0  0
 54 55  1  0  0  0
 55 56  2  0  0  0
 55 57  1  0  0  0
 50 49  1  0  0  0
 49 33  1  0  0  0
 33  1  1  0  0  0
 33 34  1  0  0  0
  1  4  1  0  0  0
  1  2  1  0  0  0
  4  7  1  0  0  0
  4  5  1  0  0  0
  7  8  1  0  0  0
  7 23  1  0  0  0
  8  9  2  0  0  0
  8 10  1  0  0  0
 10 12  1  0  0  0
 23 24  1  0  0  0
 34 35  2  0  0  0
 34 36  1  0  0  0
 36 38  1  0  0  0
 38 39  1  0  0  0
 38 44  1  0  0  0
 39 40  2  0  0  0
 39 41  1  0  0  0
 40 46  1  0  0  0
 40 47  1  0  0  0
 41 42  2  0  0  0
 42 43  1  0  0  0
 43 46  2  0  0  0
 44 45  1  0  0  0
 44 47  1  0  0  0
 12 13  1  0  0  0
 12 18  1  0  0  0
 13 14  2  0  0  0
 13 15  1  0  0  0
 14 20  1  0  0  0
 14 21  1  0  0  0
 15 16  2  0  0  0
 16 17  1  0  0  0
 17 20  2  0  0  0
 18 19  1  0  0  0
 18 21  1  0  0  0
 10 11  1  0  0  0
  5  6  1  0  0  0
  2  3  1  0  0  0
 36 37  1  0  0  0
 45 48  1  0  0  0
 19 22  1  0  0  0
M  END
> <minimizedAffinity>
-12.07952

$$$$
1W5Y_BE6_A_1100


 58 63  0  0  0  0  0  0  0  0999 V2000
   14.4030   23.3532    5.4397 C   0  0  0  0  0  0  0  0  0  0  0  0
   15.6714   23.9657    5.8741 O   0  0  0  0  0  0  0  0  0  0  0  0
   15.6006   24.2305    6.8046 H   0  0  0  0  0  0  0  0  0  0  0  0
   13.3434   24.3698    5.6364 C   0  0  0  0  0  0  0  0  0  0  0  0
   13.5487   25.4054    4.6400 O   0  0  0  0  0  0  0  0  0  0  0  0
   13.5188   25.0120    3.7538 H   0  0  0  0  0  0  0  0  0  0  0  0
   11.9415   23.6680    5.4657 C   0  0  0  0  0  0  0  0  0  0  0  0
   11.3502   23.8431    4.0847 C   0  0  0  0  0  0  0  0  0  0  0  0
   12.0545   23.6384    3.0831 O   0  0  0  0  0  0  0  0  0  0  0  0
   10.0523   24.2587    3.9419 N   0  0  0  0  0  0  0  0  0  0  0  0
    9.5157   24.4181    4.7518 H   0  0  0  0  0  0  0  0  0  0  0  0
    9.4396   24.4722    2.6521 C   0  0  0  0  0  0  0  0  0  0  0  0
    7.9443   24.1235    2.6125 C   0  0  0  0  0  0  0  0  0  0  0  0
    7.2471   25.0874    1.8016 C   0  0  0  0  0  0  0  0  0  0  0  0
    7.1987   23.0879    3.3102 C   0  0  0  0  0  0  0  0  0  0  0  0
    5.7232   23.0457    3.1756 C   0  0  0  0  0  0  0  0  0  0  0  0
    5.0550   24.0368    2.3483 C   0  0  0  0  0  0  0  0  0  0  0  0
    9.4141   25.9557    2.2144 C   0  0  0  0  0  0  0  0  0  0  0  0
    9.1737   26.7471    3.4018 O   0  0  0  0  0  0  0  0  0  0  0  0
    5.7929   25.0686    1.6474 C   0  0  0  0  0  0  0  0  0  0  0  0
    8.2680   26.0036    1.1958 C   0  0  0  0  0  0  0  0  0  0  0  0
    8.3649   26.4373    3.8386 H   0  0  0  0  0  0  0  0  0  0  0  0
   10.9846   24.1845    6.4692 O   0  0  0  0  0  0  0  0  0  0  0  0
   11.4554   25.1923    7.4123 C   0  0  0  0  0  0  0  0  0  0  0  0
   10.4085   26.2825    7.7238 C   0  0  0  0  0  0  0  0  0  0  0  0
    9.3217   26.4574    6.7625 C   0  0  0  0  0  0  0  0  0  0  0  0
    8.2899   27.4488    6.9292 C   0  0  0  0  0  0  0  0  0  0  0  0
    8.2927   28.3289    8.0895 C   0  0  0  0  0  0  0  0  0  0  0  0
    9.3671   28.1888    9.0788 C   0  0  0  0  0  0  0  0  0  0  0  0
   10.4005   27.1882    8.8964 C   0  0  0  0  0  0  0  0  0  0  0  0
    7.3666   27.5665    6.0632 F   0  0  0  0  0  0  0  0  0  0  0  0
   11.5399   27.0212    9.9020 F   0  0  0  0  0  0  0  0  0  0  0  0
   14.0778   22.0844    6.2103 C   0  0  0  0  0  0  0  0  0  0  0  0
   14.8869   22.3115    7.4452 C   0  0  0  0  0  0  0  0  0  0  0  0
   14.4193   23.0580    8.3348 O   0  0  0  0  0  0  0  0  0  0  0  0
   16.1071   21.6843    7.5406 N   0  0  0  0  0  0  0  0  0  0  0  0
   16.3916   21.1134    6.7908 H   0  0  0  0  0  0  0  0  0  0  0  0
   17.0014   21.8102    8.6749 C   0  0  0  0  0  0  0  0  0  0  0  0
   17.0693   20.5059    9.4032 C   0  0  0  0  0  0  0  0  0  0  0  0
   18.4105   20.2909    9.9169 C   0  0  0  0  0  0  0  0  0  0  0  0
   15.9980   19.5647    9.7083 C   0  0  0  0  0  0  0  0  0  0  0  0
   16.2980   18.3867   10.5503 C   0  0  0  0  0  0  0  0  0  0  0  0
   17.6517   18.1948   11.0557 C   0  0  0  0  0  0  0  0  0  0  0  0
   18.5196   22.0484    8.4010 C   0  0  0  0  0  0  0  0  0  0  0  0
   18.8803   21.2870    7.2318 O   0  0  0  0  0  0  0  0  0  0  0  0
   18.7225   19.1372   10.7500 C   0  0  0  0  0  0  0  0  0  0  0  0
   19.1925   21.5285    9.7027 C   0  0  0  0  0  0  0  0  0  0  0  0
   18.6380   20.3571    7.3640 H   0  0  0  0  0  0  0  0  0  0  0  0
   14.4090   20.8200    5.4349 O   0  0  0  0  0  0  0  0  0  0  0  0
   14.9410   20.9532    4.0893 C   0  0  0  0  0  0  0  0  0  0  0  0
   15.8000   19.7926    3.6215 C   0  0  0  0  0  0  0  0  0  0  0  0
   15.5056   19.0117    2.4198 C   0  0  0  0  0  0  0  0  0  0  0  0
   16.4090   17.9001    2.0271 C   0  0  0  0  0  0  0  0  0  0  0  0
   17.5999   17.5968    2.8598 C   0  0  0  0  0  0  0  0  0  0  0  0
   17.8586   18.4133    4.0653 C   0  0  0  0  0  0  0  0  0  0  0  0
   16.9714   19.4759    4.4165 C   0  0  0  0  0  0  0  0  0  0  0  0
   18.9354   18.2296    4.9194 F   0  0  0  0  0  0  0  0  0  0  0  0
   14.5404   19.2748    1.7533 F   0  0  0  0  0  0  0  0  0  0  0  0
 25 26  2  0  0  0
 25 30  1  0  0  0
 25 24  1  0  0  0
 26 27  1  0  0  0
 27 28  2  0  0  0
 27 31  1  0  0  0
 28 29  1  0  0  0
 29 30  2  0  0  0
 30 32  1  0  0  0
 51 52  2  0  0  0
 51 56  1  0  0  0
 51 50  1  0  0  0
 52 53  1  0  0  0
 52 58  1  0  0  0
 53 54  2  0  0  0
 54 55  1  0  0  0
 55 56  2  0  0  0
 55 57  1  0  0  0
 50 49  1  0  0  0
 49 33  1  0  0  0
 33  1  1  0  0  0
 33 34  1  0  0  0
  1  4  1  0  0  0
  1  2  1  0  0  0
  4  7  1  0  0  0
  4  5  1  0  0  0
  7  8  1  0  0  0
  7 23  1  0  0  0
  8  9  2  0  0  0
  8 10  1  0  0  0
 10 12  1  0  0  0
 23 24  1  0  0  0
 34 35  2  0  0  0
 34 36  1  0  0  0
 36 38  1  0  0  0
 38 39  1  0  0  0
 38 44  1  0  0  0
 39 40  2  0  0  0
 39 41  1  0  0  0
 40 46  1  0  0  0
 40 47  1  0  0  0
 41 42  2  0  0  0
 42 43  1  0  0  0
 43 46  2  0  0  0
 44 45  1  0  0  0
 44 47  1  0  0  0
 12 13  1  0  0  0
 12 18  1  0  0  0
 13 14  2  0  0  0
 13 15  1  0  0  0
 14 20  1  0  0  0
 14 21  1  0  0  0
 15 16  2  0  0  0
 16 17  1  0  0  0
 17 20  2  0  0  0
 18 19  1  0  0  0
 18 21  1  0  0  0
 10 11  1  0  0  0
  5  6  1  0  0  0
  2  3  1  0  0  0
 36 37  1  0  0  0
 45 48  1  0  0  0
 19 22  1  0  0  0
M  END
> <minimizedAffinity>
-12.03468

$$$$
1W5Y_BE6_A_1100


 58 63  0  0  0  0  0  0  0  0999 V2000
   13.8427   22.6438    5.9145 C   0  0  0  0  0  0  0  0  0  0  0  0
   14.2714   23.6265    6.9261 O   0  0  0  0  0  0  0  0  0  0  0  0
   13.8398   23.4289    7.7720 H   0  0  0  0  0  0  0  0  0  0  0  0
   12.3685   22.7478    5.8097 C   0  0  0  0  0  0  0  0  0  0  0  0
   11.8077   22.1521    7.0090 O   0  0  0  0  0  0  0  0  0  0  0  0
   12.1526   22.6122    7.7902 H   0  0  0  0  0  0  0  0  0  0  0  0
   11.9842   24.2720    5.6828 C   0  0  0  0  0  0  0  0  0  0  0  0
   10.6350   24.5996    6.2827 C   0  0  0  0  0  0  0  0  0  0  0  0
   10.1074   23.8079    7.0800 O   0  0  0  0  0  0  0  0  0  0  0  0
    9.9843   25.7498    5.9204 N   0  0  0  0  0  0  0  0  0  0  0  0
   10.4222   26.3594    5.2832 H   0  0  0  0  0  0  0  0  0  0  0  0
    8.6827   26.1042    6.4350 C   0  0  0  0  0  0  0  0  0  0  0  0
    8.7322   26.8919    7.7527 C   0  0  0  0  0  0  0  0  0  0  0  0
    7.7157   27.9113    7.7420 C   0  0  0  0  0  0  0  0  0  0  0  0
    9.6603   26.8047    8.8691 C   0  0  0  0  0  0  0  0  0  0  0  0
    9.5439   27.7767    9.9820 C   0  0  0  0  0  0  0  0  0  0  0  0
    8.5048   28.7923    9.9350 C   0  0  0  0  0  0  0  0  0  0  0  0
    7.9018   27.0842    5.5280 C   0  0  0  0  0  0  0  0  0  0  0  0
    8.8652   28.0072    4.9677 O   0  0  0  0  0  0  0  0  0  0  0  0
    7.5747   28.8816    8.8272 C   0  0  0  0  0  0  0  0  0  0  0  0
    6.9047   27.7395    6.4923 C   0  0  0  0  0  0  0  0  0  0  0  0
    9.3660   28.4268    5.6847 H   0  0  0  0  0  0  0  0  0  0  0  0
   11.9938   24.6860    4.2622 O   0  0  0  0  0  0  0  0  0  0  0  0
   11.4364   23.7682    3.2754 C   0  0  0  0  0  0  0  0  0  0  0  0
   10.0774   24.2262    2.7055 C   0  0  0  0  0  0  0  0  0  0  0  0
   10.0007   25.5860    2.1755 C   0  0  0  0  0  0  0  0  0  0  0  0
    8.7879   26.1390    1.6291 C   0  0  0  0  0  0  0  0  0  0  0  0
    7.5695   25.3427    1.5820 C   0  0  0  0  0  0  0  0  0  0  0  0
    7.6014   23.9724    2.1056 C   0  0  0  0  0  0  0  0  0  0  0  0
    8.8287   23.4301    2.6552 C   0  0  0  0  0  0  0  0  0  0  0  0
    8.7688   27.3295    1.1834 F   0  0  0  0  0  0  0  0  0  0  0  0
    8.8954   22.0102    3.2180 F   0  0  0  0  0  0  0  0  0  0  0  0
   14.2557   21.2257    6.2718 C   0  0  0  0  0  0  0  0  0  0  0  0
   14.9345   21.4706    7.5796 C   0  0  0  0  0  0  0  0  0  0  0  0
   14.2251   21.7035    8.5845 O   0  0  0  0  0  0  0  0  0  0  0  0
   16.3088   21.4253    7.6110 N   0  0  0  0  0  0  0  0  0  0  0  0
   16.7827   21.2327    6.7698 H   0  0  0  0  0  0  0  0  0  0  0  0
   17.1041   21.6431    8.8035 C   0  0  0  0  0  0  0  0  0  0  0  0
   17.2758   20.3482    9.5315 C   0  0  0  0  0  0  0  0  0  0  0  0
   18.5956   20.2863   10.1342 C   0  0  0  0  0  0  0  0  0  0  0  0
   16.3044   19.2850    9.7610 C   0  0  0  0  0  0  0  0  0  0  0  0
   16.6836   18.1415   10.6185 C   0  0  0  0  0  0  0  0  0  0  0  0
   18.0136   18.1041   11.2139 C   0  0  0  0  0  0  0  0  0  0  0  0
   18.5987   22.0602    8.6335 C   0  0  0  0  0  0  0  0  0  0  0  0
   19.1238   21.3584    7.4895 O   0  0  0  0  0  0  0  0  0  0  0  0
   18.9845   19.1684   10.9837 C   0  0  0  0  0  0  0  0  0  0  0  0
   19.2394   21.6091    9.9765 C   0  0  0  0  0  0  0  0  0  0  0  0
   18.9841   20.4052    7.6028 H   0  0  0  0  0  0  0  0  0  0  0  0
   15.1145   20.5723    5.2017 O   0  0  0  0  0  0  0  0  0  0  0  0
   14.9225   19.1580    4.9287 C   0  0  0  0  0  0  0  0  0  0  0  0
   15.6660   18.6325    3.7142 C   0  0  0  0  0  0  0  0  0  0  0  0
   16.6716   17.5725    3.7878 C   0  0  0  0  0  0  0  0  0  0  0  0
   17.3411   17.1083    2.5458 C   0  0  0  0  0  0  0  0  0  0  0  0
   16.9799   17.7267    1.2455 C   0  0  0  0  0  0  0  0  0  0  0  0
   15.9569   18.7944    1.2190 C   0  0  0  0  0  0  0  0  0  0  0  0
   15.3307   19.2187    2.4303 C   0  0  0  0  0  0  0  0  0  0  0  0
   15.5340   19.4453    0.0700 F   0  0  0  0  0  0  0  0  0  0  0  0
   16.9477   17.0781    4.8481 F   0  0  0  0  0  0  0  0  0  0  0  0
 25 26  2  0  0  0
 25 30  1  0  0  0
 25 24  1  0  0  0
 26 27  1  0  0  0
 27 28  2  0  0  0
 27 31  1  0  0  0
 28 29  1  0  0  0
 29 30  2  0  0  0
 30 32  1  0  0  0
 51 52  2  0  0  0
 51 56  1  0  0  0
 51 50  1  0  0  0
 52 53  1  0  0  0
 52 58  1  0  0  0
 53 54  2  0  0  0
 54 55  1  0  0  0
 55 56  2  0  0  0
 55 57  1  0  0  0
 50 49  1  0  0  0
 49 33  1  0  0  0
 33  1  1  0  0  0
 33 34  1  0  0  0
  1  4  1  0  0  0
  1  2  1  0  0  0
  4  7  1  0  0  0
  4  5  1  0  0  0
  7  8  1  0  0  0
  7 23  1  0  0  0
  8  9  2  0  0  0
  8 10  1  0  0  0
 10 12  1  0  0  0
 23 24  1  0  0  0
 34 35  2  0  0  0
 34 36  1  0  0  0
 36 38  1  0  0  0
 38 39  1  0  0  0
 38 44  1  0  0  0
 39 40  2  0  0  0
 39 41  1  0  0  0
 40 46  1  0  0  0
 40 47  1  0  0  0
 41 42  2  0  0  0
 42 43  1  0  0  0
 43 46  2  0  0  0
 44 45  1  0  0  0
 44 47  1  0  0  0
 12 13  1  0  0  0
 12 18  1  0  0  0
 13 14  2  0  0  0
 13 15  1  0  0  0
 14 20  1  0  0  0
 14 21  1  0  0  0
 15 16  2  0  0  0
 16 17  1  0  0  0
 17 20  2  0  0  0
 18 19  1  0  0  0
 18 21  1  0  0  0
 10 11  1  0  0  0
  5  6  1  0  0  0
  2  3  1  0  0  0
 36 37  1  0  0  0
 45 48  1  0  0  0
 19 22  1  0  0  0
M  END
> <minimizedAffinity>
-12.01415

$$$$
