3LJZ_LA3_A_801


 39 43  0  0  0  0  0  0  0  0999 V2000
   73.9611   86.2556   48.9649 C   0  0  0  0  0  0  0  0  0  0  0  0
   74.9973   86.5045   50.0147 C   0  0  0  0  0  0  0  0  0  0  0  0
   74.7134   86.5484   51.2048 O   0  0  0  0  0  0  0  0  0  0  0  0
   76.2536   86.6682   49.4847 N   0  0  0  0  0  0  0  0  0  0  0  0
   76.3680   86.9024   48.5353 H   0  0  0  0  0  0  0  0  0  0  0  0
   77.4112   86.4910   50.3440 C   0  0  0  0  0  0  0  0  0  0  0  0
   78.5906   85.8082   49.7368 C   0  0  0  0  0  0  0  0  0  0  0  0
   78.0656   87.7789   50.8056 C   0  0  0  0  0  0  0  0  0  0  0  0
   78.1884   88.6293   49.6851 O   0  0  0  0  0  0  0  0  0  0  0  0
   79.4945   87.4498   51.1735 C   0  0  0  0  0  0  0  0  0  0  0  0
   81.0106   84.8388   48.8955 C   0  0  0  0  0  0  0  0  0  0  0  0
   78.6042   84.7678   48.8303 C   0  0  0  0  0  0  0  0  0  0  0  0
   79.7531   86.3508   50.2120 C   0  0  0  0  0  0  0  0  0  0  0  0
   80.9831   85.8843   49.8005 C   0  0  0  0  0  0  0  0  0  0  0  0
   79.8342   84.2903   48.4174 C   0  0  0  0  0  0  0  0  0  0  0  0
   78.7053   88.1835   48.9959 H   0  0  0  0  0  0  0  0  0  0  0  0
   72.8905   87.3306   49.0509 C   0  0  0  0  0  0  0  0  0  0  0  0
   72.5924   90.7354   47.3787 C   0  0  0  0  0  0  0  0  0  0  0  0
   73.8146   88.3173   46.9745 C   0  0  0  0  0  0  0  0  0  0  0  0
   73.3826   90.5738   46.2623 C   0  0  0  0  0  0  0  0  0  0  0  0
   72.4185   89.7123   48.2835 C   0  0  0  0  0  0  0  0  0  0  0  0
   73.0285   88.4828   48.0921 C   0  0  0  0  0  0  0  0  0  0  0  0
   73.9878   89.3449   46.0751 C   0  0  0  0  0  0  0  0  0  0  0  0
   73.5656   91.6653   45.3181 C   0  0  0  0  0  0  0  0  0  0  0  0
   73.8227   93.7752   43.5601 C   0  0  0  0  0  0  0  0  0  0  0  0
   74.3091   91.5056   44.1614 C   0  0  0  0  0  0  0  0  0  0  0  0
   72.9703   92.8960   45.5578 C   0  0  0  0  0  0  0  0  0  0  0  0
   73.0858   93.9724   44.6968 C   0  0  0  0  0  0  0  0  0  0  0  0
   74.4205   92.5766   43.3021 C   0  0  0  0  0  0  0  0  0  0  0  0
   75.1174   92.5879   42.1183 O   0  0  0  0  0  0  0  0  0  0  0  0
   74.0527   94.7115   42.5866 O   0  0  0  0  0  0  0  0  0  0  0  0
   74.8536   93.9387   41.6686 C   0  0  0  0  0  0  0  0  0  0  0  0
   73.3769   84.8972   49.2980 C   0  0  0  0  0  0  0  0  0  0  0  0
   72.6512   84.3840   48.1060 C   0  0  0  0  0  0  0  0  0  0  0  0
   73.1018   84.4814   46.9789 O   0  0  0  0  0  0  0  0  0  0  0  0
   71.4460   83.8120   48.4369 N   0  0  0  0  0  0  0  0  0  0  0  0
   70.4761   84.0744   47.4396 O   0  0  0  0  0  0  0  0  0  0  0  0
   71.2800   83.2910   49.2556 H   0  0  0  0  0  0  0  0  0  0  0  0
   70.8748   84.6054   46.7325 H   0  0  0  0  0  0  0  0  0  0  0  0
 21 18  2  0  0  0
 20 18  1  0  0  0
 19 22  2  0  0  0
 19 23  1  0  0  0
 23 20  2  0  0  0
 20 24  1  0  0  0
 22 21  1  0  0  0
 17 22  1  0  0  0
 26 24  2  0  0  0
 24 27  1  0  0  0
  1 17  1  0  0  0
 29 25  2  0  0  0
 25 28  1  0  0  0
 25 31  1  0  0  0
 26 29  1  0  0  0
 27 28  2  0  0  0
 29 30  1  0  0  0
 30 32  1  0  0  0
 32 31  1  0  0  0
  2  1  1  0  0  0
 33  1  1  0  0  0
  3  2  2  0  0  0
  2  4  1  0  0  0
 33 34  1  0  0  0
 36 34  1  0  0  0
 34 35  2  0  0  0
 36 37  1  0  0  0
  6  4  1  0  0  0
  7  6  1  0  0  0
  6  8  1  0  0  0
 13  7  2  0  0  0
 12  7  1  0  0  0
 10  8  1  0  0  0
  8  9  1  0  0  0
 13 10  1  0  0  0
 11 14  2  0  0  0
 11 15  1  0  0  0
 15 12  2  0  0  0
 14 13  1  0  0  0
 36 38  1  0  0  0
 37 39  1  0  0  0
  4  5  1  0  0  0
  9 16  1  0  0  0
M  END
> <minimizedAffinity>
-12.46073

$$$$
3LJZ_LA3_A_801


 39 43  0  0  0  0  0  0  0  0999 V2000
   73.6644   85.7631   49.9847 C   0  0  0  0  0  0  0  0  0  0  0  0
   73.6403   84.5851   49.0630 C   0  0  0  0  0  0  0  0  0  0  0  0
   74.6652   84.1242   48.5771 O   0  0  0  0  0  0  0  0  0  0  0  0
   72.3690   84.1125   48.8475 N   0  0  0  0  0  0  0  0  0  0  0  0
   71.5873   84.6828   49.0284 H   0  0  0  0  0  0  0  0  0  0  0  0
   72.1937   82.7595   48.3489 C   0  0  0  0  0  0  0  0  0  0  0  0
   71.7353   81.7414   49.3385 C   0  0  0  0  0  0  0  0  0  0  0  0
   71.1137   82.6031   47.2957 C   0  0  0  0  0  0  0  0  0  0  0  0
   69.9716   83.3063   47.7373 O   0  0  0  0  0  0  0  0  0  0  0  0
   70.6796   81.1551   47.3092 C   0  0  0  0  0  0  0  0  0  0  0  0
   70.6650   79.6812   50.7925 C   0  0  0  0  0  0  0  0  0  0  0  0
   72.0692   81.6342   50.6731 C   0  0  0  0  0  0  0  0  0  0  0  0
   70.8903   80.8446   48.7440 C   0  0  0  0  0  0  0  0  0  0  0  0
   70.3349   79.8025   49.4548 C   0  0  0  0  0  0  0  0  0  0  0  0
   71.5208   80.5879   51.3914 C   0  0  0  0  0  0  0  0  0  0  0  0
   69.6931   82.9616   48.6001 H   0  0  0  0  0  0  0  0  0  0  0  0
   72.5001   86.6824   49.6556 C   0  0  0  0  0  0  0  0  0  0  0  0
   73.6668   88.5981   46.5821 C   0  0  0  0  0  0  0  0  0  0  0  0
   72.3233   89.0441   48.9273 C   0  0  0  0  0  0  0  0  0  0  0  0
   73.2085   89.8692   46.8486 C   0  0  0  0  0  0  0  0  0  0  0  0
   73.4540   87.5635   47.4652 C   0  0  0  0  0  0  0  0  0  0  0  0
   72.7778   87.7734   48.6564 C   0  0  0  0  0  0  0  0  0  0  0  0
   72.5358   90.0739   48.0390 C   0  0  0  0  0  0  0  0  0  0  0  0
   73.4319   90.9523   45.9034 C   0  0  0  0  0  0  0  0  0  0  0  0
   73.7637   93.0458   44.1384 C   0  0  0  0  0  0  0  0  0  0  0  0
   74.2343   90.7861   44.7876 C   0  0  0  0  0  0  0  0  0  0  0  0
   72.8169   92.1810   46.0995 C   0  0  0  0  0  0  0  0  0  0  0  0
   72.9687   93.2493   45.2341 C   0  0  0  0  0  0  0  0  0  0  0  0
   74.3819   91.8490   43.9238 C   0  0  0  0  0  0  0  0  0  0  0  0
   75.1380   91.8533   42.7768 O   0  0  0  0  0  0  0  0  0  0  0  0
   74.0366   93.9738   43.1679 O   0  0  0  0  0  0  0  0  0  0  0  0
   74.8883   93.1975   42.3000 C   0  0  0  0  0  0  0  0  0  0  0  0
   74.9832   86.4571   49.7073 C   0  0  0  0  0  0  0  0  0  0  0  0
   75.7899   86.4666   50.9563 C   0  0  0  0  0  0  0  0  0  0  0  0
   76.2225   87.4957   51.4429 O   0  0  0  0  0  0  0  0  0  0  0  0
   75.9784   85.2031   51.4635 N   0  0  0  0  0  0  0  0  0  0  0  0
   77.2654   85.0816   52.0406 O   0  0  0  0  0  0  0  0  0  0  0  0
   75.3098   84.4813   51.4300 H   0  0  0  0  0  0  0  0  0  0  0  0
   77.7400   85.9230   51.9526 H   0  0  0  0  0  0  0  0  0  0  0  0
 21 18  2  0  0  0
 20 18  1  0  0  0
 19 22  2  0  0  0
 19 23  1  0  0  0
 23 20  2  0  0  0
 20 24  1  0  0  0
 22 21  1  0  0  0
 17 22  1  0  0  0
 26 24  2  0  0  0
 24 27  1  0  0  0
  1 17  1  0  0  0
 29 25  2  0  0  0
 25 28  1  0  0  0
 25 31  1  0  0  0
 26 29  1  0  0  0
 27 28  2  0  0  0
 29 30  1  0  0  0
 30 32  1  0  0  0
 32 31  1  0  0  0
  2  1  1  0  0  0
 33  1  1  0  0  0
  3  2  2  0  0  0
  2  4  1  0  0  0
 33 34  1  0  0  0
 36 34  1  0  0  0
 34 35  2  0  0  0
 36 37  1  0  0  0
  6  4  1  0  0  0
  7  6  1  0  0  0
  6  8  1  0  0  0
 13  7  2  0  0  0
 12  7  1  0  0  0
 10  8  1  0  0  0
  8  9  1  0  0  0
 13 10  1  0  0  0
 11 14  2  0  0  0
 11 15  1  0  0  0
 15 12  2  0  0  0
 14 13  1  0  0  0
 36 38  1  0  0  0
 37 39  1  0  0  0
  4  5  1  0  0  0
  9 16  1  0  0  0
M  END
> <minimizedAffinity>
-11.99870

$$$$
3LJZ_LA3_A_801


 39 43  0  0  0  0  0  0  0  0999 V2000
   73.6389   84.9774   48.9192 C   0  0  0  0  0  0  0  0  0  0  0  0
   75.0687   84.7399   49.2893 C   0  0  0  0  0  0  0  0  0  0  0  0
   75.7278   83.8435   48.7786 O   0  0  0  0  0  0  0  0  0  0  0  0
   75.5204   85.6258   50.2366 N   0  0  0  0  0  0  0  0  0  0  0  0
   74.8834   86.1213   50.8004 H   0  0  0  0  0  0  0  0  0  0  0  0
   76.9509   85.8217   50.3952 C   0  0  0  0  0  0  0  0  0  0  0  0
   77.3749   87.0312   51.1588 C   0  0  0  0  0  0  0  0  0  0  0  0
   77.6564   84.7464   51.1989 C   0  0  0  0  0  0  0  0  0  0  0  0
   76.8845   84.4903   52.3532 O   0  0  0  0  0  0  0  0  0  0  0  0
   78.9316   85.3530   51.7387 C   0  0  0  0  0  0  0  0  0  0  0  0
   78.5086   88.9839   52.7100 C   0  0  0  0  0  0  0  0  0  0  0  0
   76.7978   88.2848   51.1657 C   0  0  0  0  0  0  0  0  0  0  0  0
   78.4885   86.7584   51.9052 C   0  0  0  0  0  0  0  0  0  0  0  0
   79.0747   87.7219   52.6975 C   0  0  0  0  0  0  0  0  0  0  0  0
   77.3837   89.2583   51.9533 C   0  0  0  0  0  0  0  0  0  0  0  0
   76.7756   85.3114   52.8580 H   0  0  0  0  0  0  0  0  0  0  0  0
   73.1757   86.2930   49.5223 C   0  0  0  0  0  0  0  0  0  0  0  0
   72.7450   89.7832   48.0696 C   0  0  0  0  0  0  0  0  0  0  0  0
   73.8849   87.3806   47.4121 C   0  0  0  0  0  0  0  0  0  0  0  0
   73.4088   89.6747   46.8678 C   0  0  0  0  0  0  0  0  0  0  0  0
   72.6556   88.7153   48.9340 C   0  0  0  0  0  0  0  0  0  0  0  0
   73.2254   87.4930   48.6150 C   0  0  0  0  0  0  0  0  0  0  0  0
   73.9743   88.4528   46.5535 C   0  0  0  0  0  0  0  0  0  0  0  0
   73.5040   90.8129   45.9669 C   0  0  0  0  0  0  0  0  0  0  0  0
   73.5915   93.0028   44.2920 C   0  0  0  0  0  0  0  0  0  0  0  0
   74.2590   90.7583   44.8078 C   0  0  0  0  0  0  0  0  0  0  0  0
   72.8111   91.9815   46.2511 C   0  0  0  0  0  0  0  0  0  0  0  0
   72.8400   93.0960   45.4326 C   0  0  0  0  0  0  0  0  0  0  0  0
   74.2844   91.8671   43.9907 C   0  0  0  0  0  0  0  0  0  0  0  0
   74.9792   91.9802   42.8110 O   0  0  0  0  0  0  0  0  0  0  0  0
   73.7461   93.9914   43.3561 O   0  0  0  0  0  0  0  0  0  0  0  0
   74.6076   93.3217   42.4124 C   0  0  0  0  0  0  0  0  0  0  0  0
   72.8742   83.8174   49.5252 C   0  0  0  0  0  0  0  0  0  0  0  0
   71.9588   83.2587   48.4953 C   0  0  0  0  0  0  0  0  0  0  0  0
   72.2600   82.2977   47.8105 O   0  0  0  0  0  0  0  0  0  0  0  0
   70.7744   83.9520   48.4206 N   0  0  0  0  0  0  0  0  0  0  0  0
   70.3176   84.0209   47.0823 O   0  0  0  0  0  0  0  0  0  0  0  0
   70.3076   84.3469   49.1922 H   0  0  0  0  0  0  0  0  0  0  0  0
   70.9442   83.5601   46.5027 H   0  0  0  0  0  0  0  0  0  0  0  0
 21 18  2  0  0  0
 20 18  1  0  0  0
 19 22  2  0  0  0
 19 23  1  0  0  0
 23 20  2  0  0  0
 20 24  1  0  0  0
 22 21  1  0  0  0
 17 22  1  0  0  0
 26 24  2  0  0  0
 24 27  1  0  0  0
  1 17  1  0  0  0
 29 25  2  0  0  0
 25 28  1  0  0  0
 25 31  1  0  0  0
 26 29  1  0  0  0
 27 28  2  0  0  0
 29 30  1  0  0  0
 30 32  1  0  0  0
 32 31  1  0  0  0
  2  1  1  0  0  0
 33  1  1  0  0  0
  3  2  2  0  0  0
  2  4  1  0  0  0
 33 34  1  0  0  0
 36 34  1  0  0  0
 34 35  2  0  0  0
 36 37  1  0  0  0
  6  4  1  0  0  0
  7  6  1  0  0  0
  6  8  1  0  0  0
 13  7  2  0  0  0
 12  7  1  0  0  0
 10  8  1  0  0  0
  8  9  1  0  0  0
 13 10  1  0  0  0
 11 14  2  0  0  0
 11 15  1  0  0  0
 15 12  2  0  0  0
 14 13  1  0  0  0
 36 38  1  0  0  0
 37 39  1  0  0  0
  4  5  1  0  0  0
  9 16  1  0  0  0
M  END
> <minimizedAffinity>
-11.85395

$$$$
3LJZ_LA3_A_801


 39 43  0  0  0  0  0  0  0  0999 V2000
   73.5546   86.5028   49.9385 C   0  0  0  0  0  0  0  0  0  0  0  0
   73.3162   85.0950   50.3848 C   0  0  0  0  0  0  0  0  0  0  0  0
   72.7175   84.8387   51.4215 O   0  0  0  0  0  0  0  0  0  0  0  0
   73.8363   84.1716   49.5114 N   0  0  0  0  0  0  0  0  0  0  0  0
   74.5341   84.4317   48.8674 H   0  0  0  0  0  0  0  0  0  0  0  0
   73.3428   82.8061   49.5507 C   0  0  0  0  0  0  0  0  0  0  0  0
   72.1993   82.4871   48.6471 C   0  0  0  0  0  0  0  0  0  0  0  0
   74.3364   81.7556   49.0934 C   0  0  0  0  0  0  0  0  0  0  0  0
   74.9365   82.2157   47.9008 O   0  0  0  0  0  0  0  0  0  0  0  0
   73.5421   80.5447   48.6596 C   0  0  0  0  0  0  0  0  0  0  0  0
   70.2984   81.4774   46.9526 C   0  0  0  0  0  0  0  0  0  0  0  0
   71.1286   83.2881   48.3062 C   0  0  0  0  0  0  0  0  0  0  0  0
   72.3189   81.2155   48.1566 C   0  0  0  0  0  0  0  0  0  0  0  0
   71.3788   80.6863   47.2987 C   0  0  0  0  0  0  0  0  0  0  0  0
   70.1782   82.7621   47.4509 C   0  0  0  0  0  0  0  0  0  0  0  0
   74.2496   82.3825   47.2366 H   0  0  0  0  0  0  0  0  0  0  0  0
   72.4741   86.9058   48.9489 C   0  0  0  0  0  0  0  0  0  0  0  0
   73.9594   89.0372   46.1688 C   0  0  0  0  0  0  0  0  0  0  0  0
   72.1771   89.2604   48.2371 C   0  0  0  0  0  0  0  0  0  0  0  0
   73.3264   90.2442   46.3671 C   0  0  0  0  0  0  0  0  0  0  0  0
   73.7046   87.9561   46.9824 C   0  0  0  0  0  0  0  0  0  0  0  0
   72.8071   88.0537   48.0338 C   0  0  0  0  0  0  0  0  0  0  0  0
   72.4330   90.3368   47.4182 C   0  0  0  0  0  0  0  0  0  0  0  0
   73.5975   91.3767   45.4951 C   0  0  0  0  0  0  0  0  0  0  0  0
   74.0185   93.5627   43.8664 C   0  0  0  0  0  0  0  0  0  0  0  0
   74.4544   91.2691   44.4131 C   0  0  0  0  0  0  0  0  0  0  0  0
   72.9743   92.5949   45.7275 C   0  0  0  0  0  0  0  0  0  0  0  0
   73.1699   93.7086   44.9308 C   0  0  0  0  0  0  0  0  0  0  0  0
   74.6457   92.3773   43.6175 C   0  0  0  0  0  0  0  0  0  0  0  0
   75.4581   92.4418   42.5115 O   0  0  0  0  0  0  0  0  0  0  0  0
   74.3401   94.5415   42.9632 O   0  0  0  0  0  0  0  0  0  0  0  0
   75.2335   93.8110   42.0974 C   0  0  0  0  0  0  0  0  0  0  0  0
   74.9113   86.4806   49.2629 C   0  0  0  0  0  0  0  0  0  0  0  0
   75.8646   87.2776   50.0794 C   0  0  0  0  0  0  0  0  0  0  0  0
   76.4931   88.2125   49.6168 O   0  0  0  0  0  0  0  0  0  0  0  0
   75.9409   86.8285   51.3762 N   0  0  0  0  0  0  0  0  0  0  0  0
   77.2621   86.9473   51.8708 O   0  0  0  0  0  0  0  0  0  0  0  0
   75.1806   86.4729   51.8908 H   0  0  0  0  0  0  0  0  0  0  0  0
   77.8326   87.3229   51.1821 H   0  0  0  0  0  0  0  0  0  0  0  0
 21 18  2  0  0  0
 20 18  1  0  0  0
 19 22  2  0  0  0
 19 23  1  0  0  0
 23 20  2  0  0  0
 20 24  1  0  0  0
 22 21  1  0  0  0
 17 22  1  0  0  0
 26 24  2  0  0  0
 24 27  1  0  0  0
  1 17  1  0  0  0
 29 25  2  0  0  0
 25 28  1  0  0  0
 25 31  1  0  0  0
 26 29  1  0  0  0
 27 28  2  0  0  0
 29 30  1  0  0  0
 30 32  1  0  0  0
 32 31  1  0  0  0
  2  1  1  0  0  0
 33  1  1  0  0  0
  3  2  2  0  0  0
  2  4  1  0  0  0
 33 34  1  0  0  0
 36 34  1  0  0  0
 34 35  2  0  0  0
 36 37  1  0  0  0
  6  4  1  0  0  0
  7  6  1  0  0  0
  6  8  1  0  0  0
 13  7  2  0  0  0
 12  7  1  0  0  0
 10  8  1  0  0  0
  8  9  1  0  0  0
 13 10  1  0  0  0
 11 14  2  0  0  0
 11 15  1  0  0  0
 15 12  2  0  0  0
 14 13  1  0  0  0
 36 38  1  0  0  0
 37 39  1  0  0  0
  4  5  1  0  0  0
  9 16  1  0  0  0
M  END
> <minimizedAffinity>
-11.77478

$$$$
3LJZ_LA3_A_801


 39 43  0  0  0  0  0  0  0  0999 V2000
   74.5279   85.1075   50.2049 C   0  0  0  0  0  0  0  0  0  0  0  0
   74.6639   83.8338   49.4323 C   0  0  0  0  0  0  0  0  0  0  0  0
   73.6871   83.1917   49.0684 O   0  0  0  0  0  0  0  0  0  0  0  0
   75.9750   83.4995   49.1968 N   0  0  0  0  0  0  0  0  0  0  0  0
   76.6950   83.8879   49.7444 H   0  0  0  0  0  0  0  0  0  0  0  0
   76.2846   82.5650   48.1288 C   0  0  0  0  0  0  0  0  0  0  0  0
   77.7092   82.5072   47.6894 C   0  0  0  0  0  0  0  0  0  0  0  0
   76.0594   81.1054   48.4735 C   0  0  0  0  0  0  0  0  0  0  0  0
   76.6153   80.8700   49.7500 O   0  0  0  0  0  0  0  0  0  0  0  0
   76.9227   80.2855   47.5418 C   0  0  0  0  0  0  0  0  0  0  0  0
   80.2414   81.9450   46.8086 C   0  0  0  0  0  0  0  0  0  0  0  0
   78.6165   83.5421   47.5889 C   0  0  0  0  0  0  0  0  0  0  0  0
   78.0550   81.2255   47.3587 C   0  0  0  0  0  0  0  0  0  0  0  0
   79.3238   80.9159   46.9179 C   0  0  0  0  0  0  0  0  0  0  0  0
   79.8895   83.2405   47.1417 C   0  0  0  0  0  0  0  0  0  0  0  0
   77.5571   81.1021   49.7404 H   0  0  0  0  0  0  0  0  0  0  0  0
   73.1905   85.7517   49.8801 C   0  0  0  0  0  0  0  0  0  0  0  0
   72.9581   89.2885   48.4962 C   0  0  0  0  0  0  0  0  0  0  0  0
   73.6605   86.7724   47.6718 C   0  0  0  0  0  0  0  0  0  0  0  0
   73.3889   89.1152   47.1997 C   0  0  0  0  0  0  0  0  0  0  0  0
   72.8844   88.2279   49.3711 C   0  0  0  0  0  0  0  0  0  0  0  0
   73.2345   86.9489   48.9687 C   0  0  0  0  0  0  0  0  0  0  0  0
   73.7356   87.8370   46.8026 C   0  0  0  0  0  0  0  0  0  0  0  0
   73.4708   90.2454   46.2873 C   0  0  0  0  0  0  0  0  0  0  0  0
   73.5308   92.4167   44.5873 C   0  0  0  0  0  0  0  0  0  0  0  0
   74.2646   90.2054   45.1539 C   0  0  0  0  0  0  0  0  0  0  0  0
   72.7257   91.3902   46.5337 C   0  0  0  0  0  0  0  0  0  0  0  0
   72.7396   92.4951   45.7018 C   0  0  0  0  0  0  0  0  0  0  0  0
   74.2751   91.3045   44.3234 C   0  0  0  0  0  0  0  0  0  0  0  0
   75.0032   91.4296   43.1652 O   0  0  0  0  0  0  0  0  0  0  0  0
   73.6787   93.3991   43.6438 O   0  0  0  0  0  0  0  0  0  0  0  0
   74.5949   92.7512   42.7372 C   0  0  0  0  0  0  0  0  0  0  0  0
   75.6688   85.9844   49.7284 C   0  0  0  0  0  0  0  0  0  0  0  0
   76.3041   86.6254   50.9101 C   0  0  0  0  0  0  0  0  0  0  0  0
   76.2465   87.8257   51.1079 O   0  0  0  0  0  0  0  0  0  0  0  0
   76.9457   85.7140   51.7142 N   0  0  0  0  0  0  0  0  0  0  0  0
   78.1238   86.2735   52.2650 O   0  0  0  0  0  0  0  0  0  0  0  0
   76.6293   84.7973   51.8840 H   0  0  0  0  0  0  0  0  0  0  0  0
   78.2244   87.1866   51.9534 H   0  0  0  0  0  0  0  0  0  0  0  0
 21 18  2  0  0  0
 20 18  1  0  0  0
 19 22  2  0  0  0
 19 23  1  0  0  0
 23 20  2  0  0  0
 20 24  1  0  0  0
 22 21  1  0  0  0
 17 22  1  0  0  0
 26 24  2  0  0  0
 24 27  1  0  0  0
  1 17  1  0  0  0
 29 25  2  0  0  0
 25 28  1  0  0  0
 25 31  1  0  0  0
 26 29  1  0  0  0
 27 28  2  0  0  0
 29 30  1  0  0  0
 30 32  1  0  0  0
 32 31  1  0  0  0
  2  1  1  0  0  0
 33  1  1  0  0  0
  3  2  2  0  0  0
  2  4  1  0  0  0
 33 34  1  0  0  0
 36 34  1  0  0  0
 34 35  2  0  0  0
 36 37  1  0  0  0
  6  4  1  0  0  0
  7  6  1  0  0  0
  6  8  1  0  0  0
 13  7  2  0  0  0
 12  7  1  0  0  0
 10  8  1  0  0  0
  8  9  1  0  0  0
 13 10  1  0  0  0
 11 14  2  0  0  0
 11 15  1  0  0  0
 15 12  2  0  0  0
 14 13  1  0  0  0
 36 38  1  0  0  0
 37 39  1  0  0  0
  4  5  1  0  0  0
  9 16  1  0  0  0
M  END
> <minimizedAffinity>
-9.74176

$$$$
3LJZ_LA3_A_801


 39 43  0  0  0  0  0  0  0  0999 V2000
   75.0610   93.2465   43.6699 C   0  0  0  0  0  0  0  0  0  0  0  0
   75.8906   93.0163   42.4465 C   0  0  0  0  0  0  0  0  0  0  0  0
   75.8542   91.9586   41.8312 O   0  0  0  0  0  0  0  0  0  0  0  0
   76.6624   94.1050   42.1225 N   0  0  0  0  0  0  0  0  0  0  0  0
   76.8591   94.7955   42.7961 H   0  0  0  0  0  0  0  0  0  0  0  0
   77.1844   94.2239   40.7722 C   0  0  0  0  0  0  0  0  0  0  0  0
   76.7194   95.4006   39.9817 C   0  0  0  0  0  0  0  0  0  0  0  0
   78.6846   94.4280   40.6843 C   0  0  0  0  0  0  0  0  0  0  0  0
   79.0448   95.4131   41.6296 O   0  0  0  0  0  0  0  0  0  0  0  0
   78.9719   95.0787   39.3503 C   0  0  0  0  0  0  0  0  0  0  0  0
   76.2951   97.5525   38.3406 C   0  0  0  0  0  0  0  0  0  0  0  0
   75.4727   95.9923   39.9805 C   0  0  0  0  0  0  0  0  0  0  0  0
   77.7281   95.8692   39.1850 C   0  0  0  0  0  0  0  0  0  0  0  0
   77.5415   96.9532   38.3545 C   0  0  0  0  0  0  0  0  0  0  0  0
   75.2759   97.0764   39.1455 C   0  0  0  0  0  0  0  0  0  0  0  0
   78.5538   96.2298   41.4487 H   0  0  0  0  0  0  0  0  0  0  0  0
   73.8303   92.3566   43.6172 C   0  0  0  0  0  0  0  0  0  0  0  0
   72.7374   90.7548   46.8909 C   0  0  0  0  0  0  0  0  0  0  0  0
   74.2849   90.1777   44.7055 C   0  0  0  0  0  0  0  0  0  0  0  0
   73.3636   89.5297   46.8308 C   0  0  0  0  0  0  0  0  0  0  0  0
   72.8732   91.6758   45.8765 C   0  0  0  0  0  0  0  0  0  0  0  0
   73.6539   91.3994   44.7654 C   0  0  0  0  0  0  0  0  0  0  0  0
   74.1425   89.2594   45.7209 C   0  0  0  0  0  0  0  0  0  0  0  0
   73.2052   88.5615   47.9050 C   0  0  0  0  0  0  0  0  0  0  0  0
   72.8461   86.7947   49.9925 C   0  0  0  0  0  0  0  0  0  0  0  0
   74.1584   87.5878   48.1491 C   0  0  0  0  0  0  0  0  0  0  0  0
   72.0877   88.6147   48.7265 C   0  0  0  0  0  0  0  0  0  0  0  0
   71.8791   87.7396   49.7772 C   0  0  0  0  0  0  0  0  0  0  0  0
   73.9524   86.7190   49.1981 C   0  0  0  0  0  0  0  0  0  0  0  0
   74.7937   85.7004   49.5750 O   0  0  0  0  0  0  0  0  0  0  0  0
   72.8257   85.8433   50.9783 O   0  0  0  0  0  0  0  0  0  0  0  0
   74.0762   85.1731   50.7168 C   0  0  0  0  0  0  0  0  0  0  0  0
   74.6622   94.7076   43.6097 C   0  0  0  0  0  0  0  0  0  0  0  0
   73.3434   94.8707   44.2770 C   0  0  0  0  0  0  0  0  0  0  0  0
   73.1842   94.6515   45.4643 O   0  0  0  0  0  0  0  0  0  0  0  0
   72.3652   95.2809   43.4029 N   0  0  0  0  0  0  0  0  0  0  0  0
   71.1222   94.6854   43.7265 O   0  0  0  0  0  0  0  0  0  0  0  0
   72.5093   95.9037   42.6542 H   0  0  0  0  0  0  0  0  0  0  0  0
   71.2304   94.1120   44.5013 H   0  0  0  0  0  0  0  0  0  0  0  0
 21 18  2  0  0  0
 20 18  1  0  0  0
 19 22  2  0  0  0
 19 23  1  0  0  0
 23 20  2  0  0  0
 20 24  1  0  0  0
 22 21  1  0  0  0
 17 22  1  0  0  0
 26 24  2  0  0  0
 24 27  1  0  0  0
  1 17  1  0  0  0
 29 25  2  0  0  0
 25 28  1  0  0  0
 25 31  1  0  0  0
 26 29  1  0  0  0
 27 28  2  0  0  0
 29 30  1  0  0  0
 30 32  1  0  0  0
 32 31  1  0  0  0
  2  1  1  0  0  0
 33  1  1  0  0  0
  3  2  2  0  0  0
  2  4  1  0  0  0
 33 34  1  0  0  0
 36 34  1  0  0  0
 34 35  2  0  0  0
 36 37  1  0  0  0
  6  4  1  0  0  0
  7  6  1  0  0  0
  6  8  1  0  0  0
 13  7  2  0  0  0
 12  7  1  0  0  0
 10  8  1  0  0  0
  8  9  1  0  0  0
 13 10  1  0  0  0
 11 14  2  0  0  0
 11 15  1  0  0  0
 15 12  2  0  0  0
 14 13  1  0  0  0
 36 38  1  0  0  0
 37 39  1  0  0  0
  4  5  1  0  0  0
  9 16  1  0  0  0
M  END
> <minimizedAffinity>
-9.68223

$$$$
3LJZ_LA3_A_801


 39 43  0  0  0  0  0  0  0  0999 V2000
   77.5285   94.8358   41.1170 C   0  0  0  0  0  0  0  0  0  0  0  0
   78.8383   94.3625   40.5708 C   0  0  0  0  0  0  0  0  0  0  0  0
   79.2566   94.7350   39.4822 O   0  0  0  0  0  0  0  0  0  0  0  0
   79.4785   93.4936   41.4200 N   0  0  0  0  0  0  0  0  0  0  0  0
   78.9766   93.0236   42.1246 H   0  0  0  0  0  0  0  0  0  0  0  0
   80.9064   93.2774   41.2644 C   0  0  0  0  0  0  0  0  0  0  0  0
   81.8019   94.1305   42.0987 C   0  0  0  0  0  0  0  0  0  0  0  0
   81.3925   91.9032   41.6828 C   0  0  0  0  0  0  0  0  0  0  0  0
   80.8011   91.5937   42.9271 O   0  0  0  0  0  0  0  0  0  0  0  0
   82.8660   92.0249   41.9983 C   0  0  0  0  0  0  0  0  0  0  0  0
   83.7263   95.3203   43.6433 C   0  0  0  0  0  0  0  0  0  0  0  0
   81.6356   95.4533   42.4552 C   0  0  0  0  0  0  0  0  0  0  0  0
   82.8993   93.4196   42.5012 C   0  0  0  0  0  0  0  0  0  0  0  0
   83.8788   93.9937   43.2827 C   0  0  0  0  0  0  0  0  0  0  0  0
   82.6170   96.0379   43.2339 C   0  0  0  0  0  0  0  0  0  0  0  0
   81.0347   92.2768   43.5750 H   0  0  0  0  0  0  0  0  0  0  0  0
   76.4354   93.8582   40.7187 C   0  0  0  0  0  0  0  0  0  0  0  0
   75.4942   91.2052   43.2786 C   0  0  0  0  0  0  0  0  0  0  0  0
   74.7595   93.7386   42.5397 C   0  0  0  0  0  0  0  0  0  0  0  0
   74.4872   91.8309   43.9793 C   0  0  0  0  0  0  0  0  0  0  0  0
   76.1306   91.8325   42.2312 C   0  0  0  0  0  0  0  0  0  0  0  0
   75.7692   93.1131   41.8442 C   0  0  0  0  0  0  0  0  0  0  0  0
   74.1292   93.1079   43.5884 C   0  0  0  0  0  0  0  0  0  0  0  0
   73.8283   91.1610   45.0899 C   0  0  0  0  0  0  0  0  0  0  0  0
   72.5637   89.9833   47.2398 C   0  0  0  0  0  0  0  0  0  0  0  0
   74.1341   89.8550   45.4324 C   0  0  0  0  0  0  0  0  0  0  0  0
   72.8836   91.8400   45.8468 C   0  0  0  0  0  0  0  0  0  0  0  0
   72.2306   91.2737   46.9266 C   0  0  0  0  0  0  0  0  0  0  0  0
   73.4866   89.2927   46.5105 C   0  0  0  0  0  0  0  0  0  0  0  0
   73.6707   88.0154   46.9817 O   0  0  0  0  0  0  0  0  0  0  0  0
   72.0334   89.2503   48.2688 O   0  0  0  0  0  0  0  0  0  0  0  0
   72.7609   88.0149   48.1080 C   0  0  0  0  0  0  0  0  0  0  0  0
   77.2937   96.1865   40.4704 C   0  0  0  0  0  0  0  0  0  0  0  0
   77.8370   97.2443   41.3630 C   0  0  0  0  0  0  0  0  0  0  0  0
   78.2750   98.2960   40.9328 O   0  0  0  0  0  0  0  0  0  0  0  0
   77.7848   96.8841   42.6884 N   0  0  0  0  0  0  0  0  0  0  0  0
   78.9134   97.3772   43.3866 O   0  0  0  0  0  0  0  0  0  0  0  0
   77.0614   96.3554   43.0964 H   0  0  0  0  0  0  0  0  0  0  0  0
   79.4842   97.8666   42.7738 H   0  0  0  0  0  0  0  0  0  0  0  0
 21 18  2  0  0  0
 20 18  1  0  0  0
 19 22  2  0  0  0
 19 23  1  0  0  0
 23 20  2  0  0  0
 20 24  1  0  0  0
 22 21  1  0  0  0
 17 22  1  0  0  0
 26 24  2  0  0  0
 24 27  1  0  0  0
  1 17  1  0  0  0
 29 25  2  0  0  0
 25 28  1  0  0  0
 25 31  1  0  0  0
 26 29  1  0  0  0
 27 28  2  0  0  0
 29 30  1  0  0  0
 30 32  1  0  0  0
 32 31  1  0  0  0
  2  1  1  0  0  0
 33  1  1  0  0  0
  3  2  2  0  0  0
  2  4  1  0  0  0
 33 34  1  0  0  0
 36 34  1  0  0  0
 34 35  2  0  0  0
 36 37  1  0  0  0
  6  4  1  0  0  0
  7  6  1  0  0  0
  6  8  1  0  0  0
 13  7  2  0  0  0
 12  7  1  0  0  0
 10  8  1  0  0  0
  8  9  1  0  0  0
 13 10  1  0  0  0
 11 14  2  0  0  0
 11 15  1  0  0  0
 15 12  2  0  0  0
 14 13  1  0  0  0
 36 38  1  0  0  0
 37 39  1  0  0  0
  4  5  1  0  0  0
  9 16  1  0  0  0
M  END
> <minimizedAffinity>
-9.65460

$$$$
