6CZC_TTP_A_302
  RCSB PDB11171803143D
Coordinates from PDB:6CZC:A:302 Model:1 without hydrogens
 29 30  0  0  0  0            999 V2000
   -6.2090  -33.9510   21.4980   P 0  0  0  0  0  0  0  0  0  0  0  0
   -6.3620  -33.9780   19.9860   O 0  0  0  0  0  0  0  0  0  0  0  0
   -6.2890  -32.5320   21.9990   O 0  0  0  0  0  0  0  0  0  0  0  0
   -4.7730  -34.4940   21.9680   O 0  0  0  0  0  0  0  0  0  0  0  0
   -4.0510  -35.7520   21.2710   P 0  0  0  0  0  0  0  0  0  0  0  0
   -4.7550  -36.1700   19.9830   O 0  0  0  0  0  0  0  0  0  0  0  0
   -3.9140  -36.9090   22.2310   O 0  0  0  0  0  0  0  0  0  0  0  0
   -2.5960  -35.1500   21.0440   O 0  0  0  0  0  0  0  0  0  0  0  0
   -2.4280  -33.8460   20.1400   P 0  0  0  0  0  0  0  0  0  0  0  0
   -1.2800  -34.1020   19.1950   O 0  0  0  0  0  0  0  0  0  0  0  0
   -3.7040  -33.5920   19.3860   O 0  0  0  0  0  0  0  0  0  0  0  0
   -2.1690  -32.6400   21.0050   O 0  0  0  0  0  0  0  0  0  0  0  0
   -7.3080  -34.9680   22.1490   O 0  0  0  0  0  0  0  0  0  0  0  0
   -8.2220  -35.6310   21.2350   C 0  0  0  0  0  0  0  0  0  0  0  0
   -9.0410  -36.8430   21.7160   C 0  0  0  0  0  0  0  0  0  0  0  0
   -8.3630  -38.1160   21.6880   O 0  0  0  0  0  0  0  0  0  0  0  0
   -9.6010  -36.7340   23.1260   C 0  0  0  0  0  0  0  0  0  0  0  0
  -10.9150  -36.1810   23.1080   O 0  0  0  0  0  0  0  0  0  0  0  0
   -9.7280  -38.1580   23.6280   C 0  0  0  0  0  0  0  0  0  0  0  0
   -9.1580  -39.0080   22.4950   C 0  0  0  0  0  0  0  0  0  0  0  0
   -8.4640  -40.1820   23.0530   N 0  0  0  0  0  0  0  0  0  0  0  0
   -8.3870  -41.3910   22.3110   C 0  0  0  0  0  0  0  0  0  0  0  0
   -8.8920  -41.4640   21.1670   O 0  0  0  0  0  0  0  0  0  0  0  0
   -7.7750  -42.4770   22.8070   N 0  0  0  0  0  0  0  0  0  0  0  0
   -7.2210  -42.4630   24.0230   C 0  0  0  0  0  0  0  0  0  0  0  0
   -6.6490  -43.4820   24.4760   O 0  0  0  0  0  0  0  0  0  0  0  0
   -7.2910  -41.2180   24.8280   C 0  0  0  0  0  0  0  0  0  0  0  0
   -6.6770  -41.1650   26.2030   C 0  0  0  0  0  0  0  0  0  0  0  0
   -7.9340  -40.1110   24.2850   C 0  0  0  0  0  0  0  0  0  0  0  0
  1  2  2  0  0  0  0
  1  3  1  0  0  0  0
  1  4  1  0  0  0  0
  1 13  1  0  0  0  0
  4  5  1  0  0  0  0
  5  6  2  0  0  0  0
  5  7  1  0  0  0  0
  5  8  1  0  0  0  0
  8  9  1  0  0  0  0
  9 10  2  0  0  0  0
  9 11  1  0  0  0  0
  9 12  1  0  0  0  0
 13 14  1  0  0  0  0
 14 15  1  0  0  0  0
 15 16  1  0  0  0  0
 15 17  1  0  0  0  0
 16 20  1  0  0  0  0
 17 18  1  0  0  0  0
 17 19  1  0  0  0  0
 19 20  1  0  0  0  0
 20 21  1  0  0  0  0
 21 22  1  0  0  0  0
 21 29  1  0  0  0  0
 22 23  2  0  0  0  0
 22 24  1  0  0  0  0
 24 25  1  0  0  0  0
 25 26  2  0  0  0  0
 25 27  1  0  0  0  0
 27 28  1  0  0  0  0
 27 29  2  0  0  0  0
A    1
PA
A    2
O1A
A    3
O2A
A    4
O3A
A    5
PB
A    6
O1B
A    7
O2B
A    8
O3B
A    9
PG
A   10
O1G
A   11
O2G
A   12
O3G
A   13
O5'
A   14
C5'
A   15
C4'
A   16
O4'
A   17
C3'
A   18
O3'
A   19
C2'
A   20
C1'
A   21
N1
A   22
C2
A   23
O2
A   24
N3
A   25
C4
A   26
O4
A   27
C5
A   28
C5M
A   29
C6
M  END
>  <InstanceId>
6CZC_TTP_A_302

>  <ChemCompId>
TTP

>  <PdbId>
6CZC

>  <ChainId>
A

>  <ResidueNumber>
302

>  <InsertionCode>


>  <Model>
1

>  <AltIds>


>  <MissingHeavyAtoms>
0

>  <ObservedFormula>
C10 N2 O14 P3

>  <Name>
THYMIDINE-5'-TRIPHOSPHATE

>  <SystematicName>
[(2R,3S,5R)-3-hydroxy-5-(5-methyl-2,4-dioxo-pyrimidin-1-yl)oxolan-2-yl]methyl (hydroxy-phosphonooxy-phosphoryl) hydrogen phosphate

>  <Synonyms>


>  <Type>
NON-POLYMER

>  <Formula>
C10 H17 N2 O14 P3

>  <MolecularWeight>
482.168

>  <ModifiedDate>
2011-06-04

>  <Parent>


>  <OneLetterCode>


>  <SubcomponentList>


>  <AmbiguousFlag>
N

>  <InChI>
InChI=1S/C10H17N2O14P3/c1-5-3-12(10(15)11-9(5)14)8-2-6(13)7(24-8)4-23-28(19,20)26-29(21,22)25-27(16,17)18/h3,6-8,13H,2,4H2,1H3,(H,19,20)(H,21,22)(H,11,14,15)(H2,16,17,18)/t6-,7+,8+/m0/s1

>  <InChIKey>
NHVNXKFIZYSCEB-XLPZGREQSA-N

>  <SMILES>
CC1=CN(C(=O)NC1=O)[C@H]2C[C@@H]([C@H](O2)CO[P@](=O)(O)O[P@@](=O)(O)OP(=O)(O)O)O

$$$$
