3PD9_HA5_A_260


 16 17  0  0  0  0  0  0  0  0999 V2000
   56.4740   28.6871   47.0329 N   0  0  0  0  0  0  0  0  0  0  0  0
   55.7162   27.5000   46.6025 O   0  0  0  0  0  0  0  0  0  0  0  0
   56.2750   27.0800   45.4420 C   0  0  0  0  0  0  0  0  0  0  0  0
   55.7494   25.8927   44.7132 C   0  0  0  0  0  0  0  0  0  0  0  0
   56.1168   26.1278   43.2694 N   0  0  0  0  0  0  0  0  0  0  0  0
   57.6206   26.2567   43.1903 C   0  0  0  0  0  0  0  0  0  0  0  0
   58.0630   27.6234   43.7727 C   0  0  0  0  0  0  0  0  0  0  0  0
   57.2972   27.8623   45.0373 C   0  0  0  0  0  0  0  0  0  0  0  0
   57.4172   28.8938   46.0710 C   0  0  0  0  0  0  0  0  0  0  0  0
   58.2462   29.8437   46.0848 O   0  0  0  0  0  0  0  0  0  0  0  0
   55.6770   26.9850   42.9345 H   0  0  0  0  0  0  0  0  0  0  0  0
   58.8709   29.9305   45.3918 H   0  0  0  0  0  0  0  0  0  0  0  0
   58.0785   25.9537   41.7428 C   0  0  0  0  0  0  0  0  0  0  0  0
   59.2865   26.1659   41.5532 O   0  0  0  0  0  0  0  0  0  0  0  0
   57.2069   25.5309   40.9346 O   0  0  0  0  0  0  0  0  0  0  0  0
   59.8219   26.4837   42.2534 H   0  0  0  0  0  0  0  0  0  0  0  0
  2  1  1  0  0  0
  3  2  1  0  0  0
  4  3  1  0  0  0
  5  4  1  0  0  0
  6  5  1  0  0  0
  6  7  1  0  0  0
 13  6  1  0  0  0
 14 13  1  0  0  0
 15 13  2  0  0  0
  7  8  1  0  0  0
  8  3  2  0  0  0
  8  9  1  0  0  0
  9  1  2  0  0  0
  9 10  1  0  0  0
  5 11  1  0  0  0
 14 16  1  0  0  0
 10 12  1  0  0  0
M  END
> <minimizedAffinity>
-8.39130

$$$$
3PD9_HA5_A_260


 16 17  0  0  0  0  0  0  0  0999 V2000
   55.4271   28.2485   48.2278 N   0  0  0  0  0  0  0  0  0  0  0  0
   56.5480   29.0089   47.6497 O   0  0  0  0  0  0  0  0  0  0  0  0
   56.8773   28.3956   46.4875 C   0  0  0  0  0  0  0  0  0  0  0  0
   57.9882   28.8984   45.6329 C   0  0  0  0  0  0  0  0  0  0  0  0
   58.4760   27.6883   44.8763 N   0  0  0  0  0  0  0  0  0  0  0  0
   57.3135   27.1414   44.0801 C   0  0  0  0  0  0  0  0  0  0  0  0
   56.3098   26.4384   45.0294 C   0  0  0  0  0  0  0  0  0  0  0  0
   56.1254   27.3034   46.2379 C   0  0  0  0  0  0  0  0  0  0  0  0
   55.1934   27.2193   47.3654 C   0  0  0  0  0  0  0  0  0  0  0  0
   54.3124   26.3345   47.5410 O   0  0  0  0  0  0  0  0  0  0  0  0
   58.8111   26.9816   45.5311 H   0  0  0  0  0  0  0  0  0  0  0  0
   54.2017   25.6516   46.9090 H   0  0  0  0  0  0  0  0  0  0  0  0
   57.8596   26.2848   42.9119 C   0  0  0  0  0  0  0  0  0  0  0  0
   59.0916   26.3570   42.7815 O   0  0  0  0  0  0  0  0  0  0  0  0
   57.0245   25.6197   42.2398 O   0  0  0  0  0  0  0  0  0  0  0  0
   59.5931   26.8977   43.3596 H   0  0  0  0  0  0  0  0  0  0  0  0
  2  1  1  0  0  0
  3  2  1  0  0  0
  4  3  1  0  0  0
  5  4  1  0  0  0
  6  5  1  0  0  0
  6  7  1  0  0  0
 13  6  1  0  0  0
 14 13  1  0  0  0
 15 13  2  0  0  0
  7  8  1  0  0  0
  8  3  2  0  0  0
  8  9  1  0  0  0
  9  1  2  0  0  0
  9 10  1  0  0  0
  5 11  1  0  0  0
 14 16  1  0  0  0
 10 12  1  0  0  0
M  END
> <minimizedAffinity>
-8.19758

$$$$
3PD9_HA5_A_260


 16 17  0  0  0  0  0  0  0  0999 V2000
   57.2372   25.8272   42.2970 N   0  0  0  0  0  0  0  0  0  0  0  0
   56.0034   25.6944   43.0900 O   0  0  0  0  0  0  0  0  0  0  0  0
   56.2079   26.3705   44.2461 C   0  0  0  0  0  0  0  0  0  0  0  0
   55.1581   26.4406   45.2996 C   0  0  0  0  0  0  0  0  0  0  0  0
   55.9134   26.6428   46.5894 N   0  0  0  0  0  0  0  0  0  0  0  0
   56.7138   27.9185   46.4611 C   0  0  0  0  0  0  0  0  0  0  0  0
   57.9194   27.6904   45.5140 C   0  0  0  0  0  0  0  0  0  0  0  0
   57.4401   26.9146   44.3260 C   0  0  0  0  0  0  0  0  0  0  0  0
   58.0938   26.5593   43.0639 C   0  0  0  0  0  0  0  0  0  0  0  0
   59.2698   26.8596   42.7220 O   0  0  0  0  0  0  0  0  0  0  0  0
   56.5402   25.8547   46.7515 H   0  0  0  0  0  0  0  0  0  0  0  0
   59.8095   27.3667   43.2960 H   0  0  0  0  0  0  0  0  0  0  0  0
   57.0509   28.4479   47.8763 C   0  0  0  0  0  0  0  0  0  0  0  0
   56.1719   29.1856   48.3491 O   0  0  0  0  0  0  0  0  0  0  0  0
   58.1446   28.0824   48.3878 O   0  0  0  0  0  0  0  0  0  0  0  0
   55.4009   29.3742   47.8511 H   0  0  0  0  0  0  0  0  0  0  0  0
  2  1  1  0  0  0
  3  2  1  0  0  0
  4  3  1  0  0  0
  5  4  1  0  0  0
  6  5  1  0  0  0
  6  7  1  0  0  0
 13  6  1  0  0  0
 14 13  1  0  0  0
 15 13  2  0  0  0
  7  8  1  0  0  0
  8  3  2  0  0  0
  8  9  1  0  0  0
  9  1  2  0  0  0
  9 10  1  0  0  0
  5 11  1  0  0  0
 14 16  1  0  0  0
 10 12  1  0  0  0
M  END
> <minimizedAffinity>
-8.13854

$$$$
3PD9_HA5_A_260


 16 17  0  0  0  0  0  0  0  0999 V2000
   56.2470   27.6638   47.1672 N   0  0  0  0  0  0  0  0  0  0  0  0
   57.5222   28.1892   46.6511 O   0  0  0  0  0  0  0  0  0  0  0  0
   57.6541   27.7207   45.3868 C   0  0  0  0  0  0  0  0  0  0  0  0
   58.8455   28.0520   44.5573 C   0  0  0  0  0  0  0  0  0  0  0  0
   58.9750   26.9054   43.5861 N   0  0  0  0  0  0  0  0  0  0  0  0
   57.6950   26.8306   42.7859 C   0  0  0  0  0  0  0  0  0  0  0  0
   56.5542   26.2647   43.6696 C   0  0  0  0  0  0  0  0  0  0  0  0
   56.6306   26.9257   45.0112 C   0  0  0  0  0  0  0  0  0  0  0  0
   55.7293   26.8975   46.1660 C   0  0  0  0  0  0  0  0  0  0  0  0
   54.6446   26.2601   46.2508 O   0  0  0  0  0  0  0  0  0  0  0  0
   59.1170   26.0333   44.0958 H   0  0  0  0  0  0  0  0  0  0  0  0
   54.3428   25.7503   45.5249 H   0  0  0  0  0  0  0  0  0  0  0  0
   57.9695   26.0750   41.4628 C   0  0  0  0  0  0  0  0  0  0  0  0
   59.1608   26.1050   41.1160 O   0  0  0  0  0  0  0  0  0  0  0  0
   56.9881   25.5206   40.8964 O   0  0  0  0  0  0  0  0  0  0  0  0
   59.7900   26.5604   41.6401 H   0  0  0  0  0  0  0  0  0  0  0  0
  2  1  1  0  0  0
  3  2  1  0  0  0
  4  3  1  0  0  0
  5  4  1  0  0  0
  6  5  1  0  0  0
  6  7  1  0  0  0
 13  6  1  0  0  0
 14 13  1  0  0  0
 15 13  2  0  0  0
  7  8  1  0  0  0
  8  3  2  0  0  0
  8  9  1  0  0  0
  9  1  2  0  0  0
  9 10  1  0  0  0
  5 11  1  0  0  0
 14 16  1  0  0  0
 10 12  1  0  0  0
M  END
> <minimizedAffinity>
-7.94644

$$$$
3PD9_HA5_A_260


 16 17  0  0  0  0  0  0  0  0999 V2000
   58.6966   26.9387   42.9581 N   0  0  0  0  0  0  0  0  0  0  0  0
   59.0228   27.6261   44.2190 O   0  0  0  0  0  0  0  0  0  0  0  0
   57.9647   27.4471   45.0460 C   0  0  0  0  0  0  0  0  0  0  0  0
   57.9483   28.0213   46.4198 C   0  0  0  0  0  0  0  0  0  0  0  0
   56.4878   28.2080   46.7466 N   0  0  0  0  0  0  0  0  0  0  0  0
   55.8181   26.8559   46.6587 C   0  0  0  0  0  0  0  0  0  0  0  0
   55.6764   26.4342   45.1738 C   0  0  0  0  0  0  0  0  0  0  0  0
   56.9641   26.7447   44.4751 C   0  0  0  0  0  0  0  0  0  0  0  0
   57.4475   26.4213   43.1303 C   0  0  0  0  0  0  0  0  0  0  0  0
   56.8196   25.7778   42.2462 O   0  0  0  0  0  0  0  0  0  0  0  0
   56.0621   28.8501   46.0782 H   0  0  0  0  0  0  0  0  0  0  0  0
   55.9618   25.4474   42.4277 H   0  0  0  0  0  0  0  0  0  0  0  0
   54.5095   26.8855   47.4855 C   0  0  0  0  0  0  0  0  0  0  0  0
   54.5470   27.6780   48.4398 O   0  0  0  0  0  0  0  0  0  0  0  0
   53.5699   26.1307   47.1126 O   0  0  0  0  0  0  0  0  0  0  0  0
   55.3210   28.1811   48.6008 H   0  0  0  0  0  0  0  0  0  0  0  0
  2  1  1  0  0  0
  3  2  1  0  0  0
  4  3  1  0  0  0
  5  4  1  0  0  0
  6  5  1  0  0  0
  6  7  1  0  0  0
 13  6  1  0  0  0
 14 13  1  0  0  0
 15 13  2  0  0  0
  7  8  1  0  0  0
  8  3  2  0  0  0
  8  9  1  0  0  0
  9  1  2  0  0  0
  9 10  1  0  0  0
  5 11  1  0  0  0
 14 16  1  0  0  0
 10 12  1  0  0  0
M  END
> <minimizedAffinity>
-7.74318

$$$$
3PD9_HA5_A_260


 16 17  0  0  0  0  0  0  0  0999 V2000
   54.8798   27.7566   47.8050 N   0  0  0  0  0  0  0  0  0  0  0  0
   54.2512   26.9016   46.7839 O   0  0  0  0  0  0  0  0  0  0  0  0
   55.1514   26.7660   45.7805 C   0  0  0  0  0  0  0  0  0  0  0  0
   54.8432   25.9623   44.5655 C   0  0  0  0  0  0  0  0  0  0  0  0
   55.6989   26.5592   43.4763 N   0  0  0  0  0  0  0  0  0  0  0  0
   57.1423   26.4509   43.9110 C   0  0  0  0  0  0  0  0  0  0  0  0
   57.4332   27.4812   45.0320 C   0  0  0  0  0  0  0  0  0  0  0  0
   56.2929   27.4503   46.0023 C   0  0  0  0  0  0  0  0  0  0  0  0
   56.1071   28.0836   47.3104 C   0  0  0  0  0  0  0  0  0  0  0  0
   56.9328   28.8306   47.9021 O   0  0  0  0  0  0  0  0  0  0  0  0
   55.4508   27.5388   43.3378 H   0  0  0  0  0  0  0  0  0  0  0  0
   57.7620   29.0172   47.5077 H   0  0  0  0  0  0  0  0  0  0  0  0
   58.0535   26.5290   42.6618 C   0  0  0  0  0  0  0  0  0  0  0  0
   59.1836   26.9816   42.9035 O   0  0  0  0  0  0  0  0  0  0  0  0
   57.5713   26.1324   41.5657 O   0  0  0  0  0  0  0  0  0  0  0  0
   59.4080   27.2404   43.7756 H   0  0  0  0  0  0  0  0  0  0  0  0
  2  1  1  0  0  0
  3  2  1  0  0  0
  4  3  1  0  0  0
  5  4  1  0  0  0
  6  5  1  0  0  0
  6  7  1  0  0  0
 13  6  1  0  0  0
 14 13  1  0  0  0
 15 13  2  0  0  0
  7  8  1  0  0  0
  8  3  2  0  0  0
  8  9  1  0  0  0
  9  1  2  0  0  0
  9 10  1  0  0  0
  5 11  1  0  0  0
 14 16  1  0  0  0
 10 12  1  0  0  0
M  END
> <minimizedAffinity>
-7.22824

$$$$
3PD9_HA5_A_260


 16 17  0  0  0  0  0  0  0  0999 V2000
   56.6184   25.9275   42.8091 N   0  0  0  0  0  0  0  0  0  0  0  0
   57.8478   26.7009   43.0522 O   0  0  0  0  0  0  0  0  0  0  0  0
   57.7281   27.2463   44.2866 C   0  0  0  0  0  0  0  0  0  0  0  0
   58.7981   28.1079   44.8609 C   0  0  0  0  0  0  0  0  0  0  0  0
   58.0877   29.0135   45.8357 N   0  0  0  0  0  0  0  0  0  0  0  0
   57.4089   28.1411   46.8665 C   0  0  0  0  0  0  0  0  0  0  0  0
   56.1709   27.4511   46.2389 C   0  0  0  0  0  0  0  0  0  0  0  0
   56.5542   26.9482   44.8814 C   0  0  0  0  0  0  0  0  0  0  0  0
   55.8480   26.0968   43.9207 C   0  0  0  0  0  0  0  0  0  0  0  0
   54.6998   25.5972   44.0692 O   0  0  0  0  0  0  0  0  0  0  0  0
   57.3923   29.5749   45.3442 H   0  0  0  0  0  0  0  0  0  0  0  0
   54.2203   25.7516   44.8593 H   0  0  0  0  0  0  0  0  0  0  0  0
   57.1479   28.9771   48.1431 C   0  0  0  0  0  0  0  0  0  0  0  0
   58.1824   29.2584   48.7683 O   0  0  0  0  0  0  0  0  0  0  0  0
   55.9515   29.2808   48.4037 O   0  0  0  0  0  0  0  0  0  0  0  0
   59.0143   28.9626   48.4547 H   0  0  0  0  0  0  0  0  0  0  0  0
  2  1  1  0  0  0
  3  2  1  0  0  0
  4  3  1  0  0  0
  5  4  1  0  0  0
  6  5  1  0  0  0
  6  7  1  0  0  0
 13  6  1  0  0  0
 14 13  1  0  0  0
 15 13  2  0  0  0
  7  8  1  0  0  0
  8  3  2  0  0  0
  8  9  1  0  0  0
  9  1  2  0  0  0
  9 10  1  0  0  0
  5 11  1  0  0  0
 14 16  1  0  0  0
 10 12  1  0  0  0
M  END
> <minimizedAffinity>
-7.09194

$$$$
3PD9_HA5_A_260


 16 17  0  0  0  0  0  0  0  0999 V2000
   58.8092   26.2165   41.1187 N   0  0  0  0  0  0  0  0  0  0  0  0
   59.4507   26.9215   42.2413 O   0  0  0  0  0  0  0  0  0  0  0  0
   58.5410   26.9674   43.2442 C   0  0  0  0  0  0  0  0  0  0  0  0
   58.8524   27.6229   44.5444 C   0  0  0  0  0  0  0  0  0  0  0  0
   57.5163   28.0616   45.0894 N   0  0  0  0  0  0  0  0  0  0  0  0
   56.6504   26.8314   45.2356 C   0  0  0  0  0  0  0  0  0  0  0  0
   56.1880   26.3442   43.8386 C   0  0  0  0  0  0  0  0  0  0  0  0
   57.3631   26.3994   42.9119 C   0  0  0  0  0  0  0  0  0  0  0  0
   57.5481   25.9178   41.5406 C   0  0  0  0  0  0  0  0  0  0  0  0
   56.6861   25.3282   40.8339 O   0  0  0  0  0  0  0  0  0  0  0  0
   57.0779   28.7198   44.4451 H   0  0  0  0  0  0  0  0  0  0  0  0
   55.8349   25.1517   41.1835 H   0  0  0  0  0  0  0  0  0  0  0  0
   55.5275   27.1227   46.2608 C   0  0  0  0  0  0  0  0  0  0  0  0
   54.5441   26.3752   46.1405 O   0  0  0  0  0  0  0  0  0  0  0  0
   55.7241   28.0544   47.0882 O   0  0  0  0  0  0  0  0  0  0  0  0
   54.5339   25.7182   45.4725 H   0  0  0  0  0  0  0  0  0  0  0  0
  2  1  1  0  0  0
  3  2  1  0  0  0
  4  3  1  0  0  0
  5  4  1  0  0  0
  6  5  1  0  0  0
  6  7  1  0  0  0
 13  6  1  0  0  0
 14 13  1  0  0  0
 15 13  2  0  0  0
  7  8  1  0  0  0
  8  3  2  0  0  0
  8  9  1  0  0  0
  9  1  2  0  0  0
  9 10  1  0  0  0
  5 11  1  0  0  0
 14 16  1  0  0  0
 10 12  1  0  0  0
M  END
> <minimizedAffinity>
-6.54254

$$$$
