4UFM_DGJ_A_1001


 16 16  0  0  0  0  0  0  0  0999 V2000
   77.1641   88.4591   18.0027 C   0  0  0  0  0  0  0  0  0  0  0  0
   76.4955   88.8512   19.3102 C   0  0  0  0  0  0  0  0  0  0  0  0
   75.4912   89.8370   19.0662 O   0  0  0  0  0  0  0  0  0  0  0  0
   77.5270   89.3821   20.2926 C   0  0  0  0  0  0  0  0  0  0  0  0
   77.0460   89.2674   21.6268 O   0  0  0  0  0  0  0  0  0  0  0  0
   78.8477   88.6434   20.1403 C   0  0  0  0  0  0  0  0  0  0  0  0
   78.6630   87.2523   20.3800 O   0  0  0  0  0  0  0  0  0  0  0  0
   79.4444   88.8797   18.7531 C   0  0  0  0  0  0  0  0  0  0  0  0
   78.4226   89.1635   17.7359 N   0  0  0  0  0  0  0  0  0  0  0  0
   75.9006   90.6266   18.6790 H   0  0  0  0  0  0  0  0  0  0  0  0
   76.8902   88.3330   21.8352 H   0  0  0  0  0  0  0  0  0  0  0  0
   78.0399   86.8921   19.7297 H   0  0  0  0  0  0  0  0  0  0  0  0
   78.2410   90.1672   17.7239 H   0  0  0  0  0  0  0  0  0  0  0  0
   80.3549   87.7563   18.2907 C   0  0  0  0  0  0  0  0  0  0  0  0
   80.5862   87.8597   16.8925 O   0  0  0  0  0  0  0  0  0  0  0  0
   79.7418   87.7953   16.4195 H   0  0  0  0  0  0  0  0  0  0  0  0
  9  1  1  0  0  0
  2  1  1  0  0  0
  4  2  1  0  0  0
  2  3  1  0  0  0
  6  4  1  0  0  0
  5  4  1  0  0  0
  7  6  1  0  0  0
  6  8  1  0  0  0
 14  8  1  0  0  0
  8  9  1  0  0  0
 14 15  1  0  0  0
  3 10  1  0  0  0
  5 11  1  0  0  0
  7 12  1  0  0  0
  9 13  1  0  0  0
 15 16  1  0  0  0
M  END
> <minimizedAffinity>
-7.61330

$$$$
4UFM_DGJ_A_1001


 16 16  0  0  0  0  0  0  0  0999 V2000
   78.6489   88.6742   20.2874 C   0  0  0  0  0  0  0  0  0  0  0  0
   77.4627   89.6238   20.2474 C   0  0  0  0  0  0  0  0  0  0  0  0
   77.0496   89.9419   21.5771 O   0  0  0  0  0  0  0  0  0  0  0  0
   76.3123   88.9999   19.4737 C   0  0  0  0  0  0  0  0  0  0  0  0
   75.4331   90.0097   18.9923 O   0  0  0  0  0  0  0  0  0  0  0  0
   76.8325   88.1564   18.3199 C   0  0  0  0  0  0  0  0  0  0  0  0
   77.5982   88.9611   17.4293 O   0  0  0  0  0  0  0  0  0  0  0  0
   77.6620   86.9817   18.8378 C   0  0  0  0  0  0  0  0  0  0  0  0
   78.2922   87.2597   20.1359 N   0  0  0  0  0  0  0  0  0  0  0  0
   76.7809   89.1302   22.0352 H   0  0  0  0  0  0  0  0  0  0  0  0
   75.9144   90.5964   18.3881 H   0  0  0  0  0  0  0  0  0  0  0  0
   78.3615   89.3292   17.9013 H   0  0  0  0  0  0  0  0  0  0  0  0
   77.6414   87.0037   20.8784 H   0  0  0  0  0  0  0  0  0  0  0  0
   78.6962   86.4899   17.8410 C   0  0  0  0  0  0  0  0  0  0  0  0
   78.0663   86.1417   16.6159 O   0  0  0  0  0  0  0  0  0  0  0  0
   77.4205   85.4353   16.7737 H   0  0  0  0  0  0  0  0  0  0  0  0
  9  1  1  0  0  0
  2  1  1  0  0  0
  4  2  1  0  0  0
  2  3  1  0  0  0
  6  4  1  0  0  0
  5  4  1  0  0  0
  7  6  1  0  0  0
  6  8  1  0  0  0
 14  8  1  0  0  0
  8  9  1  0  0  0
 14 15  1  0  0  0
  3 10  1  0  0  0
  5 11  1  0  0  0
  7 12  1  0  0  0
  9 13  1  0  0  0
 15 16  1  0  0  0
M  END
> <minimizedAffinity>
-6.74608

$$$$
4UFM_DGJ_A_1001


 16 16  0  0  0  0  0  0  0  0999 V2000
   77.4821   86.9835   18.5882 C   0  0  0  0  0  0  0  0  0  0  0  0
   78.5636   86.8098   17.5344 C   0  0  0  0  0  0  0  0  0  0  0  0
   78.7583   85.4214   17.2618 O   0  0  0  0  0  0  0  0  0  0  0  0
   79.8643   87.4420   18.0032 C   0  0  0  0  0  0  0  0  0  0  0  0
   80.6975   87.7453   16.8903 O   0  0  0  0  0  0  0  0  0  0  0  0
   79.5916   88.6967   18.8183 C   0  0  0  0  0  0  0  0  0  0  0  0
   78.8792   89.6472   18.0335 O   0  0  0  0  0  0  0  0  0  0  0  0
   78.8187   88.3582   20.0927 C   0  0  0  0  0  0  0  0  0  0  0  0
   77.9932   87.1505   19.9527 N   0  0  0  0  0  0  0  0  0  0  0  0
   79.0406   84.9693   18.0723 H   0  0  0  0  0  0  0  0  0  0  0  0
   80.2477   88.3828   16.3139 H   0  0  0  0  0  0  0  0  0  0  0  0
   78.0262   89.2709   17.7655 H   0  0  0  0  0  0  0  0  0  0  0  0
   78.5587   86.3364   20.1935 H   0  0  0  0  0  0  0  0  0  0  0  0
   77.9834   89.5136   20.6145 C   0  0  0  0  0  0  0  0  0  0  0  0
   77.0137   89.0370   21.5373 O   0  0  0  0  0  0  0  0  0  0  0  0
   76.4300   88.4018   21.0938 H   0  0  0  0  0  0  0  0  0  0  0  0
  9  1  1  0  0  0
  2  1  1  0  0  0
  4  2  1  0  0  0
  2  3  1  0  0  0
  6  4  1  0  0  0
  5  4  1  0  0  0
  7  6  1  0  0  0
  6  8  1  0  0  0
 14  8  1  0  0  0
  8  9  1  0  0  0
 14 15  1  0  0  0
  3 10  1  0  0  0
  5 11  1  0  0  0
  7 12  1  0  0  0
  9 13  1  0  0  0
 15 16  1  0  0  0
M  END
> <minimizedAffinity>
-6.53767

$$$$
4UFM_DGJ_A_1001


 16 16  0  0  0  0  0  0  0  0999 V2000
   79.5432   88.0398   18.9659 C   0  0  0  0  0  0  0  0  0  0  0  0
   79.3806   87.7209   17.4886 C   0  0  0  0  0  0  0  0  0  0  0  0
   80.4956   88.2305   16.7557 O   0  0  0  0  0  0  0  0  0  0  0  0
   78.0859   88.3161   16.9590 C   0  0  0  0  0  0  0  0  0  0  0  0
   77.6680   87.6292   15.7851 O   0  0  0  0  0  0  0  0  0  0  0  0
   76.9958   88.2661   18.0185 C   0  0  0  0  0  0  0  0  0  0  0  0
   76.7523   86.9190   18.4095 O   0  0  0  0  0  0  0  0  0  0  0  0
   77.3747   89.1211   19.2274 C   0  0  0  0  0  0  0  0  0  0  0  0
   78.8286   89.2435   19.4035 N   0  0  0  0  0  0  0  0  0  0  0  0
   80.5390   89.1937   16.8613 H   0  0  0  0  0  0  0  0  0  0  0  0
   77.5020   86.6974   15.9976 H   0  0  0  0  0  0  0  0  0  0  0  0
   77.5605   86.5419   18.7910 H   0  0  0  0  0  0  0  0  0  0  0  0
   79.1597   90.0388   18.8574 H   0  0  0  0  0  0  0  0  0  0  0  0
   76.7214   88.6609   20.5182 C   0  0  0  0  0  0  0  0  0  0  0  0
   77.1280   89.4940   21.5950 O   0  0  0  0  0  0  0  0  0  0  0  0
   78.0916   89.4455   21.6953 H   0  0  0  0  0  0  0  0  0  0  0  0
  9  1  1  0  0  0
  2  1  1  0  0  0
  4  2  1  0  0  0
  2  3  1  0  0  0
  6  4  1  0  0  0
  5  4  1  0  0  0
  7  6  1  0  0  0
  6  8  1  0  0  0
 14  8  1  0  0  0
  8  9  1  0  0  0
 14 15  1  0  0  0
  3 10  1  0  0  0
  5 11  1  0  0  0
  7 12  1  0  0  0
  9 13  1  0  0  0
 15 16  1  0  0  0
M  END
> <minimizedAffinity>
-6.24126

$$$$
4UFM_DGJ_A_1001


 16 16  0  0  0  0  0  0  0  0999 V2000
   78.3822   86.0902   19.1100 C   0  0  0  0  0  0  0  0  0  0  0  0
   77.8070   86.0497   17.7036 C   0  0  0  0  0  0  0  0  0  0  0  0
   78.5768   85.1648   16.8888 O   0  0  0  0  0  0  0  0  0  0  0  0
   77.7924   87.4442   17.0985 C   0  0  0  0  0  0  0  0  0  0  0  0
   76.8309   87.5208   16.0524 O   0  0  0  0  0  0  0  0  0  0  0  0
   77.5020   88.4914   18.1626 C   0  0  0  0  0  0  0  0  0  0  0  0
   76.2362   88.2420   18.7647 O   0  0  0  0  0  0  0  0  0  0  0  0
   78.6083   88.5145   19.2169 C   0  0  0  0  0  0  0  0  0  0  0  0
   79.2862   87.2183   19.3577 N   0  0  0  0  0  0  0  0  0  0  0  0
   79.4916   85.4838   16.8399 H   0  0  0  0  0  0  0  0  0  0  0  0
   75.9475   87.3431   16.4116 H   0  0  0  0  0  0  0  0  0  0  0  0
   76.2479   87.3721   19.1936 H   0  0  0  0  0  0  0  0  0  0  0  0
   80.0554   87.1756   18.6893 H   0  0  0  0  0  0  0  0  0  0  0  0
   78.1389   89.0170   20.5705 C   0  0  0  0  0  0  0  0  0  0  0  0
   77.7888   90.3915   20.4862 O   0  0  0  0  0  0  0  0  0  0  0  0
   78.5635   90.9062   20.2109 H   0  0  0  0  0  0  0  0  0  0  0  0
  9  1  1  0  0  0
  2  1  1  0  0  0
  4  2  1  0  0  0
  2  3  1  0  0  0
  6  4  1  0  0  0
  5  4  1  0  0  0
  7  6  1  0  0  0
  6  8  1  0  0  0
 14  8  1  0  0  0
  8  9  1  0  0  0
 14 15  1  0  0  0
  3 10  1  0  0  0
  5 11  1  0  0  0
  7 12  1  0  0  0
  9 13  1  0  0  0
 15 16  1  0  0  0
M  END
> <minimizedAffinity>
-5.86690

$$$$
4UFM_DGJ_A_1001


 16 16  0  0  0  0  0  0  0  0999 V2000
   77.7324   88.3934   17.3889 C   0  0  0  0  0  0  0  0  0  0  0  0
   79.0956   87.9354   17.8809 C   0  0  0  0  0  0  0  0  0  0  0  0
   79.5031   86.7676   17.1668 O   0  0  0  0  0  0  0  0  0  0  0  0
   79.0502   87.6508   19.3736 C   0  0  0  0  0  0  0  0  0  0  0  0
   80.3565   87.7266   19.9328 O   0  0  0  0  0  0  0  0  0  0  0  0
   78.1147   88.6201   20.0797 C   0  0  0  0  0  0  0  0  0  0  0  0
   78.5558   89.9594   19.8837 O   0  0  0  0  0  0  0  0  0  0  0  0
   76.6788   88.4448   19.5860 C   0  0  0  0  0  0  0  0  0  0  0  0
   76.6095   87.9305   18.2111 N   0  0  0  0  0  0  0  0  0  0  0  0
   78.8632   86.0549   17.3204 H   0  0  0  0  0  0  0  0  0  0  0  0
   80.7087   88.6222   19.8113 H   0  0  0  0  0  0  0  0  0  0  0  0
   78.5461   90.1677   18.9364 H   0  0  0  0  0  0  0  0  0  0  0  0
   76.6225   86.9111   18.2407 H   0  0  0  0  0  0  0  0  0  0  0  0
   75.8374   89.7008   19.7251 C   0  0  0  0  0  0  0  0  0  0  0  0
   75.2111   90.0082   18.4873 O   0  0  0  0  0  0  0  0  0  0  0  0
   75.8893   90.1573   17.8100 H   0  0  0  0  0  0  0  0  0  0  0  0
  9  1  1  0  0  0
  2  1  1  0  0  0
  4  2  1  0  0  0
  2  3  1  0  0  0
  6  4  1  0  0  0
  5  4  1  0  0  0
  7  6  1  0  0  0
  6  8  1  0  0  0
 14  8  1  0  0  0
  8  9  1  0  0  0
 14 15  1  0  0  0
  3 10  1  0  0  0
  5 11  1  0  0  0
  7 12  1  0  0  0
  9 13  1  0  0  0
 15 16  1  0  0  0
M  END
> <minimizedAffinity>
-5.84727

$$$$
4UFM_DGJ_A_1001


 16 16  0  0  0  0  0  0  0  0999 V2000
   77.3752   88.7390   17.2347 C   0  0  0  0  0  0  0  0  0  0  0  0
   77.6492   87.3924   16.5853 C   0  0  0  0  0  0  0  0  0  0  0  0
   76.5308   87.0006   15.7880 O   0  0  0  0  0  0  0  0  0  0  0  0
   77.9329   86.3418   17.6469 C   0  0  0  0  0  0  0  0  0  0  0  0
   78.6697   85.2598   17.0894 O   0  0  0  0  0  0  0  0  0  0  0  0
   78.6885   86.9491   18.8189 C   0  0  0  0  0  0  0  0  0  0  0  0
   79.9261   87.4953   18.3753 O   0  0  0  0  0  0  0  0  0  0  0  0
   77.8437   88.0160   19.5146 C   0  0  0  0  0  0  0  0  0  0  0  0
   76.8753   88.6525   18.6109 N   0  0  0  0  0  0  0  0  0  0  0  0
   75.7452   86.9185   16.3510 H   0  0  0  0  0  0  0  0  0  0  0  0
   79.5212   85.5852   16.7579 H   0  0  0  0  0  0  0  0  0  0  0  0
   79.7561   88.1989   17.7296 H   0  0  0  0  0  0  0  0  0  0  0  0
   76.0145   88.1052   18.6137 H   0  0  0  0  0  0  0  0  0  0  0  0
   78.6726   89.0681   20.2292 C   0  0  0  0  0  0  0  0  0  0  0  0
   77.8525   90.1684   20.5974 O   0  0  0  0  0  0  0  0  0  0  0  0
   77.4629   90.5621   19.8011 H   0  0  0  0  0  0  0  0  0  0  0  0
  9  1  1  0  0  0
  2  1  1  0  0  0
  4  2  1  0  0  0
  2  3  1  0  0  0
  6  4  1  0  0  0
  5  4  1  0  0  0
  7  6  1  0  0  0
  6  8  1  0  0  0
 14  8  1  0  0  0
  8  9  1  0  0  0
 14 15  1  0  0  0
  3 10  1  0  0  0
  5 11  1  0  0  0
  7 12  1  0  0  0
  9 13  1  0  0  0
 15 16  1  0  0  0
M  END
> <minimizedAffinity>
-5.75588

$$$$
4UFM_DGJ_A_1001


 16 16  0  0  0  0  0  0  0  0999 V2000
   76.5604   88.6903   19.0306 C   0  0  0  0  0  0  0  0  0  0  0  0
   77.7644   88.7715   19.9548 C   0  0  0  0  0  0  0  0  0  0  0  0
   77.8715   90.0875   20.4992 O   0  0  0  0  0  0  0  0  0  0  0  0
   79.0340   88.4081   19.2016 C   0  0  0  0  0  0  0  0  0  0  0  0
   80.0447   87.9843   20.1090 O   0  0  0  0  0  0  0  0  0  0  0  0
   78.7587   87.3239   18.1711 C   0  0  0  0  0  0  0  0  0  0  0  0
   78.2569   86.1549   18.8101 O   0  0  0  0  0  0  0  0  0  0  0  0
   77.7805   87.8223   17.1076 C   0  0  0  0  0  0  0  0  0  0  0  0
   76.8794   88.8687   17.6103 N   0  0  0  0  0  0  0  0  0  0  0  0
   77.9905   90.7266   19.7792 H   0  0  0  0  0  0  0  0  0  0  0  0
   79.7431   87.1933   20.5825 H   0  0  0  0  0  0  0  0  0  0  0  0
   77.4220   86.3640   19.2575 H   0  0  0  0  0  0  0  0  0  0  0  0
   77.3282   89.7762   17.4860 H   0  0  0  0  0  0  0  0  0  0  0  0
   76.9849   86.7076   16.4525 C   0  0  0  0  0  0  0  0  0  0  0  0
   77.8345   85.6054   16.1653 O   0  0  0  0  0  0  0  0  0  0  0  0
   78.5374   85.8882   15.5596 H   0  0  0  0  0  0  0  0  0  0  0  0
  9  1  1  0  0  0
  2  1  1  0  0  0
  4  2  1  0  0  0
  2  3  1  0  0  0
  6  4  1  0  0  0
  5  4  1  0  0  0
  7  6  1  0  0  0
  6  8  1  0  0  0
 14  8  1  0  0  0
  8  9  1  0  0  0
 14 15  1  0  0  0
  3 10  1  0  0  0
  5 11  1  0  0  0
  7 12  1  0  0  0
  9 13  1  0  0  0
 15 16  1  0  0  0
M  END
> <minimizedAffinity>
-5.72489

$$$$
4UFM_DGJ_A_1001


 16 16  0  0  0  0  0  0  0  0999 V2000
   77.7008   88.5075   17.2669 C   0  0  0  0  0  0  0  0  0  0  0  0
   78.1679   87.0632   17.1886 C   0  0  0  0  0  0  0  0  0  0  0  0
   77.6443   86.4459   16.0119 O   0  0  0  0  0  0  0  0  0  0  0  0
   77.7267   86.2975   18.4257 C   0  0  0  0  0  0  0  0  0  0  0  0
   78.5505   85.1540   18.6212 O   0  0  0  0  0  0  0  0  0  0  0  0
   77.7617   87.1921   19.6552 C   0  0  0  0  0  0  0  0  0  0  0  0
   79.0812   87.6824   19.8685 O   0  0  0  0  0  0  0  0  0  0  0  0
   76.7708   88.3472   19.5139 C   0  0  0  0  0  0  0  0  0  0  0  0
   76.5204   88.7129   18.1128 N   0  0  0  0  0  0  0  0  0  0  0  0
   76.6749   86.4563   16.0453 H   0  0  0  0  0  0  0  0  0  0  0  0
   79.4684   85.4363   18.7577 H   0  0  0  0  0  0  0  0  0  0  0  0
   79.3573   88.2110   19.1035 H   0  0  0  0  0  0  0  0  0  0  0  0
   75.7564   88.1395   17.7552 H   0  0  0  0  0  0  0  0  0  0  0  0
   77.1576   89.5737   20.3208 C   0  0  0  0  0  0  0  0  0  0  0  0
   77.0889   89.2853   21.7104 O   0  0  0  0  0  0  0  0  0  0  0  0
   76.1829   89.0286   21.9429 H   0  0  0  0  0  0  0  0  0  0  0  0
  9  1  1  0  0  0
  2  1  1  0  0  0
  4  2  1  0  0  0
  2  3  1  0  0  0
  6  4  1  0  0  0
  5  4  1  0  0  0
  7  6  1  0  0  0
  6  8  1  0  0  0
 14  8  1  0  0  0
  8  9  1  0  0  0
 14 15  1  0  0  0
  3 10  1  0  0  0
  5 11  1  0  0  0
  7 12  1  0  0  0
  9 13  1  0  0  0
 15 16  1  0  0  0
M  END
> <minimizedAffinity>
-5.66843

$$$$
4UFM_DGJ_A_1001


 16 16  0  0  0  0  0  0  0  0999 V2000
   79.7367   87.5982   19.4111 C   0  0  0  0  0  0  0  0  0  0  0  0
   79.5016   88.2930   18.0798 C   0  0  0  0  0  0  0  0  0  0  0  0
   79.5282   89.7096   18.2593 O   0  0  0  0  0  0  0  0  0  0  0  0
   78.1697   87.8621   17.4870 C   0  0  0  0  0  0  0  0  0  0  0  0
   78.1622   88.0719   16.0796 O   0  0  0  0  0  0  0  0  0  0  0  0
   77.8834   86.4029   17.8065 C   0  0  0  0  0  0  0  0  0  0  0  0
   78.9099   85.5728   17.2736 O   0  0  0  0  0  0  0  0  0  0  0  0
   77.7465   86.1948   19.3145 C   0  0  0  0  0  0  0  0  0  0  0  0
   78.5092   87.1787   20.0955 N   0  0  0  0  0  0  0  0  0  0  0  0
   78.8241   89.9710   18.8732 H   0  0  0  0  0  0  0  0  0  0  0  0
   78.8581   87.5352   15.6690 H   0  0  0  0  0  0  0  0  0  0  0  0
   79.7593   85.8087   17.6785 H   0  0  0  0  0  0  0  0  0  0  0  0
   77.9236   87.9990   20.2520 H   0  0  0  0  0  0  0  0  0  0  0  0
   78.0880   84.7844   19.7606 C   0  0  0  0  0  0  0  0  0  0  0  0
   78.6185   84.8043   21.0785 O   0  0  0  0  0  0  0  0  0  0  0  0
   79.4248   85.3433   21.0944 H   0  0  0  0  0  0  0  0  0  0  0  0
  9  1  1  0  0  0
  2  1  1  0  0  0
  4  2  1  0  0  0
  2  3  1  0  0  0
  6  4  1  0  0  0
  5  4  1  0  0  0
  7  6  1  0  0  0
  6  8  1  0  0  0
 14  8  1  0  0  0
  8  9  1  0  0  0
 14 15  1  0  0  0
  3 10  1  0  0  0
  5 11  1  0  0  0
  7 12  1  0  0  0
  9 13  1  0  0  0
 15 16  1  0  0  0
M  END
> <minimizedAffinity>
-5.59270

$$$$
