3DAZ_MZM_A_263
  RCSB PDB12061708173D
Coordinates from PDB:3DAZ:A:263 Model:1 without hydrogens
 14 14  0  0  0  0            999 V2000
   -5.5550   -0.4510   16.4680   N 0  0  0  0  0  0  0  0  0  0  0  0
   -6.0000    0.5600   16.8090   S 0  0  0  0  0  0  0  0  0  0  0  0
   -7.1860    0.6660   16.6850   O 0  0  0  0  0  0  0  0  0  0  0  0
   -5.5980    0.6550   17.8500   O 0  0  0  0  0  0  0  0  0  0  0  0
   -5.1700    1.7910   15.9800   C 0  0  0  0  0  0  0  0  0  0  0  0
   -6.1000    2.9520   15.1060   S 0  0  0  0  0  0  0  0  0  0  0  0
   -4.6230    3.6330   14.5910   C 0  0  0  0  0  0  0  0  0  0  0  0
   -3.5950    3.0800   15.0830   N 0  0  0  0  0  0  0  0  0  0  0  0
   -2.2030    3.5200   14.8140   C 0  0  0  0  0  0  0  0  0  0  0  0
   -3.8850    1.9760   15.8510   N 0  0  0  0  0  0  0  0  0  0  0  0
   -4.7950    4.7370   13.7670   N 0  0  0  0  0  0  0  0  0  0  0  0
   -5.6410    5.4330   13.2030   C 0  0  0  0  0  0  0  0  0  0  0  0
   -5.5900    6.4180   12.4610   O 0  0  0  0  0  0  0  0  0  0  0  0
   -6.8890    4.9640   13.5470   C 0  0  0  0  0  0  0  0  0  0  0  0
  9  8  1  0  0  0  0
  8  7  1  0  0  0  0
  8 10  1  0  0  0  0
 14 12  1  0  0  0  0
 11  7  2  0  0  0  0
 11 12  1  0  0  0  0
  7  6  1  0  0  0  0
 12 13  2  0  0  0  0
 10  5  2  0  0  0  0
  6  5  1  0  0  0  0
  5  2  1  0  0  0  0
  2  4  2  0  0  0  0
  2  1  1  0  0  0  0
  2  3  2  0  0  0  0
A    1
N1
A    2
S1
A    3
O1
A    4
O2
A    5
C1
A    6
S2
A    7
C2
A    8
N2
A    9
C5
A   10
N3
A   11
N4
A   12
C3
A   13
O3
A   14
C4
M  END
>  <InstanceId>
3DAZ_MZM_A_263

>  <ChemCompId>
MZM

>  <PdbId>
3DAZ

>  <ChainId>
A

>  <ResidueNumber>
263

>  <InsertionCode>


>  <Model>
1

>  <AltIds>


>  <MissingHeavyAtoms>
0

>  <ObservedFormula>
C5 N4 O3 S2

>  <Name>
N-(3-methyl-5-sulfamoyl-1,3,4-thiadiazol-2(3H)-ylidene)acetamide

>  <SystematicName>
(~{N}~{Z})-~{N}-(3-methyl-5-sulfamoyl-1,3,4-thiadiazol-2-ylidene)ethanamide

>  <Synonyms>
Methazolamide

>  <Type>
NON-POLYMER

>  <Formula>
C5 H8 N4 O3 S2

>  <MolecularWeight>
236.272

>  <ModifiedDate>
2016-03-28

>  <Parent>


>  <OneLetterCode>


>  <SubcomponentList>


>  <AmbiguousFlag>
N

>  <InChI>
InChI=1S/C5H8N4O3S2/c1-3(10)7-4-9(2)8-5(13-4)14(6,11)12/h1-2H3,(H2,6,11,12)/b7-4-

>  <InChIKey>
FLOSMHQXBMRNHR-DAXSKMNVSA-N

>  <SMILES>
CC(=O)/N=C\1/N(N=C(S1)S(=O)(=O)N)C

$$$$
