4R5A_3J4_A_303
  RCSB PDB12061714343D
Coordinates from PDB:4R5A:A:303 Model:1 without hydrogens
 24 25  0  0  0  0            999 V2000
    3.6920    3.7830   80.3310   C 0  0  0  0  0  0  0  0  0  0  0  0
    2.8710    4.3290   81.4880   C 0  0  0  0  0  0  0  0  0  0  0  0
    3.6230    5.1350   82.4920   C 0  0  0  0  0  0  0  0  0  0  0  0
   -1.6290    2.4760   86.0200   O 0  0  0  0  0  0  0  0  0  0  0  0
   -1.8890    1.4100   87.1140   S 0  0  0  0  0  0  0  0  0  0  0  0
   -3.2940    1.3800   87.2560   O 0  0  0  0  0  0  0  0  0  0  0  0
   -1.1510    1.6920   88.2380   O 0  0  0  0  0  0  0  0  0  0  0  0
   -1.2330    0.0890   86.6830   N 0  0  0  0  0  0  0  0  0  0  0  0
    1.6340    0.8350   79.6060   O 0  0  0  0  0  0  0  0  0  0  0  0
    2.2930    1.7100   80.4660   C 0  0  0  0  0  0  0  0  0  0  0  0
    3.4900    2.4220   79.9520   C 0  0  0  0  0  0  0  0  0  0  0  0
    3.8330    2.1900   78.5770   O 0  0  0  0  0  0  0  0  0  0  0  0
    5.1080    4.0120   80.4740   O 0  0  0  0  0  0  0  0  0  0  0  0
    3.0790    5.3460   83.7720   O 0  0  0  0  0  0  0  0  0  0  0  0
    1.7130    3.6320   81.9430   O 0  0  0  0  0  0  0  0  0  0  0  0
    1.4730    2.3040   81.6150   C 0  0  0  0  0  0  0  0  0  0  0  0
   -0.3370    2.1700   81.6460   S 0  0  0  0  0  0  0  0  0  0  0  0
   -0.5650    0.8610   81.3610   O 0  0  0  0  0  0  0  0  0  0  0  0
   -0.9260    3.1670   80.8460   O 0  0  0  0  0  0  0  0  0  0  0  0
   -0.6320    2.4820   82.9760   N 0  0  0  0  0  0  0  0  0  0  0  0
   -0.2270    1.8140   83.9120   C 0  0  0  0  0  0  0  0  0  0  0  0
   -0.7560    3.8420   83.4670   C 0  0  0  0  0  0  0  0  0  0  0  0
   -0.2450    3.8410   84.8910   C 0  0  0  0  0  0  0  0  0  0  0  0
   -0.3680    2.6610   85.2820   C 0  0  0  0  0  0  0  0  0  0  0  0
 12 11  1  0  0  0  0
  9 10  1  0  0  0  0
 11  1  1  0  0  0  0
 11 10  1  0  0  0  0
  1 13  1  0  0  0  0
  1  2  1  0  0  0  0
 10 16  1  0  0  0  0
 19 17  2  0  0  0  0
 18 17  2  0  0  0  0
  2 15  1  0  0  0  0
  2  3  1  0  0  0  0
 16 17  1  0  0  0  0
 16 15  1  0  0  0  0
 17 20  1  0  0  0  0
  3 14  1  0  0  0  0
 20 22  1  0  0  0  0
 20 21  1  0  0  0  0
 22 23  1  0  0  0  0
 21 24  1  0  0  0  0
 23 24  1  0  0  0  0
 24  4  1  0  0  0  0
  4  5  1  0  0  0  0
  8  5  1  0  0  0  0
  5  6  2  0  0  0  0
  5  7  2  0  0  0  0
A    1
C4
A    2
C5
A    3
C6
A    4
OAO
A    5
SAW
A    6
OAB
A    7
OAC
A    8
NAA
A    9
O2
A   10
C2
A   11
C3
A   12
O3
A   13
O4
A   14
O6
A   15
O5
A   16
C1
A   17
SAX
A   18
OAD
A   19
OAE
A   20
NAV
A   21
CAM
A   22
CAL
A   23
CAK
A   24
CAP
M  END
>  <InstanceId>
4R5A_3J4_A_303

>  <ChemCompId>
3J4

>  <PdbId>
4R5A

>  <ChainId>
A

>  <ResidueNumber>
303

>  <InsertionCode>


>  <Model>
1

>  <AltIds>


>  <MissingHeavyAtoms>
0

>  <ObservedFormula>
C10 N2 O10 S2

>  <Name>
(6S)-2,6-anhydro-6-{[(3R)-3-(sulfamoyloxy)pyrrolidin-1-yl]sulfonyl}-D-glucitol

>  <SystematicName>
[(3R)-1-[(2S,3S,4S,5S)-6-(hydroxymethyl)-3,4,5-tris(oxidanyl)oxan-2-yl]sulfonylpyrrolidin-3-yl] sulfamate

>  <Synonyms>


>  <Type>
NON-POLYMER

>  <Formula>
C10 H20 N2 O10 S2

>  <MolecularWeight>
392.403

>  <ModifiedDate>
2014-10-10

>  <Parent>


>  <OneLetterCode>


>  <SubcomponentList>


>  <AmbiguousFlag>
N

>  <InChI>
InChI=1S/C10H20N2O10S2/c11-24(19,20)22-5-1-2-12(3-5)23(17,18)10-9(16)8(15)7(14)6(4-13)21-10/h5-10,13-16H,1-4H2,(H2,11,19,20)/t5-,6?,7-,8+,9+,10+/m1/s1

>  <InChIKey>
TWZVGIAZMOMKML-NGXNFIGVSA-N

>  <SMILES>
C1CN(C[C@@H]1OS(=O)(=O)N)S(=O)(=O)[C@H]2[C@H]([C@H]([C@@H](C(O2)CO)O)O)O

$$$$
