4R5A_3J4_A_303


 30 31  0  0  0  0  0  0  0  0999 V2000
    1.2837    1.8074   81.0358 C   0  0  0  0  0  0  0  0  0  0  0  0
   -0.1931    2.0982   81.2490 C   0  0  0  0  0  0  0  0  0  0  0  0
    2.5555    5.1872   81.6772 O   0  0  0  0  0  0  0  0  0  0  0  0
    1.6640    4.2819   81.1069 C   0  0  0  0  0  0  0  0  0  0  0  0
    2.1565    2.9135   80.8088 C   0  0  0  0  0  0  0  0  0  0  0  0
    3.5082    2.6201   81.1948 O   0  0  0  0  0  0  0  0  0  0  0  0
    1.5322    0.8138   80.0215 O   0  0  0  0  0  0  0  0  0  0  0  0
   -0.6310    3.4201   81.5565 O   0  0  0  0  0  0  0  0  0  0  0  0
    0.1720    4.5331   81.3439 C   0  0  0  0  0  0  0  0  0  0  0  0
    3.4642    4.9265   81.4602 H   0  0  0  0  0  0  0  0  0  0  0  0
    3.5552    2.5222   82.1587 H   0  0  0  0  0  0  0  0  0  0  0  0
    1.2967    1.1734   79.1520 H   0  0  0  0  0  0  0  0  0  0  0  0
   -1.1401    1.2195   80.5044 C   0  0  0  0  0  0  0  0  0  0  0  0
   -2.1347    1.7909   79.6901 O   0  0  0  0  0  0  0  0  0  0  0  0
   -2.7646    2.2788   80.2433 H   0  0  0  0  0  0  0  0  0  0  0  0
   -0.3947    5.7216   82.5935 S   0  0  0  0  0  0  0  0  0  0  0  0
   -1.4441    6.3410   81.9921 O   0  0  0  0  0  0  0  0  0  0  0  0
    0.6808    6.4905   83.0763 O   0  0  0  0  0  0  0  0  0  0  0  0
   -0.8005    4.8822   83.6347 N   0  0  0  0  0  0  0  0  0  0  0  0
   -0.0304    4.4759   84.4880 C   0  0  0  0  0  0  0  0  0  0  0  0
   -2.1035    4.9701   84.2676 C   0  0  0  0  0  0  0  0  0  0  0  0
   -1.9084    4.6042   85.7225 C   0  0  0  0  0  0  0  0  0  0  0  0
   -0.8697    3.9108   85.7491 C   0  0  0  0  0  0  0  0  0  0  0  0
   -1.1905    2.4740   85.7103 O   0  0  0  0  0  0  0  0  0  0  0  0
   -0.4074    1.3521   86.4376 S   0  0  0  0  0  0  0  0  0  0  0  0
    0.8685    1.9073   86.6799 O   0  0  0  0  0  0  0  0  0  0  0  0
   -0.4569    0.1883   85.7091 O   0  0  0  0  0  0  0  0  0  0  0  0
   -1.1979    0.9257   87.6843 N   0  0  0  0  0  0  0  0  0  0  0  0
   -1.2489    1.7068   88.3382 H   0  0  0  0  0  0  0  0  0  0  0  0
   -0.7287    0.1381   88.1315 H   0  0  0  0  0  0  0  0  0  0  0  0
  6  5  1  0  0  0
  3  4  1  0  0  0
  5  1  1  0  0  0
  5  4  1  0  0  0
  1  7  1  0  0  0
  1  2  1  0  0  0
  4  9  1  0  0  0
 18 16  2  0  0  0
 17 16  2  0  0  0
  2  8  1  0  0  0
  2 13  1  0  0  0
  9 16  1  0  0  0
  9  8  1  0  0  0
 16 19  1  0  0  0
 13 14  1  0  0  0
 19 21  1  0  0  0
 19 20  1  0  0  0
 21 22  1  0  0  0
 20 23  1  0  0  0
 22 23  1  0  0  0
 23 24  1  0  0  0
 24 25  1  0  0  0
 28 25  1  0  0  0
 25 26  2  0  0  0
 25 27  2  0  0  0
 28 29  1  0  0  0
 28 30  1  0  0  0
  3 10  1  0  0  0
  6 11  1  0  0  0
  7 12  1  0  0  0
 14 15  1  0  0  0
M  END
> <minimizedAffinity>
-8.53972

$$$$
4R5A_3J4_A_303


 30 31  0  0  0  0  0  0  0  0999 V2000
    3.2854    2.7853   79.9747 C   0  0  0  0  0  0  0  0  0  0  0  0
    2.6402    2.1445   81.1928 C   0  0  0  0  0  0  0  0  0  0  0  0
    2.2182    6.2376   80.6025 O   0  0  0  0  0  0  0  0  0  0  0  0
    2.0030    4.8636   80.5306 C   0  0  0  0  0  0  0  0  0  0  0  0
    2.8288    4.0782   79.5791 C   0  0  0  0  0  0  0  0  0  0  0  0
    3.8316    4.8032   78.8504 O   0  0  0  0  0  0  0  0  0  0  0  0
    3.2960    1.9299   78.8145 O   0  0  0  0  0  0  0  0  0  0  0  0
    1.8716    2.9319   82.1001 O   0  0  0  0  0  0  0  0  0  0  0  0
    1.3916    4.1907   81.7630 C   0  0  0  0  0  0  0  0  0  0  0  0
    2.6060    6.5482   79.7694 H   0  0  0  0  0  0  0  0  0  0  0  0
    4.5668    5.0231   79.4438 H   0  0  0  0  0  0  0  0  0  0  0  0
    2.3891    1.8121   78.4913 H   0  0  0  0  0  0  0  0  0  0  0  0
    2.2672    0.7082   81.0478 C   0  0  0  0  0  0  0  0  0  0  0  0
    1.3066    0.3257   80.0940 O   0  0  0  0  0  0  0  0  0  0  0  0
    0.4435    0.6951   80.3382 H   0  0  0  0  0  0  0  0  0  0  0  0
    1.2914    5.0571   83.3550 S   0  0  0  0  0  0  0  0  0  0  0  0
    0.8853    6.3079   83.0125 O   0  0  0  0  0  0  0  0  0  0  0  0
    2.4797    4.8906   84.0906 O   0  0  0  0  0  0  0  0  0  0  0  0
    0.2928    4.3387   84.0182 N   0  0  0  0  0  0  0  0  0  0  0  0
    0.2667    4.2182   85.2311 C   0  0  0  0  0  0  0  0  0  0  0  0
   -1.0878    4.2959   83.5728 C   0  0  0  0  0  0  0  0  0  0  0  0
   -1.9458    4.2102   84.8159 C   0  0  0  0  0  0  0  0  0  0  0  0
   -1.2018    3.7250   85.6942 C   0  0  0  0  0  0  0  0  0  0  0  0
   -1.3829    2.2670   85.7959 O   0  0  0  0  0  0  0  0  0  0  0  0
   -0.8425    1.3653   86.9342 S   0  0  0  0  0  0  0  0  0  0  0  0
    0.5530    1.3197   86.7211 O   0  0  0  0  0  0  0  0  0  0  0  0
   -1.5138    0.1667   86.9510 O   0  0  0  0  0  0  0  0  0  0  0  0
   -1.2934    1.9479   88.2827 N   0  0  0  0  0  0  0  0  0  0  0  0
   -0.8652    2.8637   88.4177 H   0  0  0  0  0  0  0  0  0  0  0  0
   -1.0055    1.3235   89.0361 H   0  0  0  0  0  0  0  0  0  0  0  0
  6  5  1  0  0  0
  3  4  1  0  0  0
  5  1  1  0  0  0
  5  4  1  0  0  0
  1  7  1  0  0  0
  1  2  1  0  0  0
  4  9  1  0  0  0
 18 16  2  0  0  0
 17 16  2  0  0  0
  2  8  1  0  0  0
  2 13  1  0  0  0
  9 16  1  0  0  0
  9  8  1  0  0  0
 16 19  1  0  0  0
 13 14  1  0  0  0
 19 21  1  0  0  0
 19 20  1  0  0  0
 21 22  1  0  0  0
 20 23  1  0  0  0
 22 23  1  0  0  0
 23 24  1  0  0  0
 24 25  1  0  0  0
 28 25  1  0  0  0
 25 26  2  0  0  0
 25 27  2  0  0  0
 28 29  1  0  0  0
 28 30  1  0  0  0
  3 10  1  0  0  0
  6 11  1  0  0  0
  7 12  1  0  0  0
 14 15  1  0  0  0
M  END
> <minimizedAffinity>
-8.32286

$$$$
4R5A_3J4_A_303


 30 31  0  0  0  0  0  0  0  0999 V2000
    3.1397    3.8871   79.9272 C   0  0  0  0  0  0  0  0  0  0  0  0
    2.3174    4.4998   81.0493 C   0  0  0  0  0  0  0  0  0  0  0  0
    1.5653    0.5746   79.9062 O   0  0  0  0  0  0  0  0  0  0  0  0
    2.1230    1.6818   80.5406 C   0  0  0  0  0  0  0  0  0  0  0  0
    3.1456    2.4654   79.8027 C   0  0  0  0  0  0  0  0  0  0  0  0
    3.4303    2.0443   78.4597 O   0  0  0  0  0  0  0  0  0  0  0  0
    4.5030    4.3542   79.8941 O   0  0  0  0  0  0  0  0  0  0  0  0
    1.3267    3.7262   81.7231 O   0  0  0  0  0  0  0  0  0  0  0  0
    1.2931    2.3400   81.6467 C   0  0  0  0  0  0  0  0  0  0  0  0
    2.1784    0.2466   79.2298 H   0  0  0  0  0  0  0  0  0  0  0  0
    2.6936    2.2932   77.8798 H   0  0  0  0  0  0  0  0  0  0  0  0
    4.9801    4.0143   80.6672 H   0  0  0  0  0  0  0  0  0  0  0  0
    2.9878    5.5805   81.8277 C   0  0  0  0  0  0  0  0  0  0  0  0
    4.0812    5.2726   82.6574 O   0  0  0  0  0  0  0  0  0  0  0  0
    3.7843    4.7059   83.3865 H   0  0  0  0  0  0  0  0  0  0  0  0
   -0.4622    1.9357   81.8722 S   0  0  0  0  0  0  0  0  0  0  0  0
   -0.4905    0.5796   81.7897 O   0  0  0  0  0  0  0  0  0  0  0  0
   -1.2666    2.7004   81.0067 O   0  0  0  0  0  0  0  0  0  0  0  0
   -0.7045    2.3928   83.1705 N   0  0  0  0  0  0  0  0  0  0  0  0
   -0.2005    1.8759   84.1529 C   0  0  0  0  0  0  0  0  0  0  0  0
   -0.8995    3.7928   83.4992 C   0  0  0  0  0  0  0  0  0  0  0  0
   -0.3112    4.0045   84.8769 C   0  0  0  0  0  0  0  0  0  0  0  0
   -0.3261    2.8777   85.4158 C   0  0  0  0  0  0  0  0  0  0  0  0
   -1.5272    2.7053   86.2504 O   0  0  0  0  0  0  0  0  0  0  0  0
   -1.7095    1.6451   87.3656 S   0  0  0  0  0  0  0  0  0  0  0  0
   -0.5023    0.9117   87.3612 O   0  0  0  0  0  0  0  0  0  0  0  0
   -2.8720    0.9405   87.1668 O   0  0  0  0  0  0  0  0  0  0  0  0
   -2.0494    2.3640   88.6804 N   0  0  0  0  0  0  0  0  0  0  0  0
   -1.2597    2.9435   88.9651 H   0  0  0  0  0  0  0  0  0  0  0  0
   -2.2430    1.6732   89.4054 H   0  0  0  0  0  0  0  0  0  0  0  0
  6  5  1  0  0  0
  3  4  1  0  0  0
  5  1  1  0  0  0
  5  4  1  0  0  0
  1  7  1  0  0  0
  1  2  1  0  0  0
  4  9  1  0  0  0
 18 16  2  0  0  0
 17 16  2  0  0  0
  2  8  1  0  0  0
  2 13  1  0  0  0
  9 16  1  0  0  0
  9  8  1  0  0  0
 16 19  1  0  0  0
 13 14  1  0  0  0
 19 21  1  0  0  0
 19 20  1  0  0  0
 21 22  1  0  0  0
 20 23  1  0  0  0
 22 23  1  0  0  0
 23 24  1  0  0  0
 24 25  1  0  0  0
 28 25  1  0  0  0
 25 26  2  0  0  0
 25 27  2  0  0  0
 28 29  1  0  0  0
 28 30  1  0  0  0
  3 10  1  0  0  0
  6 11  1  0  0  0
  7 12  1  0  0  0
 14 15  1  0  0  0
M  END
> <minimizedAffinity>
-8.29994

$$$$
4R5A_3J4_A_303


 30 31  0  0  0  0  0  0  0  0999 V2000
    2.8282    5.0152   77.7567 C   0  0  0  0  0  0  0  0  0  0  0  0
    3.9152    4.6137   78.7406 C   0  0  0  0  0  0  0  0  0  0  0  0
   -0.0445    4.6400   80.0058 O   0  0  0  0  0  0  0  0  0  0  0  0
    1.1617    4.2216   79.4495 C   0  0  0  0  0  0  0  0  0  0  0  0
    1.4812    4.6613   78.0680 C   0  0  0  0  0  0  0  0  0  0  0  0
    0.5352    5.5404   77.4399 O   0  0  0  0  0  0  0  0  0  0  0  0
    3.1047    4.6122   76.4006 O   0  0  0  0  0  0  0  0  0  0  0  0
    3.5762    4.2178   80.0681 O   0  0  0  0  0  0  0  0  0  0  0  0
    2.2845    3.8514   80.4231 C   0  0  0  0  0  0  0  0  0  0  0  0
   -0.6736    4.8453   79.2966 H   0  0  0  0  0  0  0  0  0  0  0  0
    0.6059    6.4248   77.8321 H   0  0  0  0  0  0  0  0  0  0  0  0
    3.0537    3.6458   76.3337 H   0  0  0  0  0  0  0  0  0  0  0  0
    5.1430    4.0169   78.1411 C   0  0  0  0  0  0  0  0  0  0  0  0
    5.0439    2.8646   77.3403 O   0  0  0  0  0  0  0  0  0  0  0  0
    4.7474    2.1178   77.8836 H   0  0  0  0  0  0  0  0  0  0  0  0
    2.1811    4.2790   82.1842 S   0  0  0  0  0  0  0  0  0  0  0  0
    1.5104    5.4610   82.1868 O   0  0  0  0  0  0  0  0  0  0  0  0
    3.4472    4.1985   82.7935 O   0  0  0  0  0  0  0  0  0  0  0  0
    1.4106    3.2314   82.6962 N   0  0  0  0  0  0  0  0  0  0  0  0
    0.4130    3.4197   83.3713 C   0  0  0  0  0  0  0  0  0  0  0  0
    1.1984    1.9802   81.9924 C   0  0  0  0  0  0  0  0  0  0  0  0
   -0.1980    1.5139   82.3409 C   0  0  0  0  0  0  0  0  0  0  0  0
   -0.4637    2.0625   83.4312 C   0  0  0  0  0  0  0  0  0  0  0  0
   -0.1729    1.1640   84.5613 O   0  0  0  0  0  0  0  0  0  0  0  0
   -0.4458    1.4716   86.0552 S   0  0  0  0  0  0  0  0  0  0  0  0
    0.8152    1.8283   86.5821 O   0  0  0  0  0  0  0  0  0  0  0  0
   -1.0970    0.4165   86.6469 O   0  0  0  0  0  0  0  0  0  0  0  0
   -1.5370    2.5497   86.1466 N   0  0  0  0  0  0  0  0  0  0  0  0
   -1.1928    3.4175   85.7358 H   0  0  0  0  0  0  0  0  0  0  0  0
   -1.7769    2.7085   87.1252 H   0  0  0  0  0  0  0  0  0  0  0  0
  6  5  1  0  0  0
  3  4  1  0  0  0
  5  1  1  0  0  0
  5  4  1  0  0  0
  1  7  1  0  0  0
  1  2  1  0  0  0
  4  9  1  0  0  0
 18 16  2  0  0  0
 17 16  2  0  0  0
  2  8  1  0  0  0
  2 13  1  0  0  0
  9 16  1  0  0  0
  9  8  1  0  0  0
 16 19  1  0  0  0
 13 14  1  0  0  0
 19 21  1  0  0  0
 19 20  1  0  0  0
 21 22  1  0  0  0
 20 23  1  0  0  0
 22 23  1  0  0  0
 23 24  1  0  0  0
 24 25  1  0  0  0
 28 25  1  0  0  0
 25 26  2  0  0  0
 25 27  2  0  0  0
 28 29  1  0  0  0
 28 30  1  0  0  0
  3 10  1  0  0  0
  6 11  1  0  0  0
  7 12  1  0  0  0
 14 15  1  0  0  0
M  END
> <minimizedAffinity>
-7.95812

$$$$
4R5A_3J4_A_303


 30 31  0  0  0  0  0  0  0  0999 V2000
   -1.5116    3.2323   84.8628 C   0  0  0  0  0  0  0  0  0  0  0  0
   -0.6094    2.0129   84.7624 C   0  0  0  0  0  0  0  0  0  0  0  0
   -0.5693    4.8128   81.6901 O   0  0  0  0  0  0  0  0  0  0  0  0
   -0.2837    4.1615   82.8875 C   0  0  0  0  0  0  0  0  0  0  0  0
   -1.2213    4.3492   84.0231 C   0  0  0  0  0  0  0  0  0  0  0  0
   -2.3875    5.1470   83.7669 O   0  0  0  0  0  0  0  0  0  0  0  0
   -1.6849    3.7082   86.2124 O   0  0  0  0  0  0  0  0  0  0  0  0
    0.2637    1.8514   83.6465 O   0  0  0  0  0  0  0  0  0  0  0  0
    0.5901    2.9065   82.8045 C   0  0  0  0  0  0  0  0  0  0  0  0
   -1.1256    5.5872   81.8680 H   0  0  0  0  0  0  0  0  0  0  0  0
   -3.0107    4.6425   83.2210 H   0  0  0  0  0  0  0  0  0  0  0  0
   -0.8491    4.0813   86.5335 H   0  0  0  0  0  0  0  0  0  0  0  0
   -0.1789    1.4175   86.0598 C   0  0  0  0  0  0  0  0  0  0  0  0
    0.9022    1.9775   86.7644 O   0  0  0  0  0  0  0  0  0  0  0  0
    1.7175    1.8604   86.2520 H   0  0  0  0  0  0  0  0  0  0  0  0
    0.9316    2.1019   81.2135 S   0  0  0  0  0  0  0  0  0  0  0  0
   -0.1948    2.3348   80.4899 O   0  0  0  0  0  0  0  0  0  0  0  0
    1.3711    0.7788   81.4064 O   0  0  0  0  0  0  0  0  0  0  0  0
    2.0249    2.8342   80.7426 N   0  0  0  0  0  0  0  0  0  0  0  0
    3.1754    2.5574   81.0360 C   0  0  0  0  0  0  0  0  0  0  0  0
    2.0724    3.4357   79.4228 C   0  0  0  0  0  0  0  0  0  0  0  0
    3.5126    3.3705   78.9641 C   0  0  0  0  0  0  0  0  0  0  0  0
    4.1869    3.2952   80.0130 C   0  0  0  0  0  0  0  0  0  0  0  0
    4.6633    4.6239   80.4333 O   0  0  0  0  0  0  0  0  0  0  0  0
    6.1341    5.0021   80.7407 S   0  0  0  0  0  0  0  0  0  0  0  0
    6.2278    6.3711   80.4059 O   0  0  0  0  0  0  0  0  0  0  0  0
    6.9909    4.1399   80.1004 O   0  0  0  0  0  0  0  0  0  0  0  0
    6.4393    4.6504   82.2051 N   0  0  0  0  0  0  0  0  0  0  0  0
    5.8633    5.2252   82.8200 H   0  0  0  0  0  0  0  0  0  0  0  0
    7.4250    4.8274   82.3989 H   0  0  0  0  0  0  0  0  0  0  0  0
  6  5  1  0  0  0
  3  4  1  0  0  0
  5  1  1  0  0  0
  5  4  1  0  0  0
  1  7  1  0  0  0
  1  2  1  0  0  0
  4  9  1  0  0  0
 18 16  2  0  0  0
 17 16  2  0  0  0
  2  8  1  0  0  0
  2 13  1  0  0  0
  9 16  1  0  0  0
  9  8  1  0  0  0
 16 19  1  0  0  0
 13 14  1  0  0  0
 19 21  1  0  0  0
 19 20  1  0  0  0
 21 22  1  0  0  0
 20 23  1  0  0  0
 22 23  1  0  0  0
 23 24  1  0  0  0
 24 25  1  0  0  0
 28 25  1  0  0  0
 25 26  2  0  0  0
 25 27  2  0  0  0
 28 29  1  0  0  0
 28 30  1  0  0  0
  3 10  1  0  0  0
  6 11  1  0  0  0
  7 12  1  0  0  0
 14 15  1  0  0  0
M  END
> <minimizedAffinity>
-7.85955

$$$$
4R5A_3J4_A_303


 30 31  0  0  0  0  0  0  0  0999 V2000
    2.3188    4.2624   78.3658 C   0  0  0  0  0  0  0  0  0  0  0  0
    1.0902    4.8150   79.0702 C   0  0  0  0  0  0  0  0  0  0  0  0
    2.4233    0.9970   80.0325 O   0  0  0  0  0  0  0  0  0  0  0  0
    2.2809    2.3823   80.0201 C   0  0  0  0  0  0  0  0  0  0  0  0
    2.9815    3.1449   78.9562 C   0  0  0  0  0  0  0  0  0  0  0  0
    3.7047    2.3735   77.9846 O   0  0  0  0  0  0  0  0  0  0  0  0
    3.3048    5.2681   78.0585 O   0  0  0  0  0  0  0  0  0  0  0  0
    0.4268    4.0472   80.0722 O   0  0  0  0  0  0  0  0  0  0  0  0
    1.0290    2.9580   80.6885 C   0  0  0  0  0  0  0  0  0  0  0  0
    3.2476    0.7527   79.5833 H   0  0  0  0  0  0  0  0  0  0  0  0
    3.0780    1.9405   77.3840 H   0  0  0  0  0  0  0  0  0  0  0  0
    3.7045    5.5910   78.8812 H   0  0  0  0  0  0  0  0  0  0  0  0
    1.0267    6.2997   79.1920 C   0  0  0  0  0  0  0  0  0  0  0  0
    0.0755    6.8939   80.0411 O   0  0  0  0  0  0  0  0  0  0  0  0
   -0.8158    6.7193   79.7005 H   0  0  0  0  0  0  0  0  0  0  0  0
   -0.3672    1.8922   81.1463 S   0  0  0  0  0  0  0  0  0  0  0  0
    0.1563    0.6393   81.0913 O   0  0  0  0  0  0  0  0  0  0  0  0
   -1.5057    2.2026   80.3794 O   0  0  0  0  0  0  0  0  0  0  0  0
   -0.6304    2.2995   82.4571 N   0  0  0  0  0  0  0  0  0  0  0  0
    0.2305    2.3309   83.3198 C   0  0  0  0  0  0  0  0  0  0  0  0
   -1.5835    3.3414   82.7918 C   0  0  0  0  0  0  0  0  0  0  0  0
   -1.0392    4.0576   84.0082 C   0  0  0  0  0  0  0  0  0  0  0  0
   -0.2795    3.2339   84.5602 C   0  0  0  0  0  0  0  0  0  0  0  0
   -0.9770    2.5071   85.6346 O   0  0  0  0  0  0  0  0  0  0  0  0
   -0.3899    1.3382   86.4652 S   0  0  0  0  0  0  0  0  0  0  0  0
    0.9250    1.7482   86.7782 O   0  0  0  0  0  0  0  0  0  0  0  0
   -0.5321    0.1530   85.7851 O   0  0  0  0  0  0  0  0  0  0  0  0
   -1.3108    1.0739   87.6665 N   0  0  0  0  0  0  0  0  0  0  0  0
   -1.3101    1.8880   88.2811 H   0  0  0  0  0  0  0  0  0  0  0  0
   -0.9741    0.2597   88.1804 H   0  0  0  0  0  0  0  0  0  0  0  0
  6  5  1  0  0  0
  3  4  1  0  0  0
  5  1  1  0  0  0
  5  4  1  0  0  0
  1  7  1  0  0  0
  1  2  1  0  0  0
  4  9  1  0  0  0
 18 16  2  0  0  0
 17 16  2  0  0  0
  2  8  1  0  0  0
  2 13  1  0  0  0
  9 16  1  0  0  0
  9  8  1  0  0  0
 16 19  1  0  0  0
 13 14  1  0  0  0
 19 21  1  0  0  0
 19 20  1  0  0  0
 21 22  1  0  0  0
 20 23  1  0  0  0
 22 23  1  0  0  0
 23 24  1  0  0  0
 24 25  1  0  0  0
 28 25  1  0  0  0
 25 26  2  0  0  0
 25 27  2  0  0  0
 28 29  1  0  0  0
 28 30  1  0  0  0
  3 10  1  0  0  0
  6 11  1  0  0  0
  7 12  1  0  0  0
 14 15  1  0  0  0
M  END
> <minimizedAffinity>
-7.76944

$$$$
4R5A_3J4_A_303


 30 31  0  0  0  0  0  0  0  0999 V2000
    3.1569    3.7960   79.9811 C   0  0  0  0  0  0  0  0  0  0  0  0
    2.5005    4.4100   81.2071 C   0  0  0  0  0  0  0  0  0  0  0  0
    1.4842    0.5342   80.1002 O   0  0  0  0  0  0  0  0  0  0  0  0
    2.1522    1.6105   80.6788 C   0  0  0  0  0  0  0  0  0  0  0  0
    3.1007    2.3777   79.8328 C   0  0  0  0  0  0  0  0  0  0  0  0
    3.2028    1.9762   78.4578 O   0  0  0  0  0  0  0  0  0  0  0  0
    4.5202    4.2219   79.7864 O   0  0  0  0  0  0  0  0  0  0  0  0
    1.5761    3.6530   81.9857 O   0  0  0  0  0  0  0  0  0  0  0  0
    1.4877    2.2703   81.8906 C   0  0  0  0  0  0  0  0  0  0  0  0
    1.9977    0.2019   79.3473 H   0  0  0  0  0  0  0  0  0  0  0  0
    2.4086    2.2596   77.9784 H   0  0  0  0  0  0  0  0  0  0  0  0
    5.0780    3.8516   80.4883 H   0  0  0  0  0  0  0  0  0  0  0  0
    3.2973    5.4533   81.9141 C   0  0  0  0  0  0  0  0  0  0  0  0
    4.4899    5.0999   82.5712 O   0  0  0  0  0  0  0  0  0  0  0  0
    4.2865    4.5152   83.3179 H   0  0  0  0  0  0  0  0  0  0  0  0
   -0.2383    1.9152   82.3260 S   0  0  0  0  0  0  0  0  0  0  0  0
   -0.2140    0.6043   82.6835 O   0  0  0  0  0  0  0  0  0  0  0  0
   -1.1091    2.3398   81.3051 O   0  0  0  0  0  0  0  0  0  0  0  0
   -0.4449    2.7592   83.4206 N   0  0  0  0  0  0  0  0  0  0  0  0
   -1.2679    3.6586   83.4095 C   0  0  0  0  0  0  0  0  0  0  0  0
   -0.3401    2.3172   84.7989 C   0  0  0  0  0  0  0  0  0  0  0  0
   -1.3599    3.1067   85.5899 C   0  0  0  0  0  0  0  0  0  0  0  0
   -1.5585    4.1446   84.9239 C   0  0  0  0  0  0  0  0  0  0  0  0
   -0.7212    5.2545   85.4100 O   0  0  0  0  0  0  0  0  0  0  0  0
   -0.6807    6.6848   84.8156 S   0  0  0  0  0  0  0  0  0  0  0  0
    0.3501    6.6411   83.8509 O   0  0  0  0  0  0  0  0  0  0  0  0
   -0.5604    7.6142   85.8202 O   0  0  0  0  0  0  0  0  0  0  0  0
   -2.0782    7.0391   84.2840 N   0  0  0  0  0  0  0  0  0  0  0  0
   -2.3160    6.4167   83.5117 H   0  0  0  0  0  0  0  0  0  0  0  0
   -2.0825    8.0049   83.9561 H   0  0  0  0  0  0  0  0  0  0  0  0
  6  5  1  0  0  0
  3  4  1  0  0  0
  5  1  1  0  0  0
  5  4  1  0  0  0
  1  7  1  0  0  0
  1  2  1  0  0  0
  4  9  1  0  0  0
 18 16  2  0  0  0
 17 16  2  0  0  0
  2  8  1  0  0  0
  2 13  1  0  0  0
  9 16  1  0  0  0
  9  8  1  0  0  0
 16 19  1  0  0  0
 13 14  1  0  0  0
 19 21  1  0  0  0
 19 20  1  0  0  0
 21 22  1  0  0  0
 20 23  1  0  0  0
 22 23  1  0  0  0
 23 24  1  0  0  0
 24 25  1  0  0  0
 28 25  1  0  0  0
 25 26  2  0  0  0
 25 27  2  0  0  0
 28 29  1  0  0  0
 28 30  1  0  0  0
  3 10  1  0  0  0
  6 11  1  0  0  0
  7 12  1  0  0  0
 14 15  1  0  0  0
M  END
> <minimizedAffinity>
-7.41677

$$$$
4R5A_3J4_A_303


 30 31  0  0  0  0  0  0  0  0999 V2000
    2.1411    4.0924   80.4734 C   0  0  0  0  0  0  0  0  0  0  0  0
    1.1515    5.2265   80.2604 C   0  0  0  0  0  0  0  0  0  0  0  0
    2.8367    4.6971   84.0233 O   0  0  0  0  0  0  0  0  0  0  0  0
    2.6493    5.1077   82.7058 C   0  0  0  0  0  0  0  0  0  0  0  0
    2.9846    4.1488   81.6232 C   0  0  0  0  0  0  0  0  0  0  0  0
    3.4210    2.8440   82.0346 O   0  0  0  0  0  0  0  0  0  0  0  0
    2.9605    3.8216   79.3187 O   0  0  0  0  0  0  0  0  0  0  0  0
    0.8339    6.1169   81.3281 O   0  0  0  0  0  0  0  0  0  0  0  0
    1.6261    6.2213   82.4641 C   0  0  0  0  0  0  0  0  0  0  0  0
    3.5032    3.9929   84.0508 H   0  0  0  0  0  0  0  0  0  0  0  0
    2.6623    2.3392   82.3670 H   0  0  0  0  0  0  0  0  0  0  0  0
    3.5702    4.5620   79.1741 H   0  0  0  0  0  0  0  0  0  0  0  0
    1.0750    5.7671   78.8729 C   0  0  0  0  0  0  0  0  0  0  0  0
    0.6874    4.9273   77.8130 O   0  0  0  0  0  0  0  0  0  0  0  0
    1.3586    4.2391   77.6838 H   0  0  0  0  0  0  0  0  0  0  0  0
    0.4602    6.7249   83.7610 S   0  0  0  0  0  0  0  0  0  0  0  0
   -0.4131    7.5357   83.1078 O   0  0  0  0  0  0  0  0  0  0  0  0
    1.1468    7.2107   84.8895 O   0  0  0  0  0  0  0  0  0  0  0  0
   -0.1190    5.5061   84.1248 N   0  0  0  0  0  0  0  0  0  0  0  0
   -0.1464    5.1109   85.2779 C   0  0  0  0  0  0  0  0  0  0  0  0
   -1.2955    4.9575   83.4760 C   0  0  0  0  0  0  0  0  0  0  0  0
   -2.0751    4.2153   84.5392 C   0  0  0  0  0  0  0  0  0  0  0  0
   -1.2356    3.9241   85.4172 C   0  0  0  0  0  0  0  0  0  0  0  0
   -0.7195    2.5582   85.2247 O   0  0  0  0  0  0  0  0  0  0  0  0
   -0.3124    1.5775   86.3531 S   0  0  0  0  0  0  0  0  0  0  0  0
    1.0185    1.9298   86.6688 O   0  0  0  0  0  0  0  0  0  0  0  0
   -0.5418    0.2806   85.9620 O   0  0  0  0  0  0  0  0  0  0  0  0
   -1.3255    1.6977   87.5021 N   0  0  0  0  0  0  0  0  0  0  0  0
   -1.2728    2.6331   87.9054 H   0  0  0  0  0  0  0  0  0  0  0  0
   -1.1098    1.0055   88.2194 H   0  0  0  0  0  0  0  0  0  0  0  0
  6  5  1  0  0  0
  3  4  1  0  0  0
  5  1  1  0  0  0
  5  4  1  0  0  0
  1  7  1  0  0  0
  1  2  1  0  0  0
  4  9  1  0  0  0
 18 16  2  0  0  0
 17 16  2  0  0  0
  2  8  1  0  0  0
  2 13  1  0  0  0
  9 16  1  0  0  0
  9  8  1  0  0  0
 16 19  1  0  0  0
 13 14  1  0  0  0
 19 21  1  0  0  0
 19 20  1  0  0  0
 21 22  1  0  0  0
 20 23  1  0  0  0
 22 23  1  0  0  0
 23 24  1  0  0  0
 24 25  1  0  0  0
 28 25  1  0  0  0
 25 26  2  0  0  0
 25 27  2  0  0  0
 28 29  1  0  0  0
 28 30  1  0  0  0
  3 10  1  0  0  0
  6 11  1  0  0  0
  7 12  1  0  0  0
 14 15  1  0  0  0
M  END
> <minimizedAffinity>
-7.36632

$$$$
4R5A_3J4_A_303


 30 31  0  0  0  0  0  0  0  0999 V2000
    4.9562    4.5066   78.9797 C   0  0  0  0  0  0  0  0  0  0  0  0
    5.1448    4.9044   80.4347 C   0  0  0  0  0  0  0  0  0  0  0  0
    1.5492    3.1786   79.2627 O   0  0  0  0  0  0  0  0  0  0  0  0
    2.8658    3.3256   79.6923 C   0  0  0  0  0  0  0  0  0  0  0  0
    3.9070    3.5908   78.6679 C   0  0  0  0  0  0  0  0  0  0  0  0
    3.4522    3.7349   77.3135 O   0  0  0  0  0  0  0  0  0  0  0  0
    6.1677    4.0450   78.3496 O   0  0  0  0  0  0  0  0  0  0  0  0
    4.1153    4.6558   81.3897 O   0  0  0  0  0  0  0  0  0  0  0  0
    3.0779    3.7657   81.1437 C   0  0  0  0  0  0  0  0  0  0  0  0
    1.5414    2.8987   78.3340 H   0  0  0  0  0  0  0  0  0  0  0  0
    3.0080    4.5911   77.2109 H   0  0  0  0  0  0  0  0  0  0  0  0
    6.4267    3.1922   78.7326 H   0  0  0  0  0  0  0  0  0  0  0  0
    6.5514    4.9036   80.9291 C   0  0  0  0  0  0  0  0  0  0  0  0
    6.8159    4.6782   82.2923 O   0  0  0  0  0  0  0  0  0  0  0  0
    6.4585    5.4118   82.8166 H   0  0  0  0  0  0  0  0  0  0  0  0
    1.7057    4.4130   82.1403 S   0  0  0  0  0  0  0  0  0  0  0  0
    0.8722    4.9613   81.2176 O   0  0  0  0  0  0  0  0  0  0  0  0
    2.1870    5.2062   83.1986 O   0  0  0  0  0  0  0  0  0  0  0  0
    1.1782    3.2487   82.7055 N   0  0  0  0  0  0  0  0  0  0  0  0
    0.1158    3.2327   83.3033 C   0  0  0  0  0  0  0  0  0  0  0  0
    1.3342    1.9334   82.1124 C   0  0  0  0  0  0  0  0  0  0  0  0
    0.0720    1.1603   82.4253 C   0  0  0  0  0  0  0  0  0  0  0  0
   -0.4035    1.7078   83.4424 C   0  0  0  0  0  0  0  0  0  0  0  0
    0.0104    1.0017   84.6669 O   0  0  0  0  0  0  0  0  0  0  0  0
   -0.3839    1.3922   86.1135 S   0  0  0  0  0  0  0  0  0  0  0  0
    0.8214    1.8298   86.7059 O   0  0  0  0  0  0  0  0  0  0  0  0
   -1.0414    0.3522   86.7246 O   0  0  0  0  0  0  0  0  0  0  0  0
   -1.5146    2.4310   86.0545 N   0  0  0  0  0  0  0  0  0  0  0  0
   -1.1702    3.2838   85.6136 H   0  0  0  0  0  0  0  0  0  0  0  0
   -1.8323    2.6418   87.0006 H   0  0  0  0  0  0  0  0  0  0  0  0
  6  5  1  0  0  0
  3  4  1  0  0  0
  5  1  1  0  0  0
  5  4  1  0  0  0
  1  7  1  0  0  0
  1  2  1  0  0  0
  4  9  1  0  0  0
 18 16  2  0  0  0
 17 16  2  0  0  0
  2  8  1  0  0  0
  2 13  1  0  0  0
  9 16  1  0  0  0
  9  8  1  0  0  0
 16 19  1  0  0  0
 13 14  1  0  0  0
 19 21  1  0  0  0
 19 20  1  0  0  0
 21 22  1  0  0  0
 20 23  1  0  0  0
 22 23  1  0  0  0
 23 24  1  0  0  0
 24 25  1  0  0  0
 28 25  1  0  0  0
 25 26  2  0  0  0
 25 27  2  0  0  0
 28 29  1  0  0  0
 28 30  1  0  0  0
  3 10  1  0  0  0
  6 11  1  0  0  0
  7 12  1  0  0  0
 14 15  1  0  0  0
M  END
> <minimizedAffinity>
-7.23975

$$$$
4R5A_3J4_A_303


 30 31  0  0  0  0  0  0  0  0999 V2000
   -1.4337    7.2867   82.7480 C   0  0  0  0  0  0  0  0  0  0  0  0
   -0.8526    6.5578   83.9489 C   0  0  0  0  0  0  0  0  0  0  0  0
   -0.7565    4.7117   80.2256 O   0  0  0  0  0  0  0  0  0  0  0  0
   -0.4091    5.5060   81.3155 C   0  0  0  0  0  0  0  0  0  0  0  0
   -1.0627    6.8325   81.4469 C   0  0  0  0  0  0  0  0  0  0  0  0
   -2.0533    7.1600   80.4602 O   0  0  0  0  0  0  0  0  0  0  0  0
   -1.2529    8.7158   82.8017 O   0  0  0  0  0  0  0  0  0  0  0  0
   -0.2515    5.2741   83.7920 O   0  0  0  0  0  0  0  0  0  0  0  0
    0.1402    4.7878   82.5515 C   0  0  0  0  0  0  0  0  0  0  0  0
   -1.0890    5.2741   79.5086 H   0  0  0  0  0  0  0  0  0  0  0  0
   -2.8595    6.6477   80.6290 H   0  0  0  0  0  0  0  0  0  0  0  0
   -0.3120    8.9268   82.6968 H   0  0  0  0  0  0  0  0  0  0  0  0
   -0.3360    7.4260   85.0455 C   0  0  0  0  0  0  0  0  0  0  0  0
   -1.1401    8.4589   85.5605 O   0  0  0  0  0  0  0  0  0  0  0  0
   -1.2835    9.1296   84.8746 H   0  0  0  0  0  0  0  0  0  0  0  0
    0.0054    2.9864   82.7298 S   0  0  0  0  0  0  0  0  0  0  0  0
   -1.2865    2.7284   82.3962 O   0  0  0  0  0  0  0  0  0  0  0  0
    0.4951    2.5698   83.9819 O   0  0  0  0  0  0  0  0  0  0  0  0
    0.9042    2.5274   81.7630 N   0  0  0  0  0  0  0  0  0  0  0  0
    2.0819    2.8425   81.7597 C   0  0  0  0  0  0  0  0  0  0  0  0
    0.8331    1.2032   81.1734 C   0  0  0  0  0  0  0  0  0  0  0  0
    2.2564    0.7695   80.8998 C   0  0  0  0  0  0  0  0  0  0  0  0
    2.9101    1.8301   80.8094 C   0  0  0  0  0  0  0  0  0  0  0  0
    3.0526    2.2465   79.4039 O   0  0  0  0  0  0  0  0  0  0  0  0
    3.9479    3.4015   78.8888 S   0  0  0  0  0  0  0  0  0  0  0  0
    4.9208    3.5758   79.8979 O   0  0  0  0  0  0  0  0  0  0  0  0
    3.1779    4.4922   78.5650 O   0  0  0  0  0  0  0  0  0  0  0  0
    4.4867    3.0275   77.4993 N   0  0  0  0  0  0  0  0  0  0  0  0
    5.0930    2.2110   77.5781 H   0  0  0  0  0  0  0  0  0  0  0  0
    5.0184    3.8103   77.1187 H   0  0  0  0  0  0  0  0  0  0  0  0
  6  5  1  0  0  0
  3  4  1  0  0  0
  5  1  1  0  0  0
  5  4  1  0  0  0
  1  7  1  0  0  0
  1  2  1  0  0  0
  4  9  1  0  0  0
 18 16  2  0  0  0
 17 16  2  0  0  0
  2  8  1  0  0  0
  2 13  1  0  0  0
  9 16  1  0  0  0
  9  8  1  0  0  0
 16 19  1  0  0  0
 13 14  1  0  0  0
 19 21  1  0  0  0
 19 20  1  0  0  0
 21 22  1  0  0  0
 20 23  1  0  0  0
 22 23  1  0  0  0
 23 24  1  0  0  0
 24 25  1  0  0  0
 28 25  1  0  0  0
 25 26  2  0  0  0
 25 27  2  0  0  0
 28 29  1  0  0  0
 28 30  1  0  0  0
  3 10  1  0  0  0
  6 11  1  0  0  0
  7 12  1  0  0  0
 14 15  1  0  0  0
M  END
> <minimizedAffinity>
-7.16486

$$$$
