1BNT_AL2_A_555


 27 29  0  0  0  0  0  0  0  0999 V2000
   -5.4436    2.1538   16.3172 C   0  0  0  0  0  0  0  0  0  0  0  0
   -2.4487    2.9751   13.2276 O   0  0  0  0  0  0  0  0  0  0  0  0
   -3.2195    5.2215   13.2937 C   0  0  0  0  0  0  0  0  0  0  0  0
   -2.8525    3.9814   14.1424 C   0  0  0  0  0  0  0  0  0  0  0  0
   -4.2429    2.2497   15.6643 C   0  0  0  0  0  0  0  0  0  0  0  0
   -4.0022    3.4414   15.0303 C   0  0  0  0  0  0  0  0  0  0  0  0
   -5.0730    4.2951   15.2336 C   0  0  0  0  0  0  0  0  0  0  0  0
   -6.3408    3.6066   16.1554 S   0  0  0  0  0  0  0  0  0  0  0  0
   -5.0845    5.9132   14.6589 S   0  0  0  0  0  0  0  0  0  0  0  0
   -5.9646    5.9780   13.5396 O   0  0  0  0  0  0  0  0  0  0  0  0
   -5.6083    6.7110   15.7245 O   0  0  0  0  0  0  0  0  0  0  0  0
   -3.6327    6.1800   14.3033 N   0  0  0  0  0  0  0  0  0  0  0  0
   -1.7291    3.3132   12.6719 H   0  0  0  0  0  0  0  0  0  0  0  0
   -3.1384    7.4257   14.3356 C   0  0  0  0  0  0  0  0  0  0  0  0
   -3.0325    8.1805   13.1588 C   0  0  0  0  0  0  0  0  0  0  0  0
   -2.5034    9.4682   13.2122 C   0  0  0  0  0  0  0  0  0  0  0  0
   -2.0628    9.9762   14.4359 C   0  0  0  0  0  0  0  0  0  0  0  0
   -2.1397    9.2156   15.6120 C   0  0  0  0  0  0  0  0  0  0  0  0
   -2.6869    7.9358   15.5599 C   0  0  0  0  0  0  0  0  0  0  0  0
   -1.6030   11.2809   14.4473 O   0  0  0  0  0  0  0  0  0  0  0  0
   -2.4970   12.2379   13.8565 C   0  0  0  0  0  0  0  0  0  0  0  0
   -5.5671   -0.4056   16.7120 O   0  0  0  0  0  0  0  0  0  0  0  0
   -5.5904    0.9949   18.5103 O   0  0  0  0  0  0  0  0  0  0  0  0
   -7.5437    0.8157   17.1651 N   0  0  0  0  0  0  0  0  0  0  0  0
   -6.0703    0.8191   17.1941 S   0  0  0  0  0  0  0  0  0  0  0  0
   -7.8646    0.6874   16.2055 H   0  0  0  0  0  0  0  0  0  0  0  0
   -7.8929    1.7041   17.5246 H   0  0  0  0  0  0  0  0  0  0  0  0
  1 25  1  0  0  0
  1  5  2  0  0  0
  1  8  1  0  0  0
  2  4  1  0  0  0
  3  4  1  0  0  0
  3 12  1  0  0  0
  4  6  1  0  0  0
 14 15  2  0  0  0
 14 19  1  0  0  0
 14 12  1  0  0  0
 15 16  1  0  0  0
 16 17  2  0  0  0
 17 18  1  0  0  0
 17 20  1  0  0  0
 18 19  2  0  0  0
 22 25  2  0  0  0
 23 25  2  0  0  0
 24 25  1  0  0  0
  5  6  1  0  0  0
  6  7  2  0  0  0
  7  8  1  0  0  0
  7  9  1  0  0  0
  9 10  2  0  0  0
  9 11  2  0  0  0
  9 12  1  0  0  0
 20 21  1  0  0  0
  2 13  1  0  0  0
 24 26  1  0  0  0
 24 27  1  0  0  0
M  END
> <minimizedAffinity>
-8.10232

$$$$
1BNT_AL2_A_555


 27 29  0  0  0  0  0  0  0  0999 V2000
    0.6895    4.5181   11.1735 C   0  0  0  0  0  0  0  0  0  0  0  0
   -1.7729    7.3390   13.4469 O   0  0  0  0  0  0  0  0  0  0  0  0
   -3.3870    5.5994   13.5635 C   0  0  0  0  0  0  0  0  0  0  0  0
   -1.8808    5.9397   13.6547 C   0  0  0  0  0  0  0  0  0  0  0  0
    0.2780    5.3977   12.1400 C   0  0  0  0  0  0  0  0  0  0  0  0
   -0.9858    5.1950   12.6319 C   0  0  0  0  0  0  0  0  0  0  0  0
   -1.5481    4.0908   12.0145 C   0  0  0  0  0  0  0  0  0  0  0  0
   -0.5356    3.3649   10.8401 S   0  0  0  0  0  0  0  0  0  0  0  0
   -3.0955    3.4824   12.4438 S   0  0  0  0  0  0  0  0  0  0  0  0
   -4.0098    3.8301   11.4071 O   0  0  0  0  0  0  0  0  0  0  0  0
   -2.9616    2.0595   12.5044 O   0  0  0  0  0  0  0  0  0  0  0  0
   -3.3954    4.1617   13.7681 N   0  0  0  0  0  0  0  0  0  0  0  0
   -2.3331    7.8050   14.0871 H   0  0  0  0  0  0  0  0  0  0  0  0
   -4.2060    3.5830   14.6655 C   0  0  0  0  0  0  0  0  0  0  0  0
   -3.7411    2.5363   15.4741 C   0  0  0  0  0  0  0  0  0  0  0  0
   -4.6037    1.9394   16.3910 C   0  0  0  0  0  0  0  0  0  0  0  0
   -5.9270    2.3781   16.4705 C   0  0  0  0  0  0  0  0  0  0  0  0
   -6.4061    3.4055   15.6444 C   0  0  0  0  0  0  0  0  0  0  0  0
   -5.5369    4.0141   14.7421 C   0  0  0  0  0  0  0  0  0  0  0  0
   -6.7261    1.7963   17.4384 O   0  0  0  0  0  0  0  0  0  0  0  0
   -6.4045    0.4290   17.7404 C   0  0  0  0  0  0  0  0  0  0  0  0
    2.4169    5.6791    9.6275 O   0  0  0  0  0  0  0  0  0  0  0  0
    3.1645    4.3929   11.3545 O   0  0  0  0  0  0  0  0  0  0  0  0
    2.2590    3.3252    9.4317 N   0  0  0  0  0  0  0  0  0  0  0  0
    2.1879    4.4845   10.3388 S   0  0  0  0  0  0  0  0  0  0  0  0
    1.5451    3.4150    8.7087 H   0  0  0  0  0  0  0  0  0  0  0  0
    2.1001    2.4684    9.9619 H   0  0  0  0  0  0  0  0  0  0  0  0
  1 25  1  0  0  0
  1  5  2  0  0  0
  1  8  1  0  0  0
  2  4  1  0  0  0
  3  4  1  0  0  0
  3 12  1  0  0  0
  4  6  1  0  0  0
 14 15  2  0  0  0
 14 19  1  0  0  0
 14 12  1  0  0  0
 15 16  1  0  0  0
 16 17  2  0  0  0
 17 18  1  0  0  0
 17 20  1  0  0  0
 18 19  2  0  0  0
 22 25  2  0  0  0
 23 25  2  0  0  0
 24 25  1  0  0  0
  5  6  1  0  0  0
  6  7  2  0  0  0
  7  8  1  0  0  0
  7  9  1  0  0  0
  9 10  2  0  0  0
  9 11  2  0  0  0
  9 12  1  0  0  0
 20 21  1  0  0  0
  2 13  1  0  0  0
 24 26  1  0  0  0
 24 27  1  0  0  0
M  END
> <minimizedAffinity>
-7.50570

$$$$
1BNT_AL2_A_555


 27 29  0  0  0  0  0  0  0  0999 V2000
   -4.1729    1.6642   11.6198 C   0  0  0  0  0  0  0  0  0  0  0  0
   -5.5311    5.7059   10.6149 O   0  0  0  0  0  0  0  0  0  0  0  0
   -4.7797    6.3316   12.7803 C   0  0  0  0  0  0  0  0  0  0  0  0
   -4.4572    5.4973   11.5182 C   0  0  0  0  0  0  0  0  0  0  0  0
   -4.3147    2.8644   10.9743 C   0  0  0  0  0  0  0  0  0  0  0  0
   -4.2840    3.9785   11.7731 C   0  0  0  0  0  0  0  0  0  0  0  0
   -4.0896    3.5957   13.0893 C   0  0  0  0  0  0  0  0  0  0  0  0
   -3.9862    1.9008   13.3083 S   0  0  0  0  0  0  0  0  0  0  0  0
   -3.9095    4.7326   14.3635 S   0  0  0  0  0  0  0  0  0  0  0  0
   -5.1132    4.7346   15.1269 O   0  0  0  0  0  0  0  0  0  0  0  0
   -2.8314    4.2558   15.1737 O   0  0  0  0  0  0  0  0  0  0  0  0
   -3.6478    6.0433   13.6431 N   0  0  0  0  0  0  0  0  0  0  0  0
   -5.6394    6.6565   10.4555 H   0  0  0  0  0  0  0  0  0  0  0  0
   -2.9466    7.0207   14.2347 C   0  0  0  0  0  0  0  0  0  0  0  0
   -3.4409    7.6577   15.3817 C   0  0  0  0  0  0  0  0  0  0  0  0
   -2.7027    8.6805   15.9733 C   0  0  0  0  0  0  0  0  0  0  0  0
   -1.4926    9.0718   15.3970 C   0  0  0  0  0  0  0  0  0  0  0  0
   -1.0063    8.4580   14.2332 C   0  0  0  0  0  0  0  0  0  0  0  0
   -1.7363    7.4225   13.6545 C   0  0  0  0  0  0  0  0  0  0  0  0
   -0.7680   10.0488   16.0561 O   0  0  0  0  0  0  0  0  0  0  0  0
    0.4578   10.4266   15.4090 C   0  0  0  0  0  0  0  0  0  0  0  0
   -3.9068   -0.8983   11.9106 O   0  0  0  0  0  0  0  0  0  0  0  0
   -5.4987   -0.1047   10.4852 O   0  0  0  0  0  0  0  0  0  0  0  0
   -3.2145   -0.0078    9.8293 N   0  0  0  0  0  0  0  0  0  0  0  0
   -4.1766    0.0884   10.9415 S   0  0  0  0  0  0  0  0  0  0  0  0
   -2.2690    0.1350   10.1843 H   0  0  0  0  0  0  0  0  0  0  0  0
   -3.4276    0.7062    9.1327 H   0  0  0  0  0  0  0  0  0  0  0  0
  1 25  1  0  0  0
  1  5  2  0  0  0
  1  8  1  0  0  0
  2  4  1  0  0  0
  3  4  1  0  0  0
  3 12  1  0  0  0
  4  6  1  0  0  0
 14 15  2  0  0  0
 14 19  1  0  0  0
 14 12  1  0  0  0
 15 16  1  0  0  0
 16 17  2  0  0  0
 17 18  1  0  0  0
 17 20  1  0  0  0
 18 19  2  0  0  0
 22 25  2  0  0  0
 23 25  2  0  0  0
 24 25  1  0  0  0
  5  6  1  0  0  0
  6  7  2  0  0  0
  7  8  1  0  0  0
  7  9  1  0  0  0
  9 10  2  0  0  0
  9 11  2  0  0  0
  9 12  1  0  0  0
 20 21  1  0  0  0
  2 13  1  0  0  0
 24 26  1  0  0  0
 24 27  1  0  0  0
M  END
> <minimizedAffinity>
-7.27985

$$$$
1BNT_AL2_A_555


 27 29  0  0  0  0  0  0  0  0999 V2000
   -5.4057    1.6486   15.8911 C   0  0  0  0  0  0  0  0  0  0  0  0
   -4.4239   -0.3313   12.1088 O   0  0  0  0  0  0  0  0  0  0  0  0
   -3.6933    1.8014   11.3586 C   0  0  0  0  0  0  0  0  0  0  0  0
   -3.7045    0.8105   12.5464 C   0  0  0  0  0  0  0  0  0  0  0  0
   -4.8534    0.7860   14.9811 C   0  0  0  0  0  0  0  0  0  0  0  0
   -4.3493    1.3618   13.8433 C   0  0  0  0  0  0  0  0  0  0  0  0
   -4.5151    2.7347   13.9102 C   0  0  0  0  0  0  0  0  0  0  0  0
   -5.3048    3.2672   15.3328 S   0  0  0  0  0  0  0  0  0  0  0  0
   -3.9217    3.7955   12.6972 S   0  0  0  0  0  0  0  0  0  0  0  0
   -5.0328    4.2595   11.9344 O   0  0  0  0  0  0  0  0  0  0  0  0
   -3.3242    4.8964   13.3880 O   0  0  0  0  0  0  0  0  0  0  0  0
   -2.9600    2.9313   11.9013 N   0  0  0  0  0  0  0  0  0  0  0  0
   -4.0203   -0.6763   11.2971 H   0  0  0  0  0  0  0  0  0  0  0  0
   -1.9285    3.4817   11.2454 C   0  0  0  0  0  0  0  0  0  0  0  0
   -2.1323    4.1487   10.0291 C   0  0  0  0  0  0  0  0  0  0  0  0
   -1.0447    4.7019    9.3568 C   0  0  0  0  0  0  0  0  0  0  0  0
    0.2360    4.5597    9.8945 C   0  0  0  0  0  0  0  0  0  0  0  0
    0.4502    3.8689   11.0965 C   0  0  0  0  0  0  0  0  0  0  0  0
   -0.6407    3.3334   11.7770 C   0  0  0  0  0  0  0  0  0  0  0  0
    1.2740    5.1792    9.2216 O   0  0  0  0  0  0  0  0  0  0  0  0
    1.2026    6.6139    9.1978 C   0  0  0  0  0  0  0  0  0  0  0  0
   -5.3922    0.3115   18.1123 O   0  0  0  0  0  0  0  0  0  0  0  0
   -6.0850    2.4830   18.1308 O   0  0  0  0  0  0  0  0  0  0  0  0
   -7.5228    0.8235   17.2166 N   0  0  0  0  0  0  0  0  0  0  0  0
   -6.1323    1.2760   17.3999 S   0  0  0  0  0  0  0  0  0  0  0  0
   -7.5298   -0.0481   16.6870 H   0  0  0  0  0  0  0  0  0  0  0  0
   -8.0475    1.5349   16.7076 H   0  0  0  0  0  0  0  0  0  0  0  0
  1 25  1  0  0  0
  1  5  2  0  0  0
  1  8  1  0  0  0
  2  4  1  0  0  0
  3  4  1  0  0  0
  3 12  1  0  0  0
  4  6  1  0  0  0
 14 15  2  0  0  0
 14 19  1  0  0  0
 14 12  1  0  0  0
 15 16  1  0  0  0
 16 17  2  0  0  0
 17 18  1  0  0  0
 17 20  1  0  0  0
 18 19  2  0  0  0
 22 25  2  0  0  0
 23 25  2  0  0  0
 24 25  1  0  0  0
  5  6  1  0  0  0
  6  7  2  0  0  0
  7  8  1  0  0  0
  7  9  1  0  0  0
  9 10  2  0  0  0
  9 11  2  0  0  0
  9 12  1  0  0  0
 20 21  1  0  0  0
  2 13  1  0  0  0
 24 26  1  0  0  0
 24 27  1  0  0  0
M  END
> <minimizedAffinity>
-7.25464

$$$$
1BNT_AL2_A_555


 27 29  0  0  0  0  0  0  0  0999 V2000
   -3.9375    1.5678   11.8834 C   0  0  0  0  0  0  0  0  0  0  0  0
   -6.2753    4.0002   14.6776 O   0  0  0  0  0  0  0  0  0  0  0  0
   -4.3354    5.3569   14.8806 C   0  0  0  0  0  0  0  0  0  0  0  0
   -5.2376    4.5734   13.8983 C   0  0  0  0  0  0  0  0  0  0  0  0
   -4.9308    2.3547   12.4045 C   0  0  0  0  0  0  0  0  0  0  0  0
   -4.5128    3.4583   13.1027 C   0  0  0  0  0  0  0  0  0  0  0  0
   -3.1296    3.5142   13.0897 C   0  0  0  0  0  0  0  0  0  0  0  0
   -2.3926    2.2096   12.2615 S   0  0  0  0  0  0  0  0  0  0  0  0
   -2.2524    4.8128   13.7918 S   0  0  0  0  0  0  0  0  0  0  0  0
   -1.6654    4.3450   15.0036 O   0  0  0  0  0  0  0  0  0  0  0  0
   -1.2202    5.1468   12.8595 O   0  0  0  0  0  0  0  0  0  0  0  0
   -3.3053    5.8860   14.0045 N   0  0  0  0  0  0  0  0  0  0  0  0
   -6.7289    4.6981   15.1756 H   0  0  0  0  0  0  0  0  0  0  0  0
   -2.9666    7.1830   14.0189 C   0  0  0  0  0  0  0  0  0  0  0  0
   -2.9619    7.9310   12.8330 C   0  0  0  0  0  0  0  0  0  0  0  0
   -2.5937    9.2741   12.8679 C   0  0  0  0  0  0  0  0  0  0  0  0
   -2.2099    9.8467   14.0822 C   0  0  0  0  0  0  0  0  0  0  0  0
   -2.1851    9.0965   15.2672 C   0  0  0  0  0  0  0  0  0  0  0  0
   -2.5722    7.7589   15.2337 C   0  0  0  0  0  0  0  0  0  0  0  0
   -1.9127   11.1978   14.0754 O   0  0  0  0  0  0  0  0  0  0  0  0
   -0.5998   11.5264   14.5574 C   0  0  0  0  0  0  0  0  0  0  0  0
   -3.8884   -1.0221   11.7733 O   0  0  0  0  0  0  0  0  0  0  0  0
   -5.4431    0.1093   10.5492 O   0  0  0  0  0  0  0  0  0  0  0  0
   -3.1780    0.1179    9.8241 N   0  0  0  0  0  0  0  0  0  0  0  0
   -4.0973    0.1207   10.9759 S   0  0  0  0  0  0  0  0  0  0  0  0
   -2.2143    0.1262   10.1582 H   0  0  0  0  0  0  0  0  0  0  0  0
   -3.3468    0.9455    9.2523 H   0  0  0  0  0  0  0  0  0  0  0  0
  1 25  1  0  0  0
  1  5  2  0  0  0
  1  8  1  0  0  0
  2  4  1  0  0  0
  3  4  1  0  0  0
  3 12  1  0  0  0
  4  6  1  0  0  0
 14 15  2  0  0  0
 14 19  1  0  0  0
 14 12  1  0  0  0
 15 16  1  0  0  0
 16 17  2  0  0  0
 17 18  1  0  0  0
 17 20  1  0  0  0
 18 19  2  0  0  0
 22 25  2  0  0  0
 23 25  2  0  0  0
 24 25  1  0  0  0
  5  6  1  0  0  0
  6  7  2  0  0  0
  7  8  1  0  0  0
  7  9  1  0  0  0
  9 10  2  0  0  0
  9 11  2  0  0  0
  9 12  1  0  0  0
 20 21  1  0  0  0
  2 13  1  0  0  0
 24 26  1  0  0  0
 24 27  1  0  0  0
M  END
> <minimizedAffinity>
-6.96296

$$$$
1BNT_AL2_A_555


 27 29  0  0  0  0  0  0  0  0999 V2000
   -4.4919    2.0884   14.7093 C   0  0  0  0  0  0  0  0  0  0  0  0
   -4.7811    1.9918   10.3394 O   0  0  0  0  0  0  0  0  0  0  0  0
   -4.4251    4.3396   10.4167 C   0  0  0  0  0  0  0  0  0  0  0  0
   -3.9973    2.9724   11.0002 C   0  0  0  0  0  0  0  0  0  0  0  0
   -4.2505    1.7741   13.3977 C   0  0  0  0  0  0  0  0  0  0  0  0
   -4.1832    2.8358   12.5326 C   0  0  0  0  0  0  0  0  0  0  0  0
   -4.3655    4.0144   13.2358 C   0  0  0  0  0  0  0  0  0  0  0  0
   -4.6442    3.7850   14.9094 S   0  0  0  0  0  0  0  0  0  0  0  0
   -4.2571    5.5583   12.4920 S   0  0  0  0  0  0  0  0  0  0  0  0
   -5.5769    6.0820   12.3674 O   0  0  0  0  0  0  0  0  0  0  0  0
   -3.5004    6.3793   13.3862 O   0  0  0  0  0  0  0  0  0  0  0  0
   -3.5921    5.2700   11.1578 N   0  0  0  0  0  0  0  0  0  0  0  0
   -4.6647    2.0773    9.3802 H   0  0  0  0  0  0  0  0  0  0  0  0
   -2.8646    6.2106   10.5388 C   0  0  0  0  0  0  0  0  0  0  0  0
   -3.4919    7.2827    9.8886 C   0  0  0  0  0  0  0  0  0  0  0  0
   -2.7178    8.2422    9.2397 C   0  0  0  0  0  0  0  0  0  0  0  0
   -1.3283    8.1051    9.2263 C   0  0  0  0  0  0  0  0  0  0  0  0
   -0.6961    7.0196    9.8505 C   0  0  0  0  0  0  0  0  0  0  0  0
   -1.4707    6.0718   10.5153 C   0  0  0  0  0  0  0  0  0  0  0  0
   -0.6016    9.1155    8.6223 O   0  0  0  0  0  0  0  0  0  0  0  0
   -0.7088   10.3973    9.2623 C   0  0  0  0  0  0  0  0  0  0  0  0
   -4.9462   -0.2923   15.6300 O   0  0  0  0  0  0  0  0  0  0  0  0
   -3.3731    1.0068   16.6465 O   0  0  0  0  0  0  0  0  0  0  0  0
   -5.6735    1.5064   16.9864 N   0  0  0  0  0  0  0  0  0  0  0  0
   -4.6497    1.0216   16.0436 S   0  0  0  0  0  0  0  0  0  0  0  0
   -6.5846    1.5076   16.5279 H   0  0  0  0  0  0  0  0  0  0  0  0
   -5.4409    2.4542   17.2831 H   0  0  0  0  0  0  0  0  0  0  0  0
  1 25  1  0  0  0
  1  5  2  0  0  0
  1  8  1  0  0  0
  2  4  1  0  0  0
  3  4  1  0  0  0
  3 12  1  0  0  0
  4  6  1  0  0  0
 14 15  2  0  0  0
 14 19  1  0  0  0
 14 12  1  0  0  0
 15 16  1  0  0  0
 16 17  2  0  0  0
 17 18  1  0  0  0
 17 20  1  0  0  0
 18 19  2  0  0  0
 22 25  2  0  0  0
 23 25  2  0  0  0
 24 25  1  0  0  0
  5  6  1  0  0  0
  6  7  2  0  0  0
  7  8  1  0  0  0
  7  9  1  0  0  0
  9 10  2  0  0  0
  9 11  2  0  0  0
  9 12  1  0  0  0
 20 21  1  0  0  0
  2 13  1  0  0  0
 24 26  1  0  0  0
 24 27  1  0  0  0
M  END
> <minimizedAffinity>
-6.81681

$$$$
1BNT_AL2_A_555


 27 29  0  0  0  0  0  0  0  0999 V2000
   -4.4445    1.9988   14.7910 C   0  0  0  0  0  0  0  0  0  0  0  0
   -4.7684    1.8916   10.4237 O   0  0  0  0  0  0  0  0  0  0  0  0
   -3.1919    3.6691   10.4161 C   0  0  0  0  0  0  0  0  0  0  0  0
   -3.5730    2.3150   11.0595 C   0  0  0  0  0  0  0  0  0  0  0  0
   -4.4216    1.5490   13.4970 C   0  0  0  0  0  0  0  0  0  0  0  0
   -3.7932    2.3660   12.5927 C   0  0  0  0  0  0  0  0  0  0  0  0
   -3.3004    3.4825   13.2463 C   0  0  0  0  0  0  0  0  0  0  0  0
   -3.6481    3.5121   14.9224 S   0  0  0  0  0  0  0  0  0  0  0  0
   -2.3743    4.6864   12.4451 S   0  0  0  0  0  0  0  0  0  0  0  0
   -3.1976    5.8379   12.2774 O   0  0  0  0  0  0  0  0  0  0  0  0
   -1.2870    5.0007   13.3198 O   0  0  0  0  0  0  0  0  0  0  0  0
   -1.9820    4.0272   11.1349 N   0  0  0  0  0  0  0  0  0  0  0  0
   -4.6305    1.8597    9.4641 H   0  0  0  0  0  0  0  0  0  0  0  0
   -0.8640    4.3940   10.4926 C   0  0  0  0  0  0  0  0  0  0  0  0
   -0.7918    5.6323    9.8391 C   0  0  0  0  0  0  0  0  0  0  0  0
    0.3747    5.9885    9.1659 C   0  0  0  0  0  0  0  0  0  0  0  0
    1.4453    5.0926    9.1320 C   0  0  0  0  0  0  0  0  0  0  0  0
    1.3692    3.8404    9.7596 C   0  0  0  0  0  0  0  0  0  0  0  0
    0.2092    3.4943   10.4485 C   0  0  0  0  0  0  0  0  0  0  0  0
    2.6024    5.5175    8.5038 O   0  0  0  0  0  0  0  0  0  0  0  0
    3.8198    5.1195    9.1546 C   0  0  0  0  0  0  0  0  0  0  0  0
   -4.5118    1.6373   17.3574 O   0  0  0  0  0  0  0  0  0  0  0  0
   -6.4735    1.7332   16.2006 O   0  0  0  0  0  0  0  0  0  0  0  0
   -5.1284   -0.2207   16.0264 N   0  0  0  0  0  0  0  0  0  0  0  0
   -5.1486    1.2466   16.1627 S   0  0  0  0  0  0  0  0  0  0  0  0
   -4.1622   -0.5466   16.0015 H   0  0  0  0  0  0  0  0  0  0  0  0
   -5.5999   -0.4884   15.1625 H   0  0  0  0  0  0  0  0  0  0  0  0
  1 25  1  0  0  0
  1  5  2  0  0  0
  1  8  1  0  0  0
  2  4  1  0  0  0
  3  4  1  0  0  0
  3 12  1  0  0  0
  4  6  1  0  0  0
 14 15  2  0  0  0
 14 19  1  0  0  0
 14 12  1  0  0  0
 15 16  1  0  0  0
 16 17  2  0  0  0
 17 18  1  0  0  0
 17 20  1  0  0  0
 18 19  2  0  0  0
 22 25  2  0  0  0
 23 25  2  0  0  0
 24 25  1  0  0  0
  5  6  1  0  0  0
  6  7  2  0  0  0
  7  8  1  0  0  0
  7  9  1  0  0  0
  9 10  2  0  0  0
  9 11  2  0  0  0
  9 12  1  0  0  0
 20 21  1  0  0  0
  2 13  1  0  0  0
 24 26  1  0  0  0
 24 27  1  0  0  0
M  END
> <minimizedAffinity>
-6.81368

$$$$
1BNT_AL2_A_555


 27 29  0  0  0  0  0  0  0  0999 V2000
   -2.5401    8.6871   11.6531 C   0  0  0  0  0  0  0  0  0  0  0  0
   -3.2289    8.5012   15.9751 O   0  0  0  0  0  0  0  0  0  0  0  0
   -4.6047    6.6182   15.5204 C   0  0  0  0  0  0  0  0  0  0  0  0
   -3.2759    7.3308   15.1748 C   0  0  0  0  0  0  0  0  0  0  0  0
   -2.3163    8.5980   13.0018 C   0  0  0  0  0  0  0  0  0  0  0  0
   -3.1183    7.7185   13.6826 C   0  0  0  0  0  0  0  0  0  0  0  0
   -3.9798    7.0987   12.7936 C   0  0  0  0  0  0  0  0  0  0  0  0
   -3.8052    7.6318   11.1760 S   0  0  0  0  0  0  0  0  0  0  0  0
   -5.0736    5.8662   13.2765 S   0  0  0  0  0  0  0  0  0  0  0  0
   -6.3859    6.4224   13.2939 O   0  0  0  0  0  0  0  0  0  0  0  0
   -4.9991    4.8509   12.2716 O   0  0  0  0  0  0  0  0  0  0  0  0
   -4.5719    5.4565   14.6497 N   0  0  0  0  0  0  0  0  0  0  0  0
   -3.3275    8.2584   16.9090 H   0  0  0  0  0  0  0  0  0  0  0  0
   -4.7924    4.2197   15.1175 C   0  0  0  0  0  0  0  0  0  0  0  0
   -3.7536    3.2791   15.1612 C   0  0  0  0  0  0  0  0  0  0  0  0
   -4.0072    1.9950   15.6383 C   0  0  0  0  0  0  0  0  0  0  0  0
   -5.3010    1.6585   16.0416 C   0  0  0  0  0  0  0  0  0  0  0  0
   -6.3510    2.5862   15.9736 C   0  0  0  0  0  0  0  0  0  0  0  0
   -6.0911    3.8753   15.5146 C   0  0  0  0  0  0  0  0  0  0  0  0
   -5.4881    0.3916   16.5648 O   0  0  0  0  0  0  0  0  0  0  0  0
   -6.3027    0.3445   17.7473 C   0  0  0  0  0  0  0  0  0  0  0  0
   -1.9129   11.0521   10.7955 O   0  0  0  0  0  0  0  0  0  0  0  0
   -0.3690    9.3804   10.6633 O   0  0  0  0  0  0  0  0  0  0  0  0
   -2.1955    9.3839    9.1399 N   0  0  0  0  0  0  0  0  0  0  0  0
   -1.7393    9.6835   10.5088 S   0  0  0  0  0  0  0  0  0  0  0  0
   -3.1862    9.6109    9.0543 H   0  0  0  0  0  0  0  0  0  0  0  0
   -2.0557    8.3926    8.9442 H   0  0  0  0  0  0  0  0  0  0  0  0
  1 25  1  0  0  0
  1  5  2  0  0  0
  1  8  1  0  0  0
  2  4  1  0  0  0
  3  4  1  0  0  0
  3 12  1  0  0  0
  4  6  1  0  0  0
 14 15  2  0  0  0
 14 19  1  0  0  0
 14 12  1  0  0  0
 15 16  1  0  0  0
 16 17  2  0  0  0
 17 18  1  0  0  0
 17 20  1  0  0  0
 18 19  2  0  0  0
 22 25  2  0  0  0
 23 25  2  0  0  0
 24 25  1  0  0  0
  5  6  1  0  0  0
  6  7  2  0  0  0
  7  8  1  0  0  0
  7  9  1  0  0  0
  9 10  2  0  0  0
  9 11  2  0  0  0
  9 12  1  0  0  0
 20 21  1  0  0  0
  2 13  1  0  0  0
 24 26  1  0  0  0
 24 27  1  0  0  0
M  END
> <minimizedAffinity>
-6.56360

$$$$
1BNT_AL2_A_555


 27 29  0  0  0  0  0  0  0  0999 V2000
   -2.5041    8.3293   14.4794 C   0  0  0  0  0  0  0  0  0  0  0  0
   -5.9790    6.0523   15.8684 O   0  0  0  0  0  0  0  0  0  0  0  0
   -5.6822    4.7104   13.9303 C   0  0  0  0  0  0  0  0  0  0  0  0
   -4.9636    5.4380   15.0910 C   0  0  0  0  0  0  0  0  0  0  0  0
   -3.3309    7.5715   15.2663 C   0  0  0  0  0  0  0  0  0  0  0  0
   -3.9349    6.5082   14.6460 C   0  0  0  0  0  0  0  0  0  0  0  0
   -3.5248    6.4528   13.3248 C   0  0  0  0  0  0  0  0  0  0  0  0
   -2.4515    7.7105   12.8807 S   0  0  0  0  0  0  0  0  0  0  0  0
   -4.0098    5.1954   12.2605 S   0  0  0  0  0  0  0  0  0  0  0  0
   -4.9733    5.7296   11.3561 O   0  0  0  0  0  0  0  0  0  0  0  0
   -2.8373    4.8116   11.5366 O   0  0  0  0  0  0  0  0  0  0  0  0
   -4.5741    4.1348   13.1888 N   0  0  0  0  0  0  0  0  0  0  0  0
   -6.6228    5.3824   16.1469 H   0  0  0  0  0  0  0  0  0  0  0  0
   -4.5578    2.8408   12.8389 C   0  0  0  0  0  0  0  0  0  0  0  0
   -4.9267    2.4485   11.5443 C   0  0  0  0  0  0  0  0  0  0  0  0
   -4.9158    1.0973   11.2052 C   0  0  0  0  0  0  0  0  0  0  0  0
   -4.5617    0.1528   12.1707 C   0  0  0  0  0  0  0  0  0  0  0  0
   -4.2192    0.5364   13.4757 C   0  0  0  0  0  0  0  0  0  0  0  0
   -4.2119    1.8892   13.8073 C   0  0  0  0  0  0  0  0  0  0  0  0
   -4.5068   -1.1695   11.7677 O   0  0  0  0  0  0  0  0  0  0  0  0
   -3.1835   -1.6617   11.5015 C   0  0  0  0  0  0  0  0  0  0  0  0
   -2.3262   10.9092   14.6651 O   0  0  0  0  0  0  0  0  0  0  0  0
   -1.4331    9.6157   16.3159 O   0  0  0  0  0  0  0  0  0  0  0  0
   -0.3072    9.7540   14.2254 N   0  0  0  0  0  0  0  0  0  0  0  0
   -1.6072    9.7242   14.9189 S   0  0  0  0  0  0  0  0  0  0  0  0
   -0.4600    9.8326   13.2199 H   0  0  0  0  0  0  0  0  0  0  0  0
    0.2046    8.8946   14.4253 H   0  0  0  0  0  0  0  0  0  0  0  0
  1 25  1  0  0  0
  1  5  2  0  0  0
  1  8  1  0  0  0
  2  4  1  0  0  0
  3  4  1  0  0  0
  3 12  1  0  0  0
  4  6  1  0  0  0
 14 15  2  0  0  0
 14 19  1  0  0  0
 14 12  1  0  0  0
 15 16  1  0  0  0
 16 17  2  0  0  0
 17 18  1  0  0  0
 17 20  1  0  0  0
 18 19  2  0  0  0
 22 25  2  0  0  0
 23 25  2  0  0  0
 24 25  1  0  0  0
  5  6  1  0  0  0
  6  7  2  0  0  0
  7  8  1  0  0  0
  7  9  1  0  0  0
  9 10  2  0  0  0
  9 11  2  0  0  0
  9 12  1  0  0  0
 20 21  1  0  0  0
  2 13  1  0  0  0
 24 26  1  0  0  0
 24 27  1  0  0  0
M  END
> <minimizedAffinity>
-6.55104

$$$$
1BNT_AL2_A_555


 27 29  0  0  0  0  0  0  0  0999 V2000
   -3.4443    1.4814   11.5576 C   0  0  0  0  0  0  0  0  0  0  0  0
   -3.1838    3.4895   15.4420 O   0  0  0  0  0  0  0  0  0  0  0  0
   -2.0576    5.2367   14.2914 C   0  0  0  0  0  0  0  0  0  0  0  0
   -3.2333    4.2330   14.2348 C   0  0  0  0  0  0  0  0  0  0  0  0
   -3.7998    2.0623   12.7464 C   0  0  0  0  0  0  0  0  0  0  0  0
   -3.1976    3.2616   13.0279 C   0  0  0  0  0  0  0  0  0  0  0  0
   -2.3573    3.6105   11.9844 C   0  0  0  0  0  0  0  0  0  0  0  0
   -2.3062    2.4552   10.7220 S   0  0  0  0  0  0  0  0  0  0  0  0
   -1.5004    5.0981   11.9482 S   0  0  0  0  0  0  0  0  0  0  0  0
   -0.1288    4.8244   12.2231 O   0  0  0  0  0  0  0  0  0  0  0  0
   -1.6288    5.5998   10.6148 O   0  0  0  0  0  0  0  0  0  0  0  0
   -2.1781    5.9310   13.0217 N   0  0  0  0  0  0  0  0  0  0  0  0
   -3.2061    4.0976   16.1974 H   0  0  0  0  0  0  0  0  0  0  0  0
   -2.1810    7.2695   12.9487 C   0  0  0  0  0  0  0  0  0  0  0  0
   -3.2036    7.9432   12.2659 C   0  0  0  0  0  0  0  0  0  0  0  0
   -3.1806    9.3342   12.1903 C   0  0  0  0  0  0  0  0  0  0  0  0
   -2.1228   10.0333   12.7752 C   0  0  0  0  0  0  0  0  0  0  0  0
   -1.0817    9.3637   13.4350 C   0  0  0  0  0  0  0  0  0  0  0  0
   -1.1168    7.9743   13.5263 C   0  0  0  0  0  0  0  0  0  0  0  0
   -2.1775   11.4148   12.7261 O   0  0  0  0  0  0  0  0  0  0  0  0
   -2.4021   12.0523   13.9940 C   0  0  0  0  0  0  0  0  0  0  0  0
   -3.8348   -1.0686   11.8162 O   0  0  0  0  0  0  0  0  0  0  0  0
   -5.3687    0.1773   10.6800 O   0  0  0  0  0  0  0  0  0  0  0  0
   -3.2863   -0.3133    9.6407 N   0  0  0  0  0  0  0  0  0  0  0  0
   -3.9865   -0.0079   10.9010 S   0  0  0  0  0  0  0  0  0  0  0  0
   -2.2918   -0.4423    9.8269 H   0  0  0  0  0  0  0  0  0  0  0  0
   -3.4123    0.4588    8.9861 H   0  0  0  0  0  0  0  0  0  0  0  0
  1 25  1  0  0  0
  1  5  2  0  0  0
  1  8  1  0  0  0
  2  4  1  0  0  0
  3  4  1  0  0  0
  3 12  1  0  0  0
  4  6  1  0  0  0
 14 15  2  0  0  0
 14 19  1  0  0  0
 14 12  1  0  0  0
 15 16  1  0  0  0
 16 17  2  0  0  0
 17 18  1  0  0  0
 17 20  1  0  0  0
 18 19  2  0  0  0
 22 25  2  0  0  0
 23 25  2  0  0  0
 24 25  1  0  0  0
  5  6  1  0  0  0
  6  7  2  0  0  0
  7  8  1  0  0  0
  7  9  1  0  0  0
  9 10  2  0  0  0
  9 11  2  0  0  0
  9 12  1  0  0  0
 20 21  1  0  0  0
  2 13  1  0  0  0
 24 26  1  0  0  0
 24 27  1  0  0  0
M  END
> <minimizedAffinity>
-6.44309

$$$$
