2VL4_MNM_A_1865
  RCSB PDB12061707073D
Coordinates from PDB:2VL4:A:1865 Model:1 without hydrogens
 11 11  0  0  0  0            999 V2000
   27.9420   47.1990    0.2660   C 0  0  0  0  0  0  0  0  0  0  0  0
   27.3400   45.8880   -0.2660   C 0  0  0  0  0  0  0  0  0  0  0  0
   27.6210   48.3830   -0.6710   C 0  0  0  0  0  0  0  0  0  0  0  0
   29.3650   47.0810    0.4150   O 0  0  0  0  0  0  0  0  0  0  0  0
   27.9690   44.7130    0.2310   O 0  0  0  0  0  0  0  0  0  0  0  0
   27.4450   45.7790   -1.7160   N 0  0  0  0  0  0  0  0  0  0  0  0
   27.3180   49.5580    0.0990   O 0  0  0  0  0  0  0  0  0  0  0  0
   26.5030   48.0750   -1.7060   C 0  0  0  0  0  0  0  0  0  0  0  0
   26.1150   49.3000   -2.5750   C 0  0  0  0  0  0  0  0  0  0  0  0
   26.9730   46.8880   -2.5590   C 0  0  0  0  0  0  0  0  0  0  0  0
   27.2120   49.7050   -3.3890   O 0  0  0  0  0  0  0  0  0  0  0  0
  1  2  1  0  0  0  0
  1  3  1  0  0  0  0
  1  4  1  0  0  0  0
  2  5  1  0  0  0  0
  2  6  1  0  0  0  0
  3  7  1  0  0  0  0
  3  8  1  0  0  0  0
  6 10  1  0  0  0  0
  8  9  1  0  0  0  0
  8 10  1  0  0  0  0
  9 11  1  0  0  0  0
A    1
C1
A    2
C2
A    3
C3
A    4
O4
A    5
O5
A    6
N6
A    7
O7
A    8
C8
A    9
C9
A   10
C10
A   11
O11
M  END
>  <InstanceId>
2VL4_MNM_A_1865

>  <ChemCompId>
MNM

>  <PdbId>
2VL4

>  <ChainId>
A

>  <ResidueNumber>
1865

>  <InsertionCode>


>  <Model>
1

>  <AltIds>


>  <MissingHeavyAtoms>
0

>  <ObservedFormula>
C6 N O4

>  <Name>
(2S,3S,4R,5R)-2,3,4-TRIHYDROXY-5-HYDROXYMETHYL-PIPERIDINE

>  <SystematicName>
(2S,3S,4R,5R)-5-(hydroxymethyl)piperidine-2,3,4-triol

>  <Synonyms>


>  <Type>
NON-POLYMER

>  <Formula>
C6 H13 N O4

>  <MolecularWeight>
163.172

>  <ModifiedDate>
2011-06-04

>  <Parent>


>  <OneLetterCode>


>  <SubcomponentList>


>  <AmbiguousFlag>
N

>  <InChI>
InChI=1S/C6H13NO4/c8-2-3-1-7-6(11)5(10)4(3)9/h3-11H,1-2H2/t3-,4-,5+,6+/m1/s1

>  <InChIKey>
BHOYFRIRWXBNHP-ZXXMMSQZSA-N

>  <SMILES>
C1[C@@H]([C@H]([C@@H]([C@@H](N1)O)O)O)CO

$$$$
