2VL4_MNM_A_1865


 16 16  0  0  0  0  0  0  0  0999 V2000
   27.6650   47.3646    0.0933 C   0  0  0  0  0  0  0  0  0  0  0  0
   27.4064   45.9411   -0.4272 C   0  0  0  0  0  0  0  0  0  0  0  0
   27.2693   48.4248   -0.9566 C   0  0  0  0  0  0  0  0  0  0  0  0
   29.0466   47.5339    0.4447 O   0  0  0  0  0  0  0  0  0  0  0  0
   28.1646   44.9327    0.2298 O   0  0  0  0  0  0  0  0  0  0  0  0
   27.7439   45.7977   -1.8382 N   0  0  0  0  0  0  0  0  0  0  0  0
   26.6397   49.5470   -0.3166 O   0  0  0  0  0  0  0  0  0  0  0  0
   26.3954   47.8630   -2.1128 C   0  0  0  0  0  0  0  0  0  0  0  0
   27.2018   46.7586   -2.8109 C   0  0  0  0  0  0  0  0  0  0  0  0
   29.5982   47.4108   -0.3437 H   0  0  0  0  0  0  0  0  0  0  0  0
   29.1080   45.0683    0.0492 H   0  0  0  0  0  0  0  0  0  0  0  0
   27.4276   44.8720   -2.1269 H   0  0  0  0  0  0  0  0  0  0  0  0
   25.8165   49.2575    0.1071 H   0  0  0  0  0  0  0  0  0  0  0  0
   25.9169   48.9529   -3.1074 C   0  0  0  0  0  0  0  0  0  0  0  0
   26.9203   49.9497   -3.2800 O   0  0  0  0  0  0  0  0  0  0  0  0
   27.1062   50.3724   -2.4270 H   0  0  0  0  0  0  0  0  0  0  0  0
  1  2  1  0  0  0
  1  3  1  0  0  0
  1  4  1  0  0  0
  2  5  1  0  0  0
  2  6  1  0  0  0
  3  7  1  0  0  0
  3  8  1  0  0  0
  6  9  1  0  0  0
  8 14  1  0  0  0
  8  9  1  0  0  0
 14 15  1  0  0  0
  4 10  1  0  0  0
  5 11  1  0  0  0
  6 12  1  0  0  0
  7 13  1  0  0  0
 15 16  1  0  0  0
M  END
> <minimizedAffinity>
-8.06471

$$$$
2VL4_MNM_A_1865


 16 16  0  0  0  0  0  0  0  0999 V2000
   28.7515   47.3807   -0.5829 C   0  0  0  0  0  0  0  0  0  0  0  0
   27.4751   46.8444   -1.2518 C   0  0  0  0  0  0  0  0  0  0  0  0
   29.8037   47.7925   -1.6346 C   0  0  0  0  0  0  0  0  0  0  0  0
   29.3162   46.3966    0.2966 O   0  0  0  0  0  0  0  0  0  0  0  0
   26.6820   46.0131   -0.4132 O   0  0  0  0  0  0  0  0  0  0  0  0
   27.7660   46.0220   -2.4198 N   0  0  0  0  0  0  0  0  0  0  0  0
   30.4675   49.0002   -1.2269 O   0  0  0  0  0  0  0  0  0  0  0  0
   29.2327   47.9137   -3.0752 C   0  0  0  0  0  0  0  0  0  0  0  0
   28.6597   46.5436   -3.4651 C   0  0  0  0  0  0  0  0  0  0  0  0
   29.5672   45.6117   -0.2150 H   0  0  0  0  0  0  0  0  0  0  0  0
   27.1760   45.2069   -0.1967 H   0  0  0  0  0  0  0  0  0  0  0  0
   26.8732   45.8156   -2.8679 H   0  0  0  0  0  0  0  0  0  0  0  0
   29.8234   49.7241   -1.1829 H   0  0  0  0  0  0  0  0  0  0  0  0
   30.2710   48.4266   -4.1073 C   0  0  0  0  0  0  0  0  0  0  0  0
   30.1244   49.8290   -4.3115 O   0  0  0  0  0  0  0  0  0  0  0  0
   29.2352   50.0149   -4.6518 H   0  0  0  0  0  0  0  0  0  0  0  0
  1  2  1  0  0  0
  1  3  1  0  0  0
  1  4  1  0  0  0
  2  5  1  0  0  0
  2  6  1  0  0  0
  3  7  1  0  0  0
  3  8  1  0  0  0
  6  9  1  0  0  0
  8 14  1  0  0  0
  8  9  1  0  0  0
 14 15  1  0  0  0
  4 10  1  0  0  0
  5 11  1  0  0  0
  6 12  1  0  0  0
  7 13  1  0  0  0
 15 16  1  0  0  0
M  END
> <minimizedAffinity>
-7.00723

$$$$
2VL4_MNM_A_1865


 16 16  0  0  0  0  0  0  0  0999 V2000
   28.4367   46.0400   -0.9631 C   0  0  0  0  0  0  0  0  0  0  0  0
   29.0762   47.1842   -0.1594 C   0  0  0  0  0  0  0  0  0  0  0  0
   27.3280   46.5656   -1.8998 C   0  0  0  0  0  0  0  0  0  0  0  0
   27.8870   45.0470   -0.0839 O   0  0  0  0  0  0  0  0  0  0  0  0
   29.7260   46.7664    1.0349 O   0  0  0  0  0  0  0  0  0  0  0  0
   28.0946   48.1693    0.2783 N   0  0  0  0  0  0  0  0  0  0  0  0
   27.3771   45.8796   -3.1617 O   0  0  0  0  0  0  0  0  0  0  0  0
   27.3488   48.1084   -2.0879 C   0  0  0  0  0  0  0  0  0  0  0  0
   27.1658   48.7482   -0.7042 C   0  0  0  0  0  0  0  0  0  0  0  0
   27.1872   45.4456    0.4567 H   0  0  0  0  0  0  0  0  0  0  0  0
   29.0699   46.4018    1.6494 H   0  0  0  0  0  0  0  0  0  0  0  0
   28.6146   48.9449    0.6887 H   0  0  0  0  0  0  0  0  0  0  0  0
   28.2215   46.0689   -3.6000 H   0  0  0  0  0  0  0  0  0  0  0  0
   26.2982   48.6177   -3.1093 C   0  0  0  0  0  0  0  0  0  0  0  0
   25.2179   49.2608   -2.4389 O   0  0  0  0  0  0  0  0  0  0  0  0
   24.7858   48.6296   -1.8425 H   0  0  0  0  0  0  0  0  0  0  0  0
  1  2  1  0  0  0
  1  3  1  0  0  0
  1  4  1  0  0  0
  2  5  1  0  0  0
  2  6  1  0  0  0
  3  7  1  0  0  0
  3  8  1  0  0  0
  6  9  1  0  0  0
  8 14  1  0  0  0
  8  9  1  0  0  0
 14 15  1  0  0  0
  4 10  1  0  0  0
  5 11  1  0  0  0
  6 12  1  0  0  0
  7 13  1  0  0  0
 15 16  1  0  0  0
M  END
> <minimizedAffinity>
-7.00300

$$$$
2VL4_MNM_A_1865


 16 16  0  0  0  0  0  0  0  0999 V2000
   27.1203   48.3196   -1.9665 C   0  0  0  0  0  0  0  0  0  0  0  0
   28.0062   48.2663   -0.7109 C   0  0  0  0  0  0  0  0  0  0  0  0
   27.9222   47.9520   -3.2332 C   0  0  0  0  0  0  0  0  0  0  0  0
   26.5459   49.6254   -2.1279 O   0  0  0  0  0  0  0  0  0  0  0  0
   27.5169   49.0345    0.3817 O   0  0  0  0  0  0  0  0  0  0  0  0
   29.3466   48.7844   -0.9568 N   0  0  0  0  0  0  0  0  0  0  0  0
   27.1217   47.1429   -4.1106 O   0  0  0  0  0  0  0  0  0  0  0  0
   29.2929   47.2835   -2.9325 C   0  0  0  0  0  0  0  0  0  0  0  0
   30.1198   48.2726   -2.0985 C   0  0  0  0  0  0  0  0  0  0  0  0
   27.2539   50.2776   -2.2471 H   0  0  0  0  0  0  0  0  0  0  0  0
   27.5230   49.9750    0.1441 H   0  0  0  0  0  0  0  0  0  0  0  0
   29.8960   48.5974   -0.1180 H   0  0  0  0  0  0  0  0  0  0  0  0
   26.9034   46.3068   -3.6699 H   0  0  0  0  0  0  0  0  0  0  0  0
   30.0463   46.8245   -4.2085 C   0  0  0  0  0  0  0  0  0  0  0  0
   29.5169   45.5914   -4.6871 O   0  0  0  0  0  0  0  0  0  0  0  0
   29.6214   44.9086   -4.0061 H   0  0  0  0  0  0  0  0  0  0  0  0
  1  2  1  0  0  0
  1  3  1  0  0  0
  1  4  1  0  0  0
  2  5  1  0  0  0
  2  6  1  0  0  0
  3  7  1  0  0  0
  3  8  1  0  0  0
  6  9  1  0  0  0
  8 14  1  0  0  0
  8  9  1  0  0  0
 14 15  1  0  0  0
  4 10  1  0  0  0
  5 11  1  0  0  0
  6 12  1  0  0  0
  7 13  1  0  0  0
 15 16  1  0  0  0
M  END
> <minimizedAffinity>
-6.64602

$$$$
2VL4_MNM_A_1865


 16 16  0  0  0  0  0  0  0  0999 V2000
   28.9098   47.5342   -1.9110 C   0  0  0  0  0  0  0  0  0  0  0  0
   30.3082   48.1517   -2.0754 C   0  0  0  0  0  0  0  0  0  0  0  0
   28.4039   46.9324   -3.2395 C   0  0  0  0  0  0  0  0  0  0  0  0
   27.9722   48.5164   -1.4448 O   0  0  0  0  0  0  0  0  0  0  0  0
   30.6358   49.1251   -1.0913 O   0  0  0  0  0  0  0  0  0  0  0  0
   30.4605   48.8462   -3.3481 N   0  0  0  0  0  0  0  0  0  0  0  0
   27.7151   45.6952   -2.9942 O   0  0  0  0  0  0  0  0  0  0  0  0
   29.5162   46.7633   -4.3120 C   0  0  0  0  0  0  0  0  0  0  0  0
   30.1041   48.1531   -4.5955 C   0  0  0  0  0  0  0  0  0  0  0  0
   27.8976   49.2283   -2.0994 H   0  0  0  0  0  0  0  0  0  0  0  0
   30.0432   49.8878   -1.1811 H   0  0  0  0  0  0  0  0  0  0  0  0
   31.4421   49.1123   -3.4260 H   0  0  0  0  0  0  0  0  0  0  0  0
   28.3335   45.0502   -2.6167 H   0  0  0  0  0  0  0  0  0  0  0  0
   29.0220   46.0644   -5.6057 C   0  0  0  0  0  0  0  0  0  0  0  0
   29.2123   44.6551   -5.5182 O   0  0  0  0  0  0  0  0  0  0  0  0
   30.1564   44.4626   -5.4065 H   0  0  0  0  0  0  0  0  0  0  0  0
  1  2  1  0  0  0
  1  3  1  0  0  0
  1  4  1  0  0  0
  2  5  1  0  0  0
  2  6  1  0  0  0
  3  7  1  0  0  0
  3  8  1  0  0  0
  6  9  1  0  0  0
  8 14  1  0  0  0
  8  9  1  0  0  0
 14 15  1  0  0  0
  4 10  1  0  0  0
  5 11  1  0  0  0
  6 12  1  0  0  0
  7 13  1  0  0  0
 15 16  1  0  0  0
M  END
> <minimizedAffinity>
-6.61321

$$$$
2VL4_MNM_A_1865


 16 16  0  0  0  0  0  0  0  0999 V2000
   30.3986   48.2139   -1.5892 C   0  0  0  0  0  0  0  0  0  0  0  0
   29.9470   48.1751   -3.0584 C   0  0  0  0  0  0  0  0  0  0  0  0
   29.2895   47.6955   -0.6489 C   0  0  0  0  0  0  0  0  0  0  0  0
   30.7644   49.5479   -1.2051 O   0  0  0  0  0  0  0  0  0  0  0  0
   30.6673   49.0542   -3.9137 O   0  0  0  0  0  0  0  0  0  0  0  0
   28.5511   48.5637   -3.2189 N   0  0  0  0  0  0  0  0  0  0  0  0
   29.8606   46.8958    0.3997 O   0  0  0  0  0  0  0  0  0  0  0  0
   28.1487   46.9396   -1.3860 C   0  0  0  0  0  0  0  0  0  0  0  0
   27.5216   47.9129   -2.3944 C   0  0  0  0  0  0  0  0  0  0  0  0
   29.9928   50.1304   -1.2847 H   0  0  0  0  0  0  0  0  0  0  0  0
   30.4961   49.9724   -3.6519 H   0  0  0  0  0  0  0  0  0  0  0  0
   28.3046   48.3907   -4.1934 H   0  0  0  0  0  0  0  0  0  0  0  0
   30.2845   46.1128    0.0149 H   0  0  0  0  0  0  0  0  0  0  0  0
   27.0918   46.3336   -0.4258 C   0  0  0  0  0  0  0  0  0  0  0  0
   27.6727   45.3109    0.3783 O   0  0  0  0  0  0  0  0  0  0  0  0
   28.0106   44.6034   -0.1928 H   0  0  0  0  0  0  0  0  0  0  0  0
  1  2  1  0  0  0
  1  3  1  0  0  0
  1  4  1  0  0  0
  2  5  1  0  0  0
  2  6  1  0  0  0
  3  7  1  0  0  0
  3  8  1  0  0  0
  6  9  1  0  0  0
  8 14  1  0  0  0
  8  9  1  0  0  0
 14 15  1  0  0  0
  4 10  1  0  0  0
  5 11  1  0  0  0
  6 12  1  0  0  0
  7 13  1  0  0  0
 15 16  1  0  0  0
M  END
> <minimizedAffinity>
-6.36556

$$$$
2VL4_MNM_A_1865


 16 16  0  0  0  0  0  0  0  0999 V2000
   27.5680   46.2320   -1.8591 C   0  0  0  0  0  0  0  0  0  0  0  0
   28.4372   46.0319   -0.6066 C   0  0  0  0  0  0  0  0  0  0  0  0
   28.2402   47.1979   -2.8582 C   0  0  0  0  0  0  0  0  0  0  0  0
   26.2731   46.7393   -1.5031 O   0  0  0  0  0  0  0  0  0  0  0  0
   27.7195   45.5816    0.5360 O   0  0  0  0  0  0  0  0  0  0  0  0
   29.0809   47.2672   -0.1764 N   0  0  0  0  0  0  0  0  0  0  0  0
   28.0410   46.7375   -4.2049 O   0  0  0  0  0  0  0  0  0  0  0  0
   29.7434   47.4579   -2.5604 C   0  0  0  0  0  0  0  0  0  0  0  0
   29.8409   48.0627   -1.1525 C   0  0  0  0  0  0  0  0  0  0  0  0
   26.3708   47.6061   -1.0788 H   0  0  0  0  0  0  0  0  0  0  0  0
   27.0870   46.2641    0.8101 H   0  0  0  0  0  0  0  0  0  0  0  0
   29.7270   47.0201    0.5732 H   0  0  0  0  0  0  0  0  0  0  0  0
   28.4734   45.8768   -4.3197 H   0  0  0  0  0  0  0  0  0  0  0  0
   30.4366   48.3468   -3.6261 C   0  0  0  0  0  0  0  0  0  0  0  0
   29.5043   49.2563   -4.2039 O   0  0  0  0  0  0  0  0  0  0  0  0
   28.7920   48.7587   -4.6350 H   0  0  0  0  0  0  0  0  0  0  0  0
  1  2  1  0  0  0
  1  3  1  0  0  0
  1  4  1  0  0  0
  2  5  1  0  0  0
  2  6  1  0  0  0
  3  7  1  0  0  0
  3  8  1  0  0  0
  6  9  1  0  0  0
  8 14  1  0  0  0
  8  9  1  0  0  0
 14 15  1  0  0  0
  4 10  1  0  0  0
  5 11  1  0  0  0
  6 12  1  0  0  0
  7 13  1  0  0  0
 15 16  1  0  0  0
M  END
> <minimizedAffinity>
-6.35026

$$$$
2VL4_MNM_A_1865


 16 16  0  0  0  0  0  0  0  0999 V2000
   28.7679   47.2881   -4.0071 C   0  0  0  0  0  0  0  0  0  0  0  0
   29.2478   48.6823   -3.5711 C   0  0  0  0  0  0  0  0  0  0  0  0
   28.3954   46.4178   -2.7878 C   0  0  0  0  0  0  0  0  0  0  0  0
   29.7786   46.6210   -4.7782 O   0  0  0  0  0  0  0  0  0  0  0  0
   30.0492   49.3520   -4.5368 O   0  0  0  0  0  0  0  0  0  0  0  0
   30.0763   48.6328   -2.3726 N   0  0  0  0  0  0  0  0  0  0  0  0
   27.2181   45.6437   -3.0709 O   0  0  0  0  0  0  0  0  0  0  0  0
   28.2441   47.2244   -1.4677 C   0  0  0  0  0  0  0  0  0  0  0  0
   29.5875   47.9129   -1.1868 C   0  0  0  0  0  0  0  0  0  0  0  0
   30.5709   46.4954   -4.2329 H   0  0  0  0  0  0  0  0  0  0  0  0
   30.8761   48.8620   -4.6666 H   0  0  0  0  0  0  0  0  0  0  0  0
   30.2433   49.5976   -2.0867 H   0  0  0  0  0  0  0  0  0  0  0  0
   26.4683   46.2397   -3.2240 H   0  0  0  0  0  0  0  0  0  0  0  0
   27.7702   46.3602   -0.2698 C   0  0  0  0  0  0  0  0  0  0  0  0
   28.1543   45.0000   -0.4498 O   0  0  0  0  0  0  0  0  0  0  0  0
   27.7470   44.6534   -1.2590 H   0  0  0  0  0  0  0  0  0  0  0  0
  1  2  1  0  0  0
  1  3  1  0  0  0
  1  4  1  0  0  0
  2  5  1  0  0  0
  2  6  1  0  0  0
  3  7  1  0  0  0
  3  8  1  0  0  0
  6  9  1  0  0  0
  8 14  1  0  0  0
  8  9  1  0  0  0
 14 15  1  0  0  0
  4 10  1  0  0  0
  5 11  1  0  0  0
  6 12  1  0  0  0
  7 13  1  0  0  0
 15 16  1  0  0  0
M  END
> <minimizedAffinity>
-6.28507

$$$$
2VL4_MNM_A_1865


 16 16  0  0  0  0  0  0  0  0999 V2000
   29.5047   47.8296   -3.2848 C   0  0  0  0  0  0  0  0  0  0  0  0
   28.7377   46.5947   -3.7856 C   0  0  0  0  0  0  0  0  0  0  0  0
   29.0278   48.2525   -1.8790 C   0  0  0  0  0  0  0  0  0  0  0  0
   29.3453   48.9297   -4.1934 O   0  0  0  0  0  0  0  0  0  0  0  0
   28.7468   46.4355   -5.1991 O   0  0  0  0  0  0  0  0  0  0  0  0
   27.3253   46.6373   -3.4270 N   0  0  0  0  0  0  0  0  0  0  0  0
   30.1474   48.6634   -1.0772 O   0  0  0  0  0  0  0  0  0  0  0  0
   28.1752   47.1716   -1.1573 C   0  0  0  0  0  0  0  0  0  0  0  0
   26.9430   46.8922   -2.0298 C   0  0  0  0  0  0  0  0  0  0  0  0
   28.4079   49.1738   -4.2442 H   0  0  0  0  0  0  0  0  0  0  0  0
   28.2725   47.1748   -5.6107 H   0  0  0  0  0  0  0  0  0  0  0  0
   26.9259   45.7347   -3.6845 H   0  0  0  0  0  0  0  0  0  0  0  0
   30.7475   47.9119   -0.9505 H   0  0  0  0  0  0  0  0  0  0  0  0
   27.7864   47.5620    0.2928 C   0  0  0  0  0  0  0  0  0  0  0  0
   27.5756   48.9674    0.3943 O   0  0  0  0  0  0  0  0  0  0  0  0
   28.3923   49.4348    0.1587 H   0  0  0  0  0  0  0  0  0  0  0  0
  1  2  1  0  0  0
  1  3  1  0  0  0
  1  4  1  0  0  0
  2  5  1  0  0  0
  2  6  1  0  0  0
  3  7  1  0  0  0
  3  8  1  0  0  0
  6  9  1  0  0  0
  8 14  1  0  0  0
  8  9  1  0  0  0
 14 15  1  0  0  0
  4 10  1  0  0  0
  5 11  1  0  0  0
  6 12  1  0  0  0
  7 13  1  0  0  0
 15 16  1  0  0  0
M  END
> <minimizedAffinity>
-6.26955

$$$$
2VL4_MNM_A_1865


 16 16  0  0  0  0  0  0  0  0999 V2000
   28.0400   46.7401   -3.7932 C   0  0  0  0  0  0  0  0  0  0  0  0
   29.1733   47.7309   -4.1066 C   0  0  0  0  0  0  0  0  0  0  0  0
   27.7533   46.6789   -2.2777 C   0  0  0  0  0  0  0  0  0  0  0  0
   28.3676   45.4262   -4.2700 O   0  0  0  0  0  0  0  0  0  0  0  0
   29.8217   47.5013   -5.3516 O   0  0  0  0  0  0  0  0  0  0  0  0
   30.2428   47.6795   -3.1172 N   0  0  0  0  0  0  0  0  0  0  0  0
   26.3384   46.5874   -2.0430 O   0  0  0  0  0  0  0  0  0  0  0  0
   28.3907   47.8467   -1.4739 C   0  0  0  0  0  0  0  0  0  0  0  0
   29.9097   47.7844   -1.6884 C   0  0  0  0  0  0  0  0  0  0  0  0
   29.1632   45.1067   -3.8163 H   0  0  0  0  0  0  0  0  0  0  0  0
   30.2752   46.6442   -5.3267 H   0  0  0  0  0  0  0  0  0  0  0  0
   30.8820   48.4453   -3.3304 H   0  0  0  0  0  0  0  0  0  0  0  0
   25.9032   47.3886   -2.3741 H   0  0  0  0  0  0  0  0  0  0  0  0
   28.0134   47.8355    0.0308 C   0  0  0  0  0  0  0  0  0  0  0  0
   27.4694   49.0932    0.4208 O   0  0  0  0  0  0  0  0  0  0  0  0
   28.1282   49.7899    0.2743 H   0  0  0  0  0  0  0  0  0  0  0  0
  1  2  1  0  0  0
  1  3  1  0  0  0
  1  4  1  0  0  0
  2  5  1  0  0  0
  2  6  1  0  0  0
  3  7  1  0  0  0
  3  8  1  0  0  0
  6  9  1  0  0  0
  8 14  1  0  0  0
  8  9  1  0  0  0
 14 15  1  0  0  0
  4 10  1  0  0  0
  5 11  1  0  0  0
  6 12  1  0  0  0
  7 13  1  0  0  0
 15 16  1  0  0  0
M  END
> <minimizedAffinity>
-5.93556

$$$$
