1V16_TDP_A_601
  RCSB PDB12061704173D
Coordinates from PDB:1V16:A:601 Model:1 without hydrogens
 26 27  0  0  0  0            999 V2000
   77.0480    0.6410   11.1880   N 0  0  0  0  0  0  0  0  0  0  0  0
   77.2970    1.8180   11.7370   C 0  0  0  0  0  0  0  0  0  0  0  0
   77.4390    1.9950   13.2770   C 0  0  0  0  0  0  0  0  0  0  0  0
   77.3660    2.9110   10.9250   N 0  0  0  0  0  0  0  0  0  0  0  0
   77.2880    2.8510    9.5620   C 0  0  0  0  0  0  0  0  0  0  0  0
   77.4280    4.0190    8.8930   N 0  0  0  0  0  0  0  0  0  0  0  0
   77.0280    1.5860    8.9620   C 0  0  0  0  0  0  0  0  0  0  0  0
   76.8830    0.5040    9.8490   C 0  0  0  0  0  0  0  0  0  0  0  0
   76.8820    1.3990    7.4130   C 0  0  0  0  0  0  0  0  0  0  0  0
   75.6030    2.0070    6.9640   N 0  3  0  0  0  0  0  0  0  0  0  0
   75.7460    3.2910    6.3050   C 0  0  0  0  0  0  0  0  0  0  0  0
   74.0010    3.6320    5.8920   S 0  0  0  0  0  0  0  0  0  0  0  0
   73.3200    2.1500    6.5060   C 0  0  0  0  0  0  0  0  0  0  0  0
   74.3850    1.4030    7.0040   C 0  0  0  0  0  0  0  0  0  0  0  0
   74.2570   -0.0260    7.6160   C 0  0  0  0  0  0  0  0  0  0  0  0
   71.8230    1.9030    6.4000   C 0  0  0  0  0  0  0  0  0  0  0  0
   71.0440    2.9360    7.2280   C 0  0  0  0  0  0  0  0  0  0  0  0
   69.6330    2.7480    7.1180   O 0  0  0  0  0  0  0  0  0  0  0  0
   68.6320    3.7430    7.6910   P 0  0  0  0  0  0  0  0  0  0  0  0
   68.7560    5.0370    6.7470   O 0  0  0  0  0  0  0  0  0  0  0  0
   69.0550    4.1690    9.0430   O 0  0  0  0  0  0  0  0  0  0  0  0
   67.2850    3.1100    7.5310   O 0  0  0  0  0  0  0  0  0  0  0  0
   68.4960    5.1530    5.1220   P 0  0  0  0  0  0  0  0  0  0  0  0
   69.8340    4.8260    4.4440   O 0  0  0  0  0  0  0  0  0  0  0  0
   67.4040    4.1630    4.7500   O 0  5  0  0  0  0  0  0  0  0  0  0
   68.0850    6.5580    4.8500   O 0  0  0  0  0  0  0  0  0  0  0  0
  1  2  2  0  0  0  0
  1  8  1  0  0  0  0
  2  3  1  0  0  0  0
  2  4  1  0  0  0  0
  4  5  2  0  0  0  0
  5  6  1  0  0  0  0
  5  7  1  0  0  0  0
  7  8  2  0  0  0  0
  7  9  1  0  0  0  0
  9 10  1  0  0  0  0
 10 11  2  0  0  0  0
 10 14  1  0  0  0  0
 11 12  1  0  0  0  0
 12 13  1  0  0  0  0
 13 14  2  0  0  0  0
 13 16  1  0  0  0  0
 14 15  1  0  0  0  0
 16 17  1  0  0  0  0
 17 18  1  0  0  0  0
 18 19  1  0  0  0  0
 19 20  1  0  0  0  0
 19 21  2  0  0  0  0
 19 22  1  0  0  0  0
 20 23  1  0  0  0  0
 23 24  2  0  0  0  0
 23 25  1  0  0  0  0
 23 26  1  0  0  0  0
M  CHG  2  10   1  25  -1
A    1
N1'
A    2
C2'
A    3
C2A
A    4
N3'
A    5
C4'
A    6
N4'
A    7
C5'
A    8
C6'
A    9
C35
A   10
N3
A   11
C2
A   12
S1
A   13
C5
A   14
C4
A   15
C4A
A   16
C5A
A   17
C5B
A   18
O5G
A   19
P1
A   20
O11
A   21
O12
A   22
O13
A   23
P2
A   24
O21
A   25
O22
A   26
O23
M  END
>  <InstanceId>
1V16_TDP_A_601

>  <ChemCompId>
TDP

>  <PdbId>
1V16

>  <ChainId>
A

>  <ResidueNumber>
601

>  <InsertionCode>


>  <Model>
1

>  <AltIds>


>  <MissingHeavyAtoms>
0

>  <ObservedFormula>
C12 N4 O7 P2 S

>  <Name>
THIAMIN DIPHOSPHATE

>  <SystematicName>
[2-[3-[(4-amino-2-methyl-pyrimidin-5-yl)methyl]-4-methyl-1,3-thiazol-3-ium-5-yl]ethoxy-hydroxy-phosphoryl] hydrogen phosphate

>  <Synonyms>


>  <Type>
NON-POLYMER

>  <Formula>
C12 H18 N4 O7 P2 S

>  <MolecularWeight>
424.306

>  <ModifiedDate>
2011-06-04

>  <Parent>


>  <OneLetterCode>


>  <SubcomponentList>


>  <AmbiguousFlag>
N

>  <InChI>
InChI=1S/C12H18N4O7P2S/c1-8-11(3-4-22-25(20,21)23-24(17,18)19)26-7-16(8)6-10-5-14-9(2)15-12(10)13/h5,7H,3-4,6H2,1-2H3,(H4-,13,14,15,17,18,19,20,21)

>  <InChIKey>
AYEKOFBPNLCAJY-UHFFFAOYSA-N

>  <SMILES>
Cc1c(sc[n+]1Cc2cnc(nc2N)C)CCO[P@@](=O)(O)O[P@](=O)(O)[O-]

$$$$
