5LUD_76X_A_201
  RCSB PDB12061718533D
Coordinates from PDB:5LUD:A:201 Model:1 without hydrogens
  8  8  0  0  0  0            999 V2000
   -5.7880   22.2860   -8.9390   N 0  0  0  0  0  0  0  0  0  0  0  0
   -5.1080   21.2420   -8.4520   C 0  0  0  0  0  0  0  0  0  0  0  0
   -5.6040   19.9220   -8.4180   C 0  0  0  0  0  0  0  0  0  0  0  0
   -6.8150   19.6680   -8.9360   N 0  0  0  0  0  0  0  0  0  0  0  0
   -3.8920   21.5040   -7.9300   C 0  0  0  0  0  0  0  0  0  0  0  0
   -3.1690   20.5070   -7.3600   C 0  0  0  0  0  0  0  0  0  0  0  0
   -3.6080   19.2250   -7.3820   C 0  0  0  0  0  0  0  0  0  0  0  0
   -4.8140   18.9100   -7.8980   N 0  0  0  0  0  0  0  0  0  0  0  0
  1  2  1  0  0  0  0
  4  3  1  0  0  0  0
  2  3  2  0  0  0  0
  2  5  1  0  0  0  0
  3  8  1  0  0  0  0
  5  6  2  0  0  0  0
  8  7  2  0  0  0  0
  7  6  1  0  0  0  0
A    1
N8
A    2
C3
A    3
C2
A    4
N7
A    5
C4
A    6
C5
A    7
C6
A    8
N1
M  END
>  <InstanceId>
5LUD_76X_A_201

>  <ChemCompId>
76X

>  <PdbId>
5LUD

>  <ChainId>
A

>  <ResidueNumber>
201

>  <InsertionCode>


>  <Model>
1

>  <AltIds>


>  <MissingHeavyAtoms>
0

>  <ObservedFormula>
C5 N3

>  <Name>
pyridine-2,3-diamine

>  <SystematicName>
pyridine-2,3-diamine

>  <Synonyms>


>  <Type>
NON-POLYMER

>  <Formula>
C5 H7 N3

>  <MolecularWeight>
109.129

>  <ModifiedDate>
2017-03-31

>  <Parent>


>  <OneLetterCode>


>  <SubcomponentList>


>  <AmbiguousFlag>
N

>  <InChI>
InChI=1S/C5H7N3/c6-4-2-1-3-8-5(4)7/h1-3H,6H2,(H2,7,8)

>  <InChIKey>
ZZYXNRREDYWPLN-UHFFFAOYSA-N

>  <SMILES>
c1cc(c(nc1)N)N

$$$$
