3TS4_EEG_A_306


 46 48  0  0  0  0  0  0  0  0999 V2000
    7.7403   23.3417    4.6270 O   0  0  0  0  0  0  0  0  0  0  0  0
    7.0840   24.2001    5.2452 C   0  0  0  0  0  0  0  0  0  0  0  0
    7.0079   25.5473    4.8132 N   0  0  0  0  0  0  0  0  0  0  0  0
    6.4788   26.2084    5.3155 H   0  0  0  0  0  0  0  0  0  0  0  0
    6.2725   23.7756    6.5021 C   0  0  0  0  0  0  0  0  0  0  0  0
    5.2654   22.7182    6.0556 C   0  0  0  0  0  0  0  0  0  0  0  0
    3.1374   23.8435    5.4293 C   0  0  0  0  0  0  0  0  0  0  0  0
    1.9309   22.9713    7.7747 C   0  0  0  0  0  0  0  0  0  0  0  0
    1.2275   23.7415    6.8371 C   0  0  0  0  0  0  0  0  0  0  0  0
    1.8150   24.1845    5.6666 C   0  0  0  0  0  0  0  0  0  0  0  0
    3.8170   23.0754    6.3479 C   0  0  0  0  0  0  0  0  0  0  0  0
    3.2310   22.6471    7.5406 C   0  0  0  0  0  0  0  0  0  0  0  0
   -0.8350   25.6353    6.8976 S   0  0  0  0  0  0  0  0  0  0  0  0
   -0.2289   24.1073    7.1691 C   0  0  0  0  0  0  0  0  0  0  0  0
   -1.2496   23.2952    7.6490 C   0  0  0  0  0  0  0  0  0  0  0  0
   -2.4684   24.0025    7.7989 C   0  0  0  0  0  0  0  0  0  0  0  0
   -2.4194   25.3403    7.4167 C   0  0  0  0  0  0  0  0  0  0  0  0
   -3.7091   23.3712    8.3102 C   0  0  0  0  0  0  0  0  0  0  0  0
   -4.7981   24.1729    8.5989 C   0  0  0  0  0  0  0  0  0  0  0  0
   -5.9580   23.5903    9.0828 C   0  0  0  0  0  0  0  0  0  0  0  0
   -6.0196   22.2356    9.2677 C   0  0  0  0  0  0  0  0  0  0  0  0
   -4.9230   21.4247    8.9710 C   0  0  0  0  0  0  0  0  0  0  0  0
   -3.7636   22.0041    8.4910 C   0  0  0  0  0  0  0  0  0  0  0  0
    7.7232   25.9273    3.6213 C   0  0  0  0  0  0  0  0  0  0  0  0
    8.3744   27.2611    3.6346 C   0  0  0  0  0  0  0  0  0  0  0  0
    9.6270   27.3450    3.5628 O   0  0  0  0  0  0  0  0  0  0  0  0
    7.5706   28.4136    3.7117 N   0  0  0  0  0  0  0  0  0  0  0  0
    6.5915   28.3240    3.7639 H   0  0  0  0  0  0  0  0  0  0  0  0
    8.1993   29.7877    3.7151 C   0  0  0  0  0  0  0  0  0  0  0  0
    7.4820   30.6499    4.6188 C   0  0  0  0  0  0  0  0  0  0  0  0
    7.5946   30.4996    5.8888 O   0  0  0  0  0  0  0  0  0  0  0  0
    6.6057   31.7233    4.0719 N   0  0  0  0  0  0  0  0  0  0  0  0
    6.5187   31.8393    3.0981 H   0  0  0  0  0  0  0  0  0  0  0  0
    6.1134   32.3166    4.6842 H   0  0  0  0  0  0  0  0  0  0  0  0
    8.2515   30.4422    2.3244 C   0  0  0  0  0  0  0  0  0  0  0  0
    7.8031   29.7150    1.2529 C   0  0  0  0  0  0  0  0  0  0  0  0
    8.9543   29.2729    0.2890 C   0  0  0  0  0  0  0  0  0  0  0  0
    8.9346   29.7572   -0.9435 O   0  0  0  0  0  0  0  0  0  0  0  0
    9.8169   28.4541    0.6601 O   0  0  0  0  0  0  0  0  0  0  0  0
    9.8063   28.1283    1.5385 H   0  0  0  0  0  0  0  0  0  0  0  0
    6.6530   25.8373    2.5781 C   0  0  0  0  0  0  0  0  0  0  0  0
    7.1284   26.1210    1.1939 C   0  0  0  0  0  0  0  0  0  0  0  0
    8.3050   25.2094    0.7660 C   0  0  0  0  0  0  0  0  0  0  0  0
    7.9336   24.1124    0.4053 O   0  0  0  0  0  0  0  0  0  0  0  0
    9.4156   25.6022    0.8302 O   0  0  0  0  0  0  0  0  0  0  0  0
    9.5877   26.4747    1.1253 H   0  0  0  0  0  0  0  0  0  0  0  0
 30 29  1  0  0  0
 30 32  1  0  0  0
 30 31  2  0  0  0
 27 29  1  0  0  0
 27 25  1  0  0  0
 26 25  2  0  0  0
 29 35  1  0  0  0
  3 24  1  0  0  0
  3  2  1  0  0  0
  1  2  2  0  0  0
 35 36  1  0  0  0
 36 37  1  0  0  0
 45 43  1  0  0  0
 37 39  1  0  0  0
 37 38  2  0  0  0
 25 24  1  0  0  0
 24 41  1  0  0  0
 13 14  1  0  0  0
 13 17  1  0  0  0
 41 42  1  0  0  0
 42 43  1  0  0  0
 43 44  2  0  0  0
  2  5  1  0  0  0
  5  6  1  0  0  0
  6 11  1  0  0  0
  7 10  2  0  0  0
  7 11  1  0  0  0
  8  9  2  0  0  0
  8 12  1  0  0  0
  9 10  1  0  0  0
  9 14  1  0  0  0
 14 15  2  0  0  0
 15 16  1  0  0  0
 16 18  1  0  0  0
 16 17  2  0  0  0
 18 19  2  0  0  0
 18 23  1  0  0  0
 19 20  1  0  0  0
 20 21  2  0  0  0
 21 22  1  0  0  0
 22 23  2  0  0  0
 11 12  2  0  0  0
  3  4  1  0  0  0
 45 46  1  0  0  0
 27 28  1  0  0  0
 39 40  1  0  0  0
 32 33  1  0  0  0
 32 34  1  0  0  0
M  END
> <minimizedAffinity>
-9.86384

$$$$
3TS4_EEG_A_306


 46 48  0  0  0  0  0  0  0  0999 V2000
    6.0427   23.4428    5.7980 O   0  0  0  0  0  0  0  0  0  0  0  0
    5.4012   24.3180    5.1880 C   0  0  0  0  0  0  0  0  0  0  0  0
    6.0397   25.3380    4.4401 N   0  0  0  0  0  0  0  0  0  0  0  0
    5.5118   26.0175    3.9617 H   0  0  0  0  0  0  0  0  0  0  0  0
    3.8470   24.2642    5.1959 C   0  0  0  0  0  0  0  0  0  0  0  0
    3.4355   23.1989    6.2096 C   0  0  0  0  0  0  0  0  0  0  0  0
    1.5725   22.5176    7.7102 C   0  0  0  0  0  0  0  0  0  0  0  0
   -0.2084   24.1213    6.3051 C   0  0  0  0  0  0  0  0  0  0  0  0
   -0.6250   23.3677    7.4122 C   0  0  0  0  0  0  0  0  0  0  0  0
    0.2491   22.5635    8.1199 C   0  0  0  0  0  0  0  0  0  0  0  0
    1.9768   23.2712    6.6312 C   0  0  0  0  0  0  0  0  0  0  0  0
    1.0896   24.0656    5.9023 C   0  0  0  0  0  0  0  0  0  0  0  0
   -3.0798   24.7137    7.3338 S   0  0  0  0  0  0  0  0  0  0  0  0
   -2.1107   23.4421    7.8024 C   0  0  0  0  0  0  0  0  0  0  0  0
   -2.8826   22.5178    8.4964 C   0  0  0  0  0  0  0  0  0  0  0  0
   -4.2286   22.9403    8.6307 C   0  0  0  0  0  0  0  0  0  0  0  0
   -4.5214   24.1610    8.0287 C   0  0  0  0  0  0  0  0  0  0  0  0
   -5.2561   22.1439    9.3443 C   0  0  0  0  0  0  0  0  0  0  0  0
   -6.2327   22.8047   10.0665 C   0  0  0  0  0  0  0  0  0  0  0  0
   -7.1917   22.0666   10.7405 C   0  0  0  0  0  0  0  0  0  0  0  0
   -7.1688   20.6992   10.6855 C   0  0  0  0  0  0  0  0  0  0  0  0
   -6.1869   20.0313    9.9520 C   0  0  0  0  0  0  0  0  0  0  0  0
   -5.2272   20.7656    9.2812 C   0  0  0  0  0  0  0  0  0  0  0  0
    7.4800   25.3576    4.3962 C   0  0  0  0  0  0  0  0  0  0  0  0
    8.1299   26.6867    4.5156 C   0  0  0  0  0  0  0  0  0  0  0  0
    9.3573   26.8058    4.2693 O   0  0  0  0  0  0  0  0  0  0  0  0
    7.3510   27.7975    4.8891 N   0  0  0  0  0  0  0  0  0  0  0  0
    6.3910   27.6813    5.0740 H   0  0  0  0  0  0  0  0  0  0  0  0
    7.9774   29.1675    5.0084 C   0  0  0  0  0  0  0  0  0  0  0  0
    7.7991   29.6704    6.3463 C   0  0  0  0  0  0  0  0  0  0  0  0
    6.8766   29.1957    7.1024 O   0  0  0  0  0  0  0  0  0  0  0  0
    8.6946   30.7478    6.8528 N   0  0  0  0  0  0  0  0  0  0  0  0
    9.4023   31.1125    6.2737 H   0  0  0  0  0  0  0  0  0  0  0  0
    8.5786   31.0952    7.7667 H   0  0  0  0  0  0  0  0  0  0  0  0
    7.4162   30.1885    4.0044 C   0  0  0  0  0  0  0  0  0  0  0  0
    8.0299   30.2960    2.7838 C   0  0  0  0  0  0  0  0  0  0  0  0
    9.5773   30.0720    2.8555 C   0  0  0  0  0  0  0  0  0  0  0  0
   10.3130   31.0618    3.3381 O   0  0  0  0  0  0  0  0  0  0  0  0
   10.0901   29.0229    2.4210 O   0  0  0  0  0  0  0  0  0  0  0  0
    9.5447   28.3390    2.0853 H   0  0  0  0  0  0  0  0  0  0  0  0
    7.7563   24.7164    3.0717 C   0  0  0  0  0  0  0  0  0  0  0  0
    7.3352   25.5364    1.9001 C   0  0  0  0  0  0  0  0  0  0  0  0
    8.0524   25.1236    0.5910 C   0  0  0  0  0  0  0  0  0  0  0  0
    7.6449   25.7363   -0.3734 O   0  0  0  0  0  0  0  0  0  0  0  0
    8.8804   24.2834    0.6059 O   0  0  0  0  0  0  0  0  0  0  0  0
    9.1184   23.8744    1.4147 H   0  0  0  0  0  0  0  0  0  0  0  0
 30 29  1  0  0  0
 30 32  1  0  0  0
 30 31  2  0  0  0
 27 29  1  0  0  0
 27 25  1  0  0  0
 26 25  2  0  0  0
 29 35  1  0  0  0
  3 24  1  0  0  0
  3  2  1  0  0  0
  1  2  2  0  0  0
 35 36  1  0  0  0
 36 37  1  0  0  0
 45 43  1  0  0  0
 37 39  1  0  0  0
 37 38  2  0  0  0
 25 24  1  0  0  0
 24 41  1  0  0  0
 13 14  1  0  0  0
 13 17  1  0  0  0
 41 42  1  0  0  0
 42 43  1  0  0  0
 43 44  2  0  0  0
  2  5  1  0  0  0
  5  6  1  0  0  0
  6 11  1  0  0  0
  7 10  2  0  0  0
  7 11  1  0  0  0
  8  9  2  0  0  0
  8 12  1  0  0  0
  9 10  1  0  0  0
  9 14  1  0  0  0
 14 15  2  0  0  0
 15 16  1  0  0  0
 16 18  1  0  0  0
 16 17  2  0  0  0
 18 19  2  0  0  0
 18 23  1  0  0  0
 19 20  1  0  0  0
 20 21  2  0  0  0
 21 22  1  0  0  0
 22 23  2  0  0  0
 11 12  2  0  0  0
  3  4  1  0  0  0
 45 46  1  0  0  0
 27 28  1  0  0  0
 39 40  1  0  0  0
 32 33  1  0  0  0
 32 34  1  0  0  0
M  END
> <minimizedAffinity>
-9.78293

$$$$
3TS4_EEG_A_306


 46 48  0  0  0  0  0  0  0  0999 V2000
    7.1465   26.8856    1.2546 O   0  0  0  0  0  0  0  0  0  0  0  0
    8.1856   26.4212    1.7588 C   0  0  0  0  0  0  0  0  0  0  0  0
    9.2648   25.9548    0.9679 N   0  0  0  0  0  0  0  0  0  0  0  0
   10.0792   25.5955    1.3885 H   0  0  0  0  0  0  0  0  0  0  0  0
    8.3351   26.4005    3.3065 C   0  0  0  0  0  0  0  0  0  0  0  0
    8.2470   24.9422    3.7509 C   0  0  0  0  0  0  0  0  0  0  0  0
    5.7838   25.1925    3.9900 C   0  0  0  0  0  0  0  0  0  0  0  0
    5.7486   23.3375    6.0578 C   0  0  0  0  0  0  0  0  0  0  0  0
    4.5696   23.9514    5.6104 C   0  0  0  0  0  0  0  0  0  0  0  0
    4.5717   24.8778    4.5841 C   0  0  0  0  0  0  0  0  0  0  0  0
    6.9350   24.5752    4.4254 C   0  0  0  0  0  0  0  0  0  0  0  0
    6.9365   23.6568    5.4770 C   0  0  0  0  0  0  0  0  0  0  0  0
    3.2259   22.4851    7.5823 S   0  0  0  0  0  0  0  0  0  0  0  0
    3.2602   23.5786    6.3257 C   0  0  0  0  0  0  0  0  0  0  0  0
    1.9801   24.0838    6.1314 C   0  0  0  0  0  0  0  0  0  0  0  0
    1.0372   23.5027    7.0155 C   0  0  0  0  0  0  0  0  0  0  0  0
    1.5675   22.5779    7.9110 C   0  0  0  0  0  0  0  0  0  0  0  0
   -0.4030   23.8560    7.0040 C   0  0  0  0  0  0  0  0  0  0  0  0
   -0.7693   25.1633    6.7418 C   0  0  0  0  0  0  0  0  0  0  0  0
   -2.1127   25.5014    6.7358 C   0  0  0  0  0  0  0  0  0  0  0  0
   -3.0614   24.5466    6.9841 C   0  0  0  0  0  0  0  0  0  0  0  0
   -2.6930   23.2255    7.2430 C   0  0  0  0  0  0  0  0  0  0  0  0
   -1.3531   22.8865    7.2526 C   0  0  0  0  0  0  0  0  0  0  0  0
    9.1423   26.0186   -0.4665 C   0  0  0  0  0  0  0  0  0  0  0  0
    9.3406   24.7476   -1.2070 C   0  0  0  0  0  0  0  0  0  0  0  0
    9.0918   23.6514   -0.6434 O   0  0  0  0  0  0  0  0  0  0  0  0
    9.7911   24.7957   -2.5393 N   0  0  0  0  0  0  0  0  0  0  0  0
    9.9766   25.6656   -2.9614 H   0  0  0  0  0  0  0  0  0  0  0  0
    9.9921   23.5218   -3.3268 C   0  0  0  0  0  0  0  0  0  0  0  0
   11.0932   23.6824   -4.2414 C   0  0  0  0  0  0  0  0  0  0  0  0
   11.2958   24.8080   -4.8246 O   0  0  0  0  0  0  0  0  0  0  0  0
   12.0017   22.5324   -4.5085 N   0  0  0  0  0  0  0  0  0  0  0  0
   11.8472   21.6689   -4.0617 H   0  0  0  0  0  0  0  0  0  0  0  0
   12.7567   22.6360   -5.1318 H   0  0  0  0  0  0  0  0  0  0  0  0
    8.7438   23.0803   -4.1092 C   0  0  0  0  0  0  0  0  0  0  0  0
    8.0187   24.0429   -4.7618 C   0  0  0  0  0  0  0  0  0  0  0  0
    7.0467   23.4524   -5.8370 C   0  0  0  0  0  0  0  0  0  0  0  0
    6.2960   24.3086   -6.5132 O   0  0  0  0  0  0  0  0  0  0  0  0
    6.9509   22.2211   -6.0018 O   0  0  0  0  0  0  0  0  0  0  0  0
    7.4952   21.6388   -5.5093 H   0  0  0  0  0  0  0  0  0  0  0  0
   10.1795   27.0394   -0.8189 C   0  0  0  0  0  0  0  0  0  0  0  0
   11.4944   26.8255   -0.1498 C   0  0  0  0  0  0  0  0  0  0  0  0
   12.6671   26.7139   -1.1552 C   0  0  0  0  0  0  0  0  0  0  0  0
   12.2861   26.5460   -2.2946 O   0  0  0  0  0  0  0  0  0  0  0  0
   13.7829   26.7751   -0.7768 O   0  0  0  0  0  0  0  0  0  0  0  0
   13.9623   26.9084    0.1331 H   0  0  0  0  0  0  0  0  0  0  0  0
 30 29  1  0  0  0
 30 32  1  0  0  0
 30 31  2  0  0  0
 27 29  1  0  0  0
 27 25  1  0  0  0
 26 25  2  0  0  0
 29 35  1  0  0  0
  3 24  1  0  0  0
  3  2  1  0  0  0
  1  2  2  0  0  0
 35 36  1  0  0  0
 36 37  1  0  0  0
 45 43  1  0  0  0
 37 39  1  0  0  0
 37 38  2  0  0  0
 25 24  1  0  0  0
 24 41  1  0  0  0
 13 14  1  0  0  0
 13 17  1  0  0  0
 41 42  1  0  0  0
 42 43  1  0  0  0
 43 44  2  0  0  0
  2  5  1  0  0  0
  5  6  1  0  0  0
  6 11  1  0  0  0
  7 10  2  0  0  0
  7 11  1  0  0  0
  8  9  2  0  0  0
  8 12  1  0  0  0
  9 10  1  0  0  0
  9 14  1  0  0  0
 14 15  2  0  0  0
 15 16  1  0  0  0
 16 18  1  0  0  0
 16 17  2  0  0  0
 18 19  2  0  0  0
 18 23  1  0  0  0
 19 20  1  0  0  0
 20 21  2  0  0  0
 21 22  1  0  0  0
 22 23  2  0  0  0
 11 12  2  0  0  0
  3  4  1  0  0  0
 45 46  1  0  0  0
 27 28  1  0  0  0
 39 40  1  0  0  0
 32 33  1  0  0  0
 32 34  1  0  0  0
M  END
> <minimizedAffinity>
-9.69146

$$$$
3TS4_EEG_A_306


 46 48  0  0  0  0  0  0  0  0999 V2000
    9.4937   27.0857    4.0396 O   0  0  0  0  0  0  0  0  0  0  0  0
    8.2494   27.0901    4.0799 C   0  0  0  0  0  0  0  0  0  0  0  0
    7.5202   28.0963    4.7606 N   0  0  0  0  0  0  0  0  0  0  0  0
    6.5359   28.0823    4.7754 H   0  0  0  0  0  0  0  0  0  0  0  0
    7.4610   25.9906    3.3133 C   0  0  0  0  0  0  0  0  0  0  0  0
    7.5481   24.7102    4.1410 C   0  0  0  0  0  0  0  0  0  0  0  0
    5.0795   24.8990    4.3794 C   0  0  0  0  0  0  0  0  0  0  0  0
    5.0963   23.0831    6.4818 C   0  0  0  0  0  0  0  0  0  0  0  0
    3.9007   23.6567    6.0249 C   0  0  0  0  0  0  0  0  0  0  0  0
    3.8768   24.5633    4.9813 C   0  0  0  0  0  0  0  0  0  0  0  0
    6.2472   24.3211    4.8244 C   0  0  0  0  0  0  0  0  0  0  0  0
    6.2745   23.4230    5.8931 C   0  0  0  0  0  0  0  0  0  0  0  0
    2.6128   22.3020    8.1106 S   0  0  0  0  0  0  0  0  0  0  0  0
    2.6026   23.2626    6.7493 C   0  0  0  0  0  0  0  0  0  0  0  0
    1.2954   23.6500    6.4796 C   0  0  0  0  0  0  0  0  0  0  0  0
    0.3731   23.0933    7.4003 C   0  0  0  0  0  0  0  0  0  0  0  0
    0.9439   22.3052    8.3960 C   0  0  0  0  0  0  0  0  0  0  0  0
   -1.0878   23.3366    7.3248 C   0  0  0  0  0  0  0  0  0  0  0  0
   -1.5393   24.5912    6.9586 C   0  0  0  0  0  0  0  0  0  0  0  0
   -2.9027   24.8270    6.8922 C   0  0  0  0  0  0  0  0  0  0  0  0
   -3.7872   23.8241    7.1841 C   0  0  0  0  0  0  0  0  0  0  0  0
   -3.3326   22.5557    7.5481 C   0  0  0  0  0  0  0  0  0  0  0  0
   -1.9727   22.3190    7.6179 C   0  0  0  0  0  0  0  0  0  0  0  0
    8.2530   29.1406    5.4308 C   0  0  0  0  0  0  0  0  0  0  0  0
    7.9309   29.3641    6.8624 C   0  0  0  0  0  0  0  0  0  0  0  0
    6.7648   29.1486    7.2809 O   0  0  0  0  0  0  0  0  0  0  0  0
    8.9476   29.8005    7.7319 N   0  0  0  0  0  0  0  0  0  0  0  0
    9.8542   29.9598    7.3827 H   0  0  0  0  0  0  0  0  0  0  0  0
    8.6578   30.0264    9.1976 C   0  0  0  0  0  0  0  0  0  0  0  0
    7.8276   31.1926    9.3566 C   0  0  0  0  0  0  0  0  0  0  0  0
    8.2740   32.3561    9.0481 O   0  0  0  0  0  0  0  0  0  0  0  0
    6.4415   31.0432    9.8814 N   0  0  0  0  0  0  0  0  0  0  0  0
    6.0983   30.1514   10.1183 H   0  0  0  0  0  0  0  0  0  0  0  0
    5.8686   31.8363    9.9915 H   0  0  0  0  0  0  0  0  0  0  0  0
    9.9239   30.1848   10.0563 C   0  0  0  0  0  0  0  0  0  0  0  0
    9.8124   29.9972   11.4092 C   0  0  0  0  0  0  0  0  0  0  0  0
   10.0470   28.5114   11.8420 C   0  0  0  0  0  0  0  0  0  0  0  0
    8.9752   27.7558   12.0266 O   0  0  0  0  0  0  0  0  0  0  0  0
   11.1976   28.0841   12.0557 O   0  0  0  0  0  0  0  0  0  0  0  0
   11.9378   28.6415   11.9164 H   0  0  0  0  0  0  0  0  0  0  0  0
    7.9248   30.3353    4.5901 C   0  0  0  0  0  0  0  0  0  0  0  0
    9.1172   31.1141    4.1494 C   0  0  0  0  0  0  0  0  0  0  0  0
    9.3641   32.3734    5.0163 C   0  0  0  0  0  0  0  0  0  0  0  0
    9.4820   33.3794    4.3489 O   0  0  0  0  0  0  0  0  0  0  0  0
    9.4369   32.2824    6.1904 O   0  0  0  0  0  0  0  0  0  0  0  0
    9.3286   31.4483    6.6032 H   0  0  0  0  0  0  0  0  0  0  0  0
 30 29  1  0  0  0
 30 32  1  0  0  0
 30 31  2  0  0  0
 27 29  1  0  0  0
 27 25  1  0  0  0
 26 25  2  0  0  0
 29 35  1  0  0  0
  3 24  1  0  0  0
  3  2  1  0  0  0
  1  2  2  0  0  0
 35 36  1  0  0  0
 36 37  1  0  0  0
 45 43  1  0  0  0
 37 39  1  0  0  0
 37 38  2  0  0  0
 25 24  1  0  0  0
 24 41  1  0  0  0
 13 14  1  0  0  0
 13 17  1  0  0  0
 41 42  1  0  0  0
 42 43  1  0  0  0
 43 44  2  0  0  0
  2  5  1  0  0  0
  5  6  1  0  0  0
  6 11  1  0  0  0
  7 10  2  0  0  0
  7 11  1  0  0  0
  8  9  2  0  0  0
  8 12  1  0  0  0
  9 10  1  0  0  0
  9 14  1  0  0  0
 14 15  2  0  0  0
 15 16  1  0  0  0
 16 18  1  0  0  0
 16 17  2  0  0  0
 18 19  2  0  0  0
 18 23  1  0  0  0
 19 20  1  0  0  0
 20 21  2  0  0  0
 21 22  1  0  0  0
 22 23  2  0  0  0
 11 12  2  0  0  0
  3  4  1  0  0  0
 45 46  1  0  0  0
 27 28  1  0  0  0
 39 40  1  0  0  0
 32 33  1  0  0  0
 32 34  1  0  0  0
M  END
> <minimizedAffinity>
-9.62365

$$$$
3TS4_EEG_A_306


 46 48  0  0  0  0  0  0  0  0999 V2000
    8.3719   28.1569    2.1085 O   0  0  0  0  0  0  0  0  0  0  0  0
    8.8298   27.0279    2.3641 C   0  0  0  0  0  0  0  0  0  0  0  0
    9.5121   26.2530    1.3937 N   0  0  0  0  0  0  0  0  0  0  0  0
    9.8700   25.3641    1.6196 H   0  0  0  0  0  0  0  0  0  0  0  0
    8.7023   26.4659    3.8085 C   0  0  0  0  0  0  0  0  0  0  0  0
    8.3355   24.9884    3.6892 C   0  0  0  0  0  0  0  0  0  0  0  0
    5.8731   25.2413    3.9337 C   0  0  0  0  0  0  0  0  0  0  0  0
    5.8360   23.3630    5.9802 C   0  0  0  0  0  0  0  0  0  0  0  0
    4.6578   23.9844    5.5411 C   0  0  0  0  0  0  0  0  0  0  0  0
    4.6609   24.9225    4.5254 C   0  0  0  0  0  0  0  0  0  0  0  0
    7.0234   24.6166    4.3608 C   0  0  0  0  0  0  0  0  0  0  0  0
    7.0239   23.6862    5.4018 C   0  0  0  0  0  0  0  0  0  0  0  0
    3.3149   22.5089    7.5066 S   0  0  0  0  0  0  0  0  0  0  0  0
    3.3484   23.6063    6.2534 C   0  0  0  0  0  0  0  0  0  0  0  0
    2.0673   24.1092    6.0590 C   0  0  0  0  0  0  0  0  0  0  0  0
    1.1247   23.5231    6.9400 C   0  0  0  0  0  0  0  0  0  0  0  0
    1.6559   22.5968    7.8334 C   0  0  0  0  0  0  0  0  0  0  0  0
   -0.3164   23.8731    6.9276 C   0  0  0  0  0  0  0  0  0  0  0  0
   -1.2375   22.9314    7.3479 C   0  0  0  0  0  0  0  0  0  0  0  0
   -2.5855   23.2497    7.3328 C   0  0  0  0  0  0  0  0  0  0  0  0
   -2.9939   24.4852    6.9084 C   0  0  0  0  0  0  0  0  0  0  0  0
   -2.0646   25.4386    6.4896 C   0  0  0  0  0  0  0  0  0  0  0  0
   -0.7192   25.1222    6.5009 C   0  0  0  0  0  0  0  0  0  0  0  0
    9.6698   26.7965    0.0684 C   0  0  0  0  0  0  0  0  0  0  0  0
    9.1025   25.9994   -1.0479 C   0  0  0  0  0  0  0  0  0  0  0  0
    7.8789   25.7093   -1.0490 O   0  0  0  0  0  0  0  0  0  0  0  0
    9.9478   25.5950   -2.0977 N   0  0  0  0  0  0  0  0  0  0  0  0
   10.9020   25.8363   -2.0775 H   0  0  0  0  0  0  0  0  0  0  0  0
    9.4013   24.7931   -3.2561 C   0  0  0  0  0  0  0  0  0  0  0  0
    9.9089   23.4463   -3.1993 C   0  0  0  0  0  0  0  0  0  0  0  0
    9.3964   22.5913   -2.3904 O   0  0  0  0  0  0  0  0  0  0  0  0
   11.0356   23.0466   -4.0882 N   0  0  0  0  0  0  0  0  0  0  0  0
   11.4292   23.7016   -4.7088 H   0  0  0  0  0  0  0  0  0  0  0  0
   11.3865   22.1273   -4.0550 H   0  0  0  0  0  0  0  0  0  0  0  0
    9.7276   25.4001   -4.6310 C   0  0  0  0  0  0  0  0  0  0  0  0
   10.4793   26.5453   -4.6676 C   0  0  0  0  0  0  0  0  0  0  0  0
   11.9438   26.3000   -5.1625 C   0  0  0  0  0  0  0  0  0  0  0  0
   12.1977   25.1464   -5.7615 O   0  0  0  0  0  0  0  0  0  0  0  0
   12.8386   27.1394   -4.9459 O   0  0  0  0  0  0  0  0  0  0  0  0
   12.6298   27.9475   -4.5200 H   0  0  0  0  0  0  0  0  0  0  0  0
   11.1578   26.9261   -0.0361 C   0  0  0  0  0  0  0  0  0  0  0  0
   11.6281   28.3110   -0.3250 C   0  0  0  0  0  0  0  0  0  0  0  0
   12.0805   28.4957   -1.7946 C   0  0  0  0  0  0  0  0  0  0  0  0
   11.2835   29.1361   -2.4475 O   0  0  0  0  0  0  0  0  0  0  0  0
   13.0927   28.0197   -2.1697 O   0  0  0  0  0  0  0  0  0  0  0  0
   13.6348   27.5415   -1.5735 H   0  0  0  0  0  0  0  0  0  0  0  0
 30 29  1  0  0  0
 30 32  1  0  0  0
 30 31  2  0  0  0
 27 29  1  0  0  0
 27 25  1  0  0  0
 26 25  2  0  0  0
 29 35  1  0  0  0
  3 24  1  0  0  0
  3  2  1  0  0  0
  1  2  2  0  0  0
 35 36  1  0  0  0
 36 37  1  0  0  0
 45 43  1  0  0  0
 37 39  1  0  0  0
 37 38  2  0  0  0
 25 24  1  0  0  0
 24 41  1  0  0  0
 13 14  1  0  0  0
 13 17  1  0  0  0
 41 42  1  0  0  0
 42 43  1  0  0  0
 43 44  2  0  0  0
  2  5  1  0  0  0
  5  6  1  0  0  0
  6 11  1  0  0  0
  7 10  2  0  0  0
  7 11  1  0  0  0
  8  9  2  0  0  0
  8 12  1  0  0  0
  9 10  1  0  0  0
  9 14  1  0  0  0
 14 15  2  0  0  0
 15 16  1  0  0  0
 16 18  1  0  0  0
 16 17  2  0  0  0
 18 19  2  0  0  0
 18 23  1  0  0  0
 19 20  1  0  0  0
 20 21  2  0  0  0
 21 22  1  0  0  0
 22 23  2  0  0  0
 11 12  2  0  0  0
  3  4  1  0  0  0
 45 46  1  0  0  0
 27 28  1  0  0  0
 39 40  1  0  0  0
 32 33  1  0  0  0
 32 34  1  0  0  0
M  END
> <minimizedAffinity>
-9.50842

$$$$
3TS4_EEG_A_306


 46 48  0  0  0  0  0  0  0  0999 V2000
    6.8870   26.4188    1.1480 O   0  0  0  0  0  0  0  0  0  0  0  0
    7.9237   25.8131    1.4770 C   0  0  0  0  0  0  0  0  0  0  0  0
    9.1903   26.1321    0.9278 N   0  0  0  0  0  0  0  0  0  0  0  0
    9.9979   25.6426    1.2063 H   0  0  0  0  0  0  0  0  0  0  0  0
    7.8434   24.7070    2.5671 C   0  0  0  0  0  0  0  0  0  0  0  0
    7.5184   25.3972    3.8900 C   0  0  0  0  0  0  0  0  0  0  0  0
    5.0438   25.2951    4.1198 C   0  0  0  0  0  0  0  0  0  0  0  0
    5.2676   23.5322    6.2551 C   0  0  0  0  0  0  0  0  0  0  0  0
    4.0142   23.9512    5.7853 C   0  0  0  0  0  0  0  0  0  0  0  0
    3.8871   24.8296    4.7252 C   0  0  0  0  0  0  0  0  0  0  0  0
    6.2701   24.8684    4.5777 C   0  0  0  0  0  0  0  0  0  0  0  0
    6.3995   23.9993    5.6628 C   0  0  0  0  0  0  0  0  0  0  0  0
    2.8834   22.3137    7.7560 S   0  0  0  0  0  0  0  0  0  0  0  0
    2.7692   23.4184    6.5140 C   0  0  0  0  0  0  0  0  0  0  0  0
    1.4357   23.7718    6.3450 C   0  0  0  0  0  0  0  0  0  0  0  0
    0.5817   23.0734    7.2345 C   0  0  0  0  0  0  0  0  0  0  0  0
    1.2310   22.2069    8.1096 C   0  0  0  0  0  0  0  0  0  0  0  0
   -0.8901   23.2550    7.2483 C   0  0  0  0  0  0  0  0  0  0  0  0
   -1.6862   22.2316    7.7287 C   0  0  0  0  0  0  0  0  0  0  0  0
   -3.0621   22.3923    7.7385 C   0  0  0  0  0  0  0  0  0  0  0  0
   -3.6202   23.5546    7.2793 C   0  0  0  0  0  0  0  0  0  0  0  0
   -2.8172   24.5906    6.7997 C   0  0  0  0  0  0  0  0  0  0  0  0
   -1.4443   24.4313    6.7862 C   0  0  0  0  0  0  0  0  0  0  0  0
    9.2688   27.1896   -0.0480 C   0  0  0  0  0  0  0  0  0  0  0  0
    9.4563   26.7764   -1.4612 C   0  0  0  0  0  0  0  0  0  0  0  0
    9.4104   27.6390   -2.3751 O   0  0  0  0  0  0  0  0  0  0  0  0
    9.6989   25.4209   -1.7507 N   0  0  0  0  0  0  0  0  0  0  0  0
    9.7337   24.7634   -1.0188 H   0  0  0  0  0  0  0  0  0  0  0  0
    9.9065   24.9671   -3.1771 C   0  0  0  0  0  0  0  0  0  0  0  0
    9.3154   23.6673   -3.3663 C   0  0  0  0  0  0  0  0  0  0  0  0
    9.6926   22.6706   -2.6506 O   0  0  0  0  0  0  0  0  0  0  0  0
    8.2584   23.4830   -4.3997 N   0  0  0  0  0  0  0  0  0  0  0  0
    7.9685   24.2468   -4.9490 H   0  0  0  0  0  0  0  0  0  0  0  0
    7.8497   22.5973   -4.5333 H   0  0  0  0  0  0  0  0  0  0  0  0
   11.3855   24.9171   -3.5962 C   0  0  0  0  0  0  0  0  0  0  0  0
   11.6802   24.5124   -4.8719 C   0  0  0  0  0  0  0  0  0  0  0  0
   12.6006   23.2472   -4.9150 C   0  0  0  0  0  0  0  0  0  0  0  0
   13.5391   23.2099   -5.8487 O   0  0  0  0  0  0  0  0  0  0  0  0
   12.4122   22.2954   -4.1335 O   0  0  0  0  0  0  0  0  0  0  0  0
   11.7407   22.3496   -3.4823 H   0  0  0  0  0  0  0  0  0  0  0  0
   10.4273   27.9911    0.4592 C   0  0  0  0  0  0  0  0  0  0  0  0
   10.0352   29.2280    1.1933 C   0  0  0  0  0  0  0  0  0  0  0  0
   10.0962   29.0567    2.7313 C   0  0  0  0  0  0  0  0  0  0  0  0
   10.1814   27.8935    3.0648 O   0  0  0  0  0  0  0  0  0  0  0  0
   10.0406   30.0000    3.4376 O   0  0  0  0  0  0  0  0  0  0  0  0
    9.9759   30.8587    3.0682 H   0  0  0  0  0  0  0  0  0  0  0  0
 30 29  1  0  0  0
 30 32  1  0  0  0
 30 31  2  0  0  0
 27 29  1  0  0  0
 27 25  1  0  0  0
 26 25  2  0  0  0
 29 35  1  0  0  0
  3 24  1  0  0  0
  3  2  1  0  0  0
  1  2  2  0  0  0
 35 36  1  0  0  0
 36 37  1  0  0  0
 45 43  1  0  0  0
 37 39  1  0  0  0
 37 38  2  0  0  0
 25 24  1  0  0  0
 24 41  1  0  0  0
 13 14  1  0  0  0
 13 17  1  0  0  0
 41 42  1  0  0  0
 42 43  1  0  0  0
 43 44  2  0  0  0
  2  5  1  0  0  0
  5  6  1  0  0  0
  6 11  1  0  0  0
  7 10  2  0  0  0
  7 11  1  0  0  0
  8  9  2  0  0  0
  8 12  1  0  0  0
  9 10  1  0  0  0
  9 14  1  0  0  0
 14 15  2  0  0  0
 15 16  1  0  0  0
 16 18  1  0  0  0
 16 17  2  0  0  0
 18 19  2  0  0  0
 18 23  1  0  0  0
 19 20  1  0  0  0
 20 21  2  0  0  0
 21 22  1  0  0  0
 22 23  2  0  0  0
 11 12  2  0  0  0
  3  4  1  0  0  0
 45 46  1  0  0  0
 27 28  1  0  0  0
 39 40  1  0  0  0
 32 33  1  0  0  0
 32 34  1  0  0  0
M  END
> <minimizedAffinity>
-9.47186

$$$$
3TS4_EEG_A_306


 46 48  0  0  0  0  0  0  0  0999 V2000
    5.0487   25.0716    4.5844 O   0  0  0  0  0  0  0  0  0  0  0  0
    6.0138   24.7790    5.3141 C   0  0  0  0  0  0  0  0  0  0  0  0
    7.3010   25.3397    5.1237 N   0  0  0  0  0  0  0  0  0  0  0  0
    8.0489   25.0971    5.7162 H   0  0  0  0  0  0  0  0  0  0  0  0
    5.7947   23.8102    6.5107 C   0  0  0  0  0  0  0  0  0  0  0  0
    4.7814   22.7590    6.0631 C   0  0  0  0  0  0  0  0  0  0  0  0
    2.8434   22.6385    7.6176 C   0  0  0  0  0  0  0  0  0  0  0  0
    1.2781   24.1087    5.8552 C   0  0  0  0  0  0  0  0  0  0  0  0
    0.7681   23.6620    7.0830 C   0  0  0  0  0  0  0  0  0  0  0  0
    1.5342   22.9277    7.9692 C   0  0  0  0  0  0  0  0  0  0  0  0
    3.3411   23.0925    6.4168 C   0  0  0  0  0  0  0  0  0  0  0  0
    2.5609   23.8144    5.5115 C   0  0  0  0  0  0  0  0  0  0  0  0
   -1.3132   25.5312    7.2171 S   0  0  0  0  0  0  0  0  0  0  0  0
   -0.6986   23.9941    7.4049 C   0  0  0  0  0  0  0  0  0  0  0  0
   -1.7217   23.1449    7.8097 C   0  0  0  0  0  0  0  0  0  0  0  0
   -2.9501   23.8313    7.9769 C   0  0  0  0  0  0  0  0  0  0  0  0
   -2.9056   25.1910    7.6811 C   0  0  0  0  0  0  0  0  0  0  0  0
   -4.1956   23.1588    8.4195 C   0  0  0  0  0  0  0  0  0  0  0  0
   -4.1523   21.8148    8.7418 C   0  0  0  0  0  0  0  0  0  0  0  0
   -5.3134   21.1791    9.1499 C   0  0  0  0  0  0  0  0  0  0  0  0
   -6.4860   21.8801    9.2340 C   0  0  0  0  0  0  0  0  0  0  0  0
   -6.5295   23.2381    8.9147 C   0  0  0  0  0  0  0  0  0  0  0  0
   -5.3729   23.8738    8.5043 C   0  0  0  0  0  0  0  0  0  0  0  0
    7.4898   26.2735    4.0424 C   0  0  0  0  0  0  0  0  0  0  0  0
    8.2736   25.7911    2.8779 C   0  0  0  0  0  0  0  0  0  0  0  0
    8.6743   24.5996    2.8455 O   0  0  0  0  0  0  0  0  0  0  0  0
    8.5408   26.6783    1.8189 N   0  0  0  0  0  0  0  0  0  0  0  0
    8.2144   27.6060    1.8643 H   0  0  0  0  0  0  0  0  0  0  0  0
    9.3253   26.2174    0.6123 C   0  0  0  0  0  0  0  0  0  0  0  0
    9.9602   27.3468   -0.0170 C   0  0  0  0  0  0  0  0  0  0  0  0
   10.5906   28.2151    0.6878 O   0  0  0  0  0  0  0  0  0  0  0  0
    9.8837   27.5038   -1.4965 N   0  0  0  0  0  0  0  0  0  0  0  0
    9.4005   26.8384   -2.0378 H   0  0  0  0  0  0  0  0  0  0  0  0
   10.3164   28.2730   -1.9329 H   0  0  0  0  0  0  0  0  0  0  0  0
    8.4711   25.4721   -0.4271 C   0  0  0  0  0  0  0  0  0  0  0  0
    8.7591   24.1550   -0.6725 C   0  0  0  0  0  0  0  0  0  0  0  0
    9.2720   23.9024   -2.1295 C   0  0  0  0  0  0  0  0  0  0  0  0
    9.3333   22.6457   -2.5429 O   0  0  0  0  0  0  0  0  0  0  0  0
    9.6576   24.8487   -2.8423 O   0  0  0  0  0  0  0  0  0  0  0  0
    9.6024   25.7281   -2.5236 H   0  0  0  0  0  0  0  0  0  0  0  0
    8.1642   27.4159    4.7365 C   0  0  0  0  0  0  0  0  0  0  0  0
    7.2826   28.5974    4.9588 C   0  0  0  0  0  0  0  0  0  0  0  0
    7.3248   29.6059    3.7843 C   0  0  0  0  0  0  0  0  0  0  0  0
    8.3341   29.5009    3.1196 O   0  0  0  0  0  0  0  0  0  0  0  0
    6.4437   30.3749    3.6287 O   0  0  0  0  0  0  0  0  0  0  0  0
    5.7066   30.3662    4.2070 H   0  0  0  0  0  0  0  0  0  0  0  0
 30 29  1  0  0  0
 30 32  1  0  0  0
 30 31  2  0  0  0
 27 29  1  0  0  0
 27 25  1  0  0  0
 26 25  2  0  0  0
 29 35  1  0  0  0
  3 24  1  0  0  0
  3  2  1  0  0  0
  1  2  2  0  0  0
 35 36  1  0  0  0
 36 37  1  0  0  0
 45 43  1  0  0  0
 37 39  1  0  0  0
 37 38  2  0  0  0
 25 24  1  0  0  0
 24 41  1  0  0  0
 13 14  1  0  0  0
 13 17  1  0  0  0
 41 42  1  0  0  0
 42 43  1  0  0  0
 43 44  2  0  0  0
  2  5  1  0  0  0
  5  6  1  0  0  0
  6 11  1  0  0  0
  7 10  2  0  0  0
  7 11  1  0  0  0
  8  9  2  0  0  0
  8 12  1  0  0  0
  9 10  1  0  0  0
  9 14  1  0  0  0
 14 15  2  0  0  0
 15 16  1  0  0  0
 16 18  1  0  0  0
 16 17  2  0  0  0
 18 19  2  0  0  0
 18 23  1  0  0  0
 19 20  1  0  0  0
 20 21  2  0  0  0
 21 22  1  0  0  0
 22 23  2  0  0  0
 11 12  2  0  0  0
  3  4  1  0  0  0
 45 46  1  0  0  0
 27 28  1  0  0  0
 39 40  1  0  0  0
 32 33  1  0  0  0
 32 34  1  0  0  0
M  END
> <minimizedAffinity>
-9.47114

$$$$
3TS4_EEG_A_306


 46 48  0  0  0  0  0  0  0  0999 V2000
   10.1262   26.3872    3.3184 O   0  0  0  0  0  0  0  0  0  0  0  0
    8.8936   26.5560    3.2737 C   0  0  0  0  0  0  0  0  0  0  0  0
    8.2538   27.1534    2.1595 N   0  0  0  0  0  0  0  0  0  0  0  0
    7.2767   27.2727    2.1439 H   0  0  0  0  0  0  0  0  0  0  0  0
    8.0142   26.0463    4.4507 C   0  0  0  0  0  0  0  0  0  0  0  0
    7.4123   24.7102    4.0212 C   0  0  0  0  0  0  0  0  0  0  0  0
    6.2390   23.4114    5.7884 C   0  0  0  0  0  0  0  0  0  0  0  0
    3.8058   24.5443    5.0718 C   0  0  0  0  0  0  0  0  0  0  0  0
    3.8969   23.6195    6.1223 C   0  0  0  0  0  0  0  0  0  0  0  0
    5.1002   23.0458    6.4889 C   0  0  0  0  0  0  0  0  0  0  0  0
    6.1437   24.3304    4.7676 C   0  0  0  0  0  0  0  0  0  0  0  0
    4.9253   24.8927    4.3821 C   0  0  0  0  0  0  0  0  0  0  0  0
    2.5985   22.3177    8.2349 S   0  0  0  0  0  0  0  0  0  0  0  0
    2.5946   23.2364    6.8450 C   0  0  0  0  0  0  0  0  0  0  0  0
    1.2871   23.6042    6.5503 C   0  0  0  0  0  0  0  0  0  0  0  0
    0.3599   23.0677    7.4780 C   0  0  0  0  0  0  0  0  0  0  0  0
    0.9267   22.3151    8.5030 C   0  0  0  0  0  0  0  0  0  0  0  0
   -1.1021   23.2961    7.3802 C   0  0  0  0  0  0  0  0  0  0  0  0
   -1.5609   24.5470    7.0105 C   0  0  0  0  0  0  0  0  0  0  0  0
   -2.9255   24.7688    6.9234 C   0  0  0  0  0  0  0  0  0  0  0  0
   -3.8040   23.7559    7.1984 C   0  0  0  0  0  0  0  0  0  0  0  0
   -3.3419   22.4912    7.5660 C   0  0  0  0  0  0  0  0  0  0  0  0
   -1.9808   22.2684    7.6565 C   0  0  0  0  0  0  0  0  0  0  0  0
    9.0669   27.5822    1.0497 C   0  0  0  0  0  0  0  0  0  0  0  0
    9.1439   29.0449    0.8093 C   0  0  0  0  0  0  0  0  0  0  0  0
    8.7744   29.5161   -0.2966 O   0  0  0  0  0  0  0  0  0  0  0  0
    9.6173   29.8826    1.8361 N   0  0  0  0  0  0  0  0  0  0  0  0
    9.8982   29.4919    2.6950 H   0  0  0  0  0  0  0  0  0  0  0  0
    9.6975   31.3774    1.6300 C   0  0  0  0  0  0  0  0  0  0  0  0
   11.0611   31.8175    1.7770 C   0  0  0  0  0  0  0  0  0  0  0  0
   11.8684   31.7789    0.7796 O   0  0  0  0  0  0  0  0  0  0  0  0
   11.5334   32.3216    3.0969 N   0  0  0  0  0  0  0  0  0  0  0  0
   10.9149   32.3516    3.8623 H   0  0  0  0  0  0  0  0  0  0  0  0
   12.4639   32.6247    3.2037 H   0  0  0  0  0  0  0  0  0  0  0  0
    8.8004   32.1782    2.5888 C   0  0  0  0  0  0  0  0  0  0  0  0
    7.8991   31.4874    3.3559 C   0  0  0  0  0  0  0  0  0  0  0  0
    8.2744   31.4716    4.8753 C   0  0  0  0  0  0  0  0  0  0  0  0
    7.3342   31.0974    5.7297 O   0  0  0  0  0  0  0  0  0  0  0  0
    9.3974   31.8517    5.2582 O   0  0  0  0  0  0  0  0  0  0  0  0
   10.0434   32.1107    4.6309 H   0  0  0  0  0  0  0  0  0  0  0  0
    8.4296   26.8594   -0.0963 C   0  0  0  0  0  0  0  0  0  0  0  0
    9.2402   25.7259   -0.6259 C   0  0  0  0  0  0  0  0  0  0  0  0
    8.6436   24.3429   -0.2656 C   0  0  0  0  0  0  0  0  0  0  0  0
    7.8177   24.4112    0.6203 O   0  0  0  0  0  0  0  0  0  0  0  0
    9.0157   23.3714   -0.8219 O   0  0  0  0  0  0  0  0  0  0  0  0
    9.6629   23.4366   -1.4964 H   0  0  0  0  0  0  0  0  0  0  0  0
 30 29  1  0  0  0
 30 32  1  0  0  0
 30 31  2  0  0  0
 27 29  1  0  0  0
 27 25  1  0  0  0
 26 25  2  0  0  0
 29 35  1  0  0  0
  3 24  1  0  0  0
  3  2  1  0  0  0
  1  2  2  0  0  0
 35 36  1  0  0  0
 36 37  1  0  0  0
 45 43  1  0  0  0
 37 39  1  0  0  0
 37 38  2  0  0  0
 25 24  1  0  0  0
 24 41  1  0  0  0
 13 14  1  0  0  0
 13 17  1  0  0  0
 41 42  1  0  0  0
 42 43  1  0  0  0
 43 44  2  0  0  0
  2  5  1  0  0  0
  5  6  1  0  0  0
  6 11  1  0  0  0
  7 10  2  0  0  0
  7 11  1  0  0  0
  8  9  2  0  0  0
  8 12  1  0  0  0
  9 10  1  0  0  0
  9 14  1  0  0  0
 14 15  2  0  0  0
 15 16  1  0  0  0
 16 18  1  0  0  0
 16 17  2  0  0  0
 18 19  2  0  0  0
 18 23  1  0  0  0
 19 20  1  0  0  0
 20 21  2  0  0  0
 21 22  1  0  0  0
 22 23  2  0  0  0
 11 12  2  0  0  0
  3  4  1  0  0  0
 45 46  1  0  0  0
 27 28  1  0  0  0
 39 40  1  0  0  0
 32 33  1  0  0  0
 32 34  1  0  0  0
M  END
> <minimizedAffinity>
-9.38505

$$$$
3TS4_EEG_A_306


 46 48  0  0  0  0  0  0  0  0999 V2000
    7.1026   26.5318    1.1286 O   0  0  0  0  0  0  0  0  0  0  0  0
    8.0334   25.8801    1.6370 C   0  0  0  0  0  0  0  0  0  0  0  0
    9.3933   26.2201    1.4306 N   0  0  0  0  0  0  0  0  0  0  0  0
   10.1132   25.6929    1.8466 H   0  0  0  0  0  0  0  0  0  0  0  0
    7.7000   24.6862    2.5761 C   0  0  0  0  0  0  0  0  0  0  0  0
    7.4890   25.2567    3.9769 C   0  0  0  0  0  0  0  0  0  0  0  0
    5.0113   25.1855    4.1840 C   0  0  0  0  0  0  0  0  0  0  0  0
    5.1961   23.4866    6.3742 C   0  0  0  0  0  0  0  0  0  0  0  0
    3.9518   23.9030    5.8789 C   0  0  0  0  0  0  0  0  0  0  0  0
    3.8440   24.7498    4.7913 C   0  0  0  0  0  0  0  0  0  0  0  0
    6.2287   24.7612    4.6674 C   0  0  0  0  0  0  0  0  0  0  0  0
    6.3385   23.9244    5.7797 C   0  0  0  0  0  0  0  0  0  0  0  0
    2.7875   22.3711    7.9140 S   0  0  0  0  0  0  0  0  0  0  0  0
    2.6942   23.4047    6.6106 C   0  0  0  0  0  0  0  0  0  0  0  0
    1.3630   23.7411    6.3951 C   0  0  0  0  0  0  0  0  0  0  0  0
    0.4938   23.0884    7.3044 C   0  0  0  0  0  0  0  0  0  0  0  0
    1.1286   22.2751    8.2393 C   0  0  0  0  0  0  0  0  0  0  0  0
   -0.9787   23.2625    7.2782 C   0  0  0  0  0  0  0  0  0  0  0  0
   -1.5019   24.4768    6.8735 C   0  0  0  0  0  0  0  0  0  0  0  0
   -2.8764   24.6481    6.8528 C   0  0  0  0  0  0  0  0  0  0  0  0
   -3.7013   23.6220    7.2269 C   0  0  0  0  0  0  0  0  0  0  0  0
   -3.1743   22.3940    7.6299 C   0  0  0  0  0  0  0  0  0  0  0  0
   -1.8032   22.2217    7.6543 C   0  0  0  0  0  0  0  0  0  0  0  0
    9.6980   27.3558    0.5975 C   0  0  0  0  0  0  0  0  0  0  0  0
   10.5152   27.0909   -0.6130 C   0  0  0  0  0  0  0  0  0  0  0  0
   11.7593   26.9419   -0.5060 O   0  0  0  0  0  0  0  0  0  0  0  0
    9.8752   26.9955   -1.8625 N   0  0  0  0  0  0  0  0  0  0  0  0
    8.8995   27.1125   -1.9221 H   0  0  0  0  0  0  0  0  0  0  0  0
   10.6748   26.7147   -3.1137 C   0  0  0  0  0  0  0  0  0  0  0  0
   10.2715   27.6157   -4.1626 C   0  0  0  0  0  0  0  0  0  0  0  0
   11.0704   27.8871   -5.1302 O   0  0  0  0  0  0  0  0  0  0  0  0
    8.9167   28.2337   -4.1213 N   0  0  0  0  0  0  0  0  0  0  0  0
    8.3034   28.0262   -3.3797 H   0  0  0  0  0  0  0  0  0  0  0  0
    8.6346   28.8497   -4.8357 H   0  0  0  0  0  0  0  0  0  0  0  0
   10.5451   25.2657   -3.6127 C   0  0  0  0  0  0  0  0  0  0  0  0
    9.3290   24.6469   -3.4854 C   0  0  0  0  0  0  0  0  0  0  0  0
    9.2679   23.6625   -2.2701 C   0  0  0  0  0  0  0  0  0  0  0  0
    9.4558   22.3757   -2.5203 O   0  0  0  0  0  0  0  0  0  0  0  0
    8.9970   24.0775   -1.1270 O   0  0  0  0  0  0  0  0  0  0  0  0
    8.8693   24.9939   -0.9793 H   0  0  0  0  0  0  0  0  0  0  0  0
   10.4000   28.2636    1.5591 C   0  0  0  0  0  0  0  0  0  0  0  0
    9.5007   29.2357    2.2437 C   0  0  0  0  0  0  0  0  0  0  0  0
    9.4395   29.0189    3.7759 C   0  0  0  0  0  0  0  0  0  0  0  0
    9.6189   27.8603    4.0873 O   0  0  0  0  0  0  0  0  0  0  0  0
    9.2184   29.9263    4.4968 O   0  0  0  0  0  0  0  0  0  0  0  0
    9.0955   30.7856    4.1441 H   0  0  0  0  0  0  0  0  0  0  0  0
 30 29  1  0  0  0
 30 32  1  0  0  0
 30 31  2  0  0  0
 27 29  1  0  0  0
 27 25  1  0  0  0
 26 25  2  0  0  0
 29 35  1  0  0  0
  3 24  1  0  0  0
  3  2  1  0  0  0
  1  2  2  0  0  0
 35 36  1  0  0  0
 36 37  1  0  0  0
 45 43  1  0  0  0
 37 39  1  0  0  0
 37 38  2  0  0  0
 25 24  1  0  0  0
 24 41  1  0  0  0
 13 14  1  0  0  0
 13 17  1  0  0  0
 41 42  1  0  0  0
 42 43  1  0  0  0
 43 44  2  0  0  0
  2  5  1  0  0  0
  5  6  1  0  0  0
  6 11  1  0  0  0
  7 10  2  0  0  0
  7 11  1  0  0  0
  8  9  2  0  0  0
  8 12  1  0  0  0
  9 10  1  0  0  0
  9 14  1  0  0  0
 14 15  2  0  0  0
 15 16  1  0  0  0
 16 18  1  0  0  0
 16 17  2  0  0  0
 18 19  2  0  0  0
 18 23  1  0  0  0
 19 20  1  0  0  0
 20 21  2  0  0  0
 21 22  1  0  0  0
 22 23  2  0  0  0
 11 12  2  0  0  0
  3  4  1  0  0  0
 45 46  1  0  0  0
 27 28  1  0  0  0
 39 40  1  0  0  0
 32 33  1  0  0  0
 32 34  1  0  0  0
M  END
> <minimizedAffinity>
-9.33022

$$$$
3TS4_EEG_A_306


 46 48  0  0  0  0  0  0  0  0999 V2000
    6.6682   25.9446    1.0007 O   0  0  0  0  0  0  0  0  0  0  0  0
    7.8144   25.6163    1.3587 C   0  0  0  0  0  0  0  0  0  0  0  0
    8.9771   26.1610    0.7594 N   0  0  0  0  0  0  0  0  0  0  0  0
    9.8739   25.8900    1.0619 H   0  0  0  0  0  0  0  0  0  0  0  0
    7.9845   24.6187    2.5395 C   0  0  0  0  0  0  0  0  0  0  0  0
    7.6383   25.3715    3.8222 C   0  0  0  0  0  0  0  0  0  0  0  0
    5.1645   25.3045    4.0725 C   0  0  0  0  0  0  0  0  0  0  0  0
    5.3817   23.5530    6.2179 C   0  0  0  0  0  0  0  0  0  0  0  0
    4.1304   23.9858    5.7553 C   0  0  0  0  0  0  0  0  0  0  0  0
    4.0065   24.8587    4.6904 C   0  0  0  0  0  0  0  0  0  0  0  0
    6.3886   24.8642    4.5235 C   0  0  0  0  0  0  0  0  0  0  0  0
    6.5150   24.0007    5.6133 C   0  0  0  0  0  0  0  0  0  0  0  0
    2.9995   22.4534    7.8089 S   0  0  0  0  0  0  0  0  0  0  0  0
    2.8842   23.4749    6.4977 C   0  0  0  0  0  0  0  0  0  0  0  0
    1.5470   23.7896    6.2865 C   0  0  0  0  0  0  0  0  0  0  0  0
    0.6924   23.1315    7.2056 C   0  0  0  0  0  0  0  0  0  0  0  0
    1.3440   22.3354    8.1436 C   0  0  0  0  0  0  0  0  0  0  0  0
   -0.7827   23.2835    7.1857 C   0  0  0  0  0  0  0  0  0  0  0  0
   -1.5690   22.2433    7.6459 C   0  0  0  0  0  0  0  0  0  0  0  0
   -2.9476   22.3764    7.6242 C   0  0  0  0  0  0  0  0  0  0  0  0
   -3.5183   23.5283    7.1542 C   0  0  0  0  0  0  0  0  0  0  0  0
   -2.7254   24.5812    6.6950 C   0  0  0  0  0  0  0  0  0  0  0  0
   -1.3497   24.4495    6.7129 C   0  0  0  0  0  0  0  0  0  0  0  0
    8.8160   27.1209   -0.3033 C   0  0  0  0  0  0  0  0  0  0  0  0
    9.2024   26.6746   -1.6652 C   0  0  0  0  0  0  0  0  0  0  0  0
    8.9485   27.4050   -2.6569 O   0  0  0  0  0  0  0  0  0  0  0  0
    9.8636   25.4420   -1.8189 N   0  0  0  0  0  0  0  0  0  0  0  0
   10.0549   24.8881   -1.0278 H   0  0  0  0  0  0  0  0  0  0  0  0
   10.2822   24.9625   -3.1894 C   0  0  0  0  0  0  0  0  0  0  0  0
    9.8795   23.5915   -3.3704 C   0  0  0  0  0  0  0  0  0  0  0  0
    9.4625   22.8987   -2.3733 O   0  0  0  0  0  0  0  0  0  0  0  0
    9.9475   22.9774   -4.7259 N   0  0  0  0  0  0  0  0  0  0  0  0
   10.2672   23.5079   -5.4912 H   0  0  0  0  0  0  0  0  0  0  0  0
    9.6728   22.0410   -4.8565 H   0  0  0  0  0  0  0  0  0  0  0  0
   11.7934   25.0850   -3.4475 C   0  0  0  0  0  0  0  0  0  0  0  0
   12.3603   26.3307   -3.3762 C   0  0  0  0  0  0  0  0  0  0  0  0
   13.2420   26.5291   -2.0983 C   0  0  0  0  0  0  0  0  0  0  0  0
   12.6148   26.6220   -0.9356 O   0  0  0  0  0  0  0  0  0  0  0  0
   14.4786   26.6497   -2.1899 O   0  0  0  0  0  0  0  0  0  0  0  0
   14.8956   26.5792   -3.0260 H   0  0  0  0  0  0  0  0  0  0  0  0
    9.6664   28.2562    0.1759 C   0  0  0  0  0  0  0  0  0  0  0  0
    9.4183   28.6448    1.5936 C   0  0  0  0  0  0  0  0  0  0  0  0
    8.0783   29.3978    1.7827 C   0  0  0  0  0  0  0  0  0  0  0  0
    7.8316   30.1437    0.8585 O   0  0  0  0  0  0  0  0  0  0  0  0
    7.4323   29.2273    2.7551 O   0  0  0  0  0  0  0  0  0  0  0  0
    7.7211   28.6218    3.4093 H   0  0  0  0  0  0  0  0  0  0  0  0
 30 29  1  0  0  0
 30 32  1  0  0  0
 30 31  2  0  0  0
 27 29  1  0  0  0
 27 25  1  0  0  0
 26 25  2  0  0  0
 29 35  1  0  0  0
  3 24  1  0  0  0
  3  2  1  0  0  0
  1  2  2  0  0  0
 35 36  1  0  0  0
 36 37  1  0  0  0
 45 43  1  0  0  0
 37 39  1  0  0  0
 37 38  2  0  0  0
 25 24  1  0  0  0
 24 41  1  0  0  0
 13 14  1  0  0  0
 13 17  1  0  0  0
 41 42  1  0  0  0
 42 43  1  0  0  0
 43 44  2  0  0  0
  2  5  1  0  0  0
  5  6  1  0  0  0
  6 11  1  0  0  0
  7 10  2  0  0  0
  7 11  1  0  0  0
  8  9  2  0  0  0
  8 12  1  0  0  0
  9 10  1  0  0  0
  9 14  1  0  0  0
 14 15  2  0  0  0
 15 16  1  0  0  0
 16 18  1  0  0  0
 16 17  2  0  0  0
 18 19  2  0  0  0
 18 23  1  0  0  0
 19 20  1  0  0  0
 20 21  2  0  0  0
 21 22  1  0  0  0
 22 23  2  0  0  0
 11 12  2  0  0  0
  3  4  1  0  0  0
 45 46  1  0  0  0
 27 28  1  0  0  0
 39 40  1  0  0  0
 32 33  1  0  0  0
 32 34  1  0  0  0
M  END
> <minimizedAffinity>
-9.19785

$$$$
