3TS4_EEG_A_306
  RCSB PDB12061710553D
Coordinates from PDB:3TS4:A:306 Model:1 without hydrogens
 40 42  0  0  0  0            999 V2000
   10.2960   26.6000    3.2930   O 0  0  0  0  0  0  0  0  0  0  0  0
    2.8430   22.5900    7.7400   S 0  0  0  0  0  0  0  0  0  0  0  0
    9.1700   26.7020    2.7720   C 0  0  0  0  0  0  0  0  0  0  0  0
    7.9050   26.4690    3.6460   C 0  0  0  0  0  0  0  0  0  0  0  0
    7.4490   25.0310    3.4090   C 0  0  0  0  0  0  0  0  0  0  0  0
    4.9870   25.1020    3.7560   C 0  0  0  0  0  0  0  0  0  0  0  0
    5.2110   23.4950    6.0110   C 0  0  0  0  0  0  0  0  0  0  0  0
    3.9630   23.9550    5.5660   C 0  0  0  0  0  0  0  0  0  0  0  0
    3.8360   24.7570    4.4470   C 0  0  0  0  0  0  0  0  0  0  0  0
    2.7260   23.5580    6.3890   C 0  0  0  0  0  0  0  0  0  0  0  0
    1.4020   23.9480    6.2260   C 0  0  0  0  0  0  0  0  0  0  0  0
    0.5550   23.3870    7.2140   C 0  0  0  0  0  0  0  0  0  0  0  0
   -0.9070   23.6320    7.2560   C 0  0  0  0  0  0  0  0  0  0  0  0
   -1.4140   24.7630    6.6430   C 0  0  0  0  0  0  0  0  0  0  0  0
   -2.7780   25.0010    6.6840   C 0  0  0  0  0  0  0  0  0  0  0  0
   -3.6090   24.1210    7.3230   C 0  0  0  0  0  0  0  0  0  0  0  0
   -3.0990   22.9760    7.9370   C 0  0  0  0  0  0  0  0  0  0  0  0
   -1.7380   22.7380    7.9000   C 0  0  0  0  0  0  0  0  0  0  0  0
    6.2070   24.6350    4.1910   C 0  0  0  0  0  0  0  0  0  0  0  0
    6.3380   23.8440    5.3340   C 0  0  0  0  0  0  0  0  0  0  0  0
    1.2020   22.5930    8.1570   C 0  0  0  0  0  0  0  0  0  0  0  0
    8.9990   26.9740    1.3920   N 0  0  0  0  0  0  0  0  0  0  0  0
   10.1740   27.1430    0.5750   C 0  0  0  0  0  0  0  0  0  0  0  0
   10.6320   28.5370    0.3510   C 0  0  0  0  0  0  0  0  0  0  0  0
   11.6390   28.7550   -0.3700   O 0  0  0  0  0  0  0  0  0  0  0  0
    9.7600   26.4780   -0.7010   C 0  0  0  0  0  0  0  0  0  0  0  0
    9.5700   25.0040   -0.5840   C 0  0  0  0  0  0  0  0  0  0  0  0
    8.0960   24.6090   -0.3200   C 0  0  0  0  0  0  0  0  0  0  0  0
    7.3120   25.4190   -0.7680   O 0  0  0  0  0  0  0  0  0  0  0  0
    7.8420   23.6230    0.2760   O 0  0  0  0  0  0  0  0  0  0  0  0
    9.9160   29.5950    0.9410   N 0  0  0  0  0  0  0  0  0  0  0  0
   10.3470   31.0270    0.7240   C 0  0  0  0  0  0  0  0  0  0  0  0
   10.5670   31.6680    1.9950   C 0  0  0  0  0  0  0  0  0  0  0  0
    9.9440   31.2660    3.0430   O 0  0  0  0  0  0  0  0  0  0  0  0
    9.3400   31.8540   -0.0930   C 0  0  0  0  0  0  0  0  0  0  0  0
    8.5150   31.1890   -0.9620   C 0  0  0  0  0  0  0  0  0  0  0  0
    9.0700   31.1520   -2.4250   C 0  0  0  0  0  0  0  0  0  0  0  0
    9.6360   30.0260   -2.8320   O 0  0  0  0  0  0  0  0  0  0  0  0
    9.0260   32.1650   -3.1490   O 0  0  0  0  0  0  0  0  0  0  0  0
   11.5260   32.8040    2.0900   N 0  0  0  0  0  0  0  0  0  0  0  0
 33 32  1  0  0  0  0
 33 40  1  0  0  0  0
 33 34  2  0  0  0  0
 31 32  1  0  0  0  0
 31 24  1  0  0  0  0
 25 24  2  0  0  0  0
 32 35  1  0  0  0  0
 22 23  1  0  0  0  0
 22  3  1  0  0  0  0
  1  3  2  0  0  0  0
 35 36  1  0  0  0  0
 36 37  1  0  0  0  0
 30 28  1  0  0  0  0
 37 39  1  0  0  0  0
 37 38  2  0  0  0  0
 24 23  1  0  0  0  0
 23 26  1  0  0  0  0
  2 10  1  0  0  0  0
  2 21  1  0  0  0  0
 26 27  1  0  0  0  0
 27 28  1  0  0  0  0
 28 29  2  0  0  0  0
  3  4  1  0  0  0  0
  4  5  1  0  0  0  0
  5 19  1  0  0  0  0
  6  9  2  0  0  0  0
  6 19  1  0  0  0  0
  7  8  2  0  0  0  0
  7 20  1  0  0  0  0
  8  9  1  0  0  0  0
  8 10  1  0  0  0  0
 10 11  2  0  0  0  0
 11 12  1  0  0  0  0
 12 13  1  0  0  0  0
 12 21  2  0  0  0  0
 13 14  2  0  0  0  0
 13 18  1  0  0  0  0
 14 15  1  0  0  0  0
 15 16  2  0  0  0  0
 16 17  1  0  0  0  0
 17 18  2  0  0  0  0
 19 20  2  0  0  0  0
A    1
O2
A    2
S7
A    3
C11
A    4
C12
A    5
C13
A    6
C14
A    7
C15
A    8
C16
A    9
C17
A   10
C18
A   11
C19
A   12
C20
A   13
C21
A   14
C22
A   15
C23
A   16
C24
A   17
C25
A   18
C26
A   19
C27
A   20
C28
A   21
C29
A   22
N2
A   23
C7
A   24
C6
A   25
O1
A   26
C8
A   27
C9
A   28
C10
A   29
O4E
A   30
O4
A   31
N1
A   32
C2
A   33
C1
A   34
O9
A   35
C3
A   36
C4
A   37
C5
A   38
O8E
A   39
O8
A   40
N9
M  END
>  <InstanceId>
3TS4_EEG_A_306

>  <ChemCompId>
EEG

>  <PdbId>
3TS4

>  <ChainId>
A

>  <ResidueNumber>
306

>  <InsertionCode>


>  <Model>
1

>  <AltIds>


>  <MissingHeavyAtoms>
0

>  <ObservedFormula>
C29 N3 O7 S

>  <Name>
N-{3-[4-(4-phenylthiophen-2-yl)phenyl]propanoyl}-L-alpha-glutamyl-L-alpha-glutamyl-amide

>  <SystematicName>
(4S)-5-azanyl-4-[[(2S)-5-hydroxy-5-oxo-2-[3-[4-(4-phenylthiophen-2-yl)phenyl]propanoylamino]pentanoyl]amino]-5-oxo-pentanoic acid

>  <Synonyms>


>  <Type>
NON-POLYMER

>  <Formula>
C29 H31 N3 O7 S

>  <MolecularWeight>
565.637

>  <ModifiedDate>
2011-09-29

>  <Parent>


>  <OneLetterCode>


>  <SubcomponentList>
03J GLU GLU NH2

>  <AmbiguousFlag>
N

>  <InChI>
InChI=1S/C29H31N3O7S/c30-28(38)22(11-14-26(34)35)32-29(39)23(12-15-27(36)37)31-25(33)13-8-18-6-9-20(10-7-18)24-16-21(17-40-24)19-4-2-1-3-5-19/h1-7,9-10,16-17,22-23H,8,11-15H2,(H2,30,38)(H,31,33)(H,32,39)(H,34,35)(H,36,37)/t22-,23-/m0/s1

>  <InChIKey>
MMIHYNVQXYWTFM-GOTSBHOMSA-N

>  <SMILES>
c1ccc(cc1)c2cc(sc2)c3ccc(cc3)CCC(=O)N[C@@H](CCC(=O)O)C(=O)N[C@@H](CCC(=O)O)C(=O)N

$$$$
