3F7G_389_E_1
  RCSB PDB12061708333D
Coordinates from PDB:3F7G:E:1 Model:1 without hydrogens
 34 36  0  0  0  0            999 V2000
   22.5020   49.1180   -7.5500   N 0  0  0  0  0  0  0  0  0  0  0  0
   22.9340   48.7090   -6.1850   C 0  0  0  0  0  0  0  0  0  0  0  0
   22.6830   49.8270   -5.1820   C 0  0  0  0  0  0  0  0  0  0  0  0
   22.2090   47.4320   -5.7710   C 0  0  0  0  0  0  0  0  0  0  0  0
   21.1600   47.1070   -6.3200   O 0  0  0  0  0  0  0  0  0  0  0  0
   22.8090   46.6970   -4.8360   N 0  0  0  0  0  0  0  0  0  0  0  0
   22.2400   45.4670   -4.2880   C 0  0  0  0  0  0  0  0  0  0  0  0
   22.9910   44.1880   -4.7680   C 0  0  0  0  0  0  0  0  0  0  0  0
   22.6970   43.8900   -6.2470   C 0  0  0  0  0  0  0  0  0  0  0  0
   24.5000   44.2980   -4.5140   C 0  0  0  0  0  0  0  0  0  0  0  0
   22.3200   45.5430   -2.7610   C 0  0  0  0  0  0  0  0  0  0  0  0
   23.1850   46.2330   -2.2140   O 0  0  0  0  0  0  0  0  0  0  0  0
   21.4100   44.8440   -2.0660   N 0  0  0  0  0  0  0  0  0  0  0  0
   21.5160   44.7850   -0.6130   C 0  0  0  0  0  0  0  0  0  0  0  0
   20.2200   44.0800   -0.1890   C 0  0  0  0  0  0  0  0  0  0  0  0
   19.7520   43.3520   -1.3840   C 0  0  0  0  0  0  0  0  0  0  0  0
   20.2510   44.0980   -2.5790   C 0  0  0  0  0  0  0  0  0  0  0  0
   22.7660   44.0000   -0.1740   C 0  0  0  0  0  0  0  0  0  0  0  0
   23.2480   43.1520   -0.9280   O 0  0  0  0  0  0  0  0  0  0  0  0
   24.5710   43.6400    1.3980   C 0  0  0  0  0  0  0  0  0  0  0  0
   23.3080   44.2800    1.0140   N 0  0  0  0  0  0  0  0  0  0  0  0
   24.9990   43.9090    2.8350   C 0  0  0  0  0  0  0  0  0  0  0  0
   26.1380   43.0110    3.1340   C 0  0  0  0  0  0  0  0  0  0  0  0
   27.4300   43.3270    2.7200   C 0  0  0  0  0  0  0  0  0  0  0  0
   28.4830   42.4630    3.0170   C 0  0  0  0  0  0  0  0  0  0  0  0
   28.2440   41.2910    3.7230   C 0  0  0  0  0  0  0  0  0  0  0  0
   26.9500   40.9750    4.1320   C 0  0  0  0  0  0  0  0  0  0  0  0
   25.8980   41.8340    3.8370   C 0  0  0  0  0  0  0  0  0  0  0  0
   25.2990   45.3390    3.1420   C 0  0  0  0  0  0  0  0  0  0  0  0
   25.5060   46.3050    2.1550   C 0  0  0  0  0  0  0  0  0  0  0  0
   25.7590   47.6230    2.5080   C 0  0  0  0  0  0  0  0  0  0  0  0
   25.8080   48.0050    3.8400   C 0  0  0  0  0  0  0  0  0  0  0  0
   25.5980   47.0470    4.8270   C 0  0  0  0  0  0  0  0  0  0  0  0
   25.3440   45.7240    4.4810   C 0  0  0  0  0  0  0  0  0  0  0  0
  1  2  1  0  0  0  0
  2  3  1  0  0  0  0
  2  4  1  0  0  0  0
  4  5  2  0  0  0  0
  4  6  1  0  0  0  0
  6  7  1  0  0  0  0
  7  8  1  0  0  0  0
  7 11  1  0  0  0  0
  8  9  1  0  0  0  0
  8 10  1  0  0  0  0
 11 12  2  0  0  0  0
 11 13  1  0  0  0  0
 13 14  1  0  0  0  0
 13 17  1  0  0  0  0
 14 15  1  0  0  0  0
 14 18  1  0  0  0  0
 15 16  1  0  0  0  0
 16 17  1  0  0  0  0
 18 19  2  0  0  0  0
 18 21  1  0  0  0  0
 20 21  1  0  0  0  0
 20 22  1  0  0  0  0
 22 23  1  0  0  0  0
 22 29  1  0  0  0  0
 23 24  2  0  0  0  0
 23 28  1  0  0  0  0
 24 25  1  0  0  0  0
 25 26  2  0  0  0  0
 26 27  1  0  0  0  0
 27 28  2  0  0  0  0
 29 30  2  0  0  0  0
 29 34  1  0  0  0  0
 30 31  1  0  0  0  0
 31 32  2  0  0  0  0
 32 33  1  0  0  0  0
 33 34  2  0  0  0  0
A    1
N1
A    2
C2
A    3
C3
A    4
C4
A    5
O5
A    6
N6
A    7
C7
A    8
C8
A    9
C9
A   10
C10
A   11
C11
A   12
O12
A   13
N13
A   14
C14
A   15
C15
A   16
C16
A   17
C17
A   18
C18
A   19
O19
A   20
C20
A   21
N21
A   22
C22
A   23
C23
A   24
C24
A   25
C25
A   26
C26
A   27
C27
A   28
C28
A   29
C29
A   30
C30
A   31
C31
A   32
C32
A   33
C33
A   34
C34
M  END
>  <InstanceId>
3F7G_389_E_1

>  <ChemCompId>
389

>  <PdbId>
3F7G

>  <ChainId>
E

>  <ResidueNumber>
1

>  <InsertionCode>


>  <Model>
1

>  <AltIds>


>  <MissingHeavyAtoms>
34

>  <ObservedFormula>
C27 N4 O3

>  <Name>
L-alanyl-L-valyl-N-(2,2-diphenylethyl)-L-prolinamide

>  <SystematicName>


>  <Synonyms>


>  <Type>
NON-POLYMER

>  <Formula>
C27 H36 N4 O3

>  <MolecularWeight>
464.6

>  <ModifiedDate>
2012-01-05

>  <Parent>


>  <OneLetterCode>


>  <SubcomponentList>


>  <AmbiguousFlag>
N

>  <InChI>
InChI=1S/C27H36N4O3/c1-18(2)24(30-25(32)19(3)28)27(34)31-16-10-15-23(31)26(33)29-17-22(20-11-6-4-7-12-20)21-13-8-5-9-14-21/h4-9,11-14,18-19,22-24H,10,15-17,28H2,1-3H3,(H,29,33)(H,30,32)/t19-,23-,24-/m0/s1

>  <InChIKey>
ZJCCVSICICQPSQ-IGKWTDBASA-N

>  <SMILES>
C[C@@H](C(=O)N[C@@H](C(C)C)C(=O)N1CCC[C@H]1C(=O)NCC(c2ccccc2)c3ccccc3)N

$$$$
