2Y80_439_A_1245
  RCSB PDB12061707343D
Coordinates from PDB:2Y80:A:1245 Model:1 without hydrogens
 33 37  0  0  0  0            999 V2000
    8.0060    6.6450   21.5840   O 0  0  0  0  0  0  0  0  0  0  0  0
    6.9190    6.1390   21.7650   C 0  0  0  0  0  0  0  0  0  0  0  0
    6.4680    5.0310   21.1370   N 0  0  0  0  0  0  0  0  0  0  0  0
    7.2060    4.2390   20.2470   C 0  0  0  0  0  0  0  0  0  0  0  0
    7.2350    2.8650   20.4600   C 0  0  0  0  0  0  0  0  0  0  0  0
    7.9060    4.7840   19.1670   C 0  0  0  0  0  0  0  0  0  0  0  0
    8.6240    3.9490   18.3230   C 0  0  0  0  0  0  0  0  0  0  0  0
    8.6450    2.5630   18.5370   C 0  0  0  0  0  0  0  0  0  0  0  0
    7.9500    2.0360   19.6140   C 0  0  0  0  0  0  0  0  0  0  0  0
    8.1230    0.5340   19.6590   C 0  0  0  0  0  0  0  0  0  0  0  0
    9.3560    0.2710   18.7710   C 0  0  0  0  0  0  0  0  0  0  0  0
    9.3430    1.4440   17.7680   C 0  0  0  0  0  0  0  0  0  0  0  0
    8.7850    1.1270   16.4310   N 0  0  0  0  0  0  0  0  0  0  0  0
    9.1430    2.2280   15.5200   C 0  0  0  0  0  0  0  0  0  0  0  0
    7.3060    1.0410   16.4520   C 0  0  0  0  0  0  0  0  0  0  0  0
    5.8750    6.6120   22.7520   C 0  0  0  0  0  0  0  0  0  0  0  0
    4.5870    5.9320   22.2380   C 0  0  0  0  0  0  0  0  0  0  0  0
    5.0960    4.6700   21.5230   C 0  0  0  0  0  0  0  0  0  0  0  0
    5.7720    8.0700   22.7800   N 0  0  0  0  0  0  0  0  0  0  0  0
    6.1980    8.9760   24.0460   S 0  0  0  0  0  0  0  0  0  0  0  0
    6.0360   10.2770   23.5070   O 0  0  0  0  0  0  0  0  0  0  0  0
    5.4830    8.5680   25.2050   O 0  0  0  0  0  0  0  0  0  0  0  0
    7.9180    8.7010   24.3740   C 0  0  0  0  0  0  0  0  0  0  0  0
    8.2940    8.0600   25.5270   C 0  0  0  0  0  0  0  0  0  0  0  0
    9.6710    7.8260   25.7840   C 0  0  0  0  0  0  0  0  0  0  0  0
   10.6250    8.2650   24.8180   C 0  0  0  0  0  0  0  0  0  0  0  0
   10.1950    8.9060   23.6370   C 0  0  0  0  0  0  0  0  0  0  0  0
    8.8610    9.1260   23.4320   C 0  0  0  0  0  0  0  0  0  0  0  0
   10.1150    7.1770   26.9590   C 0  0  0  0  0  0  0  0  0  0  0  0
   11.4560    6.9710   27.1530   C 0  0  0  0  0  0  0  0  0  0  0  0
   12.3770    7.4020   26.2030   C 0  0  0  0  0  0  0  0  0  0  0  0
   14.0840    7.1400   26.4370  Cl 0  0  0  0  0  0  0  0  0  0  0  0
   11.9920    8.0280   25.0570   C 0  0  0  0  0  0  0  0  0  0  0  0
  1  2  2  0  0  0  0
  2  3  1  0  0  0  0
  2 16  1  0  0  0  0
  3  4  1  0  0  0  0
  3 18  1  0  0  0  0
  4  5  1  0  0  0  0
  4  6  2  0  0  0  0
  5  9  2  0  0  0  0
  6  7  1  0  0  0  0
  7  8  2  0  0  0  0
  8  9  1  0  0  0  0
  8 12  1  0  0  0  0
  9 10  1  0  0  0  0
 10 11  1  0  0  0  0
 11 12  1  0  0  0  0
 12 13  1  0  0  0  0
 13 14  1  0  0  0  0
 13 15  1  0  0  0  0
 16 17  1  0  0  0  0
 16 19  1  0  0  0  0
 17 18  1  0  0  0  0
 19 20  1  0  0  0  0
 20 21  2  0  0  0  0
 20 22  2  0  0  0  0
 20 23  1  0  0  0  0
 23 24  1  0  0  0  0
 23 28  2  0  0  0  0
 24 25  2  0  0  0  0
 25 26  1  0  0  0  0
 25 29  1  0  0  0  0
 26 27  2  0  0  0  0
 26 33  1  0  0  0  0
 27 28  1  0  0  0  0
 29 30  2  0  0  0  0
 30 31  1  0  0  0  0
 31 32  1  0  0  0  0
 31 33  2  0  0  0  0
A    1
O3
A    2
C25
A    3
N2
A    4
C8
A    5
C7
A    6
C9
A    7
C10
A    8
C11
A    9
C6
A   10
C5
A   11
C4
A   12
C3
A   13
N1
A   14
C2
A   15
C1
A   16
C14
A   17
C13
A   18
C12
A   19
N3
A   20
S1
A   21
O1
A   22
O2
A   23
C15
A   24
C24
A   25
C23
A   26
C18
A   27
C17
A   28
C16
A   29
C22
A   30
C21
A   31
C20
A   32
CL1
A   33
C19
M  END
>  <InstanceId>
2Y80_439_A_1245

>  <ChemCompId>
439

>  <PdbId>
2Y80

>  <ChainId>
A

>  <ResidueNumber>
1245

>  <InsertionCode>


>  <Model>
1

>  <AltIds>


>  <MissingHeavyAtoms>
0

>  <ObservedFormula>
C25 N3 O3 S Cl

>  <Name>
6-CHLORO-N-{(3S)-1-[(1S)-1-(DIMETHYLAMINO)-2,3-DIHYDRO-1H-INDEN-5-YL]-2-OXO-3-PYRROLIDINYL}-2-NAPHTHALENESULFONAMIDE

>  <SystematicName>
6-chloro-N-[(3S)-1-[(1R)-1-dimethylamino-2,3-dihydro-1H-inden-5-yl]-2-oxo-pyrrolidin-3-yl]naphthalene-2-sulfonamide

>  <Synonyms>


>  <Type>
non-polymer

>  <Formula>
C25 H26 Cl N3 O3 S

>  <MolecularWeight>
484.01

>  <ModifiedDate>
2011-06-04

>  <Parent>


>  <OneLetterCode>


>  <SubcomponentList>


>  <AmbiguousFlag>
N

>  <InChI>
InChI=1S/C25H26ClN3O3S/c1-28(2)24-10-5-18-14-20(7-9-22(18)24)29-12-11-23(25(29)30)27-33(31,32)21-8-4-16-13-19(26)6-3-17(16)15-21/h3-4,6-9,13-15,23-24,27H,5,10-12H2,1-2H3/t23-,24+/m0/s1

>  <InChIKey>
DBFTVRMJVISJEX-BJKOFHAPSA-N

>  <SMILES>
CN(C)[C@@H]1CCc2c1ccc(c2)N3CC[C@@H](C3=O)NS(=O)(=O)c4ccc5cc(ccc5c4)Cl

$$$$
