5OT8_6DB_A_301
  RCSB PDB12191704023D
Coordinates from PDB:5OT8:A:301 Model:1 without hydrogens
 17 16  0  0  0  0            999 V2000
    5.7880   19.3490  -12.2320   O 0  0  0  0  0  0  0  0  0  0  0  0
    5.7510   20.4380  -11.6380   C 0  0  0  0  0  0  0  0  0  0  0  0
    4.4680   20.9950  -11.1780   C 0  0  0  0  0  0  0  0  0  0  0  0
    3.9200   22.0390  -12.1820   C 0  0  0  0  0  0  0  0  0  0  0  0
    3.4400   19.9960  -10.8980   N 0  0  0  0  0  0  0  0  0  0  0  0
    3.7430   18.8700   -9.9690   C 0  0  0  0  0  0  0  0  0  0  0  0
    2.5010   18.0560   -9.7180   C 0  0  0  0  0  0  0  0  0  0  0  0
    1.3570   18.5530   -9.9230   O 0  0  0  0  0  0  0  0  0  0  0  0
    2.5960   16.8460   -9.2850   O 0  0  0  0  0  0  0  0  0  0  0  0
    4.3940   19.2860   -8.6450   C 0  0  0  0  0  0  0  0  0  0  0  0
    3.6010   20.3980   -7.9110   C 0  0  0  0  0  0  0  0  0  0  0  0
    3.8350   20.3910   -6.4200   C 0  0  0  0  0  0  0  0  0  0  0  0
    3.2050   21.5800   -5.9710   N 0  0  0  0  0  0  0  0  0  0  0  0
    3.5620   22.1720   -4.7720   C 0  0  0  0  0  0  0  0  0  0  0  0
    2.9540   23.2560   -4.4060   N 0  0  0  0  0  0  0  0  0  0  0  0
    4.4810   21.6260   -4.0480   N 0  0  0  0  0  0  0  0  0  0  0  0
    6.8510   21.0360  -11.4300   O 0  0  0  0  0  0  0  0  0  0  0  0
  1  2  2  0  0  0  0
  4  3  1  0  0  0  0
  2 17  1  0  0  0  0
  2  3  1  0  0  0  0
  3  5  1  0  0  0  0
  5  6  1  0  0  0  0
  8  7  2  0  0  0  0
  6  7  1  0  0  0  0
  6 10  1  0  0  0  0
  7  9  1  0  0  0  0
 10 11  1  0  0  0  0
 11 12  1  0  0  0  0
 12 13  1  0  0  0  0
 13 14  1  0  0  0  0
 14 15  2  0  0  0  0
 14 16  1  0  0  0  0
A    1
O
A    2
C
A    3
CA
A    4
CB
A    5
N
A    6
CAI
A    7
CAE
A    8
OAB
A    9
OAF
A   10
CAK
A   11
CAL
A   12
CAM
A   13
NAN
A   14
CAP
A   15
NAO
A   16
NAQ
A   17
OXT
M  END
>  <InstanceId>
5OT8_6DB_A_301

>  <ChemCompId>
6DB

>  <PdbId>
5OT8

>  <ChainId>
A

>  <ResidueNumber>
301

>  <InsertionCode>


>  <Model>
1

>  <AltIds>


>  <MissingHeavyAtoms>
0

>  <ObservedFormula>
C9 N4 O4

>  <Name>
octopine

>  <SystematicName>
(2~{S})-5-carbamimidamido-2-[[(2~{R})-1-oxidanyl-1-oxidanylidene-propan-2-yl]amino]pentanoic acid

>  <Synonyms>


>  <Type>
NON-POLYMER

>  <Formula>
C9 H18 N4 O4

>  <MolecularWeight>
246.264

>  <ModifiedDate>
2016-11-25

>  <Parent>


>  <OneLetterCode>


>  <SubcomponentList>


>  <AmbiguousFlag>
N

>  <InChI>
InChI=1S/C9H18N4O4/c1-5(7(14)15)13-6(8(16)17)3-2-4-12-9(10)11/h5-6,13H,2-4H2,1H3,(H,14,15)(H,16,17)(H4,10,11,12)/t5-,6+/m1/s1

>  <InChIKey>
IMXSCCDUAFEIOE-RITPCOANSA-N

>  <SMILES>
[H]/N=C(/N)\NCCC[C@@H](C(=O)O)N[C@H](C)C(=O)O

$$$$
