5OT8_6DB_A_301


 24 23  0  0  0  0  0  0  0  0999 V2000
    3.5052   18.8710   -9.9294 C   0  0  0  0  0  0  0  0  0  0  0  0
    2.1905   18.2148   -9.5991 C   0  0  0  0  0  0  0  0  0  0  0  0
    2.0931   16.9549   -9.5687 O   0  0  0  0  0  0  0  0  0  0  0  0
    1.1512   18.9351   -9.3510 O   0  0  0  0  0  0  0  0  0  0  0  0
    1.2133   19.8698   -9.3711 H   0  0  0  0  0  0  0  0  0  0  0  0
    3.2756   20.1033  -10.7365 N   0  0  0  0  0  0  0  0  0  0  0  0
    2.3174   20.0566  -11.0830 H   0  0  0  0  0  0  0  0  0  0  0  0
    4.1305   20.3795  -11.8880 C   0  0  0  0  0  0  0  0  0  0  0  0
    4.4592   19.0561  -12.6220 C   0  0  0  0  0  0  0  0  0  0  0  0
    5.3346   22.3686  -11.4929 O   0  0  0  0  0  0  0  0  0  0  0  0
    5.3569   21.1303  -11.5715 C   0  0  0  0  0  0  0  0  0  0  0  0
    6.4685   20.5458  -11.3880 O   0  0  0  0  0  0  0  0  0  0  0  0
    6.5209   19.6118  -11.4402 H   0  0  0  0  0  0  0  0  0  0  0  0
    4.3397   19.0795   -8.6605 C   0  0  0  0  0  0  0  0  0  0  0  0
    4.1140   20.4721   -8.0172 C   0  0  0  0  0  0  0  0  0  0  0  0
    3.7385   20.3842   -6.5581 C   0  0  0  0  0  0  0  0  0  0  0  0
    3.5092   21.7331   -6.1838 N   0  0  0  0  0  0  0  0  0  0  0  0
    3.2828   22.3950   -6.8765 H   0  0  0  0  0  0  0  0  0  0  0  0
    3.5979   22.1358   -4.8626 C   0  0  0  0  0  0  0  0  0  0  0  0
    4.2939   21.4193   -4.0374 N   0  0  0  0  0  0  0  0  0  0  0  0
    2.9953   23.2152   -4.4904 N   0  0  0  0  0  0  0  0  0  0  0  0
    4.7416   20.6011   -4.3525 H   0  0  0  0  0  0  0  0  0  0  0  0
    2.4740   23.7376   -5.1420 H   0  0  0  0  0  0  0  0  0  0  0  0
    3.0570   23.5159   -3.5550 H   0  0  0  0  0  0  0  0  0  0  0  0
 10 11  2  0  0  0
  9  8  1  0  0  0
 11 12  1  0  0  0
 11  8  1  0  0  0
  8  6  1  0  0  0
  6  1  1  0  0  0
  3  2  2  0  0  0
  1  2  1  0  0  0
  1 14  1  0  0  0
  2  4  1  0  0  0
 14 15  1  0  0  0
 15 16  1  0  0  0
 16 17  1  0  0  0
 17 19  1  0  0  0
 19 20  2  0  0  0
 19 21  1  0  0  0
  6  7  1  0  0  0
  4  5  1  0  0  0
 17 18  1  0  0  0
 20 22  1  0  0  0
 21 23  1  0  0  0
 21 24  1  0  0  0
 12 13  1  0  0  0
M  END
> <minimizedAffinity>
-8.59065

$$$$
5OT8_6DB_A_301


 24 23  0  0  0  0  0  0  0  0999 V2000
    3.5577   18.8311  -10.1327 C   0  0  0  0  0  0  0  0  0  0  0  0
    2.2472   18.1445   -9.8508 C   0  0  0  0  0  0  0  0  0  0  0  0
    1.1548   18.7623  -10.0020 O   0  0  0  0  0  0  0  0  0  0  0  0
    2.2307   16.9212   -9.4460 O   0  0  0  0  0  0  0  0  0  0  0  0
    3.0352   16.4549   -9.3309 H   0  0  0  0  0  0  0  0  0  0  0  0
    3.3449   19.9874  -11.0495 N   0  0  0  0  0  0  0  0  0  0  0  0
    2.4422   19.8445  -11.5023 H   0  0  0  0  0  0  0  0  0  0  0  0
    4.3140   20.2539  -12.1092 C   0  0  0  0  0  0  0  0  0  0  0  0
    5.6511   20.7249  -11.4859 C   0  0  0  0  0  0  0  0  0  0  0  0
    4.1326   22.4016  -13.0668 O   0  0  0  0  0  0  0  0  0  0  0  0
    3.8474   21.1960  -13.1400 C   0  0  0  0  0  0  0  0  0  0  0  0
    3.1317   20.8157  -14.1168 O   0  0  0  0  0  0  0  0  0  0  0  0
    2.8977   19.9125  -14.2024 H   0  0  0  0  0  0  0  0  0  0  0  0
    4.2823   19.1716   -8.8255 C   0  0  0  0  0  0  0  0  0  0  0  0
    3.6829   20.4120   -8.1140 C   0  0  0  0  0  0  0  0  0  0  0  0
    3.9214   20.3989   -6.6238 C   0  0  0  0  0  0  0  0  0  0  0  0
    3.5582   21.7061   -6.2094 N   0  0  0  0  0  0  0  0  0  0  0  0
    3.2512   22.3578   -6.8804 H   0  0  0  0  0  0  0  0  0  0  0  0
    3.6275   22.0820   -4.8792 C   0  0  0  0  0  0  0  0  0  0  0  0
    4.2980   21.3401   -4.0554 N   0  0  0  0  0  0  0  0  0  0  0  0
    3.0328   23.1624   -4.4973 N   0  0  0  0  0  0  0  0  0  0  0  0
    4.7404   20.5219   -4.3780 H   0  0  0  0  0  0  0  0  0  0  0  0
    2.5311   23.7045   -5.1482 H   0  0  0  0  0  0  0  0  0  0  0  0
    3.0810   23.4441   -3.5552 H   0  0  0  0  0  0  0  0  0  0  0  0
 10 11  2  0  0  0
  9  8  1  0  0  0
 11 12  1  0  0  0
 11  8  1  0  0  0
  8  6  1  0  0  0
  6  1  1  0  0  0
  3  2  2  0  0  0
  1  2  1  0  0  0
  1 14  1  0  0  0
  2  4  1  0  0  0
 14 15  1  0  0  0
 15 16  1  0  0  0
 16 17  1  0  0  0
 17 19  1  0  0  0
 19 20  2  0  0  0
 19 21  1  0  0  0
  6  7  1  0  0  0
  4  5  1  0  0  0
 17 18  1  0  0  0
 20 22  1  0  0  0
 21 23  1  0  0  0
 21 24  1  0  0  0
 12 13  1  0  0  0
M  END
> <minimizedAffinity>
-8.31002

$$$$
5OT8_6DB_A_301


 24 23  0  0  0  0  0  0  0  0999 V2000
    4.5704   19.8416  -11.9842 C   0  0  0  0  0  0  0  0  0  0  0  0
    5.6839   20.7486  -11.5306 C   0  0  0  0  0  0  0  0  0  0  0  0
    5.4440   21.9488  -11.2148 O   0  0  0  0  0  0  0  0  0  0  0  0
    6.8932   20.3081  -11.4674 O   0  0  0  0  0  0  0  0  0  0  0  0
    7.0810   19.4199  -11.6995 H   0  0  0  0  0  0  0  0  0  0  0  0
    4.3026   18.8009  -10.9508 N   0  0  0  0  0  0  0  0  0  0  0  0
    3.8058   18.0415  -11.4166 H   0  0  0  0  0  0  0  0  0  0  0  0
    3.5283   19.1488   -9.7623 C   0  0  0  0  0  0  0  0  0  0  0  0
    4.4185   19.0126   -8.5024 C   0  0  0  0  0  0  0  0  0  0  0  0
    2.2693   17.2815   -9.0616 O   0  0  0  0  0  0  0  0  0  0  0  0
    2.2728   18.3949   -9.6097 C   0  0  0  0  0  0  0  0  0  0  0  0
    1.1678   18.8441  -10.0435 O   0  0  0  0  0  0  0  0  0  0  0  0
    1.1346   19.6815  -10.4626 H   0  0  0  0  0  0  0  0  0  0  0  0
    3.3444   20.6593  -12.4062 C   0  0  0  0  0  0  0  0  0  0  0  0
    3.3408   20.9955  -13.9199 C   0  0  0  0  0  0  0  0  0  0  0  0
    3.8024   19.8393  -14.7731 C   0  0  0  0  0  0  0  0  0  0  0  0
    2.9549   19.8950  -15.9092 N   0  0  0  0  0  0  0  0  0  0  0  0
    2.9633   20.6974  -16.4795 H   0  0  0  0  0  0  0  0  0  0  0  0
    2.1163   18.8419  -16.2307 C   0  0  0  0  0  0  0  0  0  0  0  0
    0.8522   19.0770  -16.3895 N   0  0  0  0  0  0  0  0  0  0  0  0
    2.6148   17.6594  -16.3727 N   0  0  0  0  0  0  0  0  0  0  0  0
    0.5030   19.9902  -16.2741 H   0  0  0  0  0  0  0  0  0  0  0  0
    3.5801   17.5135  -16.2452 H   0  0  0  0  0  0  0  0  0  0  0  0
    2.0297   16.9036  -16.6085 H   0  0  0  0  0  0  0  0  0  0  0  0
 10 11  2  0  0  0
  9  8  1  0  0  0
 11 12  1  0  0  0
 11  8  1  0  0  0
  8  6  1  0  0  0
  6  1  1  0  0  0
  3  2  2  0  0  0
  1  2  1  0  0  0
  1 14  1  0  0  0
  2  4  1  0  0  0
 14 15  1  0  0  0
 15 16  1  0  0  0
 16 17  1  0  0  0
 17 19  1  0  0  0
 19 20  2  0  0  0
 19 21  1  0  0  0
  6  7  1  0  0  0
  4  5  1  0  0  0
 17 18  1  0  0  0
 20 22  1  0  0  0
 21 23  1  0  0  0
 21 24  1  0  0  0
 12 13  1  0  0  0
M  END
> <minimizedAffinity>
-7.51413

$$$$
5OT8_6DB_A_301


 24 23  0  0  0  0  0  0  0  0999 V2000
    4.6433   20.6025  -11.1660 C   0  0  0  0  0  0  0  0  0  0  0  0
    4.5847   22.0719  -11.4908 C   0  0  0  0  0  0  0  0  0  0  0  0
    5.6418   22.7645  -11.5190 O   0  0  0  0  0  0  0  0  0  0  0  0
    3.4526   22.6365  -11.7364 O   0  0  0  0  0  0  0  0  0  0  0  0
    2.6635   22.1315  -11.7178 H   0  0  0  0  0  0  0  0  0  0  0  0
    3.3236   20.1372  -10.6518 N   0  0  0  0  0  0  0  0  0  0  0  0
    2.7543   20.9698  -10.4998 H   0  0  0  0  0  0  0  0  0  0  0  0
    3.2663   19.3532   -9.4208 C   0  0  0  0  0  0  0  0  0  0  0  0
    4.5066   19.6638   -8.5472 C   0  0  0  0  0  0  0  0  0  0  0  0
    1.9918   17.4145   -9.8452 O   0  0  0  0  0  0  0  0  0  0  0  0
    3.1114   17.9036   -9.6273 C   0  0  0  0  0  0  0  0  0  0  0  0
    4.1021   17.1121   -9.5726 O   0  0  0  0  0  0  0  0  0  0  0  0
    4.9616   17.4480   -9.4098 H   0  0  0  0  0  0  0  0  0  0  0  0
    5.1861   19.8062  -12.3581 C   0  0  0  0  0  0  0  0  0  0  0  0
    4.0739   19.3833  -13.3523 C   0  0  0  0  0  0  0  0  0  0  0  0
    3.8268   20.4185  -14.4224 C   0  0  0  0  0  0  0  0  0  0  0  0
    3.6017   19.6503  -15.5935 N   0  0  0  0  0  0  0  0  0  0  0  0
    4.3621   19.4240  -16.1765 H   0  0  0  0  0  0  0  0  0  0  0  0
    2.3328   19.2132  -15.9316 C   0  0  0  0  0  0  0  0  0  0  0  0
    2.1352   17.9443  -16.1036 N   0  0  0  0  0  0  0  0  0  0  0  0
    1.3810   20.0764  -16.0572 N   0  0  0  0  0  0  0  0  0  0  0  0
    2.8823   17.3114  -16.0006 H   0  0  0  0  0  0  0  0  0  0  0  0
    1.5636   21.0340  -15.9199 H   0  0  0  0  0  0  0  0  0  0  0  0
    0.4725   19.7770  -16.2902 H   0  0  0  0  0  0  0  0  0  0  0  0
 10 11  2  0  0  0
  9  8  1  0  0  0
 11 12  1  0  0  0
 11  8  1  0  0  0
  8  6  1  0  0  0
  6  1  1  0  0  0
  3  2  2  0  0  0
  1  2  1  0  0  0
  1 14  1  0  0  0
  2  4  1  0  0  0
 14 15  1  0  0  0
 15 16  1  0  0  0
 16 17  1  0  0  0
 17 19  1  0  0  0
 19 20  2  0  0  0
 19 21  1  0  0  0
  6  7  1  0  0  0
  4  5  1  0  0  0
 17 18  1  0  0  0
 20 22  1  0  0  0
 21 23  1  0  0  0
 21 24  1  0  0  0
 12 13  1  0  0  0
M  END
> <minimizedAffinity>
-6.87775

$$$$
5OT8_6DB_A_301


 24 23  0  0  0  0  0  0  0  0999 V2000
    2.9572   19.4119   -9.7747 C   0  0  0  0  0  0  0  0  0  0  0  0
    2.7598   17.9252   -9.9122 C   0  0  0  0  0  0  0  0  0  0  0  0
    3.6808   17.1237   -9.5850 O   0  0  0  0  0  0  0  0  0  0  0  0
    1.6500   17.4588  -10.3720 O   0  0  0  0  0  0  0  0  0  0  0  0
    0.9613   18.0449  -10.6173 H   0  0  0  0  0  0  0  0  0  0  0  0
    2.8668   19.8116   -8.3413 N   0  0  0  0  0  0  0  0  0  0  0  0
    2.0917   20.4703   -8.2654 H   0  0  0  0  0  0  0  0  0  0  0  0
    4.0181   20.4344   -7.6934 C   0  0  0  0  0  0  0  0  0  0  0  0
    5.0986   19.3621   -7.4087 C   0  0  0  0  0  0  0  0  0  0  0  0
    3.8256   20.6830   -5.3559 O   0  0  0  0  0  0  0  0  0  0  0  0
    3.6945   21.1985   -6.4772 C   0  0  0  0  0  0  0  0  0  0  0  0
    3.2591   22.3894   -6.5334 O   0  0  0  0  0  0  0  0  0  0  0  0
    3.1482   22.8089   -7.3638 H   0  0  0  0  0  0  0  0  0  0  0  0
    4.2404   19.8555  -10.4864 C   0  0  0  0  0  0  0  0  0  0  0  0
    3.9625   20.7666  -11.7099 C   0  0  0  0  0  0  0  0  0  0  0  0
    4.1657   20.0528  -13.0240 C   0  0  0  0  0  0  0  0  0  0  0  0
    3.3292   20.7576  -13.9271 N   0  0  0  0  0  0  0  0  0  0  0  0
    2.9670   21.6350  -13.6659 H   0  0  0  0  0  0  0  0  0  0  0  0
    3.0128   20.2345  -15.1688 C   0  0  0  0  0  0  0  0  0  0  0  0
    1.8153   20.4078  -15.6321 N   0  0  0  0  0  0  0  0  0  0  0  0
    3.9178   19.5983  -15.8344 N   0  0  0  0  0  0  0  0  0  0  0  0
    1.1476   20.8977  -15.0997 H   0  0  0  0  0  0  0  0  0  0  0  0
    4.8187   19.4835  -15.4545 H   0  0  0  0  0  0  0  0  0  0  0  0
    3.7069   19.2279  -16.7219 H   0  0  0  0  0  0  0  0  0  0  0  0
 10 11  2  0  0  0
  9  8  1  0  0  0
 11 12  1  0  0  0
 11  8  1  0  0  0
  8  6  1  0  0  0
  6  1  1  0  0  0
  3  2  2  0  0  0
  1  2  1  0  0  0
  1 14  1  0  0  0
  2  4  1  0  0  0
 14 15  1  0  0  0
 15 16  1  0  0  0
 16 17  1  0  0  0
 17 19  1  0  0  0
 19 20  2  0  0  0
 19 21  1  0  0  0
  6  7  1  0  0  0
  4  5  1  0  0  0
 17 18  1  0  0  0
 20 22  1  0  0  0
 21 23  1  0  0  0
 21 24  1  0  0  0
 12 13  1  0  0  0
M  END
> <minimizedAffinity>
-6.64192

$$$$
5OT8_6DB_A_301


 24 23  0  0  0  0  0  0  0  0999 V2000
    3.9650   19.7214  -11.7031 C   0  0  0  0  0  0  0  0  0  0  0  0
    5.1461   20.5437  -11.2593 C   0  0  0  0  0  0  0  0  0  0  0  0
    4.9764   21.5857  -10.5643 O   0  0  0  0  0  0  0  0  0  0  0  0
    6.3409   20.1933  -11.5915 O   0  0  0  0  0  0  0  0  0  0  0  0
    6.4769   19.4224  -12.1066 H   0  0  0  0  0  0  0  0  0  0  0  0
    4.1727   19.2348  -13.0970 N   0  0  0  0  0  0  0  0  0  0  0  0
    5.1418   18.9231  -13.1609 H   0  0  0  0  0  0  0  0  0  0  0  0
    3.9438   20.1424  -14.2181 C   0  0  0  0  0  0  0  0  0  0  0  0
    3.3031   21.4549  -13.7033 C   0  0  0  0  0  0  0  0  0  0  0  0
    2.9075   18.3490  -15.3461 O   0  0  0  0  0  0  0  0  0  0  0  0
    3.1577   19.5643  -15.3207 C   0  0  0  0  0  0  0  0  0  0  0  0
    2.7293   20.2765  -16.2799 O   0  0  0  0  0  0  0  0  0  0  0  0
    2.9003   21.1977  -16.2921 H   0  0  0  0  0  0  0  0  0  0  0  0
    3.6538   18.6244  -10.6786 C   0  0  0  0  0  0  0  0  0  0  0  0
    2.7511   19.1243   -9.5213 C   0  0  0  0  0  0  0  0  0  0  0  0
    3.4632   19.1319   -8.1906 C   0  0  0  0  0  0  0  0  0  0  0  0
    3.6610   20.5099   -7.9183 N   0  0  0  0  0  0  0  0  0  0  0  0
    3.7831   21.1377   -8.6667 H   0  0  0  0  0  0  0  0  0  0  0  0
    3.6856   20.9880   -6.6197 C   0  0  0  0  0  0  0  0  0  0  0  0
    4.1155   20.2105   -5.6766 N   0  0  0  0  0  0  0  0  0  0  0  0
    3.2900   22.1942   -6.3841 N   0  0  0  0  0  0  0  0  0  0  0  0
    4.4102   19.2955   -5.8890 H   0  0  0  0  0  0  0  0  0  0  0  0
    2.9688   22.7601   -7.1229 H   0  0  0  0  0  0  0  0  0  0  0  0
    3.3097   22.5481   -5.4656 H   0  0  0  0  0  0  0  0  0  0  0  0
 10 11  2  0  0  0
  9  8  1  0  0  0
 11 12  1  0  0  0
 11  8  1  0  0  0
  8  6  1  0  0  0
  6  1  1  0  0  0
  3  2  2  0  0  0
  1  2  1  0  0  0
  1 14  1  0  0  0
  2  4  1  0  0  0
 14 15  1  0  0  0
 15 16  1  0  0  0
 16 17  1  0  0  0
 17 19  1  0  0  0
 19 20  2  0  0  0
 19 21  1  0  0  0
  6  7  1  0  0  0
  4  5  1  0  0  0
 17 18  1  0  0  0
 20 22  1  0  0  0
 21 23  1  0  0  0
 21 24  1  0  0  0
 12 13  1  0  0  0
M  END
> <minimizedAffinity>
-6.56113

$$$$
5OT8_6DB_A_301


 24 23  0  0  0  0  0  0  0  0999 V2000
    4.1779   20.3402  -10.9981 C   0  0  0  0  0  0  0  0  0  0  0  0
    4.7699   19.3090  -11.9225 C   0  0  0  0  0  0  0  0  0  0  0  0
    4.0734   18.3337  -12.3243 O   0  0  0  0  0  0  0  0  0  0  0  0
    5.9960   19.4105  -12.3059 O   0  0  0  0  0  0  0  0  0  0  0  0
    6.5204   20.1298  -12.0135 H   0  0  0  0  0  0  0  0  0  0  0  0
    4.6806   20.1342   -9.6097 N   0  0  0  0  0  0  0  0  0  0  0  0
    5.4842   19.5095   -9.6749 H   0  0  0  0  0  0  0  0  0  0  0  0
    3.7892   19.5751   -8.5968 C   0  0  0  0  0  0  0  0  0  0  0  0
    4.5000   19.5739   -7.2209 C   0  0  0  0  0  0  0  0  0  0  0  0
    2.0561   17.9826   -8.7481 O   0  0  0  0  0  0  0  0  0  0  0  0
    3.2575   18.2409   -8.9213 C   0  0  0  0  0  0  0  0  0  0  0  0
    4.0033   17.3156   -9.3667 O   0  0  0  0  0  0  0  0  0  0  0  0
    4.9153   17.4766   -9.5090 H   0  0  0  0  0  0  0  0  0  0  0  0
    4.3900   21.7522  -11.5560 C   0  0  0  0  0  0  0  0  0  0  0  0
    3.3789   22.1121  -12.6751 C   0  0  0  0  0  0  0  0  0  0  0  0
    3.8464   21.6767  -14.0425 C   0  0  0  0  0  0  0  0  0  0  0  0
    3.0020   20.5814  -14.3581 N   0  0  0  0  0  0  0  0  0  0  0  0
    2.1265   20.5028  -13.9147 H   0  0  0  0  0  0  0  0  0  0  0  0
    3.3864   19.6212  -15.2778 C   0  0  0  0  0  0  0  0  0  0  0  0
    4.4247   19.8474  -16.0189 N   0  0  0  0  0  0  0  0  0  0  0  0
    2.7089   18.5257  -15.3664 N   0  0  0  0  0  0  0  0  0  0  0  0
    4.9202   20.6932  -15.9271 H   0  0  0  0  0  0  0  0  0  0  0  0
    1.9243   18.3841  -14.7888 H   0  0  0  0  0  0  0  0  0  0  0  0
    2.9768   17.8321  -16.0117 H   0  0  0  0  0  0  0  0  0  0  0  0
 10 11  2  0  0  0
  9  8  1  0  0  0
 11 12  1  0  0  0
 11  8  1  0  0  0
  8  6  1  0  0  0
  6  1  1  0  0  0
  3  2  2  0  0  0
  1  2  1  0  0  0
  1 14  1  0  0  0
  2  4  1  0  0  0
 14 15  1  0  0  0
 15 16  1  0  0  0
 16 17  1  0  0  0
 17 19  1  0  0  0
 19 20  2  0  0  0
 19 21  1  0  0  0
  6  7  1  0  0  0
  4  5  1  0  0  0
 17 18  1  0  0  0
 20 22  1  0  0  0
 21 23  1  0  0  0
 21 24  1  0  0  0
 12 13  1  0  0  0
M  END
> <minimizedAffinity>
-6.15328

$$$$
5OT8_6DB_A_301


 24 23  0  0  0  0  0  0  0  0999 V2000
    4.4925   20.4297  -11.6295 C   0  0  0  0  0  0  0  0  0  0  0  0
    4.4973   21.9358  -11.6238 C   0  0  0  0  0  0  0  0  0  0  0  0
    5.5671   22.5721  -11.4038 O   0  0  0  0  0  0  0  0  0  0  0  0
    3.4065   22.5879  -11.8372 O   0  0  0  0  0  0  0  0  0  0  0  0
    2.6085   22.1251  -12.0012 H   0  0  0  0  0  0  0  0  0  0  0  0
    3.3076   19.9171  -10.8839 N   0  0  0  0  0  0  0  0  0  0  0  0
    2.8871   20.7164  -10.4097 H   0  0  0  0  0  0  0  0  0  0  0  0
    3.4860   18.8728   -9.8786 C   0  0  0  0  0  0  0  0  0  0  0  0
    2.1583   18.0979   -9.6912 C   0  0  0  0  0  0  0  0  0  0  0  0
    3.2327   19.6837   -7.6784 O   0  0  0  0  0  0  0  0  0  0  0  0
    4.0088   19.3511   -8.5879 C   0  0  0  0  0  0  0  0  0  0  0  0
    5.2547   19.4551   -8.3699 O   0  0  0  0  0  0  0  0  0  0  0  0
    5.8686   19.2127   -9.0350 H   0  0  0  0  0  0  0  0  0  0  0  0
    4.6343   19.8937  -13.0587 C   0  0  0  0  0  0  0  0  0  0  0  0
    3.4455   20.2951  -13.9696 C   0  0  0  0  0  0  0  0  0  0  0  0
    3.7291   20.0586  -15.4330 C   0  0  0  0  0  0  0  0  0  0  0  0
    2.4412   20.0067  -16.0253 N   0  0  0  0  0  0  0  0  0  0  0  0
    2.0358   20.8335  -16.3735 H   0  0  0  0  0  0  0  0  0  0  0  0
    1.7441   18.8151  -16.1226 C   0  0  0  0  0  0  0  0  0  0  0  0
    0.4767   18.8536  -16.3890 N   0  0  0  0  0  0  0  0  0  0  0  0
    2.3739   17.7005  -15.9555 N   0  0  0  0  0  0  0  0  0  0  0  0
    0.0255   19.7200  -16.5110 H   0  0  0  0  0  0  0  0  0  0  0  0
    3.3375   17.7050  -15.7540 H   0  0  0  0  0  0  0  0  0  0  0  0
    1.8905   16.8460  -16.0295 H   0  0  0  0  0  0  0  0  0  0  0  0
 10 11  2  0  0  0
  9  8  1  0  0  0
 11 12  1  0  0  0
 11  8  1  0  0  0
  8  6  1  0  0  0
  6  1  1  0  0  0
  3  2  2  0  0  0
  1  2  1  0  0  0
  1 14  1  0  0  0
  2  4  1  0  0  0
 14 15  1  0  0  0
 15 16  1  0  0  0
 16 17  1  0  0  0
 17 19  1  0  0  0
 19 20  2  0  0  0
 19 21  1  0  0  0
  6  7  1  0  0  0
  4  5  1  0  0  0
 17 18  1  0  0  0
 20 22  1  0  0  0
 21 23  1  0  0  0
 21 24  1  0  0  0
 12 13  1  0  0  0
M  END
> <minimizedAffinity>
-6.07621

$$$$
5OT8_6DB_A_301


 24 23  0  0  0  0  0  0  0  0999 V2000
    3.9855   21.3553  -11.2642 C   0  0  0  0  0  0  0  0  0  0  0  0
    4.8699   22.4136  -11.8692 C   0  0  0  0  0  0  0  0  0  0  0  0
    5.9512   22.7446  -11.3044 O   0  0  0  0  0  0  0  0  0  0  0  0
    4.5262   22.9954  -12.9665 O   0  0  0  0  0  0  0  0  0  0  0  0
    3.7265   22.7570  -13.3926 H   0  0  0  0  0  0  0  0  0  0  0  0
    3.2418   20.6334  -12.3358 N   0  0  0  0  0  0  0  0  0  0  0  0
    2.5834   20.0085  -11.8705 H   0  0  0  0  0  0  0  0  0  0  0  0
    3.9784   19.8277  -13.3061 C   0  0  0  0  0  0  0  0  0  0  0  0
    3.5423   20.2130  -14.7412 C   0  0  0  0  0  0  0  0  0  0  0  0
    4.4059   17.8459  -12.1010 O   0  0  0  0  0  0  0  0  0  0  0  0
    3.8795   18.3742  -13.0929 C   0  0  0  0  0  0  0  0  0  0  0  0
    3.2754   17.6188  -13.9147 O   0  0  0  0  0  0  0  0  0  0  0  0
    2.8668   17.9849  -14.6744 H   0  0  0  0  0  0  0  0  0  0  0  0
    4.7889   20.4539  -10.3198 C   0  0  0  0  0  0  0  0  0  0  0  0
    4.2858   20.5219   -8.8547 C   0  0  0  0  0  0  0  0  0  0  0  0
    4.1296   19.1569   -8.2300 C   0  0  0  0  0  0  0  0  0  0  0  0
    3.6035   18.3605   -9.2794 N   0  0  0  0  0  0  0  0  0  0  0  0
    4.2153   17.8171   -9.8268 H   0  0  0  0  0  0  0  0  0  0  0  0
    2.2460   18.3333   -9.5477 C   0  0  0  0  0  0  0  0  0  0  0  0
    1.7857   17.4215  -10.3448 N   0  0  0  0  0  0  0  0  0  0  0  0
    1.4756   19.2077   -8.9920 N   0  0  0  0  0  0  0  0  0  0  0  0
    2.3996   16.7689  -10.7529 H   0  0  0  0  0  0  0  0  0  0  0  0
    1.8565   19.8880   -8.3909 H   0  0  0  0  0  0  0  0  0  0  0  0
    0.5073   19.1941   -9.1693 H   0  0  0  0  0  0  0  0  0  0  0  0
 10 11  2  0  0  0
  9  8  1  0  0  0
 11 12  1  0  0  0
 11  8  1  0  0  0
  8  6  1  0  0  0
  6  1  1  0  0  0
  3  2  2  0  0  0
  1  2  1  0  0  0
  1 14  1  0  0  0
  2  4  1  0  0  0
 14 15  1  0  0  0
 15 16  1  0  0  0
 16 17  1  0  0  0
 17 19  1  0  0  0
 19 20  2  0  0  0
 19 21  1  0  0  0
  6  7  1  0  0  0
  4  5  1  0  0  0
 17 18  1  0  0  0
 20 22  1  0  0  0
 21 23  1  0  0  0
 21 24  1  0  0  0
 12 13  1  0  0  0
M  END
> <minimizedAffinity>
-5.88907

$$$$
