3HV8_C2E_A_900


 56 62  0  0  0  0  0  0  0  0999 V2000
  -27.9045   -1.5275  -14.9977 P   0  0  0  0  0  0  0  0  0  0  0  0
  -28.8441   -0.4856  -14.2330 O   0  0  0  0  0  0  0  0  0  0  0  0
  -28.2458   -1.4202  -16.4306 O   0  0  0  0  0  0  0  0  0  0  0  0
  -26.3506   -1.1766  -14.9504 O   0  0  0  0  0  0  0  0  0  0  0  0
  -25.8648   -0.1855  -15.8767 C   0  0  0  0  0  0  0  0  0  0  0  0
  -25.2435   -0.7846  -17.1566 C   0  0  0  0  0  0  0  0  0  0  0  0
  -24.7272    0.2977  -17.9687 O   0  0  0  0  0  0  0  0  0  0  0  0
  -24.0205   -1.5659  -16.6940 C   0  0  0  0  0  0  0  0  0  0  0  0
  -23.8712   -2.7379  -17.5095 O   0  0  0  0  0  0  0  0  0  0  0  0
  -22.8479   -0.5685  -16.8474 C   0  0  0  0  0  0  0  0  0  0  0  0
  -21.6034   -1.1902  -17.1070 O   0  0  0  0  0  0  0  0  0  0  0  0
  -23.3117    0.2316  -18.0646 C   0  0  0  0  0  0  0  0  0  0  0  0
  -23.5469   -4.1183  -16.7483 P   0  0  0  0  0  0  0  0  0  0  0  0
  -23.3532   -5.2306  -17.8449 O   0  0  0  0  0  0  0  0  0  0  0  0
  -22.4218   -3.9546  -15.8058 O   0  0  0  0  0  0  0  0  0  0  0  0
  -24.8407   -4.3996  -15.8752 O   0  0  0  0  0  0  0  0  0  0  0  0
  -26.0946   -4.6083  -16.5389 C   0  0  0  0  0  0  0  0  0  0  0  0
  -27.1689   -5.0267  -15.5381 C   0  0  0  0  0  0  0  0  0  0  0  0
  -26.7794   -6.2596  -14.9147 O   0  0  0  0  0  0  0  0  0  0  0  0
  -27.3786   -4.0503  -14.3792 C   0  0  0  0  0  0  0  0  0  0  0  0
  -28.3118   -3.0222  -14.6877 O   0  0  0  0  0  0  0  0  0  0  0  0
  -28.0315   -4.9722  -13.3473 C   0  0  0  0  0  0  0  0  0  0  0  0
  -29.4063   -5.2147  -13.6934 O   0  0  0  0  0  0  0  0  0  0  0  0
  -27.2891   -6.2901  -13.5970 C   0  0  0  0  0  0  0  0  0  0  0  0
  -28.5652    0.4186  -14.4465 H   0  0  0  0  0  0  0  0  0  0  0  0
  -21.6740   -1.7332  -17.9077 H   0  0  0  0  0  0  0  0  0  0  0  0
  -24.1383   -5.2642  -18.4135 H   0  0  0  0  0  0  0  0  0  0  0  0
  -29.4549   -5.5714  -14.5941 H   0  0  0  0  0  0  0  0  0  0  0  0
  -22.7860    1.5861  -18.1432 N   0  0  0  0  0  0  0  0  0  0  0  0
  -22.3805    2.3859  -17.1009 C   0  0  0  0  0  0  0  0  0  0  0  0
  -22.1398    3.5984  -17.5451 N   0  0  0  0  0  0  0  0  0  0  0  0
  -22.3599    3.6205  -18.8925 C   0  0  0  0  0  0  0  0  0  0  0  0
  -22.2550    4.6253  -19.8805 C   0  0  0  0  0  0  0  0  0  0  0  0
  -21.9502    5.7909  -19.6209 O   0  0  0  0  0  0  0  0  0  0  0  0
  -22.5384    4.2627  -21.1398 N   0  0  0  0  0  0  0  0  0  0  0  0
  -22.9073    2.9934  -21.4609 C   0  0  0  0  0  0  0  0  0  0  0  0
  -23.1862    2.7012  -22.7708 N   0  0  0  0  0  0  0  0  0  0  0  0
  -23.0091    2.0502  -20.5535 N   0  0  0  0  0  0  0  0  0  0  0  0
  -22.7516    2.3388  -19.2769 C   0  0  0  0  0  0  0  0  0  0  0  0
  -22.4776    4.9367  -21.8549 H   0  0  0  0  0  0  0  0  0  0  0  0
  -23.1124    3.4024  -23.4580 H   0  0  0  0  0  0  0  0  0  0  0  0
  -23.4603    1.7903  -23.0243 H   0  0  0  0  0  0  0  0  0  0  0  0
  -26.1734   -6.3846  -12.6638 N   0  0  0  0  0  0  0  0  0  0  0  0
  -24.8927   -5.9340  -12.8146 C   0  0  0  0  0  0  0  0  0  0  0  0
  -24.2190   -6.2310  -11.7376 N   0  0  0  0  0  0  0  0  0  0  0  0
  -25.0087   -6.9439  -10.8792 C   0  0  0  0  0  0  0  0  0  0  0  0
  -24.8403   -7.5538   -9.6193 C   0  0  0  0  0  0  0  0  0  0  0  0
  -23.8088   -7.4428   -8.9452 O   0  0  0  0  0  0  0  0  0  0  0  0
  -25.9286   -8.1976   -9.1221 N   0  0  0  0  0  0  0  0  0  0  0  0
  -27.1233   -8.2708   -9.7856 C   0  0  0  0  0  0  0  0  0  0  0  0
  -28.1804   -8.9018   -9.1934 N   0  0  0  0  0  0  0  0  0  0  0  0
  -27.3042   -7.6885  -10.9418 N   0  0  0  0  0  0  0  0  0  0  0  0
  -26.2651   -7.0506  -11.4927 C   0  0  0  0  0  0  0  0  0  0  0  0
  -25.8541   -8.6325   -8.2420 H   0  0  0  0  0  0  0  0  0  0  0  0
  -28.0636   -9.3459   -8.3227 H   0  0  0  0  0  0  0  0  0  0  0  0
  -29.0590   -8.9123   -9.6375 H   0  0  0  0  0  0  0  0  0  0  0  0
  1  2  1  0  0  0
  3  1  2  0  0  0
  4  1  1  0  0  0
  5  4  1  0  0  0
  6  7  1  0  0  0
  6  5  1  0  0  0
  8  6  1  0  0  0
  9 13  1  0  0  0
  9  8  1  0  0  0
 10  8  1  0  0  0
 10 12  1  0  0  0
 11 10  1  0  0  0
 12  7  1  0  0  0
 12 29  1  0  0  0
 29 39  1  0  0  0
 29 30  1  0  0  0
 30 31  2  0  0  0
 32 31  1  0  0  0
 32 33  1  0  0  0
 33 34  2  0  0  0
 35 33  1  0  0  0
 36 35  1  0  0  0
 37 36  1  0  0  0
 38 36  2  0  0  0
 38 39  1  0  0  0
 39 32  2  0  0  0
 13 14  1  0  0  0
 13 16  1  0  0  0
 15 13  2  0  0  0
 17 16  1  0  0  0
 17 18  1  0  0  0
 18 19  1  0  0  0
 18 20  1  0  0  0
 19 24  1  0  0  0
 20 22  1  0  0  0
 21 20  1  0  0  0
 21  1  1  0  0  0
 22 23  1  0  0  0
 24 22  1  0  0  0
 24 43  1  0  0  0
 43 53  1  0  0  0
 44 45  2  0  0  0
 44 43  1  0  0  0
 45 46  1  0  0  0
 46 53  2  0  0  0
 46 47  1  0  0  0
 47 48  2  0  0  0
 47 49  1  0  0  0
 50 49  1  0  0  0
 50 51  1  0  0  0
 52 50  2  0  0  0
 53 52  1  0  0  0
  2 25  1  0  0  0
 11 26  1  0  0  0
 35 40  1  0  0  0
 37 41  1  0  0  0
 37 42  1  0  0  0
 14 27  1  0  0  0
 23 28  1  0  0  0
 49 54  1  0  0  0
 51 55  1  0  0  0
 51 56  1  0  0  0
M  END
> <minimizedAffinity>
-13.85172

$$$$
