2ZQ0_ACR_A_801


 58 61  0  0  0  0  0  0  0  0999 V2000
   25.7475   60.2361   35.7948 C   0  0  0  0  0  0  0  0  0  0  0  0
   27.0908   60.5408   36.5005 C   0  0  0  0  0  0  0  0  0  0  0  0
   28.1469   59.4949   36.1123 C   0  0  0  0  0  0  0  0  0  0  0  0
   27.6414   58.0947   36.5011 C   0  0  0  0  0  0  0  0  0  0  0  0
   26.2983   57.8310   35.7247 C   0  0  0  0  0  0  0  0  0  0  0  0
   27.5276   61.8656   36.1405 O   0  0  0  0  0  0  0  0  0  0  0  0
   29.3688   59.7808   36.8037 O   0  0  0  0  0  0  0  0  0  0  0  0
   25.2989   58.8652   36.1015 O   0  0  0  0  0  0  0  0  0  0  0  0
   27.6526   61.9149   35.1798 H   0  0  0  0  0  0  0  0  0  0  0  0
   29.2131   59.7526   37.7607 H   0  0  0  0  0  0  0  0  0  0  0  0
   25.7069   56.4469   36.0516 C   0  0  0  0  0  0  0  0  0  0  0  0
   25.9191   56.1311   37.4351 O   0  0  0  0  0  0  0  0  0  0  0  0
   26.8710   56.1164   37.6210 H   0  0  0  0  0  0  0  0  0  0  0  0
   28.6465   57.1273   36.1423 O   0  0  0  0  0  0  0  0  0  0  0  0
   29.2862   56.5922   37.3116 C   0  0  0  0  0  0  0  0  0  0  0  0
   30.8110   56.5072   37.1445 C   0  0  0  0  0  0  0  0  0  0  0  0
   31.1828   55.4173   36.1178 C   0  0  0  0  0  0  0  0  0  0  0  0
   30.6116   54.0571   36.6323 C   0  0  0  0  0  0  0  0  0  0  0  0
   29.0500   54.2110   36.7213 C   0  0  0  0  0  0  0  0  0  0  0  0
   28.3589   52.9286   37.2062 C   0  0  0  0  0  0  0  0  0  0  0  0
   31.3004   57.7977   36.7572 O   0  0  0  0  0  0  0  0  0  0  0  0
   32.6064   55.3658   35.9979 O   0  0  0  0  0  0  0  0  0  0  0  0
   28.7101   55.2867   37.6637 O   0  0  0  0  0  0  0  0  0  0  0  0
   30.8902   58.0606   35.9185 H   0  0  0  0  0  0  0  0  0  0  0  0
   32.9972   55.1742   36.8647 H   0  0  0  0  0  0  0  0  0  0  0  0
   30.9791   52.9676   35.7091 N   0  0  0  0  0  0  0  0  0  0  0  0
   30.1212   52.5150   35.3934 H   0  0  0  0  0  0  0  0  0  0  0  0
   31.8742   51.9129   36.3088 C   0  0  0  0  0  0  0  0  0  0  0  0
   32.3544   50.8157   35.2666 C   0  0  0  0  0  0  0  0  0  0  0  0
   31.2586   49.7798   34.8521 C   0  0  0  0  0  0  0  0  0  0  0  0
   30.7416   48.9820   36.1350 C   0  0  0  0  0  0  0  0  0  0  0  0
   30.7560   49.7949   37.4690 C   0  0  0  0  0  0  0  0  0  0  0  0
   31.2590   51.1248   37.5290 C   0  0  0  0  0  0  0  0  0  0  0  0
   32.8878   51.5664   34.1959 O   0  0  0  0  0  0  0  0  0  0  0  0
   31.8478   48.9384   33.9152 O   0  0  0  0  0  0  0  0  0  0  0  0
   29.4778   48.4710   35.7212 O   0  0  0  0  0  0  0  0  0  0  0  0
   32.2000   52.1463   33.8333 H   0  0  0  0  0  0  0  0  0  0  0  0
   32.6259   48.5122   34.3075 H   0  0  0  0  0  0  0  0  0  0  0  0
   28.8989   49.2068   35.4675 H   0  0  0  0  0  0  0  0  0  0  0  0
   30.2505   49.0985   38.7061 C   0  0  0  0  0  0  0  0  0  0  0  0
   29.8757   47.7211   38.7339 O   0  0  0  0  0  0  0  0  0  0  0  0
   29.0728   47.5938   38.2047 H   0  0  0  0  0  0  0  0  0  0  0  0
   25.7829   60.4575   34.3586 O   0  0  0  0  0  0  0  0  0  0  0  0
   23.5066   63.1960   31.9340 C   0  0  0  0  0  0  0  0  0  0  0  0
   24.7417   63.7246   32.7350 C   0  0  0  0  0  0  0  0  0  0  0  0
   25.6657   62.5567   33.1300 C   0  0  0  0  0  0  0  0  0  0  0  0
   24.8830   61.5388   33.9757 C   0  0  0  0  0  0  0  0  0  0  0  0
   23.6411   61.0325   33.1526 C   0  0  0  0  0  0  0  0  0  0  0  0
   23.9091   62.6206   30.6876 O   0  0  0  0  0  0  0  0  0  0  0  0
   25.4754   64.6812   31.9450 O   0  0  0  0  0  0  0  0  0  0  0  0
   26.7929   63.0477   33.8735 O   0  0  0  0  0  0  0  0  0  0  0  0
   22.7879   62.1858   32.7503 O   0  0  0  0  0  0  0  0  0  0  0  0
   24.5000   61.8695   30.8540 H   0  0  0  0  0  0  0  0  0  0  0  0
   25.7984   64.2532   31.1367 H   0  0  0  0  0  0  0  0  0  0  0  0
   26.4817   63.4845   34.6817 H   0  0  0  0  0  0  0  0  0  0  0  0
   22.7724   60.0672   33.9865 C   0  0  0  0  0  0  0  0  0  0  0  0
   23.2548   58.7199   33.8833 O   0  0  0  0  0  0  0  0  0  0  0  0
   23.2186   58.4336   32.9572 H   0  0  0  0  0  0  0  0  0  0  0  0
 28 29  1  0  0  0
 28 33  1  0  0  0
 28 26  1  0  0  0
 29 30  1  0  0  0
 29 34  1  0  0  0
 30 31  1  0  0  0
 30 35  1  0  0  0
 31 32  1  0  0  0
 31 36  1  0  0  0
 32 40  1  0  0  0
 32 33  2  0  0  0
 40 41  1  0  0  0
 15 16  1  0  0  0
 15 23  1  0  0  0
 15 14  1  0  0  0
 16 17  1  0  0  0
 16 21  1  0  0  0
 17 18  1  0  0  0
 17 22  1  0  0  0
 18 19  1  0  0  0
 18 26  1  0  0  0
 19 20  1  0  0  0
 19 23  1  0  0  0
  1  2  1  0  0  0
  1  8  1  0  0  0
  1 43  1  0  0  0
  2  3  1  0  0  0
  2  6  1  0  0  0
  3  4  1  0  0  0
  3  7  1  0  0  0
  4  5  1  0  0  0
  4 14  1  0  0  0
  5 11  1  0  0  0
  5  8  1  0  0  0
 11 12  1  0  0  0
 44 45  1  0  0  0
 44 49  1  0  0  0
 44 52  1  0  0  0
 45 46  1  0  0  0
 45 50  1  0  0  0
 46 47  1  0  0  0
 46 51  1  0  0  0
 47 48  1  0  0  0
 47 43  1  0  0  0
 48 56  1  0  0  0
 48 52  1  0  0  0
 56 57  1  0  0  0
 34 37  1  0  0  0
 35 38  1  0  0  0
 36 39  1  0  0  0
 41 42  1  0  0  0
 26 27  1  0  0  0
 21 24  1  0  0  0
 22 25  1  0  0  0
  6  9  1  0  0  0
  7 10  1  0  0  0
 12 13  1  0  0  0
 49 53  1  0  0  0
 50 54  1  0  0  0
 51 55  1  0  0  0
 57 58  1  0  0  0
M  END
> <minimizedAffinity>
-12.65568

$$$$
2ZQ0_ACR_A_801


 58 61  0  0  0  0  0  0  0  0999 V2000
   25.5787   59.9883   35.2400 C   0  0  0  0  0  0  0  0  0  0  0  0
   27.0007   60.4857   35.5953 C   0  0  0  0  0  0  0  0  0  0  0  0
   28.0378   59.3910   35.3021 C   0  0  0  0  0  0  0  0  0  0  0  0
   27.6903   58.1319   36.1153 C   0  0  0  0  0  0  0  0  0  0  0  0
   26.2543   57.6558   35.6824 C   0  0  0  0  0  0  0  0  0  0  0  0
   27.2898   61.6784   34.8407 O   0  0  0  0  0  0  0  0  0  0  0  0
   29.3389   59.8646   35.6701 O   0  0  0  0  0  0  0  0  0  0  0  0
   25.2717   58.7371   35.9576 O   0  0  0  0  0  0  0  0  0  0  0  0
   27.2485   61.4790   33.8923 H   0  0  0  0  0  0  0  0  0  0  0  0
   29.3482   60.0830   36.6151 H   0  0  0  0  0  0  0  0  0  0  0  0
   25.8110   56.3949   36.4479 C   0  0  0  0  0  0  0  0  0  0  0  0
   26.0476   56.5594   37.8535 O   0  0  0  0  0  0  0  0  0  0  0  0
   26.9946   56.7020   38.0074 H   0  0  0  0  0  0  0  0  0  0  0  0
   28.6775   57.1198   35.8393 O   0  0  0  0  0  0  0  0  0  0  0  0
   29.2249   56.5898   37.0568 C   0  0  0  0  0  0  0  0  0  0  0  0
   30.7561   56.4785   36.9978 C   0  0  0  0  0  0  0  0  0  0  0  0
   31.1805   55.3699   36.0125 C   0  0  0  0  0  0  0  0  0  0  0  0
   30.5522   54.0256   36.5015 C   0  0  0  0  0  0  0  0  0  0  0  0
   28.9910   54.2052   36.4792 C   0  0  0  0  0  0  0  0  0  0  0  0
   28.2465   52.9402   36.9295 C   0  0  0  0  0  0  0  0  0  0  0  0
   31.2927   57.7561   36.6307 O   0  0  0  0  0  0  0  0  0  0  0  0
   32.6079   55.2944   35.9930 O   0  0  0  0  0  0  0  0  0  0  0  0
   28.6040   55.2981   37.3829 O   0  0  0  0  0  0  0  0  0  0  0  0
   30.9465   58.0147   35.7622 H   0  0  0  0  0  0  0  0  0  0  0  0
   32.9340   55.1078   36.8873 H   0  0  0  0  0  0  0  0  0  0  0  0
   30.9651   52.9186   35.6192 N   0  0  0  0  0  0  0  0  0  0  0  0
   30.1244   52.4479   35.2844 H   0  0  0  0  0  0  0  0  0  0  0  0
   31.8502   51.8900   36.2761 C   0  0  0  0  0  0  0  0  0  0  0  0
   32.3825   50.7756   35.2783 C   0  0  0  0  0  0  0  0  0  0  0  0
   31.3158   49.7160   34.8481 C   0  0  0  0  0  0  0  0  0  0  0  0
   30.7613   48.9411   36.1293 C   0  0  0  0  0  0  0  0  0  0  0  0
   30.7160   49.7846   37.4436 C   0  0  0  0  0  0  0  0  0  0  0  0
   31.1998   51.1221   37.4908 C   0  0  0  0  0  0  0  0  0  0  0  0
   32.9461   51.5084   34.2107 O   0  0  0  0  0  0  0  0  0  0  0  0
   31.9499   48.8612   33.9536 O   0  0  0  0  0  0  0  0  0  0  0  0
   29.5203   48.4041   35.6813 O   0  0  0  0  0  0  0  0  0  0  0  0
   32.2651   52.0707   33.8095 H   0  0  0  0  0  0  0  0  0  0  0  0
   32.7181   48.4545   34.3842 H   0  0  0  0  0  0  0  0  0  0  0  0
   28.9421   49.1261   35.3891 H   0  0  0  0  0  0  0  0  0  0  0  0
   30.1733   49.1101   38.6771 C   0  0  0  0  0  0  0  0  0  0  0  0
   29.8583   47.7189   38.7369 O   0  0  0  0  0  0  0  0  0  0  0  0
   29.0925   47.5361   38.1704 H   0  0  0  0  0  0  0  0  0  0  0  0
   25.3589   59.8306   33.8118 O   0  0  0  0  0  0  0  0  0  0  0  0
   21.5830   61.8948   34.0161 C   0  0  0  0  0  0  0  0  0  0  0  0
   21.5995   60.3415   33.8331 C   0  0  0  0  0  0  0  0  0  0  0  0
   22.9651   59.7654   34.2539 C   0  0  0  0  0  0  0  0  0  0  0  0
   24.0809   60.4089   33.4143 C   0  0  0  0  0  0  0  0  0  0  0  0
   24.0347   61.9699   33.6069 C   0  0  0  0  0  0  0  0  0  0  0  0
   21.7126   62.2521   35.3953 O   0  0  0  0  0  0  0  0  0  0  0  0
   20.5524   59.7364   34.6172 O   0  0  0  0  0  0  0  0  0  0  0  0
   22.9770   58.3399   34.0744 O   0  0  0  0  0  0  0  0  0  0  0  0
   22.6914   62.4934   33.2309 O   0  0  0  0  0  0  0  0  0  0  0  0
   22.5578   61.9207   35.7372 H   0  0  0  0  0  0  0  0  0  0  0  0
   20.6967   59.9330   35.5560 H   0  0  0  0  0  0  0  0  0  0  0  0
   22.8264   58.1305   33.1393 H   0  0  0  0  0  0  0  0  0  0  0  0
   25.0839   62.6746   32.7213 C   0  0  0  0  0  0  0  0  0  0  0  0
   25.8387   61.7217   31.9592 O   0  0  0  0  0  0  0  0  0  0  0  0
   26.3070   61.1234   32.5622 H   0  0  0  0  0  0  0  0  0  0  0  0
 28 29  1  0  0  0
 28 33  1  0  0  0
 28 26  1  0  0  0
 29 30  1  0  0  0
 29 34  1  0  0  0
 30 31  1  0  0  0
 30 35  1  0  0  0
 31 32  1  0  0  0
 31 36  1  0  0  0
 32 40  1  0  0  0
 32 33  2  0  0  0
 40 41  1  0  0  0
 15 16  1  0  0  0
 15 23  1  0  0  0
 15 14  1  0  0  0
 16 17  1  0  0  0
 16 21  1  0  0  0
 17 18  1  0  0  0
 17 22  1  0  0  0
 18 19  1  0  0  0
 18 26  1  0  0  0
 19 20  1  0  0  0
 19 23  1  0  0  0
  1  2  1  0  0  0
  1  8  1  0  0  0
  1 43  1  0  0  0
  2  3  1  0  0  0
  2  6  1  0  0  0
  3  4  1  0  0  0
  3  7  1  0  0  0
  4  5  1  0  0  0
  4 14  1  0  0  0
  5 11  1  0  0  0
  5  8  1  0  0  0
 11 12  1  0  0  0
 44 45  1  0  0  0
 44 49  1  0  0  0
 44 52  1  0  0  0
 45 46  1  0  0  0
 45 50  1  0  0  0
 46 47  1  0  0  0
 46 51  1  0  0  0
 47 48  1  0  0  0
 47 43  1  0  0  0
 48 56  1  0  0  0
 48 52  1  0  0  0
 56 57  1  0  0  0
 34 37  1  0  0  0
 35 38  1  0  0  0
 36 39  1  0  0  0
 41 42  1  0  0  0
 26 27  1  0  0  0
 21 24  1  0  0  0
 22 25  1  0  0  0
  6  9  1  0  0  0
  7 10  1  0  0  0
 12 13  1  0  0  0
 49 53  1  0  0  0
 50 54  1  0  0  0
 51 55  1  0  0  0
 57 58  1  0  0  0
M  END
> <minimizedAffinity>
-12.48096

$$$$
2ZQ0_ACR_A_801


 58 61  0  0  0  0  0  0  0  0999 V2000
   24.7722   59.3298   35.5561 C   0  0  0  0  0  0  0  0  0  0  0  0
   26.1945   59.9400   35.5395 C   0  0  0  0  0  0  0  0  0  0  0  0
   27.2361   58.8572   35.2192 C   0  0  0  0  0  0  0  0  0  0  0  0
   27.1441   57.7377   36.2706 C   0  0  0  0  0  0  0  0  0  0  0  0
   25.6918   57.1349   36.2116 C   0  0  0  0  0  0  0  0  0  0  0  0
   26.2454   61.0014   34.5667 O   0  0  0  0  0  0  0  0  0  0  0  0
   28.5443   59.4410   35.2426 O   0  0  0  0  0  0  0  0  0  0  0  0
   24.7011   58.2038   36.5057 O   0  0  0  0  0  0  0  0  0  0  0  0
   26.0401   60.6450   33.6882 H   0  0  0  0  0  0  0  0  0  0  0  0
   28.7161   59.8142   36.1213 H   0  0  0  0  0  0  0  0  0  0  0  0
   25.4970   56.0015   37.2363 C   0  0  0  0  0  0  0  0  0  0  0  0
   25.5988   54.7250   36.5891 O   0  0  0  0  0  0  0  0  0  0  0  0
   24.9121   54.6522   35.9079 H   0  0  0  0  0  0  0  0  0  0  0  0
   28.1339   56.7371   35.9641 O   0  0  0  0  0  0  0  0  0  0  0  0
   28.7673   56.2567   37.1603 C   0  0  0  0  0  0  0  0  0  0  0  0
   30.2977   56.3679   37.0847 C   0  0  0  0  0  0  0  0  0  0  0  0
   30.8636   55.3600   36.0629 C   0  0  0  0  0  0  0  0  0  0  0  0
   30.4405   53.9261   36.5169 C   0  0  0  0  0  0  0  0  0  0  0  0
   28.8695   53.8806   36.5136 C   0  0  0  0  0  0  0  0  0  0  0  0
   28.3196   52.5095   36.9323 C   0  0  0  0  0  0  0  0  0  0  0  0
   30.6412   57.7191   36.7513 O   0  0  0  0  0  0  0  0  0  0  0  0
   32.2868   55.4906   36.0288 O   0  0  0  0  0  0  0  0  0  0  0  0
   28.3419   54.8806   37.4530 O   0  0  0  0  0  0  0  0  0  0  0  0
   30.2503   57.9500   35.8941 H   0  0  0  0  0  0  0  0  0  0  0  0
   32.6477   55.3273   36.9142 H   0  0  0  0  0  0  0  0  0  0  0  0
   30.9961   52.9153   35.5982 N   0  0  0  0  0  0  0  0  0  0  0  0
   30.2184   52.4252   35.1563 H   0  0  0  0  0  0  0  0  0  0  0  0
   31.8847   51.8907   36.2568 C   0  0  0  0  0  0  0  0  0  0  0  0
   32.4118   50.7703   35.2630 C   0  0  0  0  0  0  0  0  0  0  0  0
   31.3430   49.7081   34.8446 C   0  0  0  0  0  0  0  0  0  0  0  0
   30.7952   48.9410   36.1334 C   0  0  0  0  0  0  0  0  0  0  0  0
   30.7567   49.7923   37.4428 C   0  0  0  0  0  0  0  0  0  0  0  0
   31.2407   51.1301   37.4794 C   0  0  0  0  0  0  0  0  0  0  0  0
   32.9699   51.4967   34.1881 O   0  0  0  0  0  0  0  0  0  0  0  0
   31.9725   48.8480   33.9521 O   0  0  0  0  0  0  0  0  0  0  0  0
   29.5519   48.4012   35.6950 O   0  0  0  0  0  0  0  0  0  0  0  0
   32.2868   52.0565   33.7870 H   0  0  0  0  0  0  0  0  0  0  0  0
   32.7429   48.4439   34.3811 H   0  0  0  0  0  0  0  0  0  0  0  0
   28.9722   49.1214   35.4016 H   0  0  0  0  0  0  0  0  0  0  0  0
   30.2205   49.1253   38.6831 C   0  0  0  0  0  0  0  0  0  0  0  0
   29.8332   47.7520   38.7310 O   0  0  0  0  0  0  0  0  0  0  0  0
   29.0399   47.6207   38.1884 H   0  0  0  0  0  0  0  0  0  0  0  0
   24.2980   58.9267   34.2425 O   0  0  0  0  0  0  0  0  0  0  0  0
   20.3474   59.1478   32.5388 C   0  0  0  0  0  0  0  0  0  0  0  0
   21.1493   60.4668   32.7907 C   0  0  0  0  0  0  0  0  0  0  0  0
   22.6521   60.1616   32.9403 C   0  0  0  0  0  0  0  0  0  0  0  0
   22.8690   59.1802   34.1038 C   0  0  0  0  0  0  0  0  0  0  0  0
   22.0433   57.8687   33.8316 C   0  0  0  0  0  0  0  0  0  0  0  0
   20.7172   58.5504   31.2925 O   0  0  0  0  0  0  0  0  0  0  0  0
   20.9451   61.3895   31.7024 O   0  0  0  0  0  0  0  0  0  0  0  0
   23.3817   61.3758   33.1810 O   0  0  0  0  0  0  0  0  0  0  0  0
   20.6016   58.1986   33.6513 O   0  0  0  0  0  0  0  0  0  0  0  0
   21.6610   58.3268   31.3085 H   0  0  0  0  0  0  0  0  0  0  0  0
   21.2654   60.9924   30.8774 H   0  0  0  0  0  0  0  0  0  0  0  0
   23.0649   61.7862   34.0009 H   0  0  0  0  0  0  0  0  0  0  0  0
   22.1602   56.8787   35.0098 C   0  0  0  0  0  0  0  0  0  0  0  0
   21.4761   55.6510   34.7211 O   0  0  0  0  0  0  0  0  0  0  0  0
   20.5348   55.8324   34.5729 H   0  0  0  0  0  0  0  0  0  0  0  0
 28 29  1  0  0  0
 28 33  1  0  0  0
 28 26  1  0  0  0
 29 30  1  0  0  0
 29 34  1  0  0  0
 30 31  1  0  0  0
 30 35  1  0  0  0
 31 32  1  0  0  0
 31 36  1  0  0  0
 32 40  1  0  0  0
 32 33  2  0  0  0
 40 41  1  0  0  0
 15 16  1  0  0  0
 15 23  1  0  0  0
 15 14  1  0  0  0
 16 17  1  0  0  0
 16 21  1  0  0  0
 17 18  1  0  0  0
 17 22  1  0  0  0
 18 19  1  0  0  0
 18 26  1  0  0  0
 19 20  1  0  0  0
 19 23  1  0  0  0
  1  2  1  0  0  0
  1  8  1  0  0  0
  1 43  1  0  0  0
  2  3  1  0  0  0
  2  6  1  0  0  0
  3  4  1  0  0  0
  3  7  1  0  0  0
  4  5  1  0  0  0
  4 14  1  0  0  0
  5 11  1  0  0  0
  5  8  1  0  0  0
 11 12  1  0  0  0
 44 45  1  0  0  0
 44 49  1  0  0  0
 44 52  1  0  0  0
 45 46  1  0  0  0
 45 50  1  0  0  0
 46 47  1  0  0  0
 46 51  1  0  0  0
 47 48  1  0  0  0
 47 43  1  0  0  0
 48 56  1  0  0  0
 48 52  1  0  0  0
 56 57  1  0  0  0
 34 37  1  0  0  0
 35 38  1  0  0  0
 36 39  1  0  0  0
 41 42  1  0  0  0
 26 27  1  0  0  0
 21 24  1  0  0  0
 22 25  1  0  0  0
  6  9  1  0  0  0
  7 10  1  0  0  0
 12 13  1  0  0  0
 49 53  1  0  0  0
 50 54  1  0  0  0
 51 55  1  0  0  0
 57 58  1  0  0  0
M  END
> <minimizedAffinity>
-11.59025

$$$$
2ZQ0_ACR_A_801


 58 61  0  0  0  0  0  0  0  0999 V2000
   25.6911   59.6355   37.4852 C   0  0  0  0  0  0  0  0  0  0  0  0
   25.2634   58.2884   36.8543 C   0  0  0  0  0  0  0  0  0  0  0  0
   26.4834   57.3724   36.6741 C   0  0  0  0  0  0  0  0  0  0  0  0
   27.5204   58.0777   35.7829 C   0  0  0  0  0  0  0  0  0  0  0  0
   27.9414   59.4164   36.4948 C   0  0  0  0  0  0  0  0  0  0  0  0
   24.2743   57.6625   37.6942 O   0  0  0  0  0  0  0  0  0  0  0  0
   26.0655   56.1476   36.0592 O   0  0  0  0  0  0  0  0  0  0  0  0
   26.7430   60.2776   36.6754 O   0  0  0  0  0  0  0  0  0  0  0  0
   24.6526   57.4986   38.5722 H   0  0  0  0  0  0  0  0  0  0  0  0
   25.6664   56.3389   35.1960 H   0  0  0  0  0  0  0  0  0  0  0  0
   28.9810   60.2024   35.6740 C   0  0  0  0  0  0  0  0  0  0  0  0
   28.3376   60.9040   34.6005 O   0  0  0  0  0  0  0  0  0  0  0  0
   27.8952   60.2675   34.0175 H   0  0  0  0  0  0  0  0  0  0  0  0
   28.6518   57.2023   35.6134 O   0  0  0  0  0  0  0  0  0  0  0  0
   29.1028   56.6938   36.8787 C   0  0  0  0  0  0  0  0  0  0  0  0
   30.6324   56.5607   36.9324 C   0  0  0  0  0  0  0  0  0  0  0  0
   31.1094   55.4236   36.0053 C   0  0  0  0  0  0  0  0  0  0  0  0
   30.4276   54.0997   36.4782 C   0  0  0  0  0  0  0  0  0  0  0  0
   28.8748   54.2997   36.3398 C   0  0  0  0  0  0  0  0  0  0  0  0
   28.0811   53.0557   36.7638 C   0  0  0  0  0  0  0  0  0  0  0  0
   31.2131   57.8220   36.5760 O   0  0  0  0  0  0  0  0  0  0  0  0
   32.5332   55.3285   36.0902 O   0  0  0  0  0  0  0  0  0  0  0  0
   28.4408   55.4187   37.1884 O   0  0  0  0  0  0  0  0  0  0  0  0
   30.9338   58.0647   35.6794 H   0  0  0  0  0  0  0  0  0  0  0  0
   32.7917   55.1586   37.0096 H   0  0  0  0  0  0  0  0  0  0  0  0
   30.8858   52.9668   35.6530 N   0  0  0  0  0  0  0  0  0  0  0  0
   30.0636   52.4731   35.3055 H   0  0  0  0  0  0  0  0  0  0  0  0
   31.7583   51.9746   36.3793 C   0  0  0  0  0  0  0  0  0  0  0  0
   32.3900   50.8676   35.4326 C   0  0  0  0  0  0  0  0  0  0  0  0
   31.3882   49.7693   34.9473 C   0  0  0  0  0  0  0  0  0  0  0  0
   30.7759   48.9904   36.1995 C   0  0  0  0  0  0  0  0  0  0  0  0
   30.6177   49.8459   37.4971 C   0  0  0  0  0  0  0  0  0  0  0  0
   31.0545   51.1989   37.5587 C   0  0  0  0  0  0  0  0  0  0  0  0
   32.9987   51.6071   34.3947 O   0  0  0  0  0  0  0  0  0  0  0  0
   32.1064   48.9262   34.1070 O   0  0  0  0  0  0  0  0  0  0  0  0
   29.5846   48.4084   35.6784 O   0  0  0  0  0  0  0  0  0  0  0  0
   32.3279   52.1425   33.9428 H   0  0  0  0  0  0  0  0  0  0  0  0
   32.8573   48.5493   34.5919 H   0  0  0  0  0  0  0  0  0  0  0  0
   29.0041   49.1080   35.3401 H   0  0  0  0  0  0  0  0  0  0  0  0
   30.0172   49.1672   38.7012 C   0  0  0  0  0  0  0  0  0  0  0  0
   29.8385   47.7541   38.7981 O   0  0  0  0  0  0  0  0  0  0  0  0
   29.1594   47.4700   38.1664 H   0  0  0  0  0  0  0  0  0  0  0  0
   26.1075   59.5203   38.8732 O   0  0  0  0  0  0  0  0  0  0  0  0
   24.8883   61.8139   42.3101 C   0  0  0  0  0  0  0  0  0  0  0  0
   23.8148   61.0142   41.5011 C   0  0  0  0  0  0  0  0  0  0  0  0
   24.4885   59.9231   40.6469 C   0  0  0  0  0  0  0  0  0  0  0  0
   25.5024   60.5675   39.6874 C   0  0  0  0  0  0  0  0  0  0  0  0
   26.5625   61.3743   40.5248 C   0  0  0  0  0  0  0  0  0  0  0  0
   25.5491   60.9727   43.2601 O   0  0  0  0  0  0  0  0  0  0  0  0
   22.8615   60.4116   42.3986 O   0  0  0  0  0  0  0  0  0  0  0  0
   23.4982   59.1988   39.8991 O   0  0  0  0  0  0  0  0  0  0  0  0
   25.8800   62.3938   41.3701 O   0  0  0  0  0  0  0  0  0  0  0  0
   26.0024   60.2527   42.7942 H   0  0  0  0  0  0  0  0  0  0  0  0
   23.3195   59.7932   42.9890 H   0  0  0  0  0  0  0  0  0  0  0  0
   23.0282   59.8089   39.3094 H   0  0  0  0  0  0  0  0  0  0  0  0
   27.5598   62.1103   39.6053 C   0  0  0  0  0  0  0  0  0  0  0  0
   26.9055   62.6087   38.4296 O   0  0  0  0  0  0  0  0  0  0  0  0
   26.5274   61.8674   37.9312 H   0  0  0  0  0  0  0  0  0  0  0  0
 28 29  1  0  0  0
 28 33  1  0  0  0
 28 26  1  0  0  0
 29 30  1  0  0  0
 29 34  1  0  0  0
 30 31  1  0  0  0
 30 35  1  0  0  0
 31 32  1  0  0  0
 31 36  1  0  0  0
 32 40  1  0  0  0
 32 33  2  0  0  0
 40 41  1  0  0  0
 15 16  1  0  0  0
 15 23  1  0  0  0
 15 14  1  0  0  0
 16 17  1  0  0  0
 16 21  1  0  0  0
 17 18  1  0  0  0
 17 22  1  0  0  0
 18 19  1  0  0  0
 18 26  1  0  0  0
 19 20  1  0  0  0
 19 23  1  0  0  0
  1  2  1  0  0  0
  1  8  1  0  0  0
  1 43  1  0  0  0
  2  3  1  0  0  0
  2  6  1  0  0  0
  3  4  1  0  0  0
  3  7  1  0  0  0
  4  5  1  0  0  0
  4 14  1  0  0  0
  5 11  1  0  0  0
  5  8  1  0  0  0
 11 12  1  0  0  0
 44 45  1  0  0  0
 44 49  1  0  0  0
 44 52  1  0  0  0
 45 46  1  0  0  0
 45 50  1  0  0  0
 46 47  1  0  0  0
 46 51  1  0  0  0
 47 48  1  0  0  0
 47 43  1  0  0  0
 48 56  1  0  0  0
 48 52  1  0  0  0
 56 57  1  0  0  0
 34 37  1  0  0  0
 35 38  1  0  0  0
 36 39  1  0  0  0
 41 42  1  0  0  0
 26 27  1  0  0  0
 21 24  1  0  0  0
 22 25  1  0  0  0
  6  9  1  0  0  0
  7 10  1  0  0  0
 12 13  1  0  0  0
 49 53  1  0  0  0
 50 54  1  0  0  0
 51 55  1  0  0  0
 57 58  1  0  0  0
M  END
> <minimizedAffinity>
-11.37862

$$$$
2ZQ0_ACR_A_801


 58 61  0  0  0  0  0  0  0  0999 V2000
   25.6897   59.6068   37.4767 C   0  0  0  0  0  0  0  0  0  0  0  0
   25.2656   58.2631   36.8361 C   0  0  0  0  0  0  0  0  0  0  0  0
   26.4868   57.3488   36.6560 C   0  0  0  0  0  0  0  0  0  0  0  0
   27.5274   58.0599   35.7735 C   0  0  0  0  0  0  0  0  0  0  0  0
   27.9444   59.3947   36.4949 C   0  0  0  0  0  0  0  0  0  0  0  0
   24.2731   57.6318   37.6680 O   0  0  0  0  0  0  0  0  0  0  0  0
   26.0724   56.1274   36.0322 O   0  0  0  0  0  0  0  0  0  0  0  0
   26.7447   60.2542   36.6752 O   0  0  0  0  0  0  0  0  0  0  0  0
   24.6477   57.4630   38.5467 H   0  0  0  0  0  0  0  0  0  0  0  0
   25.6770   56.3234   35.1684 H   0  0  0  0  0  0  0  0  0  0  0  0
   28.9872   60.1861   35.6833 C   0  0  0  0  0  0  0  0  0  0  0  0
   28.3480   60.8939   34.6113 O   0  0  0  0  0  0  0  0  0  0  0  0
   27.9083   60.2606   34.0226 H   0  0  0  0  0  0  0  0  0  0  0  0
   28.6600   57.1862   35.6039 O   0  0  0  0  0  0  0  0  0  0  0  0
   29.1042   56.6687   36.8680 C   0  0  0  0  0  0  0  0  0  0  0  0
   30.6340   56.5419   36.9316 C   0  0  0  0  0  0  0  0  0  0  0  0
   31.1227   55.4150   35.9981 C   0  0  0  0  0  0  0  0  0  0  0  0
   30.4435   54.0840   36.4546 C   0  0  0  0  0  0  0  0  0  0  0  0
   28.8909   54.2783   36.3067 C   0  0  0  0  0  0  0  0  0  0  0  0
   28.0998   53.0272   36.7142 C   0  0  0  0  0  0  0  0  0  0  0  0
   31.2115   57.8088   36.5904 O   0  0  0  0  0  0  0  0  0  0  0  0
   32.5463   55.3255   36.0925 O   0  0  0  0  0  0  0  0  0  0  0  0
   28.4457   55.3879   37.1619 O   0  0  0  0  0  0  0  0  0  0  0  0
   30.9375   58.0580   35.6938 H   0  0  0  0  0  0  0  0  0  0  0  0
   32.7990   55.1488   37.0122 H   0  0  0  0  0  0  0  0  0  0  0  0
   30.9127   52.9604   35.6229 N   0  0  0  0  0  0  0  0  0  0  0  0
   30.0953   52.4713   35.2583 H   0  0  0  0  0  0  0  0  0  0  0  0
   31.7745   51.9594   36.3499 C   0  0  0  0  0  0  0  0  0  0  0  0
   32.3919   50.8433   35.4045 C   0  0  0  0  0  0  0  0  0  0  0  0
   31.3766   49.7559   34.9225 C   0  0  0  0  0  0  0  0  0  0  0  0
   30.7568   48.9866   36.1769 C   0  0  0  0  0  0  0  0  0  0  0  0
   30.6104   49.8463   37.4731 C   0  0  0  0  0  0  0  0  0  0  0  0
   31.0632   51.1941   37.5317 C   0  0  0  0  0  0  0  0  0  0  0  0
   33.0079   51.5737   34.3644 O   0  0  0  0  0  0  0  0  0  0  0  0
   32.0838   48.9029   34.0828 O   0  0  0  0  0  0  0  0  0  0  0  0
   29.5581   48.4177   35.6584 O   0  0  0  0  0  0  0  0  0  0  0  0
   32.3429   52.1161   33.9124 H   0  0  0  0  0  0  0  0  0  0  0  0
   32.8308   48.5182   34.5675 H   0  0  0  0  0  0  0  0  0  0  0  0
   28.9855   49.1234   35.3196 H   0  0  0  0  0  0  0  0  0  0  0  0
   30.0035   49.1769   38.6792 C   0  0  0  0  0  0  0  0  0  0  0  0
   29.8503   47.7625   38.7981 O   0  0  0  0  0  0  0  0  0  0  0  0
   29.1871   47.4544   38.1607 H   0  0  0  0  0  0  0  0  0  0  0  0
   26.1000   59.4838   38.8657 O   0  0  0  0  0  0  0  0  0  0  0  0
   24.4786   63.3498   39.8581 C   0  0  0  0  0  0  0  0  0  0  0  0
   26.0126   63.0948   40.0264 C   0  0  0  0  0  0  0  0  0  0  0  0
   26.4479   61.8710   39.1977 C   0  0  0  0  0  0  0  0  0  0  0  0
   25.6536   60.6326   39.6446 C   0  0  0  0  0  0  0  0  0  0  0  0
   24.1156   60.9195   39.4767 C   0  0  0  0  0  0  0  0  0  0  0  0
   24.1599   63.6998   38.5080 O   0  0  0  0  0  0  0  0  0  0  0  0
   26.7590   64.2557   39.6107 O   0  0  0  0  0  0  0  0  0  0  0  0
   27.8556   61.6364   39.3642 O   0  0  0  0  0  0  0  0  0  0  0  0
   23.7317   62.1302   40.2556 O   0  0  0  0  0  0  0  0  0  0  0  0
   24.4072   62.9707   37.9180 H   0  0  0  0  0  0  0  0  0  0  0  0
   26.5821   64.4355   38.6741 H   0  0  0  0  0  0  0  0  0  0  0  0
   28.0460   61.4621   40.2992 H   0  0  0  0  0  0  0  0  0  0  0  0
   23.2663   59.7367   39.9880 C   0  0  0  0  0  0  0  0  0  0  0  0
   24.0998   58.6869   40.4998 O   0  0  0  0  0  0  0  0  0  0  0  0
   24.6775   58.3591   39.7929 H   0  0  0  0  0  0  0  0  0  0  0  0
 28 29  1  0  0  0
 28 33  1  0  0  0
 28 26  1  0  0  0
 29 30  1  0  0  0
 29 34  1  0  0  0
 30 31  1  0  0  0
 30 35  1  0  0  0
 31 32  1  0  0  0
 31 36  1  0  0  0
 32 40  1  0  0  0
 32 33  2  0  0  0
 40 41  1  0  0  0
 15 16  1  0  0  0
 15 23  1  0  0  0
 15 14  1  0  0  0
 16 17  1  0  0  0
 16 21  1  0  0  0
 17 18  1  0  0  0
 17 22  1  0  0  0
 18 19  1  0  0  0
 18 26  1  0  0  0
 19 20  1  0  0  0
 19 23  1  0  0  0
  1  2  1  0  0  0
  1  8  1  0  0  0
  1 43  1  0  0  0
  2  3  1  0  0  0
  2  6  1  0  0  0
  3  4  1  0  0  0
  3  7  1  0  0  0
  4  5  1  0  0  0
  4 14  1  0  0  0
  5 11  1  0  0  0
  5  8  1  0  0  0
 11 12  1  0  0  0
 44 45  1  0  0  0
 44 49  1  0  0  0
 44 52  1  0  0  0
 45 46  1  0  0  0
 45 50  1  0  0  0
 46 47  1  0  0  0
 46 51  1  0  0  0
 47 48  1  0  0  0
 47 43  1  0  0  0
 48 56  1  0  0  0
 48 52  1  0  0  0
 56 57  1  0  0  0
 34 37  1  0  0  0
 35 38  1  0  0  0
 36 39  1  0  0  0
 41 42  1  0  0  0
 26 27  1  0  0  0
 21 24  1  0  0  0
 22 25  1  0  0  0
  6  9  1  0  0  0
  7 10  1  0  0  0
 12 13  1  0  0  0
 49 53  1  0  0  0
 50 54  1  0  0  0
 51 55  1  0  0  0
 57 58  1  0  0  0
M  END
> <minimizedAffinity>
-11.23209

$$$$
