2ZQ0_ACR_A_801
  RCSB PDB12061707463D
Coordinates from PDB:2ZQ0:A:801 Model:1 without hydrogens
 44 47  0  0  0  0            999 V2000
   31.8660   51.7960   36.1020   C 0  0  0  0  0  0  0  0  0  0  0  0
   32.3290   50.6950   35.0560   C 0  0  0  0  0  0  0  0  0  0  0  0
   31.2340   49.6430   34.6820   C 0  0  0  0  0  0  0  0  0  0  0  0
   30.7630   48.8510   35.9860   C 0  0  0  0  0  0  0  0  0  0  0  0
   30.8060   49.6760   37.3120   C 0  0  0  0  0  0  0  0  0  0  0  0
   30.3440   48.9850   38.5690   C 0  0  0  0  0  0  0  0  0  0  0  0
   31.2950   51.0120   37.3460   C 0  0  0  0  0  0  0  0  0  0  0  0
   32.8230   51.4420   33.9640   O 0  0  0  0  0  0  0  0  0  0  0  0
   31.8060   48.8000   33.7360   O 0  0  0  0  0  0  0  0  0  0  0  0
   29.4940   48.3220   35.6130   O 0  0  0  0  0  0  0  0  0  0  0  0
   31.1980   48.1790   39.3810   O 0  0  0  0  0  0  0  0  0  0  0  0
   29.0210   56.2950   37.2250   C 0  0  0  0  0  0  0  0  0  0  0  0
   30.5550   56.2750   37.1420   C 0  0  0  0  0  0  0  0  0  0  0  0
   31.0260   55.2620   36.0780   C 0  0  0  0  0  0  0  0  0  0  0  0
   30.4810   53.8540   36.4800   C 0  0  0  0  0  0  0  0  0  0  0  0
   28.9120   53.9460   36.4870   C 0  0  0  0  0  0  0  0  0  0  0  0
   28.2460   52.6130   36.8570   C 0  0  0  0  0  0  0  0  0  0  0  0
   30.9420   52.8350   35.5190   N 0  0  0  0  0  0  0  0  0  0  0  0
   31.0140   57.6030   36.8580   O 0  0  0  0  0  0  0  0  0  0  0  0
   32.4550   55.2690   36.0380   O 0  0  0  0  0  0  0  0  0  0  0  0
   28.4780   54.9510   37.4680   O 0  0  0  0  0  0  0  0  0  0  0  0
   25.6090   60.0580   35.7110   C 0  0  0  0  0  0  0  0  0  0  0  0
   27.1160   60.3990   35.8020   C 0  0  0  0  0  0  0  0  0  0  0  0
   27.9640   59.1700   35.4410   C 0  0  0  0  0  0  0  0  0  0  0  0
   27.6160   58.0150   36.3960   C 0  0  0  0  0  0  0  0  0  0  0  0
   26.0850   57.6920   36.2290   C 0  0  0  0  0  0  0  0  0  0  0  0
   25.6350   56.5440   37.1520   C 0  0  0  0  0  0  0  0  0  0  0  0
   27.4090   61.4990   34.9190   O 0  0  0  0  0  0  0  0  0  0  0  0
   29.3520   59.5030   35.5650   O 0  0  0  0  0  0  0  0  0  0  0  0
   28.4270   56.8750   36.0530   O 0  0  0  0  0  0  0  0  0  0  0  0
   25.2860   58.9000   36.5650   O 0  0  0  0  0  0  0  0  0  0  0  0
   25.8610   56.8940   38.5250   O 0  0  0  0  0  0  0  0  0  0  0  0
   21.3960   60.9040   32.5120   C 0  0  0  0  0  0  0  0  0  0  0  0
   22.3500   62.0350   33.0190   C 0  0  0  0  0  0  0  0  0  0  0  0
   23.7820   61.4930   33.1910   C 0  0  0  0  0  0  0  0  0  0  0  0
   23.7770   60.3200   34.1850   C 0  0  0  0  0  0  0  0  0  0  0  0
   22.8020   59.2030   33.6580   C 0  0  0  0  0  0  0  0  0  0  0  0
   22.6960   58.0340   34.6600   C 0  0  0  0  0  0  0  0  0  0  0  0
   21.7710   60.4620   31.2040   O 0  0  0  0  0  0  0  0  0  0  0  0
   22.3540   63.1370   32.0900   O 0  0  0  0  0  0  0  0  0  0  0  0
   24.6510   62.5340   33.6660   O 0  0  0  0  0  0  0  0  0  0  0  0
   25.1440   59.8410   34.3510   O 0  0  0  0  0  0  0  0  0  0  0  0
   21.4360   59.7650   33.4630   O 0  0  0  0  0  0  0  0  0  0  0  0
   22.0770   58.4580   35.8830   O 0  0  0  0  0  0  0  0  0  0  0  0
  1  2  1  0  0  0  0
  1  7  1  0  0  0  0
  1 18  1  0  0  0  0
  2  3  1  0  0  0  0
  2  8  1  0  0  0  0
  3  4  1  0  0  0  0
  3  9  1  0  0  0  0
  4  5  1  0  0  0  0
  4 10  1  0  0  0  0
  5  6  1  0  0  0  0
  5  7  2  0  0  0  0
  6 11  1  0  0  0  0
 12 13  1  0  0  0  0
 12 21  1  0  0  0  0
 12 30  1  0  0  0  0
 13 14  1  0  0  0  0
 13 19  1  0  0  0  0
 14 15  1  0  0  0  0
 14 20  1  0  0  0  0
 15 16  1  0  0  0  0
 15 18  1  0  0  0  0
 16 17  1  0  0  0  0
 16 21  1  0  0  0  0
 22 23  1  0  0  0  0
 22 31  1  0  0  0  0
 22 42  1  0  0  0  0
 23 24  1  0  0  0  0
 23 28  1  0  0  0  0
 24 25  1  0  0  0  0
 24 29  1  0  0  0  0
 25 26  1  0  0  0  0
 25 30  1  0  0  0  0
 26 27  1  0  0  0  0
 26 31  1  0  0  0  0
 27 32  1  0  0  0  0
 33 34  1  0  0  0  0
 33 39  1  0  0  0  0
 33 43  1  0  0  0  0
 34 35  1  0  0  0  0
 34 40  1  0  0  0  0
 35 36  1  0  0  0  0
 35 41  1  0  0  0  0
 36 37  1  0  0  0  0
 36 42  1  0  0  0  0
 37 38  1  0  0  0  0
 37 43  1  0  0  0  0
 38 44  1  0  0  0  0
A    1
C1A
A    2
C2A
A    3
C3A
A    4
C4A
A    5
C5A
A    6
C6A
A    7
C7A
A    8
O2A
A    9
O3A
A   10
O4A
A   11
O6A
A   12
C1B
A   13
C2B
A   14
C3B
A   15
C4B
A   16
C5B
A   17
C6B
A   18
N4B
A   19
O2B
A   20
O3B
A   21
O5B
A   22
C1C
A   23
C2C
A   24
C3C
A   25
C4C
A   26
C5C
A   27
C6C
A   28
O2C
A   29
O3C
A   30
O4C
A   31
O5C
A   32
O6C
A   33
C1D
A   34
C2D
A   35
C3D
A   36
C4D
A   37
C5D
A   38
C6D
A   39
O1D
A   40
O2D
A   41
O3D
A   42
O4D
A   43
O5D
A   44
O6D
M  END
>  <InstanceId>
2ZQ0_ACR_A_801

>  <ChemCompId>
ACR

>  <PdbId>
2ZQ0

>  <ChainId>
A

>  <ResidueNumber>
801

>  <InsertionCode>


>  <Model>
1

>  <AltIds>


>  <MissingHeavyAtoms>
0

>  <ObservedFormula>
C25 N O18

>  <Name>
ALPHA-ACARBOSE

>  <SystematicName>
(2S,3R,4R,5S,6R)-5-[(2R,3R,4R,5S,6R)-5-[(2R,3R,4S,5S,6R)-3,4-dihydroxy-6-methyl-5-[[(1S,4R,5S,6S)-4,5,6-trihydroxy-3-(hydroxymethyl)cyclohex-2-en-1-yl]amino]oxan-2-yl]oxy-3,4-dihydroxy-6-(hydroxymethyl)oxan-2-yl]oxy-6-(hydroxymethyl)oxane-2,3,4-triol

>  <Synonyms>
1,4-DEOXY-4-((5-HYDROXYMETHYL-2,3,4-TRIHYDROXYCYCLOHEX-5,6-ENYL)AMINO)FRUCTOSE

>  <Type>
SACCHARIDE

>  <Formula>
C25 H43 N O18

>  <MolecularWeight>
645.605

>  <ModifiedDate>
2011-06-04

>  <Parent>


>  <OneLetterCode>


>  <SubcomponentList>


>  <AmbiguousFlag>
N

>  <InChI>
InChI=1S/C25H43NO18/c1-6-11(26-8-2-7(3-27)12(30)15(33)13(8)31)14(32)19(37)24(40-6)43-22-10(5-29)42-25(20(38)17(22)35)44-21-9(4-28)41-23(39)18(36)16(21)34/h2,6,8-39H,3-5H2,1H3/t6-,8+,9-,10-,11-,12-,13+,14+,15+,16-,17-,18-,19-,20-,21-,22-,23+,24-,25-/m1/s1

>  <InChIKey>
XUFXOAAUWZOOIT-WVJZLWNXSA-N

>  <SMILES>
C[C@@H]1[C@H]([C@@H]([C@H]([C@H](O1)O[C@@H]2[C@H](O[C@@H]([C@@H]([C@H]2O)O)O[C@@H]3[C@H](O[C@@H]([C@@H]([C@H]3O)O)O)CO)CO)O)O)N[C@H]4C=C([C@H]([C@@H]([C@H]4O)O)O)CO

$$$$
