6AQS_IM5_A_302


 26 28  0  0  0  0  0  0  0  0999 V2000
   -6.3492   29.9530    7.8470 N   0  0  0  0  0  0  0  0  0  0  0  0
   -7.1058   29.3646    8.8157 C   0  0  0  0  0  0  0  0  0  0  0  0
   -8.0059   28.4049    8.4409 N   0  0  0  0  0  0  0  0  0  0  0  0
   -6.9845   29.6961   10.1378 N   0  0  0  0  0  0  0  0  0  0  0  0
   -6.0945   30.6640   10.4928 C   0  0  0  0  0  0  0  0  0  0  0  0
   -5.2434   31.3450    9.5077 C   0  0  0  0  0  0  0  0  0  0  0  0
   -5.4367   30.9117    8.1056 C   0  0  0  0  0  0  0  0  0  0  0  0
   -4.7682   31.4199    7.1889 O   0  0  0  0  0  0  0  0  0  0  0  0
   -4.4689   32.2324   10.1645 N   0  0  0  0  0  0  0  0  0  0  0  0
   -4.7257   32.1958   11.5016 C   0  0  0  0  0  0  0  0  0  0  0  0
   -5.7060   31.2407   11.8011 C   0  0  0  0  0  0  0  0  0  0  0  0
   -6.4748   29.6646    6.9141 H   0  0  0  0  0  0  0  0  0  0  0  0
   -8.0988   28.1610    7.4917 H   0  0  0  0  0  0  0  0  0  0  0  0
   -8.5608   27.9581    9.1205 H   0  0  0  0  0  0  0  0  0  0  0  0
   -3.8091   32.8247    9.7367 H   0  0  0  0  0  0  0  0  0  0  0  0
   -6.2477   30.9831   13.1797 C   0  0  0  0  0  0  0  0  0  0  0  0
   -6.2939   29.6358   13.7746 N   0  0  0  0  0  0  0  0  0  0  0  0
   -5.6375   29.5767   15.0965 C   0  0  0  0  0  0  0  0  0  0  0  0
   -6.2784   28.3709   15.7853 C   0  0  0  0  0  0  0  0  0  0  0  0
   -5.5185   27.1742   15.5678 O   0  0  0  0  0  0  0  0  0  0  0  0
   -7.6748   28.2692   15.1892 C   0  0  0  0  0  0  0  0  0  0  0  0
   -7.6426   29.0321   13.8624 C   0  0  0  0  0  0  0  0  0  0  0  0
   -5.4488   27.0041   14.6154 H   0  0  0  0  0  0  0  0  0  0  0  0
   -8.7430   28.8503   16.1046 C   0  0  0  0  0  0  0  0  0  0  0  0
   -8.6277   28.2614   17.4117 O   0  0  0  0  0  0  0  0  0  0  0  0
   -8.7470   27.3011   17.3453 H   0  0  0  0  0  0  0  0  0  0  0  0
  2  1  1  0  0  0
  1  7  1  0  0  0
  3  2  1  0  0  0
  4  2  2  0  0  0
  4  5  1  0  0  0
 11  5  1  0  0  0
  5  6  2  0  0  0
  6  9  1  0  0  0
  6  7  1  0  0  0
  7  8  2  0  0  0
 10  9  1  0  0  0
 11 10  2  0  0  0
 16 11  1  0  0  0
 16 17  1  0  0  0
 17 18  1  0  0  0
 17 22  1  0  0  0
 18 19  1  0  0  0
 20 19  1  0  0  0
 19 21  1  0  0  0
 22 21  1  0  0  0
 21 24  1  0  0  0
 24 25  1  0  0  0
  1 12  1  0  0  0
  3 13  1  0  0  0
  3 14  1  0  0  0
  9 15  1  0  0  0
 20 23  1  0  0  0
 25 26  1  0  0  0
M  END
> <minimizedAffinity>
-8.69839

$$$$
6AQS_IM5_A_302


 26 28  0  0  0  0  0  0  0  0999 V2000
   -5.6190   35.2329   10.9073 N   0  0  0  0  0  0  0  0  0  0  0  0
   -5.6417   34.8951   12.2273 C   0  0  0  0  0  0  0  0  0  0  0  0
   -5.7213   35.9003   13.1519 N   0  0  0  0  0  0  0  0  0  0  0  0
   -5.5973   33.5937   12.6479 N   0  0  0  0  0  0  0  0  0  0  0  0
   -5.5030   32.6054   11.7156 C   0  0  0  0  0  0  0  0  0  0  0  0
   -5.4731   32.8885   10.2742 C   0  0  0  0  0  0  0  0  0  0  0  0
   -5.5377   34.3230    9.9152 C   0  0  0  0  0  0  0  0  0  0  0  0
   -5.5209   34.6781    8.7240 O   0  0  0  0  0  0  0  0  0  0  0  0
   -5.3894   31.7136    9.6175 N   0  0  0  0  0  0  0  0  0  0  0  0
   -5.3683   30.6733   10.4964 C   0  0  0  0  0  0  0  0  0  0  0  0
   -5.4530   31.1282   11.8188 C   0  0  0  0  0  0  0  0  0  0  0  0
   -5.6642   36.1865   10.6664 H   0  0  0  0  0  0  0  0  0  0  0  0
   -5.7537   36.8390   12.8569 H   0  0  0  0  0  0  0  0  0  0  0  0
   -5.7463   35.6850   14.1122 H   0  0  0  0  0  0  0  0  0  0  0  0
   -5.3492   31.6207    8.6382 H   0  0  0  0  0  0  0  0  0  0  0  0
   -5.4104   30.2363   13.0282 C   0  0  0  0  0  0  0  0  0  0  0  0
   -6.5495   30.0990   13.9529 N   0  0  0  0  0  0  0  0  0  0  0  0
   -7.5573   29.1324   13.4717 C   0  0  0  0  0  0  0  0  0  0  0  0
   -8.2869   28.6821   14.7383 C   0  0  0  0  0  0  0  0  0  0  0  0
   -9.4516   29.4807   14.9878 O   0  0  0  0  0  0  0  0  0  0  0  0
   -7.2617   28.8144   15.8550 C   0  0  0  0  0  0  0  0  0  0  0  0
   -6.1889   29.7846   15.3537 C   0  0  0  0  0  0  0  0  0  0  0  0
   -9.1927   30.4113   15.0765 H   0  0  0  0  0  0  0  0  0  0  0  0
   -6.6315   27.4804   16.2288 C   0  0  0  0  0  0  0  0  0  0  0  0
   -5.4312   27.2843   15.4611 O   0  0  0  0  0  0  0  0  0  0  0  0
   -5.6483   27.2852   14.5157 H   0  0  0  0  0  0  0  0  0  0  0  0
  2  1  1  0  0  0
  1  7  1  0  0  0
  3  2  1  0  0  0
  4  2  2  0  0  0
  4  5  1  0  0  0
 11  5  1  0  0  0
  5  6  2  0  0  0
  6  9  1  0  0  0
  6  7  1  0  0  0
  7  8  2  0  0  0
 10  9  1  0  0  0
 11 10  2  0  0  0
 16 11  1  0  0  0
 16 17  1  0  0  0
 17 18  1  0  0  0
 17 22  1  0  0  0
 18 19  1  0  0  0
 20 19  1  0  0  0
 19 21  1  0  0  0
 22 21  1  0  0  0
 21 24  1  0  0  0
 24 25  1  0  0  0
  1 12  1  0  0  0
  3 13  1  0  0  0
  3 14  1  0  0  0
  9 15  1  0  0  0
 20 23  1  0  0  0
 25 26  1  0  0  0
M  END
> <minimizedAffinity>
-8.55466

$$$$
6AQS_IM5_A_302


 26 28  0  0  0  0  0  0  0  0999 V2000
   -5.4548   31.4447    7.2629 N   0  0  0  0  0  0  0  0  0  0  0  0
   -4.9869   32.0149    8.4088 C   0  0  0  0  0  0  0  0  0  0  0  0
   -4.1131   33.0622    8.3012 N   0  0  0  0  0  0  0  0  0  0  0  0
   -5.3697   31.5804    9.6486 N   0  0  0  0  0  0  0  0  0  0  0  0
   -6.2284   30.5271    9.7389 C   0  0  0  0  0  0  0  0  0  0  0  0
   -6.7765   29.8593    8.5505 C   0  0  0  0  0  0  0  0  0  0  0  0
   -6.3148   30.4060    7.2548 C   0  0  0  0  0  0  0  0  0  0  0  0
   -6.7158   29.9184    6.1838 O   0  0  0  0  0  0  0  0  0  0  0  0
   -7.5972   28.8727    8.9648 N   0  0  0  0  0  0  0  0  0  0  0  0
   -7.6483   28.8308   10.3252 C   0  0  0  0  0  0  0  0  0  0  0  0
   -6.8463   29.8304   10.8912 C   0  0  0  0  0  0  0  0  0  0  0  0
   -5.1506   31.8084    6.4001 H   0  0  0  0  0  0  0  0  0  0  0  0
   -3.8332   33.3803    7.4126 H   0  0  0  0  0  0  0  0  0  0  0  0
   -3.7644   33.4976    9.1124 H   0  0  0  0  0  0  0  0  0  0  0  0
   -8.0912   28.2665    8.3666 H   0  0  0  0  0  0  0  0  0  0  0  0
   -6.6492   30.0261   12.3687 C   0  0  0  0  0  0  0  0  0  0  0  0
   -6.5609   28.8985   13.3133 N   0  0  0  0  0  0  0  0  0  0  0  0
   -5.7053   29.2005   14.4787 C   0  0  0  0  0  0  0  0  0  0  0  0
   -6.1940   28.2434   15.5670 C   0  0  0  0  0  0  0  0  0  0  0  0
   -5.4410   27.0229   15.5724 O   0  0  0  0  0  0  0  0  0  0  0  0
   -7.6624   27.9995   15.2509 C   0  0  0  0  0  0  0  0  0  0  0  0
   -7.8604   28.3623   13.7768 C   0  0  0  0  0  0  0  0  0  0  0  0
   -5.5152   26.5933   14.7059 H   0  0  0  0  0  0  0  0  0  0  0  0
   -8.5923   28.8276   16.1261 C   0  0  0  0  0  0  0  0  0  0  0  0
   -8.5900   28.2991   17.4638 O   0  0  0  0  0  0  0  0  0  0  0  0
   -8.8958   27.3787   17.4483 H   0  0  0  0  0  0  0  0  0  0  0  0
  2  1  1  0  0  0
  1  7  1  0  0  0
  3  2  1  0  0  0
  4  2  2  0  0  0
  4  5  1  0  0  0
 11  5  1  0  0  0
  5  6  2  0  0  0
  6  9  1  0  0  0
  6  7  1  0  0  0
  7  8  2  0  0  0
 10  9  1  0  0  0
 11 10  2  0  0  0
 16 11  1  0  0  0
 16 17  1  0  0  0
 17 18  1  0  0  0
 17 22  1  0  0  0
 18 19  1  0  0  0
 20 19  1  0  0  0
 19 21  1  0  0  0
 22 21  1  0  0  0
 21 24  1  0  0  0
 24 25  1  0  0  0
  1 12  1  0  0  0
  3 13  1  0  0  0
  3 14  1  0  0  0
  9 15  1  0  0  0
 20 23  1  0  0  0
 25 26  1  0  0  0
M  END
> <minimizedAffinity>
-8.50675

$$$$
6AQS_IM5_A_302


 26 28  0  0  0  0  0  0  0  0999 V2000
   -5.5686   33.7107    9.5170 N   0  0  0  0  0  0  0  0  0  0  0  0
   -5.4509   33.7879   10.8725 C   0  0  0  0  0  0  0  0  0  0  0  0
   -5.3806   35.0275   11.4471 N   0  0  0  0  0  0  0  0  0  0  0  0
   -5.4114   32.6735   11.6657 N   0  0  0  0  0  0  0  0  0  0  0  0
   -5.4674   31.4466   11.0773 C   0  0  0  0  0  0  0  0  0  0  0  0
   -5.5944   31.2804    9.6230 C   0  0  0  0  0  0  0  0  0  0  0  0
   -5.6413   32.5414    8.8493 C   0  0  0  0  0  0  0  0  0  0  0  0
   -5.7490   32.5197    7.6109 O   0  0  0  0  0  0  0  0  0  0  0  0
   -5.6364   29.9596    9.3537 N   0  0  0  0  0  0  0  0  0  0  0  0
   -5.5557   29.2330   10.5029 C   0  0  0  0  0  0  0  0  0  0  0  0
   -5.4666   30.0693   11.6234 C   0  0  0  0  0  0  0  0  0  0  0  0
   -5.6023   34.5484    9.0008 H   0  0  0  0  0  0  0  0  0  0  0  0
   -5.4085   35.8338   10.8829 H   0  0  0  0  0  0  0  0  0  0  0  0
   -5.3022   35.1132   12.4247 H   0  0  0  0  0  0  0  0  0  0  0  0
   -5.7146   29.5740    8.4513 H   0  0  0  0  0  0  0  0  0  0  0  0
   -5.3200   29.5814   13.0379 C   0  0  0  0  0  0  0  0  0  0  0  0
   -6.4225   29.6360   14.0140 N   0  0  0  0  0  0  0  0  0  0  0  0
   -7.5638   28.7813   13.6288 C   0  0  0  0  0  0  0  0  0  0  0  0
   -8.2832   28.4914   14.9470 C   0  0  0  0  0  0  0  0  0  0  0  0
   -9.3270   29.4422   15.1981 O   0  0  0  0  0  0  0  0  0  0  0  0
   -7.1981   28.5496   16.0124 C   0  0  0  0  0  0  0  0  0  0  0  0
   -6.0382   29.3500   15.4146 C   0  0  0  0  0  0  0  0  0  0  0  0
   -8.9509   30.3359   15.2239 H   0  0  0  0  0  0  0  0  0  0  0  0
   -6.7212   27.1673   16.4347 C   0  0  0  0  0  0  0  0  0  0  0  0
   -5.4883   26.8582   15.7616 O   0  0  0  0  0  0  0  0  0  0  0  0
   -5.6315   26.8711   14.8024 H   0  0  0  0  0  0  0  0  0  0  0  0
  2  1  1  0  0  0
  1  7  1  0  0  0
  3  2  1  0  0  0
  4  2  2  0  0  0
  4  5  1  0  0  0
 11  5  1  0  0  0
  5  6  2  0  0  0
  6  9  1  0  0  0
  6  7  1  0  0  0
  7  8  2  0  0  0
 10  9  1  0  0  0
 11 10  2  0  0  0
 16 11  1  0  0  0
 16 17  1  0  0  0
 17 18  1  0  0  0
 17 22  1  0  0  0
 18 19  1  0  0  0
 20 19  1  0  0  0
 19 21  1  0  0  0
 22 21  1  0  0  0
 21 24  1  0  0  0
 24 25  1  0  0  0
  1 12  1  0  0  0
  3 13  1  0  0  0
  3 14  1  0  0  0
  9 15  1  0  0  0
 20 23  1  0  0  0
 25 26  1  0  0  0
M  END
> <minimizedAffinity>
-8.30946

$$$$
6AQS_IM5_A_302


 26 28  0  0  0  0  0  0  0  0999 V2000
   -5.8294   34.7684   10.5775 N   0  0  0  0  0  0  0  0  0  0  0  0
   -5.7017   34.5345   11.9140 C   0  0  0  0  0  0  0  0  0  0  0  0
   -5.7352   35.6051   12.7650 N   0  0  0  0  0  0  0  0  0  0  0  0
   -5.5523   33.2729   12.4225 N   0  0  0  0  0  0  0  0  0  0  0  0
   -5.5058   32.2191   11.5610 C   0  0  0  0  0  0  0  0  0  0  0  0
   -5.6361   32.3893   10.1075 C   0  0  0  0  0  0  0  0  0  0  0  0
   -5.8057   33.7875    9.6524 C   0  0  0  0  0  0  0  0  0  0  0  0
   -5.9270   34.0485    8.4429 O   0  0  0  0  0  0  0  0  0  0  0  0
   -5.5632   31.1708    9.5342 N   0  0  0  0  0  0  0  0  0  0  0  0
   -5.4030   30.2043   10.4805 C   0  0  0  0  0  0  0  0  0  0  0  0
   -5.3747   30.7578   11.7672 C   0  0  0  0  0  0  0  0  0  0  0  0
   -5.9445   35.6975   10.2730 H   0  0  0  0  0  0  0  0  0  0  0  0
   -5.8424   36.5158   12.4065 H   0  0  0  0  0  0  0  0  0  0  0  0
   -5.6522   35.4650   13.7360 H   0  0  0  0  0  0  0  0  0  0  0  0
   -5.6181   31.0031    8.5657 H   0  0  0  0  0  0  0  0  0  0  0  0
   -5.1667   29.9659   13.0281 C   0  0  0  0  0  0  0  0  0  0  0  0
   -6.1264   28.9490   13.4933 N   0  0  0  0  0  0  0  0  0  0  0  0
   -5.9979   28.6666   14.9374 C   0  0  0  0  0  0  0  0  0  0  0  0
   -7.3651   28.1107   15.3388 C   0  0  0  0  0  0  0  0  0  0  0  0
   -7.3968   26.6793   15.2569 O   0  0  0  0  0  0  0  0  0  0  0  0
   -8.3530   28.7533   14.3761 C   0  0  0  0  0  0  0  0  0  0  0  0
   -7.5434   29.2237   13.1650 C   0  0  0  0  0  0  0  0  0  0  0  0
   -7.1877   26.4025   14.3510 H   0  0  0  0  0  0  0  0  0  0  0  0
   -9.0960   29.9260   15.0001 C   0  0  0  0  0  0  0  0  0  0  0  0
   -9.9972   30.4929   14.0331 O   0  0  0  0  0  0  0  0  0  0  0  0
   -9.4934   30.8023   13.2641 H   0  0  0  0  0  0  0  0  0  0  0  0
  2  1  1  0  0  0
  1  7  1  0  0  0
  3  2  1  0  0  0
  4  2  2  0  0  0
  4  5  1  0  0  0
 11  5  1  0  0  0
  5  6  2  0  0  0
  6  9  1  0  0  0
  6  7  1  0  0  0
  7  8  2  0  0  0
 10  9  1  0  0  0
 11 10  2  0  0  0
 16 11  1  0  0  0
 16 17  1  0  0  0
 17 18  1  0  0  0
 17 22  1  0  0  0
 18 19  1  0  0  0
 20 19  1  0  0  0
 19 21  1  0  0  0
 22 21  1  0  0  0
 21 24  1  0  0  0
 24 25  1  0  0  0
  1 12  1  0  0  0
  3 13  1  0  0  0
  3 14  1  0  0  0
  9 15  1  0  0  0
 20 23  1  0  0  0
 25 26  1  0  0  0
M  END
> <minimizedAffinity>
-8.11251

$$$$
6AQS_IM5_A_302


 26 28  0  0  0  0  0  0  0  0999 V2000
   -8.3010   28.8332    7.9186 N   0  0  0  0  0  0  0  0  0  0  0  0
   -8.4062   28.0064    8.9969 C   0  0  0  0  0  0  0  0  0  0  0  0
   -9.2842   26.9595    8.9271 N   0  0  0  0  0  0  0  0  0  0  0  0
   -7.6600   28.1867   10.1296 N   0  0  0  0  0  0  0  0  0  0  0  0
   -6.8014   29.2422   10.1891 C   0  0  0  0  0  0  0  0  0  0  0  0
   -6.6315   30.1777    9.0690 C   0  0  0  0  0  0  0  0  0  0  0  0
   -7.4712   29.8957    7.8832 C   0  0  0  0  0  0  0  0  0  0  0  0
   -7.4080   30.6222    6.8764 O   0  0  0  0  0  0  0  0  0  0  0  0
   -5.7117   31.0971    9.4261 N   0  0  0  0  0  0  0  0  0  0  0  0
   -5.2498   30.8502   10.6834 C   0  0  0  0  0  0  0  0  0  0  0  0
   -5.8546   29.7100   11.2282 C   0  0  0  0  0  0  0  0  0  0  0  0
   -8.8571   28.6459    7.1281 H   0  0  0  0  0  0  0  0  0  0  0  0
   -9.8245   26.8234    8.1154 H   0  0  0  0  0  0  0  0  0  0  0  0
   -9.3757   26.3423    9.6886 H   0  0  0  0  0  0  0  0  0  0  0  0
   -5.4151   31.8434    8.8567 H   0  0  0  0  0  0  0  0  0  0  0  0
   -5.5965   29.1926   12.6160 C   0  0  0  0  0  0  0  0  0  0  0  0
   -6.5109   29.4523   13.7420 N   0  0  0  0  0  0  0  0  0  0  0  0
   -7.7486   28.6500   13.6641 C   0  0  0  0  0  0  0  0  0  0  0  0
   -8.2474   28.5801   15.1082 C   0  0  0  0  0  0  0  0  0  0  0  0
   -9.1764   29.6338   15.3966 O   0  0  0  0  0  0  0  0  0  0  0  0
   -6.9947   28.6812   15.9662 C   0  0  0  0  0  0  0  0  0  0  0  0
   -5.9099   29.3089   15.0871 C   0  0  0  0  0  0  0  0  0  0  0  0
   -8.7506   30.4916   15.2421 H   0  0  0  0  0  0  0  0  0  0  0  0
   -6.5330   27.3271   16.4855 C   0  0  0  0  0  0  0  0  0  0  0  0
   -5.4191   26.8662   15.7010 O   0  0  0  0  0  0  0  0  0  0  0  0
   -5.6900   26.7809   14.7735 H   0  0  0  0  0  0  0  0  0  0  0  0
  2  1  1  0  0  0
  1  7  1  0  0  0
  3  2  1  0  0  0
  4  2  2  0  0  0
  4  5  1  0  0  0
 11  5  1  0  0  0
  5  6  2  0  0  0
  6  9  1  0  0  0
  6  7  1  0  0  0
  7  8  2  0  0  0
 10  9  1  0  0  0
 11 10  2  0  0  0
 16 11  1  0  0  0
 16 17  1  0  0  0
 17 18  1  0  0  0
 17 22  1  0  0  0
 18 19  1  0  0  0
 20 19  1  0  0  0
 19 21  1  0  0  0
 22 21  1  0  0  0
 21 24  1  0  0  0
 24 25  1  0  0  0
  1 12  1  0  0  0
  3 13  1  0  0  0
  3 14  1  0  0  0
  9 15  1  0  0  0
 20 23  1  0  0  0
 25 26  1  0  0  0
M  END
> <minimizedAffinity>
-7.87794

$$$$
6AQS_IM5_A_302


 26 28  0  0  0  0  0  0  0  0999 V2000
   -5.9818   35.7766   11.0574 N   0  0  0  0  0  0  0  0  0  0  0  0
   -5.7417   35.1923   12.2649 C   0  0  0  0  0  0  0  0  0  0  0  0
   -5.7529   35.9835   13.3810 N   0  0  0  0  0  0  0  0  0  0  0  0
   -5.5022   33.8510   12.3913 N   0  0  0  0  0  0  0  0  0  0  0  0
   -5.4795   33.0796   11.2690 C   0  0  0  0  0  0  0  0  0  0  0  0
   -5.7286   33.6348    9.9318 C   0  0  0  0  0  0  0  0  0  0  0  0
   -5.9897   35.0914    9.8959 C   0  0  0  0  0  0  0  0  0  0  0  0
   -6.2146   35.6671    8.8173 O   0  0  0  0  0  0  0  0  0  0  0  0
   -5.6507   32.6278    9.0382 N   0  0  0  0  0  0  0  0  0  0  0  0
   -5.3786   31.4498    9.6655 C   0  0  0  0  0  0  0  0  0  0  0  0
   -5.2735   31.6287   11.0511 C   0  0  0  0  0  0  0  0  0  0  0  0
   -6.1578   36.7449   11.0317 H   0  0  0  0  0  0  0  0  0  0  0  0
   -5.9245   36.9493   13.2980 H   0  0  0  0  0  0  0  0  0  0  0  0
   -5.5895   35.5869   14.2671 H   0  0  0  0  0  0  0  0  0  0  0  0
   -5.7734   32.7299    8.0667 H   0  0  0  0  0  0  0  0  0  0  0  0
   -4.9366   30.5346   12.0256 C   0  0  0  0  0  0  0  0  0  0  0  0
   -5.8234   29.3815   12.2611 N   0  0  0  0  0  0  0  0  0  0  0  0
   -7.1491   29.7812   12.7753 C   0  0  0  0  0  0  0  0  0  0  0  0
   -8.0701   28.6215   12.3933 C   0  0  0  0  0  0  0  0  0  0  0  0
   -8.1653   27.6544   13.4479 O   0  0  0  0  0  0  0  0  0  0  0  0
   -7.4569   28.0257   11.1345 C   0  0  0  0  0  0  0  0  0  0  0  0
   -5.9925   28.4711   11.1062 C   0  0  0  0  0  0  0  0  0  0  0  0
   -7.2813   27.3120   13.6533 H   0  0  0  0  0  0  0  0  0  0  0  0
   -8.1693   28.4790    9.8682 C   0  0  0  0  0  0  0  0  0  0  0  0
   -9.5908   28.4697   10.0873 O   0  0  0  0  0  0  0  0  0  0  0  0
   -9.8770   27.5713   10.3148 H   0  0  0  0  0  0  0  0  0  0  0  0
  2  1  1  0  0  0
  1  7  1  0  0  0
  3  2  1  0  0  0
  4  2  2  0  0  0
  4  5  1  0  0  0
 11  5  1  0  0  0
  5  6  2  0  0  0
  6  9  1  0  0  0
  6  7  1  0  0  0
  7  8  2  0  0  0
 10  9  1  0  0  0
 11 10  2  0  0  0
 16 11  1  0  0  0
 16 17  1  0  0  0
 17 18  1  0  0  0
 17 22  1  0  0  0
 18 19  1  0  0  0
 20 19  1  0  0  0
 19 21  1  0  0  0
 22 21  1  0  0  0
 21 24  1  0  0  0
 24 25  1  0  0  0
  1 12  1  0  0  0
  3 13  1  0  0  0
  3 14  1  0  0  0
  9 15  1  0  0  0
 20 23  1  0  0  0
 25 26  1  0  0  0
M  END
> <minimizedAffinity>
-7.85267

$$$$
6AQS_IM5_A_302


 26 28  0  0  0  0  0  0  0  0999 V2000
   -8.5729   28.7802   15.4199 N   0  0  0  0  0  0  0  0  0  0  0  0
   -7.2271   28.7822   15.2058 C   0  0  0  0  0  0  0  0  0  0  0  0
   -6.3983   28.8230   16.2935 N   0  0  0  0  0  0  0  0  0  0  0  0
   -6.6885   28.7351   13.9487 N   0  0  0  0  0  0  0  0  0  0  0  0
   -7.5271   28.7099   12.8759 C   0  0  0  0  0  0  0  0  0  0  0  0
   -8.9888   28.7058   13.0241 C   0  0  0  0  0  0  0  0  0  0  0  0
   -9.4778   28.7462   14.4206 C   0  0  0  0  0  0  0  0  0  0  0  0
  -10.6970   28.7449   14.6639 O   0  0  0  0  0  0  0  0  0  0  0  0
   -9.5354   28.6655   11.7919 N   0  0  0  0  0  0  0  0  0  0  0  0
   -8.5644   28.6351   10.8372 C   0  0  0  0  0  0  0  0  0  0  0  0
   -7.2882   28.6412   11.4153 C   0  0  0  0  0  0  0  0  0  0  0  0
   -8.9001   28.8048   16.3481 H   0  0  0  0  0  0  0  0  0  0  0  0
   -6.7784   28.8570   17.2010 H   0  0  0  0  0  0  0  0  0  0  0  0
   -5.4217   28.8185   16.1687 H   0  0  0  0  0  0  0  0  0  0  0  0
  -10.5025   28.6589   11.6079 H   0  0  0  0  0  0  0  0  0  0  0  0
   -6.0028   28.6577   10.6358 C   0  0  0  0  0  0  0  0  0  0  0  0
   -5.2509   29.8974   10.3723 N   0  0  0  0  0  0  0  0  0  0  0  0
   -5.9935   30.8386    9.5096 C   0  0  0  0  0  0  0  0  0  0  0  0
   -5.3904   32.2065    9.8327 C   0  0  0  0  0  0  0  0  0  0  0  0
   -4.3174   32.5338    8.9393 O   0  0  0  0  0  0  0  0  0  0  0  0
   -4.9127   32.0994   11.2735 C   0  0  0  0  0  0  0  0  0  0  0  0
   -4.7637   30.6063   11.5770 C   0  0  0  0  0  0  0  0  0  0  0  0
   -3.6283   31.8536    8.9988 H   0  0  0  0  0  0  0  0  0  0  0  0
   -5.8796   32.7424   12.2575 C   0  0  0  0  0  0  0  0  0  0  0  0
   -6.3868   31.7410   13.1566 O   0  0  0  0  0  0  0  0  0  0  0  0
   -6.8501   31.0560   12.6496 H   0  0  0  0  0  0  0  0  0  0  0  0
  2  1  1  0  0  0
  1  7  1  0  0  0
  3  2  1  0  0  0
  4  2  2  0  0  0
  4  5  1  0  0  0
 11  5  1  0  0  0
  5  6  2  0  0  0
  6  9  1  0  0  0
  6  7  1  0  0  0
  7  8  2  0  0  0
 10  9  1  0  0  0
 11 10  2  0  0  0
 16 11  1  0  0  0
 16 17  1  0  0  0
 17 18  1  0  0  0
 17 22  1  0  0  0
 18 19  1  0  0  0
 20 19  1  0  0  0
 19 21  1  0  0  0
 22 21  1  0  0  0
 21 24  1  0  0  0
 24 25  1  0  0  0
  1 12  1  0  0  0
  3 13  1  0  0  0
  3 14  1  0  0  0
  9 15  1  0  0  0
 20 23  1  0  0  0
 25 26  1  0  0  0
M  END
> <minimizedAffinity>
-7.78158

$$$$
6AQS_IM5_A_302


 26 28  0  0  0  0  0  0  0  0999 V2000
   -7.7696   28.1086   12.9415 N   0  0  0  0  0  0  0  0  0  0  0  0
   -7.3283   29.1777   13.6622 C   0  0  0  0  0  0  0  0  0  0  0  0
   -7.6786   29.2580   14.9823 N   0  0  0  0  0  0  0  0  0  0  0  0
   -6.5461   30.1560   13.1112 N   0  0  0  0  0  0  0  0  0  0  0  0
   -6.2186   30.0692   11.7921 C   0  0  0  0  0  0  0  0  0  0  0  0
   -6.6554   28.9484   10.9486 C   0  0  0  0  0  0  0  0  0  0  0  0
   -7.4869   27.9340   11.6345 C   0  0  0  0  0  0  0  0  0  0  0  0
   -7.9110   26.9416   11.0174 O   0  0  0  0  0  0  0  0  0  0  0  0
   -6.1647   29.1413    9.7073 N   0  0  0  0  0  0  0  0  0  0  0  0
   -5.4333   30.2890    9.6537 C   0  0  0  0  0  0  0  0  0  0  0  0
   -5.3955   30.9220   10.9030 C   0  0  0  0  0  0  0  0  0  0  0  0
   -8.3209   27.4317   13.3966 H   0  0  0  0  0  0  0  0  0  0  0  0
   -8.2411   28.5580   15.3858 H   0  0  0  0  0  0  0  0  0  0  0  0
   -7.3681   30.0158   15.5288 H   0  0  0  0  0  0  0  0  0  0  0  0
   -6.3143   28.5361    8.9454 H   0  0  0  0  0  0  0  0  0  0  0  0
   -4.7087   32.2323   11.1708 C   0  0  0  0  0  0  0  0  0  0  0  0
   -5.4255   33.4131   11.6838 N   0  0  0  0  0  0  0  0  0  0  0  0
   -4.5237   34.3861   12.3334 C   0  0  0  0  0  0  0  0  0  0  0  0
   -5.2743   35.7159   12.2470 C   0  0  0  0  0  0  0  0  0  0  0  0
   -6.0632   35.9531   13.4209 O   0  0  0  0  0  0  0  0  0  0  0  0
   -6.1382   35.6038   10.9993 C   0  0  0  0  0  0  0  0  0  0  0  0
   -6.2791   34.1100   10.6955 C   0  0  0  0  0  0  0  0  0  0  0  0
   -6.6986   35.2292   13.5352 H   0  0  0  0  0  0  0  0  0  0  0  0
   -5.5344   36.3290    9.8052 C   0  0  0  0  0  0  0  0  0  0  0  0
   -6.0092   37.6864    9.7773 O   0  0  0  0  0  0  0  0  0  0  0  0
   -6.9762   37.6892    9.7015 H   0  0  0  0  0  0  0  0  0  0  0  0
  2  1  1  0  0  0
  1  7  1  0  0  0
  3  2  1  0  0  0
  4  2  2  0  0  0
  4  5  1  0  0  0
 11  5  1  0  0  0
  5  6  2  0  0  0
  6  9  1  0  0  0
  6  7  1  0  0  0
  7  8  2  0  0  0
 10  9  1  0  0  0
 11 10  2  0  0  0
 16 11  1  0  0  0
 16 17  1  0  0  0
 17 18  1  0  0  0
 17 22  1  0  0  0
 18 19  1  0  0  0
 20 19  1  0  0  0
 19 21  1  0  0  0
 22 21  1  0  0  0
 21 24  1  0  0  0
 24 25  1  0  0  0
  1 12  1  0  0  0
  3 13  1  0  0  0
  3 14  1  0  0  0
  9 15  1  0  0  0
 20 23  1  0  0  0
 25 26  1  0  0  0
M  END
> <minimizedAffinity>
-7.59934

$$$$
6AQS_IM5_A_302


 26 28  0  0  0  0  0  0  0  0999 V2000
   -7.4947   27.1410   17.1716 N   0  0  0  0  0  0  0  0  0  0  0  0
   -6.9810   26.4734   16.1003 C   0  0  0  0  0  0  0  0  0  0  0  0
   -6.1926   25.3803   16.3356 N   0  0  0  0  0  0  0  0  0  0  0  0
   -7.2368   26.8558   14.8116 N   0  0  0  0  0  0  0  0  0  0  0  0
   -8.0112   27.9549   14.5945 C   0  0  0  0  0  0  0  0  0  0  0  0
   -8.6012   28.7275   15.6961 C   0  0  0  0  0  0  0  0  0  0  0  0
   -8.2789   28.2316   17.0530 C   0  0  0  0  0  0  0  0  0  0  0  0
   -8.7260   28.8082   18.0596 O   0  0  0  0  0  0  0  0  0  0  0  0
   -9.3176   29.7381   15.1632 N   0  0  0  0  0  0  0  0  0  0  0  0
   -9.2614   29.7007   13.8029 C   0  0  0  0  0  0  0  0  0  0  0  0
   -8.4895   28.6190   13.3594 C   0  0  0  0  0  0  0  0  0  0  0  0
   -7.2833   26.8114   18.0749 H   0  0  0  0  0  0  0  0  0  0  0  0
   -6.0041   25.0991   17.2601 H   0  0  0  0  0  0  0  0  0  0  0  0
   -5.8137   24.8749   15.5804 H   0  0  0  0  0  0  0  0  0  0  0  0
   -9.8127   30.4101   15.6853 H   0  0  0  0  0  0  0  0  0  0  0  0
   -8.1939   28.3218   11.9156 C   0  0  0  0  0  0  0  0  0  0  0  0
   -6.9160   28.6830   11.2770 N   0  0  0  0  0  0  0  0  0  0  0  0
   -7.1027   29.4493   10.0282 C   0  0  0  0  0  0  0  0  0  0  0  0
   -5.7916   30.2174    9.8542 C   0  0  0  0  0  0  0  0  0  0  0  0
   -4.8586   29.4907    9.0431 O   0  0  0  0  0  0  0  0  0  0  0  0
   -5.2660   30.4303   11.2664 C   0  0  0  0  0  0  0  0  0  0  0  0
   -5.9516   29.3868   12.1521 C   0  0  0  0  0  0  0  0  0  0  0  0
   -4.6778   28.6294    9.4510 H   0  0  0  0  0  0  0  0  0  0  0  0
   -5.5492   31.8316   11.7886 C   0  0  0  0  0  0  0  0  0  0  0  0
   -4.4825   32.7142   11.3986 O   0  0  0  0  0  0  0  0  0  0  0  0
   -3.6457   32.3941   11.7704 H   0  0  0  0  0  0  0  0  0  0  0  0
  2  1  1  0  0  0
  1  7  1  0  0  0
  3  2  1  0  0  0
  4  2  2  0  0  0
  4  5  1  0  0  0
 11  5  1  0  0  0
  5  6  2  0  0  0
  6  9  1  0  0  0
  6  7  1  0  0  0
  7  8  2  0  0  0
 10  9  1  0  0  0
 11 10  2  0  0  0
 16 11  1  0  0  0
 16 17  1  0  0  0
 17 18  1  0  0  0
 17 22  1  0  0  0
 18 19  1  0  0  0
 20 19  1  0  0  0
 19 21  1  0  0  0
 22 21  1  0  0  0
 21 24  1  0  0  0
 24 25  1  0  0  0
  1 12  1  0  0  0
  3 13  1  0  0  0
  3 14  1  0  0  0
  9 15  1  0  0  0
 20 23  1  0  0  0
 25 26  1  0  0  0
M  END
> <minimizedAffinity>
-7.57571

$$$$
