2Q55_MU0_B_200


 52 56  0  0  0  0  0  0  0  0999 V2000
   20.1803   29.6296   15.4106 C   0  0  0  0  0  0  0  0  0  0  0  0
   19.9302   29.4188   16.8074 O   0  0  0  0  0  0  0  0  0  0  0  0
   19.1203   29.8864   17.0650 H   0  0  0  0  0  0  0  0  0  0  0  0
   20.4340   31.1146   15.1322 C   0  0  0  0  0  0  0  0  0  0  0  0
   18.6039   32.4109   13.5088 O   0  0  0  0  0  0  0  0  0  0  0  0
   18.4548   32.4974   14.7335 C   0  0  0  0  0  0  0  0  0  0  0  0
   19.3173   31.9403   15.5949 N   0  0  0  0  0  0  0  0  0  0  0  0
   19.1972   32.0897   16.5606 H   0  0  0  0  0  0  0  0  0  0  0  0
   17.2236   33.2240   15.2615 C   0  0  0  0  0  0  0  0  0  0  0  0
   16.7157   32.7484   16.5278 O   0  0  0  0  0  0  0  0  0  0  0  0
   16.2881   33.9188   17.2567 C   0  0  0  0  0  0  0  0  0  0  0  0
   15.6396   33.8896   18.2901 O   0  0  0  0  0  0  0  0  0  0  0  0
   16.7075   35.0069   16.6344 N   0  0  0  0  0  0  0  0  0  0  0  0
   17.4691   34.7298   15.4250 C   0  0  0  0  0  0  0  0  0  0  0  0
   16.5780   36.2868   17.2099 C   0  0  0  0  0  0  0  0  0  0  0  0
   15.3358   36.9073   17.2817 C   0  0  0  0  0  0  0  0  0  0  0  0
   15.2208   38.1656   17.8627 C   0  0  0  0  0  0  0  0  0  0  0  0
   16.3374   38.8038   18.3819 C   0  0  0  0  0  0  0  0  0  0  0  0
   17.5741   38.1807   18.3184 C   0  0  0  0  0  0  0  0  0  0  0  0
   17.6932   36.9268   17.7320 C   0  0  0  0  0  0  0  0  0  0  0  0
   21.7490   31.5336   15.7898 C   0  0  0  0  0  0  0  0  0  0  0  0
   21.8984   33.0298   15.7869 C   0  0  0  0  0  0  0  0  0  0  0  0
   21.7671   33.7364   16.9762 C   0  0  0  0  0  0  0  0  0  0  0  0
   21.9032   35.1118   16.9719 C   0  0  0  0  0  0  0  0  0  0  0  0
   22.1711   33.7108   14.5933 C   0  0  0  0  0  0  0  0  0  0  0  0
   22.3102   35.0990   14.5935 C   0  0  0  0  0  0  0  0  0  0  0  0
   22.1774   35.7983   15.7864 C   0  0  0  0  0  0  0  0  0  0  0  0
   18.9705   29.0566   14.6744 C   0  0  0  0  0  0  0  0  0  0  0  0
   19.2151   28.6810   13.2183 C   0  0  0  0  0  0  0  0  0  0  0  0
   20.5364   28.1021   13.0286 N   0  0  0  0  0  0  0  0  0  0  0  0
   21.4120   28.5105   12.1029 C   0  0  0  0  0  0  0  0  0  0  0  0
   21.2511   29.4491   11.3340 O   0  0  0  0  0  0  0  0  0  0  0  0
   20.8036   27.3617   13.6199 H   0  0  0  0  0  0  0  0  0  0  0  0
   22.6514   27.6529   12.0192 C   0  0  0  0  0  0  0  0  0  0  0  0
   22.6632   26.8182   10.7945 N   0  0  0  0  0  0  0  0  0  0  0  0
   23.0742   27.4856    9.5569 C   0  0  0  0  0  0  0  0  0  0  0  0
   23.7847   26.4164    8.7418 C   0  0  0  0  0  0  0  0  0  0  0  0
   22.2297   25.5513   10.8696 C   0  0  0  0  0  0  0  0  0  0  0  0
   21.7677   25.0998   11.9109 O   0  0  0  0  0  0  0  0  0  0  0  0
   22.2833   24.7958    9.7710 N   0  0  0  0  0  0  0  0  0  0  0  0
   22.8088   25.2699    8.5036 C   0  0  0  0  0  0  0  0  0  0  0  0
   21.9500   23.8709    9.8226 H   0  0  0  0  0  0  0  0  0  0  0  0
   23.9140   28.5131   12.1401 C   0  0  0  0  0  0  0  0  0  0  0  0
   23.7473   29.4937   13.2976 C   0  0  0  0  0  0  0  0  0  0  0  0
   25.1367   27.6255   12.3047 C   0  0  0  0  0  0  0  0  0  0  0  0
   18.1317   27.6621   12.8810 C   0  0  0  0  0  0  0  0  0  0  0  0
   18.1316   27.2718   11.4288 C   0  0  0  0  0  0  0  0  0  0  0  0
   18.4382   25.9714   11.0449 C   0  0  0  0  0  0  0  0  0  0  0  0
   18.4205   25.6296    9.6989 C   0  0  0  0  0  0  0  0  0  0  0  0
   18.0855   26.5792    8.7456 C   0  0  0  0  0  0  0  0  0  0  0  0
   17.7645   27.8686    9.1403 C   0  0  0  0  0  0  0  0  0  0  0  0
   17.7939   28.2156   10.4831 C   0  0  0  0  0  0  0  0  0  0  0  0
  5  6  2  0  0  0
  6  9  1  0  0  0
  6  7  1  0  0  0
  9 14  1  0  0  0
  9 10  1  0  0  0
 10 11  1  0  0  0
 11 13  1  0  0  0
 11 12  2  0  0  0
 13 14  1  0  0  0
 13 15  1  0  0  0
 15 20  2  0  0  0
 15 16  1  0  0  0
 16 17  2  0  0  0
 17 18  1  0  0  0
 18 19  2  0  0  0
 19 20  1  0  0  0
  7  4  1  0  0  0
  4  1  1  0  0  0
  4 21  1  0  0  0
 21 22  1  0  0  0
 22 23  1  0  0  0
 22 25  2  0  0  0
 23 24  2  0  0  0
 24 27  1  0  0  0
 25 26  1  0  0  0
 26 27  2  0  0  0
  1 28  1  0  0  0
  1  2  1  0  0  0
 28 29  1  0  0  0
 29 46  1  0  0  0
 29 30  1  0  0  0
 30 31  1  0  0  0
 31 32  2  0  0  0
 31 34  1  0  0  0
 34 35  1  0  0  0
 34 43  1  0  0  0
 43 45  1  0  0  0
 43 44  1  0  0  0
 35 36  1  0  0  0
 35 38  1  0  0  0
 36 37  1  0  0  0
 37 41  1  0  0  0
 38 40  1  0  0  0
 38 39  2  0  0  0
 40 41  1  0  0  0
 46 47  1  0  0  0
 47 52  2  0  0  0
 47 48  1  0  0  0
 48 49  2  0  0  0
 49 50  1  0  0  0
 50 51  2  0  0  0
 51 52  1  0  0  0
  7  8  1  0  0  0
  2  3  1  0  0  0
 30 33  1  0  0  0
 40 42  1  0  0  0
M  END
> <minimizedAffinity>
-11.02479

$$$$
2Q55_MU0_B_200


 52 56  0  0  0  0  0  0  0  0999 V2000
   19.8568   29.5987   15.3981 C   0  0  0  0  0  0  0  0  0  0  0  0
   20.8062   28.5242   15.4460 O   0  0  0  0  0  0  0  0  0  0  0  0
   21.7027   28.8800   15.3436 H   0  0  0  0  0  0  0  0  0  0  0  0
   19.8940   30.2828   14.0279 C   0  0  0  0  0  0  0  0  0  0  0  0
   22.4779   31.1910   13.6234 O   0  0  0  0  0  0  0  0  0  0  0  0
   22.1331   30.1512   13.0493 C   0  0  0  0  0  0  0  0  0  0  0  0
   20.8891   29.6628   13.1514 N   0  0  0  0  0  0  0  0  0  0  0  0
   20.6390   28.8694   12.6250 H   0  0  0  0  0  0  0  0  0  0  0  0
   23.1789   29.3908   12.2427 C   0  0  0  0  0  0  0  0  0  0  0  0
   23.8175   28.2922   12.9306 O   0  0  0  0  0  0  0  0  0  0  0  0
   23.9853   27.2452   11.9510 C   0  0  0  0  0  0  0  0  0  0  0  0
   24.6517   26.2377   12.1248 O   0  0  0  0  0  0  0  0  0  0  0  0
   23.3101   27.5495   10.8561 N   0  0  0  0  0  0  0  0  0  0  0  0
   22.5990   28.8169   10.9431 C   0  0  0  0  0  0  0  0  0  0  0  0
   23.1583   26.6302    9.7988 C   0  0  0  0  0  0  0  0  0  0  0  0
   22.1140   25.7122    9.8046 C   0  0  0  0  0  0  0  0  0  0  0  0
   21.9695   24.8184    8.7490 C   0  0  0  0  0  0  0  0  0  0  0  0
   22.8556   24.8426    7.6823 C   0  0  0  0  0  0  0  0  0  0  0  0
   23.8911   25.7642    7.6726 C   0  0  0  0  0  0  0  0  0  0  0  0
   24.0422   26.6535    8.7293 C   0  0  0  0  0  0  0  0  0  0  0  0
   18.4982   30.2418   13.4056 C   0  0  0  0  0  0  0  0  0  0  0  0
   18.3563   29.0644   12.4813 C   0  0  0  0  0  0  0  0  0  0  0  0
   18.3245   27.7780   13.0060 C   0  0  0  0  0  0  0  0  0  0  0  0
   18.1954   26.6966   12.1551 C   0  0  0  0  0  0  0  0  0  0  0  0
   18.2538   29.2599   11.0977 C   0  0  0  0  0  0  0  0  0  0  0  0
   18.1212   28.1657   10.2424 C   0  0  0  0  0  0  0  0  0  0  0  0
   18.0904   26.8829   10.7745 C   0  0  0  0  0  0  0  0  0  0  0  0
   20.2059   30.5221   16.5641 C   0  0  0  0  0  0  0  0  0  0  0  0
   20.1819   32.0110   16.2423 C   0  0  0  0  0  0  0  0  0  0  0  0
   19.0563   32.6788   16.8778 N   0  0  0  0  0  0  0  0  0  0  0  0
   18.1987   33.4830   16.2388 C   0  0  0  0  0  0  0  0  0  0  0  0
   18.2056   33.7233   15.0387 O   0  0  0  0  0  0  0  0  0  0  0  0
   18.9165   32.5293   17.8408 H   0  0  0  0  0  0  0  0  0  0  0  0
   17.2079   34.1627   17.1525 C   0  0  0  0  0  0  0  0  0  0  0  0
   17.5624   35.5817   17.3929 N   0  0  0  0  0  0  0  0  0  0  0  0
   17.0911   36.5471   16.3969 C   0  0  0  0  0  0  0  0  0  0  0  0
   16.8127   37.8231   17.1759 C   0  0  0  0  0  0  0  0  0  0  0  0
   18.3444   35.8859   18.4390 C   0  0  0  0  0  0  0  0  0  0  0  0
   18.8185   35.0097   19.1524 O   0  0  0  0  0  0  0  0  0  0  0  0
   18.6235   37.1701   18.6707 N   0  0  0  0  0  0  0  0  0  0  0  0
   18.1041   38.2565   17.8602 C   0  0  0  0  0  0  0  0  0  0  0  0
   19.2108   37.3917   19.4291 H   0  0  0  0  0  0  0  0  0  0  0  0
   15.7815   34.0106   16.6130 C   0  0  0  0  0  0  0  0  0  0  0  0
   15.5433   32.5551   16.2205 C   0  0  0  0  0  0  0  0  0  0  0  0
   14.7785   34.5041   17.6427 C   0  0  0  0  0  0  0  0  0  0  0  0
   21.5004   32.5573   16.7797 C   0  0  0  0  0  0  0  0  0  0  0  0
   21.6912   34.0181   16.4781 C   0  0  0  0  0  0  0  0  0  0  0  0
   21.7474   34.4685   15.1641 C   0  0  0  0  0  0  0  0  0  0  0  0
   21.9123   35.8236   14.9083 C   0  0  0  0  0  0  0  0  0  0  0  0
   22.0068   36.7224   15.9599 C   0  0  0  0  0  0  0  0  0  0  0  0
   21.9322   36.2650   17.2663 C   0  0  0  0  0  0  0  0  0  0  0  0
   21.7803   34.9106   17.5244 C   0  0  0  0  0  0  0  0  0  0  0  0
  5  6  2  0  0  0
  6  9  1  0  0  0
  6  7  1  0  0  0
  9 14  1  0  0  0
  9 10  1  0  0  0
 10 11  1  0  0  0
 11 13  1  0  0  0
 11 12  2  0  0  0
 13 14  1  0  0  0
 13 15  1  0  0  0
 15 20  2  0  0  0
 15 16  1  0  0  0
 16 17  2  0  0  0
 17 18  1  0  0  0
 18 19  2  0  0  0
 19 20  1  0  0  0
  7  4  1  0  0  0
  4  1  1  0  0  0
  4 21  1  0  0  0
 21 22  1  0  0  0
 22 23  1  0  0  0
 22 25  2  0  0  0
 23 24  2  0  0  0
 24 27  1  0  0  0
 25 26  1  0  0  0
 26 27  2  0  0  0
  1 28  1  0  0  0
  1  2  1  0  0  0
 28 29  1  0  0  0
 29 46  1  0  0  0
 29 30  1  0  0  0
 30 31  1  0  0  0
 31 32  2  0  0  0
 31 34  1  0  0  0
 34 35  1  0  0  0
 34 43  1  0  0  0
 43 45  1  0  0  0
 43 44  1  0  0  0
 35 36  1  0  0  0
 35 38  1  0  0  0
 36 37  1  0  0  0
 37 41  1  0  0  0
 38 40  1  0  0  0
 38 39  2  0  0  0
 40 41  1  0  0  0
 46 47  1  0  0  0
 47 52  2  0  0  0
 47 48  1  0  0  0
 48 49  2  0  0  0
 49 50  1  0  0  0
 50 51  2  0  0  0
 51 52  1  0  0  0
  7  8  1  0  0  0
  2  3  1  0  0  0
 30 33  1  0  0  0
 40 42  1  0  0  0
M  END
> <minimizedAffinity>
-10.74950

$$$$
2Q55_MU0_B_200


 52 56  0  0  0  0  0  0  0  0999 V2000
   20.3264   30.4556   15.0366 C   0  0  0  0  0  0  0  0  0  0  0  0
   21.6381   29.9040   15.2196 O   0  0  0  0  0  0  0  0  0  0  0  0
   21.6123   29.2345   15.9211 H   0  0  0  0  0  0  0  0  0  0  0  0
   19.8707   31.1808   16.3068 C   0  0  0  0  0  0  0  0  0  0  0  0
   22.3065   31.9724   17.3582 O   0  0  0  0  0  0  0  0  0  0  0  0
   21.5911   32.8376   16.8393 C   0  0  0  0  0  0  0  0  0  0  0  0
   20.3778   32.5535   16.3458 N   0  0  0  0  0  0  0  0  0  0  0  0
   19.8150   33.2843   16.0019 H   0  0  0  0  0  0  0  0  0  0  0  0
   22.1397   34.2549   16.7251 C   0  0  0  0  0  0  0  0  0  0  0  0
   22.0059   34.8710   15.4250 O   0  0  0  0  0  0  0  0  0  0  0  0
   21.6852   36.2577   15.6664 C   0  0  0  0  0  0  0  0  0  0  0  0
   21.6788   37.1243   14.8072 O   0  0  0  0  0  0  0  0  0  0  0  0
   21.4031   36.4317   16.9460 N   0  0  0  0  0  0  0  0  0  0  0  0
   21.4847   35.2093   17.7323 C   0  0  0  0  0  0  0  0  0  0  0  0
   20.8929   37.6515   17.4337 C   0  0  0  0  0  0  0  0  0  0  0  0
   21.7510   38.6927   17.7701 C   0  0  0  0  0  0  0  0  0  0  0  0
   21.2331   39.8950   18.2393 C   0  0  0  0  0  0  0  0  0  0  0  0
   19.8626   40.0677   18.3648 C   0  0  0  0  0  0  0  0  0  0  0  0
   19.0073   39.0327   18.0205 C   0  0  0  0  0  0  0  0  0  0  0  0
   19.5221   37.8278   17.5584 C   0  0  0  0  0  0  0  0  0  0  0  0
   18.3444   31.1464   16.3872 C   0  0  0  0  0  0  0  0  0  0  0  0
   17.7543   32.4638   15.9666 C   0  0  0  0  0  0  0  0  0  0  0  0
   17.3894   33.3938   16.9325 C   0  0  0  0  0  0  0  0  0  0  0  0
   16.8459   34.6038   16.5445 C   0  0  0  0  0  0  0  0  0  0  0  0
   17.5744   32.7566   14.6083 C   0  0  0  0  0  0  0  0  0  0  0  0
   17.0276   33.9801   14.2206 C   0  0  0  0  0  0  0  0  0  0  0  0
   16.6651   34.9045   15.1921 C   0  0  0  0  0  0  0  0  0  0  0  0
   19.4299   29.2865   14.6323 C   0  0  0  0  0  0  0  0  0  0  0  0
   19.5458   28.8533   13.1762 C   0  0  0  0  0  0  0  0  0  0  0  0
   20.7878   28.1376   12.9270 N   0  0  0  0  0  0  0  0  0  0  0  0
   21.7257   28.5357   12.0597 C   0  0  0  0  0  0  0  0  0  0  0  0
   21.6986   29.5692   11.4045 O   0  0  0  0  0  0  0  0  0  0  0  0
   20.9487   27.3063   13.4293 H   0  0  0  0  0  0  0  0  0  0  0  0
   22.8496   27.5436   11.8828 C   0  0  0  0  0  0  0  0  0  0  0  0
   22.6684   26.7155   10.6670 N   0  0  0  0  0  0  0  0  0  0  0  0
   22.9934   27.3557    9.3901 C   0  0  0  0  0  0  0  0  0  0  0  0
   23.5312   26.2402    8.5077 C   0  0  0  0  0  0  0  0  0  0  0  0
   22.1525   25.4840   10.7927 C   0  0  0  0  0  0  0  0  0  0  0  0
   21.7720   25.0637   11.8791 O   0  0  0  0  0  0  0  0  0  0  0  0
   22.0321   24.7313    9.6975 N   0  0  0  0  0  0  0  0  0  0  0  0
   22.4529   25.1703    8.3795 C   0  0  0  0  0  0  0  0  0  0  0  0
   21.6383   23.8335    9.7878 H   0  0  0  0  0  0  0  0  0  0  0  0
   24.2069   28.2552   11.8959 C   0  0  0  0  0  0  0  0  0  0  0  0
   24.3030   29.1350   13.1393 C   0  0  0  0  0  0  0  0  0  0  0  0
   25.3316   27.2358   11.8196 C   0  0  0  0  0  0  0  0  0  0  0  0
   18.3465   27.9431   12.9335 C   0  0  0  0  0  0  0  0  0  0  0  0
   18.1443   27.6227   11.4783 C   0  0  0  0  0  0  0  0  0  0  0  0
   18.4714   26.3679   10.9772 C   0  0  0  0  0  0  0  0  0  0  0  0
   18.2653   26.0894    9.6323 C   0  0  0  0  0  0  0  0  0  0  0  0
   17.7234   27.0556    8.7982 C   0  0  0  0  0  0  0  0  0  0  0  0
   17.3845   28.2977    9.3114 C   0  0  0  0  0  0  0  0  0  0  0  0
   17.6012   28.5824   10.6516 C   0  0  0  0  0  0  0  0  0  0  0  0
  5  6  2  0  0  0
  6  9  1  0  0  0
  6  7  1  0  0  0
  9 14  1  0  0  0
  9 10  1  0  0  0
 10 11  1  0  0  0
 11 13  1  0  0  0
 11 12  2  0  0  0
 13 14  1  0  0  0
 13 15  1  0  0  0
 15 20  2  0  0  0
 15 16  1  0  0  0
 16 17  2  0  0  0
 17 18  1  0  0  0
 18 19  2  0  0  0
 19 20  1  0  0  0
  7  4  1  0  0  0
  4  1  1  0  0  0
  4 21  1  0  0  0
 21 22  1  0  0  0
 22 23  1  0  0  0
 22 25  2  0  0  0
 23 24  2  0  0  0
 24 27  1  0  0  0
 25 26  1  0  0  0
 26 27  2  0  0  0
  1 28  1  0  0  0
  1  2  1  0  0  0
 28 29  1  0  0  0
 29 46  1  0  0  0
 29 30  1  0  0  0
 30 31  1  0  0  0
 31 32  2  0  0  0
 31 34  1  0  0  0
 34 35  1  0  0  0
 34 43  1  0  0  0
 43 45  1  0  0  0
 43 44  1  0  0  0
 35 36  1  0  0  0
 35 38  1  0  0  0
 36 37  1  0  0  0
 37 41  1  0  0  0
 38 40  1  0  0  0
 38 39  2  0  0  0
 40 41  1  0  0  0
 46 47  1  0  0  0
 47 52  2  0  0  0
 47 48  1  0  0  0
 48 49  2  0  0  0
 49 50  1  0  0  0
 50 51  2  0  0  0
 51 52  1  0  0  0
  7  8  1  0  0  0
  2  3  1  0  0  0
 30 33  1  0  0  0
 40 42  1  0  0  0
M  END
> <minimizedAffinity>
-10.26099

$$$$
2Q55_MU0_B_200


 52 56  0  0  0  0  0  0  0  0999 V2000
   20.3943   30.3530   15.8246 C   0  0  0  0  0  0  0  0  0  0  0  0
   20.0161   29.4640   16.8851 O   0  0  0  0  0  0  0  0  0  0  0  0
   20.8083   29.0366   17.2467 H   0  0  0  0  0  0  0  0  0  0  0  0
   21.0244   29.5681   14.6697 C   0  0  0  0  0  0  0  0  0  0  0  0
   18.7862   30.7204   13.5176 O   0  0  0  0  0  0  0  0  0  0  0  0
   18.9751   29.5121   13.3334 C   0  0  0  0  0  0  0  0  0  0  0  0
   20.0068   28.8619   13.8895 N   0  0  0  0  0  0  0  0  0  0  0  0
   20.0820   27.8875   13.7705 H   0  0  0  0  0  0  0  0  0  0  0  0
   18.0227   28.7652   12.4073 C   0  0  0  0  0  0  0  0  0  0  0  0
   17.4561   29.5490   11.3338 O   0  0  0  0  0  0  0  0  0  0  0  0
   17.4077   28.6805   10.1818 C   0  0  0  0  0  0  0  0  0  0  0  0
   16.8223   28.9430    9.1436 O   0  0  0  0  0  0  0  0  0  0  0  0
   18.0899   27.5758   10.4297 N   0  0  0  0  0  0  0  0  0  0  0  0
   18.6898   27.5466   11.7559 C   0  0  0  0  0  0  0  0  0  0  0  0
   18.3516   26.6242    9.4238 C   0  0  0  0  0  0  0  0  0  0  0  0
   17.3065   25.9840    8.7671 C   0  0  0  0  0  0  0  0  0  0  0  0
   17.5792   25.0554    7.7684 C   0  0  0  0  0  0  0  0  0  0  0  0
   18.8894   24.7699    7.4140 C   0  0  0  0  0  0  0  0  0  0  0  0
   19.9307   25.4154    8.0626 C   0  0  0  0  0  0  0  0  0  0  0  0
   19.6615   26.3381    9.0658 C   0  0  0  0  0  0  0  0  0  0  0  0
   21.8366   30.5230   13.7947 C   0  0  0  0  0  0  0  0  0  0  0  0
   22.8093   29.7664   12.9331 C   0  0  0  0  0  0  0  0  0  0  0  0
   24.0132   29.3313   13.4739 C   0  0  0  0  0  0  0  0  0  0  0  0
   24.9069   28.6372   12.6804 C   0  0  0  0  0  0  0  0  0  0  0  0
   22.5054   29.4976   11.5921 C   0  0  0  0  0  0  0  0  0  0  0  0
   23.4092   28.7946   10.7951 C   0  0  0  0  0  0  0  0  0  0  0  0
   24.6106   28.3630   11.3429 C   0  0  0  0  0  0  0  0  0  0  0  0
   21.3249   31.3884   16.4538 C   0  0  0  0  0  0  0  0  0  0  0  0
   20.9405   32.8417   16.2064 C   0  0  0  0  0  0  0  0  0  0  0  0
   19.6677   33.1730   16.8287 N   0  0  0  0  0  0  0  0  0  0  0  0
   18.6132   33.6675   16.1701 C   0  0  0  0  0  0  0  0  0  0  0  0
   18.5511   33.8564   14.9624 O   0  0  0  0  0  0  0  0  0  0  0  0
   19.5765   33.0236   17.7975 H   0  0  0  0  0  0  0  0  0  0  0  0
   17.4654   34.0596   17.0687 C   0  0  0  0  0  0  0  0  0  0  0  0
   17.4688   35.5116   17.3664 N   0  0  0  0  0  0  0  0  0  0  0  0
   16.8085   36.3775   16.3865 C   0  0  0  0  0  0  0  0  0  0  0  0
   16.2171   37.5209   17.1960 C   0  0  0  0  0  0  0  0  0  0  0  0
   18.1300   35.9498   18.4477 C   0  0  0  0  0  0  0  0  0  0  0  0
   18.7792   35.1822   19.1483 O   0  0  0  0  0  0  0  0  0  0  0  0
   18.0922   37.2535   18.7298 N   0  0  0  0  0  0  0  0  0  0  0  0
   17.3519   38.2184   17.9374 C   0  0  0  0  0  0  0  0  0  0  0  0
   18.5911   37.5770   19.5144 H   0  0  0  0  0  0  0  0  0  0  0  0
   16.1303   33.5984   16.4739 C   0  0  0  0  0  0  0  0  0  0  0  0
   16.2428   32.1346   16.0570 C   0  0  0  0  0  0  0  0  0  0  0  0
   15.0065   33.8320   17.4701 C   0  0  0  0  0  0  0  0  0  0  0  0
   22.0672   33.6636   16.8234 C   0  0  0  0  0  0  0  0  0  0  0  0
   21.9283   35.1364   16.5533 C   0  0  0  0  0  0  0  0  0  0  0  0
   21.8744   35.6153   15.2493 C   0  0  0  0  0  0  0  0  0  0  0  0
   21.7339   36.9783   15.0228 C   0  0  0  0  0  0  0  0  0  0  0  0
   21.6349   37.8538   16.0936 C   0  0  0  0  0  0  0  0  0  0  0  0
   21.6723   37.3641   17.3898 C   0  0  0  0  0  0  0  0  0  0  0  0
   21.8253   36.0046   17.6186 C   0  0  0  0  0  0  0  0  0  0  0  0
  5  6  2  0  0  0
  6  9  1  0  0  0
  6  7  1  0  0  0
  9 14  1  0  0  0
  9 10  1  0  0  0
 10 11  1  0  0  0
 11 13  1  0  0  0
 11 12  2  0  0  0
 13 14  1  0  0  0
 13 15  1  0  0  0
 15 20  2  0  0  0
 15 16  1  0  0  0
 16 17  2  0  0  0
 17 18  1  0  0  0
 18 19  2  0  0  0
 19 20  1  0  0  0
  7  4  1  0  0  0
  4  1  1  0  0  0
  4 21  1  0  0  0
 21 22  1  0  0  0
 22 23  1  0  0  0
 22 25  2  0  0  0
 23 24  2  0  0  0
 24 27  1  0  0  0
 25 26  1  0  0  0
 26 27  2  0  0  0
  1 28  1  0  0  0
  1  2  1  0  0  0
 28 29  1  0  0  0
 29 46  1  0  0  0
 29 30  1  0  0  0
 30 31  1  0  0  0
 31 32  2  0  0  0
 31 34  1  0  0  0
 34 35  1  0  0  0
 34 43  1  0  0  0
 43 45  1  0  0  0
 43 44  1  0  0  0
 35 36  1  0  0  0
 35 38  1  0  0  0
 36 37  1  0  0  0
 37 41  1  0  0  0
 38 40  1  0  0  0
 38 39  2  0  0  0
 40 41  1  0  0  0
 46 47  1  0  0  0
 47 52  2  0  0  0
 47 48  1  0  0  0
 48 49  2  0  0  0
 49 50  1  0  0  0
 50 51  2  0  0  0
 51 52  1  0  0  0
  7  8  1  0  0  0
  2  3  1  0  0  0
 30 33  1  0  0  0
 40 42  1  0  0  0
M  END
> <minimizedAffinity>
-10.12861

$$$$
2Q55_MU0_B_200


 52 56  0  0  0  0  0  0  0  0999 V2000
   20.1587   30.9438   12.2529 C   0  0  0  0  0  0  0  0  0  0  0  0
   19.7023   31.6136   11.0692 O   0  0  0  0  0  0  0  0  0  0  0  0
   19.0156   32.2565   11.3058 H   0  0  0  0  0  0  0  0  0  0  0  0
   19.0174   30.1407   12.8850 C   0  0  0  0  0  0  0  0  0  0  0  0
   19.3632   29.3940   15.5285 O   0  0  0  0  0  0  0  0  0  0  0  0
   18.7155   30.4220   15.2971 C   0  0  0  0  0  0  0  0  0  0  0  0
   18.4602   30.8342   14.0476 N   0  0  0  0  0  0  0  0  0  0  0  0
   17.8850   31.6209   13.9085 H   0  0  0  0  0  0  0  0  0  0  0  0
   18.2399   31.2574   16.4797 C   0  0  0  0  0  0  0  0  0  0  0  0
   19.1980   32.2080   16.9955 O   0  0  0  0  0  0  0  0  0  0  0  0
   18.4457   33.3883   17.3489 C   0  0  0  0  0  0  0  0  0  0  0  0
   18.8949   34.3287   17.9839 O   0  0  0  0  0  0  0  0  0  0  0  0
   17.2142   33.2867   16.8794 N   0  0  0  0  0  0  0  0  0  0  0  0
   16.9684   32.0507   16.1505 C   0  0  0  0  0  0  0  0  0  0  0  0
   16.3094   34.3659   16.9312 C   0  0  0  0  0  0  0  0  0  0  0  0
   15.1548   34.2840   17.7017 C   0  0  0  0  0  0  0  0  0  0  0  0
   14.2765   35.3611   17.7527 C   0  0  0  0  0  0  0  0  0  0  0  0
   14.5494   36.5236   17.0472 C   0  0  0  0  0  0  0  0  0  0  0  0
   15.7053   36.6080   16.2867 C   0  0  0  0  0  0  0  0  0  0  0  0
   16.5809   35.5310   16.2280 C   0  0  0  0  0  0  0  0  0  0  0  0
   17.9456   29.8703   11.8289 C   0  0  0  0  0  0  0  0  0  0  0  0
   18.0462   28.4629   11.3094 C   0  0  0  0  0  0  0  0  0  0  0  0
   18.3244   27.4234   12.1888 C   0  0  0  0  0  0  0  0  0  0  0  0
   18.4180   26.1304   11.7097 C   0  0  0  0  0  0  0  0  0  0  0  0
   17.8584   28.1970    9.9467 C   0  0  0  0  0  0  0  0  0  0  0  0
   17.9513   26.8901    9.4675 C   0  0  0  0  0  0  0  0  0  0  0  0
   18.2299   25.8564   10.3526 C   0  0  0  0  0  0  0  0  0  0  0  0
   20.7300   32.0324   13.1598 C   0  0  0  0  0  0  0  0  0  0  0  0
   21.9856   31.6428   13.9296 C   0  0  0  0  0  0  0  0  0  0  0  0
   22.7144   30.5753   13.2616 N   0  0  0  0  0  0  0  0  0  0  0  0
   22.6193   29.2806   13.5861 C   0  0  0  0  0  0  0  0  0  0  0  0
   21.8772   28.8118   14.4390 O   0  0  0  0  0  0  0  0  0  0  0  0
   23.3166   30.8215   12.5228 H   0  0  0  0  0  0  0  0  0  0  0  0
   23.5851   28.3945   12.8372 C   0  0  0  0  0  0  0  0  0  0  0  0
   22.9038   27.5971   11.7899 N   0  0  0  0  0  0  0  0  0  0  0  0
   21.7242   28.2080   11.1723 C   0  0  0  0  0  0  0  0  0  0  0  0
   21.7246   27.7156    9.7335 C   0  0  0  0  0  0  0  0  0  0  0  0
   23.3451   26.3578   11.5293 C   0  0  0  0  0  0  0  0  0  0  0  0
   24.2520   25.8570   12.1835 O   0  0  0  0  0  0  0  0  0  0  0  0
   22.7514   25.6641   10.5561 N   0  0  0  0  0  0  0  0  0  0  0  0
   21.6662   26.1924    9.7498 C   0  0  0  0  0  0  0  0  0  0  0  0
   23.0651   24.7484   10.3761 H   0  0  0  0  0  0  0  0  0  0  0  0
   24.7455   29.2180   12.2681 C   0  0  0  0  0  0  0  0  0  0  0  0
   25.9458   29.1124   13.2047 C   0  0  0  0  0  0  0  0  0  0  0  0
   25.0701   28.7569   10.8567 C   0  0  0  0  0  0  0  0  0  0  0  0
   22.8294   32.9119   13.9863 C   0  0  0  0  0  0  0  0  0  0  0  0
   22.4999   33.7774   15.1709 C   0  0  0  0  0  0  0  0  0  0  0  0
   22.4137   33.2301   16.4459 C   0  0  0  0  0  0  0  0  0  0  0  0
   22.1198   34.0499   17.5277 C   0  0  0  0  0  0  0  0  0  0  0  0
   21.9267   35.4097   17.3363 C   0  0  0  0  0  0  0  0  0  0  0  0
   22.0320   35.9483   16.0634 C   0  0  0  0  0  0  0  0  0  0  0  0
   22.3129   35.1294   14.9796 C   0  0  0  0  0  0  0  0  0  0  0  0
  5  6  2  0  0  0
  6  9  1  0  0  0
  6  7  1  0  0  0
  9 14  1  0  0  0
  9 10  1  0  0  0
 10 11  1  0  0  0
 11 13  1  0  0  0
 11 12  2  0  0  0
 13 14  1  0  0  0
 13 15  1  0  0  0
 15 20  2  0  0  0
 15 16  1  0  0  0
 16 17  2  0  0  0
 17 18  1  0  0  0
 18 19  2  0  0  0
 19 20  1  0  0  0
  7  4  1  0  0  0
  4  1  1  0  0  0
  4 21  1  0  0  0
 21 22  1  0  0  0
 22 23  1  0  0  0
 22 25  2  0  0  0
 23 24  2  0  0  0
 24 27  1  0  0  0
 25 26  1  0  0  0
 26 27  2  0  0  0
  1 28  1  0  0  0
  1  2  1  0  0  0
 28 29  1  0  0  0
 29 46  1  0  0  0
 29 30  1  0  0  0
 30 31  1  0  0  0
 31 32  2  0  0  0
 31 34  1  0  0  0
 34 35  1  0  0  0
 34 43  1  0  0  0
 43 45  1  0  0  0
 43 44  1  0  0  0
 35 36  1  0  0  0
 35 38  1  0  0  0
 36 37  1  0  0  0
 37 41  1  0  0  0
 38 40  1  0  0  0
 38 39  2  0  0  0
 40 41  1  0  0  0
 46 47  1  0  0  0
 47 52  2  0  0  0
 47 48  1  0  0  0
 48 49  2  0  0  0
 49 50  1  0  0  0
 50 51  2  0  0  0
 51 52  1  0  0  0
  7  8  1  0  0  0
  2  3  1  0  0  0
 30 33  1  0  0  0
 40 42  1  0  0  0
M  END
> <minimizedAffinity>
-9.99359

$$$$
2Q55_MU0_B_200


 52 56  0  0  0  0  0  0  0  0999 V2000
   19.6284   30.9567   12.2442 C   0  0  0  0  0  0  0  0  0  0  0  0
   18.8952   32.0284   11.6343 O   0  0  0  0  0  0  0  0  0  0  0  0
   18.9607   32.8215   12.1888 H   0  0  0  0  0  0  0  0  0  0  0  0
   19.0094   30.5884   13.5962 C   0  0  0  0  0  0  0  0  0  0  0  0
   18.2896   31.1990   16.1990 O   0  0  0  0  0  0  0  0  0  0  0  0
   17.7336   31.8182   15.2840 C   0  0  0  0  0  0  0  0  0  0  0  0
   17.9867   31.5573   13.9939 N   0  0  0  0  0  0  0  0  0  0  0  0
   17.4732   32.0278   13.2981 H   0  0  0  0  0  0  0  0  0  0  0  0
   16.7687   32.9388   15.6525 C   0  0  0  0  0  0  0  0  0  0  0  0
   16.1288   32.8102   16.9416 O   0  0  0  0  0  0  0  0  0  0  0  0
   16.0610   34.1424   17.4934 C   0  0  0  0  0  0  0  0  0  0  0  0
   15.4222   34.4458   18.4880 O   0  0  0  0  0  0  0  0  0  0  0  0
   16.7917   34.9643   16.7601 N   0  0  0  0  0  0  0  0  0  0  0  0
   17.4493   34.3139   15.6358 C   0  0  0  0  0  0  0  0  0  0  0  0
   17.0427   36.2917   17.1612 C   0  0  0  0  0  0  0  0  0  0  0  0
   18.2221   36.6201   17.8205 C   0  0  0  0  0  0  0  0  0  0  0  0
   18.4618   37.9363   18.2003 C   0  0  0  0  0  0  0  0  0  0  0  0
   17.5355   38.9287   17.9164 C   0  0  0  0  0  0  0  0  0  0  0  0
   16.3641   38.6024   17.2508 C   0  0  0  0  0  0  0  0  0  0  0  0
   16.1186   37.2871   16.8766 C   0  0  0  0  0  0  0  0  0  0  0  0
   18.4383   29.1723   13.5206 C   0  0  0  0  0  0  0  0  0  0  0  0
   18.1897   28.7687   12.0936 C   0  0  0  0  0  0  0  0  0  0  0  0
   19.0867   27.9234   11.4517 C   0  0  0  0  0  0  0  0  0  0  0  0
   18.8577   27.5544   10.1396 C   0  0  0  0  0  0  0  0  0  0  0  0
   17.0591   29.2385   11.4126 C   0  0  0  0  0  0  0  0  0  0  0  0
   16.8303   28.8618   10.0890 C   0  0  0  0  0  0  0  0  0  0  0  0
   17.7315   28.0166    9.4541 C   0  0  0  0  0  0  0  0  0  0  0  0
   21.0771   31.4337   12.3326 C   0  0  0  0  0  0  0  0  0  0  0  0
   21.9606   30.6502   13.2952 C   0  0  0  0  0  0  0  0  0  0  0  0
   22.6395   29.5510   12.6261 N   0  0  0  0  0  0  0  0  0  0  0  0
   22.4014   28.2574   12.8714 C   0  0  0  0  0  0  0  0  0  0  0  0
   21.5544   27.8214   13.6399 O   0  0  0  0  0  0  0  0  0  0  0  0
   23.3183   29.7735   11.9486 H   0  0  0  0  0  0  0  0  0  0  0  0
   23.3384   27.3198   12.1492 C   0  0  0  0  0  0  0  0  0  0  0  0
   22.7179   26.7508   10.9294 N   0  0  0  0  0  0  0  0  0  0  0  0
   22.7500   27.5923    9.7307 C   0  0  0  0  0  0  0  0  0  0  0  0
   22.8703   26.6241    8.5643 C   0  0  0  0  0  0  0  0  0  0  0  0
   22.1046   25.5608   11.0092 C   0  0  0  0  0  0  0  0  0  0  0  0
   21.9943   24.9747   12.0796 O   0  0  0  0  0  0  0  0  0  0  0  0
   21.5855   25.0383    9.8964 N   0  0  0  0  0  0  0  0  0  0  0  0
   21.6714   25.6832    8.5988 C   0  0  0  0  0  0  0  0  0  0  0  0
   21.1212   24.1724    9.9586 H   0  0  0  0  0  0  0  0  0  0  0  0
   24.6707   28.0138   11.8455 C   0  0  0  0  0  0  0  0  0  0  0  0
   25.2811   28.5255   13.1474 C   0  0  0  0  0  0  0  0  0  0  0  0
   25.5977   27.0635   11.1057 C   0  0  0  0  0  0  0  0  0  0  0  0
   22.9727   31.6620   13.8222 C   0  0  0  0  0  0  0  0  0  0  0  0
   22.3301   32.7765   14.6007 C   0  0  0  0  0  0  0  0  0  0  0  0
   21.4887   32.4987   15.6719 C   0  0  0  0  0  0  0  0  0  0  0  0
   20.9151   33.5435   16.3847 C   0  0  0  0  0  0  0  0  0  0  0  0
   21.1924   34.8567   16.0360 C   0  0  0  0  0  0  0  0  0  0  0  0
   22.0464   35.1230   14.9772 C   0  0  0  0  0  0  0  0  0  0  0  0
   22.6104   34.0810   14.2558 C   0  0  0  0  0  0  0  0  0  0  0  0
  5  6  2  0  0  0
  6  9  1  0  0  0
  6  7  1  0  0  0
  9 14  1  0  0  0
  9 10  1  0  0  0
 10 11  1  0  0  0
 11 13  1  0  0  0
 11 12  2  0  0  0
 13 14  1  0  0  0
 13 15  1  0  0  0
 15 20  2  0  0  0
 15 16  1  0  0  0
 16 17  2  0  0  0
 17 18  1  0  0  0
 18 19  2  0  0  0
 19 20  1  0  0  0
  7  4  1  0  0  0
  4  1  1  0  0  0
  4 21  1  0  0  0
 21 22  1  0  0  0
 22 23  1  0  0  0
 22 25  2  0  0  0
 23 24  2  0  0  0
 24 27  1  0  0  0
 25 26  1  0  0  0
 26 27  2  0  0  0
  1 28  1  0  0  0
  1  2  1  0  0  0
 28 29  1  0  0  0
 29 46  1  0  0  0
 29 30  1  0  0  0
 30 31  1  0  0  0
 31 32  2  0  0  0
 31 34  1  0  0  0
 34 35  1  0  0  0
 34 43  1  0  0  0
 43 45  1  0  0  0
 43 44  1  0  0  0
 35 36  1  0  0  0
 35 38  1  0  0  0
 36 37  1  0  0  0
 37 41  1  0  0  0
 38 40  1  0  0  0
 38 39  2  0  0  0
 40 41  1  0  0  0
 46 47  1  0  0  0
 47 52  2  0  0  0
 47 48  1  0  0  0
 48 49  2  0  0  0
 49 50  1  0  0  0
 50 51  2  0  0  0
 51 52  1  0  0  0
  7  8  1  0  0  0
  2  3  1  0  0  0
 30 33  1  0  0  0
 40 42  1  0  0  0
M  END
> <minimizedAffinity>
-9.74358

$$$$
2Q55_MU0_B_200


 52 56  0  0  0  0  0  0  0  0999 V2000
   21.1116   31.5691   15.9066 C   0  0  0  0  0  0  0  0  0  0  0  0
   21.9383   31.5961   17.0787 O   0  0  0  0  0  0  0  0  0  0  0  0
   21.4121   31.3379   17.8515 H   0  0  0  0  0  0  0  0  0  0  0  0
   19.9853   32.6010   16.0242 C   0  0  0  0  0  0  0  0  0  0  0  0
   18.8666   34.2845   17.9161 O   0  0  0  0  0  0  0  0  0  0  0  0
   19.9178   34.6427   17.3716 C   0  0  0  0  0  0  0  0  0  0  0  0
   20.5053   33.9129   16.4131 N   0  0  0  0  0  0  0  0  0  0  0  0
   21.3045   34.2673   15.9603 H   0  0  0  0  0  0  0  0  0  0  0  0
   20.5753   35.9321   17.8486 C   0  0  0  0  0  0  0  0  0  0  0  0
   22.0148   35.9766   17.7324 O   0  0  0  0  0  0  0  0  0  0  0  0
   22.3460   37.3228   17.3301 C   0  0  0  0  0  0  0  0  0  0  0  0
   23.4779   37.7787   17.3108 O   0  0  0  0  0  0  0  0  0  0  0  0
   21.2437   37.9684   16.9903 N   0  0  0  0  0  0  0  0  0  0  0  0
   20.0370   37.1623   17.1061 C   0  0  0  0  0  0  0  0  0  0  0  0
   21.2854   39.2466   16.3983 C   0  0  0  0  0  0  0  0  0  0  0  0
   21.2257   40.3921   17.1842 C   0  0  0  0  0  0  0  0  0  0  0  0
   21.2796   41.6471   16.5874 C   0  0  0  0  0  0  0  0  0  0  0  0
   21.4032   41.7652   15.2110 C   0  0  0  0  0  0  0  0  0  0  0  0
   21.4721   40.6229   14.4288 C   0  0  0  0  0  0  0  0  0  0  0  0
   21.4112   39.3678   15.0216 C   0  0  0  0  0  0  0  0  0  0  0  0
   19.2251   32.6712   14.6997 C   0  0  0  0  0  0  0  0  0  0  0  0
   17.7892   33.0565   14.9241 C   0  0  0  0  0  0  0  0  0  0  0  0
   17.0007   32.3016   15.7841 C   0  0  0  0  0  0  0  0  0  0  0  0
   15.6806   32.6561   15.9884 C   0  0  0  0  0  0  0  0  0  0  0  0
   17.2464   34.1721   14.2732 C   0  0  0  0  0  0  0  0  0  0  0  0
   15.9140   34.5281   14.4839 C   0  0  0  0  0  0  0  0  0  0  0  0
   15.1323   33.7684   15.3448 C   0  0  0  0  0  0  0  0  0  0  0  0
   20.6230   30.1282   15.7682 C   0  0  0  0  0  0  0  0  0  0  0  0
   20.4522   29.6356   14.3367 C   0  0  0  0  0  0  0  0  0  0  0  0
   21.5494   28.7694   13.9332 N   0  0  0  0  0  0  0  0  0  0  0  0
   22.1913   28.8622   12.7629 C   0  0  0  0  0  0  0  0  0  0  0  0
   21.9878   29.7091   11.9031 O   0  0  0  0  0  0  0  0  0  0  0  0
   21.8383   28.0693   14.5623 H   0  0  0  0  0  0  0  0  0  0  0  0
   23.1925   27.7567   12.5302 C   0  0  0  0  0  0  0  0  0  0  0  0
   22.7564   26.8347   11.4547 N   0  0  0  0  0  0  0  0  0  0  0  0
   21.4663   27.1317   10.8275 C   0  0  0  0  0  0  0  0  0  0  0  0
   21.6136   26.6911    9.3795 C   0  0  0  0  0  0  0  0  0  0  0  0
   23.5092   25.7599   11.1778 C   0  0  0  0  0  0  0  0  0  0  0  0
   24.5069   25.4971   11.8388 O   0  0  0  0  0  0  0  0  0  0  0  0
   23.1296   24.9590   10.1802 N   0  0  0  0  0  0  0  0  0  0  0  0
   21.9546   25.2054    9.3644 C   0  0  0  0  0  0  0  0  0  0  0  0
   23.6736   24.1613    9.9880 H   0  0  0  0  0  0  0  0  0  0  0  0
   24.5855   28.3359   12.2602 C   0  0  0  0  0  0  0  0  0  0  0  0
   24.6501   28.8450   10.8229 C   0  0  0  0  0  0  0  0  0  0  0  0
   24.9047   29.4222   13.2741 C   0  0  0  0  0  0  0  0  0  0  0  0
   19.1351   28.8668   14.3332 C   0  0  0  0  0  0  0  0  0  0  0  0
   18.6276   28.5882   12.9453 C   0  0  0  0  0  0  0  0  0  0  0  0
   18.5712   27.2868   12.4598 C   0  0  0  0  0  0  0  0  0  0  0  0
   18.0878   27.0510   11.1794 C   0  0  0  0  0  0  0  0  0  0  0  0
   17.6518   28.1088   10.3959 C   0  0  0  0  0  0  0  0  0  0  0  0
   17.6961   29.4009   10.8959 C   0  0  0  0  0  0  0  0  0  0  0  0
   18.1904   29.6402   12.1698 C   0  0  0  0  0  0  0  0  0  0  0  0
  5  6  2  0  0  0
  6  9  1  0  0  0
  6  7  1  0  0  0
  9 14  1  0  0  0
  9 10  1  0  0  0
 10 11  1  0  0  0
 11 13  1  0  0  0
 11 12  2  0  0  0
 13 14  1  0  0  0
 13 15  1  0  0  0
 15 20  2  0  0  0
 15 16  1  0  0  0
 16 17  2  0  0  0
 17 18  1  0  0  0
 18 19  2  0  0  0
 19 20  1  0  0  0
  7  4  1  0  0  0
  4  1  1  0  0  0
  4 21  1  0  0  0
 21 22  1  0  0  0
 22 23  1  0  0  0
 22 25  2  0  0  0
 23 24  2  0  0  0
 24 27  1  0  0  0
 25 26  1  0  0  0
 26 27  2  0  0  0
  1 28  1  0  0  0
  1  2  1  0  0  0
 28 29  1  0  0  0
 29 46  1  0  0  0
 29 30  1  0  0  0
 30 31  1  0  0  0
 31 32  2  0  0  0
 31 34  1  0  0  0
 34 35  1  0  0  0
 34 43  1  0  0  0
 43 45  1  0  0  0
 43 44  1  0  0  0
 35 36  1  0  0  0
 35 38  1  0  0  0
 36 37  1  0  0  0
 37 41  1  0  0  0
 38 40  1  0  0  0
 38 39  2  0  0  0
 40 41  1  0  0  0
 46 47  1  0  0  0
 47 52  2  0  0  0
 47 48  1  0  0  0
 48 49  2  0  0  0
 49 50  1  0  0  0
 50 51  2  0  0  0
 51 52  1  0  0  0
  7  8  1  0  0  0
  2  3  1  0  0  0
 30 33  1  0  0  0
 40 42  1  0  0  0
M  END
> <minimizedAffinity>
-9.35429

$$$$
2Q55_MU0_B_200


 52 56  0  0  0  0  0  0  0  0999 V2000
   20.9467   32.0250   14.2714 C   0  0  0  0  0  0  0  0  0  0  0  0
   21.0692   33.4210   13.9643 O   0  0  0  0  0  0  0  0  0  0  0  0
   21.6443   33.8469   14.6192 H   0  0  0  0  0  0  0  0  0  0  0  0
   20.2650   31.8355   15.6302 C   0  0  0  0  0  0  0  0  0  0  0  0
   22.1874   32.9045   17.3114 O   0  0  0  0  0  0  0  0  0  0  0  0
   21.1594   33.5633   17.1145 C   0  0  0  0  0  0  0  0  0  0  0  0
   20.1571   33.1043   16.3521 N   0  0  0  0  0  0  0  0  0  0  0  0
   19.3298   33.6325   16.2759 H   0  0  0  0  0  0  0  0  0  0  0  0
   21.0652   34.9554   17.7276 C   0  0  0  0  0  0  0  0  0  0  0  0
   22.3261   35.5671   18.0792 O   0  0  0  0  0  0  0  0  0  0  0  0
   22.2002   36.9677   17.7531 C   0  0  0  0  0  0  0  0  0  0  0  0
   23.0015   37.8276   18.0816 O   0  0  0  0  0  0  0  0  0  0  0  0
   21.0967   37.1628   17.0521 N   0  0  0  0  0  0  0  0  0  0  0  0
   20.3404   35.9437   16.8045 C   0  0  0  0  0  0  0  0  0  0  0  0
   20.8067   38.4065   16.4561 C   0  0  0  0  0  0  0  0  0  0  0  0
   21.4829   38.8171   15.3126 C   0  0  0  0  0  0  0  0  0  0  0  0
   21.1784   40.0419   14.7283 C   0  0  0  0  0  0  0  0  0  0  0  0
   20.1954   40.8546   15.2731 C   0  0  0  0  0  0  0  0  0  0  0  0
   19.5152   40.4405   16.4077 C   0  0  0  0  0  0  0  0  0  0  0  0
   19.8223   39.2207   16.9978 C   0  0  0  0  0  0  0  0  0  0  0  0
   18.8936   31.1929   15.4213 C   0  0  0  0  0  0  0  0  0  0  0  0
   17.8129   32.2372   15.3717 C   0  0  0  0  0  0  0  0  0  0  0  0
   17.7992   33.1641   14.3364 C   0  0  0  0  0  0  0  0  0  0  0  0
   16.8061   34.1243   14.2928 C   0  0  0  0  0  0  0  0  0  0  0  0
   16.8218   32.2767   16.3611 C   0  0  0  0  0  0  0  0  0  0  0  0
   15.8197   33.2460   16.3122 C   0  0  0  0  0  0  0  0  0  0  0  0
   15.8128   34.1692   15.2743 C   0  0  0  0  0  0  0  0  0  0  0  0
   22.3610   31.4517   14.1996 C   0  0  0  0  0  0  0  0  0  0  0  0
   22.4618   30.0425   13.6295 C   0  0  0  0  0  0  0  0  0  0  0  0
   21.5169   29.8350   12.5428 N   0  0  0  0  0  0  0  0  0  0  0  0
   20.4434   29.0399   12.6193 C   0  0  0  0  0  0  0  0  0  0  0  0
   20.0787   28.4279   13.6145 O   0  0  0  0  0  0  0  0  0  0  0  0
   21.6779   30.3106   11.6959 H   0  0  0  0  0  0  0  0  0  0  0  0
   19.7070   28.8863   11.3106 C   0  0  0  0  0  0  0  0  0  0  0  0
   20.1401   27.6762   10.5724 N   0  0  0  0  0  0  0  0  0  0  0  0
   19.4482   26.4288   10.9063 C   0  0  0  0  0  0  0  0  0  0  0  0
   19.4055   25.6348    9.6100 C   0  0  0  0  0  0  0  0  0  0  0  0
   21.1710   27.7715    9.7199 C   0  0  0  0  0  0  0  0  0  0  0  0
   21.7947   28.8187    9.5936 O   0  0  0  0  0  0  0  0  0  0  0  0
   21.5262   26.6862    9.0296 N   0  0  0  0  0  0  0  0  0  0  0  0
   20.8380   25.4129    9.1383 C   0  0  0  0  0  0  0  0  0  0  0  0
   22.2933   26.7525    8.4160 H   0  0  0  0  0  0  0  0  0  0  0  0
   18.1913   28.9095   11.5364 C   0  0  0  0  0  0  0  0  0  0  0  0
   17.8188   30.1585   12.3304 C   0  0  0  0  0  0  0  0  0  0  0  0
   17.4637   28.8319   10.2043 C   0  0  0  0  0  0  0  0  0  0  0  0
   23.8948   29.9180   13.1230 C   0  0  0  0  0  0  0  0  0  0  0  0
   24.1171   28.6758   12.3052 C   0  0  0  0  0  0  0  0  0  0  0  0
   23.5037   27.4783   12.6551 C   0  0  0  0  0  0  0  0  0  0  0  0
   23.7133   26.3459   11.8788 C   0  0  0  0  0  0  0  0  0  0  0  0
   24.5202   26.4151   10.7533 C   0  0  0  0  0  0  0  0  0  0  0  0
   25.1132   27.6181   10.4033 C   0  0  0  0  0  0  0  0  0  0  0  0
   24.9156   28.7474   11.1843 C   0  0  0  0  0  0  0  0  0  0  0  0
  5  6  2  0  0  0
  6  9  1  0  0  0
  6  7  1  0  0  0
  9 14  1  0  0  0
  9 10  1  0  0  0
 10 11  1  0  0  0
 11 13  1  0  0  0
 11 12  2  0  0  0
 13 14  1  0  0  0
 13 15  1  0  0  0
 15 20  2  0  0  0
 15 16  1  0  0  0
 16 17  2  0  0  0
 17 18  1  0  0  0
 18 19  2  0  0  0
 19 20  1  0  0  0
  7  4  1  0  0  0
  4  1  1  0  0  0
  4 21  1  0  0  0
 21 22  1  0  0  0
 22 23  1  0  0  0
 22 25  2  0  0  0
 23 24  2  0  0  0
 24 27  1  0  0  0
 25 26  1  0  0  0
 26 27  2  0  0  0
  1 28  1  0  0  0
  1  2  1  0  0  0
 28 29  1  0  0  0
 29 46  1  0  0  0
 29 30  1  0  0  0
 30 31  1  0  0  0
 31 32  2  0  0  0
 31 34  1  0  0  0
 34 35  1  0  0  0
 34 43  1  0  0  0
 43 45  1  0  0  0
 43 44  1  0  0  0
 35 36  1  0  0  0
 35 38  1  0  0  0
 36 37  1  0  0  0
 37 41  1  0  0  0
 38 40  1  0  0  0
 38 39  2  0  0  0
 40 41  1  0  0  0
 46 47  1  0  0  0
 47 52  2  0  0  0
 47 48  1  0  0  0
 48 49  2  0  0  0
 49 50  1  0  0  0
 50 51  2  0  0  0
 51 52  1  0  0  0
  7  8  1  0  0  0
  2  3  1  0  0  0
 30 33  1  0  0  0
 40 42  1  0  0  0
M  END
> <minimizedAffinity>
-9.28691

$$$$
2Q55_MU0_B_200


 52 56  0  0  0  0  0  0  0  0999 V2000
   19.7260   31.8301   12.7746 C   0  0  0  0  0  0  0  0  0  0  0  0
   19.7837   31.6572   11.3516 O   0  0  0  0  0  0  0  0  0  0  0  0
   19.2685   30.8748   11.0998 H   0  0  0  0  0  0  0  0  0  0  0  0
   20.3785   30.6391   13.4836 C   0  0  0  0  0  0  0  0  0  0  0  0
   18.6521   28.4936   13.7684 O   0  0  0  0  0  0  0  0  0  0  0  0
   19.4557   28.4693   12.8286 C   0  0  0  0  0  0  0  0  0  0  0  0
   20.3579   29.4426   12.6406 N   0  0  0  0  0  0  0  0  0  0  0  0
   21.0217   29.3506   11.9194 H   0  0  0  0  0  0  0  0  0  0  0  0
   19.3740   27.3140   11.8381 C   0  0  0  0  0  0  0  0  0  0  0  0
   18.6362   27.5848   10.6257 O   0  0  0  0  0  0  0  0  0  0  0  0
   19.3513   26.9219    9.5612 C   0  0  0  0  0  0  0  0  0  0  0  0
   18.9242   26.7796    8.4269 O   0  0  0  0  0  0  0  0  0  0  0  0
   20.5233   26.5037   10.0071 N   0  0  0  0  0  0  0  0  0  0  0  0
   20.7631   26.8257   11.4065 C   0  0  0  0  0  0  0  0  0  0  0  0
   21.4993   25.9713    9.1411 C   0  0  0  0  0  0  0  0  0  0  0  0
   21.2377   24.8230    8.4019 C   0  0  0  0  0  0  0  0  0  0  0  0
   22.2059   24.3152    7.5424 C   0  0  0  0  0  0  0  0  0  0  0  0
   23.4302   24.9530    7.4087 C   0  0  0  0  0  0  0  0  0  0  0  0
   23.6869   26.1030    8.1389 C   0  0  0  0  0  0  0  0  0  0  0  0
   22.7243   26.6086    9.0038 C   0  0  0  0  0  0  0  0  0  0  0  0
   21.8044   31.0128   13.8890 C   0  0  0  0  0  0  0  0  0  0  0  0
   22.8064   30.1131   13.2200 C   0  0  0  0  0  0  0  0  0  0  0  0
   23.7805   29.4810   13.9833 C   0  0  0  0  0  0  0  0  0  0  0  0
   24.7017   28.6554   13.3670 C   0  0  0  0  0  0  0  0  0  0  0  0
   22.7593   29.9088   11.8348 C   0  0  0  0  0  0  0  0  0  0  0  0
   23.6896   29.0728   11.2167 C   0  0  0  0  0  0  0  0  0  0  0  0
   24.6604   28.4446   11.9865 C   0  0  0  0  0  0  0  0  0  0  0  0
   18.2497   32.0249   13.1162 C   0  0  0  0  0  0  0  0  0  0  0  0
   17.9772   32.7121   14.4483 C   0  0  0  0  0  0  0  0  0  0  0  0
   19.1613   33.3893   14.9544 N   0  0  0  0  0  0  0  0  0  0  0  0
   19.6777   33.1940   16.1733 C   0  0  0  0  0  0  0  0  0  0  0  0
   19.2677   32.3913   17.0013 O   0  0  0  0  0  0  0  0  0  0  0  0
   19.6119   34.0331   14.3615 H   0  0  0  0  0  0  0  0  0  0  0  0
   20.8206   34.1228   16.5044 C   0  0  0  0  0  0  0  0  0  0  0  0
   20.3491   35.4996   16.7853 N   0  0  0  0  0  0  0  0  0  0  0  0
   19.1750   35.6202   17.6532 C   0  0  0  0  0  0  0  0  0  0  0  0
   19.3809   36.9118   18.4289 C   0  0  0  0  0  0  0  0  0  0  0  0
   20.9581   36.5294   16.1793 C   0  0  0  0  0  0  0  0  0  0  0  0
   21.8461   36.3453   15.3553 O   0  0  0  0  0  0  0  0  0  0  0  0
   20.5532   37.7671   16.4709 N   0  0  0  0  0  0  0  0  0  0  0  0
   19.5015   38.0558   17.4287 C   0  0  0  0  0  0  0  0  0  0  0  0
   20.9896   38.5219   16.0136 H   0  0  0  0  0  0  0  0  0  0  0  0
   21.6615   33.5579   17.6545 C   0  0  0  0  0  0  0  0  0  0  0  0
   22.5683   32.4526   17.1205 C   0  0  0  0  0  0  0  0  0  0  0  0
   22.4436   34.6742   18.3268 C   0  0  0  0  0  0  0  0  0  0  0  0
   16.8684   33.7185   14.1593 C   0  0  0  0  0  0  0  0  0  0  0  0
   16.2527   34.2813   15.4104 C   0  0  0  0  0  0  0  0  0  0  0  0
   16.1277   35.6551   15.5821 C   0  0  0  0  0  0  0  0  0  0  0  0
   15.5451   36.1531   16.7403 C   0  0  0  0  0  0  0  0  0  0  0  0
   15.0791   35.2819   17.7133 C   0  0  0  0  0  0  0  0  0  0  0  0
   15.1929   33.9134   17.5246 C   0  0  0  0  0  0  0  0  0  0  0  0
   15.7859   33.4140   16.3743 C   0  0  0  0  0  0  0  0  0  0  0  0
  5  6  2  0  0  0
  6  9  1  0  0  0
  6  7  1  0  0  0
  9 14  1  0  0  0
  9 10  1  0  0  0
 10 11  1  0  0  0
 11 13  1  0  0  0
 11 12  2  0  0  0
 13 14  1  0  0  0
 13 15  1  0  0  0
 15 20  2  0  0  0
 15 16  1  0  0  0
 16 17  2  0  0  0
 17 18  1  0  0  0
 18 19  2  0  0  0
 19 20  1  0  0  0
  7  4  1  0  0  0
  4  1  1  0  0  0
  4 21  1  0  0  0
 21 22  1  0  0  0
 22 23  1  0  0  0
 22 25  2  0  0  0
 23 24  2  0  0  0
 24 27  1  0  0  0
 25 26  1  0  0  0
 26 27  2  0  0  0
  1 28  1  0  0  0
  1  2  1  0  0  0
 28 29  1  0  0  0
 29 46  1  0  0  0
 29 30  1  0  0  0
 30 31  1  0  0  0
 31 32  2  0  0  0
 31 34  1  0  0  0
 34 35  1  0  0  0
 34 43  1  0  0  0
 43 45  1  0  0  0
 43 44  1  0  0  0
 35 36  1  0  0  0
 35 38  1  0  0  0
 36 37  1  0  0  0
 37 41  1  0  0  0
 38 40  1  0  0  0
 38 39  2  0  0  0
 40 41  1  0  0  0
 46 47  1  0  0  0
 47 52  2  0  0  0
 47 48  1  0  0  0
 48 49  2  0  0  0
 49 50  1  0  0  0
 50 51  2  0  0  0
 51 52  1  0  0  0
  7  8  1  0  0  0
  2  3  1  0  0  0
 30 33  1  0  0  0
 40 42  1  0  0  0
M  END
> <minimizedAffinity>
-9.22045

$$$$
2Q55_MU0_B_200


 52 56  0  0  0  0  0  0  0  0999 V2000
   20.6257   32.1504   14.8415 C   0  0  0  0  0  0  0  0  0  0  0  0
   21.5532   33.2182   14.6014 O   0  0  0  0  0  0  0  0  0  0  0  0
   22.2979   33.1445   15.2186 H   0  0  0  0  0  0  0  0  0  0  0  0
   20.0312   32.2665   16.2486 C   0  0  0  0  0  0  0  0  0  0  0  0
   22.1249   33.4703   17.6022 O   0  0  0  0  0  0  0  0  0  0  0  0
   21.1342   34.1611   17.3359 C   0  0  0  0  0  0  0  0  0  0  0  0
   20.0566   33.6509   16.7236 N   0  0  0  0  0  0  0  0  0  0  0  0
   19.2643   34.2199   16.5904 H   0  0  0  0  0  0  0  0  0  0  0  0
   21.1748   35.6452   17.6803 C   0  0  0  0  0  0  0  0  0  0  0  0
   21.5863   36.5218   16.6080 O   0  0  0  0  0  0  0  0  0  0  0  0
   20.7679   37.7059   16.7178 C   0  0  0  0  0  0  0  0  0  0  0  0
   20.9584   38.7370   16.0935 O   0  0  0  0  0  0  0  0  0  0  0  0
   19.7953   37.4941   17.5876 N   0  0  0  0  0  0  0  0  0  0  0  0
   19.8153   36.1603   18.1708 C   0  0  0  0  0  0  0  0  0  0  0  0
   18.7481   38.4194   17.7691 C   0  0  0  0  0  0  0  0  0  0  0  0
   17.5475   38.2718   17.0834 C   0  0  0  0  0  0  0  0  0  0  0  0
   16.5183   39.1860   17.2808 C   0  0  0  0  0  0  0  0  0  0  0  0
   16.6769   40.2411   18.1670 C   0  0  0  0  0  0  0  0  0  0  0  0
   17.8706   40.3825   18.8573 C   0  0  0  0  0  0  0  0  0  0  0  0
   18.9032   39.4748   18.6566 C   0  0  0  0  0  0  0  0  0  0  0  0
   18.6099   31.7033   16.2437 C   0  0  0  0  0  0  0  0  0  0  0  0
   17.6280   32.7269   15.7447 C   0  0  0  0  0  0  0  0  0  0  0  0
   16.6175   33.1778   16.5854 C   0  0  0  0  0  0  0  0  0  0  0  0
   15.7149   34.1177   16.1250 C   0  0  0  0  0  0  0  0  0  0  0  0
   17.7301   33.2277   14.4402 C   0  0  0  0  0  0  0  0  0  0  0  0
   16.8184   34.1781   13.9801 C   0  0  0  0  0  0  0  0  0  0  0  0
   15.8110   34.6237   14.8263 C   0  0  0  0  0  0  0  0  0  0  0  0
   21.4004   30.8562   14.5984 C   0  0  0  0  0  0  0  0  0  0  0  0
   20.9859   30.0752   13.3577 C   0  0  0  0  0  0  0  0  0  0  0  0
   21.9862   29.0854   12.9882 N   0  0  0  0  0  0  0  0  0  0  0  0
   22.3590   28.8245   11.7299 C   0  0  0  0  0  0  0  0  0  0  0  0
   21.9593   29.4094   10.7319 O   0  0  0  0  0  0  0  0  0  0  0  0
   22.4169   28.5743   13.7111 H   0  0  0  0  0  0  0  0  0  0  0  0
   23.3069   27.6561   11.6073 C   0  0  0  0  0  0  0  0  0  0  0  0
   22.9537   26.7762   10.4681 N   0  0  0  0  0  0  0  0  0  0  0  0
   23.2011   27.3159    9.1289 C   0  0  0  0  0  0  0  0  0  0  0  0
   23.5731   26.1141    8.2747 C   0  0  0  0  0  0  0  0  0  0  0  0
   22.3662   25.5968   10.7181 C   0  0  0  0  0  0  0  0  0  0  0  0
   22.0612   25.2694   11.8588 O   0  0  0  0  0  0  0  0  0  0  0  0
   22.0902   24.7942    9.6884 N   0  0  0  0  0  0  0  0  0  0  0  0
   22.4147   25.1240    8.3125 C   0  0  0  0  0  0  0  0  0  0  0  0
   21.6442   23.9357    9.8709 H   0  0  0  0  0  0  0  0  0  0  0  0
   24.7582   28.1423   11.5290 C   0  0  0  0  0  0  0  0  0  0  0  0
   25.0548   29.0394   12.7275 C   0  0  0  0  0  0  0  0  0  0  0  0
   25.7030   26.9547   11.4468 C   0  0  0  0  0  0  0  0  0  0  0  0
   19.6740   29.3946   13.7339 C   0  0  0  0  0  0  0  0  0  0  0  0
   18.9424   28.8420   12.5420 C   0  0  0  0  0  0  0  0  0  0  0  0
   18.1737   29.6729   11.7350 C   0  0  0  0  0  0  0  0  0  0  0  0
   17.5160   29.1437   10.6322 C   0  0  0  0  0  0  0  0  0  0  0  0
   17.6377   27.7954   10.3320 C   0  0  0  0  0  0  0  0  0  0  0  0
   18.4206   26.9789   11.1331 C   0  0  0  0  0  0  0  0  0  0  0  0
   19.0682   27.5027   12.2424 C   0  0  0  0  0  0  0  0  0  0  0  0
  5  6  2  0  0  0
  6  9  1  0  0  0
  6  7  1  0  0  0
  9 14  1  0  0  0
  9 10  1  0  0  0
 10 11  1  0  0  0
 11 13  1  0  0  0
 11 12  2  0  0  0
 13 14  1  0  0  0
 13 15  1  0  0  0
 15 20  2  0  0  0
 15 16  1  0  0  0
 16 17  2  0  0  0
 17 18  1  0  0  0
 18 19  2  0  0  0
 19 20  1  0  0  0
  7  4  1  0  0  0
  4  1  1  0  0  0
  4 21  1  0  0  0
 21 22  1  0  0  0
 22 23  1  0  0  0
 22 25  2  0  0  0
 23 24  2  0  0  0
 24 27  1  0  0  0
 25 26  1  0  0  0
 26 27  2  0  0  0
  1 28  1  0  0  0
  1  2  1  0  0  0
 28 29  1  0  0  0
 29 46  1  0  0  0
 29 30  1  0  0  0
 30 31  1  0  0  0
 31 32  2  0  0  0
 31 34  1  0  0  0
 34 35  1  0  0  0
 34 43  1  0  0  0
 43 45  1  0  0  0
 43 44  1  0  0  0
 35 36  1  0  0  0
 35 38  1  0  0  0
 36 37  1  0  0  0
 37 41  1  0  0  0
 38 40  1  0  0  0
 38 39  2  0  0  0
 40 41  1  0  0  0
 46 47  1  0  0  0
 47 52  2  0  0  0
 47 48  1  0  0  0
 48 49  2  0  0  0
 49 50  1  0  0  0
 50 51  2  0  0  0
 51 52  1  0  0  0
  7  8  1  0  0  0
  2  3  1  0  0  0
 30 33  1  0  0  0
 40 42  1  0  0  0
M  END
> <minimizedAffinity>
-8.99527

$$$$
