1O5A_696_B_251
  RCSB PDB12061703303D
Coordinates from PDB:1O5A:B:251 Model:1 without hydrogens
 25 28  0  0  0  0            999 V2000
    8.8380    1.4080   24.7320   C 0  0  0  0  0  0  0  0  0  0  0  0
    9.5770    1.2570   23.5180   C 0  0  0  0  0  0  0  0  0  0  0  0
   10.1720    2.3630   22.8700   C 0  0  0  0  0  0  0  0  0  0  0  0
   10.0190    3.6070   23.4440   C 0  0  0  0  0  0  0  0  0  0  0  0
    9.3150    3.7560   24.6070   C 0  0  0  0  0  0  0  0  0  0  0  0
    8.7160    2.6960   25.2720   C 0  0  0  0  0  0  0  0  0  0  0  0
    8.2460    0.3110   25.4050   C 0  0  0  0  0  0  0  0  0  0  0  0
    7.8690    0.4230   26.6500   N 0  0  0  0  0  0  0  0  0  0  0  0
    8.0680   -0.8270   24.7980   N 0  3  0  0  0  0  0  0  0  0  0  0
   10.4730    4.7830   23.0820   N 0  0  0  0  0  0  0  0  0  0  0  0
    9.3530    5.0680   24.9460   C 0  0  0  0  0  0  0  0  0  0  0  0
   10.0970    5.6970   23.9540   C 0  0  0  0  0  0  0  0  0  0  0  0
   10.2890    7.0770   23.8120   C 0  0  0  0  0  0  0  0  0  0  0  0
    9.9050    7.9410   24.8400   C 0  0  0  0  0  0  0  0  0  0  0  0
   10.0830    9.3080   24.7200   C 0  0  0  0  0  0  0  0  0  0  0  0
   10.6510    9.8240   23.5680   C 0  0  0  0  0  0  0  0  0  0  0  0
   11.0550    8.9920   22.5170   C 0  0  0  0  0  0  0  0  0  0  0  0
   10.8670    7.6080   22.6410   C 0  0  0  0  0  0  0  0  0  0  0  0
   11.2590    6.7530   21.6380   O 0  5  0  0  0  0  0  0  0  0  0  0
   11.6950    9.6290   21.4470   C 0  0  0  0  0  0  0  0  0  0  0  0
   12.9140    9.1540   20.9830   C 0  0  0  0  0  0  0  0  0  0  0  0
   13.6140    9.8380   19.9820   C 0  0  0  0  0  0  0  0  0  0  0  0
   13.0840   10.9980   19.4470   C 0  0  0  0  0  0  0  0  0  0  0  0
   11.8650   11.4590   19.9100   C 0  0  0  0  0  0  0  0  0  0  0  0
   11.1790   10.7870   20.8920   C 0  0  0  0  0  0  0  0  0  0  0  0
  1  2  2  0  0  0  0
  1  6  1  0  0  0  0
  1  7  1  0  0  0  0
  2  3  1  0  0  0  0
  3  4  2  0  0  0  0
  4  5  1  0  0  0  0
  4 10  1  0  0  0  0
  5  6  2  0  0  0  0
  5 11  1  0  0  0  0
  7  8  1  0  0  0  0
  7  9  2  0  0  0  0
 10 12  1  0  0  0  0
 11 12  2  0  0  0  0
 12 13  1  0  0  0  0
 13 14  2  0  0  0  0
 13 18  1  0  0  0  0
 14 15  1  0  0  0  0
 15 16  2  0  0  0  0
 16 17  1  0  0  0  0
 17 18  2  0  0  0  0
 17 20  1  0  0  0  0
 18 19  1  0  0  0  0
 20 21  2  0  0  0  0
 20 25  1  0  0  0  0
 21 22  1  0  0  0  0
 22 23  2  0  0  0  0
 23 24  1  0  0  0  0
 24 25  2  0  0  0  0
M  CHG  2   9   1  19  -1
A    1
C1
A    2
C2
A    3
C3
A    4
C4
A    5
C5
A    6
C6
A    7
C7
A    8
N1
A    9
N2
A   10
N3
A   11
CN4
A   12
C8
A   13
C1'
A   14
C2'
A   15
C3'
A   16
C4'
A   17
C5'
A   18
C6'
A   19
O6'
A   20
C1B
A   21
C2B
A   22
C3B
A   23
C4B
A   24
C5B
A   25
C6B
M  END
>  <InstanceId>
1O5A_696_B_251

>  <ChemCompId>
696

>  <PdbId>
1O5A

>  <ChainId>
B

>  <ResidueNumber>
251

>  <InsertionCode>


>  <Model>
1

>  <AltIds>


>  <MissingHeavyAtoms>
0

>  <ObservedFormula>
C21 N3 O

>  <Name>
3-{5-[AMINO(IMINIO)METHYL]-1H-INDOL-2-YL}-1,1'-BIPHENYL-2-OLATE

>  <SystematicName>
2-[5-(amino-azaniumylidene-methyl)-1H-indol-2-yl]-6-phenyl-phenolate

>  <Synonyms>
CRA_8696

>  <Type>
NON-POLYMER

>  <Formula>
C21 H17 N3 O

>  <MolecularWeight>
327.379

>  <ModifiedDate>
2011-06-04

>  <Parent>


>  <OneLetterCode>


>  <SubcomponentList>


>  <AmbiguousFlag>
N

>  <InChI>
InChI=1S/C21H17N3O/c22-21(23)14-9-10-18-15(11-14)12-19(24-18)17-8-4-7-16(20(17)25)13-5-2-1-3-6-13/h1-12,24-25H,(H3,22,23)

>  <InChIKey>
GAVRMVQHHVMXFD-UHFFFAOYSA-N

>  <SMILES>
c1ccc(cc1)c2cccc(c2[O-])c3cc4cc(ccc4[nH]3)C(=[NH2+])N

$$$$
