1O5A_696_B_251


 30 33  0  0  0  0  0  0  0  0999 V2000
    8.6082    0.6329   24.8879 C   0  0  0  0  0  0  0  0  0  0  0  0
    8.9897    0.6594   23.5108 C   0  0  0  0  0  0  0  0  0  0  0  0
    9.3996    1.8547   22.8781 C   0  0  0  0  0  0  0  0  0  0  0  0
    9.4213    3.0094   23.6309 C   0  0  0  0  0  0  0  0  0  0  0  0
    9.0597    2.9884   24.9497 C   0  0  0  0  0  0  0  0  0  0  0  0
    8.6511    1.8363   25.6057 C   0  0  0  0  0  0  0  0  0  0  0  0
    9.7736    4.2335   23.3182 N   0  0  0  0  0  0  0  0  0  0  0  0
    9.2026    4.2458   25.4358 C   0  0  0  0  0  0  0  0  0  0  0  0
    9.6576    5.0167   24.3719 C   0  0  0  0  0  0  0  0  0  0  0  0
   10.0793    4.5241   22.4287 H   0  0  0  0  0  0  0  0  0  0  0  0
    8.2080   -0.5568   25.5448 C   0  0  0  0  0  0  0  0  0  0  0  0
    8.2451   -1.7028   24.9203 N   0  0  0  0  0  0  0  0  0  0  0  0
    7.7955   -0.5308   26.7794 N   0  0  0  0  0  0  0  0  0  0  0  0
    8.5538   -1.7446   23.9864 H   0  0  0  0  0  0  0  0  0  0  0  0
    7.9644   -2.5250   25.3833 H   0  0  0  0  0  0  0  0  0  0  0  0
    7.7598    0.3228   27.2687 H   0  0  0  0  0  0  0  0  0  0  0  0
    7.5193   -1.3648   27.2238 H   0  0  0  0  0  0  0  0  0  0  0  0
    9.8194    6.4078   24.3666 C   0  0  0  0  0  0  0  0  0  0  0  0
    8.8628    7.2206   24.9792 C   0  0  0  0  0  0  0  0  0  0  0  0
    9.0012    8.5974   24.9837 C   0  0  0  0  0  0  0  0  0  0  0  0
   10.1026    9.1748   24.3759 C   0  0  0  0  0  0  0  0  0  0  0  0
   11.0870    8.3957   23.7562 C   0  0  0  0  0  0  0  0  0  0  0  0
   10.9391    7.0013   23.7492 C   0  0  0  0  0  0  0  0  0  0  0  0
   11.8871    6.1972   23.1616 O   0  0  0  0  0  0  0  0  0  0  0  0
   12.1926    9.0947   23.2568 C   0  0  0  0  0  0  0  0  0  0  0  0
   12.2650    9.4091   21.9067 C   0  0  0  0  0  0  0  0  0  0  0  0
   13.4077   10.0180   21.3745 C   0  0  0  0  0  0  0  0  0  0  0  0
   14.4751   10.3126   22.2032 C   0  0  0  0  0  0  0  0  0  0  0  0
   14.3903   10.0030   23.5484 C   0  0  0  0  0  0  0  0  0  0  0  0
   13.2686    9.4057   24.0696 C   0  0  0  0  0  0  0  0  0  0  0  0
  1  2  2  0  0  0
  1  6  1  0  0  0
  1 11  1  0  0  0
  2  3  1  0  0  0
  3  4  2  0  0  0
  4  5  1  0  0  0
  4  7  1  0  0  0
  5  6  2  0  0  0
  5  8  1  0  0  0
 11 12  1  0  0  0
 11 13  2  0  0  0
  7  9  1  0  0  0
  8  9  2  0  0  0
  9 18  1  0  0  0
 18 19  2  0  0  0
 18 23  1  0  0  0
 19 20  1  0  0  0
 20 21  2  0  0  0
 21 22  1  0  0  0
 22 23  2  0  0  0
 22 25  1  0  0  0
 23 24  1  0  0  0
 25 26  2  0  0  0
 25 30  1  0  0  0
 26 27  1  0  0  0
 27 28  2  0  0  0
 28 29  1  0  0  0
 29 30  2  0  0  0
 12 14  1  0  0  0
 12 15  1  0  0  0
 13 16  1  0  0  0
 13 17  1  0  0  0
  7 10  1  0  0  0
M  CHG 1  13   1
M  CHG 1  24  -1
M  END
> <minimizedAffinity>
-9.63689

$$$$
1O5A_696_B_251


 30 33  0  0  0  0  0  0  0  0999 V2000
   14.3944    9.6385   22.6438 C   0  0  0  0  0  0  0  0  0  0  0  0
   14.0288    9.2710   21.3119 C   0  0  0  0  0  0  0  0  0  0  0  0
   12.9003    8.4619   21.0495 C   0  0  0  0  0  0  0  0  0  0  0  0
   12.1521    8.0290   22.1234 C   0  0  0  0  0  0  0  0  0  0  0  0
   12.4964    8.3803   23.3994 C   0  0  0  0  0  0  0  0  0  0  0  0
   13.5963    9.1715   23.6976 C   0  0  0  0  0  0  0  0  0  0  0  0
   11.0622    7.3012   22.1748 N   0  0  0  0  0  0  0  0  0  0  0  0
   11.5774    7.8406   24.2372 C   0  0  0  0  0  0  0  0  0  0  0  0
   10.6771    7.1577   23.4271 C   0  0  0  0  0  0  0  0  0  0  0  0
   10.6003    6.9189   21.3939 H   0  0  0  0  0  0  0  0  0  0  0  0
   15.5129   10.4602   22.9276 C   0  0  0  0  0  0  0  0  0  0  0  0
   15.3501   11.6355   23.4724 N   0  0  0  0  0  0  0  0  0  0  0  0
   16.7210   10.0616   22.6506 N   0  0  0  0  0  0  0  0  0  0  0  0
   14.4450   11.9561   23.6899 H   0  0  0  0  0  0  0  0  0  0  0  0
   16.1323   12.2011   23.6657 H   0  0  0  0  0  0  0  0  0  0  0  0
   16.8661    9.1789   22.2396 H   0  0  0  0  0  0  0  0  0  0  0  0
   17.4895   10.6431   22.8521 H   0  0  0  0  0  0  0  0  0  0  0  0
    9.6326    6.3322   23.8620 C   0  0  0  0  0  0  0  0  0  0  0  0
    8.3933    6.8910   24.1823 C   0  0  0  0  0  0  0  0  0  0  0  0
    7.3482    6.0947   24.6165 C   0  0  0  0  0  0  0  0  0  0  0  0
    7.5336    4.7278   24.7317 C   0  0  0  0  0  0  0  0  0  0  0  0
    8.7581    4.1276   24.4149 C   0  0  0  0  0  0  0  0  0  0  0  0
    9.8158    4.9396   23.9811 C   0  0  0  0  0  0  0  0  0  0  0  0
   11.0322    4.3911   23.6490 O   0  0  0  0  0  0  0  0  0  0  0  0
    8.7888    2.7298   24.4890 C   0  0  0  0  0  0  0  0  0  0  0  0
    9.0984    1.9800   23.3626 C   0  0  0  0  0  0  0  0  0  0  0  0
    9.0355    0.5818   23.3945 C   0  0  0  0  0  0  0  0  0  0  0  0
    8.6638   -0.0599   24.5619 C   0  0  0  0  0  0  0  0  0  0  0  0
    8.3651    0.6954   25.6813 C   0  0  0  0  0  0  0  0  0  0  0  0
    8.4274    2.0671   25.6489 C   0  0  0  0  0  0  0  0  0  0  0  0
  1  2  2  0  0  0
  1  6  1  0  0  0
  1 11  1  0  0  0
  2  3  1  0  0  0
  3  4  2  0  0  0
  4  5  1  0  0  0
  4  7  1  0  0  0
  5  6  2  0  0  0
  5  8  1  0  0  0
 11 12  1  0  0  0
 11 13  2  0  0  0
  7  9  1  0  0  0
  8  9  2  0  0  0
  9 18  1  0  0  0
 18 19  2  0  0  0
 18 23  1  0  0  0
 19 20  1  0  0  0
 20 21  2  0  0  0
 21 22  1  0  0  0
 22 23  2  0  0  0
 22 25  1  0  0  0
 23 24  1  0  0  0
 25 26  2  0  0  0
 25 30  1  0  0  0
 26 27  1  0  0  0
 27 28  2  0  0  0
 28 29  1  0  0  0
 29 30  2  0  0  0
 12 14  1  0  0  0
 12 15  1  0  0  0
 13 16  1  0  0  0
 13 17  1  0  0  0
  7 10  1  0  0  0
M  CHG 1  13   1
M  CHG 1  24  -1
M  END
> <minimizedAffinity>
-8.55467

$$$$
1O5A_696_B_251


 30 33  0  0  0  0  0  0  0  0999 V2000
   12.2665    9.8342   21.4596 C   0  0  0  0  0  0  0  0  0  0  0  0
   13.3440    8.8951   21.4609 C   0  0  0  0  0  0  0  0  0  0  0  0
   13.2320    7.6394   22.0995 C   0  0  0  0  0  0  0  0  0  0  0  0
   12.0436    7.3392   22.7303 C   0  0  0  0  0  0  0  0  0  0  0  0
   11.0089    8.2335   22.7295 C   0  0  0  0  0  0  0  0  0  0  0  0
   11.0804    9.4753   22.1152 C   0  0  0  0  0  0  0  0  0  0  0  0
   11.6579    6.2613   23.3703 N   0  0  0  0  0  0  0  0  0  0  0  0
    9.9728    7.6649   23.3935 C   0  0  0  0  0  0  0  0  0  0  0  0
   10.4176    6.4089   23.7909 C   0  0  0  0  0  0  0  0  0  0  0  0
   12.2125    5.4609   23.5150 H   0  0  0  0  0  0  0  0  0  0  0  0
   12.3528   11.0919   20.8136 C   0  0  0  0  0  0  0  0  0  0  0  0
   12.9093   12.1085   21.4149 N   0  0  0  0  0  0  0  0  0  0  0  0
   11.8795   11.2589   19.6123 N   0  0  0  0  0  0  0  0  0  0  0  0
   13.2736   12.0039   22.3235 H   0  0  0  0  0  0  0  0  0  0  0  0
   12.9646   12.9797   20.9597 H   0  0  0  0  0  0  0  0  0  0  0  0
   11.4559   10.5055   19.1410 H   0  0  0  0  0  0  0  0  0  0  0  0
   11.9451   12.1386   19.1752 H   0  0  0  0  0  0  0  0  0  0  0  0
    9.7343    5.5132   24.6230 C   0  0  0  0  0  0  0  0  0  0  0  0
    9.0653    5.9879   25.7535 C   0  0  0  0  0  0  0  0  0  0  0  0
    8.3861    5.1206   26.5908 C   0  0  0  0  0  0  0  0  0  0  0  0
    8.3678    3.7669   26.3022 C   0  0  0  0  0  0  0  0  0  0  0  0
    9.0205    3.2515   25.1760 C   0  0  0  0  0  0  0  0  0  0  0  0
    9.7124    4.1337   24.3339 C   0  0  0  0  0  0  0  0  0  0  0  0
   10.3582    3.6722   23.2110 O   0  0  0  0  0  0  0  0  0  0  0  0
    8.8522    1.8802   24.9485 C   0  0  0  0  0  0  0  0  0  0  0  0
    9.1231    1.3442   23.6971 C   0  0  0  0  0  0  0  0  0  0  0  0
    8.8647   -0.0046   23.4255 C   0  0  0  0  0  0  0  0  0  0  0  0
    8.3368   -0.8131   24.4157 C   0  0  0  0  0  0  0  0  0  0  0  0
    8.0779   -0.2719   25.6619 C   0  0  0  0  0  0  0  0  0  0  0  0
    8.3320    1.0515   25.9272 C   0  0  0  0  0  0  0  0  0  0  0  0
  1  2  2  0  0  0
  1  6  1  0  0  0
  1 11  1  0  0  0
  2  3  1  0  0  0
  3  4  2  0  0  0
  4  5  1  0  0  0
  4  7  1  0  0  0
  5  6  2  0  0  0
  5  8  1  0  0  0
 11 12  1  0  0  0
 11 13  2  0  0  0
  7  9  1  0  0  0
  8  9  2  0  0  0
  9 18  1  0  0  0
 18 19  2  0  0  0
 18 23  1  0  0  0
 19 20  1  0  0  0
 20 21  2  0  0  0
 21 22  1  0  0  0
 22 23  2  0  0  0
 22 25  1  0  0  0
 23 24  1  0  0  0
 25 26  2  0  0  0
 25 30  1  0  0  0
 26 27  1  0  0  0
 27 28  2  0  0  0
 28 29  1  0  0  0
 29 30  2  0  0  0
 12 14  1  0  0  0
 12 15  1  0  0  0
 13 16  1  0  0  0
 13 17  1  0  0  0
  7 10  1  0  0  0
M  CHG 1  13   1
M  CHG 1  24  -1
M  END
> <minimizedAffinity>
-8.53312

$$$$
1O5A_696_B_251


 30 33  0  0  0  0  0  0  0  0999 V2000
    8.5453    0.7401   24.9490 C   0  0  0  0  0  0  0  0  0  0  0  0
    9.2306    0.9785   23.7176 C   0  0  0  0  0  0  0  0  0  0  0  0
    9.5173    2.2881   23.2704 C   0  0  0  0  0  0  0  0  0  0  0  0
    9.1134    3.3433   24.0602 C   0  0  0  0  0  0  0  0  0  0  0  0
    8.4597    3.1200   25.2405 C   0  0  0  0  0  0  0  0  0  0  0  0
    8.1595    1.8506   25.7128 C   0  0  0  0  0  0  0  0  0  0  0  0
    9.2629    4.6375   23.9087 N   0  0  0  0  0  0  0  0  0  0  0  0
    8.2126    4.3258   25.8087 C   0  0  0  0  0  0  0  0  0  0  0  0
    8.7351    5.2733   24.9355 C   0  0  0  0  0  0  0  0  0  0  0  0
    9.7038    5.0698   23.1420 H   0  0  0  0  0  0  0  0  0  0  0  0
    8.2608   -0.5644   25.4224 C   0  0  0  0  0  0  0  0  0  0  0  0
    8.4872   -1.6064   24.6689 N   0  0  0  0  0  0  0  0  0  0  0  0
    7.7685   -0.7494   26.6134 N   0  0  0  0  0  0  0  0  0  0  0  0
    8.8592   -1.4887   23.7650 H   0  0  0  0  0  0  0  0  0  0  0  0
    8.2859   -2.5097   25.0047 H   0  0  0  0  0  0  0  0  0  0  0  0
    7.5903    0.0226   27.1978 H   0  0  0  0  0  0  0  0  0  0  0  0
    7.5744   -1.6613   26.9296 H   0  0  0  0  0  0  0  0  0  0  0  0
    8.5952    6.6628   25.0407 C   0  0  0  0  0  0  0  0  0  0  0  0
    8.4819    7.2561   26.3000 C   0  0  0  0  0  0  0  0  0  0  0  0
    8.3402    8.6267   26.4273 C   0  0  0  0  0  0  0  0  0  0  0  0
    8.3133    9.4185   25.2922 C   0  0  0  0  0  0  0  0  0  0  0  0
    8.4298    8.8641   24.0120 C   0  0  0  0  0  0  0  0  0  0  0  0
    8.5671    7.4741   23.8882 C   0  0  0  0  0  0  0  0  0  0  0  0
    8.6956    6.8882   22.6509 O   0  0  0  0  0  0  0  0  0  0  0  0
    8.4768    9.7793   22.9535 C   0  0  0  0  0  0  0  0  0  0  0  0
    7.3320   10.0501   22.2166 C   0  0  0  0  0  0  0  0  0  0  0  0
    7.3848   10.8851   21.0941 C   0  0  0  0  0  0  0  0  0  0  0  0
    8.5899   11.4491   20.7169 C   0  0  0  0  0  0  0  0  0  0  0  0
    9.7235   11.1799   21.4621 C   0  0  0  0  0  0  0  0  0  0  0  0
    9.6705   10.3607   22.5633 C   0  0  0  0  0  0  0  0  0  0  0  0
  1  2  2  0  0  0
  1  6  1  0  0  0
  1 11  1  0  0  0
  2  3  1  0  0  0
  3  4  2  0  0  0
  4  5  1  0  0  0
  4  7  1  0  0  0
  5  6  2  0  0  0
  5  8  1  0  0  0
 11 12  1  0  0  0
 11 13  2  0  0  0
  7  9  1  0  0  0
  8  9  2  0  0  0
  9 18  1  0  0  0
 18 19  2  0  0  0
 18 23  1  0  0  0
 19 20  1  0  0  0
 20 21  2  0  0  0
 21 22  1  0  0  0
 22 23  2  0  0  0
 22 25  1  0  0  0
 23 24  1  0  0  0
 25 26  2  0  0  0
 25 30  1  0  0  0
 26 27  1  0  0  0
 27 28  2  0  0  0
 28 29  1  0  0  0
 29 30  2  0  0  0
 12 14  1  0  0  0
 12 15  1  0  0  0
 13 16  1  0  0  0
 13 17  1  0  0  0
  7 10  1  0  0  0
M  CHG 1  13   1
M  CHG 1  24  -1
M  END
> <minimizedAffinity>
-8.03872

$$$$
1O5A_696_B_251


 30 33  0  0  0  0  0  0  0  0999 V2000
    8.6123    0.7799   24.7628 C   0  0  0  0  0  0  0  0  0  0  0  0
    8.4298    1.2893   26.0857 C   0  0  0  0  0  0  0  0  0  0  0  0
    8.6115    2.6586   26.3842 C   0  0  0  0  0  0  0  0  0  0  0  0
    8.9751    3.5013   25.3556 C   0  0  0  0  0  0  0  0  0  0  0  0
    9.1482    3.0189   24.0877 C   0  0  0  0  0  0  0  0  0  0  0  0
    8.9803    1.6825   23.7552 C   0  0  0  0  0  0  0  0  0  0  0  0
    9.1851    4.7958   25.3376 N   0  0  0  0  0  0  0  0  0  0  0  0
    9.4730    4.0656   23.2897 C   0  0  0  0  0  0  0  0  0  0  0  0
    9.4901    5.1840   24.1156 C   0  0  0  0  0  0  0  0  0  0  0  0
    9.1241    5.3894   26.1207 H   0  0  0  0  0  0  0  0  0  0  0  0
    8.4213   -0.5860   24.4394 C   0  0  0  0  0  0  0  0  0  0  0  0
    8.2999   -1.4795   25.3837 N   0  0  0  0  0  0  0  0  0  0  0  0
    8.3647   -0.9763   23.1986 N   0  0  0  0  0  0  0  0  0  0  0  0
    8.3397   -1.2057   26.3285 H   0  0  0  0  0  0  0  0  0  0  0  0
    8.1684   -2.4270   25.1509 H   0  0  0  0  0  0  0  0  0  0  0  0
    8.4540   -0.3189   22.4712 H   0  0  0  0  0  0  0  0  0  0  0  0
    8.2327   -1.9289   22.9877 H   0  0  0  0  0  0  0  0  0  0  0  0
    9.9065    6.4722   23.7570 C   0  0  0  0  0  0  0  0  0  0  0  0
   11.2467    6.7061   23.4411 C   0  0  0  0  0  0  0  0  0  0  0  0
   11.6805    7.9714   23.0866 C   0  0  0  0  0  0  0  0  0  0  0  0
   10.7740    9.0165   23.0423 C   0  0  0  0  0  0  0  0  0  0  0  0
    9.4210    8.8230   23.3457 C   0  0  0  0  0  0  0  0  0  0  0  0
    8.9875    7.5403   23.7101 C   0  0  0  0  0  0  0  0  0  0  0  0
    7.6658    7.3028   24.0057 O   0  0  0  0  0  0  0  0  0  0  0  0
    8.5932    9.9396   23.1779 C   0  0  0  0  0  0  0  0  0  0  0  0
    7.9365   10.1440   21.9721 C   0  0  0  0  0  0  0  0  0  0  0  0
    7.1863   11.3056   21.7542 C   0  0  0  0  0  0  0  0  0  0  0  0
    7.0954   12.2588   22.7521 C   0  0  0  0  0  0  0  0  0  0  0  0
    7.7464   12.0426   23.9530 C   0  0  0  0  0  0  0  0  0  0  0  0
    8.4821   10.9024   24.1658 C   0  0  0  0  0  0  0  0  0  0  0  0
  1  2  2  0  0  0
  1  6  1  0  0  0
  1 11  1  0  0  0
  2  3  1  0  0  0
  3  4  2  0  0  0
  4  5  1  0  0  0
  4  7  1  0  0  0
  5  6  2  0  0  0
  5  8  1  0  0  0
 11 12  1  0  0  0
 11 13  2  0  0  0
  7  9  1  0  0  0
  8  9  2  0  0  0
  9 18  1  0  0  0
 18 19  2  0  0  0
 18 23  1  0  0  0
 19 20  1  0  0  0
 20 21  2  0  0  0
 21 22  1  0  0  0
 22 23  2  0  0  0
 22 25  1  0  0  0
 23 24  1  0  0  0
 25 26  2  0  0  0
 25 30  1  0  0  0
 26 27  1  0  0  0
 27 28  2  0  0  0
 28 29  1  0  0  0
 29 30  2  0  0  0
 12 14  1  0  0  0
 12 15  1  0  0  0
 13 16  1  0  0  0
 13 17  1  0  0  0
  7 10  1  0  0  0
M  CHG 1  13   1
M  CHG 1  24  -1
M  END
> <minimizedAffinity>
-7.88752

$$$$
1O5A_696_B_251


 30 33  0  0  0  0  0  0  0  0999 V2000
    8.6461    1.7500   25.0167 C   0  0  0  0  0  0  0  0  0  0  0  0
    8.6842    2.3571   26.3101 C   0  0  0  0  0  0  0  0  0  0  0  0
    8.8465    3.7518   26.4697 C   0  0  0  0  0  0  0  0  0  0  0  0
    8.9702    4.5221   25.3331 C   0  0  0  0  0  0  0  0  0  0  0  0
    8.9317    3.9460   24.0934 C   0  0  0  0  0  0  0  0  0  0  0  0
    8.7750    2.5818   23.8956 C   0  0  0  0  0  0  0  0  0  0  0  0
    9.1059    5.8179   25.1828 N   0  0  0  0  0  0  0  0  0  0  0  0
    9.0493    4.9365   23.1753 C   0  0  0  0  0  0  0  0  0  0  0  0
    9.1600    6.1176   23.9005 C   0  0  0  0  0  0  0  0  0  0  0  0
    9.1594    6.4698   25.9186 H   0  0  0  0  0  0  0  0  0  0  0  0
    8.4700    0.3563   24.8342 C   0  0  0  0  0  0  0  0  0  0  0  0
    8.2264   -0.4198   25.8554 N   0  0  0  0  0  0  0  0  0  0  0  0
    8.5487   -0.1766   23.6488 N   0  0  0  0  0  0  0  0  0  0  0  0
    8.1629   -0.0373   26.7603 H   0  0  0  0  0  0  0  0  0  0  0  0
    8.1063   -1.3876   25.7206 H   0  0  0  0  0  0  0  0  0  0  0  0
    8.7316    0.3906   22.8653 H   0  0  0  0  0  0  0  0  0  0  0  0
    8.4253   -1.1468   23.5362 H   0  0  0  0  0  0  0  0  0  0  0  0
    9.4358    7.3875   23.3782 C   0  0  0  0  0  0  0  0  0  0  0  0
    8.3871    8.2679   23.1027 C   0  0  0  0  0  0  0  0  0  0  0  0
    8.6363    9.5263   22.5840 C   0  0  0  0  0  0  0  0  0  0  0  0
    9.9412    9.9172   22.3382 C   0  0  0  0  0  0  0  0  0  0  0  0
   11.0210    9.0673   22.6059 C   0  0  0  0  0  0  0  0  0  0  0  0
   10.7628    7.7909   23.1259 C   0  0  0  0  0  0  0  0  0  0  0  0
   11.7937    6.9278   23.4139 O   0  0  0  0  0  0  0  0  0  0  0  0
   12.2930    9.6136   22.3966 C   0  0  0  0  0  0  0  0  0  0  0  0
   12.8369   10.4872   23.3282 C   0  0  0  0  0  0  0  0  0  0  0  0
   14.0625   11.1191   23.0859 C   0  0  0  0  0  0  0  0  0  0  0  0
   14.7405   10.8680   21.9069 C   0  0  0  0  0  0  0  0  0  0  0  0
   14.1945    9.9899   20.9884 C   0  0  0  0  0  0  0  0  0  0  0  0
   12.9922    9.3703   21.2273 C   0  0  0  0  0  0  0  0  0  0  0  0
  1  2  2  0  0  0
  1  6  1  0  0  0
  1 11  1  0  0  0
  2  3  1  0  0  0
  3  4  2  0  0  0
  4  5  1  0  0  0
  4  7  1  0  0  0
  5  6  2  0  0  0
  5  8  1  0  0  0
 11 12  1  0  0  0
 11 13  2  0  0  0
  7  9  1  0  0  0
  8  9  2  0  0  0
  9 18  1  0  0  0
 18 19  2  0  0  0
 18 23  1  0  0  0
 19 20  1  0  0  0
 20 21  2  0  0  0
 21 22  1  0  0  0
 22 23  2  0  0  0
 22 25  1  0  0  0
 23 24  1  0  0  0
 25 26  2  0  0  0
 25 30  1  0  0  0
 26 27  1  0  0  0
 27 28  2  0  0  0
 28 29  1  0  0  0
 29 30  2  0  0  0
 12 14  1  0  0  0
 12 15  1  0  0  0
 13 16  1  0  0  0
 13 17  1  0  0  0
  7 10  1  0  0  0
M  CHG 1  13   1
M  CHG 1  24  -1
M  END
> <minimizedAffinity>
-7.71170

$$$$
1O5A_696_B_251


 30 33  0  0  0  0  0  0  0  0999 V2000
    9.8009   11.4495   21.1746 C   0  0  0  0  0  0  0  0  0  0  0  0
   11.1353   10.9400   21.1248 C   0  0  0  0  0  0  0  0  0  0  0  0
   11.5042    9.7600   21.8094 C   0  0  0  0  0  0  0  0  0  0  0  0
   10.5335    9.1050   22.5369 C   0  0  0  0  0  0  0  0  0  0  0  0
    9.2547    9.5873   22.5853 C   0  0  0  0  0  0  0  0  0  0  0  0
    8.8542   10.7417   21.9283 C   0  0  0  0  0  0  0  0  0  0  0  0
   10.5845    7.9977   23.2378 N   0  0  0  0  0  0  0  0  0  0  0  0
    8.5216    8.7349   23.3428 C   0  0  0  0  0  0  0  0  0  0  0  0
    9.3973    7.7328   23.7454 C   0  0  0  0  0  0  0  0  0  0  0  0
   11.3899    7.4462   23.3658 H   0  0  0  0  0  0  0  0  0  0  0  0
    9.4069   12.6222   20.4844 C   0  0  0  0  0  0  0  0  0  0  0  0
   10.0134   12.9786   19.3844 N   0  0  0  0  0  0  0  0  0  0  0  0
    8.4367   13.3660   20.9323 N   0  0  0  0  0  0  0  0  0  0  0  0
   10.7496   12.4304   19.0284 H   0  0  0  0  0  0  0  0  0  0  0  0
    9.7345   13.7955   18.9110 H   0  0  0  0  0  0  0  0  0  0  0  0
    7.9661   13.1154   21.7599 H   0  0  0  0  0  0  0  0  0  0  0  0
    8.1736   14.1790   20.4433 H   0  0  0  0  0  0  0  0  0  0  0  0
    9.1180    6.7046   24.6543 C   0  0  0  0  0  0  0  0  0  0  0  0
    8.7924    7.0158   25.9764 C   0  0  0  0  0  0  0  0  0  0  0  0
    8.5153    6.0159   26.8919 C   0  0  0  0  0  0  0  0  0  0  0  0
    8.5590    4.6918   26.4908 C   0  0  0  0  0  0  0  0  0  0  0  0
    8.8752    4.3377   25.1738 C   0  0  0  0  0  0  0  0  0  0  0  0
    9.1610    5.3544   24.2514 C   0  0  0  0  0  0  0  0  0  0  0  0
    9.4657    5.0525   22.9449 O   0  0  0  0  0  0  0  0  0  0  0  0
    8.7991    2.9720   24.8749 C   0  0  0  0  0  0  0  0  0  0  0  0
    8.3048    2.0802   25.8168 C   0  0  0  0  0  0  0  0  0  0  0  0
    8.3154    0.7019   25.5716 C   0  0  0  0  0  0  0  0  0  0  0  0
    8.8209    0.2234   24.3765 C   0  0  0  0  0  0  0  0  0  0  0  0
    9.3037    1.1202   23.4408 C   0  0  0  0  0  0  0  0  0  0  0  0
    9.2926    2.4723   23.6824 C   0  0  0  0  0  0  0  0  0  0  0  0
  1  2  2  0  0  0
  1  6  1  0  0  0
  1 11  1  0  0  0
  2  3  1  0  0  0
  3  4  2  0  0  0
  4  5  1  0  0  0
  4  7  1  0  0  0
  5  6  2  0  0  0
  5  8  1  0  0  0
 11 12  1  0  0  0
 11 13  2  0  0  0
  7  9  1  0  0  0
  8  9  2  0  0  0
  9 18  1  0  0  0
 18 19  2  0  0  0
 18 23  1  0  0  0
 19 20  1  0  0  0
 20 21  2  0  0  0
 21 22  1  0  0  0
 22 23  2  0  0  0
 22 25  1  0  0  0
 23 24  1  0  0  0
 25 26  2  0  0  0
 25 30  1  0  0  0
 26 27  1  0  0  0
 27 28  2  0  0  0
 28 29  1  0  0  0
 29 30  2  0  0  0
 12 14  1  0  0  0
 12 15  1  0  0  0
 13 16  1  0  0  0
 13 17  1  0  0  0
  7 10  1  0  0  0
M  CHG 1  13   1
M  CHG 1  24  -1
M  END
> <minimizedAffinity>
-7.52302

$$$$
1O5A_696_B_251


 30 33  0  0  0  0  0  0  0  0999 V2000
    9.5855   10.7113   21.8251 C   0  0  0  0  0  0  0  0  0  0  0  0
    8.1781   10.5329   21.6516 C   0  0  0  0  0  0  0  0  0  0  0  0
    7.4785    9.4876   22.2957 C   0  0  0  0  0  0  0  0  0  0  0  0
    8.1961    8.6324   23.1045 C   0  0  0  0  0  0  0  0  0  0  0  0
    9.5425    8.8008   23.2757 C   0  0  0  0  0  0  0  0  0  0  0  0
   10.2644    9.8132   22.6605 C   0  0  0  0  0  0  0  0  0  0  0  0
    7.8118    7.6096   23.8300 N   0  0  0  0  0  0  0  0  0  0  0  0
    9.9714    7.8426   24.1334 C   0  0  0  0  0  0  0  0  0  0  0  0
    8.8457    7.0982   24.4678 C   0  0  0  0  0  0  0  0  0  0  0  0
    6.8883    7.2737   23.8894 H   0  0  0  0  0  0  0  0  0  0  0  0
   10.3032   11.7607   21.2002 C   0  0  0  0  0  0  0  0  0  0  0  0
   10.7789   12.7502   21.9069 N   0  0  0  0  0  0  0  0  0  0  0  0
   10.5008   11.7601   19.9133 N   0  0  0  0  0  0  0  0  0  0  0  0
   10.6407   12.7701   22.8814 H   0  0  0  0  0  0  0  0  0  0  0  0
   11.2757   13.4763   21.4652 H   0  0  0  0  0  0  0  0  0  0  0  0
   10.1506   11.0235   19.3619 H   0  0  0  0  0  0  0  0  0  0  0  0
   11.0004   12.4961   19.4916 H   0  0  0  0  0  0  0  0  0  0  0  0
    8.8267    5.9194   25.2238 C   0  0  0  0  0  0  0  0  0  0  0  0
    8.7372    5.9885   26.6159 C   0  0  0  0  0  0  0  0  0  0  0  0
    8.7195    4.8367   27.3826 C   0  0  0  0  0  0  0  0  0  0  0  0
    8.7885    3.6018   26.7613 C   0  0  0  0  0  0  0  0  0  0  0  0
    8.8730    3.4888   25.3684 C   0  0  0  0  0  0  0  0  0  0  0  0
    8.8967    4.6590   24.5963 C   0  0  0  0  0  0  0  0  0  0  0  0
    8.9680    4.5945   23.2246 O   0  0  0  0  0  0  0  0  0  0  0  0
    8.8476    2.1844   24.8602 C   0  0  0  0  0  0  0  0  0  0  0  0
    9.2052    1.9449   23.5405 C   0  0  0  0  0  0  0  0  0  0  0  0
    9.0892    0.6632   22.9893 C   0  0  0  0  0  0  0  0  0  0  0  0
    8.6162   -0.3766   23.7689 C   0  0  0  0  0  0  0  0  0  0  0  0
    8.2701   -0.1299   25.0850 C   0  0  0  0  0  0  0  0  0  0  0  0
    8.3846    1.1279   25.6248 C   0  0  0  0  0  0  0  0  0  0  0  0
  1  2  2  0  0  0
  1  6  1  0  0  0
  1 11  1  0  0  0
  2  3  1  0  0  0
  3  4  2  0  0  0
  4  5  1  0  0  0
  4  7  1  0  0  0
  5  6  2  0  0  0
  5  8  1  0  0  0
 11 12  1  0  0  0
 11 13  2  0  0  0
  7  9  1  0  0  0
  8  9  2  0  0  0
  9 18  1  0  0  0
 18 19  2  0  0  0
 18 23  1  0  0  0
 19 20  1  0  0  0
 20 21  2  0  0  0
 21 22  1  0  0  0
 22 23  2  0  0  0
 22 25  1  0  0  0
 23 24  1  0  0  0
 25 26  2  0  0  0
 25 30  1  0  0  0
 26 27  1  0  0  0
 27 28  2  0  0  0
 28 29  1  0  0  0
 29 30  2  0  0  0
 12 14  1  0  0  0
 12 15  1  0  0  0
 13 16  1  0  0  0
 13 17  1  0  0  0
  7 10  1  0  0  0
M  CHG 1  13   1
M  CHG 1  24  -1
M  END
> <minimizedAffinity>
-7.16256

$$$$
1O5A_696_B_251


 30 33  0  0  0  0  0  0  0  0999 V2000
    8.4202    4.2121   25.5385 C   0  0  0  0  0  0  0  0  0  0  0  0
    8.5459    3.7398   24.1954 C   0  0  0  0  0  0  0  0  0  0  0  0
    9.0729    4.5560   23.1690 C   0  0  0  0  0  0  0  0  0  0  0  0
    9.4663    5.8353   23.4989 C   0  0  0  0  0  0  0  0  0  0  0  0
    9.3504    6.2907   24.7833 C   0  0  0  0  0  0  0  0  0  0  0  0
    8.8377    5.5210   25.8174 C   0  0  0  0  0  0  0  0  0  0  0  0
   10.0011    6.7856   22.7701 N   0  0  0  0  0  0  0  0  0  0  0  0
    9.8336    7.5568   24.8164 C   0  0  0  0  0  0  0  0  0  0  0  0
   10.2394    7.8444   23.5180 C   0  0  0  0  0  0  0  0  0  0  0  0
   10.1956    6.7180   21.8074 H   0  0  0  0  0  0  0  0  0  0  0  0
    7.9081    3.4058   26.5847 C   0  0  0  0  0  0  0  0  0  0  0  0
    7.8842    2.1057   26.4679 N   0  0  0  0  0  0  0  0  0  0  0  0
    7.4515    3.9435   27.6791 N   0  0  0  0  0  0  0  0  0  0  0  0
    8.2246    1.6787   25.6487 H   0  0  0  0  0  0  0  0  0  0  0  0
    7.5259    1.5522   27.1990 H   0  0  0  0  0  0  0  0  0  0  0  0
    7.4603    4.9220   27.7876 H   0  0  0  0  0  0  0  0  0  0  0  0
    7.0975    3.3716   28.3980 H   0  0  0  0  0  0  0  0  0  0  0  0
   10.6804    9.0862   23.0438 C   0  0  0  0  0  0  0  0  0  0  0  0
    9.7621   10.1196   22.8450 C   0  0  0  0  0  0  0  0  0  0  0  0
   10.1753   11.3537   22.3748 C   0  0  0  0  0  0  0  0  0  0  0  0
   11.5154   11.5663   22.1011 C   0  0  0  0  0  0  0  0  0  0  0  0
   12.4686   10.5589   22.2925 C   0  0  0  0  0  0  0  0  0  0  0  0
   12.0440    9.3083   22.7634 C   0  0  0  0  0  0  0  0  0  0  0  0
   12.9475    8.2938   22.9761 O   0  0  0  0  0  0  0  0  0  0  0  0
   13.7996   10.9280   22.0634 C   0  0  0  0  0  0  0  0  0  0  0  0
   14.6380   11.2080   23.1337 C   0  0  0  0  0  0  0  0  0  0  0  0
   15.9403   11.6747   22.9190 C   0  0  0  0  0  0  0  0  0  0  0  0
   16.3980   11.8558   21.6266 C   0  0  0  0  0  0  0  0  0  0  0  0
   15.5581   11.5663   20.5666 C   0  0  0  0  0  0  0  0  0  0  0  0
   14.2807   11.1083   20.7783 C   0  0  0  0  0  0  0  0  0  0  0  0
  1  2  2  0  0  0
  1  6  1  0  0  0
  1 11  1  0  0  0
  2  3  1  0  0  0
  3  4  2  0  0  0
  4  5  1  0  0  0
  4  7  1  0  0  0
  5  6  2  0  0  0
  5  8  1  0  0  0
 11 12  1  0  0  0
 11 13  2  0  0  0
  7  9  1  0  0  0
  8  9  2  0  0  0
  9 18  1  0  0  0
 18 19  2  0  0  0
 18 23  1  0  0  0
 19 20  1  0  0  0
 20 21  2  0  0  0
 21 22  1  0  0  0
 22 23  2  0  0  0
 22 25  1  0  0  0
 23 24  1  0  0  0
 25 26  2  0  0  0
 25 30  1  0  0  0
 26 27  1  0  0  0
 27 28  2  0  0  0
 28 29  1  0  0  0
 29 30  2  0  0  0
 12 14  1  0  0  0
 12 15  1  0  0  0
 13 16  1  0  0  0
 13 17  1  0  0  0
  7 10  1  0  0  0
M  CHG 1  13   1
M  CHG 1  24  -1
M  END
> <minimizedAffinity>
-7.06367

$$$$
1O5A_696_B_251


 30 33  0  0  0  0  0  0  0  0999 V2000
   14.4809    9.6724   22.3401 C   0  0  0  0  0  0  0  0  0  0  0  0
   13.7441    9.6981   21.1157 C   0  0  0  0  0  0  0  0  0  0  0  0
   12.5334    8.9850   20.9641 C   0  0  0  0  0  0  0  0  0  0  0  0
   12.0755    8.2537   22.0392 C   0  0  0  0  0  0  0  0  0  0  0  0
   12.7757    8.2283   23.2137 C   0  0  0  0  0  0  0  0  0  0  0  0
   13.9674    8.9135   23.4011 C   0  0  0  0  0  0  0  0  0  0  0  0
   10.9924    7.5291   22.1879 N   0  0  0  0  0  0  0  0  0  0  0  0
   12.0825    7.4605   24.0898 C   0  0  0  0  0  0  0  0  0  0  0  0
   10.9515    7.0280   23.4062 C   0  0  0  0  0  0  0  0  0  0  0  0
   10.3112    7.3815   21.4927 H   0  0  0  0  0  0  0  0  0  0  0  0
   15.6887   10.3911   22.5177 C   0  0  0  0  0  0  0  0  0  0  0  0
   15.6796   11.6949   22.5861 N   0  0  0  0  0  0  0  0  0  0  0  0
   16.8279    9.7681   22.6144 N   0  0  0  0  0  0  0  0  0  0  0  0
   14.8290   12.1856   22.5153 H   0  0  0  0  0  0  0  0  0  0  0  0
   16.5232   12.1874   22.7086 H   0  0  0  0  0  0  0  0  0  0  0  0
   16.8571    8.7853   22.5654 H   0  0  0  0  0  0  0  0  0  0  0  0
   17.6600   10.2799   22.7366 H   0  0  0  0  0  0  0  0  0  0  0  0
   10.0090    6.1005   23.8675 C   0  0  0  0  0  0  0  0  0  0  0  0
   10.3643    4.7561   23.9987 C   0  0  0  0  0  0  0  0  0  0  0  0
    9.4484    3.8222   24.4500 C   0  0  0  0  0  0  0  0  0  0  0  0
    8.1659    4.2267   24.7776 C   0  0  0  0  0  0  0  0  0  0  0  0
    7.7714    5.5654   24.6660 C   0  0  0  0  0  0  0  0  0  0  0  0
    8.7014    6.5069   24.2026 C   0  0  0  0  0  0  0  0  0  0  0  0
    8.3602    7.8340   24.0879 O   0  0  0  0  0  0  0  0  0  0  0  0
    6.4769    5.8584   25.1118 C   0  0  0  0  0  0  0  0  0  0  0  0
    5.4166    5.8612   24.2160 C   0  0  0  0  0  0  0  0  0  0  0  0
    4.1354    6.2495   24.6254 C   0  0  0  0  0  0  0  0  0  0  0  0
    3.9227    6.6315   25.9375 C   0  0  0  0  0  0  0  0  0  0  0  0
    4.9836    6.6176   26.8247 C   0  0  0  0  0  0  0  0  0  0  0  0
    6.2402    6.2363   26.4219 C   0  0  0  0  0  0  0  0  0  0  0  0
  1  2  2  0  0  0
  1  6  1  0  0  0
  1 11  1  0  0  0
  2  3  1  0  0  0
  3  4  2  0  0  0
  4  5  1  0  0  0
  4  7  1  0  0  0
  5  6  2  0  0  0
  5  8  1  0  0  0
 11 12  1  0  0  0
 11 13  2  0  0  0
  7  9  1  0  0  0
  8  9  2  0  0  0
  9 18  1  0  0  0
 18 19  2  0  0  0
 18 23  1  0  0  0
 19 20  1  0  0  0
 20 21  2  0  0  0
 21 22  1  0  0  0
 22 23  2  0  0  0
 22 25  1  0  0  0
 23 24  1  0  0  0
 25 26  2  0  0  0
 25 30  1  0  0  0
 26 27  1  0  0  0
 27 28  2  0  0  0
 28 29  1  0  0  0
 29 30  2  0  0  0
 12 14  1  0  0  0
 12 15  1  0  0  0
 13 16  1  0  0  0
 13 17  1  0  0  0
  7 10  1  0  0  0
M  CHG 1  13   1
M  CHG 1  24  -1
M  END
> <minimizedAffinity>
-7.06144

$$$$
