5JOX_EDG_A_601
  RCSB PDB12061718283D
Coordinates from PDB:5JOX:A:601 Model:1 without hydrogens
  9  9  0  0  0  0            999 V2000
  306.0500  219.8570  329.5000   O 0  0  0  0  0  0  0  0  0  0  0  0
  305.1480  220.1800  330.5350   C 0  0  0  0  0  0  0  0  0  0  0  0
  304.3600  218.9280  330.9110   C 0  0  0  0  0  0  0  0  0  0  0  0
  304.4610  218.8340  332.3560   N 0  0  0  0  0  0  0  0  0  0  0  0
  305.8660  220.5960  331.8230   C 0  0  0  0  0  0  0  0  0  0  0  0
  306.0680  221.9960  331.9270   O 0  0  0  0  0  0  0  0  0  0  0  0
  304.9140  220.1200  332.9170   C 0  0  0  0  0  0  0  0  0  0  0  0
  305.5420  219.9870  334.2890   C 0  0  0  0  0  0  0  0  0  0  0  0
  306.4780  218.9190  334.3550   O 0  0  0  0  0  0  0  0  0  0  0  0
  1  2  1  0  0  0  0
  2  3  1  0  0  0  0
  2  5  1  0  0  0  0
  3  4  1  0  0  0  0
  4  7  1  0  0  0  0
  5  6  1  0  0  0  0
  5  7  1  0  0  0  0
  7  8  1  0  0  0  0
  8  9  1  0  0  0  0
A    1
O2'
A    2
C2'
A    3
C1'
A    4
N4'
A    5
C3'
A    6
O3'
A    7
C4'
A    8
C5'
A    9
O5'
M  END
>  <InstanceId>
5JOX_EDG_A_601

>  <ChemCompId>
EDG

>  <PdbId>
5JOX

>  <ChainId>
A

>  <ResidueNumber>
601

>  <InsertionCode>


>  <Model>
1

>  <AltIds>


>  <MissingHeavyAtoms>
0

>  <ObservedFormula>
C5 N O3

>  <Name>
1,4-DIDEOXY-1,4-IMINO-L-ARABINITOL

>  <SystematicName>
(2S,3S,4S)-2-(hydroxymethyl)pyrrolidine-3,4-diol

>  <Synonyms>


>  <Type>
non-polymer

>  <Formula>
C5 H11 N O3

>  <MolecularWeight>
133.146

>  <ModifiedDate>
2011-07-08

>  <Parent>


>  <OneLetterCode>


>  <SubcomponentList>


>  <AmbiguousFlag>
N

>  <InChI>
InChI=1S/C5H11NO3/c7-2-3-5(9)4(8)1-6-3/h3-9H,1-2H2/t3-,4-,5-/m0/s1

>  <InChIKey>
OQEBIHBLFRADNM-YUPRTTJUSA-N

>  <SMILES>
C1[C@@H]([C@H]([C@@H](N1)CO)O)O

$$$$
