1ZFQ_ZEC_A_300


 17 18  0  0  0  0  0  0  0  0999 V2000
   15.6694    2.2163   18.1178 O   0  0  0  0  0  0  0  0  0  0  0  0
   15.6665    2.9541   16.9343 C   0  0  0  0  0  0  0  0  0  0  0  0
   16.4215    2.5032   15.8397 C   0  0  0  0  0  0  0  0  0  0  0  0
   16.3390    3.3156   14.7044 C   0  0  0  0  0  0  0  0  0  0  0  0
   17.1823    2.9268   13.2244 S   0  0  0  0  0  0  0  0  0  0  0  0
   16.4359    4.4594   12.6009 C   0  0  0  0  0  0  0  0  0  0  0  0
   15.6836    5.0798   13.4143 N   0  0  0  0  0  0  0  0  0  0  0  0
   15.5939    4.4789   14.6330 C   0  0  0  0  0  0  0  0  0  0  0  0
   14.8554    4.9315   15.7196 C   0  0  0  0  0  0  0  0  0  0  0  0
   14.9177    4.1292   16.8602 C   0  0  0  0  0  0  0  0  0  0  0  0
   16.1695    1.4261   18.1759 H   0  0  0  0  0  0  0  0  0  0  0  0
   16.8561    4.9291   10.9464 S   0  0  0  0  0  0  0  0  0  0  0  0
   16.4358    3.8140   10.0371 N   0  0  0  0  0  0  0  0  0  0  0  0
   18.3039    5.0758   10.9572 O   0  0  0  0  0  0  0  0  0  0  0  0
   16.0642    6.1257   10.6820 O   0  0  0  0  0  0  0  0  0  0  0  0
   16.9973    2.9854   10.2333 H   0  0  0  0  0  0  0  0  0  0  0  0
   16.5738    4.0962    9.0667 H   0  0  0  0  0  0  0  0  0  0  0  0
  1  2  1  0  0  0
  2  3  2  0  0  0
  2 10  1  0  0  0
  3  4  1  0  0  0
  4  5  1  0  0  0
  4  8  2  0  0  0
  5  6  1  0  0  0
  6 12  1  0  0  0
  6  7  2  0  0  0
 12 13  1  0  0  0
 12 14  2  0  0  0
 12 15  2  0  0  0
  7  8  1  0  0  0
  8  9  1  0  0  0
  9 10  2  0  0  0
  1 11  1  0  0  0
 13 16  1  0  0  0
 13 17  1  0  0  0
M  END
> <minimizedAffinity>
-6.72635

$$$$
1ZFQ_ZEC_A_300


 17 18  0  0  0  0  0  0  0  0999 V2000
   14.0780    5.0917   16.8955 O   0  0  0  0  0  0  0  0  0  0  0  0
   14.9325    4.4446   16.0032 C   0  0  0  0  0  0  0  0  0  0  0  0
   15.2132    5.0407   14.7633 C   0  0  0  0  0  0  0  0  0  0  0  0
   16.0867    4.3089   13.9526 C   0  0  0  0  0  0  0  0  0  0  0  0
   16.5860    4.8794   12.3785 S   0  0  0  0  0  0  0  0  0  0  0  0
   17.5370    3.3347   12.3125 C   0  0  0  0  0  0  0  0  0  0  0  0
   17.4570    2.5910   13.3386 N   0  0  0  0  0  0  0  0  0  0  0  0
   16.6392    3.0910   14.3059 C   0  0  0  0  0  0  0  0  0  0  0  0
   16.3530    2.4953   15.5282 C   0  0  0  0  0  0  0  0  0  0  0  0
   15.4895    3.2148   16.3559 C   0  0  0  0  0  0  0  0  0  0  0  0
   13.6997    5.9178   16.6665 H   0  0  0  0  0  0  0  0  0  0  0  0
   18.4454    3.0267   10.8244 S   0  0  0  0  0  0  0  0  0  0  0  0
   17.7372    1.9370   10.0774 N   0  0  0  0  0  0  0  0  0  0  0  0
   19.7569    2.5840   11.2735 O   0  0  0  0  0  0  0  0  0  0  0  0
   18.3812    4.2787   10.0780 O   0  0  0  0  0  0  0  0  0  0  0  0
   17.7904    1.0691   10.6106 H   0  0  0  0  0  0  0  0  0  0  0  0
   18.1799    1.8050    9.1680 H   0  0  0  0  0  0  0  0  0  0  0  0
  1  2  1  0  0  0
  2  3  2  0  0  0
  2 10  1  0  0  0
  3  4  1  0  0  0
  4  5  1  0  0  0
  4  8  2  0  0  0
  5  6  1  0  0  0
  6 12  1  0  0  0
  6  7  2  0  0  0
 12 13  1  0  0  0
 12 14  2  0  0  0
 12 15  2  0  0  0
  7  8  1  0  0  0
  8  9  1  0  0  0
  9 10  2  0  0  0
  1 11  1  0  0  0
 13 16  1  0  0  0
 13 17  1  0  0  0
M  END
> <minimizedAffinity>
-6.35225

$$$$
1ZFQ_ZEC_A_300


 17 18  0  0  0  0  0  0  0  0999 V2000
   17.1143    8.7286   12.5508 O   0  0  0  0  0  0  0  0  0  0  0  0
   17.1043    7.5909   13.3573 C   0  0  0  0  0  0  0  0  0  0  0  0
   15.8803    7.0960   13.8351 C   0  0  0  0  0  0  0  0  0  0  0  0
   15.9883    5.9483   14.6268 C   0  0  0  0  0  0  0  0  0  0  0  0
   14.5864    5.1559   15.3048 S   0  0  0  0  0  0  0  0  0  0  0  0
   15.7964    4.0036   16.0138 C   0  0  0  0  0  0  0  0  0  0  0  0
   17.0121    4.2307   15.7259 N   0  0  0  0  0  0  0  0  0  0  0  0
   17.1852    5.3309   14.9422 C   0  0  0  0  0  0  0  0  0  0  0  0
   18.3978    5.8266   14.4788 C   0  0  0  0  0  0  0  0  0  0  0  0
   18.3104    6.9673   13.6790 C   0  0  0  0  0  0  0  0  0  0  0  0
   16.3088    9.1534   12.3300 H   0  0  0  0  0  0  0  0  0  0  0  0
   15.1535    2.7131   17.0414 S   0  0  0  0  0  0  0  0  0  0  0  0
   13.6597    2.7367   16.9189 N   0  0  0  0  0  0  0  0  0  0  0  0
   15.5720    3.0671   18.3894 O   0  0  0  0  0  0  0  0  0  0  0  0
   15.6899    1.4794   16.4765 O   0  0  0  0  0  0  0  0  0  0  0  0
   13.2995    3.6038   17.3174 H   0  0  0  0  0  0  0  0  0  0  0  0
   13.2648    1.9417   17.4213 H   0  0  0  0  0  0  0  0  0  0  0  0
  1  2  1  0  0  0
  2  3  2  0  0  0
  2 10  1  0  0  0
  3  4  1  0  0  0
  4  5  1  0  0  0
  4  8  2  0  0  0
  5  6  1  0  0  0
  6 12  1  0  0  0
  6  7  2  0  0  0
 12 13  1  0  0  0
 12 14  2  0  0  0
 12 15  2  0  0  0
  7  8  1  0  0  0
  8  9  1  0  0  0
  9 10  2  0  0  0
  1 11  1  0  0  0
 13 16  1  0  0  0
 13 17  1  0  0  0
M  END
> <minimizedAffinity>
-6.17423

$$$$
1ZFQ_ZEC_A_300


 17 18  0  0  0  0  0  0  0  0999 V2000
   15.3844    1.3943   17.4527 O   0  0  0  0  0  0  0  0  0  0  0  0
   15.2690    2.6081   16.7757 C   0  0  0  0  0  0  0  0  0  0  0  0
   16.1341    2.8843   15.7047 C   0  0  0  0  0  0  0  0  0  0  0  0
   15.9240    4.1253   15.0950 C   0  0  0  0  0  0  0  0  0  0  0  0
   16.8751    4.6589   13.7299 S   0  0  0  0  0  0  0  0  0  0  0  0
   15.8528    6.1558   13.8245 C   0  0  0  0  0  0  0  0  0  0  0  0
   14.9648    6.1635   14.7322 N   0  0  0  0  0  0  0  0  0  0  0  0
   14.9607    5.0344   15.4935 C   0  0  0  0  0  0  0  0  0  0  0  0
   14.1117    4.7662   16.5603 C   0  0  0  0  0  0  0  0  0  0  0  0
   14.2997    3.5281   17.1769 C   0  0  0  0  0  0  0  0  0  0  0  0
   16.0327    0.7709   17.1896 H   0  0  0  0  0  0  0  0  0  0  0  0
   16.2208    7.4410   12.6638 S   0  0  0  0  0  0  0  0  0  0  0  0
   17.3730    8.2295   13.2096 N   0  0  0  0  0  0  0  0  0  0  0  0
   15.0132    8.2512   12.6099 O   0  0  0  0  0  0  0  0  0  0  0  0
   16.6146    6.7449   11.4435 O   0  0  0  0  0  0  0  0  0  0  0  0
   17.0830    8.7099   14.0614 H   0  0  0  0  0  0  0  0  0  0  0  0
   17.6734    8.9159   12.5175 H   0  0  0  0  0  0  0  0  0  0  0  0
  1  2  1  0  0  0
  2  3  2  0  0  0
  2 10  1  0  0  0
  3  4  1  0  0  0
  4  5  1  0  0  0
  4  8  2  0  0  0
  5  6  1  0  0  0
  6 12  1  0  0  0
  6  7  2  0  0  0
 12 13  1  0  0  0
 12 14  2  0  0  0
 12 15  2  0  0  0
  7  8  1  0  0  0
  8  9  1  0  0  0
  9 10  2  0  0  0
  1 11  1  0  0  0
 13 16  1  0  0  0
 13 17  1  0  0  0
M  END
> <minimizedAffinity>
-6.15351

$$$$
1ZFQ_ZEC_A_300


 17 18  0  0  0  0  0  0  0  0999 V2000
   17.6891    7.0800   11.3732 O   0  0  0  0  0  0  0  0  0  0  0  0
   16.9701    6.6345   12.4820 C   0  0  0  0  0  0  0  0  0  0  0  0
   17.1908    5.3364   12.9698 C   0  0  0  0  0  0  0  0  0  0  0  0
   16.4220    4.9988   14.0882 C   0  0  0  0  0  0  0  0  0  0  0  0
   16.5559    3.4409   14.8676 S   0  0  0  0  0  0  0  0  0  0  0  0
   15.2779    4.0841   15.9846 C   0  0  0  0  0  0  0  0  0  0  0  0
   14.8910    5.2721   15.7578 N   0  0  0  0  0  0  0  0  0  0  0  0
   15.5036    5.8440   14.6844 C   0  0  0  0  0  0  0  0  0  0  0  0
   15.2768    7.1247   14.1954 C   0  0  0  0  0  0  0  0  0  0  0  0
   16.0413    7.4841   13.0841 C   0  0  0  0  0  0  0  0  0  0  0  0
   18.3147    6.5158   10.9629 H   0  0  0  0  0  0  0  0  0  0  0  0
   14.6985    2.9822   17.2435 S   0  0  0  0  0  0  0  0  0  0  0  0
   15.5594    1.7557   17.2047 N   0  0  0  0  0  0  0  0  0  0  0  0
   13.3288    2.6703   16.8640 O   0  0  0  0  0  0  0  0  0  0  0  0
   14.8981    3.7033   18.4961 O   0  0  0  0  0  0  0  0  0  0  0  0
   15.4093    1.2626   16.3245 H   0  0  0  0  0  0  0  0  0  0  0  0
   15.3147    1.1438   17.9832 H   0  0  0  0  0  0  0  0  0  0  0  0
  1  2  1  0  0  0
  2  3  2  0  0  0
  2 10  1  0  0  0
  3  4  1  0  0  0
  4  5  1  0  0  0
  4  8  2  0  0  0
  5  6  1  0  0  0
  6 12  1  0  0  0
  6  7  2  0  0  0
 12 13  1  0  0  0
 12 14  2  0  0  0
 12 15  2  0  0  0
  7  8  1  0  0  0
  8  9  1  0  0  0
  9 10  2  0  0  0
  1 11  1  0  0  0
 13 16  1  0  0  0
 13 17  1  0  0  0
M  END
> <minimizedAffinity>
-6.11766

$$$$
1ZFQ_ZEC_A_300


 17 18  0  0  0  0  0  0  0  0999 V2000
   13.4155    2.9272   17.1311 O   0  0  0  0  0  0  0  0  0  0  0  0
   14.6039    3.3596   16.5432 C   0  0  0  0  0  0  0  0  0  0  0  0
   14.6375    4.6029   15.8916 C   0  0  0  0  0  0  0  0  0  0  0  0
   15.8807    4.9382   15.3460 C   0  0  0  0  0  0  0  0  0  0  0  0
   16.1484    6.4497   14.5116 S   0  0  0  0  0  0  0  0  0  0  0  0
   17.8404    5.8298   14.2938 C   0  0  0  0  0  0  0  0  0  0  0  0
   18.0840    4.6935   14.8056 N   0  0  0  0  0  0  0  0  0  0  0  0
   17.0029    4.1323   15.4145 C   0  0  0  0  0  0  0  0  0  0  0  0
   16.9673    2.8969   16.0496 C   0  0  0  0  0  0  0  0  0  0  0  0
   15.7369    2.5477   16.6087 C   0  0  0  0  0  0  0  0  0  0  0  0
   12.6501    3.4663   17.0917 H   0  0  0  0  0  0  0  0  0  0  0  0
   18.9499    6.8607   13.3768 S   0  0  0  0  0  0  0  0  0  0  0  0
   20.2141    6.0854   13.1581 N   0  0  0  0  0  0  0  0  0  0  0  0
   19.1855    8.0112   14.2361 O   0  0  0  0  0  0  0  0  0  0  0  0
   18.2758    7.1019   12.1055 O   0  0  0  0  0  0  0  0  0  0  0  0
   20.6736    5.9246   14.0544 H   0  0  0  0  0  0  0  0  0  0  0  0
   20.8361    6.6148   12.5473 H   0  0  0  0  0  0  0  0  0  0  0  0
  1  2  1  0  0  0
  2  3  2  0  0  0
  2 10  1  0  0  0
  3  4  1  0  0  0
  4  5  1  0  0  0
  4  8  2  0  0  0
  5  6  1  0  0  0
  6 12  1  0  0  0
  6  7  2  0  0  0
 12 13  1  0  0  0
 12 14  2  0  0  0
 12 15  2  0  0  0
  7  8  1  0  0  0
  8  9  1  0  0  0
  9 10  2  0  0  0
  1 11  1  0  0  0
 13 16  1  0  0  0
 13 17  1  0  0  0
M  END
> <minimizedAffinity>
-6.10142

$$$$
1ZFQ_ZEC_A_300


 17 18  0  0  0  0  0  0  0  0999 V2000
   17.6645   -0.3596   11.4064 O   0  0  0  0  0  0  0  0  0  0  0  0
   17.2076    0.9368   11.6422 C   0  0  0  0  0  0  0  0  0  0  0  0
   17.1815    1.4294   12.9568 C   0  0  0  0  0  0  0  0  0  0  0  0
   16.7128    2.7416   13.0750 C   0  0  0  0  0  0  0  0  0  0  0  0
   16.6190    3.5558   14.6181 S   0  0  0  0  0  0  0  0  0  0  0  0
   15.9657    4.9449   13.6494 C   0  0  0  0  0  0  0  0  0  0  0  0
   15.8856    4.7568   12.3962 N   0  0  0  0  0  0  0  0  0  0  0  0
   16.2920    3.5161   12.0090 C   0  0  0  0  0  0  0  0  0  0  0  0
   16.3072    3.0253   10.7091 C   0  0  0  0  0  0  0  0  0  0  0  0
   16.7803    1.7195   10.5690 C   0  0  0  0  0  0  0  0  0  0  0  0
   17.9533   -0.8919   12.1214 H   0  0  0  0  0  0  0  0  0  0  0  0
   15.4927    6.3900   14.5563 S   0  0  0  0  0  0  0  0  0  0  0  0
   14.7144    7.2737   13.6288 N   0  0  0  0  0  0  0  0  0  0  0  0
   16.7488    7.0157   14.9415 O   0  0  0  0  0  0  0  0  0  0  0  0
   14.6341    5.8976   15.6283 O   0  0  0  0  0  0  0  0  0  0  0  0
   15.3269    7.6098   12.8857 H   0  0  0  0  0  0  0  0  0  0  0  0
   14.3427    8.0686   14.1487 H   0  0  0  0  0  0  0  0  0  0  0  0
  1  2  1  0  0  0
  2  3  2  0  0  0
  2 10  1  0  0  0
  3  4  1  0  0  0
  4  5  1  0  0  0
  4  8  2  0  0  0
  5  6  1  0  0  0
  6 12  1  0  0  0
  6  7  2  0  0  0
 12 13  1  0  0  0
 12 14  2  0  0  0
 12 15  2  0  0  0
  7  8  1  0  0  0
  8  9  1  0  0  0
  9 10  2  0  0  0
  1 11  1  0  0  0
 13 16  1  0  0  0
 13 17  1  0  0  0
M  END
> <minimizedAffinity>
-5.97075

$$$$
1ZFQ_ZEC_A_300


 17 18  0  0  0  0  0  0  0  0999 V2000
   17.0368    2.5327   16.6034 O   0  0  0  0  0  0  0  0  0  0  0  0
   17.0060    3.0043   15.2913 C   0  0  0  0  0  0  0  0  0  0  0  0
   17.1043    4.3846   15.0530 C   0  0  0  0  0  0  0  0  0  0  0  0
   17.0701    4.7436   13.7019 C   0  0  0  0  0  0  0  0  0  0  0  0
   17.2000    6.4066   13.1822 S   0  0  0  0  0  0  0  0  0  0  0  0
   17.0414    5.7150   11.5115 C   0  0  0  0  0  0  0  0  0  0  0  0
   16.9369    4.4514   11.4429 N   0  0  0  0  0  0  0  0  0  0  0  0
   16.9410    3.8421   12.6607 C   0  0  0  0  0  0  0  0  0  0  0  0
   16.8325    2.4770   12.8965 C   0  0  0  0  0  0  0  0  0  0  0  0
   16.8734    2.0974   14.2392 C   0  0  0  0  0  0  0  0  0  0  0  0
   17.1256    3.1350   17.3158 H   0  0  0  0  0  0  0  0  0  0  0  0
   17.0258    6.8735   10.1728 S   0  0  0  0  0  0  0  0  0  0  0  0
   15.6483    7.4596   10.0955 N   0  0  0  0  0  0  0  0  0  0  0  0
   17.3221    6.0797    8.9897 O   0  0  0  0  0  0  0  0  0  0  0  0
   17.9933    7.8984   10.5504 O   0  0  0  0  0  0  0  0  0  0  0  0
   14.9838    6.7325    9.8309 H   0  0  0  0  0  0  0  0  0  0  0  0
   15.6340    8.2035    9.3978 H   0  0  0  0  0  0  0  0  0  0  0  0
  1  2  1  0  0  0
  2  3  2  0  0  0
  2 10  1  0  0  0
  3  4  1  0  0  0
  4  5  1  0  0  0
  4  8  2  0  0  0
  5  6  1  0  0  0
  6 12  1  0  0  0
  6  7  2  0  0  0
 12 13  1  0  0  0
 12 14  2  0  0  0
 12 15  2  0  0  0
  7  8  1  0  0  0
  8  9  1  0  0  0
  9 10  2  0  0  0
  1 11  1  0  0  0
 13 16  1  0  0  0
 13 17  1  0  0  0
M  END
> <minimizedAffinity>
-5.85665

$$$$
1ZFQ_ZEC_A_300


 17 18  0  0  0  0  0  0  0  0999 V2000
   14.1224    5.5870   16.5339 O   0  0  0  0  0  0  0  0  0  0  0  0
   14.9537    5.5235   15.4159 C   0  0  0  0  0  0  0  0  0  0  0  0
   15.4197    4.2748   14.9742 C   0  0  0  0  0  0  0  0  0  0  0  0
   16.2386    4.3290   13.8419 C   0  0  0  0  0  0  0  0  0  0  0  0
   16.9080    2.8888   13.1136 S   0  0  0  0  0  0  0  0  0  0  0  0
   17.6647    4.0455   11.9371 C   0  0  0  0  0  0  0  0  0  0  0  0
   17.3943    5.2732   12.1159 N   0  0  0  0  0  0  0  0  0  0  0  0
   16.5897    5.4981   13.1913 C   0  0  0  0  0  0  0  0  0  0  0  0
   16.1378    6.7351   13.6346 C   0  0  0  0  0  0  0  0  0  0  0  0
   15.3114    6.7014   14.7591 C   0  0  0  0  0  0  0  0  0  0  0  0
   13.8774    4.8007   16.9808 H   0  0  0  0  0  0  0  0  0  0  0  0
   18.7087    3.3404   10.6931 S   0  0  0  0  0  0  0  0  0  0  0  0
   19.0618    4.4297    9.7258 N   0  0  0  0  0  0  0  0  0  0  0  0
   17.8905    2.3205   10.0543 O   0  0  0  0  0  0  0  0  0  0  0  0
   19.8982    2.8922   11.4095 O   0  0  0  0  0  0  0  0  0  0  0  0
   18.2216    4.7324    9.2331 H   0  0  0  0  0  0  0  0  0  0  0  0
   19.7429    4.0788    9.0524 H   0  0  0  0  0  0  0  0  0  0  0  0
  1  2  1  0  0  0
  2  3  2  0  0  0
  2 10  1  0  0  0
  3  4  1  0  0  0
  4  5  1  0  0  0
  4  8  2  0  0  0
  5  6  1  0  0  0
  6 12  1  0  0  0
  6  7  2  0  0  0
 12 13  1  0  0  0
 12 14  2  0  0  0
 12 15  2  0  0  0
  7  8  1  0  0  0
  8  9  1  0  0  0
  9 10  2  0  0  0
  1 11  1  0  0  0
 13 16  1  0  0  0
 13 17  1  0  0  0
M  END
> <minimizedAffinity>
-5.79701

$$$$
1ZFQ_ZEC_A_300


 17 18  0  0  0  0  0  0  0  0999 V2000
   17.1104    6.8740    9.0186 O   0  0  0  0  0  0  0  0  0  0  0  0
   16.9870    6.4922   10.3542 C   0  0  0  0  0  0  0  0  0  0  0  0
   17.0667    5.1316   10.6918 C   0  0  0  0  0  0  0  0  0  0  0  0
   16.9374    4.8647   12.0585 C   0  0  0  0  0  0  0  0  0  0  0  0
   17.0284    3.2411   12.6974 S   0  0  0  0  0  0  0  0  0  0  0  0
   16.7539    4.0436   14.3022 C   0  0  0  0  0  0  0  0  0  0  0  0
   16.6463    5.3086   14.2775 N   0  0  0  0  0  0  0  0  0  0  0  0
   16.7366    5.8342   13.0245 C   0  0  0  0  0  0  0  0  0  0  0  0
   16.6466    7.1798   12.6897 C   0  0  0  0  0  0  0  0  0  0  0  0
   16.7821    7.4677   11.3306 C   0  0  0  0  0  0  0  0  0  0  0  0
   17.2482    6.2252    8.3567 H   0  0  0  0  0  0  0  0  0  0  0  0
   16.6430    2.9783   15.7119 S   0  0  0  0  0  0  0  0  0  0  0  0
   16.4974    1.5737   15.2093 N   0  0  0  0  0  0  0  0  0  0  0  0
   15.4417    3.4094   16.4110 O   0  0  0  0  0  0  0  0  0  0  0  0
   17.9158    3.1395   16.4069 O   0  0  0  0  0  0  0  0  0  0  0  0
   15.6042    1.4762   14.7264 H   0  0  0  0  0  0  0  0  0  0  0  0
   16.5308    0.9257   15.9963 H   0  0  0  0  0  0  0  0  0  0  0  0
  1  2  1  0  0  0
  2  3  2  0  0  0
  2 10  1  0  0  0
  3  4  1  0  0  0
  4  5  1  0  0  0
  4  8  2  0  0  0
  5  6  1  0  0  0
  6 12  1  0  0  0
  6  7  2  0  0  0
 12 13  1  0  0  0
 12 14  2  0  0  0
 12 15  2  0  0  0
  7  8  1  0  0  0
  8  9  1  0  0  0
  9 10  2  0  0  0
  1 11  1  0  0  0
 13 16  1  0  0  0
 13 17  1  0  0  0
M  END
> <minimizedAffinity>
-5.74911

$$$$
