1HMT_STE_A_133
  RCSB PDB12061702443D
Coordinates from PDB:1HMT:A:133 Model:1 without hydrogens
 20 19  0  0  0  0            999 V2000
   19.0590   33.2400   52.2470   C 0  0  0  0  0  0  0  0  0  0  0  0
   18.9990   34.2520   51.5700   O 0  0  0  0  0  0  0  0  0  0  0  0
   18.3830   32.2470   52.0740   O 0  0  0  0  0  0  0  0  0  0  0  0
   20.0590   33.1550   53.3190   C 0  0  0  0  0  0  0  0  0  0  0  0
   20.9320   34.2630   53.6670   C 0  0  0  0  0  0  0  0  0  0  0  0
   21.9560   34.0810   54.7900   C 0  0  0  0  0  0  0  0  0  0  0  0
   22.3340   35.3820   55.4400   C 0  0  0  0  0  0  0  0  0  0  0  0
   23.5340   35.3320   56.3390   C 0  0  0  0  0  0  0  0  0  0  0  0
   23.4170   34.4510   57.5450   C 0  0  0  0  0  0  0  0  0  0  0  0
   22.3120   34.8870   58.5100   C 0  0  0  0  0  0  0  0  0  0  0  0
   22.1180   33.9400   59.6400   C 0  0  0  0  0  0  0  0  0  0  0  0
   21.2370   34.5290   60.7410   C 0  0  0  0  0  0  0  0  0  0  0  0
   19.9250   35.0230   60.1590   C 0  0  0  0  0  0  0  0  0  0  0  0
   19.1840   34.0080   59.3690   C 0  0  0  0  0  0  0  0  0  0  0  0
   17.7050   34.0940   59.3940   C 0  0  0  0  0  0  0  0  0  0  0  0
   17.0020   34.8930   58.3830   C 0  0  0  0  0  0  0  0  0  0  0  0
   17.0780   34.3350   56.9710   C 0  0  0  0  0  0  0  0  0  0  0  0
   16.7800   35.4660   55.9700   C 0  0  0  0  0  0  0  0  0  0  0  0
   16.0990   36.5930   56.7190   C 0  0  0  0  0  0  0  0  0  0  0  0
   16.7040   37.9390   56.3390   C 0  0  0  0  0  0  0  0  0  0  0  0
  1  2  2  0  0  0  0
  1  3  1  0  0  0  0
  1  4  1  0  0  0  0
  4  5  1  0  0  0  0
  5  6  1  0  0  0  0
  6  7  1  0  0  0  0
  7  8  1  0  0  0  0
  8  9  1  0  0  0  0
  9 10  1  0  0  0  0
 10 11  1  0  0  0  0
 11 12  1  0  0  0  0
 12 13  1  0  0  0  0
 13 14  1  0  0  0  0
 14 15  1  0  0  0  0
 15 16  1  0  0  0  0
 16 17  1  0  0  0  0
 17 18  1  0  0  0  0
 18 19  1  0  0  0  0
 19 20  1  0  0  0  0
A    1
C1
A    2
O1
A    3
O2
A    4
C2
A    5
C3
A    6
C4
A    7
C5
A    8
C6
A    9
C7
A   10
C8
A   11
C9
A   12
C10
A   13
C11
A   14
C12
A   15
C13
A   16
C14
A   17
C15
A   18
C16
A   19
C17
A   20
C18
M  END
>  <InstanceId>
1HMT_STE_A_133

>  <ChemCompId>
STE

>  <PdbId>
1HMT

>  <ChainId>
A

>  <ResidueNumber>
133

>  <InsertionCode>


>  <Model>
1

>  <AltIds>


>  <MissingHeavyAtoms>
0

>  <ObservedFormula>
C18 O2

>  <Name>
STEARIC ACID

>  <SystematicName>
octadecanoic acid

>  <Synonyms>


>  <Type>
NON-POLYMER

>  <Formula>
C18 H36 O2

>  <MolecularWeight>
284.477

>  <ModifiedDate>
2011-06-04

>  <Parent>


>  <OneLetterCode>


>  <SubcomponentList>


>  <AmbiguousFlag>
N

>  <InChI>
InChI=1S/C18H36O2/c1-2-3-4-5-6-7-8-9-10-11-12-13-14-15-16-17-18(19)20/h2-17H2,1H3,(H,19,20)

>  <InChIKey>
QIQXTHQIDYTFRH-UHFFFAOYSA-N

>  <SMILES>
CCCCCCCCCCCCCCCCCC(=O)O

$$$$
