1HMT_STE_A_133


 21 20  0  0  0  0  0  0  0  0999 V2000
   19.8588   34.3629   56.3481 C   0  0  0  0  0  0  0  0  0  0  0  0
   18.7471   35.2586   55.9319 C   0  0  0  0  0  0  0  0  0  0  0  0
   17.4501   34.4899   55.6823 C   0  0  0  0  0  0  0  0  0  0  0  0
   17.4423   33.1966   56.4768 C   0  0  0  0  0  0  0  0  0  0  0  0
   16.2699   33.0346   57.3728 C   0  0  0  0  0  0  0  0  0  0  0  0
   16.1998   33.9350   58.5475 C   0  0  0  0  0  0  0  0  0  0  0  0
   17.3610   34.0701   59.4353 C   0  0  0  0  0  0  0  0  0  0  0  0
   17.8867   35.4893   59.5772 C   0  0  0  0  0  0  0  0  0  0  0  0
   19.2915   35.4414   60.2051 C   0  0  0  0  0  0  0  0  0  0  0  0
   19.8267   34.0317   60.0594 C   0  0  0  0  0  0  0  0  0  0  0  0
   21.3477   34.0177   60.1517 C   0  0  0  0  0  0  0  0  0  0  0  0
   21.1865   35.1012   56.5338 C   0  0  0  0  0  0  0  0  0  0  0  0
   22.3834   34.2063   56.4296 C   0  0  0  0  0  0  0  0  0  0  0  0
   22.5358   33.4566   55.1391 C   0  0  0  0  0  0  0  0  0  0  0  0
   22.7833   34.3032   53.9226 C   0  0  0  0  0  0  0  0  0  0  0  0
   21.8250   33.9746   52.7753 C   0  0  0  0  0  0  0  0  0  0  0  0
   20.6874   33.1073   53.0299 C   0  0  0  0  0  0  0  0  0  0  0  0
   19.3227   33.4445   52.6052 C   0  0  0  0  0  0  0  0  0  0  0  0
   18.5091   32.5491   52.4561 O   0  0  0  0  0  0  0  0  0  0  0  0
   19.0838   34.6281   52.4829 O   0  0  0  0  0  0  0  0  0  0  0  0
   19.7638   35.2593   52.6139 H   0  0  0  0  0  0  0  0  0  0  0  0
 18 19  2  0  0  0
 18 20  1  0  0  0
 18 17  1  0  0  0
 17 16  1  0  0  0
 16 15  1  0  0  0
 15 14  1  0  0  0
 14 13  1  0  0  0
 13 12  1  0  0  0
 12  1  1  0  0  0
  1  2  1  0  0  0
  2  3  1  0  0  0
  3  4  1  0  0  0
  4  5  1  0  0  0
  5  6  1  0  0  0
  6  7  1  0  0  0
  7  8  1  0  0  0
  8  9  1  0  0  0
  9 10  1  0  0  0
 10 11  1  0  0  0
 20 21  1  0  0  0
M  END
> <minimizedAffinity>
-5.61924

$$$$
1HMT_STE_A_133


 21 20  0  0  0  0  0  0  0  0999 V2000
   18.4828   35.8174   55.5955 C   0  0  0  0  0  0  0  0  0  0  0  0
   19.8401   35.6698   56.1848 C   0  0  0  0  0  0  0  0  0  0  0  0
   19.9611   34.4133   57.0462 C   0  0  0  0  0  0  0  0  0  0  0  0
   20.6137   34.7461   58.3757 C   0  0  0  0  0  0  0  0  0  0  0  0
   21.3804   33.6275   58.9792 C   0  0  0  0  0  0  0  0  0  0  0  0
   22.8472   33.6357   58.7695 C   0  0  0  0  0  0  0  0  0  0  0  0
   23.3961   33.3739   57.4335 C   0  0  0  0  0  0  0  0  0  0  0  0
   23.9826   34.5932   56.7407 C   0  0  0  0  0  0  0  0  0  0  0  0
   23.3297   34.7428   55.3546 C   0  0  0  0  0  0  0  0  0  0  0  0
   22.9985   33.3584   54.8362 C   0  0  0  0  0  0  0  0  0  0  0  0
   21.7218   33.3827   54.0046 C   0  0  0  0  0  0  0  0  0  0  0  0
   17.8866   37.2114   55.8044 C   0  0  0  0  0  0  0  0  0  0  0  0
   17.1929   37.3692   57.1227 C   0  0  0  0  0  0  0  0  0  0  0  0
   16.4829   36.1547   57.6438 C   0  0  0  0  0  0  0  0  0  0  0  0
   16.9608   35.6450   58.9741 C   0  0  0  0  0  0  0  0  0  0  0  0
   16.9757   34.1161   59.0446 C   0  0  0  0  0  0  0  0  0  0  0  0
   16.0333   33.3612   58.2365 C   0  0  0  0  0  0  0  0  0  0  0  0
   16.4562   32.3237   57.2872 C   0  0  0  0  0  0  0  0  0  0  0  0
   17.0635   32.6507   56.2821 O   0  0  0  0  0  0  0  0  0  0  0  0
   16.2103   31.1797   57.6094 O   0  0  0  0  0  0  0  0  0  0  0  0
   15.7370   31.0069   58.3994 H   0  0  0  0  0  0  0  0  0  0  0  0
 18 19  2  0  0  0
 18 20  1  0  0  0
 18 17  1  0  0  0
 17 16  1  0  0  0
 16 15  1  0  0  0
 15 14  1  0  0  0
 14 13  1  0  0  0
 13 12  1  0  0  0
 12  1  1  0  0  0
  1  2  1  0  0  0
  2  3  1  0  0  0
  3  4  1  0  0  0
  4  5  1  0  0  0
  5  6  1  0  0  0
  6  7  1  0  0  0
  7  8  1  0  0  0
  8  9  1  0  0  0
  9 10  1  0  0  0
 10 11  1  0  0  0
 20 21  1  0  0  0
M  END
> <minimizedAffinity>
-5.59898

$$$$
1HMT_STE_A_133


 21 20  0  0  0  0  0  0  0  0999 V2000
   19.6134   34.6259   57.2191 C   0  0  0  0  0  0  0  0  0  0  0  0
   19.4789   35.0780   55.8088 C   0  0  0  0  0  0  0  0  0  0  0  0
   20.8309   35.1749   55.1031 C   0  0  0  0  0  0  0  0  0  0  0  0
   21.4626   33.8000   54.9824 C   0  0  0  0  0  0  0  0  0  0  0  0
   22.9380   33.7868   55.1454 C   0  0  0  0  0  0  0  0  0  0  0  0
   23.4640   34.1541   56.4810 C   0  0  0  0  0  0  0  0  0  0  0  0
   23.4008   33.1864   57.5830 C   0  0  0  0  0  0  0  0  0  0  0  0
   22.3727   33.5138   58.6538 C   0  0  0  0  0  0  0  0  0  0  0  0
   22.6531   34.9252   59.2010 C   0  0  0  0  0  0  0  0  0  0  0  0
   21.5105   35.3128   60.1169 C   0  0  0  0  0  0  0  0  0  0  0  0
   20.9559   34.0902   60.8380 C   0  0  0  0  0  0  0  0  0  0  0  0
   18.4084   33.8185   57.7076 C   0  0  0  0  0  0  0  0  0  0  0  0
   17.7574   34.4008   58.9247 C   0  0  0  0  0  0  0  0  0  0  0  0
   16.4276   35.0610   58.7092 C   0  0  0  0  0  0  0  0  0  0  0  0
   15.8070   34.8435   57.3581 C   0  0  0  0  0  0  0  0  0  0  0  0
   15.8155   36.1100   56.4987 C   0  0  0  0  0  0  0  0  0  0  0  0
   16.7502   37.1755   56.8180 C   0  0  0  0  0  0  0  0  0  0  0  0
   17.1271   38.2155   55.8521 C   0  0  0  0  0  0  0  0  0  0  0  0
   18.2257   38.1669   55.3259 O   0  0  0  0  0  0  0  0  0  0  0  0
   16.2721   39.0395   55.6012 O   0  0  0  0  0  0  0  0  0  0  0  0
   15.4494   39.0121   56.0488 H   0  0  0  0  0  0  0  0  0  0  0  0
 18 19  2  0  0  0
 18 20  1  0  0  0
 18 17  1  0  0  0
 17 16  1  0  0  0
 16 15  1  0  0  0
 15 14  1  0  0  0
 14 13  1  0  0  0
 13 12  1  0  0  0
 12  1  1  0  0  0
  1  2  1  0  0  0
  2  3  1  0  0  0
  3  4  1  0  0  0
  4  5  1  0  0  0
  5  6  1  0  0  0
  6  7  1  0  0  0
  7  8  1  0  0  0
  8  9  1  0  0  0
  9 10  1  0  0  0
 10 11  1  0  0  0
 20 21  1  0  0  0
M  END
> <minimizedAffinity>
-5.54095

$$$$
1HMT_STE_A_133


 21 20  0  0  0  0  0  0  0  0999 V2000
   19.0331   34.3843   60.7875 C   0  0  0  0  0  0  0  0  0  0  0  0
   19.8277   35.6329   60.9317 C   0  0  0  0  0  0  0  0  0  0  0  0
   21.2849   35.3502   61.2950 C   0  0  0  0  0  0  0  0  0  0  0  0
   21.6754   33.9500   60.8578 C   0  0  0  0  0  0  0  0  0  0  0  0
   22.7925   33.9018   59.8815 C   0  0  0  0  0  0  0  0  0  0  0  0
   22.4490   33.5082   58.4950 C   0  0  0  0  0  0  0  0  0  0  0  0
   23.3667   33.8294   57.3953 C   0  0  0  0  0  0  0  0  0  0  0  0
   22.7842   33.6268   56.0058 C   0  0  0  0  0  0  0  0  0  0  0  0
   23.0814   34.8732   55.1527 C   0  0  0  0  0  0  0  0  0  0  0  0
   24.4557   34.7082   54.5372 C   0  0  0  0  0  0  0  0  0  0  0  0
   25.1968   36.0392   54.5021 C   0  0  0  0  0  0  0  0  0  0  0  0
   18.0960   34.4060   59.5776 C   0  0  0  0  0  0  0  0  0  0  0  0
   18.6516   33.6925   58.3832 C   0  0  0  0  0  0  0  0  0  0  0  0
   19.1825   34.5632   57.2829 C   0  0  0  0  0  0  0  0  0  0  0  0
   18.8221   34.1373   55.8877 C   0  0  0  0  0  0  0  0  0  0  0  0
   17.4978   34.7415   55.4145 C   0  0  0  0  0  0  0  0  0  0  0  0
   17.1057   36.0540   55.8988 C   0  0  0  0  0  0  0  0  0  0  0  0
   15.7994   36.3131   56.5175 C   0  0  0  0  0  0  0  0  0  0  0  0
   15.6153   35.9825   57.6763 O   0  0  0  0  0  0  0  0  0  0  0  0
   14.9945   36.9031   55.8268 O   0  0  0  0  0  0  0  0  0  0  0  0
   15.2092   37.1238   54.9418 H   0  0  0  0  0  0  0  0  0  0  0  0
 18 19  2  0  0  0
 18 20  1  0  0  0
 18 17  1  0  0  0
 17 16  1  0  0  0
 16 15  1  0  0  0
 15 14  1  0  0  0
 14 13  1  0  0  0
 13 12  1  0  0  0
 12  1  1  0  0  0
  1  2  1  0  0  0
  2  3  1  0  0  0
  3  4  1  0  0  0
  4  5  1  0  0  0
  5  6  1  0  0  0
  6  7  1  0  0  0
  7  8  1  0  0  0
  8  9  1  0  0  0
  9 10  1  0  0  0
 10 11  1  0  0  0
 20 21  1  0  0  0
M  END
> <minimizedAffinity>
-5.52364

$$$$
1HMT_STE_A_133


 21 20  0  0  0  0  0  0  0  0999 V2000
   20.3558   34.1004   60.6373 C   0  0  0  0  0  0  0  0  0  0  0  0
   21.6272   34.8699   60.5848 C   0  0  0  0  0  0  0  0  0  0  0  0
   22.7520   34.0800   59.9170 C   0  0  0  0  0  0  0  0  0  0  0  0
   22.2357   33.3725   58.6772 C   0  0  0  0  0  0  0  0  0  0  0  0
   23.1472   33.4413   57.5077 C   0  0  0  0  0  0  0  0  0  0  0  0
   22.6303   34.1261   56.2996 C   0  0  0  0  0  0  0  0  0  0  0  0
   22.6576   33.4398   55.0023 C   0  0  0  0  0  0  0  0  0  0  0  0
   22.0034   34.2090   53.8661 C   0  0  0  0  0  0  0  0  0  0  0  0
   21.2070   33.2250   52.9899 C   0  0  0  0  0  0  0  0  0  0  0  0
   19.9428   32.8463   53.7337 C   0  0  0  0  0  0  0  0  0  0  0  0
   18.7817   33.7421   53.3192 C   0  0  0  0  0  0  0  0  0  0  0  0
   19.1151   34.9948   60.6912 C   0  0  0  0  0  0  0  0  0  0  0  0
   18.2698   34.9128   59.4571 C   0  0  0  0  0  0  0  0  0  0  0  0
   18.5422   33.7515   58.5472 C   0  0  0  0  0  0  0  0  0  0  0  0
   18.8192   34.1027   57.1126 C   0  0  0  0  0  0  0  0  0  0  0  0
   18.4137   35.5389   56.7723 C   0  0  0  0  0  0  0  0  0  0  0  0
   17.1537   35.7752   56.0885 C   0  0  0  0  0  0  0  0  0  0  0  0
   15.8610   35.7731   56.7851 C   0  0  0  0  0  0  0  0  0  0  0  0
   15.0557   34.8914   56.5395 O   0  0  0  0  0  0  0  0  0  0  0  0
   15.7069   36.6430   57.6172 O   0  0  0  0  0  0  0  0  0  0  0  0
   16.3732   37.2884   57.7492 H   0  0  0  0  0  0  0  0  0  0  0  0
 18 19  2  0  0  0
 18 20  1  0  0  0
 18 17  1  0  0  0
 17 16  1  0  0  0
 16 15  1  0  0  0
 15 14  1  0  0  0
 14 13  1  0  0  0
 13 12  1  0  0  0
 12  1  1  0  0  0
  1  2  1  0  0  0
  2  3  1  0  0  0
  3  4  1  0  0  0
  4  5  1  0  0  0
  5  6  1  0  0  0
  6  7  1  0  0  0
  7  8  1  0  0  0
  8  9  1  0  0  0
  9 10  1  0  0  0
 10 11  1  0  0  0
 20 21  1  0  0  0
M  END
> <minimizedAffinity>
-5.42408

$$$$
1HMT_STE_A_133


 21 20  0  0  0  0  0  0  0  0999 V2000
   16.0166   34.8501   57.4416 C   0  0  0  0  0  0  0  0  0  0  0  0
   16.3257   35.3712   58.7997 C   0  0  0  0  0  0  0  0  0  0  0  0
   17.7217   35.9881   58.8765 C   0  0  0  0  0  0  0  0  0  0  0  0
   18.4177   35.5605   60.1558 C   0  0  0  0  0  0  0  0  0  0  0  0
   18.9026   34.1575   60.1504 C   0  0  0  0  0  0  0  0  0  0  0  0
   19.8298   33.7773   59.0590 C   0  0  0  0  0  0  0  0  0  0  0  0
   21.2712   33.6887   59.3221 C   0  0  0  0  0  0  0  0  0  0  0  0
   22.0510   34.9544   59.0046 C   0  0  0  0  0  0  0  0  0  0  0  0
   23.4399   34.5642   58.4675 C   0  0  0  0  0  0  0  0  0  0  0  0
   23.2826   33.3314   57.6012 C   0  0  0  0  0  0  0  0  0  0  0  0
   23.1879   33.7127   56.1289 C   0  0  0  0  0  0  0  0  0  0  0  0
   16.5959   33.4563   57.1879 C   0  0  0  0  0  0  0  0  0  0  0  0
   17.4948   33.3956   55.9910 C   0  0  0  0  0  0  0  0  0  0  0  0
   18.2314   34.6586   55.6549 C   0  0  0  0  0  0  0  0  0  0  0  0
   19.7208   34.5217   55.5099 C   0  0  0  0  0  0  0  0  0  0  0  0
   20.2244   35.0112   54.1499 C   0  0  0  0  0  0  0  0  0  0  0  0
   19.6857   34.4150   52.9394 C   0  0  0  0  0  0  0  0  0  0  0  0
   19.5019   32.9664   52.7831 C   0  0  0  0  0  0  0  0  0  0  0  0
   20.4238   32.2179   53.0585 O   0  0  0  0  0  0  0  0  0  0  0  0
   18.3964   32.6081   52.4331 O   0  0  0  0  0  0  0  0  0  0  0  0
   17.7374   33.2449   52.2379 H   0  0  0  0  0  0  0  0  0  0  0  0
 18 19  2  0  0  0
 18 20  1  0  0  0
 18 17  1  0  0  0
 17 16  1  0  0  0
 16 15  1  0  0  0
 15 14  1  0  0  0
 14 13  1  0  0  0
 13 12  1  0  0  0
 12  1  1  0  0  0
  1  2  1  0  0  0
  2  3  1  0  0  0
  3  4  1  0  0  0
  4  5  1  0  0  0
  5  6  1  0  0  0
  6  7  1  0  0  0
  7  8  1  0  0  0
  8  9  1  0  0  0
  9 10  1  0  0  0
 10 11  1  0  0  0
 20 21  1  0  0  0
M  END
> <minimizedAffinity>
-5.40675

$$$$
1HMT_STE_A_133


 21 20  0  0  0  0  0  0  0  0999 V2000
   20.8418   34.5193   60.3464 C   0  0  0  0  0  0  0  0  0  0  0  0
   19.7478   35.3918   60.8497 C   0  0  0  0  0  0  0  0  0  0  0  0
   18.6510   35.6010   59.8064 C   0  0  0  0  0  0  0  0  0  0  0  0
   17.9178   34.2982   59.5434 C   0  0  0  0  0  0  0  0  0  0  0  0
   16.5462   34.4654   59.0009 C   0  0  0  0  0  0  0  0  0  0  0  0
   16.2865   35.6932   58.2132 C   0  0  0  0  0  0  0  0  0  0  0  0
   15.9581   35.5905   56.7862 C   0  0  0  0  0  0  0  0  0  0  0  0
   17.1545   35.3608   55.8769 C   0  0  0  0  0  0  0  0  0  0  0  0
   18.2267   36.4218   56.1842 C   0  0  0  0  0  0  0  0  0  0  0  0
   19.5835   35.8299   55.8622 C   0  0  0  0  0  0  0  0  0  0  0  0
   19.6851   34.3983   56.3745 C   0  0  0  0  0  0  0  0  0  0  0  0
   21.7882   35.2393   59.3830 C   0  0  0  0  0  0  0  0  0  0  0  0
   22.7354   34.3159   58.6798 C   0  0  0  0  0  0  0  0  0  0  0  0
   23.4472   34.8841   57.4877 C   0  0  0  0  0  0  0  0  0  0  0  0
   23.3934   34.0475   56.2406 C   0  0  0  0  0  0  0  0  0  0  0  0
   23.6435   34.8684   54.9732 C   0  0  0  0  0  0  0  0  0  0  0  0
   23.4825   36.3116   55.0217 C   0  0  0  0  0  0  0  0  0  0  0  0
   24.5359   37.2416   54.5952 C   0  0  0  0  0  0  0  0  0  0  0  0
   24.2304   38.3762   54.2706 O   0  0  0  0  0  0  0  0  0  0  0  0
   25.6714   36.8165   54.6508 O   0  0  0  0  0  0  0  0  0  0  0  0
   25.8274   35.9297   54.9099 H   0  0  0  0  0  0  0  0  0  0  0  0
 18 19  2  0  0  0
 18 20  1  0  0  0
 18 17  1  0  0  0
 17 16  1  0  0  0
 16 15  1  0  0  0
 15 14  1  0  0  0
 14 13  1  0  0  0
 13 12  1  0  0  0
 12  1  1  0  0  0
  1  2  1  0  0  0
  2  3  1  0  0  0
  3  4  1  0  0  0
  4  5  1  0  0  0
  5  6  1  0  0  0
  6  7  1  0  0  0
  7  8  1  0  0  0
  8  9  1  0  0  0
  9 10  1  0  0  0
 10 11  1  0  0  0
 20 21  1  0  0  0
M  END
> <minimizedAffinity>
-5.39539

$$$$
1HMT_STE_A_133


 21 20  0  0  0  0  0  0  0  0999 V2000
   23.1258   33.9035   59.3554 C   0  0  0  0  0  0  0  0  0  0  0  0
   22.0191   34.6816   59.9728 C   0  0  0  0  0  0  0  0  0  0  0  0
   21.4575   33.9966   61.2180 C   0  0  0  0  0  0  0  0  0  0  0  0
   19.9526   33.8378   61.0993 C   0  0  0  0  0  0  0  0  0  0  0  0
   19.2602   34.9984   60.4852 C   0  0  0  0  0  0  0  0  0  0  0  0
   18.0395   34.7058   59.6981 C   0  0  0  0  0  0  0  0  0  0  0  0
   17.3662   35.7847   58.9652 C   0  0  0  0  0  0  0  0  0  0  0  0
   15.9092   35.5087   58.6308 C   0  0  0  0  0  0  0  0  0  0  0  0
   15.8445   34.4527   57.5124 C   0  0  0  0  0  0  0  0  0  0  0  0
   16.6148   34.9799   56.3193 C   0  0  0  0  0  0  0  0  0  0  0  0
   17.5986   33.9357   55.8056 C   0  0  0  0  0  0  0  0  0  0  0  0
   22.9972   33.7804   57.8353 C   0  0  0  0  0  0  0  0  0  0  0  0
   21.6319   34.1264   57.3248 C   0  0  0  0  0  0  0  0  0  0  0  0
   21.5080   34.3019   55.8401 C   0  0  0  0  0  0  0  0  0  0  0  0
   22.5748   33.6366   55.0171 C   0  0  0  0  0  0  0  0  0  0  0  0
   23.5592   34.6404   54.4120 C   0  0  0  0  0  0  0  0  0  0  0  0
   23.3353   36.0615   54.6153 C   0  0  0  0  0  0  0  0  0  0  0  0
   24.2448   36.9025   55.4039 C   0  0  0  0  0  0  0  0  0  0  0  0
   25.1145   37.5360   54.8308 O   0  0  0  0  0  0  0  0  0  0  0  0
   24.0230   36.9483   56.5963 O   0  0  0  0  0  0  0  0  0  0  0  0
   23.3348   36.4302   56.9650 H   0  0  0  0  0  0  0  0  0  0  0  0
 18 19  2  0  0  0
 18 20  1  0  0  0
 18 17  1  0  0  0
 17 16  1  0  0  0
 16 15  1  0  0  0
 15 14  1  0  0  0
 14 13  1  0  0  0
 13 12  1  0  0  0
 12  1  1  0  0  0
  1  2  1  0  0  0
  2  3  1  0  0  0
  3  4  1  0  0  0
  4  5  1  0  0  0
  5  6  1  0  0  0
  6  7  1  0  0  0
  7  8  1  0  0  0
  8  9  1  0  0  0
  9 10  1  0  0  0
 10 11  1  0  0  0
 20 21  1  0  0  0
M  END
> <minimizedAffinity>
-5.38953

$$$$
1HMT_STE_A_133


 21 20  0  0  0  0  0  0  0  0999 V2000
   18.9805   33.5606   54.6772 C   0  0  0  0  0  0  0  0  0  0  0  0
   18.9300   34.4385   55.8764 C   0  0  0  0  0  0  0  0  0  0  0  0
   19.1048   35.9139   55.5185 C   0  0  0  0  0  0  0  0  0  0  0  0
   17.9641   36.7346   56.0925 C   0  0  0  0  0  0  0  0  0  0  0  0
   16.7172   35.9663   56.3342 C   0  0  0  0  0  0  0  0  0  0  0  0
   16.0929   36.1126   57.6699 C   0  0  0  0  0  0  0  0  0  0  0  0
   15.8395   34.9237   58.4926 C   0  0  0  0  0  0  0  0  0  0  0  0
   17.0788   34.3262   59.1392 C   0  0  0  0  0  0  0  0  0  0  0  0
   17.9447   35.4654   59.7071 C   0  0  0  0  0  0  0  0  0  0  0  0
   19.2454   34.8683   60.2035 C   0  0  0  0  0  0  0  0  0  0  0  0
   19.6439   33.6624   59.3613 C   0  0  0  0  0  0  0  0  0  0  0  0
   18.9065   34.3382   53.3610 C   0  0  0  0  0  0  0  0  0  0  0  0
   20.1217   34.1682   52.5016 C   0  0  0  0  0  0  0  0  0  0  0  0
   21.2199   33.3205   53.0728 C   0  0  0  0  0  0  0  0  0  0  0  0
   22.4100   34.0706   53.6011 C   0  0  0  0  0  0  0  0  0  0  0  0
   22.9617   33.4598   54.8916 C   0  0  0  0  0  0  0  0  0  0  0  0
   23.1189   34.3043   56.0634 C   0  0  0  0  0  0  0  0  0  0  0  0
   24.4018   34.9152   56.4340 C   0  0  0  0  0  0  0  0  0  0  0  0
   25.2834   34.9991   55.5963 O   0  0  0  0  0  0  0  0  0  0  0  0
   24.4727   35.3528   57.5638 O   0  0  0  0  0  0  0  0  0  0  0  0
   23.7511   35.2492   58.1525 H   0  0  0  0  0  0  0  0  0  0  0  0
 18 19  2  0  0  0
 18 20  1  0  0  0
 18 17  1  0  0  0
 17 16  1  0  0  0
 16 15  1  0  0  0
 15 14  1  0  0  0
 14 13  1  0  0  0
 13 12  1  0  0  0
 12  1  1  0  0  0
  1  2  1  0  0  0
  2  3  1  0  0  0
  3  4  1  0  0  0
  4  5  1  0  0  0
  5  6  1  0  0  0
  6  7  1  0  0  0
  7  8  1  0  0  0
  8  9  1  0  0  0
  9 10  1  0  0  0
 10 11  1  0  0  0
 20 21  1  0  0  0
M  END
> <minimizedAffinity>
-5.38473

$$$$
1HMT_STE_A_133


 21 20  0  0  0  0  0  0  0  0999 V2000
   17.5415   35.0708   55.5177 C   0  0  0  0  0  0  0  0  0  0  0  0
   18.0746   33.7057   55.7699 C   0  0  0  0  0  0  0  0  0  0  0  0
   17.2878   32.9707   56.8543 C   0  0  0  0  0  0  0  0  0  0  0  0
   16.0753   33.7843   57.2693 C   0  0  0  0  0  0  0  0  0  0  0  0
   16.0459   34.1507   58.7074 C   0  0  0  0  0  0  0  0  0  0  0  0
   17.3458   34.1640   59.4183 C   0  0  0  0  0  0  0  0  0  0  0  0
   18.0424   35.4362   59.6444 C   0  0  0  0  0  0  0  0  0  0  0  0
   19.5282   35.3005   59.9358 C   0  0  0  0  0  0  0  0  0  0  0  0
   20.2186   34.6536   58.7213 C   0  0  0  0  0  0  0  0  0  0  0  0
   21.2230   33.6412   59.2323 C   0  0  0  0  0  0  0  0  0  0  0  0
   22.0646   34.2332   60.3564 C   0  0  0  0  0  0  0  0  0  0  0  0
   18.5614   36.1754   55.8043 C   0  0  0  0  0  0  0  0  0  0  0  0
   19.6901   36.2115   54.8199 C   0  0  0  0  0  0  0  0  0  0  0  0
   21.0547   35.9191   55.3704 C   0  0  0  0  0  0  0  0  0  0  0  0
   22.0004   35.2303   54.4275 C   0  0  0  0  0  0  0  0  0  0  0  0
   22.5279   33.9077   54.9891 C   0  0  0  0  0  0  0  0  0  0  0  0
   23.2642   33.9143   56.2416 C   0  0  0  0  0  0  0  0  0  0  0  0
   24.3791   34.8342   56.5010 C   0  0  0  0  0  0  0  0  0  0  0  0
   25.2820   34.9173   55.6862 O   0  0  0  0  0  0  0  0  0  0  0  0
   24.2897   35.5027   57.5100 O   0  0  0  0  0  0  0  0  0  0  0  0
   23.5638   35.3810   58.0899 H   0  0  0  0  0  0  0  0  0  0  0  0
 18 19  2  0  0  0
 18 20  1  0  0  0
 18 17  1  0  0  0
 17 16  1  0  0  0
 16 15  1  0  0  0
 15 14  1  0  0  0
 14 13  1  0  0  0
 13 12  1  0  0  0
 12  1  1  0  0  0
  1  2  1  0  0  0
  2  3  1  0  0  0
  3  4  1  0  0  0
  4  5  1  0  0  0
  5  6  1  0  0  0
  6  7  1  0  0  0
  7  8  1  0  0  0
  8  9  1  0  0  0
  9 10  1  0  0  0
 10 11  1  0  0  0
 20 21  1  0  0  0
M  END
> <minimizedAffinity>
-5.37974

$$$$
