1K1O_IGN_A_999


 38 39  0  0  0  0  0  0  0  0999 V2000
   42.3519   25.0059   52.3123 N   0  0  0  0  0  0  0  0  0  0  0  0
   42.0288   24.0607   51.2166 C   0  0  0  0  0  0  0  0  0  0  0  0
   41.6508   24.8036   49.9361 C   0  0  0  0  0  0  0  0  0  0  0  0
   40.4274   25.7335   50.1714 C   0  0  0  0  0  0  0  0  0  0  0  0
   40.8318   26.7644   51.2628 C   0  0  0  0  0  0  0  0  0  0  0  0
   41.2693   26.0383   52.5638 C   0  0  0  0  0  0  0  0  0  0  0  0
   43.1654   23.1825   53.4751 O   0  0  0  0  0  0  0  0  0  0  0  0
   42.6958   24.3464   53.4712 C   0  0  0  0  0  0  0  0  0  0  0  0
   43.2661   23.2526   50.8695 C   0  0  0  0  0  0  0  0  0  0  0  0
   44.2604   23.8487   50.4846 O   0  0  0  0  0  0  0  0  0  0  0  0
   43.2286   21.8924   50.9842 N   0  0  0  0  0  0  0  0  0  0  0  0
   42.4131   21.4411   51.3011 H   0  0  0  0  0  0  0  0  0  0  0  0
   44.4036   21.1224   50.6339 C   0  0  0  0  0  0  0  0  0  0  0  0
   44.1388   19.6235   50.8873 C   0  0  0  0  0  0  0  0  0  0  0  0
   45.4564   18.9086   51.2300 C   0  0  0  0  0  0  0  0  0  0  0  0
   45.4611   18.4942   52.6218 N   0  0  0  0  0  0  0  0  0  0  0  0
   44.8433   17.7865   52.9163 H   0  0  0  0  0  0  0  0  0  0  0  0
   46.2658   19.0398   53.4881 C   0  0  0  0  0  0  0  0  0  0  0  0
   46.4646   20.3360   53.5664 N   0  0  0  0  0  0  0  0  0  0  0  0
   46.9173   18.2651   54.3007 N   0  0  0  0  0  0  0  0  0  0  0  0
   45.9829   20.9453   52.9615 H   0  0  0  0  0  0  0  0  0  0  0  0
   46.7863   17.2901   54.2624 H   0  0  0  0  0  0  0  0  0  0  0  0
   47.5423   18.6525   54.9553 H   0  0  0  0  0  0  0  0  0  0  0  0
   42.4984   25.0397   54.7825 C   0  0  0  0  0  0  0  0  0  0  0  0
   43.7036   25.0886   55.5726 N   0  0  0  0  0  0  0  0  0  0  0  0
   43.8567   24.1493   55.9394 H   0  0  0  0  0  0  0  0  0  0  0  0
   44.9581   25.5115   54.9451 C   0  0  0  0  0  0  0  0  0  0  0  0
   45.9845   24.4627   55.2066 C   0  0  0  0  0  0  0  0  0  0  0  0
   46.9625   24.7153   55.9680 O   0  0  0  0  0  0  0  0  0  0  0  0
   45.8803   23.2747   54.6159 O   0  0  0  0  0  0  0  0  0  0  0  0
   45.1535   23.0935   54.0530 H   0  0  0  0  0  0  0  0  0  0  0  0
   41.4580   24.2207   55.6386 C   0  0  0  0  0  0  0  0  0  0  0  0
   39.7745   24.6932   57.4156 C   0  0  0  0  0  0  0  0  0  0  0  0
   40.1228   24.9490   55.9130 C   0  0  0  0  0  0  0  0  0  0  0  0
   38.9645   24.4718   54.9745 C   0  0  0  0  0  0  0  0  0  0  0  0
   37.5680   24.8959   55.4949 C   0  0  0  0  0  0  0  0  0  0  0  0
   37.3704   24.3677   56.9041 C   0  0  0  0  0  0  0  0  0  0  0  0
   38.3467   25.1089   57.8031 C   0  0  0  0  0  0  0  0  0  0  0  0
  9 10  2  0  0  0
  9 11  1  0  0  0
  9  2  1  0  0  0
 11 13  1  0  0  0
 13 14  1  0  0  0
 14 15  1  0  0  0
 15 16  1  0  0  0
 16 18  1  0  0  0
 18 19  2  0  0  0
 18 20  1  0  0  0
  1  2  1  0  0  0
  1  6  1  0  0  0
  1  8  1  0  0  0
  2  3  1  0  0  0
  3  4  1  0  0  0
  4  5  1  0  0  0
  5  6  1  0  0  0
  7  8  2  0  0  0
  8 24  1  0  0  0
 24 32  1  0  0  0
 24 25  1  0  0  0
 32 34  1  0  0  0
 33 34  1  0  0  0
 33 38  1  0  0  0
 34 35  1  0  0  0
 35 36  1  0  0  0
 36 37  1  0  0  0
 37 38  1  0  0  0
 25 27  1  0  0  0
 27 28  1  0  0  0
 28 29  2  0  0  0
 28 30  1  0  0  0
 11 12  1  0  0  0
 16 17  1  0  0  0
 19 21  1  0  0  0
 20 22  1  0  0  0
 20 23  1  0  0  0
 25 26  1  0  0  0
 30 31  1  0  0  0
M  END
> <minimizedAffinity>
-7.98300

$$$$
1K1O_IGN_A_999


 38 39  0  0  0  0  0  0  0  0999 V2000
   42.1050   25.3131   52.2403 N   0  0  0  0  0  0  0  0  0  0  0  0
   41.8322   24.2755   51.2170 C   0  0  0  0  0  0  0  0  0  0  0  0
   41.3960   24.9022   49.8936 C   0  0  0  0  0  0  0  0  0  0  0  0
   40.1184   25.7678   50.0809 C   0  0  0  0  0  0  0  0  0  0  0  0
   40.4667   26.8956   51.0929 C   0  0  0  0  0  0  0  0  0  0  0  0
   40.9615   26.2908   52.4348 C   0  0  0  0  0  0  0  0  0  0  0  0
   43.0433   23.6297   53.5149 O   0  0  0  0  0  0  0  0  0  0  0  0
   42.5007   24.7588   53.4371 C   0  0  0  0  0  0  0  0  0  0  0  0
   43.1151   23.5243   50.9096 C   0  0  0  0  0  0  0  0  0  0  0  0
   44.0744   24.1574   50.4962 O   0  0  0  0  0  0  0  0  0  0  0  0
   43.1557   22.1713   51.0902 N   0  0  0  0  0  0  0  0  0  0  0  0
   42.3666   21.6896   51.4286 H   0  0  0  0  0  0  0  0  0  0  0  0
   44.3740   21.4542   50.7776 C   0  0  0  0  0  0  0  0  0  0  0  0
   44.1066   19.9348   50.8079 C   0  0  0  0  0  0  0  0  0  0  0  0
   45.4135   19.1779   51.0973 C   0  0  0  0  0  0  0  0  0  0  0  0
   45.2323   18.2603   52.2081 N   0  0  0  0  0  0  0  0  0  0  0  0
   44.6790   17.4556   52.0837 H   0  0  0  0  0  0  0  0  0  0  0  0
   45.7870   18.4803   53.3656 C   0  0  0  0  0  0  0  0  0  0  0  0
   46.1297   19.6784   53.7814 N   0  0  0  0  0  0  0  0  0  0  0  0
   46.0304   17.4657   54.1378 N   0  0  0  0  0  0  0  0  0  0  0  0
   45.9561   20.4644   53.2147 H   0  0  0  0  0  0  0  0  0  0  0  0
   45.7834   16.5573   53.8496 H   0  0  0  0  0  0  0  0  0  0  0  0
   46.4619   17.6046   55.0117 H   0  0  0  0  0  0  0  0  0  0  0  0
   42.2720   25.5282   54.7001 C   0  0  0  0  0  0  0  0  0  0  0  0
   43.5003   25.8672   55.3748 N   0  0  0  0  0  0  0  0  0  0  0  0
   44.2343   25.8811   54.6667 H   0  0  0  0  0  0  0  0  0  0  0  0
   43.5920   27.1315   56.1093 C   0  0  0  0  0  0  0  0  0  0  0  0
   43.5129   28.2474   55.1242 C   0  0  0  0  0  0  0  0  0  0  0  0
   44.3435   28.3063   54.1721 O   0  0  0  0  0  0  0  0  0  0  0  0
   42.5851   29.1906   55.2677 O   0  0  0  0  0  0  0  0  0  0  0  0
   41.9726   29.1415   55.9751 H   0  0  0  0  0  0  0  0  0  0  0  0
   41.4657   24.6223   55.7078 C   0  0  0  0  0  0  0  0  0  0  0  0
   39.7084   24.6720   57.4754 C   0  0  0  0  0  0  0  0  0  0  0  0
   40.0265   25.1003   56.0057 C   0  0  0  0  0  0  0  0  0  0  0  0
   38.9721   24.5184   55.0059 C   0  0  0  0  0  0  0  0  0  0  0  0
   37.5195   24.6676   55.5242 C   0  0  0  0  0  0  0  0  0  0  0  0
   37.3956   24.0033   56.8833 C   0  0  0  0  0  0  0  0  0  0  0  0
   38.2277   24.8185   57.8598 C   0  0  0  0  0  0  0  0  0  0  0  0
  9 10  2  0  0  0
  9 11  1  0  0  0
  9  2  1  0  0  0
 11 13  1  0  0  0
 13 14  1  0  0  0
 14 15  1  0  0  0
 15 16  1  0  0  0
 16 18  1  0  0  0
 18 19  2  0  0  0
 18 20  1  0  0  0
  1  2  1  0  0  0
  1  6  1  0  0  0
  1  8  1  0  0  0
  2  3  1  0  0  0
  3  4  1  0  0  0
  4  5  1  0  0  0
  5  6  1  0  0  0
  7  8  2  0  0  0
  8 24  1  0  0  0
 24 32  1  0  0  0
 24 25  1  0  0  0
 32 34  1  0  0  0
 33 34  1  0  0  0
 33 38  1  0  0  0
 34 35  1  0  0  0
 35 36  1  0  0  0
 36 37  1  0  0  0
 37 38  1  0  0  0
 25 27  1  0  0  0
 27 28  1  0  0  0
 28 29  2  0  0  0
 28 30  1  0  0  0
 11 12  1  0  0  0
 16 17  1  0  0  0
 19 21  1  0  0  0
 20 22  1  0  0  0
 20 23  1  0  0  0
 25 26  1  0  0  0
 30 31  1  0  0  0
M  END
> <minimizedAffinity>
-6.96064

$$$$
1K1O_IGN_A_999


 38 39  0  0  0  0  0  0  0  0999 V2000
   43.8394   25.4839   51.4972 N   0  0  0  0  0  0  0  0  0  0  0  0
   43.2771   25.0359   50.2005 C   0  0  0  0  0  0  0  0  0  0  0  0
   43.9411   25.7571   49.0287 C   0  0  0  0  0  0  0  0  0  0  0  0
   43.7604   27.2966   49.1468 C   0  0  0  0  0  0  0  0  0  0  0  0
   44.4369   27.7423   50.4738 C   0  0  0  0  0  0  0  0  0  0  0  0
   43.8167   26.9894   51.6821 C   0  0  0  0  0  0  0  0  0  0  0  0
   42.7136   23.7081   52.4552 O   0  0  0  0  0  0  0  0  0  0  0  0
   43.2488   24.8385   52.5606 C   0  0  0  0  0  0  0  0  0  0  0  0
   43.5864   23.5630   50.0014 C   0  0  0  0  0  0  0  0  0  0  0  0
   42.7810   22.8775   49.3903 O   0  0  0  0  0  0  0  0  0  0  0  0
   44.7407   23.0478   50.5181 N   0  0  0  0  0  0  0  0  0  0  0  0
   45.3722   23.6271   51.0028 H   0  0  0  0  0  0  0  0  0  0  0  0
   45.0242   21.6387   50.3439 C   0  0  0  0  0  0  0  0  0  0  0  0
   44.7526   20.8857   51.6631 C   0  0  0  0  0  0  0  0  0  0  0  0
   44.5189   19.3931   51.3766 C   0  0  0  0  0  0  0  0  0  0  0  0
   45.6311   18.6018   51.8722 N   0  0  0  0  0  0  0  0  0  0  0  0
   46.2917   18.2460   51.2348 H   0  0  0  0  0  0  0  0  0  0  0  0
   45.7724   18.3533   53.1427 C   0  0  0  0  0  0  0  0  0  0  0  0
   44.9008   17.6609   53.8401 N   0  0  0  0  0  0  0  0  0  0  0  0
   46.8145   18.8282   53.7537 N   0  0  0  0  0  0  0  0  0  0  0  0
   44.1019   17.2898   53.4004 H   0  0  0  0  0  0  0  0  0  0  0  0
   47.4828   19.3506   53.2539 H   0  0  0  0  0  0  0  0  0  0  0  0
   46.9367   18.6661   54.7171 H   0  0  0  0  0  0  0  0  0  0  0  0
   43.2374   25.5106   53.8975 C   0  0  0  0  0  0  0  0  0  0  0  0
   44.5546   25.6276   54.4723 N   0  0  0  0  0  0  0  0  0  0  0  0
   44.4568   25.4658   55.4746 H   0  0  0  0  0  0  0  0  0  0  0  0
   45.6259   24.7468   54.0003 C   0  0  0  0  0  0  0  0  0  0  0  0
   46.0953   23.9275   55.1537 C   0  0  0  0  0  0  0  0  0  0  0  0
   46.1919   24.4524   56.3005 O   0  0  0  0  0  0  0  0  0  0  0  0
   46.4358   22.6549   54.9649 O   0  0  0  0  0  0  0  0  0  0  0  0
   46.3620   22.2717   54.1130 H   0  0  0  0  0  0  0  0  0  0  0  0
   42.4079   24.6249   54.9043 C   0  0  0  0  0  0  0  0  0  0  0  0
   40.7379   24.5604   56.7542 C   0  0  0  0  0  0  0  0  0  0  0  0
   41.0927   25.2645   55.4040 C   0  0  0  0  0  0  0  0  0  0  0  0
   39.9219   25.1344   54.3732 C   0  0  0  0  0  0  0  0  0  0  0  0
   38.5374   25.4098   55.0120 C   0  0  0  0  0  0  0  0  0  0  0  0
   38.3259   24.4725   56.1871 C   0  0  0  0  0  0  0  0  0  0  0  0
   39.3218   24.8702   57.2644 C   0  0  0  0  0  0  0  0  0  0  0  0
  9 10  2  0  0  0
  9 11  1  0  0  0
  9  2  1  0  0  0
 11 13  1  0  0  0
 13 14  1  0  0  0
 14 15  1  0  0  0
 15 16  1  0  0  0
 16 18  1  0  0  0
 18 19  2  0  0  0
 18 20  1  0  0  0
  1  2  1  0  0  0
  1  6  1  0  0  0
  1  8  1  0  0  0
  2  3  1  0  0  0
  3  4  1  0  0  0
  4  5  1  0  0  0
  5  6  1  0  0  0
  7  8  2  0  0  0
  8 24  1  0  0  0
 24 32  1  0  0  0
 24 25  1  0  0  0
 32 34  1  0  0  0
 33 34  1  0  0  0
 33 38  1  0  0  0
 34 35  1  0  0  0
 35 36  1  0  0  0
 36 37  1  0  0  0
 37 38  1  0  0  0
 25 27  1  0  0  0
 27 28  1  0  0  0
 28 29  2  0  0  0
 28 30  1  0  0  0
 11 12  1  0  0  0
 16 17  1  0  0  0
 19 21  1  0  0  0
 20 22  1  0  0  0
 20 23  1  0  0  0
 25 26  1  0  0  0
 30 31  1  0  0  0
M  END
> <minimizedAffinity>
-6.65209

$$$$
1K1O_IGN_A_999


 38 39  0  0  0  0  0  0  0  0999 V2000
   41.1063   25.1465   51.9968 N   0  0  0  0  0  0  0  0  0  0  0  0
   40.7520   26.2390   52.9344 C   0  0  0  0  0  0  0  0  0  0  0  0
   39.4165   26.8801   52.5605 C   0  0  0  0  0  0  0  0  0  0  0  0
   39.4586   27.4545   51.1165 C   0  0  0  0  0  0  0  0  0  0  0  0
   39.7459   26.2679   50.1538 C   0  0  0  0  0  0  0  0  0  0  0  0
   41.0750   25.5629   50.5384 C   0  0  0  0  0  0  0  0  0  0  0  0
   42.7726   24.5745   53.4918 O   0  0  0  0  0  0  0  0  0  0  0  0
   42.3082   24.5605   52.3259 C   0  0  0  0  0  0  0  0  0  0  0  0
   40.5529   25.6625   54.3246 C   0  0  0  0  0  0  0  0  0  0  0  0
   39.7262   24.7756   54.4730 O   0  0  0  0  0  0  0  0  0  0  0  0
   41.2886   26.1568   55.3636 N   0  0  0  0  0  0  0  0  0  0  0  0
   41.9503   26.8696   55.2112 H   0  0  0  0  0  0  0  0  0  0  0  0
   41.0829   25.6190   56.6920 C   0  0  0  0  0  0  0  0  0  0  0  0
   40.2632   26.6167   57.5368 C   0  0  0  0  0  0  0  0  0  0  0  0
   38.9006   26.0024   57.8981 C   0  0  0  0  0  0  0  0  0  0  0  0
   38.8193   24.6333   57.4208 N   0  0  0  0  0  0  0  0  0  0  0  0
   39.6442   24.1030   57.3343 H   0  0  0  0  0  0  0  0  0  0  0  0
   37.6773   24.0929   57.1051 C   0  0  0  0  0  0  0  0  0  0  0  0
   37.2880   23.9108   55.8638 N   0  0  0  0  0  0  0  0  0  0  0  0
   36.8771   23.7342   58.0621 N   0  0  0  0  0  0  0  0  0  0  0  0
   37.8763   24.1743   55.1197 H   0  0  0  0  0  0  0  0  0  0  0  0
   37.1451   23.8600   59.0010 H   0  0  0  0  0  0  0  0  0  0  0  0
   36.0021   23.3363   57.8490 H   0  0  0  0  0  0  0  0  0  0  0  0
   43.0991   23.8822   51.2518 C   0  0  0  0  0  0  0  0  0  0  0  0
   43.0338   22.4444   51.3370 N   0  0  0  0  0  0  0  0  0  0  0  0
   42.8506   22.0990   50.3949 H   0  0  0  0  0  0  0  0  0  0  0  0
   44.1886   21.7010   51.8470 C   0  0  0  0  0  0  0  0  0  0  0  0
   44.3197   20.4457   51.0540 C   0  0  0  0  0  0  0  0  0  0  0  0
   43.9255   20.4164   49.8524 O   0  0  0  0  0  0  0  0  0  0  0  0
   44.8263   19.3547   51.6233 O   0  0  0  0  0  0  0  0  0  0  0  0
   45.1166   19.3826   52.5137 H   0  0  0  0  0  0  0  0  0  0  0  0
   44.6211   24.2532   51.4307 C   0  0  0  0  0  0  0  0  0  0  0  0
   44.5656   26.1618   49.8276 C   0  0  0  0  0  0  0  0  0  0  0  0
   45.3047   24.8269   50.1688 C   0  0  0  0  0  0  0  0  0  0  0  0
   45.2743   23.8373   48.9564 C   0  0  0  0  0  0  0  0  0  0  0  0
   45.5923   24.5386   47.6117 C   0  0  0  0  0  0  0  0  0  0  0  0
   44.6203   25.6842   47.3954 C   0  0  0  0  0  0  0  0  0  0  0  0
   44.9246   26.7371   48.4486 C   0  0  0  0  0  0  0  0  0  0  0  0
  9 10  2  0  0  0
  9 11  1  0  0  0
  9  2  1  0  0  0
 11 13  1  0  0  0
 13 14  1  0  0  0
 14 15  1  0  0  0
 15 16  1  0  0  0
 16 18  1  0  0  0
 18 19  2  0  0  0
 18 20  1  0  0  0
  1  2  1  0  0  0
  1  6  1  0  0  0
  1  8  1  0  0  0
  2  3  1  0  0  0
  3  4  1  0  0  0
  4  5  1  0  0  0
  5  6  1  0  0  0
  7  8  2  0  0  0
  8 24  1  0  0  0
 24 32  1  0  0  0
 24 25  1  0  0  0
 32 34  1  0  0  0
 33 34  1  0  0  0
 33 38  1  0  0  0
 34 35  1  0  0  0
 35 36  1  0  0  0
 36 37  1  0  0  0
 37 38  1  0  0  0
 25 27  1  0  0  0
 27 28  1  0  0  0
 28 29  2  0  0  0
 28 30  1  0  0  0
 11 12  1  0  0  0
 16 17  1  0  0  0
 19 21  1  0  0  0
 20 22  1  0  0  0
 20 23  1  0  0  0
 25 26  1  0  0  0
 30 31  1  0  0  0
M  END
> <minimizedAffinity>
-6.11570

$$$$
1K1O_IGN_A_999


 38 39  0  0  0  0  0  0  0  0999 V2000
   41.7090   25.6845   52.1602 N   0  0  0  0  0  0  0  0  0  0  0  0
   41.4400   24.6834   51.1001 C   0  0  0  0  0  0  0  0  0  0  0  0
   40.9905   25.3550   49.8035 C   0  0  0  0  0  0  0  0  0  0  0  0
   39.7060   26.2010   50.0299 C   0  0  0  0  0  0  0  0  0  0  0  0
   40.0498   27.2933   51.0816 C   0  0  0  0  0  0  0  0  0  0  0  0
   40.5576   26.6434   52.3973 C   0  0  0  0  0  0  0  0  0  0  0  0
   42.6699   23.9635   53.3658 O   0  0  0  0  0  0  0  0  0  0  0  0
   42.1166   25.0896   53.3332 C   0  0  0  0  0  0  0  0  0  0  0  0
   42.7279   23.9563   50.7580 C   0  0  0  0  0  0  0  0  0  0  0  0
   43.6674   24.6088   50.3294 O   0  0  0  0  0  0  0  0  0  0  0  0
   42.7947   22.6026   50.9254 N   0  0  0  0  0  0  0  0  0  0  0  0
   42.0212   22.1050   51.2766 H   0  0  0  0  0  0  0  0  0  0  0  0
   44.0174   21.9086   50.5798 C   0  0  0  0  0  0  0  0  0  0  0  0
   44.1989   20.6833   51.4999 C   0  0  0  0  0  0  0  0  0  0  0  0
   45.3337   20.9447   52.5040 C   0  0  0  0  0  0  0  0  0  0  0  0
   44.8773   21.8218   53.5675 N   0  0  0  0  0  0  0  0  0  0  0  0
   43.9818   21.6863   53.9536 H   0  0  0  0  0  0  0  0  0  0  0  0
   45.6284   22.7841   54.0209 C   0  0  0  0  0  0  0  0  0  0  0  0
   46.5207   22.6122   54.9695 N   0  0  0  0  0  0  0  0  0  0  0  0
   45.4755   23.9741   53.5254 N   0  0  0  0  0  0  0  0  0  0  0  0
   46.6561   21.7196   55.3621 H   0  0  0  0  0  0  0  0  0  0  0  0
   44.8135   24.1295   52.8135 H   0  0  0  0  0  0  0  0  0  0  0  0
   46.0216   24.7211   53.8614 H   0  0  0  0  0  0  0  0  0  0  0  0
   41.8880   25.8089   54.6254 C   0  0  0  0  0  0  0  0  0  0  0  0
   43.1040   26.3419   55.1877 N   0  0  0  0  0  0  0  0  0  0  0  0
   42.9219   27.3190   55.4172 H   0  0  0  0  0  0  0  0  0  0  0  0
   43.6747   25.7213   56.3858 C   0  0  0  0  0  0  0  0  0  0  0  0
   45.0745   26.2098   56.5397 C   0  0  0  0  0  0  0  0  0  0  0  0
   45.2964   27.3112   57.1208 O   0  0  0  0  0  0  0  0  0  0  0  0
   46.0814   25.4969   56.0408 O   0  0  0  0  0  0  0  0  0  0  0  0
   45.9108   24.6818   55.6114 H   0  0  0  0  0  0  0  0  0  0  0  0
   41.3387   24.7819   55.6882 C   0  0  0  0  0  0  0  0  0  0  0  0
   38.9264   24.2292   55.3879 C   0  0  0  0  0  0  0  0  0  0  0  0
   39.9237   25.0943   56.2256 C   0  0  0  0  0  0  0  0  0  0  0  0
   39.5622   26.6149   56.1418 C   0  0  0  0  0  0  0  0  0  0  0  0
   38.0425   26.8719   56.3012 C   0  0  0  0  0  0  0  0  0  0  0  0
   37.2819   26.0798   55.2534 C   0  0  0  0  0  0  0  0  0  0  0  0
   37.4510   24.6077   55.5920 C   0  0  0  0  0  0  0  0  0  0  0  0
  9 10  2  0  0  0
  9 11  1  0  0  0
  9  2  1  0  0  0
 11 13  1  0  0  0
 13 14  1  0  0  0
 14 15  1  0  0  0
 15 16  1  0  0  0
 16 18  1  0  0  0
 18 19  2  0  0  0
 18 20  1  0  0  0
  1  2  1  0  0  0
  1  6  1  0  0  0
  1  8  1  0  0  0
  2  3  1  0  0  0
  3  4  1  0  0  0
  4  5  1  0  0  0
  5  6  1  0  0  0
  7  8  2  0  0  0
  8 24  1  0  0  0
 24 32  1  0  0  0
 24 25  1  0  0  0
 32 34  1  0  0  0
 33 34  1  0  0  0
 33 38  1  0  0  0
 34 35  1  0  0  0
 35 36  1  0  0  0
 36 37  1  0  0  0
 37 38  1  0  0  0
 25 27  1  0  0  0
 27 28  1  0  0  0
 28 29  2  0  0  0
 28 30  1  0  0  0
 11 12  1  0  0  0
 16 17  1  0  0  0
 19 21  1  0  0  0
 20 22  1  0  0  0
 20 23  1  0  0  0
 25 26  1  0  0  0
 30 31  1  0  0  0
M  END
> <minimizedAffinity>
-6.09434

$$$$
1K1O_IGN_A_999


 38 39  0  0  0  0  0  0  0  0999 V2000
   43.4768   26.3657   53.7887 N   0  0  0  0  0  0  0  0  0  0  0  0
   43.4045   26.2556   52.3119 C   0  0  0  0  0  0  0  0  0  0  0  0
   44.0596   27.4573   51.6329 C   0  0  0  0  0  0  0  0  0  0  0  0
   43.3779   28.7845   52.0693 C   0  0  0  0  0  0  0  0  0  0  0  0
   43.5488   28.9088   53.6097 C   0  0  0  0  0  0  0  0  0  0  0  0
   42.9355   27.6763   54.3279 C   0  0  0  0  0  0  0  0  0  0  0  0
   42.7812   24.1635   53.8608 O   0  0  0  0  0  0  0  0  0  0  0  0
   42.8903   25.2863   54.4109 C   0  0  0  0  0  0  0  0  0  0  0  0
   44.2022   25.0460   51.8592 C   0  0  0  0  0  0  0  0  0  0  0  0
   45.3893   24.9937   52.1421 O   0  0  0  0  0  0  0  0  0  0  0  0
   43.5780   24.0648   51.1433 N   0  0  0  0  0  0  0  0  0  0  0  0
   42.6184   24.1340   50.9342 H   0  0  0  0  0  0  0  0  0  0  0  0
   44.3453   22.9216   50.6956 C   0  0  0  0  0  0  0  0  0  0  0  0
   43.9920   21.6888   51.5538 C   0  0  0  0  0  0  0  0  0  0  0  0
   45.1103   20.6385   51.4486 C   0  0  0  0  0  0  0  0  0  0  0  0
   45.2854   19.9559   52.7182 N   0  0  0  0  0  0  0  0  0  0  0  0
   45.4779   20.4833   53.5269 H   0  0  0  0  0  0  0  0  0  0  0  0
   45.1931   18.6601   52.8088 C   0  0  0  0  0  0  0  0  0  0  0  0
   44.2167   17.9701   52.2645 N   0  0  0  0  0  0  0  0  0  0  0  0
   46.0984   18.0211   53.4849 N   0  0  0  0  0  0  0  0  0  0  0  0
   43.5175   18.4308   51.7467 H   0  0  0  0  0  0  0  0  0  0  0  0
   46.8406   18.5149   53.9028 H   0  0  0  0  0  0  0  0  0  0  0  0
   46.0428   17.0428   53.5798 H   0  0  0  0  0  0  0  0  0  0  0  0
   42.3548   25.4554   55.7980 C   0  0  0  0  0  0  0  0  0  0  0  0
   43.3102   25.0839   56.8119 N   0  0  0  0  0  0  0  0  0  0  0  0
   44.2356   25.1571   56.3893 H   0  0  0  0  0  0  0  0  0  0  0  0
   43.3542   25.8358   58.0685 C   0  0  0  0  0  0  0  0  0  0  0  0
   43.1119   24.8827   59.1886 C   0  0  0  0  0  0  0  0  0  0  0  0
   43.6118   25.1104   60.3280 O   0  0  0  0  0  0  0  0  0  0  0  0
   42.3929   23.7831   58.9764 O   0  0  0  0  0  0  0  0  0  0  0  0
   42.0252   23.6198   58.1302 H   0  0  0  0  0  0  0  0  0  0  0  0
   41.1270   24.4850   55.9902 C   0  0  0  0  0  0  0  0  0  0  0  0
   38.7163   24.4131   55.3590 C   0  0  0  0  0  0  0  0  0  0  0  0
   39.7695   25.1884   56.2160 C   0  0  0  0  0  0  0  0  0  0  0  0
   39.7998   26.7069   55.8374 C   0  0  0  0  0  0  0  0  0  0  0  0
   38.3796   27.3077   55.6858 C   0  0  0  0  0  0  0  0  0  0  0  0
   37.6001   26.5120   54.6547 C   0  0  0  0  0  0  0  0  0  0  0  0
   37.3619   25.1295   55.2399 C   0  0  0  0  0  0  0  0  0  0  0  0
  9 10  2  0  0  0
  9 11  1  0  0  0
  9  2  1  0  0  0
 11 13  1  0  0  0
 13 14  1  0  0  0
 14 15  1  0  0  0
 15 16  1  0  0  0
 16 18  1  0  0  0
 18 19  2  0  0  0
 18 20  1  0  0  0
  1  2  1  0  0  0
  1  6  1  0  0  0
  1  8  1  0  0  0
  2  3  1  0  0  0
  3  4  1  0  0  0
  4  5  1  0  0  0
  5  6  1  0  0  0
  7  8  2  0  0  0
  8 24  1  0  0  0
 24 32  1  0  0  0
 24 25  1  0  0  0
 32 34  1  0  0  0
 33 34  1  0  0  0
 33 38  1  0  0  0
 34 35  1  0  0  0
 35 36  1  0  0  0
 36 37  1  0  0  0
 37 38  1  0  0  0
 25 27  1  0  0  0
 27 28  1  0  0  0
 28 29  2  0  0  0
 28 30  1  0  0  0
 11 12  1  0  0  0
 16 17  1  0  0  0
 19 21  1  0  0  0
 20 22  1  0  0  0
 20 23  1  0  0  0
 25 26  1  0  0  0
 30 31  1  0  0  0
M  END
> <minimizedAffinity>
-5.92585

$$$$
1K1O_IGN_A_999


 38 39  0  0  0  0  0  0  0  0999 V2000
   42.2552   25.1083   51.1313 N   0  0  0  0  0  0  0  0  0  0  0  0
   42.2954   26.4160   51.8287 C   0  0  0  0  0  0  0  0  0  0  0  0
   40.8882   26.9598   52.0703 C   0  0  0  0  0  0  0  0  0  0  0  0
   40.1190   27.1313   50.7302 C   0  0  0  0  0  0  0  0  0  0  0  0
   40.0205   25.7274   50.0693 C   0  0  0  0  0  0  0  0  0  0  0  0
   41.4355   25.1248   49.8549 C   0  0  0  0  0  0  0  0  0  0  0  0
   44.5059   24.9213   51.6193 O   0  0  0  0  0  0  0  0  0  0  0  0
   43.5189   24.6081   50.9100 C   0  0  0  0  0  0  0  0  0  0  0  0
   42.9037   26.2312   53.2072 C   0  0  0  0  0  0  0  0  0  0  0  0
   42.4069   25.4033   53.9554 O   0  0  0  0  0  0  0  0  0  0  0  0
   43.9724   26.9985   53.5734 N   0  0  0  0  0  0  0  0  0  0  0  0
   44.3530   27.6550   52.9462 H   0  0  0  0  0  0  0  0  0  0  0  0
   44.5385   26.8343   54.8958 C   0  0  0  0  0  0  0  0  0  0  0  0
   46.0790   26.8463   54.8081 C   0  0  0  0  0  0  0  0  0  0  0  0
   46.5945   25.4446   54.4422 C   0  0  0  0  0  0  0  0  0  0  0  0
   45.8449   24.4264   55.1565 N   0  0  0  0  0  0  0  0  0  0  0  0
   45.5104   24.6201   56.0620 H   0  0  0  0  0  0  0  0  0  0  0  0
   45.6062   23.2625   54.6236 C   0  0  0  0  0  0  0  0  0  0  0  0
   46.4265   22.2420   54.7307 N   0  0  0  0  0  0  0  0  0  0  0  0
   44.5149   23.1080   53.9380 N   0  0  0  0  0  0  0  0  0  0  0  0
   47.2609   22.3330   55.2452 H   0  0  0  0  0  0  0  0  0  0  0  0
   43.8834   23.8573   53.8425 H   0  0  0  0  0  0  0  0  0  0  0  0
   44.3187   22.2417   53.5135 H   0  0  0  0  0  0  0  0  0  0  0  0
   43.7303   23.6558   49.7752 C   0  0  0  0  0  0  0  0  0  0  0  0
   43.5908   22.2770   50.1732 N   0  0  0  0  0  0  0  0  0  0  0  0
   43.2012   21.7754   49.3750 H   0  0  0  0  0  0  0  0  0  0  0  0
   44.7739   21.5312   50.6097 C   0  0  0  0  0  0  0  0  0  0  0  0
   44.6005   20.1072   50.2049 C   0  0  0  0  0  0  0  0  0  0  0  0
   43.6434   19.7811   49.4450 O   0  0  0  0  0  0  0  0  0  0  0  0
   45.4383   19.1823   50.6673 O   0  0  0  0  0  0  0  0  0  0  0  0
   46.1455   19.4301   51.2299 H   0  0  0  0  0  0  0  0  0  0  0  0
   45.2120   23.8042   49.2568 C   0  0  0  0  0  0  0  0  0  0  0  0
   46.0066   25.9730   48.3187 C   0  0  0  0  0  0  0  0  0  0  0  0
   45.3652   24.5983   47.9398 C   0  0  0  0  0  0  0  0  0  0  0  0
   44.0076   24.7958   47.1861 C   0  0  0  0  0  0  0  0  0  0  0  0
   44.0872   25.9009   46.1029 C   0  0  0  0  0  0  0  0  0  0  0  0
   44.5435   27.2016   46.7385 C   0  0  0  0  0  0  0  0  0  0  0  0
   45.9846   27.0049   47.1801 C   0  0  0  0  0  0  0  0  0  0  0  0
  9 10  2  0  0  0
  9 11  1  0  0  0
  9  2  1  0  0  0
 11 13  1  0  0  0
 13 14  1  0  0  0
 14 15  1  0  0  0
 15 16  1  0  0  0
 16 18  1  0  0  0
 18 19  2  0  0  0
 18 20  1  0  0  0
  1  2  1  0  0  0
  1  6  1  0  0  0
  1  8  1  0  0  0
  2  3  1  0  0  0
  3  4  1  0  0  0
  4  5  1  0  0  0
  5  6  1  0  0  0
  7  8  2  0  0  0
  8 24  1  0  0  0
 24 32  1  0  0  0
 24 25  1  0  0  0
 32 34  1  0  0  0
 33 34  1  0  0  0
 33 38  1  0  0  0
 34 35  1  0  0  0
 35 36  1  0  0  0
 36 37  1  0  0  0
 37 38  1  0  0  0
 25 27  1  0  0  0
 27 28  1  0  0  0
 28 29  2  0  0  0
 28 30  1  0  0  0
 11 12  1  0  0  0
 16 17  1  0  0  0
 19 21  1  0  0  0
 20 22  1  0  0  0
 20 23  1  0  0  0
 25 26  1  0  0  0
 30 31  1  0  0  0
M  END
> <minimizedAffinity>
-5.88191

$$$$
1K1O_IGN_A_999


 38 39  0  0  0  0  0  0  0  0999 V2000
   40.6831   26.2601   53.9233 N   0  0  0  0  0  0  0  0  0  0  0  0
   40.9188   25.7264   52.5603 C   0  0  0  0  0  0  0  0  0  0  0  0
   40.6666   26.7926   51.4953 C   0  0  0  0  0  0  0  0  0  0  0  0
   39.2097   27.3288   51.5772 C   0  0  0  0  0  0  0  0  0  0  0  0
   39.0259   27.9578   52.9872 C   0  0  0  0  0  0  0  0  0  0  0  0
   39.3235   26.9109   54.0947 C   0  0  0  0  0  0  0  0  0  0  0  0
   41.6761   24.3296   54.7143 O   0  0  0  0  0  0  0  0  0  0  0  0
   40.9093   25.3073   54.8913 C   0  0  0  0  0  0  0  0  0  0  0  0
   42.3810   25.3442   52.4169 C   0  0  0  0  0  0  0  0  0  0  0  0
   43.2273   26.2067   52.5955 O   0  0  0  0  0  0  0  0  0  0  0  0
   42.7055   24.0606   52.0823 N   0  0  0  0  0  0  0  0  0  0  0  0
   42.0002   23.3868   51.9485 H   0  0  0  0  0  0  0  0  0  0  0  0
   44.0999   23.7032   51.9268 C   0  0  0  0  0  0  0  0  0  0  0  0
   44.2663   22.7727   50.7072 C   0  0  0  0  0  0  0  0  0  0  0  0
   44.2804   21.3049   51.1654 C   0  0  0  0  0  0  0  0  0  0  0  0
   44.8573   21.1940   52.4934 N   0  0  0  0  0  0  0  0  0  0  0  0
   44.7402   21.9329   53.1334 H   0  0  0  0  0  0  0  0  0  0  0  0
   45.5265   20.1370   52.8549 C   0  0  0  0  0  0  0  0  0  0  0  0
   45.0707   18.9138   52.7083 N   0  0  0  0  0  0  0  0  0  0  0  0
   46.6915   20.3001   53.4036 N   0  0  0  0  0  0  0  0  0  0  0  0
   44.1899   18.7629   52.2951 H   0  0  0  0  0  0  0  0  0  0  0  0
   47.0559   21.2066   53.5250 H   0  0  0  0  0  0  0  0  0  0  0  0
   47.2107   19.5173   53.6984 H   0  0  0  0  0  0  0  0  0  0  0  0
   40.2106   25.4356   56.2083 C   0  0  0  0  0  0  0  0  0  0  0  0
   40.9973   24.9320   57.3066 N   0  0  0  0  0  0  0  0  0  0  0  0
   41.9043   24.6642   56.9242 H   0  0  0  0  0  0  0  0  0  0  0  0
   41.2590   25.7968   58.4599 C   0  0  0  0  0  0  0  0  0  0  0  0
   41.2448   24.9509   59.6871 C   0  0  0  0  0  0  0  0  0  0  0  0
   41.9421   23.8965   59.7328 O   0  0  0  0  0  0  0  0  0  0  0  0
   40.4774   25.2958   60.7183 O   0  0  0  0  0  0  0  0  0  0  0  0
   39.9631   26.0781   60.6785 H   0  0  0  0  0  0  0  0  0  0  0  0
   38.9037   24.5540   56.1780 C   0  0  0  0  0  0  0  0  0  0  0  0
   36.8466   23.6373   57.2473 C   0  0  0  0  0  0  0  0  0  0  0  0
   38.0345   24.6329   57.4535 C   0  0  0  0  0  0  0  0  0  0  0  0
   37.5154   26.0799   57.7483 C   0  0  0  0  0  0  0  0  0  0  0  0
   36.3498   26.0942   58.7692 C   0  0  0  0  0  0  0  0  0  0  0  0
   35.2232   25.2112   58.2644 C   0  0  0  0  0  0  0  0  0  0  0  0
   35.7284   23.7778   58.2920 C   0  0  0  0  0  0  0  0  0  0  0  0
  9 10  2  0  0  0
  9 11  1  0  0  0
  9  2  1  0  0  0
 11 13  1  0  0  0
 13 14  1  0  0  0
 14 15  1  0  0  0
 15 16  1  0  0  0
 16 18  1  0  0  0
 18 19  2  0  0  0
 18 20  1  0  0  0
  1  2  1  0  0  0
  1  6  1  0  0  0
  1  8  1  0  0  0
  2  3  1  0  0  0
  3  4  1  0  0  0
  4  5  1  0  0  0
  5  6  1  0  0  0
  7  8  2  0  0  0
  8 24  1  0  0  0
 24 32  1  0  0  0
 24 25  1  0  0  0
 32 34  1  0  0  0
 33 34  1  0  0  0
 33 38  1  0  0  0
 34 35  1  0  0  0
 35 36  1  0  0  0
 36 37  1  0  0  0
 37 38  1  0  0  0
 25 27  1  0  0  0
 27 28  1  0  0  0
 28 29  2  0  0  0
 28 30  1  0  0  0
 11 12  1  0  0  0
 16 17  1  0  0  0
 19 21  1  0  0  0
 20 22  1  0  0  0
 20 23  1  0  0  0
 25 26  1  0  0  0
 30 31  1  0  0  0
M  END
> <minimizedAffinity>
-5.69689

$$$$
1K1O_IGN_A_999


 38 39  0  0  0  0  0  0  0  0999 V2000
   41.3025   25.8996   51.1826 N   0  0  0  0  0  0  0  0  0  0  0  0
   41.1517   27.2035   51.8722 C   0  0  0  0  0  0  0  0  0  0  0  0
   39.6992   27.6768   51.8531 C   0  0  0  0  0  0  0  0  0  0  0  0
   39.1782   27.8190   50.3953 C   0  0  0  0  0  0  0  0  0  0  0  0
   39.2699   26.4161   49.7313 C   0  0  0  0  0  0  0  0  0  0  0  0
   40.7280   25.8843   49.7786 C   0  0  0  0  0  0  0  0  0  0  0  0
   43.4339   25.8191   52.0712 O   0  0  0  0  0  0  0  0  0  0  0  0
   42.6084   25.4628   51.1955 C   0  0  0  0  0  0  0  0  0  0  0  0
   41.5083   27.0398   53.3387 C   0  0  0  0  0  0  0  0  0  0  0  0
   42.1703   27.9140   53.8768 O   0  0  0  0  0  0  0  0  0  0  0  0
   41.0933   25.9228   54.0057 N   0  0  0  0  0  0  0  0  0  0  0  0
   40.5575   25.2373   53.5451 H   0  0  0  0  0  0  0  0  0  0  0  0
   41.4514   25.7595   55.3991 C   0  0  0  0  0  0  0  0  0  0  0  0
   40.7713   24.4963   55.9671 C   0  0  0  0  0  0  0  0  0  0  0  0
   39.2452   24.6093   55.8163 C   0  0  0  0  0  0  0  0  0  0  0  0
   38.5911   24.3738   57.0913 N   0  0  0  0  0  0  0  0  0  0  0  0
   39.1383   24.1663   57.8830 H   0  0  0  0  0  0  0  0  0  0  0  0
   37.2955   24.4315   57.2086 C   0  0  0  0  0  0  0  0  0  0  0  0
   36.6155   23.6757   58.0405 N   0  0  0  0  0  0  0  0  0  0  0  0
   36.6424   25.2618   56.4543 N   0  0  0  0  0  0  0  0  0  0  0  0
   37.0870   23.0377   58.6235 H   0  0  0  0  0  0  0  0  0  0  0  0
   37.1284   25.8394   55.8223 H   0  0  0  0  0  0  0  0  0  0  0  0
   35.6611   25.3139   56.5141 H   0  0  0  0  0  0  0  0  0  0  0  0
   43.0683   24.5290   50.1205 C   0  0  0  0  0  0  0  0  0  0  0  0
   42.9808   23.1441   50.5121 N   0  0  0  0  0  0  0  0  0  0  0  0
   42.5457   22.6432   49.7374 H   0  0  0  0  0  0  0  0  0  0  0  0
   44.2041   22.4158   50.8578 C   0  0  0  0  0  0  0  0  0  0  0  0
   44.1487   22.0776   52.3084 C   0  0  0  0  0  0  0  0  0  0  0  0
   44.6373   20.9856   52.7191 O   0  0  0  0  0  0  0  0  0  0  0  0
   43.5613   22.9149   53.1599 O   0  0  0  0  0  0  0  0  0  0  0  0
   43.2012   23.7224   52.8498 H   0  0  0  0  0  0  0  0  0  0  0  0
   44.5953   24.7973   49.8336 C   0  0  0  0  0  0  0  0  0  0  0  0
   43.5705   25.1904   47.5951 C   0  0  0  0  0  0  0  0  0  0  0  0
   44.9263   25.1821   48.3738 C   0  0  0  0  0  0  0  0  0  0  0  0
   45.9562   24.2106   47.7063 C   0  0  0  0  0  0  0  0  0  0  0  0
   45.9877   24.3501   46.1634 C   0  0  0  0  0  0  0  0  0  0  0  0
   44.5945   24.1228   45.6055 C   0  0  0  0  0  0  0  0  0  0  0  0
   43.7295   25.2834   46.0695 C   0  0  0  0  0  0  0  0  0  0  0  0
  9 10  2  0  0  0
  9 11  1  0  0  0
  9  2  1  0  0  0
 11 13  1  0  0  0
 13 14  1  0  0  0
 14 15  1  0  0  0
 15 16  1  0  0  0
 16 18  1  0  0  0
 18 19  2  0  0  0
 18 20  1  0  0  0
  1  2  1  0  0  0
  1  6  1  0  0  0
  1  8  1  0  0  0
  2  3  1  0  0  0
  3  4  1  0  0  0
  4  5  1  0  0  0
  5  6  1  0  0  0
  7  8  2  0  0  0
  8 24  1  0  0  0
 24 32  1  0  0  0
 24 25  1  0  0  0
 32 34  1  0  0  0
 33 34  1  0  0  0
 33 38  1  0  0  0
 34 35  1  0  0  0
 35 36  1  0  0  0
 36 37  1  0  0  0
 37 38  1  0  0  0
 25 27  1  0  0  0
 27 28  1  0  0  0
 28 29  2  0  0  0
 28 30  1  0  0  0
 11 12  1  0  0  0
 16 17  1  0  0  0
 19 21  1  0  0  0
 20 22  1  0  0  0
 20 23  1  0  0  0
 25 26  1  0  0  0
 30 31  1  0  0  0
M  END
> <minimizedAffinity>
-5.59336

$$$$
1K1O_IGN_A_999


 38 39  0  0  0  0  0  0  0  0999 V2000
   41.2969   25.2057   51.3080 N   0  0  0  0  0  0  0  0  0  0  0  0
   41.2654   26.3951   52.1926 C   0  0  0  0  0  0  0  0  0  0  0  0
   39.8826   27.0448   52.2003 C   0  0  0  0  0  0  0  0  0  0  0  0
   39.4611   27.4761   50.7673 C   0  0  0  0  0  0  0  0  0  0  0  0
   39.4209   26.1930   49.8901 C   0  0  0  0  0  0  0  0  0  0  0  0
   40.8008   25.4810   49.9011 C   0  0  0  0  0  0  0  0  0  0  0  0
   43.3528   24.7205   52.2443 O   0  0  0  0  0  0  0  0  0  0  0  0
   42.5389   24.6113   51.2951 C   0  0  0  0  0  0  0  0  0  0  0  0
   41.5209   25.9622   53.6250 C   0  0  0  0  0  0  0  0  0  0  0  0
   42.3522   26.5745   54.2777 O   0  0  0  0  0  0  0  0  0  0  0  0
   40.8289   24.9011   54.1349 N   0  0  0  0  0  0  0  0  0  0  0  0
   40.1621   24.4300   53.5847 H   0  0  0  0  0  0  0  0  0  0  0  0
   41.0884   24.4776   55.4949 C   0  0  0  0  0  0  0  0  0  0  0  0
   39.9021   24.8730   56.3990 C   0  0  0  0  0  0  0  0  0  0  0  0
   40.2886   24.7000   57.8772 C   0  0  0  0  0  0  0  0  0  0  0  0
   41.6059   24.0992   57.9896 N   0  0  0  0  0  0  0  0  0  0  0  0
   42.0199   23.6923   57.1944 H   0  0  0  0  0  0  0  0  0  0  0  0
   42.2507   24.0877   59.1209 C   0  0  0  0  0  0  0  0  0  0  0  0
   41.8376   23.4231   60.1760 N   0  0  0  0  0  0  0  0  0  0  0  0
   43.3438   24.7811   59.2170 N   0  0  0  0  0  0  0  0  0  0  0  0
   41.0115   22.8895   60.1294 H   0  0  0  0  0  0  0  0  0  0  0  0
   43.6749   25.2882   58.4409 H   0  0  0  0  0  0  0  0  0  0  0  0
   43.8417   24.7999   60.0661 H   0  0  0  0  0  0  0  0  0  0  0  0
   42.9415   23.8052   50.1003 C   0  0  0  0  0  0  0  0  0  0  0  0
   43.0856   22.4021   50.3991 N   0  0  0  0  0  0  0  0  0  0  0  0
   42.6571   21.8888   49.6288 H   0  0  0  0  0  0  0  0  0  0  0  0
   44.4254   21.8418   50.5923 C   0  0  0  0  0  0  0  0  0  0  0  0
   44.4703   21.1988   51.9363 C   0  0  0  0  0  0  0  0  0  0  0  0
   44.5927   19.9433   52.0294 O   0  0  0  0  0  0  0  0  0  0  0  0
   44.3544   21.9471   53.0307 O   0  0  0  0  0  0  0  0  0  0  0  0
   44.2640   22.8767   52.9553 H   0  0  0  0  0  0  0  0  0  0  0  0
   44.3625   24.2884   49.6170 C   0  0  0  0  0  0  0  0  0  0  0  0
   46.0153   24.7369   47.8052 C   0  0  0  0  0  0  0  0  0  0  0  0
   44.4980   24.4898   48.0906 C   0  0  0  0  0  0  0  0  0  0  0  0
   43.6213   25.6692   47.5516 C   0  0  0  0  0  0  0  0  0  0  0  0
   44.0451   26.1207   46.1312 C   0  0  0  0  0  0  0  0  0  0  0  0
   45.5142   26.5020   46.1378 C   0  0  0  0  0  0  0  0  0  0  0  0
   46.3083   25.2285   46.3790 C   0  0  0  0  0  0  0  0  0  0  0  0
  9 10  2  0  0  0
  9 11  1  0  0  0
  9  2  1  0  0  0
 11 13  1  0  0  0
 13 14  1  0  0  0
 14 15  1  0  0  0
 15 16  1  0  0  0
 16 18  1  0  0  0
 18 19  2  0  0  0
 18 20  1  0  0  0
  1  2  1  0  0  0
  1  6  1  0  0  0
  1  8  1  0  0  0
  2  3  1  0  0  0
  3  4  1  0  0  0
  4  5  1  0  0  0
  5  6  1  0  0  0
  7  8  2  0  0  0
  8 24  1  0  0  0
 24 32  1  0  0  0
 24 25  1  0  0  0
 32 34  1  0  0  0
 33 34  1  0  0  0
 33 38  1  0  0  0
 34 35  1  0  0  0
 35 36  1  0  0  0
 36 37  1  0  0  0
 37 38  1  0  0  0
 25 27  1  0  0  0
 27 28  1  0  0  0
 28 29  2  0  0  0
 28 30  1  0  0  0
 11 12  1  0  0  0
 16 17  1  0  0  0
 19 21  1  0  0  0
 20 22  1  0  0  0
 20 23  1  0  0  0
 25 26  1  0  0  0
 30 31  1  0  0  0
M  END
> <minimizedAffinity>
-5.59025

$$$$
