2XB7_GUI_A_1501


 44 48  0  0  0  0  0  0  0  0999 V2000
    1.9073   18.6411    9.0561 N   0  0  0  0  0  0  0  0  0  0  0  0
    1.0946   18.7448    9.6021 H   0  0  0  0  0  0  0  0  0  0  0  0
    4.4174   15.5550   10.2870 C   0  0  0  0  0  0  0  0  0  0  0  0
    4.8256   16.4767    9.3697 C   0  0  0  0  0  0  0  0  0  0  0  0
    3.9276   17.4994    8.9926 N   0  0  0  0  0  0  0  0  0  0  0  0
    2.7547   17.5892    9.4793 C   0  0  0  0  0  0  0  0  0  0  0  0
    2.3268   16.6400   10.4295 N   0  0  0  0  0  0  0  0  0  0  0  0
    3.0871   15.6800   10.8224 C   0  0  0  0  0  0  0  0  0  0  0  0
    5.4272   14.2643   10.8184 Cl  0  0  0  0  0  0  0  0  0  0  0  0
    6.1467   16.3888    8.8134 N   0  0  0  0  0  0  0  0  0  0  0  0
    6.8147   15.9151    9.3598 H   0  0  0  0  0  0  0  0  0  0  0  0
    6.6110   16.9054    7.5621 C   0  0  0  0  0  0  0  0  0  0  0  0
    7.9588   16.9548    7.3440 C   0  0  0  0  0  0  0  0  0  0  0  0
    8.4807   17.4880    6.0491 C   0  0  0  0  0  0  0  0  0  0  0  0
    7.6220   17.9260    5.0890 C   0  0  0  0  0  0  0  0  0  0  0  0
    6.1615   17.8748    5.3241 C   0  0  0  0  0  0  0  0  0  0  0  0
    5.6869   17.3902    6.4941 C   0  0  0  0  0  0  0  0  0  0  0  0
    9.1002   16.3956    8.6048 S   0  0  0  0  0  0  0  0  0  0  0  0
   10.4425   16.0429    7.9853 O   0  0  0  0  0  0  0  0  0  0  0  0
    8.5533   15.2034    9.3603 O   0  0  0  0  0  0  0  0  0  0  0  0
    9.4057   17.7307    9.7918 C   0  0  0  0  0  0  0  0  0  0  0  0
    8.9557   17.3176   11.2069 C   0  0  0  0  0  0  0  0  0  0  0  0
    8.6265   18.9845    9.3532 C   0  0  0  0  0  0  0  0  0  0  0  0
    2.0115   19.5843    7.9805 C   0  0  0  0  0  0  0  0  0  0  0  0
    3.2320   19.8531    7.4644 C   0  0  0  0  0  0  0  0  0  0  0  0
    3.4033   20.8187    6.3624 C   0  0  0  0  0  0  0  0  0  0  0  0
    2.3301   21.4666    5.8395 C   0  0  0  0  0  0  0  0  0  0  0  0
    0.9760   21.1748    6.4059 C   0  0  0  0  0  0  0  0  0  0  0  0
    0.8089   20.2811    7.4209 C   0  0  0  0  0  0  0  0  0  0  0  0
    2.4951   22.4149    4.7719 N   0  0  0  0  0  0  0  0  0  0  0  0
    1.5789   22.3508    3.5953 C   0  0  0  0  0  0  0  0  0  0  0  0
    2.2104   22.8908    2.2890 C   0  0  0  0  0  0  0  0  0  0  0  0
    2.8663   24.2739    2.5664 C   0  0  0  0  0  0  0  0  0  0  0  0
    4.0758   23.9855    3.4973 C   0  0  0  0  0  0  0  0  0  0  0  0
    3.5874   23.4302    4.8654 C   0  0  0  0  0  0  0  0  0  0  0  0
    3.3385   24.9198    1.2808 N   0  0  0  0  0  0  0  0  0  0  0  0
    3.7340   23.8694    0.2753 C   0  0  0  0  0  0  0  0  0  0  0  0
    4.1201   24.5519   -1.0702 C   0  0  0  0  0  0  0  0  0  0  0  0
    5.2072   25.5616   -0.8541 N   0  0  0  0  0  0  0  0  0  0  0  0
    4.8689   26.5604    0.2070 C   0  0  0  0  0  0  0  0  0  0  0  0
    4.5147   25.8277    1.5280 C   0  0  0  0  0  0  0  0  0  0  0  0
    5.4581   26.2821   -2.1165 C   0  0  0  0  0  0  0  0  0  0  0  0
   -0.4637   19.9802    7.9816 O   0  0  0  0  0  0  0  0  0  0  0  0
   -1.5940   19.9972    7.0974 C   0  0  0  0  0  0  0  0  0  0  0  0
  3  4  1  0  0  0
  3  8  2  0  0  0
  3  9  1  0  0  0
  4  5  2  0  0  0
  4 10  1  0  0  0
  5  6  1  0  0  0
  6  7  2  0  0  0
  6  1  1  0  0  0
  7  8  1  0  0  0
  1 24  1  0  0  0
 24 25  1  0  0  0
 24 29  2  0  0  0
 25 26  2  0  0  0
 26 27  1  0  0  0
 27 28  2  0  0  0
 27 30  1  0  0  0
 28 29  1  0  0  0
 29 43  1  0  0  0
 43 44  1  0  0  0
 30 31  1  0  0  0
 30 35  1  0  0  0
 31 32  1  0  0  0
 32 33  1  0  0  0
 33 34  1  0  0  0
 33 36  1  0  0  0
 34 35  1  0  0  0
 36 37  1  0  0  0
 36 41  1  0  0  0
 37 38  1  0  0  0
 38 39  1  0  0  0
 39 40  1  0  0  0
 39 42  1  0  0  0
 40 41  1  0  0  0
 10 12  1  0  0  0
 12 13  1  0  0  0
 12 17  2  0  0  0
 13 14  2  0  0  0
 13 18  1  0  0  0
 14 15  1  0  0  0
 15 16  2  0  0  0
 16 17  1  0  0  0
 18 21  1  0  0  0
 18 19  2  0  0  0
 18 20  2  0  0  0
 21 22  1  0  0  0
 21 23  1  0  0  0
  1  2  1  0  0  0
 10 11  1  0  0  0
M  END
> <minimizedAffinity>
-9.47457

$$$$
2XB7_GUI_A_1501


 44 48  0  0  0  0  0  0  0  0999 V2000
    1.8467   18.4506    9.0563 N   0  0  0  0  0  0  0  0  0  0  0  0
    0.9620   18.3944    9.4847 H   0  0  0  0  0  0  0  0  0  0  0  0
    4.5378   15.5216   10.2885 C   0  0  0  0  0  0  0  0  0  0  0  0
    4.8664   16.4231    9.3206 C   0  0  0  0  0  0  0  0  0  0  0  0
    3.9099   17.3922    8.9459 N   0  0  0  0  0  0  0  0  0  0  0  0
    2.7560   17.4520    9.4803 C   0  0  0  0  0  0  0  0  0  0  0  0
    2.4104   16.5235   10.4830 N   0  0  0  0  0  0  0  0  0  0  0  0
    3.2274   15.6118   10.8772 C   0  0  0  0  0  0  0  0  0  0  0  0
    5.6242   14.2956   10.8221 Cl  0  0  0  0  0  0  0  0  0  0  0  0
    6.1652   16.3686    8.7101 N   0  0  0  0  0  0  0  0  0  0  0  0
    6.8519   15.8613    9.2003 H   0  0  0  0  0  0  0  0  0  0  0  0
    6.5836   16.9615    7.4765 C   0  0  0  0  0  0  0  0  0  0  0  0
    7.9236   17.0832    7.2402 C   0  0  0  0  0  0  0  0  0  0  0  0
    8.3980   17.6972    5.9629 C   0  0  0  0  0  0  0  0  0  0  0  0
    7.5036   18.1371    5.0369 C   0  0  0  0  0  0  0  0  0  0  0  0
    6.0512   18.0076    5.2918 C   0  0  0  0  0  0  0  0  0  0  0  0
    5.6198   17.4498    6.4458 C   0  0  0  0  0  0  0  0  0  0  0  0
    9.1112   16.5221    8.4567 S   0  0  0  0  0  0  0  0  0  0  0  0
   10.4749   16.3265    7.8148 O   0  0  0  0  0  0  0  0  0  0  0  0
    8.6645   15.2355    9.1173 O   0  0  0  0  0  0  0  0  0  0  0  0
    9.3139   17.7823    9.7434 C   0  0  0  0  0  0  0  0  0  0  0  0
    8.7835   17.2713   11.0973 C   0  0  0  0  0  0  0  0  0  0  0  0
    8.5388   19.0491    9.3359 C   0  0  0  0  0  0  0  0  0  0  0  0
    1.9734   19.5291    8.1192 C   0  0  0  0  0  0  0  0  0  0  0  0
    3.2107   19.9337    7.7536 C   0  0  0  0  0  0  0  0  0  0  0  0
    3.4047   21.0418    6.7993 C   0  0  0  0  0  0  0  0  0  0  0  0
    2.3358   21.6872    6.2646 C   0  0  0  0  0  0  0  0  0  0  0  0
    0.9632   21.2454    6.6648 C   0  0  0  0  0  0  0  0  0  0  0  0
    0.7756   20.2199    7.5425 C   0  0  0  0  0  0  0  0  0  0  0  0
    2.5220   22.7733    5.3416 N   0  0  0  0  0  0  0  0  0  0  0  0
    3.9081   23.1604    4.9455 C   0  0  0  0  0  0  0  0  0  0  0  0
    4.0447   24.6504    4.5476 C   0  0  0  0  0  0  0  0  0  0  0  0
    2.9200   25.0200    3.5384 C   0  0  0  0  0  0  0  0  0  0  0  0
    1.5937   24.9486    4.3435 C   0  0  0  0  0  0  0  0  0  0  0  0
    1.3224   23.4915    4.8144 C   0  0  0  0  0  0  0  0  0  0  0  0
    3.1218   26.4154    2.9860 N   0  0  0  0  0  0  0  0  0  0  0  0
    4.5482   26.8604    3.1812 C   0  0  0  0  0  0  0  0  0  0  0  0
    4.7572   28.2540    2.5180 C   0  0  0  0  0  0  0  0  0  0  0  0
    3.7776   29.2483    3.0653 N   0  0  0  0  0  0  0  0  0  0  0  0
    2.3595   28.7830    2.9625 C   0  0  0  0  0  0  0  0  0  0  0  0
    2.2048   27.4042    3.6571 C   0  0  0  0  0  0  0  0  0  0  0  0
    3.9114   30.5181    2.3268 C   0  0  0  0  0  0  0  0  0  0  0  0
   -0.5150   19.7746    7.9434 O   0  0  0  0  0  0  0  0  0  0  0  0
   -1.6452   20.5289    7.4816 C   0  0  0  0  0  0  0  0  0  0  0  0
  3  4  1  0  0  0
  3  8  2  0  0  0
  3  9  1  0  0  0
  4  5  2  0  0  0
  4 10  1  0  0  0
  5  6  1  0  0  0
  6  7  2  0  0  0
  6  1  1  0  0  0
  7  8  1  0  0  0
  1 24  1  0  0  0
 24 25  1  0  0  0
 24 29  2  0  0  0
 25 26  2  0  0  0
 26 27  1  0  0  0
 27 28  2  0  0  0
 27 30  1  0  0  0
 28 29  1  0  0  0
 29 43  1  0  0  0
 43 44  1  0  0  0
 30 31  1  0  0  0
 30 35  1  0  0  0
 31 32  1  0  0  0
 32 33  1  0  0  0
 33 34  1  0  0  0
 33 36  1  0  0  0
 34 35  1  0  0  0
 36 37  1  0  0  0
 36 41  1  0  0  0
 37 38  1  0  0  0
 38 39  1  0  0  0
 39 40  1  0  0  0
 39 42  1  0  0  0
 40 41  1  0  0  0
 10 12  1  0  0  0
 12 13  1  0  0  0
 12 17  2  0  0  0
 13 14  2  0  0  0
 13 18  1  0  0  0
 14 15  1  0  0  0
 15 16  2  0  0  0
 16 17  1  0  0  0
 18 21  1  0  0  0
 18 19  2  0  0  0
 18 20  2  0  0  0
 21 22  1  0  0  0
 21 23  1  0  0  0
  1  2  1  0  0  0
 10 11  1  0  0  0
M  END
> <minimizedAffinity>
-9.24220

$$$$
2XB7_GUI_A_1501


 44 48  0  0  0  0  0  0  0  0999 V2000
    3.2110   23.3188    5.7822 N   0  0  0  0  0  0  0  0  0  0  0  0
    2.6320   23.0534    5.0315 H   0  0  0  0  0  0  0  0  0  0  0  0
    6.7662   21.1640    6.0211 C   0  0  0  0  0  0  0  0  0  0  0  0
    5.6342   20.7341    6.6465 C   0  0  0  0  0  0  0  0  0  0  0  0
    4.4598   21.5096    6.5281 N   0  0  0  0  0  0  0  0  0  0  0  0
    4.4233   22.5919    5.8590 C   0  0  0  0  0  0  0  0  0  0  0  0
    5.5903   23.0414    5.2085 N   0  0  0  0  0  0  0  0  0  0  0  0
    6.6976   22.3902    5.2703 C   0  0  0  0  0  0  0  0  0  0  0  0
    8.2547   20.3001    6.0992 Cl  0  0  0  0  0  0  0  0  0  0  0  0
    5.6602   19.5139    7.4034 N   0  0  0  0  0  0  0  0  0  0  0  0
    6.5485   19.1161    7.5511 H   0  0  0  0  0  0  0  0  0  0  0  0
    4.5529   18.8054    7.9695 C   0  0  0  0  0  0  0  0  0  0  0  0
    4.7162   17.4815    8.2645 C   0  0  0  0  0  0  0  0  0  0  0  0
    3.5821   16.7091    8.8567 C   0  0  0  0  0  0  0  0  0  0  0  0
    2.3892   17.3161    9.1009 C   0  0  0  0  0  0  0  0  0  0  0  0
    2.2099   18.7500    8.7804 C   0  0  0  0  0  0  0  0  0  0  0  0
    3.2357   19.4515    8.2469 C   0  0  0  0  0  0  0  0  0  0  0  0
    6.2758   16.6668    7.9345 S   0  0  0  0  0  0  0  0  0  0  0  0
    6.8215   17.0952    6.5822 O   0  0  0  0  0  0  0  0  0  0  0  0
    6.1363   15.1603    7.9789 O   0  0  0  0  0  0  0  0  0  0  0  0
    7.5013   17.1620    9.1745 C   0  0  0  0  0  0  0  0  0  0  0  0
    8.8656   17.4407    8.5138 C   0  0  0  0  0  0  0  0  0  0  0  0
    7.6561   16.0330   10.2104 C   0  0  0  0  0  0  0  0  0  0  0  0
    2.6687   24.3699    6.5937 C   0  0  0  0  0  0  0  0  0  0  0  0
    3.4710   25.3978    6.9515 C   0  0  0  0  0  0  0  0  0  0  0  0
    2.9724   26.5041    7.7906 C   0  0  0  0  0  0  0  0  0  0  0  0
    1.6865   26.5128    8.2282 C   0  0  0  0  0  0  0  0  0  0  0  0
    0.7927   25.3781    7.8368 C   0  0  0  0  0  0  0  0  0  0  0  0
    1.2445   24.3548    7.0585 C   0  0  0  0  0  0  0  0  0  0  0  0
    1.2005   27.5847    9.0535 N   0  0  0  0  0  0  0  0  0  0  0  0
   -0.2641   27.8708    9.0845 C   0  0  0  0  0  0  0  0  0  0  0  0
   -0.5995   29.3478    9.4055 C   0  0  0  0  0  0  0  0  0  0  0  0
    0.2093   29.8007   10.6548 C   0  0  0  0  0  0  0  0  0  0  0  0
    1.6961   29.8242   10.2064 C   0  0  0  0  0  0  0  0  0  0  0  0
    2.1775   28.3896    9.8475 C   0  0  0  0  0  0  0  0  0  0  0  0
   -0.2209   31.1790   11.1111 N   0  0  0  0  0  0  0  0  0  0  0  0
   -1.1623   31.0782   12.2835 C   0  0  0  0  0  0  0  0  0  0  0  0
   -1.5121   32.5058   12.7982 C   0  0  0  0  0  0  0  0  0  0  0  0
   -2.0815   33.3390   11.6895 N   0  0  0  0  0  0  0  0  0  0  0  0
   -1.2009   33.3766   10.4807 C   0  0  0  0  0  0  0  0  0  0  0  0
   -0.9035   31.9319    9.9992 C   0  0  0  0  0  0  0  0  0  0  0  0
   -2.2785   34.7190   12.1718 C   0  0  0  0  0  0  0  0  0  0  0  0
    0.4215   23.2619    6.6679 O   0  0  0  0  0  0  0  0  0  0  0  0
    0.3816   22.1225    7.5396 C   0  0  0  0  0  0  0  0  0  0  0  0
  3  4  1  0  0  0
  3  8  2  0  0  0
  3  9  1  0  0  0
  4  5  2  0  0  0
  4 10  1  0  0  0
  5  6  1  0  0  0
  6  7  2  0  0  0
  6  1  1  0  0  0
  7  8  1  0  0  0
  1 24  1  0  0  0
 24 25  1  0  0  0
 24 29  2  0  0  0
 25 26  2  0  0  0
 26 27  1  0  0  0
 27 28  2  0  0  0
 27 30  1  0  0  0
 28 29  1  0  0  0
 29 43  1  0  0  0
 43 44  1  0  0  0
 30 31  1  0  0  0
 30 35  1  0  0  0
 31 32  1  0  0  0
 32 33  1  0  0  0
 33 34  1  0  0  0
 33 36  1  0  0  0
 34 35  1  0  0  0
 36 37  1  0  0  0
 36 41  1  0  0  0
 37 38  1  0  0  0
 38 39  1  0  0  0
 39 40  1  0  0  0
 39 42  1  0  0  0
 40 41  1  0  0  0
 10 12  1  0  0  0
 12 13  1  0  0  0
 12 17  2  0  0  0
 13 14  2  0  0  0
 13 18  1  0  0  0
 14 15  1  0  0  0
 15 16  2  0  0  0
 16 17  1  0  0  0
 18 21  1  0  0  0
 18 19  2  0  0  0
 18 20  2  0  0  0
 21 22  1  0  0  0
 21 23  1  0  0  0
  1  2  1  0  0  0
 10 11  1  0  0  0
M  END
> <minimizedAffinity>
-9.15946

$$$$
2XB7_GUI_A_1501


 44 48  0  0  0  0  0  0  0  0999 V2000
    0.8524   19.5091    8.3486 N   0  0  0  0  0  0  0  0  0  0  0  0
    0.4147   19.0007    9.0692 H   0  0  0  0  0  0  0  0  0  0  0  0
   -1.6346   22.2562    6.4491 C   0  0  0  0  0  0  0  0  0  0  0  0
   -0.5372   22.6603    7.1490 C   0  0  0  0  0  0  0  0  0  0  0  0
    0.2668   21.6802    7.7716 N   0  0  0  0  0  0  0  0  0  0  0  0
    0.0022   20.4370    7.7005 C   0  0  0  0  0  0  0  0  0  0  0  0
   -1.1305   20.0123    6.9768 N   0  0  0  0  0  0  0  0  0  0  0  0
   -1.9105   20.8451    6.3833 C   0  0  0  0  0  0  0  0  0  0  0  0
   -2.6866   23.3636    5.6523 Cl  0  0  0  0  0  0  0  0  0  0  0  0
   -0.2254   24.0595    7.2363 N   0  0  0  0  0  0  0  0  0  0  0  0
   -0.9910   24.6655    7.3628 H   0  0  0  0  0  0  0  0  0  0  0  0
    1.0617   24.6808    7.1621 C   0  0  0  0  0  0  0  0  0  0  0  0
    1.1836   25.9685    7.6020 C   0  0  0  0  0  0  0  0  0  0  0  0
    2.5122   26.6500    7.5401 C   0  0  0  0  0  0  0  0  0  0  0  0
    3.5986   25.9965    7.0464 C   0  0  0  0  0  0  0  0  0  0  0  0
    3.4681   24.6019    6.5677 C   0  0  0  0  0  0  0  0  0  0  0  0
    2.2674   23.9824    6.6253 C   0  0  0  0  0  0  0  0  0  0  0  0
   -0.2411   26.8449    8.2403 S   0  0  0  0  0  0  0  0  0  0  0  0
   -0.8011   26.1295    9.4587 O   0  0  0  0  0  0  0  0  0  0  0  0
   -1.3201   26.9917    7.1890 O   0  0  0  0  0  0  0  0  0  0  0  0
    0.2514   28.5016    8.7861 C   0  0  0  0  0  0  0  0  0  0  0  0
    0.2993   28.5784   10.3246 C   0  0  0  0  0  0  0  0  0  0  0  0
   -0.7632   29.5308    8.2540 C   0  0  0  0  0  0  0  0  0  0  0  0
    2.2324   19.1713    8.1517 C   0  0  0  0  0  0  0  0  0  0  0  0
    2.9635   19.8981    7.2767 C   0  0  0  0  0  0  0  0  0  0  0  0
    4.3853   19.5942    7.0267 C   0  0  0  0  0  0  0  0  0  0  0  0
    4.9955   18.5673    7.6732 C   0  0  0  0  0  0  0  0  0  0  0  0
    4.1926   17.7579    8.6427 C   0  0  0  0  0  0  0  0  0  0  0  0
    2.8801   18.0349    8.8823 C   0  0  0  0  0  0  0  0  0  0  0  0
    6.3782   18.2631    7.4247 N   0  0  0  0  0  0  0  0  0  0  0  0
    6.7986   16.8355    7.3096 C   0  0  0  0  0  0  0  0  0  0  0  0
    8.2719   16.5894    7.7165 C   0  0  0  0  0  0  0  0  0  0  0  0
    9.1845   17.6275    7.0027 C   0  0  0  0  0  0  0  0  0  0  0  0
    8.8279   19.0022    7.6314 C   0  0  0  0  0  0  0  0  0  0  0  0
    7.3573   19.3850    7.3008 C   0  0  0  0  0  0  0  0  0  0  0  0
   10.6481   17.3125    7.2302 N   0  0  0  0  0  0  0  0  0  0  0  0
   10.8064   15.9402    7.8324 C   0  0  0  0  0  0  0  0  0  0  0  0
   12.3200   15.5980    7.9646 C   0  0  0  0  0  0  0  0  0  0  0  0
   13.0281   16.6491    8.7656 N   0  0  0  0  0  0  0  0  0  0  0  0
   12.8075   18.0302    8.2346 C   0  0  0  0  0  0  0  0  0  0  0  0
   11.2867   18.3246    8.1449 C   0  0  0  0  0  0  0  0  0  0  0  0
   14.4762   16.3686    8.7615 C   0  0  0  0  0  0  0  0  0  0  0  0
    2.0887   17.2863    9.7975 O   0  0  0  0  0  0  0  0  0  0  0  0
    2.7312   16.2108   10.4977 C   0  0  0  0  0  0  0  0  0  0  0  0
  3  4  1  0  0  0
  3  8  2  0  0  0
  3  9  1  0  0  0
  4  5  2  0  0  0
  4 10  1  0  0  0
  5  6  1  0  0  0
  6  7  2  0  0  0
  6  1  1  0  0  0
  7  8  1  0  0  0
  1 24  1  0  0  0
 24 25  1  0  0  0
 24 29  2  0  0  0
 25 26  2  0  0  0
 26 27  1  0  0  0
 27 28  2  0  0  0
 27 30  1  0  0  0
 28 29  1  0  0  0
 29 43  1  0  0  0
 43 44  1  0  0  0
 30 31  1  0  0  0
 30 35  1  0  0  0
 31 32  1  0  0  0
 32 33  1  0  0  0
 33 34  1  0  0  0
 33 36  1  0  0  0
 34 35  1  0  0  0
 36 37  1  0  0  0
 36 41  1  0  0  0
 37 38  1  0  0  0
 38 39  1  0  0  0
 39 40  1  0  0  0
 39 42  1  0  0  0
 40 41  1  0  0  0
 10 12  1  0  0  0
 12 13  1  0  0  0
 12 17  2  0  0  0
 13 14  2  0  0  0
 13 18  1  0  0  0
 14 15  1  0  0  0
 15 16  2  0  0  0
 16 17  1  0  0  0
 18 21  1  0  0  0
 18 19  2  0  0  0
 18 20  2  0  0  0
 21 22  1  0  0  0
 21 23  1  0  0  0
  1  2  1  0  0  0
 10 11  1  0  0  0
M  END
> <minimizedAffinity>
-9.13394

$$$$
2XB7_GUI_A_1501


 44 48  0  0  0  0  0  0  0  0999 V2000
    3.2203   22.1514    6.4619 N   0  0  0  0  0  0  0  0  0  0  0  0
    2.5516   21.4391    6.3410 H   0  0  0  0  0  0  0  0  0  0  0  0
    7.1172   20.9511    5.6170 C   0  0  0  0  0  0  0  0  0  0  0  0
    6.2040   20.0805    6.1324 C   0  0  0  0  0  0  0  0  0  0  0  0
    4.8982   20.5483    6.3979 N   0  0  0  0  0  0  0  0  0  0  0  0
    4.5468   21.7509    6.1723 C   0  0  0  0  0  0  0  0  0  0  0  0
    5.4860   22.6561    5.6380 N   0  0  0  0  0  0  0  0  0  0  0  0
    6.6939   22.3046    5.3703 C   0  0  0  0  0  0  0  0  0  0  0  0
    8.7378   20.4909    5.2569 Cl  0  0  0  0  0  0  0  0  0  0  0  0
    6.5859   18.7203    6.3904 N   0  0  0  0  0  0  0  0  0  0  0  0
    7.3300   18.3705    5.8491 H   0  0  0  0  0  0  0  0  0  0  0  0
    6.0171   17.8110    7.3381 C   0  0  0  0  0  0  0  0  0  0  0  0
    6.7853   17.4180    8.3973 C   0  0  0  0  0  0  0  0  0  0  0  0
    6.2252   16.4695    9.4073 C   0  0  0  0  0  0  0  0  0  0  0  0
    4.9571   15.9944    9.2762 C   0  0  0  0  0  0  0  0  0  0  0  0
    4.1238   16.4177    8.1284 C   0  0  0  0  0  0  0  0  0  0  0  0
    4.6277   17.2781    7.2147 C   0  0  0  0  0  0  0  0  0  0  0  0
    8.4606   18.0240    8.5738 S   0  0  0  0  0  0  0  0  0  0  0  0
    8.4547   19.5009    8.9328 O   0  0  0  0  0  0  0  0  0  0  0  0
    9.2668   17.8048    7.3116 O   0  0  0  0  0  0  0  0  0  0  0  0
    9.2865   17.1575    9.9347 C   0  0  0  0  0  0  0  0  0  0  0  0
    9.0280   17.8730   11.2751 C   0  0  0  0  0  0  0  0  0  0  0  0
   10.8015   17.1160    9.6612 C   0  0  0  0  0  0  0  0  0  0  0  0
    2.6685   23.4013    6.8986 C   0  0  0  0  0  0  0  0  0  0  0  0
    3.5025   24.4444    7.1098 C   0  0  0  0  0  0  0  0  0  0  0  0
    2.9950   25.7524    7.5659 C   0  0  0  0  0  0  0  0  0  0  0  0
    1.6680   25.9382    7.7883 C   0  0  0  0  0  0  0  0  0  0  0  0
    0.7387   24.7881    7.5573 C   0  0  0  0  0  0  0  0  0  0  0  0
    1.1992   23.5782    7.1320 C   0  0  0  0  0  0  0  0  0  0  0  0
    1.1717   27.2088    8.2416 N   0  0  0  0  0  0  0  0  0  0  0  0
    1.9830   28.0011    9.2122 C   0  0  0  0  0  0  0  0  0  0  0  0
    1.1348   28.9308   10.1140 C   0  0  0  0  0  0  0  0  0  0  0  0
    0.1451   29.7435    9.2309 C   0  0  0  0  0  0  0  0  0  0  0  0
   -0.8679   28.7068    8.6728 C   0  0  0  0  0  0  0  0  0  0  0  0
   -0.1483   27.6944    7.7371 C   0  0  0  0  0  0  0  0  0  0  0  0
   -0.5780   30.7930   10.0488 N   0  0  0  0  0  0  0  0  0  0  0  0
   -0.0440   32.1671    9.7369 C   0  0  0  0  0  0  0  0  0  0  0  0
   -0.8676   33.2373   10.5126 C   0  0  0  0  0  0  0  0  0  0  0  0
   -0.8514   32.9479   11.9835 N   0  0  0  0  0  0  0  0  0  0  0  0
   -1.2928   31.5552   12.3060 C   0  0  0  0  0  0  0  0  0  0  0  0
   -0.4261   30.5327   11.5246 C   0  0  0  0  0  0  0  0  0  0  0  0
   -1.7444   33.8969   12.6746 C   0  0  0  0  0  0  0  0  0  0  0  0
    0.3434   22.4650    6.9021 O   0  0  0  0  0  0  0  0  0  0  0  0
   -0.3501   22.4151    5.6466 C   0  0  0  0  0  0  0  0  0  0  0  0
  3  4  1  0  0  0
  3  8  2  0  0  0
  3  9  1  0  0  0
  4  5  2  0  0  0
  4 10  1  0  0  0
  5  6  1  0  0  0
  6  7  2  0  0  0
  6  1  1  0  0  0
  7  8  1  0  0  0
  1 24  1  0  0  0
 24 25  1  0  0  0
 24 29  2  0  0  0
 25 26  2  0  0  0
 26 27  1  0  0  0
 27 28  2  0  0  0
 27 30  1  0  0  0
 28 29  1  0  0  0
 29 43  1  0  0  0
 43 44  1  0  0  0
 30 31  1  0  0  0
 30 35  1  0  0  0
 31 32  1  0  0  0
 32 33  1  0  0  0
 33 34  1  0  0  0
 33 36  1  0  0  0
 34 35  1  0  0  0
 36 37  1  0  0  0
 36 41  1  0  0  0
 37 38  1  0  0  0
 38 39  1  0  0  0
 39 40  1  0  0  0
 39 42  1  0  0  0
 40 41  1  0  0  0
 10 12  1  0  0  0
 12 13  1  0  0  0
 12 17  2  0  0  0
 13 14  2  0  0  0
 13 18  1  0  0  0
 14 15  1  0  0  0
 15 16  2  0  0  0
 16 17  1  0  0  0
 18 21  1  0  0  0
 18 19  2  0  0  0
 18 20  2  0  0  0
 21 22  1  0  0  0
 21 23  1  0  0  0
  1  2  1  0  0  0
 10 11  1  0  0  0
M  END
> <minimizedAffinity>
-8.94790

$$$$
2XB7_GUI_A_1501


 44 48  0  0  0  0  0  0  0  0999 V2000
    0.9600   19.4210    8.5145 N   0  0  0  0  0  0  0  0  0  0  0  0
    0.5126   18.8863    9.2096 H   0  0  0  0  0  0  0  0  0  0  0  0
   -1.4714   22.2957    6.7356 C   0  0  0  0  0  0  0  0  0  0  0  0
   -0.1243   22.4739    6.8399 C   0  0  0  0  0  0  0  0  0  0  0  0
    0.6464   21.4623    7.4542 N   0  0  0  0  0  0  0  0  0  0  0  0
    0.1269   20.3937    7.9113 C   0  0  0  0  0  0  0  0  0  0  0  0
   -1.2656   20.2026    7.8053 N   0  0  0  0  0  0  0  0  0  0  0  0
   -2.0332   21.0783    7.2594 C   0  0  0  0  0  0  0  0  0  0  0  0
   -2.5084   23.4633    6.0080 Cl  0  0  0  0  0  0  0  0  0  0  0  0
    0.4757   23.6737    6.3271 N   0  0  0  0  0  0  0  0  0  0  0  0
    0.6046   23.7093    5.3517 H   0  0  0  0  0  0  0  0  0  0  0  0
    0.9092   24.8239    7.0602 C   0  0  0  0  0  0  0  0  0  0  0  0
    2.2058   25.2297    6.9176 C   0  0  0  0  0  0  0  0  0  0  0  0
    2.6943   26.4267    7.6672 C   0  0  0  0  0  0  0  0  0  0  0  0
    1.8563   27.1117    8.4916 C   0  0  0  0  0  0  0  0  0  0  0  0
    0.4515   26.6726    8.6487 C   0  0  0  0  0  0  0  0  0  0  0  0
    0.0066   25.5913    7.9692 C   0  0  0  0  0  0  0  0  0  0  0  0
    3.3231   24.3286    5.8476 S   0  0  0  0  0  0  0  0  0  0  0  0
    2.6840   24.0979    4.4881 O   0  0  0  0  0  0  0  0  0  0  0  0
    3.7285   23.0036    6.4568 O   0  0  0  0  0  0  0  0  0  0  0  0
    4.8222   25.3066    5.5625 C   0  0  0  0  0  0  0  0  0  0  0  0
    4.5948   26.3419    4.4436 C   0  0  0  0  0  0  0  0  0  0  0  0
    5.9714   24.3635    5.1605 C   0  0  0  0  0  0  0  0  0  0  0  0
    2.3341   19.0689    8.3020 C   0  0  0  0  0  0  0  0  0  0  0  0
    3.0788   19.8237    7.4630 C   0  0  0  0  0  0  0  0  0  0  0  0
    4.4953   19.5073    7.1992 C   0  0  0  0  0  0  0  0  0  0  0  0
    5.0868   18.4402    7.7962 C   0  0  0  0  0  0  0  0  0  0  0  0
    4.2688   17.5997    8.7257 C   0  0  0  0  0  0  0  0  0  0  0  0
    2.9610   17.8878    8.9778 C   0  0  0  0  0  0  0  0  0  0  0  0
    6.4643   18.1240    7.5339 N   0  0  0  0  0  0  0  0  0  0  0  0
    6.9019   16.6975    7.5707 C   0  0  0  0  0  0  0  0  0  0  0  0
    8.3923   16.5168    7.9488 C   0  0  0  0  0  0  0  0  0  0  0  0
    9.2632   17.4740    7.0855 C   0  0  0  0  0  0  0  0  0  0  0  0
    8.9083   18.9090    7.5621 C   0  0  0  0  0  0  0  0  0  0  0  0
    7.4212   19.2344    7.2438 C   0  0  0  0  0  0  0  0  0  0  0  0
   10.7385   17.2038    7.2938 N   0  0  0  0  0  0  0  0  0  0  0  0
   10.9524   15.8032    7.8068 C   0  0  0  0  0  0  0  0  0  0  0  0
   12.4787   15.5140    7.9184 C   0  0  0  0  0  0  0  0  0  0  0  0
   13.1453   16.5389    8.7861 N   0  0  0  0  0  0  0  0  0  0  0  0
   12.8690   17.9414    8.3446 C   0  0  0  0  0  0  0  0  0  0  0  0
   11.3375   18.1798    8.2724 C   0  0  0  0  0  0  0  0  0  0  0  0
   14.6035   16.3174    8.7656 C   0  0  0  0  0  0  0  0  0  0  0  0
    2.1557   17.1103    9.8561 O   0  0  0  0  0  0  0  0  0  0  0  0
    2.8138   16.0961   10.6293 C   0  0  0  0  0  0  0  0  0  0  0  0
  3  4  1  0  0  0
  3  8  2  0  0  0
  3  9  1  0  0  0
  4  5  2  0  0  0
  4 10  1  0  0  0
  5  6  1  0  0  0
  6  7  2  0  0  0
  6  1  1  0  0  0
  7  8  1  0  0  0
  1 24  1  0  0  0
 24 25  1  0  0  0
 24 29  2  0  0  0
 25 26  2  0  0  0
 26 27  1  0  0  0
 27 28  2  0  0  0
 27 30  1  0  0  0
 28 29  1  0  0  0
 29 43  1  0  0  0
 43 44  1  0  0  0
 30 31  1  0  0  0
 30 35  1  0  0  0
 31 32  1  0  0  0
 32 33  1  0  0  0
 33 34  1  0  0  0
 33 36  1  0  0  0
 34 35  1  0  0  0
 36 37  1  0  0  0
 36 41  1  0  0  0
 37 38  1  0  0  0
 38 39  1  0  0  0
 39 40  1  0  0  0
 39 42  1  0  0  0
 40 41  1  0  0  0
 10 12  1  0  0  0
 12 13  1  0  0  0
 12 17  2  0  0  0
 13 14  2  0  0  0
 13 18  1  0  0  0
 14 15  1  0  0  0
 15 16  2  0  0  0
 16 17  1  0  0  0
 18 21  1  0  0  0
 18 19  2  0  0  0
 18 20  2  0  0  0
 21 22  1  0  0  0
 21 23  1  0  0  0
  1  2  1  0  0  0
 10 11  1  0  0  0
M  END
> <minimizedAffinity>
-8.93841

$$$$
2XB7_GUI_A_1501


 44 48  0  0  0  0  0  0  0  0999 V2000
    5.1345   21.9809    5.3265 N   0  0  0  0  0  0  0  0  0  0  0  0
    4.7879   21.6003    4.4873 H   0  0  0  0  0  0  0  0  0  0  0  0
    8.7056   20.2641    6.6071 C   0  0  0  0  0  0  0  0  0  0  0  0
    7.5322   19.5722    6.6493 C   0  0  0  0  0  0  0  0  0  0  0  0
    6.3544   20.2099    6.2011 N   0  0  0  0  0  0  0  0  0  0  0  0
    6.3524   21.4041    5.7603 C   0  0  0  0  0  0  0  0  0  0  0  0
    7.5630   22.1247    5.7127 N   0  0  0  0  0  0  0  0  0  0  0  0
    8.6759   21.6121    6.1033 C   0  0  0  0  0  0  0  0  0  0  0  0
   10.2012   19.5874    7.1298 Cl  0  0  0  0  0  0  0  0  0  0  0  0
    7.5197   18.2235    7.1426 N   0  0  0  0  0  0  0  0  0  0  0  0
    8.2926   17.6661    6.8955 H   0  0  0  0  0  0  0  0  0  0  0  0
    6.5213   17.5905    7.9494 C   0  0  0  0  0  0  0  0  0  0  0  0
    6.9255   16.6632    8.8676 C   0  0  0  0  0  0  0  0  0  0  0  0
    5.9113   15.9815    9.7280 C   0  0  0  0  0  0  0  0  0  0  0  0
    4.5896   16.2776    9.5999 C   0  0  0  0  0  0  0  0  0  0  0  0
    4.1495   17.2808    8.6045 C   0  0  0  0  0  0  0  0  0  0  0  0
    5.0658   17.9009    7.8268 C   0  0  0  0  0  0  0  0  0  0  0  0
    8.6601   16.2535    9.0360 S   0  0  0  0  0  0  0  0  0  0  0  0
    9.3131   16.1408    7.6682 O   0  0  0  0  0  0  0  0  0  0  0  0
    8.8546   14.9651    9.8064 O   0  0  0  0  0  0  0  0  0  0  0  0
    9.5213   17.5810    9.9198 C   0  0  0  0  0  0  0  0  0  0  0  0
   11.0489   17.4040    9.8179 C   0  0  0  0  0  0  0  0  0  0  0  0
    9.1014   17.5563   11.4013 C   0  0  0  0  0  0  0  0  0  0  0  0
    4.3112   23.0161    5.8813 C   0  0  0  0  0  0  0  0  0  0  0  0
    4.8486   24.2409    6.0800 C   0  0  0  0  0  0  0  0  0  0  0  0
    4.0539   25.3435    6.6536 C   0  0  0  0  0  0  0  0  0  0  0  0
    2.7549   25.1501    7.0003 C   0  0  0  0  0  0  0  0  0  0  0  0
    2.1533   23.7971    6.7839 C   0  0  0  0  0  0  0  0  0  0  0  0
    2.8795   22.7747    6.2507 C   0  0  0  0  0  0  0  0  0  0  0  0
    1.9809   26.2201    7.5680 N   0  0  0  0  0  0  0  0  0  0  0  0
    2.6349   27.1623    8.5232 C   0  0  0  0  0  0  0  0  0  0  0  0
    1.6535   27.7911    9.5421 C   0  0  0  0  0  0  0  0  0  0  0  0
    0.4090   28.3411    8.7879 C   0  0  0  0  0  0  0  0  0  0  0  0
   -0.3371   27.0926    8.2430 C   0  0  0  0  0  0  0  0  0  0  0  0
    0.5399   26.3508    7.1947 C   0  0  0  0  0  0  0  0  0  0  0  0
   -0.4916   29.1223    9.7214 N   0  0  0  0  0  0  0  0  0  0  0  0
   -1.5294   29.8856    8.9395 C   0  0  0  0  0  0  0  0  0  0  0  0
   -2.5041   30.6000    9.9218 C   0  0  0  0  0  0  0  0  0  0  0  0
   -1.7451   31.4859   10.8635 N   0  0  0  0  0  0  0  0  0  0  0  0
   -0.6494   30.7646   11.5829 C   0  0  0  0  0  0  0  0  0  0  0  0
    0.3015   30.0920   10.5578 C   0  0  0  0  0  0  0  0  0  0  0  0
   -2.6766   32.0438   11.8619 C   0  0  0  0  0  0  0  0  0  0  0  0
    2.3384   21.4772    6.0312 O   0  0  0  0  0  0  0  0  0  0  0  0
    2.3937   20.5469    7.1226 C   0  0  0  0  0  0  0  0  0  0  0  0
  3  4  1  0  0  0
  3  8  2  0  0  0
  3  9  1  0  0  0
  4  5  2  0  0  0
  4 10  1  0  0  0
  5  6  1  0  0  0
  6  7  2  0  0  0
  6  1  1  0  0  0
  7  8  1  0  0  0
  1 24  1  0  0  0
 24 25  1  0  0  0
 24 29  2  0  0  0
 25 26  2  0  0  0
 26 27  1  0  0  0
 27 28  2  0  0  0
 27 30  1  0  0  0
 28 29  1  0  0  0
 29 43  1  0  0  0
 43 44  1  0  0  0
 30 31  1  0  0  0
 30 35  1  0  0  0
 31 32  1  0  0  0
 32 33  1  0  0  0
 33 34  1  0  0  0
 33 36  1  0  0  0
 34 35  1  0  0  0
 36 37  1  0  0  0
 36 41  1  0  0  0
 37 38  1  0  0  0
 38 39  1  0  0  0
 39 40  1  0  0  0
 39 42  1  0  0  0
 40 41  1  0  0  0
 10 12  1  0  0  0
 12 13  1  0  0  0
 12 17  2  0  0  0
 13 14  2  0  0  0
 13 18  1  0  0  0
 14 15  1  0  0  0
 15 16  2  0  0  0
 16 17  1  0  0  0
 18 21  1  0  0  0
 18 19  2  0  0  0
 18 20  2  0  0  0
 21 22  1  0  0  0
 21 23  1  0  0  0
  1  2  1  0  0  0
 10 11  1  0  0  0
M  END
> <minimizedAffinity>
-8.61671

$$$$
2XB7_GUI_A_1501


 44 48  0  0  0  0  0  0  0  0999 V2000
    6.6752   21.5732    4.9151 N   0  0  0  0  0  0  0  0  0  0  0  0
    6.9426   21.7657    3.9874 H   0  0  0  0  0  0  0  0  0  0  0  0
    8.2491   18.0360    6.4482 C   0  0  0  0  0  0  0  0  0  0  0  0
    6.9503   18.3864    6.6668 C   0  0  0  0  0  0  0  0  0  0  0  0
    6.4758   19.5993    6.1205 N   0  0  0  0  0  0  0  0  0  0  0  0
    7.2174   20.3726    5.4331 C   0  0  0  0  0  0  0  0  0  0  0  0
    8.5613   20.0153    5.2021 N   0  0  0  0  0  0  0  0  0  0  0  0
    9.0657   18.9274    5.6668 C   0  0  0  0  0  0  0  0  0  0  0  0
    8.9349   16.5821    7.0678 Cl  0  0  0  0  0  0  0  0  0  0  0  0
    6.1016   17.5229    7.4390 N   0  0  0  0  0  0  0  0  0  0  0  0
    6.4569   16.6244    7.6281 H   0  0  0  0  0  0  0  0  0  0  0  0
    4.8024   17.8084    7.9674 C   0  0  0  0  0  0  0  0  0  0  0  0
    4.3137   16.9981    8.9527 C   0  0  0  0  0  0  0  0  0  0  0  0
    2.9609   17.2654    9.5289 C   0  0  0  0  0  0  0  0  0  0  0  0
    2.2138   18.3084    9.0760 C   0  0  0  0  0  0  0  0  0  0  0  0
    2.7410   19.1865    8.0072 C   0  0  0  0  0  0  0  0  0  0  0  0
    3.9661   18.9480    7.4864 C   0  0  0  0  0  0  0  0  0  0  0  0
    5.2801   15.6133    9.5474 S   0  0  0  0  0  0  0  0  0  0  0  0
    6.6401   16.0863   10.0336 O   0  0  0  0  0  0  0  0  0  0  0  0
    5.4552   14.5574    8.4771 O   0  0  0  0  0  0  0  0  0  0  0  0
    4.4517   14.8519   10.9683 C   0  0  0  0  0  0  0  0  0  0  0  0
    5.4835   14.3238   11.9841 C   0  0  0  0  0  0  0  0  0  0  0  0
    3.5752   13.6851   10.4762 C   0  0  0  0  0  0  0  0  0  0  0  0
    5.8089   22.5618    5.4894 C   0  0  0  0  0  0  0  0  0  0  0  0
    4.8513   22.1649    6.3576 C   0  0  0  0  0  0  0  0  0  0  0  0
    3.9263   23.1340    6.9752 C   0  0  0  0  0  0  0  0  0  0  0  0
    4.0151   24.4569    6.6806 C   0  0  0  0  0  0  0  0  0  0  0  0
    5.0721   24.9038    5.7200 C   0  0  0  0  0  0  0  0  0  0  0  0
    5.9331   24.0154    5.1486 C   0  0  0  0  0  0  0  0  0  0  0  0
    3.1092   25.4023    7.2737 N   0  0  0  0  0  0  0  0  0  0  0  0
    1.8152   25.6958    6.5899 C   0  0  0  0  0  0  0  0  0  0  0  0
    1.2675   27.1137    6.8838 C   0  0  0  0  0  0  0  0  0  0  0  0
    1.3010   27.3720    8.4175 C   0  0  0  0  0  0  0  0  0  0  0  0
    2.8050   27.4453    8.7981 C   0  0  0  0  0  0  0  0  0  0  0  0
    3.4946   26.0733    8.5520 C   0  0  0  0  0  0  0  0  0  0  0  0
    0.6097   28.6736    8.7653 N   0  0  0  0  0  0  0  0  0  0  0  0
    1.3711   29.4063    9.8396 C   0  0  0  0  0  0  0  0  0  0  0  0
    0.6991   30.7850   10.1099 C   0  0  0  0  0  0  0  0  0  0  0  0
   -0.7455   30.6040   10.4678 N   0  0  0  0  0  0  0  0  0  0  0  0
   -1.4980   29.7998    9.4553 C   0  0  0  0  0  0  0  0  0  0  0  0
   -0.7983   28.4314    9.2424 C   0  0  0  0  0  0  0  0  0  0  0  0
   -1.3851   31.9278   10.5878 C   0  0  0  0  0  0  0  0  0  0  0  0
    6.9491   24.4067    4.2327 O   0  0  0  0  0  0  0  0  0  0  0  0
    8.2562   24.6615    4.7678 C   0  0  0  0  0  0  0  0  0  0  0  0
  3  4  1  0  0  0
  3  8  2  0  0  0
  3  9  1  0  0  0
  4  5  2  0  0  0
  4 10  1  0  0  0
  5  6  1  0  0  0
  6  7  2  0  0  0
  6  1  1  0  0  0
  7  8  1  0  0  0
  1 24  1  0  0  0
 24 25  1  0  0  0
 24 29  2  0  0  0
 25 26  2  0  0  0
 26 27  1  0  0  0
 27 28  2  0  0  0
 27 30  1  0  0  0
 28 29  1  0  0  0
 29 43  1  0  0  0
 43 44  1  0  0  0
 30 31  1  0  0  0
 30 35  1  0  0  0
 31 32  1  0  0  0
 32 33  1  0  0  0
 33 34  1  0  0  0
 33 36  1  0  0  0
 34 35  1  0  0  0
 36 37  1  0  0  0
 36 41  1  0  0  0
 37 38  1  0  0  0
 38 39  1  0  0  0
 39 40  1  0  0  0
 39 42  1  0  0  0
 40 41  1  0  0  0
 10 12  1  0  0  0
 12 13  1  0  0  0
 12 17  2  0  0  0
 13 14  2  0  0  0
 13 18  1  0  0  0
 14 15  1  0  0  0
 15 16  2  0  0  0
 16 17  1  0  0  0
 18 21  1  0  0  0
 18 19  2  0  0  0
 18 20  2  0  0  0
 21 22  1  0  0  0
 21 23  1  0  0  0
  1  2  1  0  0  0
 10 11  1  0  0  0
M  END
> <minimizedAffinity>
-8.36468

$$$$
2XB7_GUI_A_1501


 44 48  0  0  0  0  0  0  0  0999 V2000
    0.9136   19.8504    8.3477 N   0  0  0  0  0  0  0  0  0  0  0  0
    0.5327   19.6609    9.2355 H   0  0  0  0  0  0  0  0  0  0  0  0
   -1.7835   21.5316    5.6572 C   0  0  0  0  0  0  0  0  0  0  0  0
   -0.5927   22.1332    5.9353 C   0  0  0  0  0  0  0  0  0  0  0  0
    0.2793   21.5135    6.8574 N   0  0  0  0  0  0  0  0  0  0  0  0
   -0.0084   20.4159    7.4345 C   0  0  0  0  0  0  0  0  0  0  0  0
   -1.2379   19.7877    7.1501 N   0  0  0  0  0  0  0  0  0  0  0  0
   -2.0838   20.2909    6.3223 C   0  0  0  0  0  0  0  0  0  0  0  0
   -2.9242   22.1984    4.5516 Cl  0  0  0  0  0  0  0  0  0  0  0  0
   -0.2540   23.3710    5.2905 N   0  0  0  0  0  0  0  0  0  0  0  0
   -0.8391   24.1369    5.4914 H   0  0  0  0  0  0  0  0  0  0  0  0
    0.8298   23.6275    4.3916 C   0  0  0  0  0  0  0  0  0  0  0  0
    1.4815   24.8241    4.4906 C   0  0  0  0  0  0  0  0  0  0  0  0
    2.6182   25.1272    3.5689 C   0  0  0  0  0  0  0  0  0  0  0  0
    3.0050   24.2200    2.6317 C   0  0  0  0  0  0  0  0  0  0  0  0
    2.2990   22.9236    2.5217 C   0  0  0  0  0  0  0  0  0  0  0  0
    1.2719   22.6462    3.3566 C   0  0  0  0  0  0  0  0  0  0  0  0
    0.9731   26.0328    5.7096 S   0  0  0  0  0  0  0  0  0  0  0  0
   -0.5427   26.1346    5.7544 O   0  0  0  0  0  0  0  0  0  0  0  0
    1.5719   27.3938    5.4260 O   0  0  0  0  0  0  0  0  0  0  0  0
    1.5117   25.5060    7.3580 C   0  0  0  0  0  0  0  0  0  0  0  0
    1.1093   26.5453    8.4226 C   0  0  0  0  0  0  0  0  0  0  0  0
    3.0427   25.3390    7.3595 C   0  0  0  0  0  0  0  0  0  0  0  0
    2.2992   19.5018    8.2211 C   0  0  0  0  0  0  0  0  0  0  0  0
    3.1165   20.3203    7.5209 C   0  0  0  0  0  0  0  0  0  0  0  0
    4.5489   20.0114    7.3502 C   0  0  0  0  0  0  0  0  0  0  0  0
    5.0820   18.8871    7.8948 C   0  0  0  0  0  0  0  0  0  0  0  0
    4.1835   17.9759    8.6707 C   0  0  0  0  0  0  0  0  0  0  0  0
    2.8603   18.2563    8.8364 C   0  0  0  0  0  0  0  0  0  0  0  0
    6.4753   18.5788    7.7223 N   0  0  0  0  0  0  0  0  0  0  0  0
    6.9423   17.1784    7.9434 C   0  0  0  0  0  0  0  0  0  0  0  0
    8.4202   17.0827    8.3945 C   0  0  0  0  0  0  0  0  0  0  0  0
    9.3033   17.9547    7.4566 C   0  0  0  0  0  0  0  0  0  0  0  0
    8.8986   19.4258    7.7471 C   0  0  0  0  0  0  0  0  0  0  0  0
    7.4185   19.6723    7.3383 C   0  0  0  0  0  0  0  0  0  0  0  0
   10.7748   17.7498    7.7493 N   0  0  0  0  0  0  0  0  0  0  0  0
   11.6207   18.3673    6.6658 C   0  0  0  0  0  0  0  0  0  0  0  0
   13.1272   18.2326    7.0370 C   0  0  0  0  0  0  0  0  0  0  0  0
   13.4823   16.7962    7.2781 N   0  0  0  0  0  0  0  0  0  0  0  0
   12.5932   16.1399    8.2865 C   0  0  0  0  0  0  0  0  0  0  0  0
   11.1096   16.2851    7.8560 C   0  0  0  0  0  0  0  0  0  0  0  0
   14.8758   16.7144    7.7547 C   0  0  0  0  0  0  0  0  0  0  0  0
    1.9791   17.4124    9.5683 O   0  0  0  0  0  0  0  0  0  0  0  0
    2.5688   16.3606   10.3465 C   0  0  0  0  0  0  0  0  0  0  0  0
  3  4  1  0  0  0
  3  8  2  0  0  0
  3  9  1  0  0  0
  4  5  2  0  0  0
  4 10  1  0  0  0
  5  6  1  0  0  0
  6  7  2  0  0  0
  6  1  1  0  0  0
  7  8  1  0  0  0
  1 24  1  0  0  0
 24 25  1  0  0  0
 24 29  2  0  0  0
 25 26  2  0  0  0
 26 27  1  0  0  0
 27 28  2  0  0  0
 27 30  1  0  0  0
 28 29  1  0  0  0
 29 43  1  0  0  0
 43 44  1  0  0  0
 30 31  1  0  0  0
 30 35  1  0  0  0
 31 32  1  0  0  0
 32 33  1  0  0  0
 33 34  1  0  0  0
 33 36  1  0  0  0
 34 35  1  0  0  0
 36 37  1  0  0  0
 36 41  1  0  0  0
 37 38  1  0  0  0
 38 39  1  0  0  0
 39 40  1  0  0  0
 39 42  1  0  0  0
 40 41  1  0  0  0
 10 12  1  0  0  0
 12 13  1  0  0  0
 12 17  2  0  0  0
 13 14  2  0  0  0
 13 18  1  0  0  0
 14 15  1  0  0  0
 15 16  2  0  0  0
 16 17  1  0  0  0
 18 21  1  0  0  0
 18 19  2  0  0  0
 18 20  2  0  0  0
 21 22  1  0  0  0
 21 23  1  0  0  0
  1  2  1  0  0  0
 10 11  1  0  0  0
M  END
> <minimizedAffinity>
-8.06329

$$$$
2XB7_GUI_A_1501


 44 48  0  0  0  0  0  0  0  0999 V2000
   -1.8028   22.2604    6.5163 N   0  0  0  0  0  0  0  0  0  0  0  0
   -2.4935   21.6710    6.1359 H   0  0  0  0  0  0  0  0  0  0  0  0
   -3.1406   26.0954    7.4343 C   0  0  0  0  0  0  0  0  0  0  0  0
   -1.8345   25.8555    7.1280 C   0  0  0  0  0  0  0  0  0  0  0  0
   -1.4424   24.5327    6.8260 N   0  0  0  0  0  0  0  0  0  0  0  0
   -2.2650   23.5612    6.8296 C   0  0  0  0  0  0  0  0  0  0  0  0
   -3.6177   23.8028    7.1440 N   0  0  0  0  0  0  0  0  0  0  0  0
   -4.0502   24.9797    7.4301 C   0  0  0  0  0  0  0  0  0  0  0  0
   -3.7295   27.6676    7.8206 Cl  0  0  0  0  0  0  0  0  0  0  0  0
   -0.8956   26.9421    7.1184 N   0  0  0  0  0  0  0  0  0  0  0  0
   -0.8552   27.4708    6.2889 H   0  0  0  0  0  0  0  0  0  0  0  0
   -0.0113   27.3508    8.1670 C   0  0  0  0  0  0  0  0  0  0  0  0
    1.3336   27.2209    7.9649 C   0  0  0  0  0  0  0  0  0  0  0  0
    2.2875   27.6373    9.0373 C   0  0  0  0  0  0  0  0  0  0  0  0
    1.8241   28.1418   10.2128 C   0  0  0  0  0  0  0  0  0  0  0  0
    0.3672   28.2817   10.4343 C   0  0  0  0  0  0  0  0  0  0  0  0
   -0.4977   27.9081    9.4641 C   0  0  0  0  0  0  0  0  0  0  0  0
    1.9563   26.5448    6.4287 S   0  0  0  0  0  0  0  0  0  0  0  0
    1.8296   27.5662    5.3104 O   0  0  0  0  0  0  0  0  0  0  0  0
    1.2312   25.2720    6.0473 O   0  0  0  0  0  0  0  0  0  0  0  0
    3.7210   26.1666    6.5953 C   0  0  0  0  0  0  0  0  0  0  0  0
    4.3855   26.0382    5.2106 C   0  0  0  0  0  0  0  0  0  0  0  0
    3.8832   24.8427    7.3650 C   0  0  0  0  0  0  0  0  0  0  0  0
   -0.5161   21.6407    6.6496 C   0  0  0  0  0  0  0  0  0  0  0  0
   -0.2774   20.8578    7.7259 C   0  0  0  0  0  0  0  0  0  0  0  0
    1.0283   20.1995    7.9213 C   0  0  0  0  0  0  0  0  0  0  0  0
    2.0286   20.3692    7.0182 C   0  0  0  0  0  0  0  0  0  0  0  0
    1.7722   21.2348    5.8247 C   0  0  0  0  0  0  0  0  0  0  0  0
    0.5675   21.8428    5.6349 C   0  0  0  0  0  0  0  0  0  0  0  0
    3.3049   19.7365    7.2108 N   0  0  0  0  0  0  0  0  0  0  0  0
    3.3502   18.3218    7.6848 C   0  0  0  0  0  0  0  0  0  0  0  0
    4.6345   17.9753    8.4768 C   0  0  0  0  0  0  0  0  0  0  0  0
    5.8787   18.4675    7.6831 C   0  0  0  0  0  0  0  0  0  0  0  0
    5.8071   20.0187    7.7104 C   0  0  0  0  0  0  0  0  0  0  0  0
    4.5501   20.5176    6.9425 C   0  0  0  0  0  0  0  0  0  0  0  0
    7.1613   17.9918    8.3323 N   0  0  0  0  0  0  0  0  0  0  0  0
    8.0326   19.1640    8.7034 C   0  0  0  0  0  0  0  0  0  0  0  0
    9.2976   18.6579    9.4579 C   0  0  0  0  0  0  0  0  0  0  0  0
   10.0346   17.6489    8.6294 N   0  0  0  0  0  0  0  0  0  0  0  0
    9.1618   16.5220    8.1749 C   0  0  0  0  0  0  0  0  0  0  0  0
    7.9319   17.0816    7.4123 C   0  0  0  0  0  0  0  0  0  0  0  0
   11.1485   17.0925    9.4202 C   0  0  0  0  0  0  0  0  0  0  0  0
    0.2904   22.6710    4.5116 O   0  0  0  0  0  0  0  0  0  0  0  0
    1.2323   22.6498    3.4289 C   0  0  0  0  0  0  0  0  0  0  0  0
  3  4  1  0  0  0
  3  8  2  0  0  0
  3  9  1  0  0  0
  4  5  2  0  0  0
  4 10  1  0  0  0
  5  6  1  0  0  0
  6  7  2  0  0  0
  6  1  1  0  0  0
  7  8  1  0  0  0
  1 24  1  0  0  0
 24 25  1  0  0  0
 24 29  2  0  0  0
 25 26  2  0  0  0
 26 27  1  0  0  0
 27 28  2  0  0  0
 27 30  1  0  0  0
 28 29  1  0  0  0
 29 43  1  0  0  0
 43 44  1  0  0  0
 30 31  1  0  0  0
 30 35  1  0  0  0
 31 32  1  0  0  0
 32 33  1  0  0  0
 33 34  1  0  0  0
 33 36  1  0  0  0
 34 35  1  0  0  0
 36 37  1  0  0  0
 36 41  1  0  0  0
 37 38  1  0  0  0
 38 39  1  0  0  0
 39 40  1  0  0  0
 39 42  1  0  0  0
 40 41  1  0  0  0
 10 12  1  0  0  0
 12 13  1  0  0  0
 12 17  2  0  0  0
 13 14  2  0  0  0
 13 18  1  0  0  0
 14 15  1  0  0  0
 15 16  2  0  0  0
 16 17  1  0  0  0
 18 21  1  0  0  0
 18 19  2  0  0  0
 18 20  2  0  0  0
 21 22  1  0  0  0
 21 23  1  0  0  0
  1  2  1  0  0  0
 10 11  1  0  0  0
M  END
> <minimizedAffinity>
-8.05540

$$$$
