3NQ9_OCA_A_1111


 11 10  0  0  0  0  0  0  0  0999 V2000
   -5.7030   -6.4773  -17.5123 C   0  0  0  0  0  0  0  0  0  0  0  0
   -6.1217   -5.0108  -17.4026 C   0  0  0  0  0  0  0  0  0  0  0  0
   -4.9095   -4.1120  -17.4124 C   0  0  0  0  0  0  0  0  0  0  0  0
   -3.7647   -4.6256  -17.3801 O   0  0  0  0  0  0  0  0  0  0  0  0
   -5.0951   -2.8791  -17.4580 O   0  0  0  0  0  0  0  0  0  0  0  0
   -5.9672   -2.5372  -17.4809 H   0  0  0  0  0  0  0  0  0  0  0  0
   -6.1315   -7.0732  -18.8449 C   0  0  0  0  0  0  0  0  0  0  0  0
   -7.6514   -7.0796  -18.9698 C   0  0  0  0  0  0  0  0  0  0  0  0
   -8.2641   -8.3231  -18.3508 C   0  0  0  0  0  0  0  0  0  0  0  0
   -9.6121   -8.0140  -17.7102 C   0  0  0  0  0  0  0  0  0  0  0  0
   -9.5356   -6.6875  -16.9897 C   0  0  0  0  0  0  0  0  0  0  0  0
  3  2  1  0  0  0
  3  4  2  0  0  0
  3  5  1  0  0  0
  2  1  1  0  0  0
  1  7  1  0  0  0
  7  8  1  0  0  0
  8  9  1  0  0  0
  9 10  1  0  0  0
 10 11  1  0  0  0
  5  6  1  0  0  0
M  END
> <minimizedAffinity>
-4.60685

$$$$
3NQ9_OCA_A_1111


 11 10  0  0  0  0  0  0  0  0999 V2000
   -5.0665   -3.2461  -17.4495 C   0  0  0  0  0  0  0  0  0  0  0  0
   -4.5587   -2.5355  -16.1946 C   0  0  0  0  0  0  0  0  0  0  0  0
   -3.0975   -2.8381  -15.9694 C   0  0  0  0  0  0  0  0  0  0  0  0
   -2.2685   -2.5654  -16.8715 O   0  0  0  0  0  0  0  0  0  0  0  0
   -2.7665   -3.3490  -14.8804 O   0  0  0  0  0  0  0  0  0  0  0  0
   -3.4180   -3.5367  -14.2337 H   0  0  0  0  0  0  0  0  0  0  0  0
   -5.0230   -4.7576  -17.2812 C   0  0  0  0  0  0  0  0  0  0  0  0
   -6.4199   -5.3557  -17.4103 C   0  0  0  0  0  0  0  0  0  0  0  0
   -6.4751   -6.4382  -18.4732 C   0  0  0  0  0  0  0  0  0  0  0  0
   -7.9150   -6.7943  -18.8240 C   0  0  0  0  0  0  0  0  0  0  0  0
   -8.7432   -6.8482  -17.5608 C   0  0  0  0  0  0  0  0  0  0  0  0
  3  2  1  0  0  0
  3  4  2  0  0  0
  3  5  1  0  0  0
  2  1  1  0  0  0
  1  7  1  0  0  0
  7  8  1  0  0  0
  8  9  1  0  0  0
  9 10  1  0  0  0
 10 11  1  0  0  0
  5  6  1  0  0  0
M  END
> <minimizedAffinity>
-4.60526

$$$$
3NQ9_OCA_A_1111


 11 10  0  0  0  0  0  0  0  0999 V2000
   -6.5429   -6.5761  -18.3551 C   0  0  0  0  0  0  0  0  0  0  0  0
   -7.9759   -6.7587  -18.8563 C   0  0  0  0  0  0  0  0  0  0  0  0
   -8.6555   -7.8858  -18.1178 C   0  0  0  0  0  0  0  0  0  0  0  0
   -8.4789   -9.0668  -18.5044 O   0  0  0  0  0  0  0  0  0  0  0  0
   -9.3705   -7.5962  -17.1374 O   0  0  0  0  0  0  0  0  0  0  0  0
   -9.4755   -6.7007  -16.8824 H   0  0  0  0  0  0  0  0  0  0  0  0
   -6.4490   -5.4240  -17.3660 C   0  0  0  0  0  0  0  0  0  0  0  0
   -5.0730   -4.7693  -17.4287 C   0  0  0  0  0  0  0  0  0  0  0  0
   -5.1655   -3.2546  -17.3871 C   0  0  0  0  0  0  0  0  0  0  0  0
   -4.2729   -2.6769  -16.2950 C   0  0  0  0  0  0  0  0  0  0  0  0
   -3.2560   -3.7130  -15.8743 C   0  0  0  0  0  0  0  0  0  0  0  0
  3  2  1  0  0  0
  3  4  2  0  0  0
  3  5  1  0  0  0
  2  1  1  0  0  0
  1  7  1  0  0  0
  7  8  1  0  0  0
  8  9  1  0  0  0
  9 10  1  0  0  0
 10 11  1  0  0  0
  5  6  1  0  0  0
M  END
> <minimizedAffinity>
-4.56532

$$$$
3NQ9_OCA_A_1111


 11 10  0  0  0  0  0  0  0  0999 V2000
   -4.5584   -5.7841  -17.3299 C   0  0  0  0  0  0  0  0  0  0  0  0
   -3.9209   -6.1671  -18.6658 C   0  0  0  0  0  0  0  0  0  0  0  0
   -3.5544   -7.6311  -18.6770 C   0  0  0  0  0  0  0  0  0  0  0  0
   -2.4442   -7.9819  -19.1459 O   0  0  0  0  0  0  0  0  0  0  0  0
   -4.3771   -8.4441  -18.2096 O   0  0  0  0  0  0  0  0  0  0  0  0
   -5.1952   -8.1395  -17.8692 H   0  0  0  0  0  0  0  0  0  0  0  0
   -5.8687   -5.0398  -17.5393 C   0  0  0  0  0  0  0  0  0  0  0  0
   -7.0564   -5.9843  -17.3880 C   0  0  0  0  0  0  0  0  0  0  0  0
   -7.4956   -6.5585  -18.7230 C   0  0  0  0  0  0  0  0  0  0  0  0
   -8.1011   -7.9470  -18.5543 C   0  0  0  0  0  0  0  0  0  0  0  0
   -9.2200   -7.8893  -17.5397 C   0  0  0  0  0  0  0  0  0  0  0  0
  3  2  1  0  0  0
  3  4  2  0  0  0
  3  5  1  0  0  0
  2  1  1  0  0  0
  1  7  1  0  0  0
  7  8  1  0  0  0
  8  9  1  0  0  0
  9 10  1  0  0  0
 10 11  1  0  0  0
  5  6  1  0  0  0
M  END
> <minimizedAffinity>
-4.25313

$$$$
3NQ9_OCA_A_1111


 11 10  0  0  0  0  0  0  0  0999 V2000
   -5.0210   -6.9380  -18.5137 C   0  0  0  0  0  0  0  0  0  0  0  0
   -3.9376   -6.4449  -19.4733 C   0  0  0  0  0  0  0  0  0  0  0  0
   -2.6871   -6.0739  -18.7143 C   0  0  0  0  0  0  0  0  0  0  0  0
   -2.0637   -6.9642  -18.0865 O   0  0  0  0  0  0  0  0  0  0  0  0
   -2.3149   -4.8835  -18.7453 O   0  0  0  0  0  0  0  0  0  0  0  0
   -2.8101   -4.2502  -19.2267 H   0  0  0  0  0  0  0  0  0  0  0  0
   -5.6844   -5.7761  -17.7894 C   0  0  0  0  0  0  0  0  0  0  0  0
   -7.1772   -6.0325  -17.6112 C   0  0  0  0  0  0  0  0  0  0  0  0
   -7.7646   -6.7915  -18.7875 C   0  0  0  0  0  0  0  0  0  0  0  0
   -8.6507   -7.9388  -18.3169 C   0  0  0  0  0  0  0  0  0  0  0  0
   -9.4782   -7.4854  -17.1361 C   0  0  0  0  0  0  0  0  0  0  0  0
  3  2  1  0  0  0
  3  4  2  0  0  0
  3  5  1  0  0  0
  2  1  1  0  0  0
  1  7  1  0  0  0
  7  8  1  0  0  0
  8  9  1  0  0  0
  9 10  1  0  0  0
 10 11  1  0  0  0
  5  6  1  0  0  0
M  END
> <minimizedAffinity>
-4.12761

$$$$
3NQ9_OCA_A_1111


 11 10  0  0  0  0  0  0  0  0999 V2000
   -7.0167   -6.0146  -17.7322 C   0  0  0  0  0  0  0  0  0  0  0  0
   -7.7713   -6.7694  -18.8270 C   0  0  0  0  0  0  0  0  0  0  0  0
   -8.2695   -8.0961  -18.3083 C   0  0  0  0  0  0  0  0  0  0  0  0
   -7.8808   -9.1551  -18.8587 O   0  0  0  0  0  0  0  0  0  0  0  0
   -9.0535   -8.0882  -17.3378 O   0  0  0  0  0  0  0  0  0  0  0  0
   -9.3186   -7.2745  -16.9564 H   0  0  0  0  0  0  0  0  0  0  0  0
   -5.5909   -6.5270  -17.5936 C   0  0  0  0  0  0  0  0  0  0  0  0
   -4.8967   -6.5656  -18.9509 C   0  0  0  0  0  0  0  0  0  0  0  0
   -3.5048   -7.1643  -18.8569 C   0  0  0  0  0  0  0  0  0  0  0  0
   -3.4273   -8.2101  -17.7509 C   0  0  0  0  0  0  0  0  0  0  0  0
   -3.5328   -9.5917  -18.3548 C   0  0  0  0  0  0  0  0  0  0  0  0
  3  2  1  0  0  0
  3  4  2  0  0  0
  3  5  1  0  0  0
  2  1  1  0  0  0
  1  7  1  0  0  0
  7  8  1  0  0  0
  8  9  1  0  0  0
  9 10  1  0  0  0
 10 11  1  0  0  0
  5  6  1  0  0  0
M  END
> <minimizedAffinity>
-4.07946

$$$$
3NQ9_OCA_A_1111


 11 10  0  0  0  0  0  0  0  0999 V2000
   -3.5689   -7.5613  -18.7364 C   0  0  0  0  0  0  0  0  0  0  0  0
   -2.4243   -7.1702  -19.6717 C   0  0  0  0  0  0  0  0  0  0  0  0
   -1.3502   -8.2304  -19.6661 C   0  0  0  0  0  0  0  0  0  0  0  0
   -0.5668   -8.3150  -20.6430 O   0  0  0  0  0  0  0  0  0  0  0  0
   -1.2793   -8.9866  -18.6764 O   0  0  0  0  0  0  0  0  0  0  0  0
   -1.8847   -8.8891  -17.9679 H   0  0  0  0  0  0  0  0  0  0  0  0
   -4.7638   -6.6363  -18.9130 C   0  0  0  0  0  0  0  0  0  0  0  0
   -5.7070   -6.7386  -17.7191 C   0  0  0  0  0  0  0  0  0  0  0  0
   -7.0278   -6.0373  -17.9805 C   0  0  0  0  0  0  0  0  0  0  0  0
   -7.8859   -6.8250  -18.9635 C   0  0  0  0  0  0  0  0  0  0  0  0
   -8.2836   -8.1439  -18.3414 C   0  0  0  0  0  0  0  0  0  0  0  0
  3  2  1  0  0  0
  3  4  2  0  0  0
  3  5  1  0  0  0
  2  1  1  0  0  0
  1  7  1  0  0  0
  7  8  1  0  0  0
  8  9  1  0  0  0
  9 10  1  0  0  0
 10 11  1  0  0  0
  5  6  1  0  0  0
M  END
> <minimizedAffinity>
-4.04687

$$$$
3NQ9_OCA_A_1111


 11 10  0  0  0  0  0  0  0  0999 V2000
   -2.5315   -7.3563  -19.6647 C   0  0  0  0  0  0  0  0  0  0  0  0
   -2.7285   -8.5133  -18.6847 C   0  0  0  0  0  0  0  0  0  0  0  0
   -1.3956   -9.0722  -18.2504 C   0  0  0  0  0  0  0  0  0  0  0  0
   -0.3410   -8.5697  -18.7093 O   0  0  0  0  0  0  0  0  0  0  0  0
   -1.3944  -10.0196  -17.4388 O   0  0  0  0  0  0  0  0  0  0  0  0
   -2.2053  -10.3652  -17.1208 H   0  0  0  0  0  0  0  0  0  0  0  0
   -3.6469   -6.3298  -19.5349 C   0  0  0  0  0  0  0  0  0  0  0  0
   -4.7659   -6.8581  -18.6435 C   0  0  0  0  0  0  0  0  0  0  0  0
   -5.3837   -5.7574  -17.8000 C   0  0  0  0  0  0  0  0  0  0  0  0
   -6.8748   -5.9935  -17.5908 C   0  0  0  0  0  0  0  0  0  0  0  0
   -7.4506   -6.6874  -18.8038 C   0  0  0  0  0  0  0  0  0  0  0  0
  3  2  1  0  0  0
  3  4  2  0  0  0
  3  5  1  0  0  0
  2  1  1  0  0  0
  1  7  1  0  0  0
  7  8  1  0  0  0
  8  9  1  0  0  0
  9 10  1  0  0  0
 10 11  1  0  0  0
  5  6  1  0  0  0
M  END
> <minimizedAffinity>
-4.00867

$$$$
3NQ9_OCA_A_1111


 11 10  0  0  0  0  0  0  0  0999 V2000
   -1.4307  -11.6755  -15.5907 C   0  0  0  0  0  0  0  0  0  0  0  0
   -0.4750  -12.7686  -15.1116 C   0  0  0  0  0  0  0  0  0  0  0  0
    0.7517  -12.1590  -14.4784 C   0  0  0  0  0  0  0  0  0  0  0  0
    0.8790  -12.1932  -13.2302 O   0  0  0  0  0  0  0  0  0  0  0  0
    1.6037  -11.6435  -15.2299 O   0  0  0  0  0  0  0  0  0  0  0  0
    1.4692  -11.6394  -16.1572 H   0  0  0  0  0  0  0  0  0  0  0  0
   -1.3494  -11.4966  -17.0994 C   0  0  0  0  0  0  0  0  0  0  0  0
   -1.3880  -10.0180  -17.4707 C   0  0  0  0  0  0  0  0  0  0  0  0
   -2.7786   -9.5769  -17.8907 C   0  0  0  0  0  0  0  0  0  0  0  0
   -2.7206   -8.3385  -18.7773 C   0  0  0  0  0  0  0  0  0  0  0  0
   -1.6771   -8.5366  -19.8527 C   0  0  0  0  0  0  0  0  0  0  0  0
  3  2  1  0  0  0
  3  4  2  0  0  0
  3  5  1  0  0  0
  2  1  1  0  0  0
  1  7  1  0  0  0
  7  8  1  0  0  0
  8  9  1  0  0  0
  9 10  1  0  0  0
 10 11  1  0  0  0
  5  6  1  0  0  0
M  END
> <minimizedAffinity>
-3.95032

$$$$
3NQ9_OCA_A_1111


 11 10  0  0  0  0  0  0  0  0999 V2000
   -6.6718   -5.8168  -17.8754 C   0  0  0  0  0  0  0  0  0  0  0  0
   -7.6049   -6.6764  -18.7288 C   0  0  0  0  0  0  0  0  0  0  0  0
   -8.7056   -7.2653  -17.8807 C   0  0  0  0  0  0  0  0  0  0  0  0
   -9.3673   -6.5124  -17.1253 O   0  0  0  0  0  0  0  0  0  0  0  0
   -8.9203   -8.4911  -17.9688 O   0  0  0  0  0  0  0  0  0  0  0  0
   -8.4023   -9.0172  -18.5457 H   0  0  0  0  0  0  0  0  0  0  0  0
   -5.8419   -6.6754  -16.9327 C   0  0  0  0  0  0  0  0  0  0  0  0
   -4.5010   -7.0314  -17.5659 C   0  0  0  0  0  0  0  0  0  0  0  0
   -4.0010   -5.9322  -18.4860 C   0  0  0  0  0  0  0  0  0  0  0  0
   -3.4419   -6.5087  -19.7815 C   0  0  0  0  0  0  0  0  0  0  0  0
   -2.0236   -6.0246  -19.9781 C   0  0  0  0  0  0  0  0  0  0  0  0
  3  2  1  0  0  0
  3  4  2  0  0  0
  3  5  1  0  0  0
  2  1  1  0  0  0
  1  7  1  0  0  0
  7  8  1  0  0  0
  8  9  1  0  0  0
  9 10  1  0  0  0
 10 11  1  0  0  0
  5  6  1  0  0  0
M  END
> <minimizedAffinity>
-3.94258

$$$$
