6FUH_E88_A_301
  RCSB PDB06021801393D
Coordinates from PDB:6FUH:A:301 Model:1 without hydrogens
 27 29  0  0  0  0            999 V2000
    7.5510    9.7650    1.3260   N 0  0  0  0  0  0  0  0  0  0  0  0
    9.9250    9.1580    0.9730   C 0  0  0  0  0  0  0  0  0  0  0  0
    9.8870    9.7620   -0.4360   C 0  0  0  0  0  0  0  0  0  0  0  0
    8.5190    7.9850    2.7410   C 0  0  0  0  0  0  0  0  0  0  0  0
    4.1960   10.6430    1.9380   C 0  0  0  0  0  0  0  0  0  0  0  0
    3.5620    9.3810    2.0230   C 0  0  0  0  0  0  0  0  0  0  0  0
    3.4760    4.7530    1.1500   C 0  0  0  0  0  0  0  0  0  0  0  0
    8.2490    8.7150    3.7050   O 0  0  0  0  0  0  0  0  0  0  0  0
    8.7870    6.7540    2.7540   O 0  0  0  0  0  0  0  0  0  0  0  0
    8.5170    8.6610    1.3690   C 0  0  0  0  0  0  0  0  0  0  0  0
   10.4500   10.1460    2.0290   C 0  0  0  0  0  0  0  0  0  0  0  0
    6.2290    9.6580    1.4990   C 0  0  0  0  0  0  0  0  0  0  0  0
    5.6820    8.3850    1.5210   N 0  0  0  0  0  0  0  0  0  0  0  0
    4.3420    8.2490    1.7750   C 0  0  0  0  0  0  0  0  0  0  0  0
    2.1580    9.3290    2.2680   C 0  0  0  0  0  0  0  0  0  0  0  0
    1.4870   10.5310    2.5320   C 0  0  0  0  0  0  0  0  0  0  0  0
    2.0830   11.7860    2.3340   C 0  0  0  0  0  0  0  0  0  0  0  0
    3.4680   11.8600    2.0500   C 0  0  0  0  0  0  0  0  0  0  0  0
    5.5080   10.7350    1.7350   N 0  0  0  0  0  0  0  0  0  0  0  0
    3.7970    7.0400    1.7200   N 0  0  0  0  0  0  0  0  0  0  0  0
    4.3200    5.7000    1.6040   C 0  0  0  0  0  0  0  0  0  0  0  0
    5.6320    5.3780    1.9490   C 0  0  0  0  0  0  0  0  0  0  0  0
    6.0740    4.0670    1.8330   C 0  0  0  0  0  0  0  0  0  0  0  0
    5.2090    3.0690    1.4380   C 0  0  0  0  0  0  0  0  0  0  0  0
    3.9320    3.4040    0.9740   C 0  0  0  0  0  0  0  0  0  0  0  0
    2.8860    2.4220    0.5190   C 0  0  0  0  0  0  0  0  0  0  0  0
    2.8470    0.9790    0.9260   N 0  0  0  0  0  0  0  0  0  0  0  0
  3  2  1  0  0  0  0
 26 27  1  0  0  0  0
 26 25  1  0  0  0  0
  2 10  1  0  0  0  0
  2 11  1  0  0  0  0
 25  7  2  0  0  0  0
 25 24  1  0  0  0  0
  7 21  1  0  0  0  0
  1 10  1  0  0  0  0
  1 12  1  0  0  0  0
 10  4  1  0  0  0  0
 24 23  2  0  0  0  0
 12 13  2  0  0  0  0
 12 19  1  0  0  0  0
 13 14  1  0  0  0  0
 21 20  1  0  0  0  0
 21 22  2  0  0  0  0
 20 14  1  0  0  0  0
 19  5  2  0  0  0  0
 14  6  2  0  0  0  0
 23 22  1  0  0  0  0
  5  6  1  0  0  0  0
  5 18  1  0  0  0  0
  6 15  1  0  0  0  0
 18 17  2  0  0  0  0
 15 16  2  0  0  0  0
 17 16  1  0  0  0  0
  4  9  2  0  0  0  0
  4  8  1  0  0  0  0
A    1
N1
A    2
C5
A    3
C7
A    4
C15
A    5
C21
A    6
C22
A    7
C28
A    8
O17
A    9
O16
A   10
C3
A   11
C11
A   12
C19
A   13
N24
A   14
C23
A   15
C43
A   16
C45
A   17
C47
A   18
C49
A   19
N20
A   20
N25
A   21
C27
A   22
C35
A   23
C33
A   24
C31
A   25
C30
A   26
C37
A   27
N40
M  END
>  <InstanceId>
6FUH_E88_A_301

>  <ChemCompId>
E88

>  <PdbId>
6FUH

>  <ChainId>
A

>  <ResidueNumber>
301

>  <InsertionCode>


>  <Model>
1

>  <AltIds>


>  <MissingHeavyAtoms>
0

>  <ObservedFormula>
C20 N5 O2

>  <Name>
(2~{S})-2-[[4-[[3-(aminomethyl)phenyl]amino]quinazolin-2-yl]amino]-3-methyl-butanoic acid

>  <SystematicName>
(2~{S})-2-[[4-[[3-(aminomethyl)phenyl]amino]quinazolin-2-yl]amino]-3-methyl-butanoic acid

>  <Synonyms>


>  <Type>
NON-POLYMER

>  <Formula>
C20 H23 N5 O2

>  <MolecularWeight>
365.429

>  <ModifiedDate>
2018-06-01

>  <Parent>


>  <OneLetterCode>


>  <SubcomponentList>


>  <AmbiguousFlag>
N

>  <InChI>
InChI=1S/C20H23N5O2/c1-12(2)17(19(26)27)24-20-23-16-9-4-3-8-15(16)18(25-20)22-14-7-5-6-13(10-14)11-21/h3-10,12,17H,11,21H2,1-2H3,(H,26,27)(H2,22,23,24,25)/t17-/m0/s1

>  <InChIKey>
SBAJWMCMBZQORT-KRWDZBQOSA-N

>  <SMILES>
CC(C)[C@@H](C(=O)O)Nc1nc2ccccc2c(n1)Nc3cccc(c3)CN

$$$$
