4FZJ_0W1_A_405


 14 15  0  0  0  0  0  0  0  0999 V2000
   13.6799    2.2330  -10.3847 C   0  0  0  0  0  0  0  0  0  0  0  0
   14.1572    2.6945  -11.5578 C   0  0  0  0  0  0  0  0  0  0  0  0
   12.7670    0.7162  -10.6700 S   0  0  0  0  0  0  0  0  0  0  0  0
   13.0888    0.8622  -12.4292 C   0  0  0  0  0  0  0  0  0  0  0  0
   13.8562    1.9765  -12.6635 C   0  0  0  0  0  0  0  0  0  0  0  0
   14.0734    2.0021  -14.0026 C   0  0  0  0  0  0  0  0  0  0  0  0
   14.8755    3.0608  -14.7822 C   0  0  0  0  0  0  0  0  0  0  0  0
   13.5016    0.9547  -14.5953 N   0  0  0  0  0  0  0  0  0  0  0  0
   12.8858    0.2409  -13.6113 N   0  0  0  0  0  0  0  0  0  0  0  0
   12.0767   -1.0418  -13.8470 C   0  0  0  0  0  0  0  0  0  0  0  0
   12.9423    3.4773   -8.6139 O   0  0  0  0  0  0  0  0  0  0  0  0
   13.8782    2.8338   -9.1809 C   0  0  0  0  0  0  0  0  0  0  0  0
   14.9864    2.7210   -8.5945 O   0  0  0  0  0  0  0  0  0  0  0  0
   15.6859    2.2487   -9.0015 H   0  0  0  0  0  0  0  0  0  0  0  0
  7  6  1  0  0  0
 11 12  2  0  0  0
  6  5  1  0  0  0
  6  8  2  0  0  0
  2  5  1  0  0  0
  2  1  2  0  0  0
  5  4  2  0  0  0
 12  1  1  0  0  0
 12 13  1  0  0  0
  8  9  1  0  0  0
  1  3  1  0  0  0
  4  9  1  0  0  0
  4  3  1  0  0  0
  9 10  1  0  0  0
 13 14  1  0  0  0
M  END
> <minimizedAffinity>
-4.77900

$$$$
4FZJ_0W1_A_405


 14 15  0  0  0  0  0  0  0  0999 V2000
   13.8705    2.5667  -10.9795 C   0  0  0  0  0  0  0  0  0  0  0  0
   14.2847    2.4393  -12.2559 C   0  0  0  0  0  0  0  0  0  0  0  0
   13.0319    4.1393  -10.7811 S   0  0  0  0  0  0  0  0  0  0  0  0
   13.3606    4.5233  -12.5028 C   0  0  0  0  0  0  0  0  0  0  0  0
   14.0206    3.4714  -13.0887 C   0  0  0  0  0  0  0  0  0  0  0  0
   14.2095    3.8277  -14.3842 C   0  0  0  0  0  0  0  0  0  0  0  0
   14.9139    2.9952  -15.4718 C   0  0  0  0  0  0  0  0  0  0  0  0
   13.6822    5.0270  -14.6273 N   0  0  0  0  0  0  0  0  0  0  0  0
   13.1506    5.4625  -13.4507 N   0  0  0  0  0  0  0  0  0  0  0  0
   12.4573    6.8186  -13.2612 C   0  0  0  0  0  0  0  0  0  0  0  0
   13.6254    0.4488  -10.1535 O   0  0  0  0  0  0  0  0  0  0  0  0
   14.0606    1.6326  -10.0096 C   0  0  0  0  0  0  0  0  0  0  0  0
   14.7106    1.9241   -8.9718 O   0  0  0  0  0  0  0  0  0  0  0  0
   15.0377    2.7941   -8.8527 H   0  0  0  0  0  0  0  0  0  0  0  0
  7  6  1  0  0  0
 11 12  2  0  0  0
  6  5  1  0  0  0
  6  8  2  0  0  0
  2  5  1  0  0  0
  2  1  2  0  0  0
  5  4  2  0  0  0
 12  1  1  0  0  0
 12 13  1  0  0  0
  8  9  1  0  0  0
  1  3  1  0  0  0
  4  9  1  0  0  0
  4  3  1  0  0  0
  9 10  1  0  0  0
 13 14  1  0  0  0
M  END
> <minimizedAffinity>
-4.56675

$$$$
4FZJ_0W1_A_405


 14 15  0  0  0  0  0  0  0  0999 V2000
   13.5811    3.4285  -10.5646 C   0  0  0  0  0  0  0  0  0  0  0  0
   13.1062    4.5673  -11.1071 C   0  0  0  0  0  0  0  0  0  0  0  0
   14.2901    2.4057  -11.8557 S   0  0  0  0  0  0  0  0  0  0  0  0
   13.8299    3.6390  -13.0750 C   0  0  0  0  0  0  0  0  0  0  0  0
   13.2308    4.7029  -12.4468 C   0  0  0  0  0  0  0  0  0  0  0  0
   12.9368    5.5943  -13.4266 C   0  0  0  0  0  0  0  0  0  0  0  0
   12.2455    6.9590  -13.2486 C   0  0  0  0  0  0  0  0  0  0  0  0
   13.3430    5.1448  -14.6133 N   0  0  0  0  0  0  0  0  0  0  0  0
   13.9022    3.9217  -14.3939 N   0  0  0  0  0  0  0  0  0  0  0  0
   14.4849    3.0244  -15.4942 C   0  0  0  0  0  0  0  0  0  0  0  0
   14.5806    2.8003   -8.6065 O   0  0  0  0  0  0  0  0  0  0  0  0
   13.5294    3.1245   -9.2400 C   0  0  0  0  0  0  0  0  0  0  0  0
   12.4386    3.2032   -8.6168 O   0  0  0  0  0  0  0  0  0  0  0  0
   11.6550    3.4414   -9.0720 H   0  0  0  0  0  0  0  0  0  0  0  0
  7  6  1  0  0  0
 11 12  2  0  0  0
  6  5  1  0  0  0
  6  8  2  0  0  0
  2  5  1  0  0  0
  2  1  2  0  0  0
  5  4  2  0  0  0
 12  1  1  0  0  0
 12 13  1  0  0  0
  8  9  1  0  0  0
  1  3  1  0  0  0
  4  9  1  0  0  0
  4  3  1  0  0  0
  9 10  1  0  0  0
 13 14  1  0  0  0
M  END
> <minimizedAffinity>
-4.41027

$$$$
4FZJ_0W1_A_405


 14 15  0  0  0  0  0  0  0  0999 V2000
   12.9719    2.1322  -10.6854 C   0  0  0  0  0  0  0  0  0  0  0  0
   13.4318    2.0177  -11.9472 C   0  0  0  0  0  0  0  0  0  0  0  0
   11.7137    0.8875  -10.3962 S   0  0  0  0  0  0  0  0  0  0  0  0
   11.8969    0.3201  -12.0886 C   0  0  0  0  0  0  0  0  0  0  0  0
   12.8739    1.0541  -12.7147 C   0  0  0  0  0  0  0  0  0  0  0  0
   12.9668    0.5518  -13.9716 C   0  0  0  0  0  0  0  0  0  0  0  0
   13.9145    1.0350  -15.0854 C   0  0  0  0  0  0  0  0  0  0  0  0
   12.1183   -0.4615  -14.1407 N   0  0  0  0  0  0  0  0  0  0  0  0
   11.4490   -0.6073  -12.9627 N   0  0  0  0  0  0  0  0  0  0  0  0
   10.3496   -1.6486  -12.7129 C   0  0  0  0  0  0  0  0  0  0  0  0
   14.2317    3.9567  -10.1270 O   0  0  0  0  0  0  0  0  0  0  0  0
   13.4126    3.0498   -9.7836 C   0  0  0  0  0  0  0  0  0  0  0  0
   12.9769    3.0334   -8.6027 O   0  0  0  0  0  0  0  0  0  0  0  0
   12.3718    2.3697   -8.3357 H   0  0  0  0  0  0  0  0  0  0  0  0
  7  6  1  0  0  0
 11 12  2  0  0  0
  6  5  1  0  0  0
  6  8  2  0  0  0
  2  5  1  0  0  0
  2  1  2  0  0  0
  5  4  2  0  0  0
 12  1  1  0  0  0
 12 13  1  0  0  0
  8  9  1  0  0  0
  1  3  1  0  0  0
  4  9  1  0  0  0
  4  3  1  0  0  0
  9 10  1  0  0  0
 13 14  1  0  0  0
M  END
> <minimizedAffinity>
-4.10022

$$$$
4FZJ_0W1_A_405


 14 15  0  0  0  0  0  0  0  0999 V2000
   12.9174    2.4382  -10.7859 C   0  0  0  0  0  0  0  0  0  0  0  0
   11.6389    2.0945  -11.0389 C   0  0  0  0  0  0  0  0  0  0  0  0
   13.1541    4.1730  -11.1734 S   0  0  0  0  0  0  0  0  0  0  0  0
   11.4431    4.2803  -11.7034 C   0  0  0  0  0  0  0  0  0  0  0  0
   10.8318    3.0635  -11.5271 C   0  0  0  0  0  0  0  0  0  0  0  0
    9.5460    3.2335  -11.9256 C   0  0  0  0  0  0  0  0  0  0  0  0
    8.4389    2.1628  -11.9349 C   0  0  0  0  0  0  0  0  0  0  0  0
    9.3324    4.4903  -12.3131 N   0  0  0  0  0  0  0  0  0  0  0  0
   10.5189    5.1458  -12.1739 N   0  0  0  0  0  0  0  0  0  0  0  0
   10.7414    6.6219  -12.5305 C   0  0  0  0  0  0  0  0  0  0  0  0
   13.5895    0.3702  -10.0792 O   0  0  0  0  0  0  0  0  0  0  0  0
   13.8638    1.5893  -10.3032 C   0  0  0  0  0  0  0  0  0  0  0  0
   15.0392    1.9975  -10.1127 O   0  0  0  0  0  0  0  0  0  0  0  0
   15.2555    2.8948  -10.2740 H   0  0  0  0  0  0  0  0  0  0  0  0
  7  6  1  0  0  0
 11 12  2  0  0  0
  6  5  1  0  0  0
  6  8  2  0  0  0
  2  5  1  0  0  0
  2  1  2  0  0  0
  5  4  2  0  0  0
 12  1  1  0  0  0
 12 13  1  0  0  0
  8  9  1  0  0  0
  1  3  1  0  0  0
  4  9  1  0  0  0
  4  3  1  0  0  0
  9 10  1  0  0  0
 13 14  1  0  0  0
M  END
> <minimizedAffinity>
-4.09116

$$$$
4FZJ_0W1_A_405


 14 15  0  0  0  0  0  0  0  0999 V2000
   12.6410    0.7307  -11.5232 C   0  0  0  0  0  0  0  0  0  0  0  0
   13.3886    1.7034  -12.0814 C   0  0  0  0  0  0  0  0  0  0  0  0
   12.2519   -0.5051  -12.7630 S   0  0  0  0  0  0  0  0  0  0  0  0
   13.1371    0.4587  -13.9907 C   0  0  0  0  0  0  0  0  0  0  0  0
   13.6687    1.5776  -13.3984 C   0  0  0  0  0  0  0  0  0  0  0  0
   14.3364    2.2348  -14.3799 C   0  0  0  0  0  0  0  0  0  0  0  0
   15.1058    3.5613  -14.2370 C   0  0  0  0  0  0  0  0  0  0  0  0
   14.2616    1.5688  -15.5315 N   0  0  0  0  0  0  0  0  0  0  0  0
   13.5118    0.4573  -15.2885 N   0  0  0  0  0  0  0  0  0  0  0  0
   13.1469   -0.5916  -16.3479 C   0  0  0  0  0  0  0  0  0  0  0  0
   11.7162   -0.3308   -9.7216 O   0  0  0  0  0  0  0  0  0  0  0  0
   12.2591    0.7037  -10.2183 C   0  0  0  0  0  0  0  0  0  0  0  0
   12.4800    1.6958   -9.4756 O   0  0  0  0  0  0  0  0  0  0  0  0
   12.8801    2.4658   -9.8292 H   0  0  0  0  0  0  0  0  0  0  0  0
  7  6  1  0  0  0
 11 12  2  0  0  0
  6  5  1  0  0  0
  6  8  2  0  0  0
  2  5  1  0  0  0
  2  1  2  0  0  0
  5  4  2  0  0  0
 12  1  1  0  0  0
 12 13  1  0  0  0
  8  9  1  0  0  0
  1  3  1  0  0  0
  4  9  1  0  0  0
  4  3  1  0  0  0
  9 10  1  0  0  0
 13 14  1  0  0  0
M  END
> <minimizedAffinity>
-4.05477

$$$$
4FZJ_0W1_A_405


 14 15  0  0  0  0  0  0  0  0999 V2000
   19.4083    5.9947  -17.5993 C   0  0  0  0  0  0  0  0  0  0  0  0
   18.4073    5.5023  -16.8427 C   0  0  0  0  0  0  0  0  0  0  0  0
   18.7900    7.3551  -18.5906 S   0  0  0  0  0  0  0  0  0  0  0  0
   17.1536    7.1066  -17.8975 C   0  0  0  0  0  0  0  0  0  0  0  0
   17.1941    6.0828  -16.9833 C   0  0  0  0  0  0  0  0  0  0  0  0
   15.9340    5.9747  -16.4920 C   0  0  0  0  0  0  0  0  0  0  0  0
   15.4437    4.9653  -15.4370 C   0  0  0  0  0  0  0  0  0  0  0  0
   15.1328    6.8889  -17.0375 N   0  0  0  0  0  0  0  0  0  0  0  0
   15.8954    7.5976  -17.9166 N   0  0  0  0  0  0  0  0  0  0  0  0
   15.3708    8.7438  -18.7922 C   0  0  0  0  0  0  0  0  0  0  0  0
   20.9998    4.4895  -18.2545 O   0  0  0  0  0  0  0  0  0  0  0  0
   20.6845    5.5251  -17.5914 C   0  0  0  0  0  0  0  0  0  0  0  0
   21.5795    6.1413  -16.9559 O   0  0  0  0  0  0  0  0  0  0  0  0
   21.3607    6.9071  -16.4623 H   0  0  0  0  0  0  0  0  0  0  0  0
  7  6  1  0  0  0
 11 12  2  0  0  0
  6  5  1  0  0  0
  6  8  2  0  0  0
  2  5  1  0  0  0
  2  1  2  0  0  0
  5  4  2  0  0  0
 12  1  1  0  0  0
 12 13  1  0  0  0
  8  9  1  0  0  0
  1  3  1  0  0  0
  4  9  1  0  0  0
  4  3  1  0  0  0
  9 10  1  0  0  0
 13 14  1  0  0  0
M  END
> <minimizedAffinity>
-3.98318

$$$$
4FZJ_0W1_A_405


 14 15  0  0  0  0  0  0  0  0999 V2000
   12.8734    2.4291  -10.8759 C   0  0  0  0  0  0  0  0  0  0  0  0
   13.1360    3.5828  -11.5214 C   0  0  0  0  0  0  0  0  0  0  0  0
   11.1037    2.1391  -10.8736 S   0  0  0  0  0  0  0  0  0  0  0  0
   10.8566    3.6864  -11.7478 C   0  0  0  0  0  0  0  0  0  0  0  0
   12.0737    4.2704  -11.9984 C   0  0  0  0  0  0  0  0  0  0  0  0
   11.8036    5.4138  -12.6771 C   0  0  0  0  0  0  0  0  0  0  0  0
   12.8299    6.4423  -13.1877 C   0  0  0  0  0  0  0  0  0  0  0  0
   10.4928    5.5489  -12.8746 N   0  0  0  0  0  0  0  0  0  0  0  0
    9.8998    4.4682  -12.2938 N   0  0  0  0  0  0  0  0  0  0  0  0
    8.3849    4.2244  -12.2590 C   0  0  0  0  0  0  0  0  0  0  0  0
   13.5729    0.3946  -10.1017 O   0  0  0  0  0  0  0  0  0  0  0  0
   13.8181    1.6197  -10.3265 C   0  0  0  0  0  0  0  0  0  0  0  0
   14.9656    2.0711  -10.0732 O   0  0  0  0  0  0  0  0  0  0  0  0
   15.1602    2.9734  -10.2343 H   0  0  0  0  0  0  0  0  0  0  0  0
  7  6  1  0  0  0
 11 12  2  0  0  0
  6  5  1  0  0  0
  6  8  2  0  0  0
  2  5  1  0  0  0
  2  1  2  0  0  0
  5  4  2  0  0  0
 12  1  1  0  0  0
 12 13  1  0  0  0
  8  9  1  0  0  0
  1  3  1  0  0  0
  4  9  1  0  0  0
  4  3  1  0  0  0
  9 10  1  0  0  0
 13 14  1  0  0  0
M  END
> <minimizedAffinity>
-3.96862

$$$$
4FZJ_0W1_A_405


 14 15  0  0  0  0  0  0  0  0999 V2000
   12.8287    2.1319  -10.5605 C   0  0  0  0  0  0  0  0  0  0  0  0
   11.8656    1.2991  -10.1180 C   0  0  0  0  0  0  0  0  0  0  0  0
   13.2282    1.7279  -12.2614 S   0  0  0  0  0  0  0  0  0  0  0  0
   12.0371    0.3867  -12.2147 C   0  0  0  0  0  0  0  0  0  0  0  0
   11.4251    0.3602  -10.9858 C   0  0  0  0  0  0  0  0  0  0  0  0
   10.5299   -0.6580  -11.0395 C   0  0  0  0  0  0  0  0  0  0  0  0
    9.5891   -1.1134   -9.9083 C   0  0  0  0  0  0  0  0  0  0  0  0
   10.5449   -1.2391  -12.2384 N   0  0  0  0  0  0  0  0  0  0  0  0
   11.4873   -0.5857  -12.9742 N   0  0  0  0  0  0  0  0  0  0  0  0
   11.8591   -0.9414  -14.4202 C   0  0  0  0  0  0  0  0  0  0  0  0
   14.2061    3.9441  -10.3444 O   0  0  0  0  0  0  0  0  0  0  0  0
   13.3912    3.1241   -9.8199 C   0  0  0  0  0  0  0  0  0  0  0  0
   13.0746    3.2649   -8.6097 O   0  0  0  0  0  0  0  0  0  0  0  0
   12.4742    2.6669   -8.2099 H   0  0  0  0  0  0  0  0  0  0  0  0
  7  6  1  0  0  0
 11 12  2  0  0  0
  6  5  1  0  0  0
  6  8  2  0  0  0
  2  5  1  0  0  0
  2  1  2  0  0  0
  5  4  2  0  0  0
 12  1  1  0  0  0
 12 13  1  0  0  0
  8  9  1  0  0  0
  1  3  1  0  0  0
  4  9  1  0  0  0
  4  3  1  0  0  0
  9 10  1  0  0  0
 13 14  1  0  0  0
M  END
> <minimizedAffinity>
-3.95111

$$$$
4FZJ_0W1_A_405


 14 15  0  0  0  0  0  0  0  0999 V2000
   13.6911    3.2715  -12.2878 C   0  0  0  0  0  0  0  0  0  0  0  0
   13.3535    1.9679  -12.3461 C   0  0  0  0  0  0  0  0  0  0  0  0
   14.1656    3.8360  -13.9225 S   0  0  0  0  0  0  0  0  0  0  0  0
   13.8930    2.1827  -14.5643 C   0  0  0  0  0  0  0  0  0  0  0  0
   13.4509    1.3659  -13.5531 C   0  0  0  0  0  0  0  0  0  0  0  0
   13.2473    0.1504  -14.1205 C   0  0  0  0  0  0  0  0  0  0  0  0
   12.7565   -1.1242  -13.4088 C   0  0  0  0  0  0  0  0  0  0  0  0
   13.5181    0.1852  -15.4247 N   0  0  0  0  0  0  0  0  0  0  0  0
   13.9217    1.4566  -15.7030 N   0  0  0  0  0  0  0  0  0  0  0  0
   14.3587    1.9437  -17.0913 C   0  0  0  0  0  0  0  0  0  0  0  0
   13.9803    3.5280  -10.0343 O   0  0  0  0  0  0  0  0  0  0  0  0
   13.6614    4.0267  -11.1573 C   0  0  0  0  0  0  0  0  0  0  0  0
   13.3559    5.2462  -11.2211 O   0  0  0  0  0  0  0  0  0  0  0  0
   13.1185    5.6273  -12.0435 H   0  0  0  0  0  0  0  0  0  0  0  0
  7  6  1  0  0  0
 11 12  2  0  0  0
  6  5  1  0  0  0
  6  8  2  0  0  0
  2  5  1  0  0  0
  2  1  2  0  0  0
  5  4  2  0  0  0
 12  1  1  0  0  0
 12 13  1  0  0  0
  8  9  1  0  0  0
  1  3  1  0  0  0
  4  9  1  0  0  0
  4  3  1  0  0  0
  9 10  1  0  0  0
 13 14  1  0  0  0
M  END
> <minimizedAffinity>
-3.94087

$$$$
