1SYH_CPW_A_501


 21 22  0  0  0  0  0  0  0  0999 V2000
   21.7942   14.4116   23.3428 N   0  0  0  0  0  0  0  0  0  0  0  0
   22.8417   15.1848   22.6176 C   0  0  0  0  0  0  0  0  0  0  0  0
   22.8662   15.1007   21.2832 N   0  0  0  0  0  0  0  0  0  0  0  0
   20.8216   13.7297   22.5971 C   0  0  0  0  0  0  0  0  0  0  0  0
   23.6501   15.8433   23.3056 O   0  0  0  0  0  0  0  0  0  0  0  0
   20.8323   13.7467   21.2263 C   0  0  0  0  0  0  0  0  0  0  0  0
   21.9437   14.4234   20.5251 C   0  0  0  0  0  0  0  0  0  0  0  0
   22.0321   14.3574   19.2924 O   0  0  0  0  0  0  0  0  0  0  0  0
   19.6866   12.8776   23.1470 C   0  0  0  0  0  0  0  0  0  0  0  0
   19.0413   12.2598   21.8658 C   0  0  0  0  0  0  0  0  0  0  0  0
   19.6516   13.0224   20.6394 C   0  0  0  0  0  0  0  0  0  0  0  0
   23.5989   15.5576   20.8103 H   0  0  0  0  0  0  0  0  0  0  0  0
   21.8624   14.3220   24.7979 C   0  0  0  0  0  0  0  0  0  0  0  0
   23.0422   13.4473   25.2691 C   0  0  0  0  0  0  0  0  0  0  0  0
   22.7104   12.0029   24.9787 N   0  0  0  0  0  0  0  0  0  0  0  0
   21.8374   11.7544   25.4441 H   0  0  0  0  0  0  0  0  0  0  0  0
   23.4617   11.4054   25.3236 H   0  0  0  0  0  0  0  0  0  0  0  0
   23.2668   13.7749   26.7701 C   0  0  0  0  0  0  0  0  0  0  0  0
   23.6004   14.9541   27.0720 O   0  0  0  0  0  0  0  0  0  0  0  0
   23.1149   12.8115   27.5847 O   0  0  0  0  0  0  0  0  0  0  0  0
   23.6886   15.6023   26.4012 H   0  0  0  0  0  0  0  0  0  0  0  0
 13  1  1  0  0  0
 13 14  1  0  0  0
  1  2  1  0  0  0
  1  4  1  0  0  0
  2  3  1  0  0  0
  2  5  2  0  0  0
  3  7  1  0  0  0
  4  6  2  0  0  0
  4  9  1  0  0  0
  6  7  1  0  0  0
  6 11  1  0  0  0
  7  8  2  0  0  0
  9 10  1  0  0  0
 10 11  1  0  0  0
 14 18  1  0  0  0
 14 15  1  0  0  0
 18 19  1  0  0  0
 18 20  2  0  0  0
  3 12  1  0  0  0
 19 21  1  0  0  0
 15 16  1  0  0  0
 15 17  1  0  0  0
M  END
> <minimizedAffinity>
-9.52224

$$$$
1SYH_CPW_A_501


 21 22  0  0  0  0  0  0  0  0999 V2000
   21.8975   14.8004   23.4440 N   0  0  0  0  0  0  0  0  0  0  0  0
   22.8185   15.6274   22.6140 C   0  0  0  0  0  0  0  0  0  0  0  0
   22.8357   15.4072   21.2951 N   0  0  0  0  0  0  0  0  0  0  0  0
   21.0176   13.9183   22.8000 C   0  0  0  0  0  0  0  0  0  0  0  0
   23.5381   16.4581   23.2077 O   0  0  0  0  0  0  0  0  0  0  0  0
   21.0068   13.7919   21.4349 C   0  0  0  0  0  0  0  0  0  0  0  0
   22.0045   14.5351   20.6368 C   0  0  0  0  0  0  0  0  0  0  0  0
   22.0839   14.3520   19.4154 O   0  0  0  0  0  0  0  0  0  0  0  0
   20.0184   12.9832   23.4662 C   0  0  0  0  0  0  0  0  0  0  0  0
   19.4464   12.1521   22.2739 C   0  0  0  0  0  0  0  0  0  0  0  0
   19.9288   12.8567   20.9590 C   0  0  0  0  0  0  0  0  0  0  0  0
   23.4919   15.9065   20.7573 H   0  0  0  0  0  0  0  0  0  0  0  0
   21.9978   14.8747   24.8981 C   0  0  0  0  0  0  0  0  0  0  0  0
   23.3515   14.3441   25.4127 C   0  0  0  0  0  0  0  0  0  0  0  0
   24.3044   14.2569   24.2443 N   0  0  0  0  0  0  0  0  0  0  0  0
   23.9046   13.6560   23.5236 H   0  0  0  0  0  0  0  0  0  0  0  0
   25.1927   13.8663   24.5584 H   0  0  0  0  0  0  0  0  0  0  0  0
   23.0599   12.9918   26.1176 C   0  0  0  0  0  0  0  0  0  0  0  0
   22.7523   12.0046   25.3938 O   0  0  0  0  0  0  0  0  0  0  0  0
   23.1350   12.9912   27.3861 O   0  0  0  0  0  0  0  0  0  0  0  0
   22.7221   12.0983   24.4619 H   0  0  0  0  0  0  0  0  0  0  0  0
 13  1  1  0  0  0
 13 14  1  0  0  0
  1  2  1  0  0  0
  1  4  1  0  0  0
  2  3  1  0  0  0
  2  5  2  0  0  0
  3  7  1  0  0  0
  4  6  2  0  0  0
  4  9  1  0  0  0
  6  7  1  0  0  0
  6 11  1  0  0  0
  7  8  2  0  0  0
  9 10  1  0  0  0
 10 11  1  0  0  0
 14 18  1  0  0  0
 14 15  1  0  0  0
 18 19  1  0  0  0
 18 20  2  0  0  0
  3 12  1  0  0  0
 19 21  1  0  0  0
 15 16  1  0  0  0
 15 17  1  0  0  0
M  END
> <minimizedAffinity>
-7.59674

$$$$
1SYH_CPW_A_501


 21 22  0  0  0  0  0  0  0  0999 V2000
   21.0887   13.8957   23.2325 N   0  0  0  0  0  0  0  0  0  0  0  0
   19.8920   13.0375   23.0028 C   0  0  0  0  0  0  0  0  0  0  0  0
   19.4007   12.9734   21.7608 N   0  0  0  0  0  0  0  0  0  0  0  0
   21.7076   14.4997   22.1285 C   0  0  0  0  0  0  0  0  0  0  0  0
   19.4056   12.4519   23.9932 O   0  0  0  0  0  0  0  0  0  0  0  0
   21.2212   14.3312   20.8577 C   0  0  0  0  0  0  0  0  0  0  0  0
   19.9686   13.5710   20.6631 C   0  0  0  0  0  0  0  0  0  0  0  0
   19.4538   13.4996   19.5399 O   0  0  0  0  0  0  0  0  0  0  0  0
   22.9214   15.4176   22.1563 C   0  0  0  0  0  0  0  0  0  0  0  0
   23.0505   15.8958   20.6750 C   0  0  0  0  0  0  0  0  0  0  0  0
   22.0882   14.9967   19.8242 C   0  0  0  0  0  0  0  0  0  0  0  0
   18.5717   12.4604   21.6236 H   0  0  0  0  0  0  0  0  0  0  0  0
   21.5269   14.1451   24.6022 C   0  0  0  0  0  0  0  0  0  0  0  0
   22.7765   13.3188   24.9693 C   0  0  0  0  0  0  0  0  0  0  0  0
   22.4373   11.8539   24.8292 N   0  0  0  0  0  0  0  0  0  0  0  0
   21.6401   11.6310   25.4252 H   0  0  0  0  0  0  0  0  0  0  0  0
   23.2399   11.2907   25.1103 H   0  0  0  0  0  0  0  0  0  0  0  0
   23.1946   13.7567   26.3991 C   0  0  0  0  0  0  0  0  0  0  0  0
   23.3043   14.9931   26.6279 O   0  0  0  0  0  0  0  0  0  0  0  0
   23.4162   12.8222   27.2311 O   0  0  0  0  0  0  0  0  0  0  0  0
   23.1192   15.6132   25.9502 H   0  0  0  0  0  0  0  0  0  0  0  0
 13  1  1  0  0  0
 13 14  1  0  0  0
  1  2  1  0  0  0
  1  4  1  0  0  0
  2  3  1  0  0  0
  2  5  2  0  0  0
  3  7  1  0  0  0
  4  6  2  0  0  0
  4  9  1  0  0  0
  6  7  1  0  0  0
  6 11  1  0  0  0
  7  8  2  0  0  0
  9 10  1  0  0  0
 10 11  1  0  0  0
 14 18  1  0  0  0
 14 15  1  0  0  0
 18 19  1  0  0  0
 18 20  2  0  0  0
  3 12  1  0  0  0
 19 21  1  0  0  0
 15 16  1  0  0  0
 15 17  1  0  0  0
M  END
> <minimizedAffinity>
-6.61019

$$$$
