5OS7_A8Q_B_402
  RCSB PDB02231823433D
Coordinates from PDB:5OS7:B:402 Model:1 without hydrogens
 18 19  0  0  0  0            999 V2000
   -6.4570  168.1480  398.0600   C 0  0  0  0  0  0  0  0  0  0  0  0
   -4.9170  166.0710  400.8600   C 0  0  0  0  0  0  0  0  0  0  0  0
   -5.0250  166.8770  399.7190   C 0  0  0  0  0  0  0  0  0  0  0  0
   -3.8110  167.0560  398.8630   C 0  0  0  0  0  0  0  0  0  0  0  0
   -3.4970  166.0500  397.9470   C 0  0  0  0  0  0  0  0  0  0  0  0
   -2.3330  166.1150  397.2020   C 0  0  0  0  0  0  0  0  0  0  0  0
   -1.4500  167.1790  397.3300   C 0  0  0  0  0  0  0  0  0  0  0  0
   -0.1740  167.2740  396.5150   C 0  0  0  0  0  0  0  0  0  0  0  0
   -7.4190  167.4780  397.0800   C 0  0  0  0  0  0  0  0  0  0  0  0
   -6.2970  167.3460  399.3400   C 0  0  0  0  0  0  0  0  0  0  0  0
   -7.4180  167.0040  400.0970   C 0  0  0  0  0  0  0  0  0  0  0  0
   -7.2910  166.1900  401.2080   C 0  0  0  0  0  0  0  0  0  0  0  0
   -6.0430  165.7240  401.5890   C 0  0  0  0  0  0  0  0  0  0  0  0
   -3.3110  169.5370  399.9290  Cl 0  0  0  0  0  0  0  0  0  0  0  0
   -2.9240  168.1450  398.9650   C 0  0  0  0  0  0  0  0  0  0  0  0
   -1.7570  168.1940  398.2300   C 0  0  0  0  0  0  0  0  0  0  0  0
    0.6080  166.0460  396.4670   N 0  3  0  0  0  0  0  0  0  0  0  0
   -6.8400  169.6060  398.3200   C 0  0  0  0  0  0  0  0  0  0  0  0
 13 12  2  0  0  0  0
 13  2  1  0  0  0  0
 12 11  1  0  0  0  0
  2  3  2  0  0  0  0
 14 15  1  0  0  0  0
 11 10  2  0  0  0  0
  3 10  1  0  0  0  0
  3  4  1  0  0  0  0
 10  1  1  0  0  0  0
 15  4  2  0  0  0  0
 15 16  1  0  0  0  0
  4  5  1  0  0  0  0
 18  1  1  0  0  0  0
 16  7  2  0  0  0  0
  1  9  1  0  0  0  0
  5  6  2  0  0  0  0
  7  6  1  0  0  0  0
  7  8  1  0  0  0  0
  8 17  1  0  0  0  0
M  CHG  1  17   1
A    1
C1
A    2
C7
A    3
C8
A    4
C9
A    5
C10
A    6
C11
A    7
C12
A    8
C13
A    9
C2
A   10
C3
A   11
C4
A   12
C5
A   13
C6
A   14
CL
A   15
C15
A   16
C14
A   17
N
A   18
C
M  END
>  <InstanceId>
5OS7_A8Q_B_402

>  <ChemCompId>
A8Q

>  <PdbId>
5OS7

>  <ChainId>
B

>  <ResidueNumber>
402

>  <InsertionCode>


>  <Model>
1

>  <AltIds>


>  <MissingHeavyAtoms>
0

>  <ObservedFormula>
C16 N Cl

>  <Name>
[3-chloranyl-4-(2-propan-2-ylphenyl)phenyl]methylazanium

>  <SystematicName>
[3-chloranyl-4-(2-propan-2-ylphenyl)phenyl]methylazanium

>  <Synonyms>


>  <Type>
NON-POLYMER

>  <Formula>
C16 H19 Cl N

>  <MolecularWeight>
260.782

>  <ModifiedDate>
2018-02-23

>  <Parent>


>  <OneLetterCode>


>  <SubcomponentList>


>  <AmbiguousFlag>
N

>  <InChI>
InChI=1S/C16H18ClN/c1-11(2)13-5-3-4-6-14(13)15-8-7-12(10-18)9-16(15)17/h3-9,11H,10,18H2,1-2H3/p+1

>  <InChIKey>
XAFZSQVXSGXDQY-UHFFFAOYSA-O

>  <SMILES>
CC(C)c1ccccc1c2ccc(cc2Cl)C[NH3+]

$$$$
