1NJE_DCM_A_317


 25 26  0  0  0  0  0  0  0  0999 V2000
   15.6980   48.6093  -54.3751 C   0  0  0  0  0  0  0  0  0  0  0  0
   15.1127   48.0958  -55.6951 C   0  0  0  0  0  0  0  0  0  0  0  0
   16.2696   48.3116  -56.6568 C   0  0  0  0  0  0  0  0  0  0  0  0
   16.7867   49.7391  -56.3740 C   0  0  0  0  0  0  0  0  0  0  0  0
   16.4684   49.8036  -54.8936 O   0  0  0  0  0  0  0  0  0  0  0  0
   17.2644   47.2838  -56.2974 O   0  0  0  0  0  0  0  0  0  0  0  0
   17.4836   47.3613  -55.3557 H   0  0  0  0  0  0  0  0  0  0  0  0
   14.8165   48.7876  -53.1872 N   0  0  0  0  0  0  0  0  0  0  0  0
   13.9533   47.8112  -52.6037 C   0  0  0  0  0  0  0  0  0  0  0  0
   13.3345   48.1812  -51.4082 N   0  0  0  0  0  0  0  0  0  0  0  0
   13.5411   49.3929  -50.8205 C   0  0  0  0  0  0  0  0  0  0  0  0
   14.4239   50.3628  -51.4371 C   0  0  0  0  0  0  0  0  0  0  0  0
   15.0227   49.9860  -52.6352 C   0  0  0  0  0  0  0  0  0  0  0  0
   13.6876   46.6801  -53.0178 O   0  0  0  0  0  0  0  0  0  0  0  0
   12.8800   49.6801  -49.6968 N   0  0  0  0  0  0  0  0  0  0  0  0
   12.2842   49.0095  -49.2911 H   0  0  0  0  0  0  0  0  0  0  0  0
   12.9883   50.5625  -49.2738 H   0  0  0  0  0  0  0  0  0  0  0  0
   15.8941   50.8085  -57.0163 C   0  0  0  0  0  0  0  0  0  0  0  0
   16.4936   51.6008  -58.0794 O   0  0  0  0  0  0  0  0  0  0  0  0
   15.7339   51.8978  -59.4377 P   0  0  0  0  0  0  0  0  0  0  0  0
   14.9954   53.1428  -59.3120 O   0  0  0  0  0  0  0  0  0  0  0  0
   16.7592   52.1291  -60.4559 O   0  0  0  0  0  0  0  0  0  0  0  0
   14.8839   50.7584  -59.7292 O   0  0  0  0  0  0  0  0  0  0  0  0
   17.2935   52.8997  -60.2076 H   0  0  0  0  0  0  0  0  0  0  0  0
   14.2273   50.6557  -59.0227 H   0  0  0  0  0  0  0  0  0  0  0  0
  8  9  1  0  0  0
  8 13  1  0  0  0
  8  1  1  0  0  0
  9 10  1  0  0  0
  9 14  2  0  0  0
 10 11  2  0  0  0
 11 12  1  0  0  0
 11 15  1  0  0  0
 12 13  2  0  0  0
  1  2  1  0  0  0
  1  5  1  0  0  0
  2  3  1  0  0  0
  3  4  1  0  0  0
  3  6  1  0  0  0
  4  5  1  0  0  0
  4 18  1  0  0  0
 18 19  1  0  0  0
 19 20  1  0  0  0
 20 21  2  0  0  0
 20 22  1  0  0  0
 20 23  1  0  0  0
 15 16  1  0  0  0
 15 17  1  0  0  0
  6  7  1  0  0  0
 22 24  1  0  0  0
 23 25  1  0  0  0
M  END
> <minimizedAffinity>
-8.41366

$$$$
1NJE_DCM_A_317


 25 26  0  0  0  0  0  0  0  0999 V2000
   18.4988   49.5459  -55.2658 C   0  0  0  0  0  0  0  0  0  0  0  0
   17.1314   49.1079  -54.7297 C   0  0  0  0  0  0  0  0  0  0  0  0
   16.5759   48.3116  -55.8989 C   0  0  0  0  0  0  0  0  0  0  0  0
   16.8385   49.1735  -57.1532 C   0  0  0  0  0  0  0  0  0  0  0  0
   18.1183   49.8465  -56.6989 O   0  0  0  0  0  0  0  0  0  0  0  0
   17.3567   47.0604  -55.9168 O   0  0  0  0  0  0  0  0  0  0  0  0
   18.3024   47.2701  -55.9656 H   0  0  0  0  0  0  0  0  0  0  0  0
   19.3087   50.5466  -54.5158 N   0  0  0  0  0  0  0  0  0  0  0  0
   19.2002   51.9686  -54.5894 C   0  0  0  0  0  0  0  0  0  0  0  0
   19.9791   52.6872  -53.6806 N   0  0  0  0  0  0  0  0  0  0  0  0
   20.7894   52.0798  -52.7691 C   0  0  0  0  0  0  0  0  0  0  0  0
   20.8775   50.6342  -52.7189 C   0  0  0  0  0  0  0  0  0  0  0  0
   20.1067   49.9313  -53.6396 C   0  0  0  0  0  0  0  0  0  0  0  0
   18.5025   52.6440  -55.3499 O   0  0  0  0  0  0  0  0  0  0  0  0
   21.5292   52.8433  -51.9615 N   0  0  0  0  0  0  0  0  0  0  0  0
   21.4570   53.8240  -52.0088 H   0  0  0  0  0  0  0  0  0  0  0  0
   22.1469   52.4255  -51.3187 H   0  0  0  0  0  0  0  0  0  0  0  0
   15.8202   50.3128  -57.2877 C   0  0  0  0  0  0  0  0  0  0  0  0
   16.2739   51.5100  -57.9791 O   0  0  0  0  0  0  0  0  0  0  0  0
   15.7193   51.9183  -59.4060 P   0  0  0  0  0  0  0  0  0  0  0  0
   16.8258   52.0070  -60.3435 O   0  0  0  0  0  0  0  0  0  0  0  0
   14.8779   50.8131  -59.8668 O   0  0  0  0  0  0  0  0  0  0  0  0
   14.9950   53.1672  -59.2601 O   0  0  0  0  0  0  0  0  0  0  0  0
   15.4147   50.0090  -59.9450 H   0  0  0  0  0  0  0  0  0  0  0  0
   15.6019   53.8590  -58.9537 H   0  0  0  0  0  0  0  0  0  0  0  0
  8  9  1  0  0  0
  8 13  1  0  0  0
  8  1  1  0  0  0
  9 10  1  0  0  0
  9 14  2  0  0  0
 10 11  2  0  0  0
 11 12  1  0  0  0
 11 15  1  0  0  0
 12 13  2  0  0  0
  1  2  1  0  0  0
  1  5  1  0  0  0
  2  3  1  0  0  0
  3  4  1  0  0  0
  3  6  1  0  0  0
  4  5  1  0  0  0
  4 18  1  0  0  0
 18 19  1  0  0  0
 19 20  1  0  0  0
 20 21  2  0  0  0
 20 22  1  0  0  0
 20 23  1  0  0  0
 15 16  1  0  0  0
 15 17  1  0  0  0
  6  7  1  0  0  0
 22 24  1  0  0  0
 23 25  1  0  0  0
M  END
> <minimizedAffinity>
-7.91078

$$$$
1NJE_DCM_A_317


 25 26  0  0  0  0  0  0  0  0999 V2000
   13.7320   51.1735  -50.0339 C   0  0  0  0  0  0  0  0  0  0  0  0
   15.2461   50.9809  -49.8947 C   0  0  0  0  0  0  0  0  0  0  0  0
   15.7314   51.2767  -51.3042 C   0  0  0  0  0  0  0  0  0  0  0  0
   14.7876   50.4942  -52.2434 C   0  0  0  0  0  0  0  0  0  0  0  0
   13.5289   50.5595  -51.4016 O   0  0  0  0  0  0  0  0  0  0  0  0
   15.5821   52.7353  -51.4635 O   0  0  0  0  0  0  0  0  0  0  0  0
   14.6650   52.9890  -51.2753 H   0  0  0  0  0  0  0  0  0  0  0  0
   12.8230   50.7674  -48.9254 N   0  0  0  0  0  0  0  0  0  0  0  0
   11.5613   51.3475  -48.5929 C   0  0  0  0  0  0  0  0  0  0  0  0
   10.8349   50.6958  -47.5945 N   0  0  0  0  0  0  0  0  0  0  0  0
   11.2878   49.5699  -46.9752 C   0  0  0  0  0  0  0  0  0  0  0  0
   12.5727   49.0047  -47.3354 C   0  0  0  0  0  0  0  0  0  0  0  0
   13.2919   49.6725  -48.3217 C   0  0  0  0  0  0  0  0  0  0  0  0
   11.0280   52.3483  -49.0781 O   0  0  0  0  0  0  0  0  0  0  0  0
   10.5464   49.0314  -46.0043 N   0  0  0  0  0  0  0  0  0  0  0  0
    9.6757   49.4281  -45.7723 H   0  0  0  0  0  0  0  0  0  0  0  0
   10.8704   48.2377  -45.5203 H   0  0  0  0  0  0  0  0  0  0  0  0
   15.1458   49.0038  -52.3021 C   0  0  0  0  0  0  0  0  0  0  0  0
   14.0556   48.0655  -52.0820 O   0  0  0  0  0  0  0  0  0  0  0  0
   13.0626   47.6428  -53.2420 P   0  0  0  0  0  0  0  0  0  0  0  0
   13.6443   47.9989  -54.5250 O   0  0  0  0  0  0  0  0  0  0  0  0
   12.9805   46.1818  -53.2193 O   0  0  0  0  0  0  0  0  0  0  0  0
   11.7887   48.2919  -52.9944 O   0  0  0  0  0  0  0  0  0  0  0  0
   13.8583   45.8060  -53.3903 H   0  0  0  0  0  0  0  0  0  0  0  0
   11.9056   49.2545  -53.0217 H   0  0  0  0  0  0  0  0  0  0  0  0
  8  9  1  0  0  0
  8 13  1  0  0  0
  8  1  1  0  0  0
  9 10  1  0  0  0
  9 14  2  0  0  0
 10 11  2  0  0  0
 11 12  1  0  0  0
 11 15  1  0  0  0
 12 13  2  0  0  0
  1  2  1  0  0  0
  1  5  1  0  0  0
  2  3  1  0  0  0
  3  4  1  0  0  0
  3  6  1  0  0  0
  4  5  1  0  0  0
  4 18  1  0  0  0
 18 19  1  0  0  0
 19 20  1  0  0  0
 20 21  2  0  0  0
 20 22  1  0  0  0
 20 23  1  0  0  0
 15 16  1  0  0  0
 15 17  1  0  0  0
  6  7  1  0  0  0
 22 24  1  0  0  0
 23 25  1  0  0  0
M  END
> <minimizedAffinity>
-7.70371

$$$$
1NJE_DCM_A_317


 25 26  0  0  0  0  0  0  0  0999 V2000
   14.9801   47.9905  -51.4207 C   0  0  0  0  0  0  0  0  0  0  0  0
   15.7782   49.0132  -50.6048 C   0  0  0  0  0  0  0  0  0  0  0  0
   15.3052   48.7242  -49.1896 C   0  0  0  0  0  0  0  0  0  0  0  0
   13.7670   48.6170  -49.2775 C   0  0  0  0  0  0  0  0  0  0  0  0
   13.6610   48.0601  -50.6831 O   0  0  0  0  0  0  0  0  0  0  0  0
   15.9278   47.4359  -48.8323 O   0  0  0  0  0  0  0  0  0  0  0  0
   15.6935   46.7684  -49.4960 H   0  0  0  0  0  0  0  0  0  0  0  0
   14.9723   48.0655  -52.9088 N   0  0  0  0  0  0  0  0  0  0  0  0
   13.9932   47.5168  -53.7915 C   0  0  0  0  0  0  0  0  0  0  0  0
   14.1376   47.8436  -55.1410 N   0  0  0  0  0  0  0  0  0  0  0  0
   15.1416   48.6435  -55.5979 C   0  0  0  0  0  0  0  0  0  0  0  0
   16.1200   49.1859  -54.6768 C   0  0  0  0  0  0  0  0  0  0  0  0
   15.9720   48.8404  -53.3370 C   0  0  0  0  0  0  0  0  0  0  0  0
   13.0326   46.7945  -53.5141 O   0  0  0  0  0  0  0  0  0  0  0  0
   15.2283   48.8753  -56.9098 N   0  0  0  0  0  0  0  0  0  0  0  0
   14.5550   48.4992  -57.5217 H   0  0  0  0  0  0  0  0  0  0  0  0
   15.9655   49.4225  -57.2653 H   0  0  0  0  0  0  0  0  0  0  0  0
   13.1006   49.9967  -49.3486 C   0  0  0  0  0  0  0  0  0  0  0  0
   11.6808   50.0483  -49.0344 O   0  0  0  0  0  0  0  0  0  0  0  0
   11.1422   49.9106  -47.5507 P   0  0  0  0  0  0  0  0  0  0  0  0
    9.9031   50.6578  -47.4188 O   0  0  0  0  0  0  0  0  0  0  0  0
   10.7959   48.5024  -47.3537 O   0  0  0  0  0  0  0  0  0  0  0  0
   12.1852   50.3746  -46.6550 O   0  0  0  0  0  0  0  0  0  0  0  0
   10.0969   48.2510  -47.9775 H   0  0  0  0  0  0  0  0  0  0  0  0
   12.3708   51.3101  -46.8319 H   0  0  0  0  0  0  0  0  0  0  0  0
  8  9  1  0  0  0
  8 13  1  0  0  0
  8  1  1  0  0  0
  9 10  1  0  0  0
  9 14  2  0  0  0
 10 11  2  0  0  0
 11 12  1  0  0  0
 11 15  1  0  0  0
 12 13  2  0  0  0
  1  2  1  0  0  0
  1  5  1  0  0  0
  2  3  1  0  0  0
  3  4  1  0  0  0
  3  6  1  0  0  0
  4  5  1  0  0  0
  4 18  1  0  0  0
 18 19  1  0  0  0
 19 20  1  0  0  0
 20 21  2  0  0  0
 20 22  1  0  0  0
 20 23  1  0  0  0
 15 16  1  0  0  0
 15 17  1  0  0  0
  6  7  1  0  0  0
 22 24  1  0  0  0
 23 25  1  0  0  0
M  END
> <minimizedAffinity>
-7.60568

$$$$
1NJE_DCM_A_317


 25 26  0  0  0  0  0  0  0  0999 V2000
   13.8201   48.2426  -51.4162 C   0  0  0  0  0  0  0  0  0  0  0  0
   12.8607   48.5856  -52.5611 C   0  0  0  0  0  0  0  0  0  0  0  0
   13.3974   47.7217  -53.6903 C   0  0  0  0  0  0  0  0  0  0  0  0
   14.9281   47.9264  -53.6811 C   0  0  0  0  0  0  0  0  0  0  0  0
   15.1145   48.1574  -52.1948 O   0  0  0  0  0  0  0  0  0  0  0  0
   13.0238   46.3415  -53.3287 O   0  0  0  0  0  0  0  0  0  0  0  0
   13.3665   46.1348  -52.4451 H   0  0  0  0  0  0  0  0  0  0  0  0
   13.7940   49.0384  -50.1569 N   0  0  0  0  0  0  0  0  0  0  0  0
   13.7157   50.4595  -50.0401 C   0  0  0  0  0  0  0  0  0  0  0  0
   13.5644   50.9572  -48.7446 N   0  0  0  0  0  0  0  0  0  0  0  0
   13.4860   50.1463  -47.6525 C   0  0  0  0  0  0  0  0  0  0  0  0
   13.5680   48.7074  -47.8037 C   0  0  0  0  0  0  0  0  0  0  0  0
   13.7328   48.2261  -49.0988 C   0  0  0  0  0  0  0  0  0  0  0  0
   13.7596   51.3042  -50.9379 O   0  0  0  0  0  0  0  0  0  0  0  0
   13.3793   50.7069  -46.4456 N   0  0  0  0  0  0  0  0  0  0  0  0
   13.3247   51.6863  -46.3608 H   0  0  0  0  0  0  0  0  0  0  0  0
   13.3554   50.1410  -45.6403 H   0  0  0  0  0  0  0  0  0  0  0  0
   15.3320   49.2515  -54.3398 C   0  0  0  0  0  0  0  0  0  0  0  0
   16.5746   49.2473  -55.0969 O   0  0  0  0  0  0  0  0  0  0  0  0
   16.6423   48.7490  -56.5994 P   0  0  0  0  0  0  0  0  0  0  0  0
   15.3033   48.4168  -57.0554 O   0  0  0  0  0  0  0  0  0  0  0  0
   17.0798   49.8892  -57.4057 O   0  0  0  0  0  0  0  0  0  0  0  0
   17.5577   47.6245  -56.6533 O   0  0  0  0  0  0  0  0  0  0  0  0
   16.4311   50.6064  -57.3304 H   0  0  0  0  0  0  0  0  0  0  0  0
   17.2162   46.9028  -56.1024 H   0  0  0  0  0  0  0  0  0  0  0  0
  8  9  1  0  0  0
  8 13  1  0  0  0
  8  1  1  0  0  0
  9 10  1  0  0  0
  9 14  2  0  0  0
 10 11  2  0  0  0
 11 12  1  0  0  0
 11 15  1  0  0  0
 12 13  2  0  0  0
  1  2  1  0  0  0
  1  5  1  0  0  0
  2  3  1  0  0  0
  3  4  1  0  0  0
  3  6  1  0  0  0
  4  5  1  0  0  0
  4 18  1  0  0  0
 18 19  1  0  0  0
 19 20  1  0  0  0
 20 21  2  0  0  0
 20 22  1  0  0  0
 20 23  1  0  0  0
 15 16  1  0  0  0
 15 17  1  0  0  0
  6  7  1  0  0  0
 22 24  1  0  0  0
 23 25  1  0  0  0
M  END
> <minimizedAffinity>
-7.47358

$$$$
1NJE_DCM_A_317


 25 26  0  0  0  0  0  0  0  0999 V2000
   15.5994   48.5006  -54.9117 C   0  0  0  0  0  0  0  0  0  0  0  0
   15.8956   49.8527  -55.5696 C   0  0  0  0  0  0  0  0  0  0  0  0
   16.7332   49.4417  -56.7693 C   0  0  0  0  0  0  0  0  0  0  0  0
   17.7723   48.4356  -56.2278 C   0  0  0  0  0  0  0  0  0  0  0  0
   16.9373   47.8255  -55.1197 O   0  0  0  0  0  0  0  0  0  0  0  0
   15.7833   48.8052  -57.7009 O   0  0  0  0  0  0  0  0  0  0  0  0
   15.3202   48.0836  -57.2474 H   0  0  0  0  0  0  0  0  0  0  0  0
   14.9748   48.4492  -53.5600 N   0  0  0  0  0  0  0  0  0  0  0  0
   13.7824   47.7558  -53.1904 C   0  0  0  0  0  0  0  0  0  0  0  0
   13.4801   47.7467  -51.8276 N   0  0  0  0  0  0  0  0  0  0  0  0
   14.2713   48.3510  -50.8974 C   0  0  0  0  0  0  0  0  0  0  0  0
   15.4758   49.0466  -51.3039 C   0  0  0  0  0  0  0  0  0  0  0  0
   15.7572   49.0596  -52.6666 C   0  0  0  0  0  0  0  0  0  0  0  0
   12.9872   47.1591  -53.9206 O   0  0  0  0  0  0  0  0  0  0  0  0
   13.8885   48.3266  -49.6187 N   0  0  0  0  0  0  0  0  0  0  0  0
   13.0674   47.8492  -49.3597 H   0  0  0  0  0  0  0  0  0  0  0  0
   14.4274   48.7859  -48.9346 H   0  0  0  0  0  0  0  0  0  0  0  0
   18.9291   49.1398  -55.5077 C   0  0  0  0  0  0  0  0  0  0  0  0
   19.8092   48.2955  -54.7141 O   0  0  0  0  0  0  0  0  0  0  0  0
   20.0807   48.5729  -53.1779 P   0  0  0  0  0  0  0  0  0  0  0  0
   19.6015   49.9020  -52.8385 O   0  0  0  0  0  0  0  0  0  0  0  0
   19.2515   47.6321  -52.4236 O   0  0  0  0  0  0  0  0  0  0  0  0
   21.5018   48.4019  -52.9402 O   0  0  0  0  0  0  0  0  0  0  0  0
   18.3160   47.7942  -52.6225 H   0  0  0  0  0  0  0  0  0  0  0  0
   21.9977   49.0499  -53.4647 H   0  0  0  0  0  0  0  0  0  0  0  0
  8  9  1  0  0  0
  8 13  1  0  0  0
  8  1  1  0  0  0
  9 10  1  0  0  0
  9 14  2  0  0  0
 10 11  2  0  0  0
 11 12  1  0  0  0
 11 15  1  0  0  0
 12 13  2  0  0  0
  1  2  1  0  0  0
  1  5  1  0  0  0
  2  3  1  0  0  0
  3  4  1  0  0  0
  3  6  1  0  0  0
  4  5  1  0  0  0
  4 18  1  0  0  0
 18 19  1  0  0  0
 19 20  1  0  0  0
 20 21  2  0  0  0
 20 22  1  0  0  0
 20 23  1  0  0  0
 15 16  1  0  0  0
 15 17  1  0  0  0
  6  7  1  0  0  0
 22 24  1  0  0  0
 23 25  1  0  0  0
M  END
> <minimizedAffinity>
-7.08334

$$$$
1NJE_DCM_A_317


 25 26  0  0  0  0  0  0  0  0999 V2000
   20.0129   50.5200  -52.0386 C   0  0  0  0  0  0  0  0  0  0  0  0
   19.7289   49.0762  -51.6101 C   0  0  0  0  0  0  0  0  0  0  0  0
   20.0809   48.3001  -52.8685 C   0  0  0  0  0  0  0  0  0  0  0  0
   19.4092   49.0631  -54.0311 C   0  0  0  0  0  0  0  0  0  0  0  0
   19.4937   50.4638  -53.4585 O   0  0  0  0  0  0  0  0  0  0  0  0
   21.5525   48.3521  -52.9527 O   0  0  0  0  0  0  0  0  0  0  0  0
   21.8448   49.2769  -52.9364 H   0  0  0  0  0  0  0  0  0  0  0  0
   19.5923   51.6533  -51.1675 N   0  0  0  0  0  0  0  0  0  0  0  0
   19.7239   53.0473  -51.4481 C   0  0  0  0  0  0  0  0  0  0  0  0
   19.1244   53.9128  -50.5315 N   0  0  0  0  0  0  0  0  0  0  0  0
   18.4451   53.4663  -49.4380 C   0  0  0  0  0  0  0  0  0  0  0  0
   18.3283   52.0450  -49.1808 C   0  0  0  0  0  0  0  0  0  0  0  0
   18.9427   51.1945  -50.0948 C   0  0  0  0  0  0  0  0  0  0  0  0
   20.2956   53.5852  -52.3996 O   0  0  0  0  0  0  0  0  0  0  0  0
   17.9340   54.3635  -48.5918 N   0  0  0  0  0  0  0  0  0  0  0  0
   18.0222   55.3255  -48.7819 H   0  0  0  0  0  0  0  0  0  0  0  0
   17.4688   54.0632  -47.7778 H   0  0  0  0  0  0  0  0  0  0  0  0
   17.9074   48.7633  -54.1199 C   0  0  0  0  0  0  0  0  0  0  0  0
   17.2134   49.2687  -55.2948 O   0  0  0  0  0  0  0  0  0  0  0  0
   17.2116   48.4857  -56.6722 P   0  0  0  0  0  0  0  0  0  0  0  0
   15.9180   48.6470  -57.3139 O   0  0  0  0  0  0  0  0  0  0  0  0
   18.1860   49.1493  -57.5392 O   0  0  0  0  0  0  0  0  0  0  0  0
   17.5413   47.1000  -56.3955 O   0  0  0  0  0  0  0  0  0  0  0  0
   17.9135   50.0684  -57.6877 H   0  0  0  0  0  0  0  0  0  0  0  0
   16.8628   46.7150  -55.8191 H   0  0  0  0  0  0  0  0  0  0  0  0
  8  9  1  0  0  0
  8 13  1  0  0  0
  8  1  1  0  0  0
  9 10  1  0  0  0
  9 14  2  0  0  0
 10 11  2  0  0  0
 11 12  1  0  0  0
 11 15  1  0  0  0
 12 13  2  0  0  0
  1  2  1  0  0  0
  1  5  1  0  0  0
  2  3  1  0  0  0
  3  4  1  0  0  0
  3  6  1  0  0  0
  4  5  1  0  0  0
  4 18  1  0  0  0
 18 19  1  0  0  0
 19 20  1  0  0  0
 20 21  2  0  0  0
 20 22  1  0  0  0
 20 23  1  0  0  0
 15 16  1  0  0  0
 15 17  1  0  0  0
  6  7  1  0  0  0
 22 24  1  0  0  0
 23 25  1  0  0  0
M  END
> <minimizedAffinity>
-6.93847

$$$$
1NJE_DCM_A_317


 25 26  0  0  0  0  0  0  0  0999 V2000
   14.9339   48.5826  -53.6606 C   0  0  0  0  0  0  0  0  0  0  0  0
   14.5691   47.5606  -52.5785 C   0  0  0  0  0  0  0  0  0  0  0  0
   13.2996   48.1595  -51.9958 C   0  0  0  0  0  0  0  0  0  0  0  0
   13.6061   49.6577  -51.7795 C   0  0  0  0  0  0  0  0  0  0  0  0
   14.5729   49.8571  -52.9296 O   0  0  0  0  0  0  0  0  0  0  0  0
   12.2677   47.9517  -53.0289 O   0  0  0  0  0  0  0  0  0  0  0  0
   12.5663   48.3389  -53.8666 H   0  0  0  0  0  0  0  0  0  0  0  0
   16.2529   48.5020  -54.3490 N   0  0  0  0  0  0  0  0  0  0  0  0
   16.5271   47.8949  -55.6120 C   0  0  0  0  0  0  0  0  0  0  0  0
   17.8201   48.0744  -56.1067 N   0  0  0  0  0  0  0  0  0  0  0  0
   18.7675   48.7905  -55.4388 C   0  0  0  0  0  0  0  0  0  0  0  0
   18.4583   49.3954  -54.1588 C   0  0  0  0  0  0  0  0  0  0  0  0
   17.1703   49.1965  -53.6713 C   0  0  0  0  0  0  0  0  0  0  0  0
   15.7663   47.2357  -56.3249 O   0  0  0  0  0  0  0  0  0  0  0  0
   19.9907   48.8812  -55.9658 N   0  0  0  0  0  0  0  0  0  0  0  0
   20.1837   48.4644  -56.8366 H   0  0  0  0  0  0  0  0  0  0  0  0
   20.6998   49.3651  -55.4837 H   0  0  0  0  0  0  0  0  0  0  0  0
   14.4427   49.8937  -50.5156 C   0  0  0  0  0  0  0  0  0  0  0  0
   13.8248   50.6931  -49.4686 O   0  0  0  0  0  0  0  0  0  0  0  0
   12.8191   50.0679  -48.4160 P   0  0  0  0  0  0  0  0  0  0  0  0
   11.4606   50.1966  -48.9153 O   0  0  0  0  0  0  0  0  0  0  0  0
   13.1017   48.6332  -48.3589 O   0  0  0  0  0  0  0  0  0  0  0  0
   13.0263   50.7433  -47.1486 O   0  0  0  0  0  0  0  0  0  0  0  0
   12.9461   48.2380  -49.2310 H   0  0  0  0  0  0  0  0  0  0  0  0
   12.8241   51.6868  -47.2481 H   0  0  0  0  0  0  0  0  0  0  0  0
  8  9  1  0  0  0
  8 13  1  0  0  0
  8  1  1  0  0  0
  9 10  1  0  0  0
  9 14  2  0  0  0
 10 11  2  0  0  0
 11 12  1  0  0  0
 11 15  1  0  0  0
 12 13  2  0  0  0
  1  2  1  0  0  0
  1  5  1  0  0  0
  2  3  1  0  0  0
  3  4  1  0  0  0
  3  6  1  0  0  0
  4  5  1  0  0  0
  4 18  1  0  0  0
 18 19  1  0  0  0
 19 20  1  0  0  0
 20 21  2  0  0  0
 20 22  1  0  0  0
 20 23  1  0  0  0
 15 16  1  0  0  0
 15 17  1  0  0  0
  6  7  1  0  0  0
 22 24  1  0  0  0
 23 25  1  0  0  0
M  END
> <minimizedAffinity>
-6.90747

$$$$
1NJE_DCM_A_317


 25 26  0  0  0  0  0  0  0  0999 V2000
   14.7894   49.4458  -50.6678 C   0  0  0  0  0  0  0  0  0  0  0  0
   14.5357   48.2079  -51.5349 C   0  0  0  0  0  0  0  0  0  0  0  0
   15.9020   47.9760  -52.1589 C   0  0  0  0  0  0  0  0  0  0  0  0
   16.3770   49.3610  -52.6502 C   0  0  0  0  0  0  0  0  0  0  0  0
   15.7019   50.2162  -51.5966 O   0  0  0  0  0  0  0  0  0  0  0  0
   16.7430   47.4624  -51.0616 O   0  0  0  0  0  0  0  0  0  0  0  0
   16.7229   48.0866  -50.3194 H   0  0  0  0  0  0  0  0  0  0  0  0
   13.6457   50.1600  -50.0339 N   0  0  0  0  0  0  0  0  0  0  0  0
   12.8264   49.6898  -48.9631 C   0  0  0  0  0  0  0  0  0  0  0  0
   11.9057   50.6065  -48.4522 N   0  0  0  0  0  0  0  0  0  0  0  0
   11.7932   51.8769  -48.9316 C   0  0  0  0  0  0  0  0  0  0  0  0
   12.6398   52.3248  -50.0192 C   0  0  0  0  0  0  0  0  0  0  0  0
   13.5428   51.3964  -50.5279 C   0  0  0  0  0  0  0  0  0  0  0  0
   12.8309   48.5786  -48.4278 O   0  0  0  0  0  0  0  0  0  0  0  0
   10.8602   52.6771  -48.4107 N   0  0  0  0  0  0  0  0  0  0  0  0
   10.2936   52.3569  -47.6721 H   0  0  0  0  0  0  0  0  0  0  0  0
   10.7389   53.5875  -48.7652 H   0  0  0  0  0  0  0  0  0  0  0  0
   15.7067   49.7601  -53.9709 C   0  0  0  0  0  0  0  0  0  0  0  0
   16.4432   49.4588  -55.1891 O   0  0  0  0  0  0  0  0  0  0  0  0
   16.1069   48.1958  -56.0847 P   0  0  0  0  0  0  0  0  0  0  0  0
   14.8702   47.5924  -55.6179 O   0  0  0  0  0  0  0  0  0  0  0  0
   15.8379   48.6921  -57.4348 O   0  0  0  0  0  0  0  0  0  0  0  0
   17.2406   47.2924  -56.0218 O   0  0  0  0  0  0  0  0  0  0  0  0
   15.0729   49.2882  -57.4138 H   0  0  0  0  0  0  0  0  0  0  0  0
   17.3692   46.9981  -55.1065 H   0  0  0  0  0  0  0  0  0  0  0  0
  8  9  1  0  0  0
  8 13  1  0  0  0
  8  1  1  0  0  0
  9 10  1  0  0  0
  9 14  2  0  0  0
 10 11  2  0  0  0
 11 12  1  0  0  0
 11 15  1  0  0  0
 12 13  2  0  0  0
  1  2  1  0  0  0
  1  5  1  0  0  0
  2  3  1  0  0  0
  3  4  1  0  0  0
  3  6  1  0  0  0
  4  5  1  0  0  0
  4 18  1  0  0  0
 18 19  1  0  0  0
 19 20  1  0  0  0
 20 21  2  0  0  0
 20 22  1  0  0  0
 20 23  1  0  0  0
 15 16  1  0  0  0
 15 17  1  0  0  0
  6  7  1  0  0  0
 22 24  1  0  0  0
 23 25  1  0  0  0
M  END
> <minimizedAffinity>
-6.79142

$$$$
1NJE_DCM_A_317


 25 26  0  0  0  0  0  0  0  0999 V2000
   17.7600   48.2715  -51.3982 C   0  0  0  0  0  0  0  0  0  0  0  0
   17.4180   49.5348  -50.6009 C   0  0  0  0  0  0  0  0  0  0  0  0
   16.5867   48.9710  -49.4603 C   0  0  0  0  0  0  0  0  0  0  0  0
   15.5827   47.9983  -50.1167 C   0  0  0  0  0  0  0  0  0  0  0  0
   16.4426   47.5375  -51.2766 O   0  0  0  0  0  0  0  0  0  0  0  0
   17.5506   48.2667  -48.5943 O   0  0  0  0  0  0  0  0  0  0  0  0
   18.0387   47.6128  -49.1188 H   0  0  0  0  0  0  0  0  0  0  0  0
   18.3936   48.3858  -52.7419 N   0  0  0  0  0  0  0  0  0  0  0  0
   17.7408   48.6796  -53.9774 C   0  0  0  0  0  0  0  0  0  0  0  0
   18.5774   48.8703  -55.0786 N   0  0  0  0  0  0  0  0  0  0  0  0
   19.9348   48.7925  -54.9899 C   0  0  0  0  0  0  0  0  0  0  0  0
   20.5679   48.4931  -53.7212 C   0  0  0  0  0  0  0  0  0  0  0  0
   19.7214   48.2915  -52.6354 C   0  0  0  0  0  0  0  0  0  0  0  0
   16.5320   48.7914  -54.1960 O   0  0  0  0  0  0  0  0  0  0  0  0
   20.6588   48.9514  -56.1003 N   0  0  0  0  0  0  0  0  0  0  0  0
   20.2125   49.1545  -56.9540 H   0  0  0  0  0  0  0  0  0  0  0  0
   21.6389   48.8655  -56.0653 H   0  0  0  0  0  0  0  0  0  0  0  0
   14.4085   48.7409  -50.7669 C   0  0  0  0  0  0  0  0  0  0  0  0
   13.3338   47.9162  -51.2983 O   0  0  0  0  0  0  0  0  0  0  0  0
   12.9781   47.8905  -52.8420 P   0  0  0  0  0  0  0  0  0  0  0  0
   11.6550   48.4579  -53.0389 O   0  0  0  0  0  0  0  0  0  0  0  0
   13.9161   48.7942  -53.5091 O   0  0  0  0  0  0  0  0  0  0  0  0
   13.0826   46.5172  -53.2989 O   0  0  0  0  0  0  0  0  0  0  0  0
   13.7998   49.6933  -53.1640 H   0  0  0  0  0  0  0  0  0  0  0  0
   12.4396   45.9684  -52.8233 H   0  0  0  0  0  0  0  0  0  0  0  0
  8  9  1  0  0  0
  8 13  1  0  0  0
  8  1  1  0  0  0
  9 10  1  0  0  0
  9 14  2  0  0  0
 10 11  2  0  0  0
 11 12  1  0  0  0
 11 15  1  0  0  0
 12 13  2  0  0  0
  1  2  1  0  0  0
  1  5  1  0  0  0
  2  3  1  0  0  0
  3  4  1  0  0  0
  3  6  1  0  0  0
  4  5  1  0  0  0
  4 18  1  0  0  0
 18 19  1  0  0  0
 19 20  1  0  0  0
 20 21  2  0  0  0
 20 22  1  0  0  0
 20 23  1  0  0  0
 15 16  1  0  0  0
 15 17  1  0  0  0
  6  7  1  0  0  0
 22 24  1  0  0  0
 23 25  1  0  0  0
M  END
> <minimizedAffinity>
-6.76811

$$$$
