1NJE_DCM_A_317
  RCSB PDB12061703253D
Coordinates from PDB:1NJE:A:317 Model:1 without hydrogens
 20 21  0  0  0  0            999 V2000
   14.9720   48.6210  -53.6410   N 0  0  0  0  0  0  0  0  0  0  0  0
   13.9580   47.6620  -53.3390   C 0  0  0  0  0  0  0  0  0  0  0  0
   13.4530   47.6980  -52.0380   N 0  0  0  0  0  0  0  0  0  0  0  0
   13.8990   48.5830  -51.1030   C 0  0  0  0  0  0  0  0  0  0  0  0
   14.9300   49.5440  -51.4400   C 0  0  0  0  0  0  0  0  0  0  0  0
   15.4140   49.5060  -52.7440   C 0  0  0  0  0  0  0  0  0  0  0  0
   13.4740   46.8020  -54.0790   O 0  0  0  0  0  0  0  0  0  0  0  0
   13.3350   48.5740  -49.8930   N 0  0  0  0  0  0  0  0  0  0  0  0
   15.7710   48.7160  -54.8950   C 0  0  0  0  0  0  0  0  0  0  0  0
   15.2940   48.0030  -56.1650   C 0  0  0  0  0  0  0  0  0  0  0  0
   16.2370   48.5670  -57.2150   C 0  0  0  0  0  0  0  0  0  0  0  0
   16.2670   50.0920  -56.9730   C 0  0  0  0  0  0  0  0  0  0  0  0
   16.0570   50.0850  -55.4720   O 0  0  0  0  0  0  0  0  0  0  0  0
   17.5420   47.9390  -56.9360   O 0  0  0  0  0  0  0  0  0  0  0  0
   15.0230   50.7860  -57.5420   C 0  0  0  0  0  0  0  0  0  0  0  0
   14.9310   50.8660  -58.9920   O 0  0  0  0  0  0  0  0  0  0  0  0
   15.6650   52.0000  -59.8200   P 0  0  0  0  0  0  0  0  0  0  0  0
   17.0980   51.7610  -59.7950   O 0  0  0  0  0  0  0  0  0  0  0  0
   15.2470   51.8460  -61.2140   O 0  0  0  0  0  0  0  0  0  0  0  0
   15.2910   53.2800  -59.2480   O 0  0  0  0  0  0  0  0  0  0  0  0
  1  2  1  0  0  0  0
  1  6  1  0  0  0  0
  1  9  1  0  0  0  0
  2  3  1  0  0  0  0
  2  7  2  0  0  0  0
  3  4  2  0  0  0  0
  4  5  1  0  0  0  0
  4  8  1  0  0  0  0
  5  6  2  0  0  0  0
  9 10  1  0  0  0  0
  9 13  1  0  0  0  0
 10 11  1  0  0  0  0
 11 12  1  0  0  0  0
 11 14  1  0  0  0  0
 12 13  1  0  0  0  0
 12 15  1  0  0  0  0
 15 16  1  0  0  0  0
 16 17  1  0  0  0  0
 17 18  2  0  0  0  0
 17 19  1  0  0  0  0
 17 20  1  0  0  0  0
A    1
N1
A    2
C2
A    3
N3
A    4
C4
A    5
C5
A    6
C6
A    7
O2
A    8
N4
A    9
C1'
A   10
C2'
A   11
C3'
A   12
C4'
A   13
O4'
A   14
O3'
A   15
C5'
A   16
O5'
A   17
P
A   18
O1P
A   19
O2P
A   20
O3P
M  END
>  <InstanceId>
1NJE_DCM_A_317

>  <ChemCompId>
DCM

>  <PdbId>
1NJE

>  <ChainId>
A

>  <ResidueNumber>
317

>  <InsertionCode>


>  <Model>
1

>  <AltIds>


>  <MissingHeavyAtoms>
0

>  <ObservedFormula>
C9 N3 O7 P

>  <Name>
2'-DEOXYCYTIDINE-5'-MONOPHOSPHATE

>  <SystematicName>
[(2R,3S,5R)-5-(4-amino-2-oxo-pyrimidin-1-yl)-3-hydroxy-oxolan-2-yl]methyl dihydrogen phosphate

>  <Synonyms>


>  <Type>
NON-POLYMER

>  <Formula>
C9 H14 N3 O7 P

>  <MolecularWeight>
307.197

>  <ModifiedDate>
2011-06-04

>  <Parent>


>  <OneLetterCode>


>  <SubcomponentList>


>  <AmbiguousFlag>
N

>  <InChI>
InChI=1S/C9H14N3O7P/c10-7-1-2-12(9(14)11-7)8-3-5(13)6(19-8)4-18-20(15,16)17/h1-2,5-6,8,13H,3-4H2,(H2,10,11,14)(H2,15,16,17)/t5-,6+,8+/m0/s1

>  <InChIKey>
NCMVOABPESMRCP-SHYZEUOFSA-N

>  <SMILES>
C1[C@@H]([C@H](O[C@H]1N2C=CC(=NC2=O)N)COP(=O)(O)O)O

$$$$
