2FZK_EOZ_A_611


 32 32  0  0  0  0  0  0  0  0999 V2000
   38.3226   30.7300   21.1807 C   0  0  0  0  0  0  0  0  0  0  0  0
   39.4385   30.6985   20.3556 C   0  0  0  0  0  0  0  0  0  0  0  0
   37.6272   29.5391   21.4158 C   0  0  0  0  0  0  0  0  0  0  0  0
   38.0825   28.3434   20.8611 C   0  0  0  0  0  0  0  0  0  0  0  0
   39.1867   28.3320   20.0160 C   0  0  0  0  0  0  0  0  0  0  0  0
   39.8647   29.5176   19.7458 C   0  0  0  0  0  0  0  0  0  0  0  0
   38.4339   32.8486   22.3575 C   0  0  0  0  0  0  0  0  0  0  0  0
   37.9502   33.9875   22.4832 O   0  0  0  0  0  0  0  0  0  0  0  0
   37.9049   31.9410   21.5391 N   0  0  0  0  0  0  0  0  0  0  0  0
   37.0541   32.2148   21.1263 H   0  0  0  0  0  0  0  0  0  0  0  0
   39.6884   32.4958   23.1406 C   0  0  0  0  0  0  0  0  0  0  0  0
   37.5086   31.6673   24.6217 O   0  0  0  0  0  0  0  0  0  0  0  0
   39.1193   31.6385   24.6339 P   0  0  0  0  0  0  0  0  0  0  0  0
   39.5003   30.0852   24.4309 O   0  0  0  0  0  0  0  0  0  0  0  0
   39.6553   32.2143   25.8886 O   0  0  0  0  0  0  0  0  0  0  0  0
   37.1711   31.2150   25.4106 H   0  0  0  0  0  0  0  0  0  0  0  0
   39.2156   29.5783   25.2074 H   0  0  0  0  0  0  0  0  0  0  0  0
   37.4491   26.9995   21.2347 C   0  0  0  0  0  0  0  0  0  0  0  0
   36.4625   27.0204   22.0011 O   0  0  0  0  0  0  0  0  0  0  0  0
   37.9380   25.9554   20.7428 O   0  0  0  0  0  0  0  0  0  0  0  0
   36.1457   27.8366   22.3349 H   0  0  0  0  0  0  0  0  0  0  0  0
   40.7332   29.5253   18.7410 N   0  0  0  0  0  0  0  0  0  0  0  0
   42.0521   29.5115   18.9406 C   0  0  0  0  0  0  0  0  0  0  0  0
   42.5768   29.5295   20.0546 O   0  0  0  0  0  0  0  0  0  0  0  0
   40.3921   29.5417   17.8176 H   0  0  0  0  0  0  0  0  0  0  0  0
   42.8983   29.5294   17.6641 C   0  0  0  0  0  0  0  0  0  0  0  0
   44.6412   29.1605   18.0078 P   0  0  0  0  0  0  0  0  0  0  0  0
   44.6339   27.8532   18.9573 O   0  0  0  0  0  0  0  0  0  0  0  0
   45.2025   30.3688   18.9195 O   0  0  0  0  0  0  0  0  0  0  0  0
   45.4374   28.9800   16.7689 O   0  0  0  0  0  0  0  0  0  0  0  0
   44.1001   28.0305   19.7476 H   0  0  0  0  0  0  0  0  0  0  0  0
   44.6563   30.4531   19.7166 H   0  0  0  0  0  0  0  0  0  0  0  0
 12 13  1  0  0  0
 13 14  1  0  0  0
 13 15  2  0  0  0
 13 11  1  0  0  0
 11  7  1  0  0  0
  7  8  2  0  0  0
  7  9  1  0  0  0
  9  1  1  0  0  0
  1  2  2  0  0  0
  1  3  1  0  0  0
  2  6  1  0  0  0
  3  4  2  0  0  0
  4 18  1  0  0  0
  4  5  1  0  0  0
 18 19  1  0  0  0
 18 20  2  0  0  0
  5  6  2  0  0  0
  6 22  1  0  0  0
 22 23  1  0  0  0
 23 24  2  0  0  0
 23 26  1  0  0  0
 26 27  1  0  0  0
 27 28  1  0  0  0
 27 29  1  0  0  0
 27 30  2  0  0  0
 12 16  1  0  0  0
 14 17  1  0  0  0
  9 10  1  0  0  0
 19 21  1  0  0  0
 22 25  1  0  0  0
 28 31  1  0  0  0
 29 32  1  0  0  0
M  END
> <minimizedAffinity>
-9.65306

$$$$
2FZK_EOZ_A_611


 32 32  0  0  0  0  0  0  0  0999 V2000
   39.5332   29.3184   18.6193 C   0  0  0  0  0  0  0  0  0  0  0  0
   39.7175   30.5268   19.2774 C   0  0  0  0  0  0  0  0  0  0  0  0
   38.9530   28.2545   19.3183 C   0  0  0  0  0  0  0  0  0  0  0  0
   38.5329   28.4313   20.6362 C   0  0  0  0  0  0  0  0  0  0  0  0
   38.7477   29.6395   21.2902 C   0  0  0  0  0  0  0  0  0  0  0  0
   39.3574   30.6937   20.6155 C   0  0  0  0  0  0  0  0  0  0  0  0
   41.3423   28.9471   17.0462 C   0  0  0  0  0  0  0  0  0  0  0  0
   41.6590   28.7912   15.8536 O   0  0  0  0  0  0  0  0  0  0  0  0
   40.0940   29.2259   17.4167 N   0  0  0  0  0  0  0  0  0  0  0  0
   39.4770   29.3930   16.6680 H   0  0  0  0  0  0  0  0  0  0  0  0
   42.4110   28.7814   18.1149 C   0  0  0  0  0  0  0  0  0  0  0  0
   44.5583   28.6195   16.3843 O   0  0  0  0  0  0  0  0  0  0  0  0
   43.8924   29.6055   17.4705 P   0  0  0  0  0  0  0  0  0  0  0  0
   43.3663   30.8633   16.6102 O   0  0  0  0  0  0  0  0  0  0  0  0
   44.8665   29.9802   18.5210 O   0  0  0  0  0  0  0  0  0  0  0  0
   45.3563   29.0325   16.0190 H   0  0  0  0  0  0  0  0  0  0  0  0
   44.1246   31.3420   16.2405 H   0  0  0  0  0  0  0  0  0  0  0  0
   37.7417   27.3457   21.3727 C   0  0  0  0  0  0  0  0  0  0  0  0
   37.1820   27.6661   22.4429 O   0  0  0  0  0  0  0  0  0  0  0  0
   37.6817   26.2035   20.8600 O   0  0  0  0  0  0  0  0  0  0  0  0
   37.2665   28.5391   22.7727 H   0  0  0  0  0  0  0  0  0  0  0  0
   39.7887   31.7265   21.3305 N   0  0  0  0  0  0  0  0  0  0  0  0
   40.8822   31.6579   22.0914 C   0  0  0  0  0  0  0  0  0  0  0  0
   41.5582   30.6377   22.2292 O   0  0  0  0  0  0  0  0  0  0  0  0
   39.2843   32.5714   21.2978 H   0  0  0  0  0  0  0  0  0  0  0  0
   41.2234   32.9447   22.8487 C   0  0  0  0  0  0  0  0  0  0  0  0
   42.9097   33.5094   22.4887 P   0  0  0  0  0  0  0  0  0  0  0  0
   42.7729   34.5371   21.2494 O   0  0  0  0  0  0  0  0  0  0  0  0
   43.7176   32.2326   21.9202 O   0  0  0  0  0  0  0  0  0  0  0  0
   43.5727   34.1065   23.6742 O   0  0  0  0  0  0  0  0  0  0  0  0
   42.3340   34.0924   20.5074 H   0  0  0  0  0  0  0  0  0  0  0  0
   43.2526   31.8732   21.1484 H   0  0  0  0  0  0  0  0  0  0  0  0
 12 13  1  0  0  0
 13 14  1  0  0  0
 13 15  2  0  0  0
 13 11  1  0  0  0
 11  7  1  0  0  0
  7  8  2  0  0  0
  7  9  1  0  0  0
  9  1  1  0  0  0
  1  2  2  0  0  0
  1  3  1  0  0  0
  2  6  1  0  0  0
  3  4  2  0  0  0
  4 18  1  0  0  0
  4  5  1  0  0  0
 18 19  1  0  0  0
 18 20  2  0  0  0
  5  6  2  0  0  0
  6 22  1  0  0  0
 22 23  1  0  0  0
 23 24  2  0  0  0
 23 26  1  0  0  0
 26 27  1  0  0  0
 27 28  1  0  0  0
 27 29  1  0  0  0
 27 30  2  0  0  0
 12 16  1  0  0  0
 14 17  1  0  0  0
  9 10  1  0  0  0
 19 21  1  0  0  0
 22 25  1  0  0  0
 28 31  1  0  0  0
 29 32  1  0  0  0
M  END
> <minimizedAffinity>
-9.38210

$$$$
2FZK_EOZ_A_611


 32 32  0  0  0  0  0  0  0  0999 V2000
   40.1070   29.5331   18.1059 C   0  0  0  0  0  0  0  0  0  0  0  0
   40.7168   30.3304   19.0648 C   0  0  0  0  0  0  0  0  0  0  0  0
   39.1175   28.6315   18.5124 C   0  0  0  0  0  0  0  0  0  0  0  0
   38.7306   28.5762   19.8510 C   0  0  0  0  0  0  0  0  0  0  0  0
   39.3686   29.3626   20.8039 C   0  0  0  0  0  0  0  0  0  0  0  0
   40.3800   30.2372   20.4160 C   0  0  0  0  0  0  0  0  0  0  0  0
   41.7707   29.0400   16.4104 C   0  0  0  0  0  0  0  0  0  0  0  0
   42.0615   29.0914   15.2023 O   0  0  0  0  0  0  0  0  0  0  0  0
   40.6500   29.5740   16.8923 N   0  0  0  0  0  0  0  0  0  0  0  0
   40.1316   30.0906   16.2337 H   0  0  0  0  0  0  0  0  0  0  0  0
   42.7115   28.3150   17.3595 C   0  0  0  0  0  0  0  0  0  0  0  0
   43.8010   30.7977   16.8295 O   0  0  0  0  0  0  0  0  0  0  0  0
   44.1326   29.4176   17.5914 P   0  0  0  0  0  0  0  0  0  0  0  0
   44.1450   29.8086   19.1554 O   0  0  0  0  0  0  0  0  0  0  0  0
   45.4131   28.8410   17.1213 O   0  0  0  0  0  0  0  0  0  0  0  0
   44.5445   31.4118   16.9347 H   0  0  0  0  0  0  0  0  0  0  0  0
   44.8914   30.4017   19.3345 H   0  0  0  0  0  0  0  0  0  0  0  0
   37.5369   27.7279   20.3010 C   0  0  0  0  0  0  0  0  0  0  0  0
   36.4030   28.0720   19.9047 O   0  0  0  0  0  0  0  0  0  0  0  0
   37.7578   26.7286   21.0247 O   0  0  0  0  0  0  0  0  0  0  0  0
   36.3060   28.8314   19.3645 H   0  0  0  0  0  0  0  0  0  0  0  0
   41.1442   30.7679   21.3638 N   0  0  0  0  0  0  0  0  0  0  0  0
   40.8702   31.9488   21.9204 C   0  0  0  0  0  0  0  0  0  0  0  0
   39.9228   32.6609   21.5856 O   0  0  0  0  0  0  0  0  0  0  0  0
   41.9398   30.2729   21.6659 H   0  0  0  0  0  0  0  0  0  0  0  0
   41.8656   32.4039   22.9919 C   0  0  0  0  0  0  0  0  0  0  0  0
   43.3003   31.2975   23.0898 P   0  0  0  0  0  0  0  0  0  0  0  0
   42.7589   29.9365   23.7719 O   0  0  0  0  0  0  0  0  0  0  0  0
   44.3221   31.9522   24.1543 O   0  0  0  0  0  0  0  0  0  0  0  0
   43.9372   31.0769   21.7679 O   0  0  0  0  0  0  0  0  0  0  0  0
   42.3549   30.1430   24.6292 H   0  0  0  0  0  0  0  0  0  0  0  0
   43.8682   32.0795   25.0020 H   0  0  0  0  0  0  0  0  0  0  0  0
 12 13  1  0  0  0
 13 14  1  0  0  0
 13 15  2  0  0  0
 13 11  1  0  0  0
 11  7  1  0  0  0
  7  8  2  0  0  0
  7  9  1  0  0  0
  9  1  1  0  0  0
  1  2  2  0  0  0
  1  3  1  0  0  0
  2  6  1  0  0  0
  3  4  2  0  0  0
  4 18  1  0  0  0
  4  5  1  0  0  0
 18 19  1  0  0  0
 18 20  2  0  0  0
  5  6  2  0  0  0
  6 22  1  0  0  0
 22 23  1  0  0  0
 23 24  2  0  0  0
 23 26  1  0  0  0
 26 27  1  0  0  0
 27 28  1  0  0  0
 27 29  1  0  0  0
 27 30  2  0  0  0
 12 16  1  0  0  0
 14 17  1  0  0  0
  9 10  1  0  0  0
 19 21  1  0  0  0
 22 25  1  0  0  0
 28 31  1  0  0  0
 29 32  1  0  0  0
M  END
> <minimizedAffinity>
-8.98432

$$$$
2FZK_EOZ_A_611


 32 32  0  0  0  0  0  0  0  0999 V2000
   41.1664   29.6358   19.9249 C   0  0  0  0  0  0  0  0  0  0  0  0
   40.8144   30.7895   20.6120 C   0  0  0  0  0  0  0  0  0  0  0  0
   40.2305   28.6008   19.8260 C   0  0  0  0  0  0  0  0  0  0  0  0
   38.9576   28.7556   20.3741 C   0  0  0  0  0  0  0  0  0  0  0  0
   38.6283   29.9065   21.0817 C   0  0  0  0  0  0  0  0  0  0  0  0
   39.5645   30.9280   21.2176 C   0  0  0  0  0  0  0  0  0  0  0  0
   43.0589   29.8268   18.4190 C   0  0  0  0  0  0  0  0  0  0  0  0
   44.2967   29.7867   18.3047 O   0  0  0  0  0  0  0  0  0  0  0  0
   42.4443   29.5460   19.5664 N   0  0  0  0  0  0  0  0  0  0  0  0
   43.0413   29.2128   20.2748 H   0  0  0  0  0  0  0  0  0  0  0  0
   42.2260   30.2417   17.2166 C   0  0  0  0  0  0  0  0  0  0  0  0
   42.8258   27.5587   16.9455 O   0  0  0  0  0  0  0  0  0  0  0  0
   42.0719   28.7604   16.1818 P   0  0  0  0  0  0  0  0  0  0  0  0
   40.5131   28.3504   16.2165 O   0  0  0  0  0  0  0  0  0  0  0  0
   42.6009   28.9379   14.8101 O   0  0  0  0  0  0  0  0  0  0  0  0
   42.7616   26.7485   16.4160 H   0  0  0  0  0  0  0  0  0  0  0  0
   40.3751   27.5578   15.6746 H   0  0  0  0  0  0  0  0  0  0  0  0
   37.8563   27.7174   20.1372 C   0  0  0  0  0  0  0  0  0  0  0  0
   36.8183   28.1003   19.5567 O   0  0  0  0  0  0  0  0  0  0  0  0
   38.0573   26.5407   20.5194 O   0  0  0  0  0  0  0  0  0  0  0  0
   36.7304   28.9961   19.2963 H   0  0  0  0  0  0  0  0  0  0  0  0
   39.3236   31.8810   22.1107 N   0  0  0  0  0  0  0  0  0  0  0  0
   39.4585   31.6775   23.4221 C   0  0  0  0  0  0  0  0  0  0  0  0
   39.7753   30.5959   23.9187 O   0  0  0  0  0  0  0  0  0  0  0  0
   39.0358   32.7677   21.7942 H   0  0  0  0  0  0  0  0  0  0  0  0
   39.1318   32.8890   24.3004 C   0  0  0  0  0  0  0  0  0  0  0  0
   37.6082   33.7160   23.7649 P   0  0  0  0  0  0  0  0  0  0  0  0
   36.6884   32.5600   23.1103 O   0  0  0  0  0  0  0  0  0  0  0  0
   38.0140   34.7011   22.5520 O   0  0  0  0  0  0  0  0  0  0  0  0
   36.9376   34.4411   24.8722 O   0  0  0  0  0  0  0  0  0  0  0  0
   37.1778   32.1233   22.3957 H   0  0  0  0  0  0  0  0  0  0  0  0
   38.4480   34.1896   21.8514 H   0  0  0  0  0  0  0  0  0  0  0  0
 12 13  1  0  0  0
 13 14  1  0  0  0
 13 15  2  0  0  0
 13 11  1  0  0  0
 11  7  1  0  0  0
  7  8  2  0  0  0
  7  9  1  0  0  0
  9  1  1  0  0  0
  1  2  2  0  0  0
  1  3  1  0  0  0
  2  6  1  0  0  0
  3  4  2  0  0  0
  4 18  1  0  0  0
  4  5  1  0  0  0
 18 19  1  0  0  0
 18 20  2  0  0  0
  5  6  2  0  0  0
  6 22  1  0  0  0
 22 23  1  0  0  0
 23 24  2  0  0  0
 23 26  1  0  0  0
 26 27  1  0  0  0
 27 28  1  0  0  0
 27 29  1  0  0  0
 27 30  2  0  0  0
 12 16  1  0  0  0
 14 17  1  0  0  0
  9 10  1  0  0  0
 19 21  1  0  0  0
 22 25  1  0  0  0
 28 31  1  0  0  0
 29 32  1  0  0  0
M  END
> <minimizedAffinity>
-8.74354

$$$$
2FZK_EOZ_A_611


 32 32  0  0  0  0  0  0  0  0999 V2000
   41.6816   28.6910   17.6113 C   0  0  0  0  0  0  0  0  0  0  0  0
   41.4564   28.3495   16.2848 C   0  0  0  0  0  0  0  0  0  0  0  0
   42.9883   28.9813   18.0177 C   0  0  0  0  0  0  0  0  0  0  0  0
   44.0281   28.9666   17.0886 C   0  0  0  0  0  0  0  0  0  0  0  0
   43.7912   28.5975   15.7690 C   0  0  0  0  0  0  0  0  0  0  0  0
   42.5005   28.2712   15.3618 C   0  0  0  0  0  0  0  0  0  0  0  0
   40.3909   29.0458   19.6346 C   0  0  0  0  0  0  0  0  0  0  0  0
   39.2994   28.8779   20.2069 O   0  0  0  0  0  0  0  0  0  0  0  0
   40.6440   28.5387   18.4297 N   0  0  0  0  0  0  0  0  0  0  0  0
   39.9383   27.9461   18.0831 H   0  0  0  0  0  0  0  0  0  0  0  0
   41.4562   29.8848   20.3222 C   0  0  0  0  0  0  0  0  0  0  0  0
   39.3439   31.6642   20.2588 O   0  0  0  0  0  0  0  0  0  0  0  0
   40.5664   31.1991   21.1994 P   0  0  0  0  0  0  0  0  0  0  0  0
   39.8605   30.4937   22.4655 O   0  0  0  0  0  0  0  0  0  0  0  0
   41.4228   32.3487   21.5712 O   0  0  0  0  0  0  0  0  0  0  0  0
   38.8459   32.3694   20.7010 H   0  0  0  0  0  0  0  0  0  0  0  0
   39.3676   31.1577   22.9724 H   0  0  0  0  0  0  0  0  0  0  0  0
   45.4355   29.4442   17.4601 C   0  0  0  0  0  0  0  0  0  0  0  0
   46.3515   29.2347   16.6365 O   0  0  0  0  0  0  0  0  0  0  0  0
   45.5932   30.0320   18.5558 O   0  0  0  0  0  0  0  0  0  0  0  0
   46.1667   28.7884   15.8336 H   0  0  0  0  0  0  0  0  0  0  0  0
   42.3493   27.6713   14.1866 N   0  0  0  0  0  0  0  0  0  0  0  0
   42.4510   28.3322   13.0323 C   0  0  0  0  0  0  0  0  0  0  0  0
   42.6520   29.5446   12.9522 O   0  0  0  0  0  0  0  0  0  0  0  0
   42.1557   26.7063   14.1666 H   0  0  0  0  0  0  0  0  0  0  0  0
   42.2406   27.4779   11.7786 C   0  0  0  0  0  0  0  0  0  0  0  0
   43.8160   27.0354   10.9948 P   0  0  0  0  0  0  0  0  0  0  0  0
   44.8798   28.1460   11.4903 O   0  0  0  0  0  0  0  0  0  0  0  0
   43.6309   27.2737    9.4089 O   0  0  0  0  0  0  0  0  0  0  0  0
   44.2329   25.6456   11.3052 O   0  0  0  0  0  0  0  0  0  0  0  0
   44.5543   29.0305   11.2608 H   0  0  0  0  0  0  0  0  0  0  0  0
   43.3590   28.1911    9.2494 H   0  0  0  0  0  0  0  0  0  0  0  0
 12 13  1  0  0  0
 13 14  1  0  0  0
 13 15  2  0  0  0
 13 11  1  0  0  0
 11  7  1  0  0  0
  7  8  2  0  0  0
  7  9  1  0  0  0
  9  1  1  0  0  0
  1  2  2  0  0  0
  1  3  1  0  0  0
  2  6  1  0  0  0
  3  4  2  0  0  0
  4 18  1  0  0  0
  4  5  1  0  0  0
 18 19  1  0  0  0
 18 20  2  0  0  0
  5  6  2  0  0  0
  6 22  1  0  0  0
 22 23  1  0  0  0
 23 24  2  0  0  0
 23 26  1  0  0  0
 26 27  1  0  0  0
 27 28  1  0  0  0
 27 29  1  0  0  0
 27 30  2  0  0  0
 12 16  1  0  0  0
 14 17  1  0  0  0
  9 10  1  0  0  0
 19 21  1  0  0  0
 22 25  1  0  0  0
 28 31  1  0  0  0
 29 32  1  0  0  0
M  END
> <minimizedAffinity>
-8.66463

$$$$
2FZK_EOZ_A_611


 32 32  0  0  0  0  0  0  0  0999 V2000
   39.4219   29.3552   18.6247 C   0  0  0  0  0  0  0  0  0  0  0  0
   39.4723   30.5192   19.3794 C   0  0  0  0  0  0  0  0  0  0  0  0
   38.9089   28.1946   19.2136 C   0  0  0  0  0  0  0  0  0  0  0  0
   38.4209   28.2311   20.5194 C   0  0  0  0  0  0  0  0  0  0  0  0
   38.5018   29.3979   21.2715 C   0  0  0  0  0  0  0  0  0  0  0  0
   39.0441   30.5495   20.7075 C   0  0  0  0  0  0  0  0  0  0  0  0
   41.3013   29.1629   17.1026 C   0  0  0  0  0  0  0  0  0  0  0  0
   41.6726   29.1508   15.9157 O   0  0  0  0  0  0  0  0  0  0  0  0
   40.0379   29.4051   17.4468 N   0  0  0  0  0  0  0  0  0  0  0  0
   39.4568   29.6674   16.6966 H   0  0  0  0  0  0  0  0  0  0  0  0
   42.3186   28.8592   18.1909 C   0  0  0  0  0  0  0  0  0  0  0  0
   43.6269   30.8184   16.7480 O   0  0  0  0  0  0  0  0  0  0  0  0
   43.9115   29.4599   17.5659 P   0  0  0  0  0  0  0  0  0  0  0  0
   44.7506   29.9315   18.8593 O   0  0  0  0  0  0  0  0  0  0  0  0
   44.6305   28.4721   16.7291 O   0  0  0  0  0  0  0  0  0  0  0  0
   44.4622   31.1667   16.3991 H   0  0  0  0  0  0  0  0  0  0  0  0
   45.6175   30.2641   18.5786 H   0  0  0  0  0  0  0  0  0  0  0  0
   37.6982   27.0282   21.1339 C   0  0  0  0  0  0  0  0  0  0  0  0
   36.8946   27.2520   22.0642 O   0  0  0  0  0  0  0  0  0  0  0  0
   37.9345   25.8901   20.6648 O   0  0  0  0  0  0  0  0  0  0  0  0
   36.7634   28.1282   22.3693 H   0  0  0  0  0  0  0  0  0  0  0  0
   39.3534   31.5555   21.5176 N   0  0  0  0  0  0  0  0  0  0  0  0
   40.4863   31.5796   22.2213 C   0  0  0  0  0  0  0  0  0  0  0  0
   41.3165   30.6700   22.2149 O   0  0  0  0  0  0  0  0  0  0  0  0
   38.7252   32.3090   21.6015 H   0  0  0  0  0  0  0  0  0  0  0  0
   40.6705   32.8164   23.1059 C   0  0  0  0  0  0  0  0  0  0  0  0
   40.0707   32.5304   24.7943 P   0  0  0  0  0  0  0  0  0  0  0  0
   39.5283   31.0086   24.8153 O   0  0  0  0  0  0  0  0  0  0  0  0
   38.7717   33.4680   24.9927 O   0  0  0  0  0  0  0  0  0  0  0  0
   41.1116   32.7953   25.8180 O   0  0  0  0  0  0  0  0  0  0  0  0
   38.8534   30.8963   24.1277 H   0  0  0  0  0  0  0  0  0  0  0  0
   38.1178   33.2641   24.3059 H   0  0  0  0  0  0  0  0  0  0  0  0
 12 13  1  0  0  0
 13 14  1  0  0  0
 13 15  2  0  0  0
 13 11  1  0  0  0
 11  7  1  0  0  0
  7  8  2  0  0  0
  7  9  1  0  0  0
  9  1  1  0  0  0
  1  2  2  0  0  0
  1  3  1  0  0  0
  2  6  1  0  0  0
  3  4  2  0  0  0
  4 18  1  0  0  0
  4  5  1  0  0  0
 18 19  1  0  0  0
 18 20  2  0  0  0
  5  6  2  0  0  0
  6 22  1  0  0  0
 22 23  1  0  0  0
 23 24  2  0  0  0
 23 26  1  0  0  0
 26 27  1  0  0  0
 27 28  1  0  0  0
 27 29  1  0  0  0
 27 30  2  0  0  0
 12 16  1  0  0  0
 14 17  1  0  0  0
  9 10  1  0  0  0
 19 21  1  0  0  0
 22 25  1  0  0  0
 28 31  1  0  0  0
 29 32  1  0  0  0
M  END
> <minimizedAffinity>
-8.66425

$$$$
2FZK_EOZ_A_611


 32 32  0  0  0  0  0  0  0  0999 V2000
   39.6419   29.9744   19.3183 C   0  0  0  0  0  0  0  0  0  0  0  0
   39.3033   30.8239   20.3626 C   0  0  0  0  0  0  0  0  0  0  0  0
   39.2662   28.6291   19.3979 C   0  0  0  0  0  0  0  0  0  0  0  0
   38.5286   28.1736   20.4901 C   0  0  0  0  0  0  0  0  0  0  0  0
   38.2192   29.0305   21.5406 C   0  0  0  0  0  0  0  0  0  0  0  0
   38.6196   30.3629   21.4888 C   0  0  0  0  0  0  0  0  0  0  0  0
   41.7804   30.4055   18.2569 C   0  0  0  0  0  0  0  0  0  0  0  0
   42.3651   30.8616   17.2584 O   0  0  0  0  0  0  0  0  0  0  0  0
   40.4591   30.4855   18.4015 N   0  0  0  0  0  0  0  0  0  0  0  0
   40.0069   31.0170   17.7070 H   0  0  0  0  0  0  0  0  0  0  0  0
   42.6004   29.7063   19.3293 C   0  0  0  0  0  0  0  0  0  0  0  0
   43.4442   28.2590   17.1326 O   0  0  0  0  0  0  0  0  0  0  0  0
   44.0106   28.9573   18.4695 P   0  0  0  0  0  0  0  0  0  0  0  0
   44.9129   30.1829   17.9378 O   0  0  0  0  0  0  0  0  0  0  0  0
   44.7655   27.9907   19.2994 O   0  0  0  0  0  0  0  0  0  0  0  0
   44.1765   27.8473   16.6478 H   0  0  0  0  0  0  0  0  0  0  0  0
   45.6861   29.8347   17.4670 H   0  0  0  0  0  0  0  0  0  0  0  0
   37.9553   26.7534   20.5280 C   0  0  0  0  0  0  0  0  0  0  0  0
   38.6775   25.8285   20.0989 O   0  0  0  0  0  0  0  0  0  0  0  0
   36.8057   26.5895   20.9999 O   0  0  0  0  0  0  0  0  0  0  0  0
   39.5293   26.0188   19.7581 H   0  0  0  0  0  0  0  0  0  0  0  0
   38.5500   31.0797   22.6047 N   0  0  0  0  0  0  0  0  0  0  0  0
   37.6875   32.0869   22.7505 C   0  0  0  0  0  0  0  0  0  0  0  0
   36.9174   32.4632   21.8662 O   0  0  0  0  0  0  0  0  0  0  0  0
   39.1553   30.8604   23.3495 H   0  0  0  0  0  0  0  0  0  0  0  0
   37.7543   32.8032   24.1027 C   0  0  0  0  0  0  0  0  0  0  0  0
   39.4652   33.0090   24.6705 P   0  0  0  0  0  0  0  0  0  0  0  0
   40.3145   33.4280   23.3614 O   0  0  0  0  0  0  0  0  0  0  0  0
   39.9952   31.5443   25.0943 O   0  0  0  0  0  0  0  0  0  0  0  0
   39.5802   33.9867   25.7807 O   0  0  0  0  0  0  0  0  0  0  0  0
   40.2008   32.7541   22.6730 H   0  0  0  0  0  0  0  0  0  0  0  0
   39.9030   30.9373   24.3433 H   0  0  0  0  0  0  0  0  0  0  0  0
 12 13  1  0  0  0
 13 14  1  0  0  0
 13 15  2  0  0  0
 13 11  1  0  0  0
 11  7  1  0  0  0
  7  8  2  0  0  0
  7  9  1  0  0  0
  9  1  1  0  0  0
  1  2  2  0  0  0
  1  3  1  0  0  0
  2  6  1  0  0  0
  3  4  2  0  0  0
  4 18  1  0  0  0
  4  5  1  0  0  0
 18 19  1  0  0  0
 18 20  2  0  0  0
  5  6  2  0  0  0
  6 22  1  0  0  0
 22 23  1  0  0  0
 23 24  2  0  0  0
 23 26  1  0  0  0
 26 27  1  0  0  0
 27 28  1  0  0  0
 27 29  1  0  0  0
 27 30  2  0  0  0
 12 16  1  0  0  0
 14 17  1  0  0  0
  9 10  1  0  0  0
 19 21  1  0  0  0
 22 25  1  0  0  0
 28 31  1  0  0  0
 29 32  1  0  0  0
M  END
> <minimizedAffinity>
-8.63460

$$$$
2FZK_EOZ_A_611


 32 32  0  0  0  0  0  0  0  0999 V2000
   40.1486   31.6149   22.3583 C   0  0  0  0  0  0  0  0  0  0  0  0
   40.5698   31.3545   21.0615 C   0  0  0  0  0  0  0  0  0  0  0  0
   41.0480   31.4113   23.4104 C   0  0  0  0  0  0  0  0  0  0  0  0
   42.3523   30.9964   23.1436 C   0  0  0  0  0  0  0  0  0  0  0  0
   42.7518   30.7148   21.8418 C   0  0  0  0  0  0  0  0  0  0  0  0
   41.8538   30.8790   20.7906 C   0  0  0  0  0  0  0  0  0  0  0  0
   37.8258   31.0799   22.8100 C   0  0  0  0  0  0  0  0  0  0  0  0
   36.6832   31.5268   23.0138 O   0  0  0  0  0  0  0  0  0  0  0  0
   38.8513   31.8716   22.5023 N   0  0  0  0  0  0  0  0  0  0  0  0
   38.6060   32.8136   22.3553 H   0  0  0  0  0  0  0  0  0  0  0  0
   38.0623   29.5845   22.9493 C   0  0  0  0  0  0  0  0  0  0  0  0
   36.1930   28.9283   24.8747 O   0  0  0  0  0  0  0  0  0  0  0  0
   37.7719   29.1945   24.6964 P   0  0  0  0  0  0  0  0  0  0  0  0
   38.4586   27.7589   24.9546 O   0  0  0  0  0  0  0  0  0  0  0  0
   38.2454   30.2462   25.6252 O   0  0  0  0  0  0  0  0  0  0  0  0
   36.0036   28.7161   25.8021 H   0  0  0  0  0  0  0  0  0  0  0  0
   38.3313   27.5016   25.8812 H   0  0  0  0  0  0  0  0  0  0  0  0
   43.4092   30.9291   24.2505 C   0  0  0  0  0  0  0  0  0  0  0  0
   43.6537   29.8088   24.7469 O   0  0  0  0  0  0  0  0  0  0  0  0
   43.9839   31.9906   24.5882 O   0  0  0  0  0  0  0  0  0  0  0  0
   43.1873   29.0526   24.4492 H   0  0  0  0  0  0  0  0  0  0  0  0
   42.1692   30.3542   19.6120 N   0  0  0  0  0  0  0  0  0  0  0  0
   41.9690   29.0657   19.3306 C   0  0  0  0  0  0  0  0  0  0  0  0
   41.5178   28.2505   20.1358 O   0  0  0  0  0  0  0  0  0  0  0  0
   42.5641   30.9358   18.9228 H   0  0  0  0  0  0  0  0  0  0  0  0
   42.3991   28.6379   17.9242 C   0  0  0  0  0  0  0  0  0  0  0  0
   43.9918   29.3702   17.4564 P   0  0  0  0  0  0  0  0  0  0  0  0
   44.8005   29.5815   18.8391 O   0  0  0  0  0  0  0  0  0  0  0  0
   43.6772   30.8507   16.8948 O   0  0  0  0  0  0  0  0  0  0  0  0
   44.7274   28.5433   16.4681 O   0  0  0  0  0  0  0  0  0  0  0  0
   44.2722   30.1271   19.4425 H   0  0  0  0  0  0  0  0  0  0  0  0
   43.1971   31.3569   17.5687 H   0  0  0  0  0  0  0  0  0  0  0  0
 12 13  1  0  0  0
 13 14  1  0  0  0
 13 15  2  0  0  0
 13 11  1  0  0  0
 11  7  1  0  0  0
  7  8  2  0  0  0
  7  9  1  0  0  0
  9  1  1  0  0  0
  1  2  2  0  0  0
  1  3  1  0  0  0
  2  6  1  0  0  0
  3  4  2  0  0  0
  4 18  1  0  0  0
  4  5  1  0  0  0
 18 19  1  0  0  0
 18 20  2  0  0  0
  5  6  2  0  0  0
  6 22  1  0  0  0
 22 23  1  0  0  0
 23 24  2  0  0  0
 23 26  1  0  0  0
 26 27  1  0  0  0
 27 28  1  0  0  0
 27 29  1  0  0  0
 27 30  2  0  0  0
 12 16  1  0  0  0
 14 17  1  0  0  0
  9 10  1  0  0  0
 19 21  1  0  0  0
 22 25  1  0  0  0
 28 31  1  0  0  0
 29 32  1  0  0  0
M  END
> <minimizedAffinity>
-8.58059

$$$$
2FZK_EOZ_A_611


 32 32  0  0  0  0  0  0  0  0999 V2000
   40.1826   30.3177   19.8366 C   0  0  0  0  0  0  0  0  0  0  0  0
   40.9639   30.8205   20.8680 C   0  0  0  0  0  0  0  0  0  0  0  0
   40.8036   29.5856   18.8190 C   0  0  0  0  0  0  0  0  0  0  0  0
   42.1745   29.3364   18.8749 C   0  0  0  0  0  0  0  0  0  0  0  0
   42.9480   29.8684   19.9006 C   0  0  0  0  0  0  0  0  0  0  0  0
   42.3461   30.6292   20.8992 C   0  0  0  0  0  0  0  0  0  0  0  0
   37.8776   30.4229   20.5861 C   0  0  0  0  0  0  0  0  0  0  0  0
   36.7839   31.0064   20.4854 O   0  0  0  0  0  0  0  0  0  0  0  0
   38.9189   30.7326   19.8160 N   0  0  0  0  0  0  0  0  0  0  0  0
   38.7179   31.3841   19.1057 H   0  0  0  0  0  0  0  0  0  0  0  0
   38.0367   29.3440   21.6454 C   0  0  0  0  0  0  0  0  0  0  0  0
   36.6343   26.9892   21.9918 O   0  0  0  0  0  0  0  0  0  0  0  0
   37.4657   27.8034   20.8777 P   0  0  0  0  0  0  0  0  0  0  0  0
   36.3651   28.2315   19.7802 O   0  0  0  0  0  0  0  0  0  0  0  0
   38.5610   26.9785   20.3183 O   0  0  0  0  0  0  0  0  0  0  0  0
   36.3136   26.1565   21.6114 H   0  0  0  0  0  0  0  0  0  0  0  0
   36.0250   27.4385   19.3370 H   0  0  0  0  0  0  0  0  0  0  0  0
   42.8552   28.3980   17.8735 C   0  0  0  0  0  0  0  0  0  0  0  0
   42.1399   27.8827   16.9880 O   0  0  0  0  0  0  0  0  0  0  0  0
   44.0897   28.2090   17.9813 O   0  0  0  0  0  0  0  0  0  0  0  0
   41.2212   28.0652   16.9629 H   0  0  0  0  0  0  0  0  0  0  0  0
   43.1308   31.3390   21.7021 N   0  0  0  0  0  0  0  0  0  0  0  0
   43.4814   30.9099   22.9155 C   0  0  0  0  0  0  0  0  0  0  0  0
   43.0857   29.8535   23.4097 O   0  0  0  0  0  0  0  0  0  0  0  0
   43.4649   32.2113   21.3911 H   0  0  0  0  0  0  0  0  0  0  0  0
   44.3861   31.8640   23.7010 C   0  0  0  0  0  0  0  0  0  0  0  0
   46.0106   32.0499   22.9148 P   0  0  0  0  0  0  0  0  0  0  0  0
   45.7223   32.6826   21.4563 O   0  0  0  0  0  0  0  0  0  0  0  0
   46.5735   30.5603   22.6497 O   0  0  0  0  0  0  0  0  0  0  0  0
   46.9458   32.8626   23.7313 O   0  0  0  0  0  0  0  0  0  0  0  0
   45.1074   32.1103   20.9714 H   0  0  0  0  0  0  0  0  0  0  0  0
   45.9348   30.0638   22.1145 H   0  0  0  0  0  0  0  0  0  0  0  0
 12 13  1  0  0  0
 13 14  1  0  0  0
 13 15  2  0  0  0
 13 11  1  0  0  0
 11  7  1  0  0  0
  7  8  2  0  0  0
  7  9  1  0  0  0
  9  1  1  0  0  0
  1  2  2  0  0  0
  1  3  1  0  0  0
  2  6  1  0  0  0
  3  4  2  0  0  0
  4 18  1  0  0  0
  4  5  1  0  0  0
 18 19  1  0  0  0
 18 20  2  0  0  0
  5  6  2  0  0  0
  6 22  1  0  0  0
 22 23  1  0  0  0
 23 24  2  0  0  0
 23 26  1  0  0  0
 26 27  1  0  0  0
 27 28  1  0  0  0
 27 29  1  0  0  0
 27 30  2  0  0  0
 12 16  1  0  0  0
 14 17  1  0  0  0
  9 10  1  0  0  0
 19 21  1  0  0  0
 22 25  1  0  0  0
 28 31  1  0  0  0
 29 32  1  0  0  0
M  END
> <minimizedAffinity>
-8.44154

$$$$
2FZK_EOZ_A_611


 32 32  0  0  0  0  0  0  0  0999 V2000
   39.8106   29.1855   19.4677 C   0  0  0  0  0  0  0  0  0  0  0  0
   40.1034   30.0687   20.4979 C   0  0  0  0  0  0  0  0  0  0  0  0
   40.8662   28.6478   18.7235 C   0  0  0  0  0  0  0  0  0  0  0  0
   42.1839   28.9676   19.0489 C   0  0  0  0  0  0  0  0  0  0  0  0
   42.4603   29.8737   20.0668 C   0  0  0  0  0  0  0  0  0  0  0  0
   41.4158   30.4430   20.7902 C   0  0  0  0  0  0  0  0  0  0  0  0
   37.5466   28.3532   19.7268 C   0  0  0  0  0  0  0  0  0  0  0  0
   36.3608   28.4543   19.3654 O   0  0  0  0  0  0  0  0  0  0  0  0
   38.5217   29.0631   19.1624 N   0  0  0  0  0  0  0  0  0  0  0  0
   38.2386   29.5907   18.3809 H   0  0  0  0  0  0  0  0  0  0  0  0
   37.8850   27.4119   20.8717 C   0  0  0  0  0  0  0  0  0  0  0  0
   36.8299   29.7093   21.9853 O   0  0  0  0  0  0  0  0  0  0  0  0
   37.2411   28.2005   22.3724 P   0  0  0  0  0  0  0  0  0  0  0  0
   35.8424   27.4680   22.6980 O   0  0  0  0  0  0  0  0  0  0  0  0
   38.1919   28.1795   23.5076 O   0  0  0  0  0  0  0  0  0  0  0  0
   36.4803   30.1605   22.7696 H   0  0  0  0  0  0  0  0  0  0  0  0
   35.4532   27.8551   23.4977 H   0  0  0  0  0  0  0  0  0  0  0  0
   43.3649   28.2672   18.3695 C   0  0  0  0  0  0  0  0  0  0  0  0
   44.3359   27.9467   19.0876 O   0  0  0  0  0  0  0  0  0  0  0  0
   43.2912   28.0371   17.1395 O   0  0  0  0  0  0  0  0  0  0  0  0
   44.3286   28.1484   20.0026 H   0  0  0  0  0  0  0  0  0  0  0  0
   41.6876   31.4904   21.5603 N   0  0  0  0  0  0  0  0  0  0  0  0
   41.5696   31.4467   22.8883 C   0  0  0  0  0  0  0  0  0  0  0  0
   41.1679   30.4615   23.5085 O   0  0  0  0  0  0  0  0  0  0  0  0
   41.9863   32.3274   21.1367 H   0  0  0  0  0  0  0  0  0  0  0  0
   41.9202   32.7509   23.6108 C   0  0  0  0  0  0  0  0  0  0  0  0
   43.3895   33.5407   22.8969 P   0  0  0  0  0  0  0  0  0  0  0  0
   42.8584   34.3913   21.6300 O   0  0  0  0  0  0  0  0  0  0  0  0
   44.3041   32.3587   22.2867 O   0  0  0  0  0  0  0  0  0  0  0  0
   44.1280   34.3633   23.8866 O   0  0  0  0  0  0  0  0  0  0  0  0
   42.3858   33.8029   21.0207 H   0  0  0  0  0  0  0  0  0  0  0  0
   43.7858   31.8465   21.6465 H   0  0  0  0  0  0  0  0  0  0  0  0
 12 13  1  0  0  0
 13 14  1  0  0  0
 13 15  2  0  0  0
 13 11  1  0  0  0
 11  7  1  0  0  0
  7  8  2  0  0  0
  7  9  1  0  0  0
  9  1  1  0  0  0
  1  2  2  0  0  0
  1  3  1  0  0  0
  2  6  1  0  0  0
  3  4  2  0  0  0
  4 18  1  0  0  0
  4  5  1  0  0  0
 18 19  1  0  0  0
 18 20  2  0  0  0
  5  6  2  0  0  0
  6 22  1  0  0  0
 22 23  1  0  0  0
 23 24  2  0  0  0
 23 26  1  0  0  0
 26 27  1  0  0  0
 27 28  1  0  0  0
 27 29  1  0  0  0
 27 30  2  0  0  0
 12 16  1  0  0  0
 14 17  1  0  0  0
  9 10  1  0  0  0
 19 21  1  0  0  0
 22 25  1  0  0  0
 28 31  1  0  0  0
 29 32  1  0  0  0
M  END
> <minimizedAffinity>
-8.41949

$$$$
