4NON_GDP_A_301


 36 38  0  0  0  0  0  0  0  0999 V2000
   -3.2158  -41.5546   18.3231 C   0  0  0  0  0  0  0  0  0  0  0  0
   -3.9868  -41.5267   19.5238 O   0  0  0  0  0  0  0  0  0  0  0  0
   -4.0814  -42.1947   17.2456 C   0  0  0  0  0  0  0  0  0  0  0  0
   -3.6449  -43.5391   17.0003 O   0  0  0  0  0  0  0  0  0  0  0  0
   -5.4919  -42.1749   17.8011 C   0  0  0  0  0  0  0  0  0  0  0  0
   -6.1896  -43.3816   17.4878 O   0  0  0  0  0  0  0  0  0  0  0  0
   -5.3084  -42.0313   19.3049 C   0  0  0  0  0  0  0  0  0  0  0  0
   -3.6842  -44.0474   17.8255 H   0  0  0  0  0  0  0  0  0  0  0  0
   -5.7012  -44.1396   17.8454 H   0  0  0  0  0  0  0  0  0  0  0  0
   -6.2545  -41.0961   19.9610 N   0  0  0  0  0  0  0  0  0  0  0  0
   -6.5070  -39.8194   19.6116 C   0  0  0  0  0  0  0  0  0  0  0  0
   -7.4091  -39.2562   20.4584 N   0  0  0  0  0  0  0  0  0  0  0  0
   -7.7360  -40.1804   21.3789 C   0  0  0  0  0  0  0  0  0  0  0  0
   -8.6264  -40.2553   22.5624 C   0  0  0  0  0  0  0  0  0  0  0  0
   -9.3117  -39.2741   22.9113 O   0  0  0  0  0  0  0  0  0  0  0  0
   -8.6782  -41.4056   23.2508 N   0  0  0  0  0  0  0  0  0  0  0  0
   -7.9467  -42.4859   22.8960 C   0  0  0  0  0  0  0  0  0  0  0  0
   -8.0421  -43.6208   23.6314 N   0  0  0  0  0  0  0  0  0  0  0  0
   -7.1103  -42.4857   21.8260 N   0  0  0  0  0  0  0  0  0  0  0  0
   -6.9666  -41.3864   21.0470 C   0  0  0  0  0  0  0  0  0  0  0  0
   -9.2665  -41.4649   24.0379 H   0  0  0  0  0  0  0  0  0  0  0  0
   -8.6399  -43.6521   24.4130 H   0  0  0  0  0  0  0  0  0  0  0  0
   -7.5136  -44.4137   23.3838 H   0  0  0  0  0  0  0  0  0  0  0  0
   -2.7765  -40.1369   17.9821 C   0  0  0  0  0  0  0  0  0  0  0  0
   -2.2298  -40.0769   16.6664 O   0  0  0  0  0  0  0  0  0  0  0  0
   -2.4388  -38.7537   15.7829 P   0  0  0  0  0  0  0  0  0  0  0  0
   -3.9024  -38.4092   15.7732 O   0  0  0  0  0  0  0  0  0  0  0  0
   -1.7004  -38.9352   14.4759 O   0  0  0  0  0  0  0  0  0  0  0  0
   -1.8153  -38.1437   13.9271 H   0  0  0  0  0  0  0  0  0  0  0  0
   -1.6666  -37.6753   16.6971 O   0  0  0  0  0  0  0  0  0  0  0  0
   -0.4953  -36.6963   16.1760 P   0  0  0  0  0  0  0  0  0  0  0  0
    0.6586  -37.5968   15.8097 O   0  0  0  0  0  0  0  0  0  0  0  0
   -1.1608  -36.0239   15.0019 O   0  0  0  0  0  0  0  0  0  0  0  0
   -0.2519  -35.7628   17.3399 O   0  0  0  0  0  0  0  0  0  0  0  0
   -0.5424  -35.3970   14.5951 H   0  0  0  0  0  0  0  0  0  0  0  0
    0.4479  -35.1324   17.1079 H   0  0  0  0  0  0  0  0  0  0  0  0
 31 32  2  0  0  0
 31 33  1  0  0  0
 31 34  1  0  0  0
 31 30  1  0  0  0
 30 26  1  0  0  0
 26 27  2  0  0  0
 26 28  1  0  0  0
 26 25  1  0  0  0
 25 24  1  0  0  0
 24  1  1  0  0  0
  1  2  1  0  0  0
  1  3  1  0  0  0
  2  7  1  0  0  0
  3  4  1  0  0  0
  3  5  1  0  0  0
  5  6  1  0  0  0
  5  7  1  0  0  0
  7 10  1  0  0  0
 10 11  1  0  0  0
 10 20  1  0  0  0
 11 12  2  0  0  0
 12 13  1  0  0  0
 13 14  1  0  0  0
 13 20  2  0  0  0
 14 15  2  0  0  0
 14 16  1  0  0  0
 16 17  1  0  0  0
 17 18  1  0  0  0
 17 19  2  0  0  0
 19 20  1  0  0  0
 33 35  1  0  0  0
 34 36  1  0  0  0
 28 29  1  0  0  0
  4  8  1  0  0  0
  6  9  1  0  0  0
 16 21  1  0  0  0
 18 22  1  0  0  0
 18 23  1  0  0  0
M  END
> <minimizedAffinity>
-8.84230

$$$$
4NON_GDP_A_301


 36 38  0  0  0  0  0  0  0  0999 V2000
    3.0411  -38.9258   13.6579 C   0  0  0  0  0  0  0  0  0  0  0  0
    1.8411  -39.3558   14.2998 O   0  0  0  0  0  0  0  0  0  0  0  0
    3.4189  -39.9971   12.6432 C   0  0  0  0  0  0  0  0  0  0  0  0
    4.5188  -40.7743   13.1372 O   0  0  0  0  0  0  0  0  0  0  0  0
    2.1778  -40.8531   12.4839 C   0  0  0  0  0  0  0  0  0  0  0  0
    2.5128  -42.2381   12.3818 O   0  0  0  0  0  0  0  0  0  0  0  0
    1.3645  -40.5847   13.7417 C   0  0  0  0  0  0  0  0  0  0  0  0
    4.2776  -41.1714   13.9887 H   0  0  0  0  0  0  0  0  0  0  0  0
    3.0063  -42.5104   13.1713 H   0  0  0  0  0  0  0  0  0  0  0  0
   -0.0944  -40.4345   13.5195 N   0  0  0  0  0  0  0  0  0  0  0  0
   -0.7332  -40.3789   12.3344 C   0  0  0  0  0  0  0  0  0  0  0  0
   -2.0695  -40.2051   12.5136 N   0  0  0  0  0  0  0  0  0  0  0  0
   -2.2973  -40.1342   13.8369 C   0  0  0  0  0  0  0  0  0  0  0  0
   -3.4751  -39.9552   14.7200 C   0  0  0  0  0  0  0  0  0  0  0  0
   -4.6191  -39.8226   14.2428 O   0  0  0  0  0  0  0  0  0  0  0  0
   -3.2814  -39.9392   16.0475 N   0  0  0  0  0  0  0  0  0  0  0  0
   -2.0527  -40.0807   16.5935 C   0  0  0  0  0  0  0  0  0  0  0  0
   -1.9207  -40.0565   17.9426 N   0  0  0  0  0  0  0  0  0  0  0  0
   -0.9320  -40.2460   15.8443 N   0  0  0  0  0  0  0  0  0  0  0  0
   -0.9906  -40.2803   14.4910 C   0  0  0  0  0  0  0  0  0  0  0  0
   -4.0572  -39.8209   16.6418 H   0  0  0  0  0  0  0  0  0  0  0  0
   -2.7145  -39.9381   18.5128 H   0  0  0  0  0  0  0  0  0  0  0  0
   -1.0311  -40.1572   18.3521 H   0  0  0  0  0  0  0  0  0  0  0  0
    2.8067  -37.5571   13.0326 C   0  0  0  0  0  0  0  0  0  0  0  0
    2.4239  -36.6049   14.0227 O   0  0  0  0  0  0  0  0  0  0  0  0
    1.2191  -35.5893   13.7190 P   0  0  0  0  0  0  0  0  0  0  0  0
    0.1734  -36.3117   12.9154 O   0  0  0  0  0  0  0  0  0  0  0  0
    1.8081  -34.2977   13.1984 O   0  0  0  0  0  0  0  0  0  0  0  0
    1.0935  -33.6698   13.0087 H   0  0  0  0  0  0  0  0  0  0  0  0
    0.6523  -35.3649   15.2101 O   0  0  0  0  0  0  0  0  0  0  0  0
   -0.2535  -36.4255   16.0204 P   0  0  0  0  0  0  0  0  0  0  0  0
   -0.4305  -35.8427   17.4009 O   0  0  0  0  0  0  0  0  0  0  0  0
   -1.5099  -36.4518   15.1872 O   0  0  0  0  0  0  0  0  0  0  0  0
    0.5368  -37.7123   15.9508 O   0  0  0  0  0  0  0  0  0  0  0  0
   -2.1467  -37.0681   15.5817 H   0  0  0  0  0  0  0  0  0  0  0  0
    0.0567  -38.4125   16.4200 H   0  0  0  0  0  0  0  0  0  0  0  0
 31 32  2  0  0  0
 31 33  1  0  0  0
 31 34  1  0  0  0
 31 30  1  0  0  0
 30 26  1  0  0  0
 26 27  2  0  0  0
 26 28  1  0  0  0
 26 25  1  0  0  0
 25 24  1  0  0  0
 24  1  1  0  0  0
  1  2  1  0  0  0
  1  3  1  0  0  0
  2  7  1  0  0  0
  3  4  1  0  0  0
  3  5  1  0  0  0
  5  6  1  0  0  0
  5  7  1  0  0  0
  7 10  1  0  0  0
 10 11  1  0  0  0
 10 20  1  0  0  0
 11 12  2  0  0  0
 12 13  1  0  0  0
 13 14  1  0  0  0
 13 20  2  0  0  0
 14 15  2  0  0  0
 14 16  1  0  0  0
 16 17  1  0  0  0
 17 18  1  0  0  0
 17 19  2  0  0  0
 19 20  1  0  0  0
 33 35  1  0  0  0
 34 36  1  0  0  0
 28 29  1  0  0  0
  4  8  1  0  0  0
  6  9  1  0  0  0
 16 21  1  0  0  0
 18 22  1  0  0  0
 18 23  1  0  0  0
M  END
> <minimizedAffinity>
-7.46986

$$$$
4NON_GDP_A_301


 36 38  0  0  0  0  0  0  0  0999 V2000
   -1.4297  -40.9524   18.2117 C   0  0  0  0  0  0  0  0  0  0  0  0
   -1.4992  -41.2679   19.6019 O   0  0  0  0  0  0  0  0  0  0  0  0
   -1.6695  -42.2453   17.4430 C   0  0  0  0  0  0  0  0  0  0  0  0
   -0.4308  -42.7372   16.9123 O   0  0  0  0  0  0  0  0  0  0  0  0
   -2.2478  -43.2126   18.4570 C   0  0  0  0  0  0  0  0  0  0  0  0
   -1.7218  -44.5286   18.2768 O   0  0  0  0  0  0  0  0  0  0  0  0
   -1.8331  -42.6447   19.8065 C   0  0  0  0  0  0  0  0  0  0  0  0
    0.1993  -42.8751   17.6368 H   0  0  0  0  0  0  0  0  0  0  0  0
   -0.7552  -44.5038   18.3535 H   0  0  0  0  0  0  0  0  0  0  0  0
   -2.8834  -42.6956   20.8527 N   0  0  0  0  0  0  0  0  0  0  0  0
   -2.7423  -43.1188   22.1242 C   0  0  0  0  0  0  0  0  0  0  0  0
   -3.9264  -43.0544   22.7889 N   0  0  0  0  0  0  0  0  0  0  0  0
   -4.8519  -42.5937   21.9290 C   0  0  0  0  0  0  0  0  0  0  0  0
   -6.3022  -42.2871   21.9684 C   0  0  0  0  0  0  0  0  0  0  0  0
   -6.9641  -42.4550   23.0114 O   0  0  0  0  0  0  0  0  0  0  0  0
   -6.8875  -41.8238   20.8536 N   0  0  0  0  0  0  0  0  0  0  0  0
   -6.1952  -41.6319   19.7083 C   0  0  0  0  0  0  0  0  0  0  0  0
   -6.8426  -41.1607   18.6143 N   0  0  0  0  0  0  0  0  0  0  0  0
   -4.8669  -41.8938   19.6018 N   0  0  0  0  0  0  0  0  0  0  0  0
   -4.1574  -42.3659   20.6553 C   0  0  0  0  0  0  0  0  0  0  0  0
   -7.8500  -41.6174   20.8701 H   0  0  0  0  0  0  0  0  0  0  0  0
   -7.8056  -40.9614   18.6600 H   0  0  0  0  0  0  0  0  0  0  0  0
   -6.3497  -41.0179   17.7741 H   0  0  0  0  0  0  0  0  0  0  0  0
   -2.4486  -39.8649   17.8978 C   0  0  0  0  0  0  0  0  0  0  0  0
   -1.8340  -38.7748   17.2142 O   0  0  0  0  0  0  0  0  0  0  0  0
   -2.2758  -38.4351   15.7093 P   0  0  0  0  0  0  0  0  0  0  0  0
   -3.7778  -38.4122   15.6436 O   0  0  0  0  0  0  0  0  0  0  0  0
   -1.4958  -39.3303   14.7731 O   0  0  0  0  0  0  0  0  0  0  0  0
   -1.7498  -39.1393   13.8566 H   0  0  0  0  0  0  0  0  0  0  0  0
   -1.7363  -36.9220   15.5882 O   0  0  0  0  0  0  0  0  0  0  0  0
   -0.2355  -36.4482   15.9416 P   0  0  0  0  0  0  0  0  0  0  0  0
    0.6340  -37.6668   15.7530 O   0  0  0  0  0  0  0  0  0  0  0  0
   -0.0132  -35.3579   14.9240 O   0  0  0  0  0  0  0  0  0  0  0  0
   -0.3376  -35.9313   17.3586 O   0  0  0  0  0  0  0  0  0  0  0  0
    0.8755  -34.9861   15.0376 H   0  0  0  0  0  0  0  0  0  0  0  0
    0.5332  -35.6221   17.6535 H   0  0  0  0  0  0  0  0  0  0  0  0
 31 32  2  0  0  0
 31 33  1  0  0  0
 31 34  1  0  0  0
 31 30  1  0  0  0
 30 26  1  0  0  0
 26 27  2  0  0  0
 26 28  1  0  0  0
 26 25  1  0  0  0
 25 24  1  0  0  0
 24  1  1  0  0  0
  1  2  1  0  0  0
  1  3  1  0  0  0
  2  7  1  0  0  0
  3  4  1  0  0  0
  3  5  1  0  0  0
  5  6  1  0  0  0
  5  7  1  0  0  0
  7 10  1  0  0  0
 10 11  1  0  0  0
 10 20  1  0  0  0
 11 12  2  0  0  0
 12 13  1  0  0  0
 13 14  1  0  0  0
 13 20  2  0  0  0
 14 15  2  0  0  0
 14 16  1  0  0  0
 16 17  1  0  0  0
 17 18  1  0  0  0
 17 19  2  0  0  0
 19 20  1  0  0  0
 33 35  1  0  0  0
 34 36  1  0  0  0
 28 29  1  0  0  0
  4  8  1  0  0  0
  6  9  1  0  0  0
 16 21  1  0  0  0
 18 22  1  0  0  0
 18 23  1  0  0  0
M  END
> <minimizedAffinity>
-7.29612

$$$$
4NON_GDP_A_301


 36 38  0  0  0  0  0  0  0  0999 V2000
   -3.2534  -42.5666   18.6831 C   0  0  0  0  0  0  0  0  0  0  0  0
   -4.1390  -42.2594   19.7593 O   0  0  0  0  0  0  0  0  0  0  0  0
   -4.1141  -42.8994   17.4713 C   0  0  0  0  0  0  0  0  0  0  0  0
   -4.1210  -44.3166   17.2489 O   0  0  0  0  0  0  0  0  0  0  0  0
   -5.5024  -42.3974   17.8163 C   0  0  0  0  0  0  0  0  0  0  0  0
   -6.5090  -43.3059   17.3664 O   0  0  0  0  0  0  0  0  0  0  0  0
   -5.5055  -42.2956   19.3346 C   0  0  0  0  0  0  0  0  0  0  0  0
   -4.4493  -44.7668   18.0429 H   0  0  0  0  0  0  0  0  0  0  0  0
   -6.3606  -44.1770   17.7666 H   0  0  0  0  0  0  0  0  0  0  0  0
   -6.1704  -41.0852   19.8761 N   0  0  0  0  0  0  0  0  0  0  0  0
   -6.0879  -39.8297   19.3938 C   0  0  0  0  0  0  0  0  0  0  0  0
   -6.8044  -38.9684   20.1637 N   0  0  0  0  0  0  0  0  0  0  0  0
   -7.3493  -39.6767   21.1685 C   0  0  0  0  0  0  0  0  0  0  0  0
   -8.2160  -39.3966   22.3387 C   0  0  0  0  0  0  0  0  0  0  0  0
   -8.6203  -38.2412   22.5742 O   0  0  0  0  0  0  0  0  0  0  0  0
   -8.5561  -40.4173   23.1403 N   0  0  0  0  0  0  0  0  0  0  0  0
   -8.1328  -41.6805   22.9099 C   0  0  0  0  0  0  0  0  0  0  0  0
   -8.5106  -42.6702   23.7560 N   0  0  0  0  0  0  0  0  0  0  0  0
   -7.3364  -42.0067   21.8593 N   0  0  0  0  0  0  0  0  0  0  0  0
   -6.9216  -41.0682   20.9744 C   0  0  0  0  0  0  0  0  0  0  0  0
   -9.1311  -40.2411   23.9197 H   0  0  0  0  0  0  0  0  0  0  0  0
   -9.0876  -42.4652   24.5268 H   0  0  0  0  0  0  0  0  0  0  0  0
   -8.2078  -43.5938   23.5995 H   0  0  0  0  0  0  0  0  0  0  0  0
   -2.3202  -41.3849   18.4552 C   0  0  0  0  0  0  0  0  0  0  0  0
   -1.2069  -41.7647   17.6490 O   0  0  0  0  0  0  0  0  0  0  0  0
   -1.0748  -41.1835   16.1591 P   0  0  0  0  0  0  0  0  0  0  0  0
   -1.3425  -42.2966   15.1842 O   0  0  0  0  0  0  0  0  0  0  0  0
    0.2147  -40.3991   16.0691 O   0  0  0  0  0  0  0  0  0  0  0  0
    0.3124  -40.0391   15.1737 H   0  0  0  0  0  0  0  0  0  0  0  0
   -2.3282  -40.1717   16.1353 O   0  0  0  0  0  0  0  0  0  0  0  0
   -2.2294  -38.5900   15.8347 P   0  0  0  0  0  0  0  0  0  0  0  0
   -1.3889  -38.0132   16.9472 O   0  0  0  0  0  0  0  0  0  0  0  0
   -1.5670  -38.5785   14.4803 O   0  0  0  0  0  0  0  0  0  0  0  0
   -3.6698  -38.1322   15.7994 O   0  0  0  0  0  0  0  0  0  0  0  0
   -1.4506  -37.6618   14.1851 H   0  0  0  0  0  0  0  0  0  0  0  0
   -3.7019  -37.1792   15.6215 H   0  0  0  0  0  0  0  0  0  0  0  0
 31 32  2  0  0  0
 31 33  1  0  0  0
 31 34  1  0  0  0
 31 30  1  0  0  0
 30 26  1  0  0  0
 26 27  2  0  0  0
 26 28  1  0  0  0
 26 25  1  0  0  0
 25 24  1  0  0  0
 24  1  1  0  0  0
  1  2  1  0  0  0
  1  3  1  0  0  0
  2  7  1  0  0  0
  3  4  1  0  0  0
  3  5  1  0  0  0
  5  6  1  0  0  0
  5  7  1  0  0  0
  7 10  1  0  0  0
 10 11  1  0  0  0
 10 20  1  0  0  0
 11 12  2  0  0  0
 12 13  1  0  0  0
 13 14  1  0  0  0
 13 20  2  0  0  0
 14 15  2  0  0  0
 14 16  1  0  0  0
 16 17  1  0  0  0
 17 18  1  0  0  0
 17 19  2  0  0  0
 19 20  1  0  0  0
 33 35  1  0  0  0
 34 36  1  0  0  0
 28 29  1  0  0  0
  4  8  1  0  0  0
  6  9  1  0  0  0
 16 21  1  0  0  0
 18 22  1  0  0  0
 18 23  1  0  0  0
M  END
> <minimizedAffinity>
-7.27016

$$$$
4NON_GDP_A_301


 36 38  0  0  0  0  0  0  0  0999 V2000
   -1.7209  -41.9228   18.5789 C   0  0  0  0  0  0  0  0  0  0  0  0
   -2.9518  -41.4550   19.1293 O   0  0  0  0  0  0  0  0  0  0  0  0
   -1.7060  -43.4384   18.7301 C   0  0  0  0  0  0  0  0  0  0  0  0
   -0.8281  -43.8160   19.7999 O   0  0  0  0  0  0  0  0  0  0  0  0
   -3.1387  -43.8237   19.0421 C   0  0  0  0  0  0  0  0  0  0  0  0
   -3.1951  -44.8568   20.0272 O   0  0  0  0  0  0  0  0  0  0  0  0
   -3.7736  -42.5432   19.5646 C   0  0  0  0  0  0  0  0  0  0  0  0
   -1.1160  -43.3874   20.6211 H   0  0  0  0  0  0  0  0  0  0  0  0
   -2.7468  -44.5590   20.8342 H   0  0  0  0  0  0  0  0  0  0  0  0
   -5.1490  -42.2846   19.0729 N   0  0  0  0  0  0  0  0  0  0  0  0
   -5.5911  -42.3931   17.8047 C   0  0  0  0  0  0  0  0  0  0  0  0
   -6.9028  -42.0464   17.7191 N   0  0  0  0  0  0  0  0  0  0  0  0
   -7.3126  -41.6952   18.9507 C   0  0  0  0  0  0  0  0  0  0  0  0
   -8.5728  -41.2232   19.5738 C   0  0  0  0  0  0  0  0  0  0  0  0
   -9.6043  -41.0649   18.8918 O   0  0  0  0  0  0  0  0  0  0  0  0
   -8.5779  -40.9696   20.8912 N   0  0  0  0  0  0  0  0  0  0  0  0
   -7.4748  -41.1321   21.6559 C   0  0  0  0  0  0  0  0  0  0  0  0
   -7.5425  -40.8598   22.9822 N   0  0  0  0  0  0  0  0  0  0  0  0
   -6.2886  -41.5587   21.1504 N   0  0  0  0  0  0  0  0  0  0  0  0
   -6.1499  -41.8495   19.8343 C   0  0  0  0  0  0  0  0  0  0  0  0
   -9.4098  -40.6559   21.3138 H   0  0  0  0  0  0  0  0  0  0  0  0
   -8.3884  -40.5488   23.3784 H   0  0  0  0  0  0  0  0  0  0  0  0
   -6.7457  -40.9731   23.5493 H   0  0  0  0  0  0  0  0  0  0  0  0
   -1.6156  -41.4588   17.1323 C   0  0  0  0  0  0  0  0  0  0  0  0
   -1.1333  -40.1187   17.0623 O   0  0  0  0  0  0  0  0  0  0  0  0
   -1.8907  -39.0534   16.1314 P   0  0  0  0  0  0  0  0  0  0  0  0
   -3.3732  -39.2193   16.3203 O   0  0  0  0  0  0  0  0  0  0  0  0
   -1.2964  -39.1302   14.7432 O   0  0  0  0  0  0  0  0  0  0  0  0
   -1.7424  -38.4920   14.1647 H   0  0  0  0  0  0  0  0  0  0  0  0
   -1.4362  -37.6803   16.8409 O   0  0  0  0  0  0  0  0  0  0  0  0
   -0.4440  -36.5899   16.1864 P   0  0  0  0  0  0  0  0  0  0  0  0
   -1.1918  -36.0083   15.0121 O   0  0  0  0  0  0  0  0  0  0  0  0
   -0.2424  -35.6340   17.3349 O   0  0  0  0  0  0  0  0  0  0  0  0
    0.7972  -37.3820   15.8434 O   0  0  0  0  0  0  0  0  0  0  0  0
    0.3500  -34.9172   17.0588 H   0  0  0  0  0  0  0  0  0  0  0  0
    1.4545  -36.7940   15.4395 H   0  0  0  0  0  0  0  0  0  0  0  0
 31 32  2  0  0  0
 31 33  1  0  0  0
 31 34  1  0  0  0
 31 30  1  0  0  0
 30 26  1  0  0  0
 26 27  2  0  0  0
 26 28  1  0  0  0
 26 25  1  0  0  0
 25 24  1  0  0  0
 24  1  1  0  0  0
  1  2  1  0  0  0
  1  3  1  0  0  0
  2  7  1  0  0  0
  3  4  1  0  0  0
  3  5  1  0  0  0
  5  6  1  0  0  0
  5  7  1  0  0  0
  7 10  1  0  0  0
 10 11  1  0  0  0
 10 20  1  0  0  0
 11 12  2  0  0  0
 12 13  1  0  0  0
 13 14  1  0  0  0
 13 20  2  0  0  0
 14 15  2  0  0  0
 14 16  1  0  0  0
 16 17  1  0  0  0
 17 18  1  0  0  0
 17 19  2  0  0  0
 19 20  1  0  0  0
 33 35  1  0  0  0
 34 36  1  0  0  0
 28 29  1  0  0  0
  4  8  1  0  0  0
  6  9  1  0  0  0
 16 21  1  0  0  0
 18 22  1  0  0  0
 18 23  1  0  0  0
M  END
> <minimizedAffinity>
-7.25519

$$$$
4NON_GDP_A_301


 36 38  0  0  0  0  0  0  0  0999 V2000
   -0.6122  -40.2060   14.7584 C   0  0  0  0  0  0  0  0  0  0  0  0
   -0.9571  -41.2844   15.6272 O   0  0  0  0  0  0  0  0  0  0  0  0
   -1.9145  -39.6084   14.2418 C   0  0  0  0  0  0  0  0  0  0  0  0
   -2.1348  -40.0127   12.8832 O   0  0  0  0  0  0  0  0  0  0  0  0
   -2.9954  -40.1560   15.1531 C   0  0  0  0  0  0  0  0  0  0  0  0
   -4.1733  -40.4909   14.4173 O   0  0  0  0  0  0  0  0  0  0  0  0
   -2.3761  -41.3981   15.7769 C   0  0  0  0  0  0  0  0  0  0  0  0
   -2.1525  -40.9812   12.8329 H   0  0  0  0  0  0  0  0  0  0  0  0
   -3.9529  -41.1421   13.7330 H   0  0  0  0  0  0  0  0  0  0  0  0
   -2.6568  -41.5746   17.2227 N   0  0  0  0  0  0  0  0  0  0  0  0
   -1.7577  -41.6073   18.2258 C   0  0  0  0  0  0  0  0  0  0  0  0
   -2.3731  -41.8173   19.4196 N   0  0  0  0  0  0  0  0  0  0  0  0
   -3.6916  -41.9354   19.1831 C   0  0  0  0  0  0  0  0  0  0  0  0
   -4.9146  -42.1693   19.9884 C   0  0  0  0  0  0  0  0  0  0  0  0
   -4.8493  -42.3130   21.2249 O   0  0  0  0  0  0  0  0  0  0  0  0
   -6.0959  -42.2230   19.3546 N   0  0  0  0  0  0  0  0  0  0  0  0
   -6.1973  -42.0707   18.0151 C   0  0  0  0  0  0  0  0  0  0  0  0
   -7.4196  -42.1347   17.4320 N   0  0  0  0  0  0  0  0  0  0  0  0
   -5.1190  -41.8560   17.2178 N   0  0  0  0  0  0  0  0  0  0  0  0
   -3.8683  -41.7802   17.7335 C   0  0  0  0  0  0  0  0  0  0  0  0
   -6.9134  -42.3779   19.8808 H   0  0  0  0  0  0  0  0  0  0  0  0
   -8.2205  -42.2892   17.9833 H   0  0  0  0  0  0  0  0  0  0  0  0
   -7.5063  -42.0265   16.4573 H   0  0  0  0  0  0  0  0  0  0  0  0
    0.2491  -39.2090   15.5221 C   0  0  0  0  0  0  0  0  0  0  0  0
   -0.5586  -38.3462   16.3201 O   0  0  0  0  0  0  0  0  0  0  0  0
   -0.4861  -36.7596   16.0910 P   0  0  0  0  0  0  0  0  0  0  0  0
   -0.4864  -36.0804   17.4325 O   0  0  0  0  0  0  0  0  0  0  0  0
   -1.5228  -36.3823   15.0570 O   0  0  0  0  0  0  0  0  0  0  0  0
   -1.4941  -35.4248   14.9047 H   0  0  0  0  0  0  0  0  0  0  0  0
    0.9878  -36.6304   15.4537 O   0  0  0  0  0  0  0  0  0  0  0  0
    1.5856  -35.2927   14.7791 P   0  0  0  0  0  0  0  0  0  0  0  0
    0.7193  -35.0192   13.5743 O   0  0  0  0  0  0  0  0  0  0  0  0
    1.4337  -34.2936   15.8981 O   0  0  0  0  0  0  0  0  0  0  0  0
    3.0259  -35.6431   14.4822 O   0  0  0  0  0  0  0  0  0  0  0  0
    1.7661  -33.4298   15.6076 H   0  0  0  0  0  0  0  0  0  0  0  0
    3.4651  -34.8831   14.0694 H   0  0  0  0  0  0  0  0  0  0  0  0
 31 32  2  0  0  0
 31 33  1  0  0  0
 31 34  1  0  0  0
 31 30  1  0  0  0
 30 26  1  0  0  0
 26 27  2  0  0  0
 26 28  1  0  0  0
 26 25  1  0  0  0
 25 24  1  0  0  0
 24  1  1  0  0  0
  1  2  1  0  0  0
  1  3  1  0  0  0
  2  7  1  0  0  0
  3  4  1  0  0  0
  3  5  1  0  0  0
  5  6  1  0  0  0
  5  7  1  0  0  0
  7 10  1  0  0  0
 10 11  1  0  0  0
 10 20  1  0  0  0
 11 12  2  0  0  0
 12 13  1  0  0  0
 13 14  1  0  0  0
 13 20  2  0  0  0
 14 15  2  0  0  0
 14 16  1  0  0  0
 16 17  1  0  0  0
 17 18  1  0  0  0
 17 19  2  0  0  0
 19 20  1  0  0  0
 33 35  1  0  0  0
 34 36  1  0  0  0
 28 29  1  0  0  0
  4  8  1  0  0  0
  6  9  1  0  0  0
 16 21  1  0  0  0
 18 22  1  0  0  0
 18 23  1  0  0  0
M  END
> <minimizedAffinity>
-7.19330

$$$$
4NON_GDP_A_301


 36 38  0  0  0  0  0  0  0  0999 V2000
   -3.4143  -42.1039   18.3686 C   0  0  0  0  0  0  0  0  0  0  0  0
   -4.1690  -41.9496   19.5701 O   0  0  0  0  0  0  0  0  0  0  0  0
   -4.3619  -42.6474   17.3072 C   0  0  0  0  0  0  0  0  0  0  0  0
   -4.1070  -44.0423   17.0900 O   0  0  0  0  0  0  0  0  0  0  0  0
   -5.7548  -42.4307   17.8652 C   0  0  0  0  0  0  0  0  0  0  0  0
   -6.6065  -43.5416   17.5797 O   0  0  0  0  0  0  0  0  0  0  0  0
   -5.5464  -42.2806   19.3651 C   0  0  0  0  0  0  0  0  0  0  0  0
   -4.2085  -44.5235   17.9261 H   0  0  0  0  0  0  0  0  0  0  0  0
   -6.2201  -44.3494   17.9525 H   0  0  0  0  0  0  0  0  0  0  0  0
   -6.3582  -41.2156   20.0030 N   0  0  0  0  0  0  0  0  0  0  0  0
   -6.4691  -39.9325   19.6065 C   0  0  0  0  0  0  0  0  0  0  0  0
   -7.2754  -39.2344   20.4493 N   0  0  0  0  0  0  0  0  0  0  0  0
   -7.6828  -40.0771   21.4147 C   0  0  0  0  0  0  0  0  0  0  0  0
   -8.5431  -40.0004   22.6202 C   0  0  0  0  0  0  0  0  0  0  0  0
   -9.0989  -38.9325   22.9434 O   0  0  0  0  0  0  0  0  0  0  0  0
   -8.7101  -41.1091   23.3571 N   0  0  0  0  0  0  0  0  0  0  0  0
   -8.1201  -42.2811   23.0311 C   0  0  0  0  0  0  0  0  0  0  0  0
   -8.3274  -43.3674   23.8152 N   0  0  0  0  0  0  0  0  0  0  0  0
   -7.3192  -42.4211   21.9433 N   0  0  0  0  0  0  0  0  0  0  0  0
   -7.0693  -41.3775   21.1161 C   0  0  0  0  0  0  0  0  0  0  0  0
   -9.2795  -41.0680   24.1592 H   0  0  0  0  0  0  0  0  0  0  0  0
   -8.9031  -43.2976   24.6109 H   0  0  0  0  0  0  0  0  0  0  0  0
   -7.9024  -44.2262   23.5890 H   0  0  0  0  0  0  0  0  0  0  0  0
   -2.7944  -40.7638   17.9960 C   0  0  0  0  0  0  0  0  0  0  0  0
   -3.4021  -40.2319   16.8208 O   0  0  0  0  0  0  0  0  0  0  0  0
   -2.7564  -38.9467   16.1091 P   0  0  0  0  0  0  0  0  0  0  0  0
   -1.5648  -38.5019   16.9111 O   0  0  0  0  0  0  0  0  0  0  0  0
   -3.8663  -37.9661   15.8046 O   0  0  0  0  0  0  0  0  0  0  0  0
   -3.4947  -37.1808   15.3732 H   0  0  0  0  0  0  0  0  0  0  0  0
   -2.2304  -39.6130   14.7399 O   0  0  0  0  0  0  0  0  0  0  0  0
   -3.0714  -40.6542   13.8397 P   0  0  0  0  0  0  0  0  0  0  0  0
   -2.5984  -40.4454   12.4222 O   0  0  0  0  0  0  0  0  0  0  0  0
   -2.6681  -41.9748   14.4453 O   0  0  0  0  0  0  0  0  0  0  0  0
   -4.5139  -40.2897   14.1077 O   0  0  0  0  0  0  0  0  0  0  0  0
   -3.1188  -42.6957   13.9784 H   0  0  0  0  0  0  0  0  0  0  0  0
   -5.0954  -40.8755   13.5983 H   0  0  0  0  0  0  0  0  0  0  0  0
 31 32  2  0  0  0
 31 33  1  0  0  0
 31 34  1  0  0  0
 31 30  1  0  0  0
 30 26  1  0  0  0
 26 27  2  0  0  0
 26 28  1  0  0  0
 26 25  1  0  0  0
 25 24  1  0  0  0
 24  1  1  0  0  0
  1  2  1  0  0  0
  1  3  1  0  0  0
  2  7  1  0  0  0
  3  4  1  0  0  0
  3  5  1  0  0  0
  5  6  1  0  0  0
  5  7  1  0  0  0
  7 10  1  0  0  0
 10 11  1  0  0  0
 10 20  1  0  0  0
 11 12  2  0  0  0
 12 13  1  0  0  0
 13 14  1  0  0  0
 13 20  2  0  0  0
 14 15  2  0  0  0
 14 16  1  0  0  0
 16 17  1  0  0  0
 17 18  1  0  0  0
 17 19  2  0  0  0
 19 20  1  0  0  0
 33 35  1  0  0  0
 34 36  1  0  0  0
 28 29  1  0  0  0
  4  8  1  0  0  0
  6  9  1  0  0  0
 16 21  1  0  0  0
 18 22  1  0  0  0
 18 23  1  0  0  0
M  END
> <minimizedAffinity>
-7.09810

$$$$
4NON_GDP_A_301


 36 38  0  0  0  0  0  0  0  0999 V2000
   -3.4667  -42.1047   17.6321 C   0  0  0  0  0  0  0  0  0  0  0  0
   -3.4082  -41.2063   16.5246 O   0  0  0  0  0  0  0  0  0  0  0  0
   -2.0514  -42.6113   17.8775 C   0  0  0  0  0  0  0  0  0  0  0  0
   -1.9217  -43.9566   17.3968 O   0  0  0  0  0  0  0  0  0  0  0  0
   -1.1493  -41.6694   17.1045 C   0  0  0  0  0  0  0  0  0  0  0  0
   -0.0817  -42.3768   16.4714 O   0  0  0  0  0  0  0  0  0  0  0  0
   -2.0627  -41.0293   16.0693 C   0  0  0  0  0  0  0  0  0  0  0  0
   -2.1425  -43.9853   16.4527 H   0  0  0  0  0  0  0  0  0  0  0  0
   -0.4478  -43.0503   15.8771 H   0  0  0  0  0  0  0  0  0  0  0  0
   -1.8509  -39.5752   15.8663 N   0  0  0  0  0  0  0  0  0  0  0  0
   -2.7857  -38.6056   15.9072 C   0  0  0  0  0  0  0  0  0  0  0  0
   -2.2342  -37.3915   15.6432 N   0  0  0  0  0  0  0  0  0  0  0  0
   -0.9226  -37.5807   15.4150 C   0  0  0  0  0  0  0  0  0  0  0  0
    0.2461  -36.7328   15.0768 C   0  0  0  0  0  0  0  0  0  0  0  0
    0.1238  -35.5002   14.9363 O   0  0  0  0  0  0  0  0  0  0  0  0
    1.4411  -37.3236   14.9253 N   0  0  0  0  0  0  0  0  0  0  0  0
    1.6039  -38.6577   15.0716 C   0  0  0  0  0  0  0  0  0  0  0  0
    2.8370  -39.1964   14.9063 N   0  0  0  0  0  0  0  0  0  0  0  0
    0.5774  -39.4924   15.3784 N   0  0  0  0  0  0  0  0  0  0  0  0
   -0.6805  -39.0220   15.5582 C   0  0  0  0  0  0  0  0  0  0  0  0
    2.2229  -36.7689   14.7008 H   0  0  0  0  0  0  0  0  0  0  0  0
    3.6013  -38.6173   14.6834 H   0  0  0  0  0  0  0  0  0  0  0  0
    2.9681  -40.1668   15.0090 H   0  0  0  0  0  0  0  0  0  0  0  0
   -4.0647  -41.3783   18.8296 C   0  0  0  0  0  0  0  0  0  0  0  0
   -5.3432  -40.8348   18.5077 O   0  0  0  0  0  0  0  0  0  0  0  0
   -6.6511  -41.7540   18.6479 P   0  0  0  0  0  0  0  0  0  0  0  0
   -6.3649  -42.8482   19.6388 O   0  0  0  0  0  0  0  0  0  0  0  0
   -7.1347  -42.1049   17.2589 O   0  0  0  0  0  0  0  0  0  0  0  0
   -7.9265  -42.6615   17.3233 H   0  0  0  0  0  0  0  0  0  0  0  0
   -7.6666  -40.7035   19.3266 O   0  0  0  0  0  0  0  0  0  0  0  0
   -7.4081  -39.9459   20.7270 P   0  0  0  0  0  0  0  0  0  0  0  0
   -6.8777  -38.5811   20.3626 O   0  0  0  0  0  0  0  0  0  0  0  0
   -8.7906  -39.9390   21.3289 O   0  0  0  0  0  0  0  0  0  0  0  0
   -6.4417  -40.8482   21.4599 O   0  0  0  0  0  0  0  0  0  0  0  0
   -8.7646  -39.4998   22.1934 H   0  0  0  0  0  0  0  0  0  0  0  0
   -6.2304  -40.4617   22.3241 H   0  0  0  0  0  0  0  0  0  0  0  0
 31 32  2  0  0  0
 31 33  1  0  0  0
 31 34  1  0  0  0
 31 30  1  0  0  0
 30 26  1  0  0  0
 26 27  2  0  0  0
 26 28  1  0  0  0
 26 25  1  0  0  0
 25 24  1  0  0  0
 24  1  1  0  0  0
  1  2  1  0  0  0
  1  3  1  0  0  0
  2  7  1  0  0  0
  3  4  1  0  0  0
  3  5  1  0  0  0
  5  6  1  0  0  0
  5  7  1  0  0  0
  7 10  1  0  0  0
 10 11  1  0  0  0
 10 20  1  0  0  0
 11 12  2  0  0  0
 12 13  1  0  0  0
 13 14  1  0  0  0
 13 20  2  0  0  0
 14 15  2  0  0  0
 14 16  1  0  0  0
 16 17  1  0  0  0
 17 18  1  0  0  0
 17 19  2  0  0  0
 19 20  1  0  0  0
 33 35  1  0  0  0
 34 36  1  0  0  0
 28 29  1  0  0  0
  4  8  1  0  0  0
  6  9  1  0  0  0
 16 21  1  0  0  0
 18 22  1  0  0  0
 18 23  1  0  0  0
M  END
> <minimizedAffinity>
-6.77515

$$$$
4NON_GDP_A_301


 36 38  0  0  0  0  0  0  0  0999 V2000
   -1.1920  -42.0645   16.1685 C   0  0  0  0  0  0  0  0  0  0  0  0
   -2.0894  -42.4166   17.2209 O   0  0  0  0  0  0  0  0  0  0  0  0
   -1.9152  -42.3229   14.8532 C   0  0  0  0  0  0  0  0  0  0  0  0
   -1.4134  -43.5213   14.2448 O   0  0  0  0  0  0  0  0  0  0  0  0
   -3.3777  -42.4735   15.2233 C   0  0  0  0  0  0  0  0  0  0  0  0
   -3.9996  -43.5135   14.4666 O   0  0  0  0  0  0  0  0  0  0  0  0
   -3.3632  -42.8178   16.7055 C   0  0  0  0  0  0  0  0  0  0  0  0
   -1.5265  -44.2659   14.8560 H   0  0  0  0  0  0  0  0  0  0  0  0
   -3.5299  -44.3486   14.6178 H   0  0  0  0  0  0  0  0  0  0  0  0
   -4.4034  -42.1354   17.5134 N   0  0  0  0  0  0  0  0  0  0  0  0
   -4.2184  -41.1330   18.3946 C   0  0  0  0  0  0  0  0  0  0  0  0
   -5.3951  -40.7762   18.9743 N   0  0  0  0  0  0  0  0  0  0  0  0
   -6.3556  -41.5700   18.4688 C   0  0  0  0  0  0  0  0  0  0  0  0
   -7.8188  -41.7366   18.6429 C   0  0  0  0  0  0  0  0  0  0  0  0
   -8.4553  -41.0167   19.4370 O   0  0  0  0  0  0  0  0  0  0  0  0
   -8.4438  -42.6819   17.9247 N   0  0  0  0  0  0  0  0  0  0  0  0
   -7.7797  -43.4772   17.0561 C   0  0  0  0  0  0  0  0  0  0  0  0
   -8.4669  -44.4146   16.3582 N   0  0  0  0  0  0  0  0  0  0  0  0
   -6.4409  -43.3801   16.8495 N   0  0  0  0  0  0  0  0  0  0  0  0
   -5.6925  -42.4656   17.5123 C   0  0  0  0  0  0  0  0  0  0  0  0
   -9.4151  -42.8000   18.0334 H   0  0  0  0  0  0  0  0  0  0  0  0
   -9.4385  -44.5094   16.4860 H   0  0  0  0  0  0  0  0  0  0  0  0
   -7.9944  -45.0005   15.7236 H   0  0  0  0  0  0  0  0  0  0  0  0
   -0.7621  -40.6144   16.3470 C   0  0  0  0  0  0  0  0  0  0  0  0
   -1.8767  -39.7920   16.6857 O   0  0  0  0  0  0  0  0  0  0  0  0
   -2.2720  -38.5638   15.7315 P   0  0  0  0  0  0  0  0  0  0  0  0
   -3.7649  -38.3881   15.7690 O   0  0  0  0  0  0  0  0  0  0  0  0
   -1.5697  -38.7491   14.4054 O   0  0  0  0  0  0  0  0  0  0  0  0
   -1.7969  -38.0147   13.8138 H   0  0  0  0  0  0  0  0  0  0  0  0
   -1.5942  -37.3456   16.5389 O   0  0  0  0  0  0  0  0  0  0  0  0
   -0.3383  -36.4793   16.0152 P   0  0  0  0  0  0  0  0  0  0  0  0
   -0.8172  -35.7753   14.7695 O   0  0  0  0  0  0  0  0  0  0  0  0
   -0.0858  -35.5686   17.1901 O   0  0  0  0  0  0  0  0  0  0  0  0
    0.7538  -37.5039   15.8078 O   0  0  0  0  0  0  0  0  0  0  0  0
    0.6637  -34.9857   16.9921 H   0  0  0  0  0  0  0  0  0  0  0  0
    1.5559  -37.0615   15.4888 H   0  0  0  0  0  0  0  0  0  0  0  0
 31 32  2  0  0  0
 31 33  1  0  0  0
 31 34  1  0  0  0
 31 30  1  0  0  0
 30 26  1  0  0  0
 26 27  2  0  0  0
 26 28  1  0  0  0
 26 25  1  0  0  0
 25 24  1  0  0  0
 24  1  1  0  0  0
  1  2  1  0  0  0
  1  3  1  0  0  0
  2  7  1  0  0  0
  3  4  1  0  0  0
  3  5  1  0  0  0
  5  6  1  0  0  0
  5  7  1  0  0  0
  7 10  1  0  0  0
 10 11  1  0  0  0
 10 20  1  0  0  0
 11 12  2  0  0  0
 12 13  1  0  0  0
 13 14  1  0  0  0
 13 20  2  0  0  0
 14 15  2  0  0  0
 14 16  1  0  0  0
 16 17  1  0  0  0
 17 18  1  0  0  0
 17 19  2  0  0  0
 19 20  1  0  0  0
 33 35  1  0  0  0
 34 36  1  0  0  0
 28 29  1  0  0  0
  4  8  1  0  0  0
  6  9  1  0  0  0
 16 21  1  0  0  0
 18 22  1  0  0  0
 18 23  1  0  0  0
M  END
> <minimizedAffinity>
-6.75289

$$$$
4NON_GDP_A_301


 36 38  0  0  0  0  0  0  0  0999 V2000
   -3.4446  -41.8287   18.0114 C   0  0  0  0  0  0  0  0  0  0  0  0
   -3.8490  -42.1851   19.3329 O   0  0  0  0  0  0  0  0  0  0  0  0
   -4.2332  -42.7047   17.0466 C   0  0  0  0  0  0  0  0  0  0  0  0
   -3.3888  -43.7381   16.5204 O   0  0  0  0  0  0  0  0  0  0  0  0
   -5.3615  -43.2929   17.8708 C   0  0  0  0  0  0  0  0  0  0  0  0
   -5.5967  -44.6595   17.5273 O   0  0  0  0  0  0  0  0  0  0  0  0
   -4.8860  -43.1715   19.3112 C   0  0  0  0  0  0  0  0  0  0  0  0
   -3.0273  -44.2637   17.2512 H   0  0  0  0  0  0  0  0  0  0  0  0
   -4.7837  -45.1713   17.6620 H   0  0  0  0  0  0  0  0  0  0  0  0
   -5.9272  -42.7417   20.2764 N   0  0  0  0  0  0  0  0  0  0  0  0
   -6.5673  -43.5135   21.1765 C   0  0  0  0  0  0  0  0  0  0  0  0
   -7.4815  -42.7870   21.8725 N   0  0  0  0  0  0  0  0  0  0  0  0
   -7.4410  -41.5266   21.4058 C   0  0  0  0  0  0  0  0  0  0  0  0
   -8.1387  -40.2491   21.6892 C   0  0  0  0  0  0  0  0  0  0  0  0
   -9.0201  -40.1821   22.5681 O   0  0  0  0  0  0  0  0  0  0  0  0
   -7.7991  -39.1643   20.9766 N   0  0  0  0  0  0  0  0  0  0  0  0
   -6.8473  -39.2068   20.0174 C   0  0  0  0  0  0  0  0  0  0  0  0
   -6.5477  -38.0766   19.3311 N   0  0  0  0  0  0  0  0  0  0  0  0
   -6.1712  -40.3426   19.7052 N   0  0  0  0  0  0  0  0  0  0  0  0
   -6.4192  -41.5076   20.3512 C   0  0  0  0  0  0  0  0  0  0  0  0
   -8.2568  -38.3116   21.1576 H   0  0  0  0  0  0  0  0  0  0  0  0
   -7.0205  -37.2374   19.5344 H   0  0  0  0  0  0  0  0  0  0  0  0
   -5.8573  -38.0952   18.6295 H   0  0  0  0  0  0  0  0  0  0  0  0
   -3.6802  -40.3384   17.8049 C   0  0  0  0  0  0  0  0  0  0  0  0
   -2.4453  -39.6254   17.7943 O   0  0  0  0  0  0  0  0  0  0  0  0
   -1.9966  -38.8410   16.4682 P   0  0  0  0  0  0  0  0  0  0  0  0
   -3.1985  -38.1441   15.8928 O   0  0  0  0  0  0  0  0  0  0  0  0
   -1.1926  -39.7883   15.6065 O   0  0  0  0  0  0  0  0  0  0  0  0
   -0.9119  -39.3311   14.7984 H   0  0  0  0  0  0  0  0  0  0  0  0
   -1.0213  -37.7307   17.1097 O   0  0  0  0  0  0  0  0  0  0  0  0
   -0.3120  -36.5403   16.2840 P   0  0  0  0  0  0  0  0  0  0  0  0
    0.9791  -37.1185   15.7592 O   0  0  0  0  0  0  0  0  0  0  0  0
   -1.3434  -36.2492   15.2234 O   0  0  0  0  0  0  0  0  0  0  0  0
   -0.1657  -35.4275   17.2967 O   0  0  0  0  0  0  0  0  0  0  0  0
   -1.0251  -35.5340   14.6506 H   0  0  0  0  0  0  0  0  0  0  0  0
    0.2580  -34.6623   16.8773 H   0  0  0  0  0  0  0  0  0  0  0  0
 31 32  2  0  0  0
 31 33  1  0  0  0
 31 34  1  0  0  0
 31 30  1  0  0  0
 30 26  1  0  0  0
 26 27  2  0  0  0
 26 28  1  0  0  0
 26 25  1  0  0  0
 25 24  1  0  0  0
 24  1  1  0  0  0
  1  2  1  0  0  0
  1  3  1  0  0  0
  2  7  1  0  0  0
  3  4  1  0  0  0
  3  5  1  0  0  0
  5  6  1  0  0  0
  5  7  1  0  0  0
  7 10  1  0  0  0
 10 11  1  0  0  0
 10 20  1  0  0  0
 11 12  2  0  0  0
 12 13  1  0  0  0
 13 14  1  0  0  0
 13 20  2  0  0  0
 14 15  2  0  0  0
 14 16  1  0  0  0
 16 17  1  0  0  0
 17 18  1  0  0  0
 17 19  2  0  0  0
 19 20  1  0  0  0
 33 35  1  0  0  0
 34 36  1  0  0  0
 28 29  1  0  0  0
  4  8  1  0  0  0
  6  9  1  0  0  0
 16 21  1  0  0  0
 18 22  1  0  0  0
 18 23  1  0  0  0
M  END
> <minimizedAffinity>
-6.74924

$$$$
