1NW4_IMH_A_301


 25 27  0  0  0  0  0  0  0  0999 V2000
    6.8197    0.9840   88.9526 C   0  0  0  0  0  0  0  0  0  0  0  0
    7.2806    2.2383   89.4465 N   0  0  0  0  0  0  0  0  0  0  0  0
    7.8198   -0.0566   89.3571 C   0  0  0  0  0  0  0  0  0  0  0  0
    8.6647   -0.2522   88.2162 O   0  0  0  0  0  0  0  0  0  0  0  0
    8.5221    0.5887   90.5082 C   0  0  0  0  0  0  0  0  0  0  0  0
    9.9222    0.2876   90.4749 O   0  0  0  0  0  0  0  0  0  0  0  0
    8.2917    2.1108   90.4353 C   0  0  0  0  0  0  0  0  0  0  0  0
    6.4895    2.7371   89.8537 H   0  0  0  0  0  0  0  0  0  0  0  0
    9.0260    0.6018   87.9313 H   0  0  0  0  0  0  0  0  0  0  0  0
   10.3050    0.6207   89.6482 H   0  0  0  0  0  0  0  0  0  0  0  0
    7.7024    2.6933   91.7332 C   0  0  0  0  0  0  0  0  0  0  0  0
    6.8382    2.0102   92.5858 C   0  0  0  0  0  0  0  0  0  0  0  0
    6.4479    2.6843   93.6417 N   0  0  0  0  0  0  0  0  0  0  0  0
    7.0785    3.9188   93.5296 C   0  0  0  0  0  0  0  0  0  0  0  0
    7.0154    5.0643   94.4029 C   0  0  0  0  0  0  0  0  0  0  0  0
    6.3696    5.1651   95.4525 O   0  0  0  0  0  0  0  0  0  0  0  0
    7.7986    6.1514   93.9579 N   0  0  0  0  0  0  0  0  0  0  0  0
    8.5688    6.1441   92.7868 C   0  0  0  0  0  0  0  0  0  0  0  0
    8.6303    5.0571   91.9524 N   0  0  0  0  0  0  0  0  0  0  0  0
    7.8615    3.9662   92.3678 C   0  0  0  0  0  0  0  0  0  0  0  0
    5.8417    2.3825   94.3563 H   0  0  0  0  0  0  0  0  0  0  0  0
    5.8482    4.4468   95.7525 H   0  0  0  0  0  0  0  0  0  0  0  0
    5.2885   -0.7511   89.3947 O   0  0  0  0  0  0  0  0  0  0  0  0
    5.4659    0.6594   89.4696 C   0  0  0  0  0  0  0  0  0  0  0  0
    4.4081   -0.9844   89.7286 H   0  0  0  0  0  0  0  0  0  0  0  0
 23 24  1  0  0  0
 24  1  1  0  0  0
  1  2  1  0  0  0
  1  3  1  0  0  0
  2  7  1  0  0  0
  3  4  1  0  0  0
  3  5  1  0  0  0
  5  6  1  0  0  0
  5  7  1  0  0  0
  7 11  1  0  0  0
 11 12  2  0  0  0
 11 20  1  0  0  0
 12 13  1  0  0  0
 13 14  1  0  0  0
 14 15  1  0  0  0
 14 20  2  0  0  0
 15 16  1  0  0  0
 15 17  2  0  0  0
 17 18  1  0  0  0
 18 19  2  0  0  0
 19 20  1  0  0  0
 23 25  1  0  0  0
  2  8  1  0  0  0
  4  9  1  0  0  0
  6 10  1  0  0  0
 13 21  1  0  0  0
 16 22  1  0  0  0
M  END
> <minimizedAffinity>
-9.67167

$$$$
1NW4_IMH_A_301


 25 27  0  0  0  0  0  0  0  0999 V2000
    8.7336    1.1735   92.5133 C   0  0  0  0  0  0  0  0  0  0  0  0
    7.6709    2.0929   92.2790 N   0  0  0  0  0  0  0  0  0  0  0  0
    9.8208    1.4777   91.5274 C   0  0  0  0  0  0  0  0  0  0  0  0
    9.6465    0.5463   90.4524 O   0  0  0  0  0  0  0  0  0  0  0  0
    9.5282    2.8909   91.1374 C   0  0  0  0  0  0  0  0  0  0  0  0
    9.7691    3.0859   89.7389 O   0  0  0  0  0  0  0  0  0  0  0  0
    8.0598    3.2040   91.4847 C   0  0  0  0  0  0  0  0  0  0  0  0
    7.3364    2.4383   93.1786 H   0  0  0  0  0  0  0  0  0  0  0  0
    8.7373    0.6034   90.1193 H   0  0  0  0  0  0  0  0  0  0  0  0
    9.1956    2.4947   89.2265 H   0  0  0  0  0  0  0  0  0  0  0  0
    7.9046    4.4487   92.3779 C   0  0  0  0  0  0  0  0  0  0  0  0
    6.6889    4.9326   92.8560 C   0  0  0  0  0  0  0  0  0  0  0  0
    6.7715    6.0082   93.6028 N   0  0  0  0  0  0  0  0  0  0  0  0
    8.1302    6.3000   93.6585 C   0  0  0  0  0  0  0  0  0  0  0  0
    8.8109    7.3763   94.3346 C   0  0  0  0  0  0  0  0  0  0  0  0
    8.2964    8.2693   95.0177 O   0  0  0  0  0  0  0  0  0  0  0  0
   10.2118    7.3492   94.1615 N   0  0  0  0  0  0  0  0  0  0  0  0
   10.8973    6.3839   93.4110 C   0  0  0  0  0  0  0  0  0  0  0  0
   10.2535    5.3594   92.7649 N   0  0  0  0  0  0  0  0  0  0  0  0
    8.8641    5.3634   92.9173 C   0  0  0  0  0  0  0  0  0  0  0  0
    6.0338    6.5006   94.0299 H   0  0  0  0  0  0  0  0  0  0  0  0
    7.3672    8.2922   95.1359 H   0  0  0  0  0  0  0  0  0  0  0  0
    8.1874    1.7859   94.7218 O   0  0  0  0  0  0  0  0  0  0  0  0
    9.2324    1.2622   93.9093 C   0  0  0  0  0  0  0  0  0  0  0  0
    8.4937    1.8519   95.6398 H   0  0  0  0  0  0  0  0  0  0  0  0
 23 24  1  0  0  0
 24  1  1  0  0  0
  1  2  1  0  0  0
  1  3  1  0  0  0
  2  7  1  0  0  0
  3  4  1  0  0  0
  3  5  1  0  0  0
  5  6  1  0  0  0
  5  7  1  0  0  0
  7 11  1  0  0  0
 11 12  2  0  0  0
 11 20  1  0  0  0
 12 13  1  0  0  0
 13 14  1  0  0  0
 14 15  1  0  0  0
 14 20  2  0  0  0
 15 16  1  0  0  0
 15 17  2  0  0  0
 17 18  1  0  0  0
 18 19  2  0  0  0
 19 20  1  0  0  0
 23 25  1  0  0  0
  2  8  1  0  0  0
  4  9  1  0  0  0
  6 10  1  0  0  0
 13 21  1  0  0  0
 16 22  1  0  0  0
M  END
> <minimizedAffinity>
-9.41784

$$$$
1NW4_IMH_A_301


 25 27  0  0  0  0  0  0  0  0999 V2000
    7.5024    5.1398   92.9200 C   0  0  0  0  0  0  0  0  0  0  0  0
    6.8640    4.0853   92.2059 N   0  0  0  0  0  0  0  0  0  0  0  0
    7.6214    4.7100   94.3510 C   0  0  0  0  0  0  0  0  0  0  0  0
    6.5161    5.3138   95.0345 O   0  0  0  0  0  0  0  0  0  0  0  0
    7.5171    3.2215   94.2594 C   0  0  0  0  0  0  0  0  0  0  0  0
    6.7538    2.7033   95.3553 O   0  0  0  0  0  0  0  0  0  0  0  0
    6.8565    2.8556   92.9160 C   0  0  0  0  0  0  0  0  0  0  0  0
    7.3558    3.9472   91.3229 H   0  0  0  0  0  0  0  0  0  0  0  0
    5.6899    5.0792   94.5837 H   0  0  0  0  0  0  0  0  0  0  0  0
    5.8608    3.0815   95.3347 H   0  0  0  0  0  0  0  0  0  0  0  0
    7.6951    1.8699   92.0815 C   0  0  0  0  0  0  0  0  0  0  0  0
    8.9096    1.3227   92.4888 C   0  0  0  0  0  0  0  0  0  0  0  0
    9.4676    0.5021   91.6304 N   0  0  0  0  0  0  0  0  0  0  0  0
    8.5909    0.4647   90.5515 C   0  0  0  0  0  0  0  0  0  0  0  0
    8.6894   -0.2682   89.3137 C   0  0  0  0  0  0  0  0  0  0  0  0
    9.6013   -1.0293   88.9702 O   0  0  0  0  0  0  0  0  0  0  0  0
    7.5959   -0.0531   88.4470 N   0  0  0  0  0  0  0  0  0  0  0  0
    6.5105    0.7854   88.7365 C   0  0  0  0  0  0  0  0  0  0  0  0
    6.4137    1.4856   89.9120 N   0  0  0  0  0  0  0  0  0  0  0  0
    7.4852    1.2932   90.7886 C   0  0  0  0  0  0  0  0  0  0  0  0
   10.3198    0.0189   91.7286 H   0  0  0  0  0  0  0  0  0  0  0  0
   10.3295   -1.1757   89.5414 H   0  0  0  0  0  0  0  0  0  0  0  0
    9.2990    6.6637   92.9453 O   0  0  0  0  0  0  0  0  0  0  0  0
    8.8320    5.4618   92.3422 C   0  0  0  0  0  0  0  0  0  0  0  0
   10.1684    6.8919   92.5806 H   0  0  0  0  0  0  0  0  0  0  0  0
 23 24  1  0  0  0
 24  1  1  0  0  0
  1  2  1  0  0  0
  1  3  1  0  0  0
  2  7  1  0  0  0
  3  4  1  0  0  0
  3  5  1  0  0  0
  5  6  1  0  0  0
  5  7  1  0  0  0
  7 11  1  0  0  0
 11 12  2  0  0  0
 11 20  1  0  0  0
 12 13  1  0  0  0
 13 14  1  0  0  0
 14 15  1  0  0  0
 14 20  2  0  0  0
 15 16  1  0  0  0
 15 17  2  0  0  0
 17 18  1  0  0  0
 18 19  2  0  0  0
 19 20  1  0  0  0
 23 25  1  0  0  0
  2  8  1  0  0  0
  4  9  1  0  0  0
  6 10  1  0  0  0
 13 21  1  0  0  0
 16 22  1  0  0  0
M  END
> <minimizedAffinity>
-9.39749

$$$$
1NW4_IMH_A_301


 25 27  0  0  0  0  0  0  0  0999 V2000
    6.5424    2.9824   93.4025 C   0  0  0  0  0  0  0  0  0  0  0  0
    6.7765    4.2721   92.8446 N   0  0  0  0  0  0  0  0  0  0  0  0
    7.4465    2.0148   92.7003 C   0  0  0  0  0  0  0  0  0  0  0  0
    6.6456    1.3961   91.6858 O   0  0  0  0  0  0  0  0  0  0  0  0
    8.5163    2.9014   92.1490 C   0  0  0  0  0  0  0  0  0  0  0  0
    8.9115    2.4602   90.8447 O   0  0  0  0  0  0  0  0  0  0  0  0
    7.9803    4.3453   92.0949 C   0  0  0  0  0  0  0  0  0  0  0  0
    6.8258    4.9505   93.6047 H   0  0  0  0  0  0  0  0  0  0  0  0
    6.2384    2.0811   91.1327 H   0  0  0  0  0  0  0  0  0  0  0  0
    8.1462    2.4856   90.2492 H   0  0  0  0  0  0  0  0  0  0  0  0
    8.8857    5.3516   92.8290 C   0  0  0  0  0  0  0  0  0  0  0  0
   10.2774    5.3539   92.7684 C   0  0  0  0  0  0  0  0  0  0  0  0
   10.8646    6.2960   93.4679 N   0  0  0  0  0  0  0  0  0  0  0  0
    9.8228    7.0052   94.0559 C   0  0  0  0  0  0  0  0  0  0  0  0
    9.8710    8.1463   94.9361 C   0  0  0  0  0  0  0  0  0  0  0  0
   10.8823    8.7296   95.3433 O   0  0  0  0  0  0  0  0  0  0  0  0
    8.5951    8.5988   95.3366 N   0  0  0  0  0  0  0  0  0  0  0  0
    7.3864    8.0140   94.9342 C   0  0  0  0  0  0  0  0  0  0  0  0
    7.3361    6.9275   94.0984 N   0  0  0  0  0  0  0  0  0  0  0  0
    8.5864    6.4564   93.6880 C   0  0  0  0  0  0  0  0  0  0  0  0
   11.8306    6.4640   93.5568 H   0  0  0  0  0  0  0  0  0  0  0  0
   11.7316    8.4336   95.0806 H   0  0  0  0  0  0  0  0  0  0  0  0
    6.4159    4.2487   95.3852 O   0  0  0  0  0  0  0  0  0  0  0  0
    6.7781    2.9725   94.8687 C   0  0  0  0  0  0  0  0  0  0  0  0
    6.5627    4.2630   96.3440 H   0  0  0  0  0  0  0  0  0  0  0  0
 23 24  1  0  0  0
 24  1  1  0  0  0
  1  2  1  0  0  0
  1  3  1  0  0  0
  2  7  1  0  0  0
  3  4  1  0  0  0
  3  5  1  0  0  0
  5  6  1  0  0  0
  5  7  1  0  0  0
  7 11  1  0  0  0
 11 12  2  0  0  0
 11 20  1  0  0  0
 12 13  1  0  0  0
 13 14  1  0  0  0
 14 15  1  0  0  0
 14 20  2  0  0  0
 15 16  1  0  0  0
 15 17  2  0  0  0
 17 18  1  0  0  0
 18 19  2  0  0  0
 19 20  1  0  0  0
 23 25  1  0  0  0
  2  8  1  0  0  0
  4  9  1  0  0  0
  6 10  1  0  0  0
 13 21  1  0  0  0
 16 22  1  0  0  0
M  END
> <minimizedAffinity>
-8.85176

$$$$
1NW4_IMH_A_301


 25 27  0  0  0  0  0  0  0  0999 V2000
    6.5592    2.9224   93.4228 C   0  0  0  0  0  0  0  0  0  0  0  0
    6.3462    4.3064   93.1609 N   0  0  0  0  0  0  0  0  0  0  0  0
    7.6554    2.4535   92.5145 C   0  0  0  0  0  0  0  0  0  0  0  0
    7.0020    1.8385   91.3972 O   0  0  0  0  0  0  0  0  0  0  0  0
    8.3588    3.7243   92.1608 C   0  0  0  0  0  0  0  0  0  0  0  0
    8.7644    3.7081   90.7871 O   0  0  0  0  0  0  0  0  0  0  0  0
    7.4077    4.9060   92.4327 C   0  0  0  0  0  0  0  0  0  0  0  0
    6.2476    4.7938   94.0514 H   0  0  0  0  0  0  0  0  0  0  0  0
    6.3638    2.4601   91.0135 H   0  0  0  0  0  0  0  0  0  0  0  0
    7.9828    3.6149   90.2203 H   0  0  0  0  0  0  0  0  0  0  0  0
    8.0206    5.9709   93.3609 C   0  0  0  0  0  0  0  0  0  0  0  0
    7.2872    6.7974   94.2092 C   0  0  0  0  0  0  0  0  0  0  0  0
    7.9990    7.6403   94.9194 N   0  0  0  0  0  0  0  0  0  0  0  0
    9.3172    7.3911   94.5526 C   0  0  0  0  0  0  0  0  0  0  0  0
   10.5315    8.0214   95.0079 C   0  0  0  0  0  0  0  0  0  0  0  0
   10.6312    8.9298   95.8407 O   0  0  0  0  0  0  0  0  0  0  0  0
   11.6948    7.4983   94.4026 N   0  0  0  0  0  0  0  0  0  0  0  0
   11.6964    6.4698   93.4502 C   0  0  0  0  0  0  0  0  0  0  0  0
   10.5435    5.8686   93.0132 N   0  0  0  0  0  0  0  0  0  0  0  0
    9.3753    6.3693   93.5946 C   0  0  0  0  0  0  0  0  0  0  0  0
    7.6718    8.3035   95.5693 H   0  0  0  0  0  0  0  0  0  0  0  0
    9.8625    9.2807   96.2455 H   0  0  0  0  0  0  0  0  0  0  0  0
    6.1197    3.5660   95.6462 O   0  0  0  0  0  0  0  0  0  0  0  0
    6.9022    2.6845   94.8480 C   0  0  0  0  0  0  0  0  0  0  0  0
    6.3293    3.4262   96.5829 H   0  0  0  0  0  0  0  0  0  0  0  0
 23 24  1  0  0  0
 24  1  1  0  0  0
  1  2  1  0  0  0
  1  3  1  0  0  0
  2  7  1  0  0  0
  3  4  1  0  0  0
  3  5  1  0  0  0
  5  6  1  0  0  0
  5  7  1  0  0  0
  7 11  1  0  0  0
 11 12  2  0  0  0
 11 20  1  0  0  0
 12 13  1  0  0  0
 13 14  1  0  0  0
 14 15  1  0  0  0
 14 20  2  0  0  0
 15 16  1  0  0  0
 15 17  2  0  0  0
 17 18  1  0  0  0
 18 19  2  0  0  0
 19 20  1  0  0  0
 23 25  1  0  0  0
  2  8  1  0  0  0
  4  9  1  0  0  0
  6 10  1  0  0  0
 13 21  1  0  0  0
 16 22  1  0  0  0
M  END
> <minimizedAffinity>
-8.75713

$$$$
1NW4_IMH_A_301


 25 27  0  0  0  0  0  0  0  0999 V2000
    7.4827    1.0759   89.5516 C   0  0  0  0  0  0  0  0  0  0  0  0
    8.0334    2.3833   89.6818 N   0  0  0  0  0  0  0  0  0  0  0  0
    8.4128    0.1226   90.2392 C   0  0  0  0  0  0  0  0  0  0  0  0
    9.2312   -0.4399   89.2059 O   0  0  0  0  0  0  0  0  0  0  0  0
    9.1690    1.0127   91.1723 C   0  0  0  0  0  0  0  0  0  0  0  0
   10.5447    0.6188   91.2376 O   0  0  0  0  0  0  0  0  0  0  0  0
    9.0430    2.4666   90.6770 C   0  0  0  0  0  0  0  0  0  0  0  0
    7.2825    3.0288   89.9266 H   0  0  0  0  0  0  0  0  0  0  0  0
    9.6474    0.2743   88.6983 H   0  0  0  0  0  0  0  0  0  0  0  0
   10.9414    0.6819   90.3547 H   0  0  0  0  0  0  0  0  0  0  0  0
    8.5078    3.4260   91.7560 C   0  0  0  0  0  0  0  0  0  0  0  0
    8.7014    4.8055   91.7543 C   0  0  0  0  0  0  0  0  0  0  0  0
    8.1639    5.4455   92.7657 N   0  0  0  0  0  0  0  0  0  0  0  0
    7.5495    4.4571   93.5270 C   0  0  0  0  0  0  0  0  0  0  0  0
    6.8066    4.5749   94.7572 C   0  0  0  0  0  0  0  0  0  0  0  0
    6.5658    5.6128   95.3844 O   0  0  0  0  0  0  0  0  0  0  0  0
    6.3281    3.3386   95.2429 N   0  0  0  0  0  0  0  0  0  0  0  0
    6.5413    2.1052   94.6120 C   0  0  0  0  0  0  0  0  0  0  0  0
    7.2487    1.9885   93.4426 N   0  0  0  0  0  0  0  0  0  0  0  0
    7.7369    3.1979   92.9401 C   0  0  0  0  0  0  0  0  0  0  0  0
    8.1899    6.4130   92.9461 H   0  0  0  0  0  0  0  0  0  0  0  0
    6.8809    6.4360   95.0667 H   0  0  0  0  0  0  0  0  0  0  0  0
    5.1902    0.8628   89.0520 O   0  0  0  0  0  0  0  0  0  0  0  0
    6.1149    1.0016   90.1253 C   0  0  0  0  0  0  0  0  0  0  0  0
    4.2886    0.8124   89.4064 H   0  0  0  0  0  0  0  0  0  0  0  0
 23 24  1  0  0  0
 24  1  1  0  0  0
  1  2  1  0  0  0
  1  3  1  0  0  0
  2  7  1  0  0  0
  3  4  1  0  0  0
  3  5  1  0  0  0
  5  6  1  0  0  0
  5  7  1  0  0  0
  7 11  1  0  0  0
 11 12  2  0  0  0
 11 20  1  0  0  0
 12 13  1  0  0  0
 13 14  1  0  0  0
 14 15  1  0  0  0
 14 20  2  0  0  0
 15 16  1  0  0  0
 15 17  2  0  0  0
 17 18  1  0  0  0
 18 19  2  0  0  0
 19 20  1  0  0  0
 23 25  1  0  0  0
  2  8  1  0  0  0
  4  9  1  0  0  0
  6 10  1  0  0  0
 13 21  1  0  0  0
 16 22  1  0  0  0
M  END
> <minimizedAffinity>
-8.48998

$$$$
1NW4_IMH_A_301


 25 27  0  0  0  0  0  0  0  0999 V2000
    8.5261    1.6076   89.9612 C   0  0  0  0  0  0  0  0  0  0  0  0
    9.1911    2.7547   90.4822 N   0  0  0  0  0  0  0  0  0  0  0  0
    8.6433    0.5148   90.9803 C   0  0  0  0  0  0  0  0  0  0  0  0
    9.7455   -0.2979   90.5581 O   0  0  0  0  0  0  0  0  0  0  0  0
    8.9144    1.2674   92.2432 C   0  0  0  0  0  0  0  0  0  0  0  0
    9.8681    0.5668   93.0504 O   0  0  0  0  0  0  0  0  0  0  0  0
    9.4377    2.6702   91.8782 C   0  0  0  0  0  0  0  0  0  0  0  0
    8.6112    3.5748   90.3042 H   0  0  0  0  0  0  0  0  0  0  0  0
   10.5297    0.2595   90.4351 H   0  0  0  0  0  0  0  0  0  0  0  0
   10.6989    0.4705   92.5590 H   0  0  0  0  0  0  0  0  0  0  0  0
    8.6251    3.8044   92.5297 C   0  0  0  0  0  0  0  0  0  0  0  0
    7.2455    3.7799   92.7211 C   0  0  0  0  0  0  0  0  0  0  0  0
    6.7429    4.8472   93.2953 N   0  0  0  0  0  0  0  0  0  0  0  0
    7.8360    5.6753   93.5271 C   0  0  0  0  0  0  0  0  0  0  0  0
    7.8844    6.9840   94.1305 C   0  0  0  0  0  0  0  0  0  0  0  0
    6.9310    7.6350   94.5731 O   0  0  0  0  0  0  0  0  0  0  0  0
    9.1878    7.5225   94.1959 N   0  0  0  0  0  0  0  0  0  0  0  0
   10.3370    6.8711   93.7269 C   0  0  0  0  0  0  0  0  0  0  0  0
   10.2951    5.6269   93.1508 N   0  0  0  0  0  0  0  0  0  0  0  0
    9.0154    5.0706   93.0707 C   0  0  0  0  0  0  0  0  0  0  0  0
    5.7993    5.0232   93.5140 H   0  0  0  0  0  0  0  0  0  0  0  0
    6.0638    7.2824   94.5323 H   0  0  0  0  0  0  0  0  0  0  0  0
    6.7843    1.2630   88.4126 O   0  0  0  0  0  0  0  0  0  0  0  0
    7.1046    1.8990   89.6453 C   0  0  0  0  0  0  0  0  0  0  0  0
    5.8578    1.4416   88.1878 H   0  0  0  0  0  0  0  0  0  0  0  0
 23 24  1  0  0  0
 24  1  1  0  0  0
  1  2  1  0  0  0
  1  3  1  0  0  0
  2  7  1  0  0  0
  3  4  1  0  0  0
  3  5  1  0  0  0
  5  6  1  0  0  0
  5  7  1  0  0  0
  7 11  1  0  0  0
 11 12  2  0  0  0
 11 20  1  0  0  0
 12 13  1  0  0  0
 13 14  1  0  0  0
 14 15  1  0  0  0
 14 20  2  0  0  0
 15 16  1  0  0  0
 15 17  2  0  0  0
 17 18  1  0  0  0
 18 19  2  0  0  0
 19 20  1  0  0  0
 23 25  1  0  0  0
  2  8  1  0  0  0
  4  9  1  0  0  0
  6 10  1  0  0  0
 13 21  1  0  0  0
 16 22  1  0  0  0
M  END
> <minimizedAffinity>
-8.48584

$$$$
1NW4_IMH_A_301


 25 27  0  0  0  0  0  0  0  0999 V2000
    8.2987    0.8699   92.0348 C   0  0  0  0  0  0  0  0  0  0  0  0
    7.4106    1.9489   91.7582 N   0  0  0  0  0  0  0  0  0  0  0  0
    9.5511    1.1008   91.2444 C   0  0  0  0  0  0  0  0  0  0  0  0
    9.4208    0.3018   90.0619 O   0  0  0  0  0  0  0  0  0  0  0  0
    9.5049    2.5700   90.9721 C   0  0  0  0  0  0  0  0  0  0  0  0
    9.9751    2.8504   89.6484 O   0  0  0  0  0  0  0  0  0  0  0  0
    8.0538    3.0583   91.1481 C   0  0  0  0  0  0  0  0  0  0  0  0
    6.9927    2.2584   92.6357 H   0  0  0  0  0  0  0  0  0  0  0  0
    8.5867    0.5174   89.6163 H   0  0  0  0  0  0  0  0  0  0  0  0
    9.4132    2.3946   89.0023 H   0  0  0  0  0  0  0  0  0  0  0  0
    7.9287    4.2292   92.1402 C   0  0  0  0  0  0  0  0  0  0  0  0
    8.4640    5.4991   91.9366 C   0  0  0  0  0  0  0  0  0  0  0  0
    8.2467    6.3578   92.9045 N   0  0  0  0  0  0  0  0  0  0  0  0
    7.5090    5.6516   93.8486 C   0  0  0  0  0  0  0  0  0  0  0  0
    6.9917    6.0870   95.1222 C   0  0  0  0  0  0  0  0  0  0  0  0
    7.1082    7.2090   95.6283 O   0  0  0  0  0  0  0  0  0  0  0  0
    6.2846    5.0793   95.8133 N   0  0  0  0  0  0  0  0  0  0  0  0
    6.0915    3.7769   95.3322 C   0  0  0  0  0  0  0  0  0  0  0  0
    6.5833    3.3583   94.1221 N   0  0  0  0  0  0  0  0  0  0  0  0
    7.2907    4.3359   93.4169 C   0  0  0  0  0  0  0  0  0  0  0  0
    8.5411    7.2961   92.9520 H   0  0  0  0  0  0  0  0  0  0  0  0
    7.5764    7.8816   95.1740 H   0  0  0  0  0  0  0  0  0  0  0  0
    7.3660    0.5151   94.1690 O   0  0  0  0  0  0  0  0  0  0  0  0
    8.5906    0.7636   93.4870 C   0  0  0  0  0  0  0  0  0  0  0  0
    7.5353    0.4421   95.1213 H   0  0  0  0  0  0  0  0  0  0  0  0
 23 24  1  0  0  0
 24  1  1  0  0  0
  1  2  1  0  0  0
  1  3  1  0  0  0
  2  7  1  0  0  0
  3  4  1  0  0  0
  3  5  1  0  0  0
  5  6  1  0  0  0
  5  7  1  0  0  0
  7 11  1  0  0  0
 11 12  2  0  0  0
 11 20  1  0  0  0
 12 13  1  0  0  0
 13 14  1  0  0  0
 14 15  1  0  0  0
 14 20  2  0  0  0
 15 16  1  0  0  0
 15 17  2  0  0  0
 17 18  1  0  0  0
 18 19  2  0  0  0
 19 20  1  0  0  0
 23 25  1  0  0  0
  2  8  1  0  0  0
  4  9  1  0  0  0
  6 10  1  0  0  0
 13 21  1  0  0  0
 16 22  1  0  0  0
M  END
> <minimizedAffinity>
-8.21057

$$$$
1NW4_IMH_A_301


 25 27  0  0  0  0  0  0  0  0999 V2000
    8.0853    1.9337   92.4114 C   0  0  0  0  0  0  0  0  0  0  0  0
    6.7485    1.5184   92.6756 N   0  0  0  0  0  0  0  0  0  0  0  0
    8.1070    3.4322   92.4366 C   0  0  0  0  0  0  0  0  0  0  0  0
    8.0210    3.8482   91.0680 O   0  0  0  0  0  0  0  0  0  0  0  0
    6.8875    3.7677   93.2334 C   0  0  0  0  0  0  0  0  0  0  0  0
    6.2340    4.9208   92.6898 O   0  0  0  0  0  0  0  0  0  0  0  0
    5.9414    2.5512   93.2220 C   0  0  0  0  0  0  0  0  0  0  0  0
    6.7744    0.7425   93.3371 H   0  0  0  0  0  0  0  0  0  0  0  0
    7.2462    3.4375   90.6533 H   0  0  0  0  0  0  0  0  0  0  0  0
    5.9698    4.7410   91.7740 H   0  0  0  0  0  0  0  0  0  0  0  0
    5.5422    2.0857   94.6346 C   0  0  0  0  0  0  0  0  0  0  0  0
    6.1687    2.4961   95.8091 C   0  0  0  0  0  0  0  0  0  0  0  0
    5.6775    1.9827   96.9121 N   0  0  0  0  0  0  0  0  0  0  0  0
    4.6372    1.1616   96.4906 C   0  0  0  0  0  0  0  0  0  0  0  0
    3.7432    0.3403   97.2685 C   0  0  0  0  0  0  0  0  0  0  0  0
    3.7317    0.2111   98.4981 O   0  0  0  0  0  0  0  0  0  0  0  0
    2.8032   -0.3627   96.4839 N   0  0  0  0  0  0  0  0  0  0  0  0
    2.7263   -0.2881   95.0863 C   0  0  0  0  0  0  0  0  0  0  0  0
    3.5758    0.4907   94.3424 N   0  0  0  0  0  0  0  0  0  0  0  0
    4.5194    1.1963   95.0941 C   0  0  0  0  0  0  0  0  0  0  0  0
    5.9791    2.1435   97.8354 H   0  0  0  0  0  0  0  0  0  0  0  0
    4.3533    0.6753   99.0237 H   0  0  0  0  0  0  0  0  0  0  0  0
    8.4849    0.1527   93.9011 O   0  0  0  0  0  0  0  0  0  0  0  0
    9.0374    1.3648   93.3990 C   0  0  0  0  0  0  0  0  0  0  0  0
    9.0930   -0.2357   94.5493 H   0  0  0  0  0  0  0  0  0  0  0  0
 23 24  1  0  0  0
 24  1  1  0  0  0
  1  2  1  0  0  0
  1  3  1  0  0  0
  2  7  1  0  0  0
  3  4  1  0  0  0
  3  5  1  0  0  0
  5  6  1  0  0  0
  5  7  1  0  0  0
  7 11  1  0  0  0
 11 12  2  0  0  0
 11 20  1  0  0  0
 12 13  1  0  0  0
 13 14  1  0  0  0
 14 15  1  0  0  0
 14 20  2  0  0  0
 15 16  1  0  0  0
 15 17  2  0  0  0
 17 18  1  0  0  0
 18 19  2  0  0  0
 19 20  1  0  0  0
 23 25  1  0  0  0
  2  8  1  0  0  0
  4  9  1  0  0  0
  6 10  1  0  0  0
 13 21  1  0  0  0
 16 22  1  0  0  0
M  END
> <minimizedAffinity>
-7.95028

$$$$
1NW4_IMH_A_301


 25 27  0  0  0  0  0  0  0  0999 V2000
    6.6967    2.6489   94.7646 C   0  0  0  0  0  0  0  0  0  0  0  0
    8.0551    2.3127   94.4976 N   0  0  0  0  0  0  0  0  0  0  0  0
    6.4075    3.9470   94.0733 C   0  0  0  0  0  0  0  0  0  0  0  0
    6.5471    4.9633   95.0741 O   0  0  0  0  0  0  0  0  0  0  0  0
    7.4677    4.0052   93.0210 C   0  0  0  0  0  0  0  0  0  0  0  0
    7.9547    5.3441   92.8723 O   0  0  0  0  0  0  0  0  0  0  0  0
    8.6112    3.0523   93.4204 C   0  0  0  0  0  0  0  0  0  0  0  0
    8.1048    1.3198   94.2694 H   0  0  0  0  0  0  0  0  0  0  0  0
    7.4180    4.8859   95.4941 H   0  0  0  0  0  0  0  0  0  0  0  0
    8.3318    5.6463   93.7134 H   0  0  0  0  0  0  0  0  0  0  0  0
    8.9516    2.0271   92.3229 C   0  0  0  0  0  0  0  0  0  0  0  0
   10.2233    1.5070   92.0934 C   0  0  0  0  0  0  0  0  0  0  0  0
   10.3037    0.6444   91.1080 N   0  0  0  0  0  0  0  0  0  0  0  0
    9.0076    0.5464   90.6134 C   0  0  0  0  0  0  0  0  0  0  0  0
    8.4982   -0.2505   89.5251 C   0  0  0  0  0  0  0  0  0  0  0  0
    9.1400   -1.0251   88.8062 O   0  0  0  0  0  0  0  0  0  0  0  0
    7.1124   -0.0859   89.3113 N   0  0  0  0  0  0  0  0  0  0  0  0
    6.2911    0.7624   90.0667 C   0  0  0  0  0  0  0  0  0  0  0  0
    6.7718    1.5235   91.1016 N   0  0  0  0  0  0  0  0  0  0  0  0
    8.1428    1.3820   91.3340 C   0  0  0  0  0  0  0  0  0  0  0  0
   11.1055    0.1705   90.7889 H   0  0  0  0  0  0  0  0  0  0  0  0
   10.0600   -1.1383   88.9436 H   0  0  0  0  0  0  0  0  0  0  0  0
    4.7365    2.1841   93.5430 O   0  0  0  0  0  0  0  0  0  0  0  0
    5.7717    1.5795   94.3106 C   0  0  0  0  0  0  0  0  0  0  0  0
    4.1202    1.5008   93.2362 H   0  0  0  0  0  0  0  0  0  0  0  0
 23 24  1  0  0  0
 24  1  1  0  0  0
  1  2  1  0  0  0
  1  3  1  0  0  0
  2  7  1  0  0  0
  3  4  1  0  0  0
  3  5  1  0  0  0
  5  6  1  0  0  0
  5  7  1  0  0  0
  7 11  1  0  0  0
 11 12  2  0  0  0
 11 20  1  0  0  0
 12 13  1  0  0  0
 13 14  1  0  0  0
 14 15  1  0  0  0
 14 20  2  0  0  0
 15 16  1  0  0  0
 15 17  2  0  0  0
 17 18  1  0  0  0
 18 19  2  0  0  0
 19 20  1  0  0  0
 23 25  1  0  0  0
  2  8  1  0  0  0
  4  9  1  0  0  0
  6 10  1  0  0  0
 13 21  1  0  0  0
 16 22  1  0  0  0
M  END
> <minimizedAffinity>
-7.79188

$$$$
