5J6N_6FF_A_301


 32 34  0  0  0  0  0  0  0  0999 V2000
   -0.8792   32.0447   26.5167 C   0  0  0  0  0  0  0  0  0  0  0  0
   -2.0865   32.3388   25.8864 C   0  0  0  0  0  0  0  0  0  0  0  0
   -2.0789   33.0972   24.7331 C   0  0  0  0  0  0  0  0  0  0  0  0
   -0.8501   33.5301   24.1813 C   0  0  0  0  0  0  0  0  0  0  0  0
    0.3478   33.2257   24.8230 C   0  0  0  0  0  0  0  0  0  0  0  0
    0.3425   32.5310   26.0083 C   0  0  0  0  0  0  0  0  0  0  0  0
   -0.9354   31.3534   27.6763 O   0  0  0  0  0  0  0  0  0  0  0  0
   -3.2725   33.3829   24.1505 O   0  0  0  0  0  0  0  0  0  0  0  0
   -1.7586   31.0396   27.9953 H   0  0  0  0  0  0  0  0  0  0  0  0
   -3.3005   33.8957   23.3668 H   0  0  0  0  0  0  0  0  0  0  0  0
   -0.8002   34.4116   23.0028 C   0  0  0  0  0  0  0  0  0  0  0  0
   -0.3758   36.1651   21.7152 C   0  0  0  0  0  0  0  0  0  0  0  0
   -1.4128   34.1984   21.8687 N   0  0  0  0  0  0  0  0  0  0  0  0
   -1.1447   35.2791   21.0415 N   0  0  0  0  0  0  0  0  0  0  0  0
   -0.1541   35.6522   22.9485 N   0  0  0  0  0  0  0  0  0  0  0  0
    0.0206   37.2424   21.2885 O   0  0  0  0  0  0  0  0  0  0  0  0
   -1.4620   35.3842   20.1155 H   0  0  0  0  0  0  0  0  0  0  0  0
    0.5529   36.2767   23.9993 C   0  0  0  0  0  0  0  0  0  0  0  0
    1.9353   36.0994   24.1108 C   0  0  0  0  0  0  0  0  0  0  0  0
    2.6421   36.7035   25.1577 C   0  0  0  0  0  0  0  0  0  0  0  0
   -0.1184   37.0586   24.9511 C   0  0  0  0  0  0  0  0  0  0  0  0
    1.9576   37.4469   26.1214 C   0  0  0  0  0  0  0  0  0  0  0  0
    0.5814   37.6361   26.0159 C   0  0  0  0  0  0  0  0  0  0  0  0
    2.5768   35.3861   23.1572 F   0  0  0  0  0  0  0  0  0  0  0  0
    1.9192   32.1595   26.7237 S   0  0  0  0  0  0  0  0  0  0  0  0
    2.7711   33.2736   26.3983 O   0  0  0  0  0  0  0  0  0  0  0  0
    1.6432   31.8433   28.0866 O   0  0  0  0  0  0  0  0  0  0  0  0
    2.3795   30.8594   25.8135 N   0  0  0  0  0  0  0  0  0  0  0  0
    1.5147   29.6950   25.8050 C   0  0  0  0  0  0  0  0  0  0  0  0
    3.5557   30.9119   24.9033 C   0  0  0  0  0  0  0  0  0  0  0  0
    4.9074   28.8455   24.5704 C   0  0  0  0  0  0  0  0  0  0  0  0
    3.7017   29.6310   24.0567 C   0  0  0  0  0  0  0  0  0  0  0  0
 14 12  1  0  0  0
 14 13  1  0  0  0
 16 12  2  0  0  0
 12 15  1  0  0  0
 13 11  2  0  0  0
 24 19  1  0  0  0
 15 11  1  0  0  0
 15 18  1  0  0  0
 11  4  1  0  0  0
 19 18  2  0  0  0
 19 20  1  0  0  0
 31 32  1  0  0  0
 18 21  1  0  0  0
  8  3  1  0  0  0
  4  3  2  0  0  0
  4  5  1  0  0  0
  3  2  1  0  0  0
 20 22  2  0  0  0
  5  6  2  0  0  0
 30 32  1  0  0  0
 30 28  1  0  0  0
 21 23  2  0  0  0
  2  1  2  0  0  0
 22 23  1  0  0  0
  6  1  1  0  0  0
  6 25  1  0  0  0
 28 29  1  0  0  0
 28 25  1  0  0  0
 26 25  2  0  0  0
  1  7  1  0  0  0
 25 27  2  0  0  0
  7  9  1  0  0  0
  8 10  1  0  0  0
 14 17  1  0  0  0
M  END
> <minimizedAffinity>
-10.18135

$$$$
5J6N_6FF_A_301


 32 34  0  0  0  0  0  0  0  0999 V2000
    0.2112   35.4613   22.6519 C   0  0  0  0  0  0  0  0  0  0  0  0
   -0.8746   34.6216   22.4131 C   0  0  0  0  0  0  0  0  0  0  0  0
   -1.3494   33.8246   23.4353 C   0  0  0  0  0  0  0  0  0  0  0  0
   -0.7603   33.8988   24.7196 C   0  0  0  0  0  0  0  0  0  0  0  0
    0.3231   34.7450   24.9417 C   0  0  0  0  0  0  0  0  0  0  0  0
    0.8447   35.4888   23.9110 C   0  0  0  0  0  0  0  0  0  0  0  0
    0.6843   36.1779   21.6085 O   0  0  0  0  0  0  0  0  0  0  0  0
   -2.3979   33.0030   23.1682 O   0  0  0  0  0  0  0  0  0  0  0  0
    0.2470   36.1445   20.7805 H   0  0  0  0  0  0  0  0  0  0  0  0
   -2.7429   32.4499   23.8412 H   0  0  0  0  0  0  0  0  0  0  0  0
   -1.1781   33.0063   25.8139 C   0  0  0  0  0  0  0  0  0  0  0  0
   -1.1328   31.3970   27.3373 C   0  0  0  0  0  0  0  0  0  0  0  0
   -2.3766   32.9483   26.3307 N   0  0  0  0  0  0  0  0  0  0  0  0
   -2.3639   31.9565   27.3004 N   0  0  0  0  0  0  0  0  0  0  0  0
   -0.3740   32.0278   26.4102 N   0  0  0  0  0  0  0  0  0  0  0  0
   -0.7851   30.4729   28.0617 O   0  0  0  0  0  0  0  0  0  0  0  0
   -3.1262   31.7013   27.8687 H   0  0  0  0  0  0  0  0  0  0  0  0
    0.9622   31.7202   26.0730 C   0  0  0  0  0  0  0  0  0  0  0  0
    1.2423   30.5943   25.2926 C   0  0  0  0  0  0  0  0  0  0  0  0
    2.5654   30.2739   24.9651 C   0  0  0  0  0  0  0  0  0  0  0  0
    2.0205   32.5194   26.5305 C   0  0  0  0  0  0  0  0  0  0  0  0
    3.6129   31.0543   25.4590 C   0  0  0  0  0  0  0  0  0  0  0  0
    3.3448   32.1823   26.2313 C   0  0  0  0  0  0  0  0  0  0  0  0
    0.2094   29.8626   24.8155 F   0  0  0  0  0  0  0  0  0  0  0  0
    2.1960   36.5632   24.3053 S   0  0  0  0  0  0  0  0  0  0  0  0
    1.8270   37.8604   23.8014 O   0  0  0  0  0  0  0  0  0  0  0  0
    2.4247   36.3755   25.7004 O   0  0  0  0  0  0  0  0  0  0  0  0
    3.3849   35.9408   23.3411 N   0  0  0  0  0  0  0  0  0  0  0  0
    3.7079   34.5339   23.4824 C   0  0  0  0  0  0  0  0  0  0  0  0
    4.0113   36.7361   22.2503 C   0  0  0  0  0  0  0  0  0  0  0  0
    6.4667   36.3959   21.9986 C   0  0  0  0  0  0  0  0  0  0  0  0
    5.0971   35.9438   21.4940 C   0  0  0  0  0  0  0  0  0  0  0  0
 14 12  1  0  0  0
 14 13  1  0  0  0
 16 12  2  0  0  0
 12 15  1  0  0  0
 13 11  2  0  0  0
 24 19  1  0  0  0
 15 11  1  0  0  0
 15 18  1  0  0  0
 11  4  1  0  0  0
 19 18  2  0  0  0
 19 20  1  0  0  0
 31 32  1  0  0  0
 18 21  1  0  0  0
  8  3  1  0  0  0
  4  3  2  0  0  0
  4  5  1  0  0  0
  3  2  1  0  0  0
 20 22  2  0  0  0
  5  6  2  0  0  0
 30 32  1  0  0  0
 30 28  1  0  0  0
 21 23  2  0  0  0
  2  1  2  0  0  0
 22 23  1  0  0  0
  6  1  1  0  0  0
  6 25  1  0  0  0
 28 29  1  0  0  0
 28 25  1  0  0  0
 26 25  2  0  0  0
  1  7  1  0  0  0
 25 27  2  0  0  0
  7  9  1  0  0  0
  8 10  1  0  0  0
 14 17  1  0  0  0
M  END
> <minimizedAffinity>
-9.16682

$$$$
5J6N_6FF_A_301


 32 34  0  0  0  0  0  0  0  0999 V2000
   -0.2627   35.0952   22.4957 C   0  0  0  0  0  0  0  0  0  0  0  0
   -1.4282   34.3326   22.4596 C   0  0  0  0  0  0  0  0  0  0  0  0
   -1.7879   33.5961   23.5702 C   0  0  0  0  0  0  0  0  0  0  0  0
   -0.9979   33.6556   24.7425 C   0  0  0  0  0  0  0  0  0  0  0  0
    0.1631   34.4244   24.7624 C   0  0  0  0  0  0  0  0  0  0  0  0
    0.5638   35.1043   23.6378 C   0  0  0  0  0  0  0  0  0  0  0  0
    0.0864   35.7512   21.3672 O   0  0  0  0  0  0  0  0  0  0  0  0
   -2.9199   32.8483   23.4996 O   0  0  0  0  0  0  0  0  0  0  0  0
   -0.4786   35.7315   20.6199 H   0  0  0  0  0  0  0  0  0  0  0  0
   -3.1907   32.3374   24.2369 H   0  0  0  0  0  0  0  0  0  0  0  0
   -1.2966   32.8213   25.9186 C   0  0  0  0  0  0  0  0  0  0  0  0
   -1.0649   31.3308   27.5427 C   0  0  0  0  0  0  0  0  0  0  0  0
   -2.4578   32.7314   26.5105 N   0  0  0  0  0  0  0  0  0  0  0  0
   -2.3284   31.8140   27.5430 N   0  0  0  0  0  0  0  0  0  0  0  0
   -0.4008   31.9363   26.5300 N   0  0  0  0  0  0  0  0  0  0  0  0
   -0.6200   30.4827   28.3058 O   0  0  0  0  0  0  0  0  0  0  0  0
   -3.0399   31.5567   28.1730 H   0  0  0  0  0  0  0  0  0  0  0  0
    0.9306   31.6830   26.1335 C   0  0  0  0  0  0  0  0  0  0  0  0
    1.2237   30.5596   25.3543 C   0  0  0  0  0  0  0  0  0  0  0  0
    2.5431   30.2932   24.9683 C   0  0  0  0  0  0  0  0  0  0  0  0
    1.9724   32.5344   26.5306 C   0  0  0  0  0  0  0  0  0  0  0  0
    3.5766   31.1258   25.4025 C   0  0  0  0  0  0  0  0  0  0  0  0
    3.2950   32.2518   26.1730 C   0  0  0  0  0  0  0  0  0  0  0  0
    0.2034   29.7765   24.9356 F   0  0  0  0  0  0  0  0  0  0  0  0
    2.0318   36.0848   23.7776 S   0  0  0  0  0  0  0  0  0  0  0  0
    3.1317   35.1758   23.5861 O   0  0  0  0  0  0  0  0  0  0  0  0
    1.8379   37.1739   22.8776 O   0  0  0  0  0  0  0  0  0  0  0  0
    1.9730   36.5140   25.3723 N   0  0  0  0  0  0  0  0  0  0  0  0
    3.0815   36.1244   26.2226 C   0  0  0  0  0  0  0  0  0  0  0  0
    0.9068   37.4021   25.9101 C   0  0  0  0  0  0  0  0  0  0  0  0
    1.8913   39.6484   25.4708 C   0  0  0  0  0  0  0  0  0  0  0  0
    1.4782   38.6727   26.5718 C   0  0  0  0  0  0  0  0  0  0  0  0
 14 12  1  0  0  0
 14 13  1  0  0  0
 16 12  2  0  0  0
 12 15  1  0  0  0
 13 11  2  0  0  0
 24 19  1  0  0  0
 15 11  1  0  0  0
 15 18  1  0  0  0
 11  4  1  0  0  0
 19 18  2  0  0  0
 19 20  1  0  0  0
 31 32  1  0  0  0
 18 21  1  0  0  0
  8  3  1  0  0  0
  4  3  2  0  0  0
  4  5  1  0  0  0
  3  2  1  0  0  0
 20 22  2  0  0  0
  5  6  2  0  0  0
 30 32  1  0  0  0
 30 28  1  0  0  0
 21 23  2  0  0  0
  2  1  2  0  0  0
 22 23  1  0  0  0
  6  1  1  0  0  0
  6 25  1  0  0  0
 28 29  1  0  0  0
 28 25  1  0  0  0
 26 25  2  0  0  0
  1  7  1  0  0  0
 25 27  2  0  0  0
  7  9  1  0  0  0
  8 10  1  0  0  0
 14 17  1  0  0  0
M  END
> <minimizedAffinity>
-8.94328

$$$$
5J6N_6FF_A_301


 32 34  0  0  0  0  0  0  0  0999 V2000
    0.5608   35.9021   22.6197 C   0  0  0  0  0  0  0  0  0  0  0  0
   -0.3791   34.9816   22.1608 C   0  0  0  0  0  0  0  0  0  0  0  0
   -0.9764   34.1213   23.0599 C   0  0  0  0  0  0  0  0  0  0  0  0
   -0.6626   34.2102   24.4367 C   0  0  0  0  0  0  0  0  0  0  0  0
    0.2777   35.1373   24.8789 C   0  0  0  0  0  0  0  0  0  0  0  0
    0.9270   35.9488   23.9803 C   0  0  0  0  0  0  0  0  0  0  0  0
    1.1676   36.6828   21.6988 O   0  0  0  0  0  0  0  0  0  0  0  0
   -1.8758   33.2228   22.5809 O   0  0  0  0  0  0  0  0  0  0  0  0
    0.9079   36.6351   20.7997 H   0  0  0  0  0  0  0  0  0  0  0  0
   -2.2983   32.6253   23.1661 H   0  0  0  0  0  0  0  0  0  0  0  0
   -1.2104   33.2575   25.4170 C   0  0  0  0  0  0  0  0  0  0  0  0
   -1.3481   31.5656   26.8422 C   0  0  0  0  0  0  0  0  0  0  0  0
   -2.4648   33.1696   25.7711 N   0  0  0  0  0  0  0  0  0  0  0  0
   -2.5688   32.1250   26.6780 N   0  0  0  0  0  0  0  0  0  0  0  0
   -0.4816   32.2480   26.0569 N   0  0  0  0  0  0  0  0  0  0  0  0
   -1.0890   30.6027   27.5531 O   0  0  0  0  0  0  0  0  0  0  0  0
   -3.3957   31.8378   27.1284 H   0  0  0  0  0  0  0  0  0  0  0  0
    0.8893   31.9610   25.8781 C   0  0  0  0  0  0  0  0  0  0  0  0
    1.2763   30.7752   25.2462 C   0  0  0  0  0  0  0  0  0  0  0  0
    2.6337   30.4761   25.0772 C   0  0  0  0  0  0  0  0  0  0  0  0
    1.8746   32.8424   26.3475 C   0  0  0  0  0  0  0  0  0  0  0  0
    3.6053   31.3418   25.5836 C   0  0  0  0  0  0  0  0  0  0  0  0
    3.2310   32.5294   26.2083 C   0  0  0  0  0  0  0  0  0  0  0  0
    0.3162   29.9601   24.7528 F   0  0  0  0  0  0  0  0  0  0  0  0
    2.0749   37.1210   24.6468 S   0  0  0  0  0  0  0  0  0  0  0  0
    2.2498   38.1232   23.6281 O   0  0  0  0  0  0  0  0  0  0  0  0
    1.5420   37.4796   25.9201 O   0  0  0  0  0  0  0  0  0  0  0  0
    3.4482   36.2055   24.7283 N   0  0  0  0  0  0  0  0  0  0  0  0
    3.6506   35.1915   23.7112 C   0  0  0  0  0  0  0  0  0  0  0  0
    4.5297   36.4935   25.7091 C   0  0  0  0  0  0  0  0  0  0  0  0
    5.2158   35.1357   27.6824 C   0  0  0  0  0  0  0  0  0  0  0  0
    4.1450   36.0843   27.1455 C   0  0  0  0  0  0  0  0  0  0  0  0
 14 12  1  0  0  0
 14 13  1  0  0  0
 16 12  2  0  0  0
 12 15  1  0  0  0
 13 11  2  0  0  0
 24 19  1  0  0  0
 15 11  1  0  0  0
 15 18  1  0  0  0
 11  4  1  0  0  0
 19 18  2  0  0  0
 19 20  1  0  0  0
 31 32  1  0  0  0
 18 21  1  0  0  0
  8  3  1  0  0  0
  4  3  2  0  0  0
  4  5  1  0  0  0
  3  2  1  0  0  0
 20 22  2  0  0  0
  5  6  2  0  0  0
 30 32  1  0  0  0
 30 28  1  0  0  0
 21 23  2  0  0  0
  2  1  2  0  0  0
 22 23  1  0  0  0
  6  1  1  0  0  0
  6 25  1  0  0  0
 28 29  1  0  0  0
 28 25  1  0  0  0
 26 25  2  0  0  0
  1  7  1  0  0  0
 25 27  2  0  0  0
  7  9  1  0  0  0
  8 10  1  0  0  0
 14 17  1  0  0  0
M  END
> <minimizedAffinity>
-8.74378

$$$$
5J6N_6FF_A_301


 32 34  0  0  0  0  0  0  0  0999 V2000
    2.0286   37.5786   26.4615 C   0  0  0  0  0  0  0  0  0  0  0  0
    0.8547   38.1879   26.0235 C   0  0  0  0  0  0  0  0  0  0  0  0
    0.1198   37.5931   25.0178 C   0  0  0  0  0  0  0  0  0  0  0  0
    0.5397   36.3562   24.4740 C   0  0  0  0  0  0  0  0  0  0  0  0
    1.7146   35.7597   24.9246 C   0  0  0  0  0  0  0  0  0  0  0  0
    2.4871   36.3810   25.8759 C   0  0  0  0  0  0  0  0  0  0  0  0
    2.7507   38.2248   27.4032 O   0  0  0  0  0  0  0  0  0  0  0  0
   -1.0109   38.2192   24.5991 O   0  0  0  0  0  0  0  0  0  0  0  0
    2.4263   39.0195   27.7789 H   0  0  0  0  0  0  0  0  0  0  0  0
   -1.5313   37.8406   23.9181 H   0  0  0  0  0  0  0  0  0  0  0  0
   -0.1655   35.7303   23.3429 C   0  0  0  0  0  0  0  0  0  0  0  0
   -1.2328   34.2257   22.1141 C   0  0  0  0  0  0  0  0  0  0  0  0
   -0.3110   36.2544   22.1551 N   0  0  0  0  0  0  0  0  0  0  0  0
   -0.9934   35.3329   21.3746 N   0  0  0  0  0  0  0  0  0  0  0  0
   -0.7161   34.4432   23.3465 N   0  0  0  0  0  0  0  0  0  0  0  0
   -1.7922   33.2085   21.7242 O   0  0  0  0  0  0  0  0  0  0  0  0
   -1.2599   35.4632   20.4359 H   0  0  0  0  0  0  0  0  0  0  0  0
   -0.6919   33.5234   24.4176 C   0  0  0  0  0  0  0  0  0  0  0  0
   -1.8383   33.3273   25.1937 C   0  0  0  0  0  0  0  0  0  0  0  0
   -1.8191   32.4274   26.2662 C   0  0  0  0  0  0  0  0  0  0  0  0
    0.4784   32.8158   24.7300 C   0  0  0  0  0  0  0  0  0  0  0  0
   -0.6374   31.7584   26.5921 C   0  0  0  0  0  0  0  0  0  0  0  0
    0.5085   31.9408   25.8211 C   0  0  0  0  0  0  0  0  0  0  0  0
   -2.9736   33.9770   24.8492 F   0  0  0  0  0  0  0  0  0  0  0  0
    3.9404   35.5219   26.4106 S   0  0  0  0  0  0  0  0  0  0  0  0
    4.1227   35.8801   27.7931 O   0  0  0  0  0  0  0  0  0  0  0  0
    3.7220   34.1605   26.0464 O   0  0  0  0  0  0  0  0  0  0  0  0
    5.1021   36.2785   25.5114 N   0  0  0  0  0  0  0  0  0  0  0  0
    6.4536   36.3129   26.0368 C   0  0  0  0  0  0  0  0  0  0  0  0
    4.8316   36.7802   24.1367 C   0  0  0  0  0  0  0  0  0  0  0  0
    4.5192   34.8320   22.6152 C   0  0  0  0  0  0  0  0  0  0  0  0
    5.5048   35.9149   23.0519 C   0  0  0  0  0  0  0  0  0  0  0  0
 14 12  1  0  0  0
 14 13  1  0  0  0
 16 12  2  0  0  0
 12 15  1  0  0  0
 13 11  2  0  0  0
 24 19  1  0  0  0
 15 11  1  0  0  0
 15 18  1  0  0  0
 11  4  1  0  0  0
 19 18  2  0  0  0
 19 20  1  0  0  0
 31 32  1  0  0  0
 18 21  1  0  0  0
  8  3  1  0  0  0
  4  3  2  0  0  0
  4  5  1  0  0  0
  3  2  1  0  0  0
 20 22  2  0  0  0
  5  6  2  0  0  0
 30 32  1  0  0  0
 30 28  1  0  0  0
 21 23  2  0  0  0
  2  1  2  0  0  0
 22 23  1  0  0  0
  6  1  1  0  0  0
  6 25  1  0  0  0
 28 29  1  0  0  0
 28 25  1  0  0  0
 26 25  2  0  0  0
  1  7  1  0  0  0
 25 27  2  0  0  0
  7  9  1  0  0  0
  8 10  1  0  0  0
 14 17  1  0  0  0
M  END
> <minimizedAffinity>
-8.71638

$$$$
5J6N_6FF_A_301


 32 34  0  0  0  0  0  0  0  0999 V2000
    0.2318   37.3556   24.9585 C   0  0  0  0  0  0  0  0  0  0  0  0
    0.7485   37.8375   26.1592 C   0  0  0  0  0  0  0  0  0  0  0  0
    2.1008   37.7178   26.4087 C   0  0  0  0  0  0  0  0  0  0  0  0
    2.9511   37.1493   25.4310 C   0  0  0  0  0  0  0  0  0  0  0  0
    2.4185   36.6744   24.2353 C   0  0  0  0  0  0  0  0  0  0  0  0
    1.0642   36.7270   24.0101 C   0  0  0  0  0  0  0  0  0  0  0  0
   -1.1053   37.4355   24.7803 O   0  0  0  0  0  0  0  0  0  0  0  0
    2.5733   38.1807   27.5954 O   0  0  0  0  0  0  0  0  0  0  0  0
   -1.6393   37.8580   25.4240 H   0  0  0  0  0  0  0  0  0  0  0  0
    3.4865   38.1138   27.7943 H   0  0  0  0  0  0  0  0  0  0  0  0
    4.3833   36.9242   25.6894 C   0  0  0  0  0  0  0  0  0  0  0  0
    6.5879   37.1258   25.5822 C   0  0  0  0  0  0  0  0  0  0  0  0
    4.8818   35.9533   26.4075 N   0  0  0  0  0  0  0  0  0  0  0  0
    6.2632   36.0727   26.3667 N   0  0  0  0  0  0  0  0  0  0  0  0
    5.4310   37.6702   25.1369 N   0  0  0  0  0  0  0  0  0  0  0  0
    7.7232   37.4956   25.3098 O   0  0  0  0  0  0  0  0  0  0  0  0
    6.9027   35.4868   26.8325 H   0  0  0  0  0  0  0  0  0  0  0  0
    5.3073   38.7549   24.2414 C   0  0  0  0  0  0  0  0  0  0  0  0
    5.2306   38.5173   22.8656 C   0  0  0  0  0  0  0  0  0  0  0  0
    5.1218   39.5878   21.9695 C   0  0  0  0  0  0  0  0  0  0  0  0
    5.2825   40.0760   24.7128 C   0  0  0  0  0  0  0  0  0  0  0  0
    5.1379   40.8997   22.4476 C   0  0  0  0  0  0  0  0  0  0  0  0
    5.2066   41.1477   23.8167 C   0  0  0  0  0  0  0  0  0  0  0  0
    5.2034   37.2374   22.4290 F   0  0  0  0  0  0  0  0  0  0  0  0
    0.4913   36.1344   22.4427 S   0  0  0  0  0  0  0  0  0  0  0  0
   -0.4397   37.1232   21.9648 O   0  0  0  0  0  0  0  0  0  0  0  0
    1.6741   35.8465   21.6998 O   0  0  0  0  0  0  0  0  0  0  0  0
   -0.3546   34.7919   22.9038 N   0  0  0  0  0  0  0  0  0  0  0  0
   -1.3791   34.2925   22.0068 C   0  0  0  0  0  0  0  0  0  0  0  0
    0.0064   34.0124   24.1190 C   0  0  0  0  0  0  0  0  0  0  0  0
   -1.0455   32.3119   25.6055 C   0  0  0  0  0  0  0  0  0  0  0  0
   -1.2173   33.7071   25.0067 C   0  0  0  0  0  0  0  0  0  0  0  0
 14 12  1  0  0  0
 14 13  1  0  0  0
 16 12  2  0  0  0
 12 15  1  0  0  0
 13 11  2  0  0  0
 24 19  1  0  0  0
 15 11  1  0  0  0
 15 18  1  0  0  0
 11  4  1  0  0  0
 19 18  2  0  0  0
 19 20  1  0  0  0
 31 32  1  0  0  0
 18 21  1  0  0  0
  8  3  1  0  0  0
  4  3  2  0  0  0
  4  5  1  0  0  0
  3  2  1  0  0  0
 20 22  2  0  0  0
  5  6  2  0  0  0
 30 32  1  0  0  0
 30 28  1  0  0  0
 21 23  2  0  0  0
  2  1  2  0  0  0
 22 23  1  0  0  0
  6  1  1  0  0  0
  6 25  1  0  0  0
 28 29  1  0  0  0
 28 25  1  0  0  0
 26 25  2  0  0  0
  1  7  1  0  0  0
 25 27  2  0  0  0
  7  9  1  0  0  0
  8 10  1  0  0  0
 14 17  1  0  0  0
M  END
> <minimizedAffinity>
-8.38310

$$$$
5J6N_6FF_A_301


 32 34  0  0  0  0  0  0  0  0999 V2000
    1.8503   36.4902   25.0603 C   0  0  0  0  0  0  0  0  0  0  0  0
    2.7748   35.9727   25.9651 C   0  0  0  0  0  0  0  0  0  0  0  0
    3.0701   34.6247   25.9321 C   0  0  0  0  0  0  0  0  0  0  0  0
    2.4673   33.7940   24.9582 C   0  0  0  0  0  0  0  0  0  0  0  0
    1.5468   34.3278   24.0599 C   0  0  0  0  0  0  0  0  0  0  0  0
    1.1963   35.6543   24.1325 C   0  0  0  0  0  0  0  0  0  0  0  0
    1.5430   37.8017   25.1670 O   0  0  0  0  0  0  0  0  0  0  0  0
    3.9619   34.1453   26.8380 O   0  0  0  0  0  0  0  0  0  0  0  0
    1.9907   38.3386   25.7909 H   0  0  0  0  0  0  0  0  0  0  0  0
    4.1831   33.2348   26.8410 H   0  0  0  0  0  0  0  0  0  0  0  0
    2.6873   32.3380   24.9415 C   0  0  0  0  0  0  0  0  0  0  0  0
    2.3761   30.1687   25.2733 C   0  0  0  0  0  0  0  0  0  0  0  0
    3.7772   31.7394   24.5407 N   0  0  0  0  0  0  0  0  0  0  0  0
    3.5950   30.3766   24.7248 N   0  0  0  0  0  0  0  0  0  0  0  0
    1.7910   31.3797   25.4293 N   0  0  0  0  0  0  0  0  0  0  0  0
    1.9069   29.0830   25.5908 O   0  0  0  0  0  0  0  0  0  0  0  0
    4.2463   29.6754   24.4939 H   0  0  0  0  0  0  0  0  0  0  0  0
    0.5340   31.6313   26.0214 C   0  0  0  0  0  0  0  0  0  0  0  0
    0.4057   31.6242   27.4137 C   0  0  0  0  0  0  0  0  0  0  0  0
   -0.8398   31.8589   28.0088 C   0  0  0  0  0  0  0  0  0  0  0  0
   -0.5988   31.8675   25.2283 C   0  0  0  0  0  0  0  0  0  0  0  0
   -1.9676   32.0536   27.2087 C   0  0  0  0  0  0  0  0  0  0  0  0
   -1.8499   32.0699   25.8207 C   0  0  0  0  0  0  0  0  0  0  0  0
    1.5155   31.4467   28.1664 F   0  0  0  0  0  0  0  0  0  0  0  0
    0.0482   36.2447   22.9203 S   0  0  0  0  0  0  0  0  0  0  0  0
   -0.7688   35.1128   22.5682 O   0  0  0  0  0  0  0  0  0  0  0  0
   -0.5455   37.4024   23.5043 O   0  0  0  0  0  0  0  0  0  0  0  0
    1.0639   36.5754   21.6595 N   0  0  0  0  0  0  0  0  0  0  0  0
    0.4802   36.7442   20.3425 C   0  0  0  0  0  0  0  0  0  0  0  0
    2.5121   36.8488   21.8656 C   0  0  0  0  0  0  0  0  0  0  0  0
    4.4005   35.2268   21.9739 C   0  0  0  0  0  0  0  0  0  0  0  0
    3.4115   35.9129   21.0326 C   0  0  0  0  0  0  0  0  0  0  0  0
 14 12  1  0  0  0
 14 13  1  0  0  0
 16 12  2  0  0  0
 12 15  1  0  0  0
 13 11  2  0  0  0
 24 19  1  0  0  0
 15 11  1  0  0  0
 15 18  1  0  0  0
 11  4  1  0  0  0
 19 18  2  0  0  0
 19 20  1  0  0  0
 31 32  1  0  0  0
 18 21  1  0  0  0
  8  3  1  0  0  0
  4  3  2  0  0  0
  4  5  1  0  0  0
  3  2  1  0  0  0
 20 22  2  0  0  0
  5  6  2  0  0  0
 30 32  1  0  0  0
 30 28  1  0  0  0
 21 23  2  0  0  0
  2  1  2  0  0  0
 22 23  1  0  0  0
  6  1  1  0  0  0
  6 25  1  0  0  0
 28 29  1  0  0  0
 28 25  1  0  0  0
 26 25  2  0  0  0
  1  7  1  0  0  0
 25 27  2  0  0  0
  7  9  1  0  0  0
  8 10  1  0  0  0
 14 17  1  0  0  0
M  END
> <minimizedAffinity>
-8.19921

$$$$
5J6N_6FF_A_301


 32 34  0  0  0  0  0  0  0  0999 V2000
   -0.0743   33.2404   24.7161 C   0  0  0  0  0  0  0  0  0  0  0  0
   -0.5638   34.2415   23.8799 C   0  0  0  0  0  0  0  0  0  0  0  0
    0.0471   35.4793   23.8792 C   0  0  0  0  0  0  0  0  0  0  0  0
    1.1839   35.7055   24.6907 C   0  0  0  0  0  0  0  0  0  0  0  0
    1.6615   34.6933   25.5192 C   0  0  0  0  0  0  0  0  0  0  0  0
    1.0161   33.4818   25.5765 C   0  0  0  0  0  0  0  0  0  0  0  0
   -0.7389   32.0639   24.7328 O   0  0  0  0  0  0  0  0  0  0  0  0
   -0.4630   36.4412   23.0667 O   0  0  0  0  0  0  0  0  0  0  0  0
   -1.4609   31.9254   24.1518 H   0  0  0  0  0  0  0  0  0  0  0  0
   -0.0704   37.2917   23.0438 H   0  0  0  0  0  0  0  0  0  0  0  0
    1.8136   37.0333   24.7855 C   0  0  0  0  0  0  0  0  0  0  0  0
    3.1639   38.7445   24.3841 C   0  0  0  0  0  0  0  0  0  0  0  0
    1.5705   37.9247   25.7091 N   0  0  0  0  0  0  0  0  0  0  0  0
    2.3954   39.0128   25.4646 N   0  0  0  0  0  0  0  0  0  0  0  0
    2.8279   37.5084   23.9458 N   0  0  0  0  0  0  0  0  0  0  0  0
    4.0214   39.4804   23.9119 O   0  0  0  0  0  0  0  0  0  0  0  0
    2.4179   39.8442   25.9912 H   0  0  0  0  0  0  0  0  0  0  0  0
    3.4259   36.8097   22.8743 C   0  0  0  0  0  0  0  0  0  0  0  0
    4.5360   35.9924   23.1086 C   0  0  0  0  0  0  0  0  0  0  0  0
    5.1437   35.3069   22.0496 C   0  0  0  0  0  0  0  0  0  0  0  0
    2.9336   36.9416   21.5673 C   0  0  0  0  0  0  0  0  0  0  0  0
    4.6694   35.4770   20.7473 C   0  0  0  0  0  0  0  0  0  0  0  0
    3.5596   36.2831   20.5036 C   0  0  0  0  0  0  0  0  0  0  0  0
    4.9676   35.8338   24.3806 F   0  0  0  0  0  0  0  0  0  0  0  0
    1.7252   32.2478   26.6303 S   0  0  0  0  0  0  0  0  0  0  0  0
    2.9420   32.8210   27.1436 O   0  0  0  0  0  0  0  0  0  0  0  0
    0.6771   31.8749   27.5228 O   0  0  0  0  0  0  0  0  0  0  0  0
    2.1154   31.0795   25.5288 N   0  0  0  0  0  0  0  0  0  0  0  0
    1.2037   29.9627   25.3704 C   0  0  0  0  0  0  0  0  0  0  0  0
    3.2762   31.2211   24.6084 C   0  0  0  0  0  0  0  0  0  0  0  0
    4.6989   29.1808   24.7550 C   0  0  0  0  0  0  0  0  0  0  0  0
    3.6410   29.8934   23.9136 C   0  0  0  0  0  0  0  0  0  0  0  0
 14 12  1  0  0  0
 14 13  1  0  0  0
 16 12  2  0  0  0
 12 15  1  0  0  0
 13 11  2  0  0  0
 24 19  1  0  0  0
 15 11  1  0  0  0
 15 18  1  0  0  0
 11  4  1  0  0  0
 19 18  2  0  0  0
 19 20  1  0  0  0
 31 32  1  0  0  0
 18 21  1  0  0  0
  8  3  1  0  0  0
  4  3  2  0  0  0
  4  5  1  0  0  0
  3  2  1  0  0  0
 20 22  2  0  0  0
  5  6  2  0  0  0
 30 32  1  0  0  0
 30 28  1  0  0  0
 21 23  2  0  0  0
  2  1  2  0  0  0
 22 23  1  0  0  0
  6  1  1  0  0  0
  6 25  1  0  0  0
 28 29  1  0  0  0
 28 25  1  0  0  0
 26 25  2  0  0  0
  1  7  1  0  0  0
 25 27  2  0  0  0
  7  9  1  0  0  0
  8 10  1  0  0  0
 14 17  1  0  0  0
M  END
> <minimizedAffinity>
-8.16421

$$$$
5J6N_6FF_A_301


 32 34  0  0  0  0  0  0  0  0999 V2000
   -0.2196   33.5187   25.1840 C   0  0  0  0  0  0  0  0  0  0  0  0
   -0.8301   34.3803   24.2751 C   0  0  0  0  0  0  0  0  0  0  0  0
   -0.0448   35.1982   23.4879 C   0  0  0  0  0  0  0  0  0  0  0  0
    1.3652   35.1239   23.5800 C   0  0  0  0  0  0  0  0  0  0  0  0
    1.9592   34.2557   24.4924 C   0  0  0  0  0  0  0  0  0  0  0  0
    1.1825   33.4898   25.3277 C   0  0  0  0  0  0  0  0  0  0  0  0
   -1.0255   32.7809   25.9792 O   0  0  0  0  0  0  0  0  0  0  0  0
   -0.6685   36.0405   22.6235 O   0  0  0  0  0  0  0  0  0  0  0  0
   -1.9549   32.8158   25.8657 H   0  0  0  0  0  0  0  0  0  0  0  0
   -0.1630   36.6082   22.0756 H   0  0  0  0  0  0  0  0  0  0  0  0
    2.2380   36.0367   22.8228 C   0  0  0  0  0  0  0  0  0  0  0  0
    3.6343   37.6937   22.3566 C   0  0  0  0  0  0  0  0  0  0  0  0
    2.3522   36.0731   21.5218 N   0  0  0  0  0  0  0  0  0  0  0  0
    3.2372   37.0949   21.2104 N   0  0  0  0  0  0  0  0  0  0  0  0
    3.0162   37.0582   23.3799 N   0  0  0  0  0  0  0  0  0  0  0  0
    4.3938   38.6506   22.4413 O   0  0  0  0  0  0  0  0  0  0  0  0
    3.5286   37.3437   20.3036 H   0  0  0  0  0  0  0  0  0  0  0  0
    3.1010   37.3970   24.7481 C   0  0  0  0  0  0  0  0  0  0  0  0
    4.1329   36.8732   25.5330 C   0  0  0  0  0  0  0  0  0  0  0  0
    4.2165   37.1929   26.8936 C   0  0  0  0  0  0  0  0  0  0  0  0
    2.1471   38.2384   25.3399 C   0  0  0  0  0  0  0  0  0  0  0  0
    3.2390   37.9993   27.4803 C   0  0  0  0  0  0  0  0  0  0  0  0
    2.2108   38.5325   26.7061 C   0  0  0  0  0  0  0  0  0  0  0  0
    5.0745   36.1057   24.9381 F   0  0  0  0  0  0  0  0  0  0  0  0
    2.0332   32.3891   26.4236 S   0  0  0  0  0  0  0  0  0  0  0  0
    3.3020   33.0111   26.6989 O   0  0  0  0  0  0  0  0  0  0  0  0
    1.1138   32.1376   27.4844 O   0  0  0  0  0  0  0  0  0  0  0  0
    2.2853   31.0910   25.4327 N   0  0  0  0  0  0  0  0  0  0  0  0
    1.1907   30.1588   25.2414 C   0  0  0  0  0  0  0  0  0  0  0  0
    3.5301   30.9423   24.6308 C   0  0  0  0  0  0  0  0  0  0  0  0
    4.7274   28.9486   23.7365 C   0  0  0  0  0  0  0  0  0  0  0  0
    4.3314   29.6823   25.0170 C   0  0  0  0  0  0  0  0  0  0  0  0
 14 12  1  0  0  0
 14 13  1  0  0  0
 16 12  2  0  0  0
 12 15  1  0  0  0
 13 11  2  0  0  0
 24 19  1  0  0  0
 15 11  1  0  0  0
 15 18  1  0  0  0
 11  4  1  0  0  0
 19 18  2  0  0  0
 19 20  1  0  0  0
 31 32  1  0  0  0
 18 21  1  0  0  0
  8  3  1  0  0  0
  4  3  2  0  0  0
  4  5  1  0  0  0
  3  2  1  0  0  0
 20 22  2  0  0  0
  5  6  2  0  0  0
 30 32  1  0  0  0
 30 28  1  0  0  0
 21 23  2  0  0  0
  2  1  2  0  0  0
 22 23  1  0  0  0
  6  1  1  0  0  0
  6 25  1  0  0  0
 28 29  1  0  0  0
 28 25  1  0  0  0
 26 25  2  0  0  0
  1  7  1  0  0  0
 25 27  2  0  0  0
  7  9  1  0  0  0
  8 10  1  0  0  0
 14 17  1  0  0  0
M  END
> <minimizedAffinity>
-8.12887

$$$$
5J6N_6FF_A_301


 32 34  0  0  0  0  0  0  0  0999 V2000
    3.6447   37.7490   27.3489 C   0  0  0  0  0  0  0  0  0  0  0  0
    3.0946   38.7926   26.6078 C   0  0  0  0  0  0  0  0  0  0  0  0
    2.8463   38.6079   25.2626 C   0  0  0  0  0  0  0  0  0  0  0  0
    3.1110   37.3544   24.6619 C   0  0  0  0  0  0  0  0  0  0  0  0
    3.6590   36.3212   25.4176 C   0  0  0  0  0  0  0  0  0  0  0  0
    3.9733   36.5206   26.7401 C   0  0  0  0  0  0  0  0  0  0  0  0
    3.9302   37.9913   28.6473 O   0  0  0  0  0  0  0  0  0  0  0  0
    2.3261   39.6490   24.5618 O   0  0  0  0  0  0  0  0  0  0  0  0
    3.7025   38.8152   29.0312 H   0  0  0  0  0  0  0  0  0  0  0  0
    2.1465   39.5548   23.6470 H   0  0  0  0  0  0  0  0  0  0  0  0
    2.9422   37.1403   23.2148 C   0  0  0  0  0  0  0  0  0  0  0  0
    3.3883   37.0424   21.0458 C   0  0  0  0  0  0  0  0  0  0  0  0
    1.8151   36.8647   22.6144 N   0  0  0  0  0  0  0  0  0  0  0  0
    2.0773   36.7823   21.2547 N   0  0  0  0  0  0  0  0  0  0  0  0
    3.9509   37.2801   22.2542 N   0  0  0  0  0  0  0  0  0  0  0  0
    3.9488   37.0791   19.9577 O   0  0  0  0  0  0  0  0  0  0  0  0
    1.4173   36.5692   20.5560 H   0  0  0  0  0  0  0  0  0  0  0  0
    5.2921   37.6508   22.4940 C   0  0  0  0  0  0  0  0  0  0  0  0
    6.3017   36.6848   22.4431 C   0  0  0  0  0  0  0  0  0  0  0  0
    7.6326   37.0410   22.6932 C   0  0  0  0  0  0  0  0  0  0  0  0
    5.6257   38.9773   22.8060 C   0  0  0  0  0  0  0  0  0  0  0  0
    7.9471   38.3562   23.0416 C   0  0  0  0  0  0  0  0  0  0  0  0
    6.9502   39.3282   23.0880 C   0  0  0  0  0  0  0  0  0  0  0  0
    5.9729   35.4211   22.0903 F   0  0  0  0  0  0  0  0  0  0  0  0
    4.6282   35.1327   27.6238 S   0  0  0  0  0  0  0  0  0  0  0  0
    4.4268   35.4243   29.0192 O   0  0  0  0  0  0  0  0  0  0  0  0
    4.0089   33.9914   27.0341 O   0  0  0  0  0  0  0  0  0  0  0  0
    6.2388   35.2734   27.2820 N   0  0  0  0  0  0  0  0  0  0  0  0
    7.1636   34.4181   28.0009 C   0  0  0  0  0  0  0  0  0  0  0  0
    6.7363   36.1291   26.1708 C   0  0  0  0  0  0  0  0  0  0  0  0
    8.8197   37.4918   26.2732 C   0  0  0  0  0  0  0  0  0  0  0  0
    8.2722   36.0850   26.0371 C   0  0  0  0  0  0  0  0  0  0  0  0
 14 12  1  0  0  0
 14 13  1  0  0  0
 16 12  2  0  0  0
 12 15  1  0  0  0
 13 11  2  0  0  0
 24 19  1  0  0  0
 15 11  1  0  0  0
 15 18  1  0  0  0
 11  4  1  0  0  0
 19 18  2  0  0  0
 19 20  1  0  0  0
 31 32  1  0  0  0
 18 21  1  0  0  0
  8  3  1  0  0  0
  4  3  2  0  0  0
  4  5  1  0  0  0
  3  2  1  0  0  0
 20 22  2  0  0  0
  5  6  2  0  0  0
 30 32  1  0  0  0
 30 28  1  0  0  0
 21 23  2  0  0  0
  2  1  2  0  0  0
 22 23  1  0  0  0
  6  1  1  0  0  0
  6 25  1  0  0  0
 28 29  1  0  0  0
 28 25  1  0  0  0
 26 25  2  0  0  0
  1  7  1  0  0  0
 25 27  2  0  0  0
  7  9  1  0  0  0
  8 10  1  0  0  0
 14 17  1  0  0  0
M  END
> <minimizedAffinity>
-7.97399

$$$$
