5J6N_6FF_A_301
  RCSB PDB12061718213D
Coordinates from PDB:5J6N:A:301 Model:1 without hydrogens
 29 31  0  0  0  0            999 V2000
   -0.8250   31.9980   26.5200   C 0  0  0  0  0  0  0  0  0  0  0  0
   -2.0580   32.3060   25.9490   C 0  0  0  0  0  0  0  0  0  0  0  0
   -2.0970   33.0500   24.7870   C 0  0  0  0  0  0  0  0  0  0  0  0
   -0.8870   34.3200   22.9760   C 0  0  0  0  0  0  0  0  0  0  0  0
   -0.5040   36.0520   21.6470   C 0  0  0  0  0  0  0  0  0  0  0  0
    0.5330   36.1810   23.8830   C 0  0  0  0  0  0  0  0  0  0  0  0
    1.9290   36.1110   23.8460   C 0  0  0  0  0  0  0  0  0  0  0  0
    2.6930   36.7200   24.8490   C 0  0  0  0  0  0  0  0  0  0  0  0
   -0.0930   36.8600   24.9390   C 0  0  0  0  0  0  0  0  0  0  0  0
    5.0070   29.2790   23.5890   C 0  0  0  0  0  0  0  0  0  0  0  0
   -0.8910   33.4540   24.1670   C 0  0  0  0  0  0  0  0  0  0  0  0
    0.3330   33.1360   24.7500   C 0  0  0  0  0  0  0  0  0  0  0  0
    0.3770   32.4560   25.9430   C 0  0  0  0  0  0  0  0  0  0  0  0
   -0.8330   31.3220   27.6900   O 0  0  0  0  0  0  0  0  0  0  0  0
   -3.3140   33.3500   24.2630   O 0  0  0  0  0  0  0  0  0  0  0  0
   -1.5550   34.1000   21.8750   N 0  0  0  0  0  0  0  0  0  0  0  0
   -1.3140   35.1670   21.0220   N 0  0  0  0  0  0  0  0  0  0  0  0
   -0.2300   35.5520   22.8750   N 0  0  0  0  0  0  0  0  0  0  0  0
    2.0580   37.3590   25.9160   C 0  0  0  0  0  0  0  0  0  0  0  0
    0.6680   37.4410   25.9590   C 0  0  0  0  0  0  0  0  0  0  0  0
   -0.1160   37.1190   21.1880   O 0  0  0  0  0  0  0  0  0  0  0  0
    1.9820   32.0650   26.5810   S 0  0  0  0  0  0  0  0  0  0  0  0
    2.8840   33.0170   25.9870   O 0  0  0  0  0  0  0  0  0  0  0  0
    1.8180   32.0210   27.9970   O 0  0  0  0  0  0  0  0  0  0  0  0
    2.2440   30.5870   25.8900   N 0  0  0  0  0  0  0  0  0  0  0  0
    3.0750   30.4260   24.6660   C 0  0  0  0  0  0  0  0  0  0  0  0
    4.3640   29.6220   24.9320   C 0  0  0  0  0  0  0  0  0  0  0  0
    1.5160   29.4500   26.4200   C 0  0  0  0  0  0  0  0  0  0  0  0
    2.5200   35.4980   22.7950   F 0  0  0  0  0  0  0  0  0  0  0  0
 17  5  1  0  0  0  0
 17 16  1  0  0  0  0
 21  5  2  0  0  0  0
  5 18  1  0  0  0  0
 16  4  2  0  0  0  0
 29  7  1  0  0  0  0
 18  4  1  0  0  0  0
 18  6  1  0  0  0  0
  4 11  1  0  0  0  0
  7  6  2  0  0  0  0
  7  8  1  0  0  0  0
 10 27  1  0  0  0  0
  6  9  1  0  0  0  0
 15  3  1  0  0  0  0
 11  3  2  0  0  0  0
 11 12  1  0  0  0  0
  3  2  1  0  0  0  0
  8 19  2  0  0  0  0
 12 13  2  0  0  0  0
 26 27  1  0  0  0  0
 26 25  1  0  0  0  0
  9 20  2  0  0  0  0
  2  1  2  0  0  0  0
 19 20  1  0  0  0  0
 13  1  1  0  0  0  0
 13 22  1  0  0  0  0
 25 28  1  0  0  0  0
 25 22  1  0  0  0  0
 23 22  2  0  0  0  0
  1 14  1  0  0  0  0
 22 24  2  0  0  0  0
A    1
C1
A    2
C2
A    3
C3
A    4
C9
A    5
C12
A    6
C14
A    7
C15
A    8
C16
A    9
C19
A   10
C27
A   11
C4
A   12
C5
A   13
C6
A   14
O7
A   15
O8
A   16
N10
A   17
N11
A   18
N13
A   19
C17
A   20
C18
A   21
O20
A   22
S21
A   23
O22
A   24
O23
A   25
N24
A   26
C25
A   27
C26
A   28
C28
A   29
F29
M  END
>  <InstanceId>
5J6N_6FF_A_301

>  <ChemCompId>
6FF

>  <PdbId>
5J6N

>  <ChainId>
A

>  <ResidueNumber>
301

>  <InsertionCode>


>  <Model>
1

>  <AltIds>


>  <MissingHeavyAtoms>
0

>  <ObservedFormula>
C18 N4 O5 S F

>  <Name>
5-[4-(2-fluorophenyl)-5-oxo-4,5-dihydro-1H-1,2,4-triazol-3-yl]-2,4-dihydroxy-N-methyl-N-propylbenzene-1-sulfonamide

>  <SystematicName>
5-[4-(2-fluorophenyl)-5-oxidanylidene-1~{H}-1,2,4-triazol-3-yl]-~{N}-methyl-2,4-bis(oxidanyl)-~{N}-propyl-benzenesulfonamide

>  <Synonyms>


>  <Type>
NON-POLYMER

>  <Formula>
C18 H19 F N4 O5 S

>  <MolecularWeight>
422.431

>  <ModifiedDate>
2017-12-01

>  <Parent>


>  <OneLetterCode>


>  <SubcomponentList>


>  <AmbiguousFlag>
N

>  <InChI>
InChI=1S/C18H19FN4O5S/c1-3-8-22(2)29(27,28)16-9-11(14(24)10-15(16)25)17-20-21-18(26)23(17)13-7-5-4-6-12(13)19/h4-7,9-10,24-25H,3,8H2,1-2H3,(H,21,26)

>  <InChIKey>
NSUUJCLUFLXEHL-UHFFFAOYSA-N

>  <SMILES>
CCCN(C)S(=O)(=O)c1cc(c(cc1O)O)C2=NNC(=O)N2c3ccccc3F

$$$$
