5MES_7LT_A_401


 58 63  0  0  0  0  0  0  0  0999 V2000
  -10.4978    0.3518  -28.4703 C   0  0  0  0  0  0  0  0  0  0  0  0
   -9.5119    1.4301  -28.0332 C   0  0  0  0  0  0  0  0  0  0  0  0
   -8.4445    0.9562  -27.0706 C   0  0  0  0  0  0  0  0  0  0  0  0
  -11.6460   -4.1296  -24.1174 C   0  0  0  0  0  0  0  0  0  0  0  0
  -12.3860   -4.6855  -22.8946 C   0  0  0  0  0  0  0  0  0  0  0  0
  -12.6755   -6.1897  -23.0031 C   0  0  0  0  0  0  0  0  0  0  0  0
  -11.7650   -6.9437  -23.9486 C   0  0  0  0  0  0  0  0  0  0  0  0
  -11.0340   -7.9876  -23.3829 C   0  0  0  0  0  0  0  0  0  0  0  0
  -10.1807   -8.7598  -24.1558 C   0  0  0  0  0  0  0  0  0  0  0  0
  -10.0357   -8.4970  -25.5053 C   0  0  0  0  0  0  0  0  0  0  0  0
  -10.7458   -7.4629  -26.0962 C   0  0  0  0  0  0  0  0  0  0  0  0
  -11.6203   -6.6938  -25.3233 C   0  0  0  0  0  0  0  0  0  0  0  0
  -12.4408   -4.3684  -25.4142 C   0  0  0  0  0  0  0  0  0  0  0  0
  -10.6520   -3.6208  -29.1556 C   0  0  0  0  0  0  0  0  0  0  0  0
  -11.3314   -2.2536  -29.2400 C   0  0  0  0  0  0  0  0  0  0  0  0
  -10.7757   -1.2957  -30.2764 C   0  0  0  0  0  0  0  0  0  0  0  0
   -8.8480   -0.3527  -25.0239 C   0  0  0  0  0  0  0  0  0  0  0  0
   -8.7505    0.9855  -25.6369 N   0  0  0  0  0  0  0  0  0  0  0  0
  -10.2491   -0.6133  -24.4708 C   0  0  0  0  0  0  0  0  0  0  0  0
  -10.6123   -2.0351  -24.8408 C   0  0  0  0  0  0  0  0  0  0  0  0
  -10.3070   -2.5071  -25.9351 O   0  0  0  0  0  0  0  0  0  0  0  0
  -11.2735   -2.7366  -23.9132 N   0  0  0  0  0  0  0  0  0  0  0  0
  -13.0917   -3.4873  -25.9567 O   0  0  0  0  0  0  0  0  0  0  0  0
  -12.3441   -5.6240  -25.9465 N   0  0  0  0  0  0  0  0  0  0  0  0
  -13.0472   -5.8870  -27.2011 C   0  0  0  0  0  0  0  0  0  0  0  0
  -12.4352   -5.1553  -28.3870 C   0  0  0  0  0  0  0  0  0  0  0  0
  -12.9760   -5.2000  -29.4898 O   0  0  0  0  0  0  0  0  0  0  0  0
  -11.3107   -4.4598  -28.1555 N   0  0  0  0  0  0  0  0  0  0  0  0
  -10.7015   -1.6390  -31.4523 O   0  0  0  0  0  0  0  0  0  0  0  0
  -10.3838   -0.0665  -29.8736 N   0  0  0  0  0  0  0  0  0  0  0  0
   -9.8474    0.9070  -30.8194 C   0  0  0  0  0  0  0  0  0  0  0  0
   -9.6416    1.4647  -25.5076 H   0  0  0  0  0  0  0  0  0  0  0  0
  -11.5158   -2.2975  -23.0660 H   0  0  0  0  0  0  0  0  0  0  0  0
  -10.9059   -4.5180  -27.2600 H   0  0  0  0  0  0  0  0  0  0  0  0
   -9.1560   -3.4639  -28.8330 C   0  0  0  0  0  0  0  0  0  0  0  0
   -8.1401   -5.2865  -27.4095 C   0  0  0  0  0  0  0  0  0  0  0  0
   -7.2936   -6.6876  -29.6898 C   0  0  0  0  0  0  0  0  0  0  0  0
   -8.4129   -4.7673  -28.6691 C   0  0  0  0  0  0  0  0  0  0  0  0
   -8.0064   -5.4893  -29.7894 C   0  0  0  0  0  0  0  0  0  0  0  0
   -7.0838   -7.1874  -28.4052 C   0  0  0  0  0  0  0  0  0  0  0  0
   -6.2350   -8.6831  -28.1927 Cl  0  0  0  0  0  0  0  0  0  0  0  0
   -7.4772   -6.4931  -27.2732 C   0  0  0  0  0  0  0  0  0  0  0  0
   -6.9747   -7.4252  -30.9723 C   0  0  0  0  0  0  0  0  0  0  0  0
   -5.5356   -7.1387  -31.5454 C   0  0  0  0  0  0  0  0  0  0  0  0
   -5.0358   -8.2896  -32.3886 C   0  0  0  0  0  0  0  0  0  0  0  0
   -5.4446   -8.4360  -33.7110 C   0  0  0  0  0  0  0  0  0  0  0  0
   -5.0336   -9.5275  -34.4652 C   0  0  0  0  0  0  0  0  0  0  0  0
   -4.2113  -10.4873  -33.9071 C   0  0  0  0  0  0  0  0  0  0  0  0
   -3.8138  -10.3644  -32.5896 C   0  0  0  0  0  0  0  0  0  0  0  0
   -4.2228   -9.2740  -31.8353 C   0  0  0  0  0  0  0  0  0  0  0  0
   -7.7391   -0.5875  -23.9874 C   0  0  0  0  0  0  0  0  0  0  0  0
   -5.9108   -6.3294  -23.8903 Cl  0  0  0  0  0  0  0  0  0  0  0  0
   -6.4405   -4.6693  -23.9162 C   0  0  0  0  0  0  0  0  0  0  0  0
   -6.0680   -3.8584  -24.9679 C   0  0  0  0  0  0  0  0  0  0  0  0
   -6.4757   -2.5347  -24.9746 C   0  0  0  0  0  0  0  0  0  0  0  0
   -7.2213   -4.1907  -22.8855 C   0  0  0  0  0  0  0  0  0  0  0  0
   -7.6291   -2.8669  -22.9086 C   0  0  0  0  0  0  0  0  0  0  0  0
   -7.2528   -2.0164  -23.9446 C   0  0  0  0  0  0  0  0  0  0  0  0
 47 48  2  0  0  0
 47 46  1  0  0  0
 48 49  1  0  0  0
 46 45  2  0  0  0
 49 50  2  0  0  0
 45 50  1  0  0  0
 45 44  1  0  0  0
 44 43  1  0  0  0
 29 16  2  0  0  0
 43 37  1  0  0  0
 31 30  1  0  0  0
 16 30  1  0  0  0
 16 15  1  0  0  0
 39 37  2  0  0  0
 39 38  1  0  0  0
 37 40  1  0  0  0
 30  1  1  0  0  0
 27 26  2  0  0  0
 15 14  1  0  0  0
 14 35  1  0  0  0
 14 28  1  0  0  0
 35 38  1  0  0  0
 38 36  2  0  0  0
 40 41  1  0  0  0
 40 42  2  0  0  0
  1  2  1  0  0  0
 26 28  1  0  0  0
 26 25  1  0  0  0
  2  3  1  0  0  0
 36 42  1  0  0  0
  3 18  1  0  0  0
 25 24  1  0  0  0
 11 10  2  0  0  0
 11 12  1  0  0  0
 21 20  2  0  0  0
 18 17  1  0  0  0
 24 13  1  0  0  0
 24 12  1  0  0  0
 23 13  2  0  0  0
 10  9  1  0  0  0
 13  4  1  0  0  0
 12  7  2  0  0  0
 17 19  1  0  0  0
 17 51  1  0  0  0
 55 54  2  0  0  0
 55 58  1  0  0  0
 20 19  1  0  0  0
 20 22  1  0  0  0
 54 53  1  0  0  0
 51 58  1  0  0  0
  9  8  2  0  0  0
  4 22  1  0  0  0
  4  5  1  0  0  0
 58 57  2  0  0  0
  7  8  1  0  0  0
  7  6  1  0  0  0
 53 52  1  0  0  0
 53 56  2  0  0  0
  6  5  1  0  0  0
 57 56  1  0  0  0
 18 32  1  0  0  0
 22 33  1  0  0  0
 28 34  1  0  0  0
M  END
> <minimizedAffinity>
-10.56809

$$$$
5MES_7LT_A_401


 58 63  0  0  0  0  0  0  0  0999 V2000
   -7.8169   -3.5030  -24.7386 C   0  0  0  0  0  0  0  0  0  0  0  0
   -6.5638   -4.3537  -24.5603 C   0  0  0  0  0  0  0  0  0  0  0  0
   -6.4370   -5.5027  -25.5371 C   0  0  0  0  0  0  0  0  0  0  0  0
  -12.8910   -6.6556  -26.8980 C   0  0  0  0  0  0  0  0  0  0  0  0
  -14.1412   -7.5229  -26.7063 C   0  0  0  0  0  0  0  0  0  0  0  0
  -15.2963   -7.1213  -27.6350 C   0  0  0  0  0  0  0  0  0  0  0  0
  -14.8756   -6.3773  -28.8845 C   0  0  0  0  0  0  0  0  0  0  0  0
  -15.2332   -6.9722  -30.0937 C   0  0  0  0  0  0  0  0  0  0  0  0
  -14.9168   -6.3728  -31.3030 C   0  0  0  0  0  0  0  0  0  0  0  0
  -14.2298   -5.1734  -31.3257 C   0  0  0  0  0  0  0  0  0  0  0  0
  -13.8565   -4.5591  -30.1399 C   0  0  0  0  0  0  0  0  0  0  0  0
  -14.1896   -5.1521  -28.9187 C   0  0  0  0  0  0  0  0  0  0  0  0
  -13.1964   -5.1655  -26.6598 C   0  0  0  0  0  0  0  0  0  0  0  0
  -10.3253   -2.2390  -27.6343 C   0  0  0  0  0  0  0  0  0  0  0  0
   -9.8675   -2.1613  -26.1775 C   0  0  0  0  0  0  0  0  0  0  0  0
   -8.5369   -1.4758  -25.9324 C   0  0  0  0  0  0  0  0  0  0  0  0
   -8.2040   -7.1387  -26.0533 C   0  0  0  0  0  0  0  0  0  0  0  0
   -7.0684   -6.7778  -25.1834 N   0  0  0  0  0  0  0  0  0  0  0  0
   -9.5089   -7.2249  -25.2616 C   0  0  0  0  0  0  0  0  0  0  0  0
  -10.5802   -6.5663  -26.1036 C   0  0  0  0  0  0  0  0  0  0  0  0
  -10.3446   -5.5489  -26.7539 O   0  0  0  0  0  0  0  0  0  0  0  0
  -11.7813   -7.1556  -26.0984 N   0  0  0  0  0  0  0  0  0  0  0  0
  -12.8980   -4.5920  -25.6223 O   0  0  0  0  0  0  0  0  0  0  0  0
  -13.7923   -4.5084  -27.7003 N   0  0  0  0  0  0  0  0  0  0  0  0
  -14.0636   -3.0810  -27.5375 C   0  0  0  0  0  0  0  0  0  0  0  0
  -12.7971   -2.2373  -27.5105 C   0  0  0  0  0  0  0  0  0  0  0  0
  -12.8598   -1.0315  -27.2810 O   0  0  0  0  0  0  0  0  0  0  0  0
  -11.6375   -2.8779  -27.7260 N   0  0  0  0  0  0  0  0  0  0  0  0
   -8.3505   -0.3334  -26.3406 O   0  0  0  0  0  0  0  0  0  0  0  0
   -7.5826   -2.1458  -25.2491 N   0  0  0  0  0  0  0  0  0  0  0  0
   -6.2829   -1.5429  -24.9715 C   0  0  0  0  0  0  0  0  0  0  0  0
   -7.4059   -6.7145  -24.2229 H   0  0  0  0  0  0  0  0  0  0  0  0
  -11.9193   -7.9521  -25.5364 H   0  0  0  0  0  0  0  0  0  0  0  0
  -11.6723   -3.8337  -27.9593 H   0  0  0  0  0  0  0  0  0  0  0  0
   -9.2922   -2.9947  -28.4878 C   0  0  0  0  0  0  0  0  0  0  0  0
   -9.9729   -4.7703  -30.1504 C   0  0  0  0  0  0  0  0  0  0  0  0
  -10.5722   -2.8250  -32.0834 C   0  0  0  0  0  0  0  0  0  0  0  0
   -9.7982   -3.4267  -29.8425 C   0  0  0  0  0  0  0  0  0  0  0  0
  -10.1244   -2.4747  -30.8064 C   0  0  0  0  0  0  0  0  0  0  0  0
  -10.7719   -4.1832  -32.3270 C   0  0  0  0  0  0  0  0  0  0  0  0
  -11.3542   -4.7024  -33.8743 Cl  0  0  0  0  0  0  0  0  0  0  0  0
  -10.4580   -5.1522  -31.3884 C   0  0  0  0  0  0  0  0  0  0  0  0
  -10.9725   -1.7057  -33.0202 C   0  0  0  0  0  0  0  0  0  0  0  0
  -11.9143   -0.6221  -32.3720 C   0  0  0  0  0  0  0  0  0  0  0  0
  -13.3299   -1.1330  -32.2284 C   0  0  0  0  0  0  0  0  0  0  0  0
  -13.9790   -1.7470  -33.2957 C   0  0  0  0  0  0  0  0  0  0  0  0
  -15.3001   -2.1599  -33.1815 C   0  0  0  0  0  0  0  0  0  0  0  0
  -15.9898   -1.9626  -32.0007 C   0  0  0  0  0  0  0  0  0  0  0  0
  -15.3637   -1.3369  -30.9399 C   0  0  0  0  0  0  0  0  0  0  0  0
  -14.0436   -0.9247  -31.0523 C   0  0  0  0  0  0  0  0  0  0  0  0
   -7.9141   -8.4038  -26.8744 C   0  0  0  0  0  0  0  0  0  0  0  0
   -4.9731   -7.4068  -32.0395 Cl  0  0  0  0  0  0  0  0  0  0  0  0
   -5.8217   -7.6965  -30.5450 C   0  0  0  0  0  0  0  0  0  0  0  0
   -7.0333   -7.0750  -30.3256 C   0  0  0  0  0  0  0  0  0  0  0  0
   -7.6950   -7.2935  -29.1286 C   0  0  0  0  0  0  0  0  0  0  0  0
   -5.2694   -8.5396  -29.6043 C   0  0  0  0  0  0  0  0  0  0  0  0
   -5.9456   -8.7560  -28.4146 C   0  0  0  0  0  0  0  0  0  0  0  0
   -7.1601   -8.1275  -28.1531 C   0  0  0  0  0  0  0  0  0  0  0  0
 47 48  2  0  0  0
 47 46  1  0  0  0
 48 49  1  0  0  0
 46 45  2  0  0  0
 49 50  2  0  0  0
 45 50  1  0  0  0
 45 44  1  0  0  0
 44 43  1  0  0  0
 29 16  2  0  0  0
 43 37  1  0  0  0
 31 30  1  0  0  0
 16 30  1  0  0  0
 16 15  1  0  0  0
 39 37  2  0  0  0
 39 38  1  0  0  0
 37 40  1  0  0  0
 30  1  1  0  0  0
 27 26  2  0  0  0
 15 14  1  0  0  0
 14 35  1  0  0  0
 14 28  1  0  0  0
 35 38  1  0  0  0
 38 36  2  0  0  0
 40 41  1  0  0  0
 40 42  2  0  0  0
  1  2  1  0  0  0
 26 28  1  0  0  0
 26 25  1  0  0  0
  2  3  1  0  0  0
 36 42  1  0  0  0
  3 18  1  0  0  0
 25 24  1  0  0  0
 11 10  2  0  0  0
 11 12  1  0  0  0
 21 20  2  0  0  0
 18 17  1  0  0  0
 24 13  1  0  0  0
 24 12  1  0  0  0
 23 13  2  0  0  0
 10  9  1  0  0  0
 13  4  1  0  0  0
 12  7  2  0  0  0
 17 19  1  0  0  0
 17 51  1  0  0  0
 55 54  2  0  0  0
 55 58  1  0  0  0
 20 19  1  0  0  0
 20 22  1  0  0  0
 54 53  1  0  0  0
 51 58  1  0  0  0
  9  8  2  0  0  0
  4 22  1  0  0  0
  4  5  1  0  0  0
 58 57  2  0  0  0
  7  8  1  0  0  0
  7  6  1  0  0  0
 53 52  1  0  0  0
 53 56  2  0  0  0
  6  5  1  0  0  0
 57 56  1  0  0  0
 18 32  1  0  0  0
 22 33  1  0  0  0
 28 34  1  0  0  0
M  END
> <minimizedAffinity>
-8.89456

$$$$
5MES_7LT_A_401


 58 63  0  0  0  0  0  0  0  0999 V2000
   -9.1272   -0.4163  -27.9053 C   0  0  0  0  0  0  0  0  0  0  0  0
   -9.4487   -0.7053  -29.3678 C   0  0  0  0  0  0  0  0  0  0  0  0
   -9.8538   -2.1351  -29.6541 C   0  0  0  0  0  0  0  0  0  0  0  0
   -6.6591   -5.3153  -24.7027 C   0  0  0  0  0  0  0  0  0  0  0  0
   -5.4892   -6.1939  -24.2430 C   0  0  0  0  0  0  0  0  0  0  0  0
   -5.6251   -6.6567  -22.7851 C   0  0  0  0  0  0  0  0  0  0  0  0
   -7.0409   -6.6560  -22.2493 C   0  0  0  0  0  0  0  0  0  0  0  0
   -7.5175   -7.8846  -21.7940 C   0  0  0  0  0  0  0  0  0  0  0  0
   -8.7936   -8.0015  -21.2653 C   0  0  0  0  0  0  0  0  0  0  0  0
   -9.6193   -6.8952  -21.1906 C   0  0  0  0  0  0  0  0  0  0  0  0
   -9.1757   -5.6604  -21.6392 C   0  0  0  0  0  0  0  0  0  0  0  0
   -7.8831   -5.5356  -22.1565 C   0  0  0  0  0  0  0  0  0  0  0  0
   -6.8059   -4.0636  -23.8183 C   0  0  0  0  0  0  0  0  0  0  0  0
  -10.1996   -1.5948  -24.1991 C   0  0  0  0  0  0  0  0  0  0  0  0
   -9.4262   -0.6191  -25.0866 C   0  0  0  0  0  0  0  0  0  0  0  0
  -10.2617    0.3749  -25.8705 C   0  0  0  0  0  0  0  0  0  0  0  0
   -8.6399   -4.1406  -28.8993 C   0  0  0  0  0  0  0  0  0  0  0  0
   -8.7924   -3.1056  -29.9394 N   0  0  0  0  0  0  0  0  0  0  0  0
   -7.2603   -4.0754  -28.2441 C   0  0  0  0  0  0  0  0  0  0  0  0
   -7.4684   -4.2651  -26.7572 C   0  0  0  0  0  0  0  0  0  0  0  0
   -8.4274   -3.7572  -26.1775 O   0  0  0  0  0  0  0  0  0  0  0  0
   -6.5580   -5.0133  -26.1237 N   0  0  0  0  0  0  0  0  0  0  0  0
   -6.4133   -2.9610  -24.1711 O   0  0  0  0  0  0  0  0  0  0  0  0
   -7.4396   -4.2537  -22.6219 N   0  0  0  0  0  0  0  0  0  0  0  0
   -7.6407   -3.0859  -21.7655 C   0  0  0  0  0  0  0  0  0  0  0  0
   -8.6518   -2.1013  -22.3354 C   0  0  0  0  0  0  0  0  0  0  0  0
   -8.8523   -1.0250  -21.7769 O   0  0  0  0  0  0  0  0  0  0  0  0
   -9.2781   -2.4622  -23.4664 N   0  0  0  0  0  0  0  0  0  0  0  0
  -11.0558    1.1053  -25.2857 O   0  0  0  0  0  0  0  0  0  0  0  0
  -10.0971    0.4404  -27.2104 N   0  0  0  0  0  0  0  0  0  0  0  0
  -10.8627    1.3791  -28.0243 C   0  0  0  0  0  0  0  0  0  0  0  0
   -7.9096   -2.6017  -30.0242 H   0  0  0  0  0  0  0  0  0  0  0  0
   -5.7959   -5.3709  -26.6342 H   0  0  0  0  0  0  0  0  0  0  0  0
   -9.1070   -3.3635  -23.8236 H   0  0  0  0  0  0  0  0  0  0  0  0
  -11.1808   -2.4306  -25.0389 C   0  0  0  0  0  0  0  0  0  0  0  0
  -13.3361   -2.4789  -23.7225 C   0  0  0  0  0  0  0  0  0  0  0  0
  -13.0625   -5.2321  -23.2481 C   0  0  0  0  0  0  0  0  0  0  0  0
  -12.2335   -3.1525  -24.2335 C   0  0  0  0  0  0  0  0  0  0  0  0
  -12.1276   -4.5237  -24.0085 C   0  0  0  0  0  0  0  0  0  0  0  0
  -14.1718   -4.5191  -22.7952 C   0  0  0  0  0  0  0  0  0  0  0  0
  -15.3942   -5.3274  -21.8705 Cl  0  0  0  0  0  0  0  0  0  0  0  0
  -14.3051   -3.1564  -23.0042 C   0  0  0  0  0  0  0  0  0  0  0  0
  -12.8884   -6.7314  -23.1376 C   0  0  0  0  0  0  0  0  0  0  0  0
  -12.8183   -7.4806  -24.5214 C   0  0  0  0  0  0  0  0  0  0  0  0
  -11.3999   -7.8723  -24.8681 C   0  0  0  0  0  0  0  0  0  0  0  0
  -10.7960   -8.9730  -24.2671 C   0  0  0  0  0  0  0  0  0  0  0  0
   -9.4729   -9.2948  -24.5402 C   0  0  0  0  0  0  0  0  0  0  0  0
   -8.7360   -8.5199  -25.4151 C   0  0  0  0  0  0  0  0  0  0  0  0
   -9.3171   -7.4133  -26.0038 C   0  0  0  0  0  0  0  0  0  0  0  0
  -10.6392   -7.0912  -25.7326 C   0  0  0  0  0  0  0  0  0  0  0  0
   -8.9877   -5.5391  -29.4307 C   0  0  0  0  0  0  0  0  0  0  0  0
   -4.2221   -8.9579  -30.8174 Cl  0  0  0  0  0  0  0  0  0  0  0  0
   -5.6004   -7.9703  -30.4142 C   0  0  0  0  0  0  0  0  0  0  0  0
   -6.0222   -7.0048  -31.3043 C   0  0  0  0  0  0  0  0  0  0  0  0
   -7.1064   -6.2097  -30.9712 C   0  0  0  0  0  0  0  0  0  0  0  0
   -6.2467   -8.1667  -29.2123 C   0  0  0  0  0  0  0  0  0  0  0  0
   -7.3348   -7.3701  -28.8951 C   0  0  0  0  0  0  0  0  0  0  0  0
   -7.7729   -6.3725  -29.7619 C   0  0  0  0  0  0  0  0  0  0  0  0
 47 48  2  0  0  0
 47 46  1  0  0  0
 48 49  1  0  0  0
 46 45  2  0  0  0
 49 50  2  0  0  0
 45 50  1  0  0  0
 45 44  1  0  0  0
 44 43  1  0  0  0
 29 16  2  0  0  0
 43 37  1  0  0  0
 31 30  1  0  0  0
 16 30  1  0  0  0
 16 15  1  0  0  0
 39 37  2  0  0  0
 39 38  1  0  0  0
 37 40  1  0  0  0
 30  1  1  0  0  0
 27 26  2  0  0  0
 15 14  1  0  0  0
 14 35  1  0  0  0
 14 28  1  0  0  0
 35 38  1  0  0  0
 38 36  2  0  0  0
 40 41  1  0  0  0
 40 42  2  0  0  0
  1  2  1  0  0  0
 26 28  1  0  0  0
 26 25  1  0  0  0
  2  3  1  0  0  0
 36 42  1  0  0  0
  3 18  1  0  0  0
 25 24  1  0  0  0
 11 10  2  0  0  0
 11 12  1  0  0  0
 21 20  2  0  0  0
 18 17  1  0  0  0
 24 13  1  0  0  0
 24 12  1  0  0  0
 23 13  2  0  0  0
 10  9  1  0  0  0
 13  4  1  0  0  0
 12  7  2  0  0  0
 17 19  1  0  0  0
 17 51  1  0  0  0
 55 54  2  0  0  0
 55 58  1  0  0  0
 20 19  1  0  0  0
 20 22  1  0  0  0
 54 53  1  0  0  0
 51 58  1  0  0  0
  9  8  2  0  0  0
  4 22  1  0  0  0
  4  5  1  0  0  0
 58 57  2  0  0  0
  7  8  1  0  0  0
  7  6  1  0  0  0
 53 52  1  0  0  0
 53 56  2  0  0  0
  6  5  1  0  0  0
 57 56  1  0  0  0
 18 32  1  0  0  0
 22 33  1  0  0  0
 28 34  1  0  0  0
M  END
> <minimizedAffinity>
-8.88806

$$$$
5MES_7LT_A_401


 58 63  0  0  0  0  0  0  0  0999 V2000
  -10.5783   -2.9875  -24.1618 C   0  0  0  0  0  0  0  0  0  0  0  0
  -11.0241   -3.7121  -22.8961 C   0  0  0  0  0  0  0  0  0  0  0  0
  -11.7397   -5.0234  -23.1388 C   0  0  0  0  0  0  0  0  0  0  0  0
  -14.3317   -3.8859  -29.2070 C   0  0  0  0  0  0  0  0  0  0  0  0
  -15.5519   -3.5556  -30.0754 C   0  0  0  0  0  0  0  0  0  0  0  0
  -15.2626   -3.6634  -31.5796 C   0  0  0  0  0  0  0  0  0  0  0  0
  -14.0930   -4.5551  -31.9378 C   0  0  0  0  0  0  0  0  0  0  0  0
  -14.3839   -5.6281  -32.7792 C   0  0  0  0  0  0  0  0  0  0  0  0
  -13.3886   -6.5018  -33.1889 C   0  0  0  0  0  0  0  0  0  0  0  0
  -12.0870   -6.3242  -32.7580 C   0  0  0  0  0  0  0  0  0  0  0  0
  -11.7669   -5.2690  -31.9174 C   0  0  0  0  0  0  0  0  0  0  0  0
  -12.7649   -4.3760  -31.5168 C   0  0  0  0  0  0  0  0  0  0  0  0
  -13.1430   -2.9623  -29.5299 C   0  0  0  0  0  0  0  0  0  0  0  0
   -9.3360   -3.7776  -27.9178 C   0  0  0  0  0  0  0  0  0  0  0  0
   -9.5567   -2.7543  -26.8033 C   0  0  0  0  0  0  0  0  0  0  0  0
   -8.6058   -2.8368  -25.6245 C   0  0  0  0  0  0  0  0  0  0  0  0
  -13.6042   -5.3619  -24.7117 C   0  0  0  0  0  0  0  0  0  0  0  0
  -13.1907   -4.9858  -23.3465 N   0  0  0  0  0  0  0  0  0  0  0  0
  -14.3095   -4.2055  -25.4205 C   0  0  0  0  0  0  0  0  0  0  0  0
  -13.7876   -4.1741  -26.8406 C   0  0  0  0  0  0  0  0  0  0  0  0
  -12.6023   -4.3908  -27.0895 O   0  0  0  0  0  0  0  0  0  0  0  0
  -14.6858   -3.9037  -27.7945 N   0  0  0  0  0  0  0  0  0  0  0  0
  -12.8387   -2.0127  -28.8229 O   0  0  0  0  0  0  0  0  0  0  0  0
  -12.4205   -3.2925  -30.6427 N   0  0  0  0  0  0  0  0  0  0  0  0
  -11.2561   -2.4698  -30.9667 C   0  0  0  0  0  0  0  0  0  0  0  0
  -10.1169   -2.6387  -29.9716 C   0  0  0  0  0  0  0  0  0  0  0  0
   -9.1101   -1.9388  -30.0566 O   0  0  0  0  0  0  0  0  0  0  0  0
  -10.2842   -3.5594  -29.0093 N   0  0  0  0  0  0  0  0  0  0  0  0
   -7.3935   -2.7854  -25.8090 O   0  0  0  0  0  0  0  0  0  0  0  0
   -9.1267   -2.9526  -24.3828 N   0  0  0  0  0  0  0  0  0  0  0  0
   -8.2696   -3.0290  -23.2042 C   0  0  0  0  0  0  0  0  0  0  0  0
  -13.5182   -4.0379  -23.1605 H   0  0  0  0  0  0  0  0  0  0  0  0
  -15.6152   -3.7108  -27.5334 H   0  0  0  0  0  0  0  0  0  0  0  0
  -11.0926   -4.1205  -29.0402 H   0  0  0  0  0  0  0  0  0  0  0  0
   -9.4579   -5.2102  -27.3704 C   0  0  0  0  0  0  0  0  0  0  0  0
   -7.5008   -6.6989  -26.7926 C   0  0  0  0  0  0  0  0  0  0  0  0
   -7.0330   -7.2494  -29.5050 C   0  0  0  0  0  0  0  0  0  0  0  0
   -8.3207   -6.1245  -27.7561 C   0  0  0  0  0  0  0  0  0  0  0  0
   -8.0882   -6.4291  -29.0958 C   0  0  0  0  0  0  0  0  0  0  0  0
   -6.2672   -7.8351  -28.4977 C   0  0  0  0  0  0  0  0  0  0  0  0
   -4.9578   -8.8899  -28.9166 Cl  0  0  0  0  0  0  0  0  0  0  0  0
   -6.4752   -7.5524  -27.1579 C   0  0  0  0  0  0  0  0  0  0  0  0
   -6.9258   -7.5752  -30.9791 C   0  0  0  0  0  0  0  0  0  0  0  0
   -5.5069   -7.2966  -31.6041 C   0  0  0  0  0  0  0  0  0  0  0  0
   -5.0595   -8.4352  -32.4923 C   0  0  0  0  0  0  0  0  0  0  0  0
   -4.0923   -9.3388  -32.0619 C   0  0  0  0  0  0  0  0  0  0  0  0
   -3.6377  -10.3470  -32.9020 C   0  0  0  0  0  0  0  0  0  0  0  0
   -4.1418  -10.4635  -34.1831 C   0  0  0  0  0  0  0  0  0  0  0  0
   -5.0881   -9.5614  -34.6299 C   0  0  0  0  0  0  0  0  0  0  0  0
   -5.5439   -8.5543  -33.7913 C   0  0  0  0  0  0  0  0  0  0  0  0
  -14.4219   -6.6620  -24.7224 C   0  0  0  0  0  0  0  0  0  0  0  0
  -16.7526   -7.8232  -30.1575 Cl  0  0  0  0  0  0  0  0  0  0  0  0
  -16.0809   -7.4868  -28.5850 C   0  0  0  0  0  0  0  0  0  0  0  0
  -14.7458   -7.7438  -28.3525 C   0  0  0  0  0  0  0  0  0  0  0  0
  -14.2208   -7.4925  -27.0956 C   0  0  0  0  0  0  0  0  0  0  0  0
  -16.8929   -6.9715  -27.5970 C   0  0  0  0  0  0  0  0  0  0  0  0
  -16.3532   -6.7170  -26.3467 C   0  0  0  0  0  0  0  0  0  0  0  0
  -15.0147   -6.9850  -26.0731 C   0  0  0  0  0  0  0  0  0  0  0  0
 47 48  2  0  0  0
 47 46  1  0  0  0
 48 49  1  0  0  0
 46 45  2  0  0  0
 49 50  2  0  0  0
 45 50  1  0  0  0
 45 44  1  0  0  0
 44 43  1  0  0  0
 29 16  2  0  0  0
 43 37  1  0  0  0
 31 30  1  0  0  0
 16 30  1  0  0  0
 16 15  1  0  0  0
 39 37  2  0  0  0
 39 38  1  0  0  0
 37 40  1  0  0  0
 30  1  1  0  0  0
 27 26  2  0  0  0
 15 14  1  0  0  0
 14 35  1  0  0  0
 14 28  1  0  0  0
 35 38  1  0  0  0
 38 36  2  0  0  0
 40 41  1  0  0  0
 40 42  2  0  0  0
  1  2  1  0  0  0
 26 28  1  0  0  0
 26 25  1  0  0  0
  2  3  1  0  0  0
 36 42  1  0  0  0
  3 18  1  0  0  0
 25 24  1  0  0  0
 11 10  2  0  0  0
 11 12  1  0  0  0
 21 20  2  0  0  0
 18 17  1  0  0  0
 24 13  1  0  0  0
 24 12  1  0  0  0
 23 13  2  0  0  0
 10  9  1  0  0  0
 13  4  1  0  0  0
 12  7  2  0  0  0
 17 19  1  0  0  0
 17 51  1  0  0  0
 55 54  2  0  0  0
 55 58  1  0  0  0
 20 19  1  0  0  0
 20 22  1  0  0  0
 54 53  1  0  0  0
 51 58  1  0  0  0
  9  8  2  0  0  0
  4 22  1  0  0  0
  4  5  1  0  0  0
 58 57  2  0  0  0
  7  8  1  0  0  0
  7  6  1  0  0  0
 53 52  1  0  0  0
 53 56  2  0  0  0
  6  5  1  0  0  0
 57 56  1  0  0  0
 18 32  1  0  0  0
 22 33  1  0  0  0
 28 34  1  0  0  0
M  END
> <minimizedAffinity>
-8.74371

$$$$
5MES_7LT_A_401


 58 63  0  0  0  0  0  0  0  0999 V2000
   -8.7734    1.5806  -21.6583 C   0  0  0  0  0  0  0  0  0  0  0  0
   -8.7784    2.8462  -22.5092 C   0  0  0  0  0  0  0  0  0  0  0  0
   -9.0881    2.6209  -23.9733 C   0  0  0  0  0  0  0  0  0  0  0  0
   -6.9331   -3.6755  -24.7138 C   0  0  0  0  0  0  0  0  0  0  0  0
   -5.8679   -4.6486  -25.2338 C   0  0  0  0  0  0  0  0  0  0  0  0
   -6.2952   -6.1193  -25.1215 C   0  0  0  0  0  0  0  0  0  0  0  0
   -7.7912   -6.3415  -25.0571 C   0  0  0  0  0  0  0  0  0  0  0  0
   -8.3288   -7.1441  -26.0625 C   0  0  0  0  0  0  0  0  0  0  0  0
   -9.6845   -7.4315  -26.0954 C   0  0  0  0  0  0  0  0  0  0  0  0
  -10.5284   -6.9149  -25.1298 C   0  0  0  0  0  0  0  0  0  0  0  0
  -10.0245   -6.1100  -24.1194 C   0  0  0  0  0  0  0  0  0  0  0  0
   -8.6553   -5.8328  -24.0734 C   0  0  0  0  0  0  0  0  0  0  0  0
   -7.2840   -3.9575  -23.2415 C   0  0  0  0  0  0  0  0  0  0  0  0
  -10.5703   -2.0251  -21.4461 C   0  0  0  0  0  0  0  0  0  0  0  0
   -9.6478   -0.9861  -20.8079 C   0  0  0  0  0  0  0  0  0  0  0  0
  -10.3207    0.2630  -20.2716 C   0  0  0  0  0  0  0  0  0  0  0  0
   -8.0201    0.9335  -25.4147 C   0  0  0  0  0  0  0  0  0  0  0  0
   -7.9725    2.3039  -24.8705 N   0  0  0  0  0  0  0  0  0  0  0  0
   -6.8083    0.1138  -24.9714 C   0  0  0  0  0  0  0  0  0  0  0  0
   -7.3173   -1.2632  -24.6039 C   0  0  0  0  0  0  0  0  0  0  0  0
   -8.3852   -1.4112  -24.0112 O   0  0  0  0  0  0  0  0  0  0  0  0
   -6.5445   -2.2943  -24.9636 N   0  0  0  0  0  0  0  0  0  0  0  0
   -6.8474   -3.2811  -22.3216 O   0  0  0  0  0  0  0  0  0  0  0  0
   -8.1489   -4.9942  -23.0260 N   0  0  0  0  0  0  0  0  0  0  0  0
   -8.5456   -5.2737  -21.6469 C   0  0  0  0  0  0  0  0  0  0  0  0
   -9.4344   -4.1890  -21.0554 C   0  0  0  0  0  0  0  0  0  0  0  0
   -9.7669   -4.2357  -19.8731 O   0  0  0  0  0  0  0  0  0  0  0  0
   -9.8050   -3.1943  -21.8769 N   0  0  0  0  0  0  0  0  0  0  0  0
  -11.2327    0.1669  -19.4559 O   0  0  0  0  0  0  0  0  0  0  0  0
   -9.8824    1.4668  -20.7021 N   0  0  0  0  0  0  0  0  0  0  0  0
  -10.4797    2.7085  -20.2211 C   0  0  0  0  0  0  0  0  0  0  0  0
   -7.1010    2.4144  -24.3521 H   0  0  0  0  0  0  0  0  0  0  0  0
   -5.6864   -2.1138  -25.4111 H   0  0  0  0  0  0  0  0  0  0  0  0
   -9.5465   -3.2555  -22.8249 H   0  0  0  0  0  0  0  0  0  0  0  0
  -11.3396   -1.4131  -22.6295 C   0  0  0  0  0  0  0  0  0  0  0  0
  -13.1942   -3.0383  -23.1770 C   0  0  0  0  0  0  0  0  0  0  0  0
  -11.9890   -3.6917  -25.6265 C   0  0  0  0  0  0  0  0  0  0  0  0
  -12.0000   -2.4245  -23.5344 C   0  0  0  0  0  0  0  0  0  0  0  0
  -11.4297   -2.7434  -24.7652 C   0  0  0  0  0  0  0  0  0  0  0  0
  -13.2091   -4.2460  -25.2414 C   0  0  0  0  0  0  0  0  0  0  0  0
  -13.9869   -5.4075  -26.2653 Cl  0  0  0  0  0  0  0  0  0  0  0  0
  -13.8006   -3.9476  -24.0251 C   0  0  0  0  0  0  0  0  0  0  0  0
  -11.3263   -3.8981  -26.9714 C   0  0  0  0  0  0  0  0  0  0  0  0
   -9.7948   -3.5309  -27.0038 C   0  0  0  0  0  0  0  0  0  0  0  0
   -9.1378   -4.0067  -28.2794 C   0  0  0  0  0  0  0  0  0  0  0  0
   -9.8971   -4.2884  -29.4115 C   0  0  0  0  0  0  0  0  0  0  0  0
   -9.2993   -4.7843  -30.5628 C   0  0  0  0  0  0  0  0  0  0  0  0
   -7.9361   -5.0072  -30.5968 C   0  0  0  0  0  0  0  0  0  0  0  0
   -7.1734   -4.7502  -29.4738 C   0  0  0  0  0  0  0  0  0  0  0  0
   -7.7692   -4.2538  -28.3233 C   0  0  0  0  0  0  0  0  0  0  0  0
   -8.2234    0.9310  -26.9370 C   0  0  0  0  0  0  0  0  0  0  0  0
  -13.5444   -1.2882  -28.6933 Cl  0  0  0  0  0  0  0  0  0  0  0  0
  -12.0066   -0.6460  -28.1832 C   0  0  0  0  0  0  0  0  0  0  0  0
  -10.9305   -0.7081  -29.0437 C   0  0  0  0  0  0  0  0  0  0  0  0
   -9.7057   -0.2135  -28.6268 C   0  0  0  0  0  0  0  0  0  0  0  0
  -11.8877   -0.0880  -26.9280 C   0  0  0  0  0  0  0  0  0  0  0  0
  -10.6590    0.4105  -26.5266 C   0  0  0  0  0  0  0  0  0  0  0  0
   -9.5479    0.3441  -27.3629 C   0  0  0  0  0  0  0  0  0  0  0  0
 47 48  2  0  0  0
 47 46  1  0  0  0
 48 49  1  0  0  0
 46 45  2  0  0  0
 49 50  2  0  0  0
 45 50  1  0  0  0
 45 44  1  0  0  0
 44 43  1  0  0  0
 29 16  2  0  0  0
 43 37  1  0  0  0
 31 30  1  0  0  0
 16 30  1  0  0  0
 16 15  1  0  0  0
 39 37  2  0  0  0
 39 38  1  0  0  0
 37 40  1  0  0  0
 30  1  1  0  0  0
 27 26  2  0  0  0
 15 14  1  0  0  0
 14 35  1  0  0  0
 14 28  1  0  0  0
 35 38  1  0  0  0
 38 36  2  0  0  0
 40 41  1  0  0  0
 40 42  2  0  0  0
  1  2  1  0  0  0
 26 28  1  0  0  0
 26 25  1  0  0  0
  2  3  1  0  0  0
 36 42  1  0  0  0
  3 18  1  0  0  0
 25 24  1  0  0  0
 11 10  2  0  0  0
 11 12  1  0  0  0
 21 20  2  0  0  0
 18 17  1  0  0  0
 24 13  1  0  0  0
 24 12  1  0  0  0
 23 13  2  0  0  0
 10  9  1  0  0  0
 13  4  1  0  0  0
 12  7  2  0  0  0
 17 19  1  0  0  0
 17 51  1  0  0  0
 55 54  2  0  0  0
 55 58  1  0  0  0
 20 19  1  0  0  0
 20 22  1  0  0  0
 54 53  1  0  0  0
 51 58  1  0  0  0
  9  8  2  0  0  0
  4 22  1  0  0  0
  4  5  1  0  0  0
 58 57  2  0  0  0
  7  8  1  0  0  0
  7  6  1  0  0  0
 53 52  1  0  0  0
 53 56  2  0  0  0
  6  5  1  0  0  0
 57 56  1  0  0  0
 18 32  1  0  0  0
 22 33  1  0  0  0
 28 34  1  0  0  0
M  END
> <minimizedAffinity>
-8.38485

$$$$
5MES_7LT_A_401


 58 63  0  0  0  0  0  0  0  0999 V2000
  -12.6576   -4.2651  -31.4655 C   0  0  0  0  0  0  0  0  0  0  0  0
  -11.5166   -4.7386  -32.3597 C   0  0  0  0  0  0  0  0  0  0  0  0
  -10.2460   -5.1020  -31.6221 C   0  0  0  0  0  0  0  0  0  0  0  0
  -10.8274   -1.2016  -26.2106 C   0  0  0  0  0  0  0  0  0  0  0  0
  -10.4008    0.0560  -25.4436 C   0  0  0  0  0  0  0  0  0  0  0  0
  -10.9751    0.1128  -24.0206 C   0  0  0  0  0  0  0  0  0  0  0  0
  -11.3659   -1.2299  -23.4408 C   0  0  0  0  0  0  0  0  0  0  0  0
  -10.7244   -1.5887  -22.2560 C   0  0  0  0  0  0  0  0  0  0  0  0
  -11.0150   -2.7877  -21.6240 C   0  0  0  0  0  0  0  0  0  0  0  0
  -11.9448   -3.6535  -22.1691 C   0  0  0  0  0  0  0  0  0  0  0  0
  -12.5965   -3.3269  -23.3487 C   0  0  0  0  0  0  0  0  0  0  0  0
  -12.3186   -2.1107  -23.9790 C   0  0  0  0  0  0  0  0  0  0  0  0
  -12.3600   -1.3076  -26.3119 C   0  0  0  0  0  0  0  0  0  0  0  0
  -14.1416   -4.8417  -27.7587 C   0  0  0  0  0  0  0  0  0  0  0  0
  -14.3030   -4.2258  -29.1489 C   0  0  0  0  0  0  0  0  0  0  0  0
  -14.6008   -5.1949  -30.2770 C   0  0  0  0  0  0  0  0  0  0  0  0
   -9.1362   -3.7104  -29.9202 C   0  0  0  0  0  0  0  0  0  0  0  0
   -9.2788   -4.0335  -31.3525 N   0  0  0  0  0  0  0  0  0  0  0  0
   -9.5543   -2.2693  -29.6282 C   0  0  0  0  0  0  0  0  0  0  0  0
  -10.3603   -2.2944  -28.3475 C   0  0  0  0  0  0  0  0  0  0  0  0
  -11.1541   -3.2042  -28.1112 O   0  0  0  0  0  0  0  0  0  0  0  0
  -10.1537   -1.2807  -27.4992 N   0  0  0  0  0  0  0  0  0  0  0  0
  -12.9724   -1.0140  -27.3283 O   0  0  0  0  0  0  0  0  0  0  0  0
  -12.9960   -1.7886  -25.2013 N   0  0  0  0  0  0  0  0  0  0  0  0
  -14.4481   -1.9475  -25.2642 C   0  0  0  0  0  0  0  0  0  0  0  0
  -14.8808   -3.0656  -26.2018 C   0  0  0  0  0  0  0  0  0  0  0  0
  -16.0730   -3.2538  -26.4341 O   0  0  0  0  0  0  0  0  0  0  0  0
  -13.9058   -3.7995  -26.7605 N   0  0  0  0  0  0  0  0  0  0  0  0
  -15.5638   -5.9517  -30.1980 O   0  0  0  0  0  0  0  0  0  0  0  0
  -13.7940   -5.1898  -31.3613 N   0  0  0  0  0  0  0  0  0  0  0  0
  -14.0278   -6.0902  -32.4857 C   0  0  0  0  0  0  0  0  0  0  0  0
   -9.5826   -3.1928  -31.8436 H   0  0  0  0  0  0  0  0  0  0  0  0
   -9.5267   -0.5658  -27.7542 H   0  0  0  0  0  0  0  0  0  0  0  0
  -12.9776   -3.6261  -26.4819 H   0  0  0  0  0  0  0  0  0  0  0  0
  -12.9977   -5.8704  -27.7509 C   0  0  0  0  0  0  0  0  0  0  0  0
  -13.6646   -6.9733  -25.5785 C   0  0  0  0  0  0  0  0  0  0  0  0
  -11.0115   -6.9263  -24.6629 C   0  0  0  0  0  0  0  0  0  0  0  0
  -12.6734   -6.4326  -26.3882 C   0  0  0  0  0  0  0  0  0  0  0  0
  -11.3586   -6.4405  -25.9268 C   0  0  0  0  0  0  0  0  0  0  0  0
  -12.0352   -7.4973  -23.9079 C   0  0  0  0  0  0  0  0  0  0  0  0
  -11.6861   -8.1510  -22.3415 Cl  0  0  0  0  0  0  0  0  0  0  0  0
  -13.3509   -7.5051  -24.3405 C   0  0  0  0  0  0  0  0  0  0  0  0
   -9.5424   -6.9585  -24.3006 C   0  0  0  0  0  0  0  0  0  0  0  0
   -9.0914   -5.8146  -23.3159 C   0  0  0  0  0  0  0  0  0  0  0  0
   -8.1527   -4.8406  -23.9910 C   0  0  0  0  0  0  0  0  0  0  0  0
   -8.6321   -3.6629  -24.5572 C   0  0  0  0  0  0  0  0  0  0  0  0
   -7.7781   -2.7994  -25.2309 C   0  0  0  0  0  0  0  0  0  0  0  0
   -6.4354   -3.1026  -25.3493 C   0  0  0  0  0  0  0  0  0  0  0  0
   -5.9498   -4.2777  -24.8088 C   0  0  0  0  0  0  0  0  0  0  0  0
   -6.8017   -5.1409  -24.1346 C   0  0  0  0  0  0  0  0  0  0  0  0
   -7.7321   -4.0469  -29.3965 C   0  0  0  0  0  0  0  0  0  0  0  0
   -7.0187   -9.7541  -27.5965 Cl  0  0  0  0  0  0  0  0  0  0  0  0
   -7.2246   -8.1044  -28.1193 C   0  0  0  0  0  0  0  0  0  0  0  0
   -7.5992   -7.1469  -27.1999 C   0  0  0  0  0  0  0  0  0  0  0  0
   -7.7798   -5.8407  -27.6239 C   0  0  0  0  0  0  0  0  0  0  0  0
   -7.0124   -7.7812  -29.4428 C   0  0  0  0  0  0  0  0  0  0  0  0
   -7.1887   -6.4694  -29.8520 C   0  0  0  0  0  0  0  0  0  0  0  0
   -7.5869   -5.4831  -28.9536 C   0  0  0  0  0  0  0  0  0  0  0  0
 47 48  2  0  0  0
 47 46  1  0  0  0
 48 49  1  0  0  0
 46 45  2  0  0  0
 49 50  2  0  0  0
 45 50  1  0  0  0
 45 44  1  0  0  0
 44 43  1  0  0  0
 29 16  2  0  0  0
 43 37  1  0  0  0
 31 30  1  0  0  0
 16 30  1  0  0  0
 16 15  1  0  0  0
 39 37  2  0  0  0
 39 38  1  0  0  0
 37 40  1  0  0  0
 30  1  1  0  0  0
 27 26  2  0  0  0
 15 14  1  0  0  0
 14 35  1  0  0  0
 14 28  1  0  0  0
 35 38  1  0  0  0
 38 36  2  0  0  0
 40 41  1  0  0  0
 40 42  2  0  0  0
  1  2  1  0  0  0
 26 28  1  0  0  0
 26 25  1  0  0  0
  2  3  1  0  0  0
 36 42  1  0  0  0
  3 18  1  0  0  0
 25 24  1  0  0  0
 11 10  2  0  0  0
 11 12  1  0  0  0
 21 20  2  0  0  0
 18 17  1  0  0  0
 24 13  1  0  0  0
 24 12  1  0  0  0
 23 13  2  0  0  0
 10  9  1  0  0  0
 13  4  1  0  0  0
 12  7  2  0  0  0
 17 19  1  0  0  0
 17 51  1  0  0  0
 55 54  2  0  0  0
 55 58  1  0  0  0
 20 19  1  0  0  0
 20 22  1  0  0  0
 54 53  1  0  0  0
 51 58  1  0  0  0
  9  8  2  0  0  0
  4 22  1  0  0  0
  4  5  1  0  0  0
 58 57  2  0  0  0
  7  8  1  0  0  0
  7  6  1  0  0  0
 53 52  1  0  0  0
 53 56  2  0  0  0
  6  5  1  0  0  0
 57 56  1  0  0  0
 18 32  1  0  0  0
 22 33  1  0  0  0
 28 34  1  0  0  0
M  END
> <minimizedAffinity>
-8.06532

$$$$
5MES_7LT_A_401


 58 63  0  0  0  0  0  0  0  0999 V2000
  -11.5326   -2.9926  -30.8307 C   0  0  0  0  0  0  0  0  0  0  0  0
  -10.8615   -4.1884  -31.4982 C   0  0  0  0  0  0  0  0  0  0  0  0
  -10.1192   -5.1055  -30.5504 C   0  0  0  0  0  0  0  0  0  0  0  0
   -8.5399   -0.7928  -25.6777 C   0  0  0  0  0  0  0  0  0  0  0  0
   -7.4849    0.0736  -24.9790 C   0  0  0  0  0  0  0  0  0  0  0  0
   -7.9915    0.6922  -23.6679 C   0  0  0  0  0  0  0  0  0  0  0  0
   -9.1506   -0.0411  -23.0275 C   0  0  0  0  0  0  0  0  0  0  0  0
   -8.9311   -0.5088  -21.7325 C   0  0  0  0  0  0  0  0  0  0  0  0
   -9.9269   -1.1794  -21.0394 C   0  0  0  0  0  0  0  0  0  0  0  0
  -11.1563   -1.4024  -21.6310 C   0  0  0  0  0  0  0  0  0  0  0  0
  -11.4038   -0.9532  -22.9193 C   0  0  0  0  0  0  0  0  0  0  0  0
  -10.4078   -0.2612  -23.6142 C   0  0  0  0  0  0  0  0  0  0  0  0
   -9.8130    0.0134  -25.9932 C   0  0  0  0  0  0  0  0  0  0  0  0
  -13.2820   -1.9602  -27.3453 C   0  0  0  0  0  0  0  0  0  0  0  0
  -12.9526   -1.6073  -28.7960 C   0  0  0  0  0  0  0  0  0  0  0  0
  -13.7086   -2.3816  -29.8588 C   0  0  0  0  0  0  0  0  0  0  0  0
   -8.4976   -4.3836  -28.8431 C   0  0  0  0  0  0  0  0  0  0  0  0
   -8.7205   -4.7899  -30.2437 N   0  0  0  0  0  0  0  0  0  0  0  0
   -7.9725   -2.9507  -28.7538 C   0  0  0  0  0  0  0  0  0  0  0  0
   -8.7038   -2.2832  -27.6092 C   0  0  0  0  0  0  0  0  0  0  0  0
   -9.8991   -2.4929  -27.4074 O   0  0  0  0  0  0  0  0  0  0  0  0
   -7.9762   -1.4657  -26.8398 N   0  0  0  0  0  0  0  0  0  0  0  0
  -10.0591    0.4403  -27.1120 O   0  0  0  0  0  0  0  0  0  0  0  0
  -10.6758    0.1927  -24.9479 N   0  0  0  0  0  0  0  0  0  0  0  0
  -11.9194    0.9158  -25.2087 C   0  0  0  0  0  0  0  0  0  0  0  0
  -12.8843    0.1351  -26.0896 C   0  0  0  0  0  0  0  0  0  0  0  0
  -13.9295    0.6535  -26.4760 O   0  0  0  0  0  0  0  0  0  0  0  0
  -12.5229   -1.1129  -26.4264 N   0  0  0  0  0  0  0  0  0  0  0  0
  -14.9358   -2.3963  -29.8511 O   0  0  0  0  0  0  0  0  0  0  0  0
  -13.0006   -3.0331  -30.8079 N   0  0  0  0  0  0  0  0  0  0  0  0
  -13.6645   -3.7905  -31.8640 C   0  0  0  0  0  0  0  0  0  0  0  0
   -8.4217   -4.0274  -30.8517 H   0  0  0  0  0  0  0  0  0  0  0  0
   -7.0301   -1.3142  -27.0662 H   0  0  0  0  0  0  0  0  0  0  0  0
  -11.6987   -1.4792  -26.0319 H   0  0  0  0  0  0  0  0  0  0  0  0
  -12.9997   -3.4476  -27.0715 C   0  0  0  0  0  0  0  0  0  0  0  0
  -14.1250   -3.9644  -24.8699 C   0  0  0  0  0  0  0  0  0  0  0  0
  -11.6436   -4.3562  -23.6174 C   0  0  0  0  0  0  0  0  0  0  0  0
  -12.9575   -3.8157  -25.6084 C   0  0  0  0  0  0  0  0  0  0  0  0
  -11.7362   -4.0384  -24.9755 C   0  0  0  0  0  0  0  0  0  0  0  0
  -12.8446   -4.5363  -22.9324 C   0  0  0  0  0  0  0  0  0  0  0  0
  -12.8208   -4.9613  -21.2527 Cl  0  0  0  0  0  0  0  0  0  0  0  0
  -14.0734   -4.3234  -23.5349 C   0  0  0  0  0  0  0  0  0  0  0  0
  -10.2699   -4.6547  -23.0567 C   0  0  0  0  0  0  0  0  0  0  0  0
   -9.1107   -3.7933  -23.6857 C   0  0  0  0  0  0  0  0  0  0  0  0
   -7.8590   -4.6154  -23.8925 C   0  0  0  0  0  0  0  0  0  0  0  0
   -6.8437   -4.1707  -24.7344 C   0  0  0  0  0  0  0  0  0  0  0  0
   -5.7225   -4.9553  -24.9715 C   0  0  0  0  0  0  0  0  0  0  0  0
   -5.6027   -6.1946  -24.3726 C   0  0  0  0  0  0  0  0  0  0  0  0
   -6.6121   -6.6566  -23.5500 C   0  0  0  0  0  0  0  0  0  0  0  0
   -7.7323   -5.8734  -23.3114 C   0  0  0  0  0  0  0  0  0  0  0  0
   -7.6203   -5.3937  -28.0888 C   0  0  0  0  0  0  0  0  0  0  0  0
  -10.7444   -9.2826  -24.7068 Cl  0  0  0  0  0  0  0  0  0  0  0  0
   -9.8391   -8.1596  -25.6851 C   0  0  0  0  0  0  0  0  0  0  0  0
  -10.4128   -6.9552  -26.0355 C   0  0  0  0  0  0  0  0  0  0  0  0
   -9.6967   -6.0740  -26.8287 C   0  0  0  0  0  0  0  0  0  0  0  0
   -8.5656   -8.4918  -26.0956 C   0  0  0  0  0  0  0  0  0  0  0  0
   -7.8571   -7.5979  -26.8818 C   0  0  0  0  0  0  0  0  0  0  0  0
   -8.4151   -6.3831  -27.2708 C   0  0  0  0  0  0  0  0  0  0  0  0
 47 48  2  0  0  0
 47 46  1  0  0  0
 48 49  1  0  0  0
 46 45  2  0  0  0
 49 50  2  0  0  0
 45 50  1  0  0  0
 45 44  1  0  0  0
 44 43  1  0  0  0
 29 16  2  0  0  0
 43 37  1  0  0  0
 31 30  1  0  0  0
 16 30  1  0  0  0
 16 15  1  0  0  0
 39 37  2  0  0  0
 39 38  1  0  0  0
 37 40  1  0  0  0
 30  1  1  0  0  0
 27 26  2  0  0  0
 15 14  1  0  0  0
 14 35  1  0  0  0
 14 28  1  0  0  0
 35 38  1  0  0  0
 38 36  2  0  0  0
 40 41  1  0  0  0
 40 42  2  0  0  0
  1  2  1  0  0  0
 26 28  1  0  0  0
 26 25  1  0  0  0
  2  3  1  0  0  0
 36 42  1  0  0  0
  3 18  1  0  0  0
 25 24  1  0  0  0
 11 10  2  0  0  0
 11 12  1  0  0  0
 21 20  2  0  0  0
 18 17  1  0  0  0
 24 13  1  0  0  0
 24 12  1  0  0  0
 23 13  2  0  0  0
 10  9  1  0  0  0
 13  4  1  0  0  0
 12  7  2  0  0  0
 17 19  1  0  0  0
 17 51  1  0  0  0
 55 54  2  0  0  0
 55 58  1  0  0  0
 20 19  1  0  0  0
 20 22  1  0  0  0
 54 53  1  0  0  0
 51 58  1  0  0  0
  9  8  2  0  0  0
  4 22  1  0  0  0
  4  5  1  0  0  0
 58 57  2  0  0  0
  7  8  1  0  0  0
  7  6  1  0  0  0
 53 52  1  0  0  0
 53 56  2  0  0  0
  6  5  1  0  0  0
 57 56  1  0  0  0
 18 32  1  0  0  0
 22 33  1  0  0  0
 28 34  1  0  0  0
M  END
> <minimizedAffinity>
-7.98189

$$$$
5MES_7LT_A_401


 58 63  0  0  0  0  0  0  0  0999 V2000
   -9.4729    0.4164  -29.2299 C   0  0  0  0  0  0  0  0  0  0  0  0
  -10.5813    0.7817  -30.2116 C   0  0  0  0  0  0  0  0  0  0  0  0
  -11.6427   -0.2825  -30.3892 C   0  0  0  0  0  0  0  0  0  0  0  0
   -8.1023   -5.7795  -28.9457 C   0  0  0  0  0  0  0  0  0  0  0  0
   -7.3722   -7.0385  -29.4292 C   0  0  0  0  0  0  0  0  0  0  0  0
   -6.9299   -7.9532  -28.2778 C   0  0  0  0  0  0  0  0  0  0  0  0
   -7.7133   -7.7800  -26.9941 C   0  0  0  0  0  0  0  0  0  0  0  0
   -8.3642   -8.9193  -26.5225 C   0  0  0  0  0  0  0  0  0  0  0  0
   -9.0974   -8.8850  -25.3466 C   0  0  0  0  0  0  0  0  0  0  0  0
   -9.2009   -7.7097  -24.6259 C   0  0  0  0  0  0  0  0  0  0  0  0
   -8.5686   -6.5588  -25.0711 C   0  0  0  0  0  0  0  0  0  0  0  0
   -7.8139   -6.5947  -26.2471 C   0  0  0  0  0  0  0  0  0  0  0  0
   -7.2247   -4.9505  -27.9903 C   0  0  0  0  0  0  0  0  0  0  0  0
   -8.8917   -1.7207  -25.8580 C   0  0  0  0  0  0  0  0  0  0  0  0
   -8.3479   -0.7253  -26.8833 C   0  0  0  0  0  0  0  0  0  0  0  0
   -8.9440    0.6687  -26.8403 C   0  0  0  0  0  0  0  0  0  0  0  0
  -11.2130   -2.6670  -30.8302 C   0  0  0  0  0  0  0  0  0  0  0  0
  -11.4123   -1.3205  -31.3989 N   0  0  0  0  0  0  0  0  0  0  0  0
   -9.8220   -3.2109  -31.1560 C   0  0  0  0  0  0  0  0  0  0  0  0
   -9.3017   -3.8739  -29.8990 C   0  0  0  0  0  0  0  0  0  0  0  0
   -9.5042   -3.3838  -28.7889 O   0  0  0  0  0  0  0  0  0  0  0  0
   -8.6208   -5.0127  -30.0700 N   0  0  0  0  0  0  0  0  0  0  0  0
   -6.6383   -3.9395  -28.3486 O   0  0  0  0  0  0  0  0  0  0  0  0
   -7.1700   -5.3954  -26.6987 N   0  0  0  0  0  0  0  0  0  0  0  0
   -6.3831   -4.6168  -25.7437 C   0  0  0  0  0  0  0  0  0  0  0  0
   -7.0053   -3.2641  -25.4281 C   0  0  0  0  0  0  0  0  0  0  0  0
   -6.4089   -2.4574  -24.7181 O   0  0  0  0  0  0  0  0  0  0  0  0
   -8.2032   -3.0054  -25.9755 N   0  0  0  0  0  0  0  0  0  0  0  0
   -8.9256    1.3123  -25.7955 O   0  0  0  0  0  0  0  0  0  0  0  0
   -9.4753    1.1779  -27.9739 N   0  0  0  0  0  0  0  0  0  0  0  0
  -10.0582    2.5155  -28.0049 C   0  0  0  0  0  0  0  0  0  0  0  0
  -10.5806   -1.0704  -31.9338 H   0  0  0  0  0  0  0  0  0  0  0  0
   -8.4654   -5.3427  -30.9844 H   0  0  0  0  0  0  0  0  0  0  0  0
   -8.6441   -3.7226  -26.4860 H   0  0  0  0  0  0  0  0  0  0  0  0
  -10.4100   -1.9004  -26.0290 C   0  0  0  0  0  0  0  0  0  0  0  0
  -11.6574   -4.0946  -26.1281 C   0  0  0  0  0  0  0  0  0  0  0  0
  -11.2950   -4.5015  -23.3745 C   0  0  0  0  0  0  0  0  0  0  0  0
  -10.9677   -3.1456  -25.3837 C   0  0  0  0  0  0  0  0  0  0  0  0
  -10.7765   -3.3769  -24.0230 C   0  0  0  0  0  0  0  0  0  0  0  0
  -11.9409   -5.4439  -24.1738 C   0  0  0  0  0  0  0  0  0  0  0  0
  -12.5872   -6.8821  -23.4552 Cl  0  0  0  0  0  0  0  0  0  0  0  0
  -12.1448   -5.2422  -25.5288 C   0  0  0  0  0  0  0  0  0  0  0  0
  -10.9563   -4.6885  -21.9113 C   0  0  0  0  0  0  0  0  0  0  0  0
   -9.5213   -4.1799  -21.5069 C   0  0  0  0  0  0  0  0  0  0  0  0
   -8.5070   -5.3004  -21.5391 C   0  0  0  0  0  0  0  0  0  0  0  0
   -7.2385   -5.0999  -22.0758 C   0  0  0  0  0  0  0  0  0  0  0  0
   -6.3294   -6.1464  -22.1610 C   0  0  0  0  0  0  0  0  0  0  0  0
   -6.6768   -7.4065  -21.7134 C   0  0  0  0  0  0  0  0  0  0  0  0
   -7.9394   -7.6239  -21.1963 C   0  0  0  0  0  0  0  0  0  0  0  0
   -8.8483   -6.5792  -21.1096 C   0  0  0  0  0  0  0  0  0  0  0  0
  -12.3429   -3.6278  -31.2291 C   0  0  0  0  0  0  0  0  0  0  0  0
  -15.9238   -5.0043  -26.5811 Cl  0  0  0  0  0  0  0  0  0  0  0  0
  -14.8882   -4.6086  -27.9258 C   0  0  0  0  0  0  0  0  0  0  0  0
  -14.5885   -3.2866  -28.1806 C   0  0  0  0  0  0  0  0  0  0  0  0
  -13.7804   -2.9757  -29.2617 C   0  0  0  0  0  0  0  0  0  0  0  0
  -14.3860   -5.6210  -28.7156 C   0  0  0  0  0  0  0  0  0  0  0  0
  -13.5722   -5.2969  -29.7889 C   0  0  0  0  0  0  0  0  0  0  0  0
  -13.2678   -3.9712  -30.0860 C   0  0  0  0  0  0  0  0  0  0  0  0
 47 48  2  0  0  0
 47 46  1  0  0  0
 48 49  1  0  0  0
 46 45  2  0  0  0
 49 50  2  0  0  0
 45 50  1  0  0  0
 45 44  1  0  0  0
 44 43  1  0  0  0
 29 16  2  0  0  0
 43 37  1  0  0  0
 31 30  1  0  0  0
 16 30  1  0  0  0
 16 15  1  0  0  0
 39 37  2  0  0  0
 39 38  1  0  0  0
 37 40  1  0  0  0
 30  1  1  0  0  0
 27 26  2  0  0  0
 15 14  1  0  0  0
 14 35  1  0  0  0
 14 28  1  0  0  0
 35 38  1  0  0  0
 38 36  2  0  0  0
 40 41  1  0  0  0
 40 42  2  0  0  0
  1  2  1  0  0  0
 26 28  1  0  0  0
 26 25  1  0  0  0
  2  3  1  0  0  0
 36 42  1  0  0  0
  3 18  1  0  0  0
 25 24  1  0  0  0
 11 10  2  0  0  0
 11 12  1  0  0  0
 21 20  2  0  0  0
 18 17  1  0  0  0
 24 13  1  0  0  0
 24 12  1  0  0  0
 23 13  2  0  0  0
 10  9  1  0  0  0
 13  4  1  0  0  0
 12  7  2  0  0  0
 17 19  1  0  0  0
 17 51  1  0  0  0
 55 54  2  0  0  0
 55 58  1  0  0  0
 20 19  1  0  0  0
 20 22  1  0  0  0
 54 53  1  0  0  0
 51 58  1  0  0  0
  9  8  2  0  0  0
  4 22  1  0  0  0
  4  5  1  0  0  0
 58 57  2  0  0  0
  7  8  1  0  0  0
  7  6  1  0  0  0
 53 52  1  0  0  0
 53 56  2  0  0  0
  6  5  1  0  0  0
 57 56  1  0  0  0
 18 32  1  0  0  0
 22 33  1  0  0  0
 28 34  1  0  0  0
M  END
> <minimizedAffinity>
-7.95543

$$$$
5MES_7LT_A_401


 58 63  0  0  0  0  0  0  0  0999 V2000
  -10.7701   -0.3420  -20.5887 C   0  0  0  0  0  0  0  0  0  0  0  0
  -11.3191    0.9390  -21.2079 C   0  0  0  0  0  0  0  0  0  0  0  0
  -11.6011    0.8517  -22.6923 C   0  0  0  0  0  0  0  0  0  0  0  0
   -7.2037   -3.8684  -24.4867 C   0  0  0  0  0  0  0  0  0  0  0  0
   -5.8752   -4.2425  -25.1555 C   0  0  0  0  0  0  0  0  0  0  0  0
   -5.6863   -5.7592  -25.3038 C   0  0  0  0  0  0  0  0  0  0  0  0
   -6.9698   -6.5617  -25.2951 C   0  0  0  0  0  0  0  0  0  0  0  0
   -7.2087   -7.3357  -26.4299 C   0  0  0  0  0  0  0  0  0  0  0  0
   -8.3436   -8.1258  -26.5268 C   0  0  0  0  0  0  0  0  0  0  0  0
   -9.2643   -8.1497  -25.4957 C   0  0  0  0  0  0  0  0  0  0  0  0
   -9.0570   -7.3876  -24.3559 C   0  0  0  0  0  0  0  0  0  0  0  0
   -7.9049   -6.6035  -24.2478 C   0  0  0  0  0  0  0  0  0  0  0  0
   -7.3297   -4.5021  -23.0893 C   0  0  0  0  0  0  0  0  0  0  0  0
  -10.9988   -4.3463  -21.0227 C   0  0  0  0  0  0  0  0  0  0  0  0
  -10.5203   -3.1466  -20.2044 C   0  0  0  0  0  0  0  0  0  0  0  0
  -11.5953   -2.3706  -19.4676 C   0  0  0  0  0  0  0  0  0  0  0  0
  -10.0447   -0.0168  -24.3919 C   0  0  0  0  0  0  0  0  0  0  0  0
  -10.5049    1.1522  -23.6185 N   0  0  0  0  0  0  0  0  0  0  0  0
   -8.5853   -0.3513  -24.0839 C   0  0  0  0  0  0  0  0  0  0  0  0
   -8.4931   -1.8573  -23.9655 C   0  0  0  0  0  0  0  0  0  0  0  0
   -9.3816   -2.5096  -23.4190 O   0  0  0  0  0  0  0  0  0  0  0  0
   -7.4012   -2.4255  -24.4896 N   0  0  0  0  0  0  0  0  0  0  0  0
   -7.1393   -3.8681  -22.0616 O   0  0  0  0  0  0  0  0  0  0  0  0
   -7.7064   -5.8162  -23.0657 N   0  0  0  0  0  0  0  0  0  0  0  0
   -7.8808   -6.4505  -21.7600 C   0  0  0  0  0  0  0  0  0  0  0  0
   -9.0867   -5.9175  -20.9996 C   0  0  0  0  0  0  0  0  0  0  0  0
   -9.3048   -6.2839  -19.8469 O   0  0  0  0  0  0  0  0  0  0  0  0
   -9.8640   -5.0307  -21.6408 N   0  0  0  0  0  0  0  0  0  0  0  0
  -12.3478   -2.9508  -18.6908 O   0  0  0  0  0  0  0  0  0  0  0  0
  -11.6884   -1.0390  -19.6787 N   0  0  0  0  0  0  0  0  0  0  0  0
  -12.6943   -0.2308  -18.9968 C   0  0  0  0  0  0  0  0  0  0  0  0
   -9.7172    1.5119  -23.0794 H   0  0  0  0  0  0  0  0  0  0  0  0
   -6.7097   -1.8503  -24.8898 H   0  0  0  0  0  0  0  0  0  0  0  0
   -9.6581   -4.8293  -22.5822 H   0  0  0  0  0  0  0  0  0  0  0  0
  -12.0139   -3.9040  -22.0908 C   0  0  0  0  0  0  0  0  0  0  0  0
  -13.0212   -6.0534  -22.9543 C   0  0  0  0  0  0  0  0  0  0  0  0
  -11.8940   -5.6403  -25.4917 C   0  0  0  0  0  0  0  0  0  0  0  0
  -12.2530   -4.9184  -23.1825 C   0  0  0  0  0  0  0  0  0  0  0  0
  -11.7222   -4.7182  -24.4553 C   0  0  0  0  0  0  0  0  0  0  0  0
  -12.7085   -6.7398  -25.2240 C   0  0  0  0  0  0  0  0  0  0  0  0
  -12.9989   -7.9163  -26.4627 Cl  0  0  0  0  0  0  0  0  0  0  0  0
  -13.2507   -6.9647  -23.9695 C   0  0  0  0  0  0  0  0  0  0  0  0
  -11.3404   -5.2796  -26.8533 C   0  0  0  0  0  0  0  0  0  0  0  0
  -10.0166   -4.4269  -26.8108 C   0  0  0  0  0  0  0  0  0  0  0  0
   -9.2898   -4.4658  -28.1359 C   0  0  0  0  0  0  0  0  0  0  0  0
   -7.8994   -4.4257  -28.1890 C   0  0  0  0  0  0  0  0  0  0  0  0
   -7.2354   -4.3990  -29.4085 C   0  0  0  0  0  0  0  0  0  0  0  0
   -7.9518   -4.4097  -30.5898 C   0  0  0  0  0  0  0  0  0  0  0  0
   -9.3327   -4.4298  -30.5515 C   0  0  0  0  0  0  0  0  0  0  0  0
   -9.9974   -4.4574  -29.3339 C   0  0  0  0  0  0  0  0  0  0  0  0
  -10.3195    0.1489  -25.8939 C   0  0  0  0  0  0  0  0  0  0  0  0
  -14.6254   -3.4997  -28.0079 Cl  0  0  0  0  0  0  0  0  0  0  0  0
  -13.3811   -2.4449  -27.3943 C   0  0  0  0  0  0  0  0  0  0  0  0
  -12.4292   -1.9491  -28.2606 C   0  0  0  0  0  0  0  0  0  0  0  0
  -11.4312   -1.1263  -27.7649 C   0  0  0  0  0  0  0  0  0  0  0  0
  -13.3651   -2.1236  -26.0536 C   0  0  0  0  0  0  0  0  0  0  0  0
  -12.3661   -1.2931  -25.5723 C   0  0  0  0  0  0  0  0  0  0  0  0
  -11.3781   -0.7929  -26.4160 C   0  0  0  0  0  0  0  0  0  0  0  0
 47 48  2  0  0  0
 47 46  1  0  0  0
 48 49  1  0  0  0
 46 45  2  0  0  0
 49 50  2  0  0  0
 45 50  1  0  0  0
 45 44  1  0  0  0
 44 43  1  0  0  0
 29 16  2  0  0  0
 43 37  1  0  0  0
 31 30  1  0  0  0
 16 30  1  0  0  0
 16 15  1  0  0  0
 39 37  2  0  0  0
 39 38  1  0  0  0
 37 40  1  0  0  0
 30  1  1  0  0  0
 27 26  2  0  0  0
 15 14  1  0  0  0
 14 35  1  0  0  0
 14 28  1  0  0  0
 35 38  1  0  0  0
 38 36  2  0  0  0
 40 41  1  0  0  0
 40 42  2  0  0  0
  1  2  1  0  0  0
 26 28  1  0  0  0
 26 25  1  0  0  0
  2  3  1  0  0  0
 36 42  1  0  0  0
  3 18  1  0  0  0
 25 24  1  0  0  0
 11 10  2  0  0  0
 11 12  1  0  0  0
 21 20  2  0  0  0
 18 17  1  0  0  0
 24 13  1  0  0  0
 24 12  1  0  0  0
 23 13  2  0  0  0
 10  9  1  0  0  0
 13  4  1  0  0  0
 12  7  2  0  0  0
 17 19  1  0  0  0
 17 51  1  0  0  0
 55 54  2  0  0  0
 55 58  1  0  0  0
 20 19  1  0  0  0
 20 22  1  0  0  0
 54 53  1  0  0  0
 51 58  1  0  0  0
  9  8  2  0  0  0
  4 22  1  0  0  0
  4  5  1  0  0  0
 58 57  2  0  0  0
  7  8  1  0  0  0
  7  6  1  0  0  0
 53 52  1  0  0  0
 53 56  2  0  0  0
  6  5  1  0  0  0
 57 56  1  0  0  0
 18 32  1  0  0  0
 22 33  1  0  0  0
 28 34  1  0  0  0
M  END
> <minimizedAffinity>
-7.90932

$$$$
5MES_7LT_A_401


 58 63  0  0  0  0  0  0  0  0999 V2000
   -8.8712   -6.3836  -21.3028 C   0  0  0  0  0  0  0  0  0  0  0  0
   -9.9110   -7.4179  -20.8845 C   0  0  0  0  0  0  0  0  0  0  0  0
  -11.0931   -7.5387  -21.8218 C   0  0  0  0  0  0  0  0  0  0  0  0
  -11.2072   -1.3734  -24.4316 C   0  0  0  0  0  0  0  0  0  0  0  0
  -11.8510    0.0172  -24.4933 C   0  0  0  0  0  0  0  0  0  0  0  0
  -11.2919    0.8856  -25.6297 C   0  0  0  0  0  0  0  0  0  0  0  0
  -10.6640    0.1113  -26.7689 C   0  0  0  0  0  0  0  0  0  0  0  0
  -11.2268    0.3207  -28.0272 C   0  0  0  0  0  0  0  0  0  0  0  0
  -10.7232   -0.3208  -29.1481 C   0  0  0  0  0  0  0  0  0  0  0  0
   -9.6543   -1.1897  -29.0303 C   0  0  0  0  0  0  0  0  0  0  0  0
   -9.0756   -1.4221  -27.7918 C   0  0  0  0  0  0  0  0  0  0  0  0
   -9.5699   -0.7632  -26.6625 C   0  0  0  0  0  0  0  0  0  0  0  0
   -9.6809   -1.2808  -24.2523 C   0  0  0  0  0  0  0  0  0  0  0  0
   -7.2964   -4.7345  -24.6307 C   0  0  0  0  0  0  0  0  0  0  0  0
   -7.2528   -4.9061  -23.1120 C   0  0  0  0  0  0  0  0  0  0  0  0
   -6.7887   -6.2590  -22.6070 C   0  0  0  0  0  0  0  0  0  0  0  0
  -12.4303   -5.6581  -22.6823 C   0  0  0  0  0  0  0  0  0  0  0  0
  -12.2361   -6.6465  -21.6044 N   0  0  0  0  0  0  0  0  0  0  0  0
  -12.2776   -4.2283  -22.1635 C   0  0  0  0  0  0  0  0  0  0  0  0
  -11.4764   -3.4669  -23.1973 C   0  0  0  0  0  0  0  0  0  0  0  0
  -10.5310   -3.9913  -23.7845 O   0  0  0  0  0  0  0  0  0  0  0  0
  -11.8595   -2.2066  -23.4311 N   0  0  0  0  0  0  0  0  0  0  0  0
   -9.1344   -1.4629  -23.1741 O   0  0  0  0  0  0  0  0  0  0  0  0
   -8.9653   -1.0173  -25.3872 N   0  0  0  0  0  0  0  0  0  0  0  0
   -7.5086   -0.9619  -25.2753 C   0  0  0  0  0  0  0  0  0  0  0  0
   -6.8844   -2.3216  -24.9961 C   0  0  0  0  0  0  0  0  0  0  0  0
   -5.6785   -2.4178  -24.7787 O   0  0  0  0  0  0  0  0  0  0  0  0
   -7.7130   -3.3774  -24.9815 N   0  0  0  0  0  0  0  0  0  0  0  0
   -5.7050   -6.7095  -22.9659 O   0  0  0  0  0  0  0  0  0  0  0  0
   -7.5866   -6.9362  -21.7517 N   0  0  0  0  0  0  0  0  0  0  0  0
   -7.1979   -8.2390  -21.2213 C   0  0  0  0  0  0  0  0  0  0  0  0
  -12.0902   -6.1437  -20.7290 H   0  0  0  0  0  0  0  0  0  0  0  0
  -12.6058   -1.8306  -22.9105 H   0  0  0  0  0  0  0  0  0  0  0  0
   -8.6565   -3.2295  -25.2210 H   0  0  0  0  0  0  0  0  0  0  0  0
   -8.2363   -5.7730  -25.2670 C   0  0  0  0  0  0  0  0  0  0  0  0
   -7.1746   -7.3743  -26.9067 C   0  0  0  0  0  0  0  0  0  0  0  0
   -7.8460   -5.7123  -29.0669 C   0  0  0  0  0  0  0  0  0  0  0  0
   -7.8535   -6.1859  -26.6673 C   0  0  0  0  0  0  0  0  0  0  0  0
   -8.1998   -5.3861  -27.7545 C   0  0  0  0  0  0  0  0  0  0  0  0
   -7.2044   -6.9354  -29.2577 C   0  0  0  0  0  0  0  0  0  0  0  0
   -6.7573   -7.4313  -30.8567 Cl  0  0  0  0  0  0  0  0  0  0  0  0
   -6.8485   -7.7519  -28.1970 C   0  0  0  0  0  0  0  0  0  0  0  0
   -8.3450   -4.8103  -30.1751 C   0  0  0  0  0  0  0  0  0  0  0  0
   -9.9087   -4.6221  -30.2044 C   0  0  0  0  0  0  0  0  0  0  0  0
  -10.4077   -4.3483  -31.6049 C   0  0  0  0  0  0  0  0  0  0  0  0
  -11.0765   -5.3308  -32.3294 C   0  0  0  0  0  0  0  0  0  0  0  0
  -11.4795   -5.0984  -33.6379 C   0  0  0  0  0  0  0  0  0  0  0  0
  -11.2173   -3.8827  -34.2398 C   0  0  0  0  0  0  0  0  0  0  0  0
  -10.5371   -2.9056  -33.5388 C   0  0  0  0  0  0  0  0  0  0  0  0
  -10.1348   -3.1361  -32.2311 C   0  0  0  0  0  0  0  0  0  0  0  0
  -13.7493   -5.8869  -23.4352 C   0  0  0  0  0  0  0  0  0  0  0  0
  -13.3302   -5.2442  -29.4130 Cl  0  0  0  0  0  0  0  0  0  0  0  0
  -13.4492   -5.4311  -27.6843 C   0  0  0  0  0  0  0  0  0  0  0  0
  -14.5554   -4.9351  -27.0265 C   0  0  0  0  0  0  0  0  0  0  0  0
  -14.6366   -5.0692  -25.6503 C   0  0  0  0  0  0  0  0  0  0  0  0
  -12.4364   -6.0691  -27.0001 C   0  0  0  0  0  0  0  0  0  0  0  0
  -12.5340   -6.2039  -25.6247 C   0  0  0  0  0  0  0  0  0  0  0  0
  -13.6270   -5.6957  -24.9281 C   0  0  0  0  0  0  0  0  0  0  0  0
 47 48  2  0  0  0
 47 46  1  0  0  0
 48 49  1  0  0  0
 46 45  2  0  0  0
 49 50  2  0  0  0
 45 50  1  0  0  0
 45 44  1  0  0  0
 44 43  1  0  0  0
 29 16  2  0  0  0
 43 37  1  0  0  0
 31 30  1  0  0  0
 16 30  1  0  0  0
 16 15  1  0  0  0
 39 37  2  0  0  0
 39 38  1  0  0  0
 37 40  1  0  0  0
 30  1  1  0  0  0
 27 26  2  0  0  0
 15 14  1  0  0  0
 14 35  1  0  0  0
 14 28  1  0  0  0
 35 38  1  0  0  0
 38 36  2  0  0  0
 40 41  1  0  0  0
 40 42  2  0  0  0
  1  2  1  0  0  0
 26 28  1  0  0  0
 26 25  1  0  0  0
  2  3  1  0  0  0
 36 42  1  0  0  0
  3 18  1  0  0  0
 25 24  1  0  0  0
 11 10  2  0  0  0
 11 12  1  0  0  0
 21 20  2  0  0  0
 18 17  1  0  0  0
 24 13  1  0  0  0
 24 12  1  0  0  0
 23 13  2  0  0  0
 10  9  1  0  0  0
 13  4  1  0  0  0
 12  7  2  0  0  0
 17 19  1  0  0  0
 17 51  1  0  0  0
 55 54  2  0  0  0
 55 58  1  0  0  0
 20 19  1  0  0  0
 20 22  1  0  0  0
 54 53  1  0  0  0
 51 58  1  0  0  0
  9  8  2  0  0  0
  4 22  1  0  0  0
  4  5  1  0  0  0
 58 57  2  0  0  0
  7  8  1  0  0  0
  7  6  1  0  0  0
 53 52  1  0  0  0
 53 56  2  0  0  0
  6  5  1  0  0  0
 57 56  1  0  0  0
 18 32  1  0  0  0
 22 33  1  0  0  0
 28 34  1  0  0  0
M  END
> <minimizedAffinity>
-7.90925

$$$$
