3PJU_C2E_A_2256


 56 62  0  0  0  0  0  0  0  0999 V2000
   29.3653   33.5045    4.6160 P   0  0  0  0  0  0  0  0  0  0  0  0
   29.0685   32.8170    5.9312 O   0  0  0  0  0  0  0  0  0  0  0  0
   28.8211   32.6402    3.4974 O   0  0  0  0  0  0  0  0  0  0  0  0
   28.5439   34.8635    4.6610 O   0  0  0  0  0  0  0  0  0  0  0  0
   28.3064   35.5591    3.4793 C   0  0  0  0  0  0  0  0  0  0  0  0
   29.3056   36.6245    3.1163 C   0  0  0  0  0  0  0  0  0  0  0  0
   28.9730   37.1476    1.8581 O   0  0  0  0  0  0  0  0  0  0  0  0
   29.3022   37.8347    4.0206 C   0  0  0  0  0  0  0  0  0  0  0  0
   30.4625   38.5821    3.8356 O   0  0  0  0  0  0  0  0  0  0  0  0
   28.1940   38.5453    3.5245 C   0  0  0  0  0  0  0  0  0  0  0  0
   28.1983   39.9557    3.7811 O   0  0  0  0  0  0  0  0  0  0  0  0
   28.1809   38.2775    2.0973 C   0  0  0  0  0  0  0  0  0  0  0  0
   31.5215   38.6101    4.9999 P   0  0  0  0  0  0  0  0  0  0  0  0
   30.8237   38.5695    6.3411 O   0  0  0  0  0  0  0  0  0  0  0  0
   32.4579   39.7901    4.9433 O   0  0  0  0  0  0  0  0  0  0  0  0
   32.5094   37.4317    4.8339 O   0  0  0  0  0  0  0  0  0  0  0  0
   32.0875   36.3840    5.5740 C   0  0  0  0  0  0  0  0  0  0  0  0
   32.6624   35.1541    5.0481 C   0  0  0  0  0  0  0  0  0  0  0  0
   33.9108   34.9949    5.7884 O   0  0  0  0  0  0  0  0  0  0  0  0
   31.6798   34.1225    5.4564 C   0  0  0  0  0  0  0  0  0  0  0  0
   30.9217   33.6071    4.3999 O   0  0  0  0  0  0  0  0  0  0  0  0
   32.4646   33.1962    6.2909 C   0  0  0  0  0  0  0  0  0  0  0  0
   32.8158   32.0865    5.5907 O   0  0  0  0  0  0  0  0  0  0  0  0
   33.6618   34.0243    6.7573 C   0  0  0  0  0  0  0  0  0  0  0  0
   28.1084   32.7582    6.0559 H   0  0  0  0  0  0  0  0  0  0  0  0
   28.9711   40.3593    3.3559 H   0  0  0  0  0  0  0  0  0  0  0  0
   30.2233   37.8083    6.3703 H   0  0  0  0  0  0  0  0  0  0  0  0
   33.3230   32.3465    4.8058 H   0  0  0  0  0  0  0  0  0  0  0  0
   26.7820   38.1131    1.3872 N   0  0  0  0  0  0  0  0  0  0  0  0
   25.6254   37.8574    2.0359 C   0  0  0  0  0  0  0  0  0  0  0  0
   24.6630   37.7199    1.1115 N   0  0  0  0  0  0  0  0  0  0  0  0
   25.2243   37.8728   -0.1122 C   0  0  0  0  0  0  0  0  0  0  0  0
   24.6943   37.8290   -1.4038 C   0  0  0  0  0  0  0  0  0  0  0  0
   23.3376   37.6126   -1.6132 O   0  0  0  0  0  0  0  0  0  0  0  0
   25.5324   38.0417   -2.4400 N   0  0  0  0  0  0  0  0  0  0  0  0
   26.8453   38.2785   -2.2509 C   0  0  0  0  0  0  0  0  0  0  0  0
   27.6735   38.4825   -3.4027 N   0  0  0  0  0  0  0  0  0  0  0  0
   27.3853   38.3173   -1.0164 N   0  0  0  0  0  0  0  0  0  0  0  0
   26.5964   38.1271    0.0592 C   0  0  0  0  0  0  0  0  0  0  0  0
   25.1755   38.0235   -3.3573 H   0  0  0  0  0  0  0  0  0  0  0  0
   27.2786   38.4541   -4.3041 H   0  0  0  0  0  0  0  0  0  0  0  0
   28.6371   38.6510   -3.2925 H   0  0  0  0  0  0  0  0  0  0  0  0
   33.5672   34.4812    8.2777 N   0  0  0  0  0  0  0  0  0  0  0  0
   32.6137   35.2845    8.7811 C   0  0  0  0  0  0  0  0  0  0  0  0
   32.6824   35.2867   10.1244 N   0  0  0  0  0  0  0  0  0  0  0  0
   33.6925   34.4640   10.4827 C   0  0  0  0  0  0  0  0  0  0  0  0
   34.2351   34.0722   11.7075 C   0  0  0  0  0  0  0  0  0  0  0  0
   33.6886   34.5308   12.8870 O   0  0  0  0  0  0  0  0  0  0  0  0
   35.2710   33.2023   11.7165 N   0  0  0  0  0  0  0  0  0  0  0  0
   35.7940   32.7105   10.5866 C   0  0  0  0  0  0  0  0  0  0  0  0
   36.9319   31.8478   10.6320 N   0  0  0  0  0  0  0  0  0  0  0  0
   35.2761   33.0816    9.4020 N   0  0  0  0  0  0  0  0  0  0  0  0
   34.2422   33.9438    9.3083 C   0  0  0  0  0  0  0  0  0  0  0  0
   35.6518   32.9224   12.5802 H   0  0  0  0  0  0  0  0  0  0  0  0
   37.3100   31.5769   11.4997 H   0  0  0  0  0  0  0  0  0  0  0  0
   37.3380   31.5242    9.7956 H   0  0  0  0  0  0  0  0  0  0  0  0
  1  2  1  0  0  0
  3  1  2  0  0  0
  4  1  1  0  0  0
  5  4  1  0  0  0
  6  7  1  0  0  0
  6  5  1  0  0  0
  8  6  1  0  0  0
  9 13  1  0  0  0
  9  8  1  0  0  0
 10  8  1  0  0  0
 10 12  1  0  0  0
 11 10  1  0  0  0
 12  7  1  0  0  0
 12 29  1  0  0  0
 29 39  1  0  0  0
 29 30  1  0  0  0
 30 31  2  0  0  0
 32 31  1  0  0  0
 32 33  1  0  0  0
 33 34  2  0  0  0
 35 33  1  0  0  0
 36 35  1  0  0  0
 37 36  1  0  0  0
 38 36  2  0  0  0
 38 39  1  0  0  0
 39 32  2  0  0  0
 13 14  1  0  0  0
 13 16  1  0  0  0
 15 13  2  0  0  0
 17 16  1  0  0  0
 17 18  1  0  0  0
 18 19  1  0  0  0
 18 20  1  0  0  0
 19 24  1  0  0  0
 20 22  1  0  0  0
 21 20  1  0  0  0
 21  1  1  0  0  0
 22 23  1  0  0  0
 24 22  1  0  0  0
 24 43  1  0  0  0
 43 53  1  0  0  0
 44 45  2  0  0  0
 44 43  1  0  0  0
 45 46  1  0  0  0
 46 53  2  0  0  0
 46 47  1  0  0  0
 47 48  2  0  0  0
 47 49  1  0  0  0
 50 49  1  0  0  0
 50 51  1  0  0  0
 52 50  2  0  0  0
 53 52  1  0  0  0
  2 25  1  0  0  0
 11 26  1  0  0  0
 35 40  1  0  0  0
 37 41  1  0  0  0
 37 42  1  0  0  0
 14 27  1  0  0  0
 23 28  1  0  0  0
 49 54  1  0  0  0
 51 55  1  0  0  0
 51 56  1  0  0  0
M  END
> <minimizedAffinity>
-16.91709

$$$$
