3PJU_C2E_A_2256
  RCSB PDB12061710163D
Coordinates from PDB:3PJU:A:2256 Model:1 without hydrogens
 46 52  0  0  0  0            999 V2000
   29.1140   33.4840    4.7330   P 0  0  0  0  0  0  0  0  0  0  0  0
   28.8680   32.8920    6.1040   O 0  0  0  0  0  0  0  0  0  0  0  0
   28.4860   32.5680    3.7030   O 0  0  0  0  0  0  0  0  0  0  0  0
   28.3360   34.8690    4.7310   O 0  0  0  0  0  0  0  0  0  0  0  0
   28.0560   35.4950    3.5200   C 0  0  0  0  0  0  0  0  0  0  0  0
   29.0650   36.5020    3.0370   C 0  0  0  0  0  0  0  0  0  0  0  0
   28.6810   36.9540    1.7660   O 0  0  0  0  0  0  0  0  0  0  0  0
   29.1450   37.7670    3.8590   C 0  0  0  0  0  0  0  0  0  0  0  0
   30.3150   38.4630    3.5660   O 0  0  0  0  0  0  0  0  0  0  0  0
   28.0330   38.4800    3.3750   C 0  0  0  0  0  0  0  0  0  0  0  0
   28.0920   39.9030    3.5380   O 0  0  0  0  0  0  0  0  0  0  0  0
   27.9360   38.1220    1.9710   C 0  0  0  0  0  0  0  0  0  0  0  0
   26.4970   37.9580    1.3460   N 0  0  0  0  0  0  0  0  0  0  0  0
   25.4030   37.5840    2.0440   C 0  0  0  0  0  0  0  0  0  0  0  0
   24.3820   37.4890    1.1790   N 0  0  0  0  0  0  0  0  0  0  0  0
   24.8450   37.7870   -0.0590   C 0  0  0  0  0  0  0  0  0  0  0  0
   24.2240   37.8420   -1.3090   C 0  0  0  0  0  0  0  0  0  0  0  0
   22.8660   37.5800   -1.4450   O 0  0  0  0  0  0  0  0  0  0  0  0
   24.9740   38.1950   -2.3740   N 0  0  0  0  0  0  0  0  0  0  0  0
   26.2860   38.4770   -2.2530   C 0  0  0  0  0  0  0  0  0  0  0  0
   27.0180   38.8320   -3.4330   N 0  0  0  0  0  0  0  0  0  0  0  0
   26.9130   38.4230   -1.0610   N 0  0  0  0  0  0  0  0  0  0  0  0
   26.2140   38.0910    0.0420   C 0  0  0  0  0  0  0  0  0  0  0  0
   31.4350   38.5310    4.6700   P 0  0  0  0  0  0  0  0  0  0  0  0
   30.8090   38.5990    6.0450   O 0  0  0  0  0  0  0  0  0  0  0  0
   32.4010   39.6740    4.4880   O 0  0  0  0  0  0  0  0  0  0  0  0
   32.3780   37.3130    4.5310   O 0  0  0  0  0  0  0  0  0  0  0  0
   31.9660   36.3290    5.3590   C 0  0  0  0  0  0  0  0  0  0  0  0
   32.4760   35.0500    4.8860   C 0  0  0  0  0  0  0  0  0  0  0  0
   33.7570   34.8980    5.5700   O 0  0  0  0  0  0  0  0  0  0  0  0
   31.4870   34.0790    5.4110   C 0  0  0  0  0  0  0  0  0  0  0  0
   30.6590   33.5220    4.4310   O 0  0  0  0  0  0  0  0  0  0  0  0
   32.2880   33.1830    6.2630   C 0  0  0  0  0  0  0  0  0  0  0  0
   32.5690   32.0200    5.6200   O 0  0  0  0  0  0  0  0  0  0  0  0
   33.5320   34.0000    6.6120   C 0  0  0  0  0  0  0  0  0  0  0  0
   33.5320   34.5560    8.1020   N 0  0  0  0  0  0  0  0  0  0  0  0
   32.6950   35.4980    8.5710   C 0  0  0  0  0  0  0  0  0  0  0  0
   32.7980   35.5730    9.9100   N 0  0  0  0  0  0  0  0  0  0  0  0
   33.7110   34.6570   10.3010   C 0  0  0  0  0  0  0  0  0  0  0  0
   34.2340   34.2770   11.5380   C 0  0  0  0  0  0  0  0  0  0  0  0
   33.7770   34.8690   12.6960   O 0  0  0  0  0  0  0  0  0  0  0  0
   35.1580   33.2900   11.5830   N 0  0  0  0  0  0  0  0  0  0  0  0
   35.5890   32.6710   10.4770   C 0  0  0  0  0  0  0  0  0  0  0  0
   36.6160   31.6810   10.5560   N 0  0  0  0  0  0  0  0  0  0  0  0
   35.0890   33.0300    9.2810   N 0  0  0  0  0  0  0  0  0  0  0  0
   34.1640   34.0040    9.1520   C 0  0  0  0  0  0  0  0  0  0  0  0
  1  2  1  0  0  0  0
  3  1  2  0  0  0  0
  4  1  1  0  0  0  0
  5  4  1  0  0  0  0
  6  7  1  0  0  0  0
  6  5  1  0  0  0  0
  8  6  1  0  0  0  0
  9 24  1  0  0  0  0
  9  8  1  0  0  0  0
 10  8  1  0  0  0  0
 10 12  1  0  0  0  0
 11 10  1  0  0  0  0
 12  7  1  0  0  0  0
 12 13  1  0  0  0  0
 13 23  1  0  0  0  0
 13 14  1  0  0  0  0
 14 15  2  0  0  0  0
 16 15  1  0  0  0  0
 16 17  1  0  0  0  0
 17 18  2  0  0  0  0
 19 17  1  0  0  0  0
 20 19  1  0  0  0  0
 21 20  1  0  0  0  0
 22 20  2  0  0  0  0
 22 23  1  0  0  0  0
 23 16  2  0  0  0  0
 24 25  1  0  0  0  0
 24 27  1  0  0  0  0
 26 24  2  0  0  0  0
 28 27  1  0  0  0  0
 28 29  1  0  0  0  0
 29 30  1  0  0  0  0
 29 31  1  0  0  0  0
 30 35  1  0  0  0  0
 31 33  1  0  0  0  0
 32 31  1  0  0  0  0
 32  1  1  0  0  0  0
 33 34  1  0  0  0  0
 35 33  1  0  0  0  0
 35 36  1  0  0  0  0
 36 46  1  0  0  0  0
 37 38  2  0  0  0  0
 37 36  1  0  0  0  0
 38 39  1  0  0  0  0
 39 46  2  0  0  0  0
 39 40  1  0  0  0  0
 40 41  2  0  0  0  0
 40 42  1  0  0  0  0
 43 42  1  0  0  0  0
 43 44  1  0  0  0  0
 45 43  2  0  0  0  0
 46 45  1  0  0  0  0
A    1
P1
A    2
O2P
A    3
O1P
A    4
O5'
A    5
C5'
A    6
C4'
A    7
O4'
A    8
C3'
A    9
O3'
A   10
C2'
A   11
O2'
A   12
C1'
A   13
N9
A   14
C8
A   15
N7
A   16
C5
A   17
C6
A   18
O6
A   19
N1
A   20
C2
A   21
N2
A   22
N3
A   23
C4
A   24
P11
A   25
O21
A   26
O11
A   27
O5A
A   28
C5A
A   29
C4A
A   30
O4A
A   31
C3A
A   32
O3A
A   33
C2A
A   34
O2A
A   35
C1A
A   36
N91
A   37
C81
A   38
N71
A   39
C51
A   40
C61
A   41
O61
A   42
N11
A   43
C21
A   44
N21
A   45
N31
A   46
C41
M  END
>  <InstanceId>
3PJU_C2E_A_2256

>  <ChemCompId>
C2E

>  <PdbId>
3PJU

>  <ChainId>
A

>  <ResidueNumber>
2256

>  <InsertionCode>


>  <Model>
1

>  <AltIds>


>  <MissingHeavyAtoms>
0

>  <ObservedFormula>
C20 N10 O14 P2

>  <Name>
9,9'-[(2R,3R,3aS,5S,7aR,9R,10R,10aS,12S,14aR)-3,5,10,12-tetrahydroxy-5,12-dioxidooctahydro-2H,7H-difuro[3,2-d:3',2'-j][1,3,7,9,2,8]tetraoxadiphosphacyclododecine-2,9-diyl]bis(2-amino-1,9-dihydro-6H-purin-6-one)

>  <SystematicName>


>  <Synonyms>
c-di-GMP, Cyclic diguanosine monophosphate

>  <Type>
NON-POLYMER

>  <Formula>
C20 H24 N10 O14 P2

>  <MolecularWeight>
690.411

>  <ModifiedDate>
2011-06-04

>  <Parent>


>  <OneLetterCode>


>  <SubcomponentList>


>  <AmbiguousFlag>
N

>  <InChI>
InChI=1S/C20H24N10O14P2/c21-19-25-13-7(15(33)27-19)23-3-29(13)17-9(31)11-5(41-17)1-39-45(35,36)44-12-6(2-40-46(37,38)43-11)42-18(10(12)32)30-4-24-8-14(30)26-20(22)28-16(8)34/h3-6,9-12,17-18,31-32H,1-2H2,(H,35,36)(H,37,38)(H3,21,25,27,33)(H3,22,26,28,34)/t5-,6-,9-,10-,11-,12-,17-,18-/m1/s1

>  <InChIKey>
PKFDLKSEZWEFGL-MHARETSRSA-N

>  <SMILES>
c1nc2c(n1[C@H]3[C@@H]([C@H]4[C@H](O3)CO[P@@](=O)(O[C@@H]5[C@@H](CO[P@@](=O)(O4)O)O[C@H]([C@@H]5O)n6cnc7c6N=C(NC7=O)N)O)O)N=C(NC2=O)N

$$$$
