1ZSF_0ZS_B_201
  RCSB PDB12061704543D
Coordinates from PDB:1ZSF:B:201 Model:1 without hydrogens
 51 53  0  0  0  0            999 V2000
  -21.9020   40.1520   30.4450   O 0  0  0  0  0  0  0  0  0  0  0  0
  -21.0870   39.3320   30.8210   C 0  0  0  0  0  0  0  0  0  0  0  0
  -20.9950   38.8920   32.1020   O 0  0  0  0  0  0  0  0  0  0  0  0
  -22.1800   39.0160   32.9650   C 0  0  0  0  0  0  0  0  0  0  0  0
  -21.8430   38.3730   34.2980   C 0  0  0  0  0  0  0  0  0  0  0  0
  -23.3200   38.2870   32.2650   C 0  0  0  0  0  0  0  0  0  0  0  0
  -22.4510   40.5070   33.1000   C 0  0  0  0  0  0  0  0  0  0  0  0
  -20.0650   38.7960   30.1080   N 0  0  0  0  0  0  0  0  0  0  0  0
  -19.8070   39.1060   28.7090   C 0  0  0  0  0  0  0  0  0  0  0  0
  -20.1440   37.9280   27.7750   C 0  0  0  0  0  0  0  0  0  0  0  0
  -20.2140   38.4230   26.4400   O 0  0  0  0  0  0  0  0  0  0  0  0
  -18.3410   39.5200   28.5370   C 0  0  0  0  0  0  0  0  0  0  0  0
  -18.0850   40.9850   28.8320   C 0  0  0  0  0  0  0  0  0  0  0  0
  -19.0970   41.9200   28.7190   C 0  0  0  0  0  0  0  0  0  0  0  0
  -16.8210   41.4090   29.2150   C 0  0  0  0  0  0  0  0  0  0  0  0
  -18.8560   43.2570   28.9760   C 0  0  0  0  0  0  0  0  0  0  0  0
  -16.5680   42.7460   29.4670   C 0  0  0  0  0  0  0  0  0  0  0  0
  -17.5920   43.6710   29.3510   C 0  0  0  0  0  0  0  0  0  0  0  0
  -21.4900   37.2860   28.1590   C 0  0  0  0  0  0  0  0  0  0  0  0
  -21.8880   36.2290   27.2250   N 0  0  0  0  0  0  0  0  0  0  0  0
  -23.2940   36.2000   26.8770   C 0  0  0  0  0  0  0  0  0  0  0  0
  -23.6240   37.1520   25.7250   C 0  0  0  0  0  0  0  0  0  0  0  0
  -23.9780   38.3130   25.9350   O 0  0  0  0  0  0  0  0  0  0  0  0
  -24.1970   36.5660   28.0640   C 0  0  0  0  0  0  0  0  0  0  0  0
  -25.6620   36.5500   27.6340   C 0  0  0  0  0  0  0  0  0  0  0  0
  -26.1470   35.4760   26.9040   C 0  0  0  0  0  0  0  0  0  0  0  0
  -26.5140   37.5930   27.9410   C 0  0  0  0  0  0  0  0  0  0  0  0
  -27.4640   35.4350   26.4880   C 0  0  0  0  0  0  0  0  0  0  0  0
  -27.8330   37.5610   27.5410   C 0  0  0  0  0  0  0  0  0  0  0  0
  -28.3040   36.4880   26.8040   C 0  0  0  0  0  0  0  0  0  0  0  0
  -23.6270   36.6240   24.5050   N 0  0  0  0  0  0  0  0  0  0  0  0
  -23.8600   37.4790   23.3450   C 0  0  0  0  0  0  0  0  0  0  0  0
  -24.7490   36.8140   22.3120   C 0  0  0  0  0  0  0  0  0  0  0  0
  -24.5480   35.6740   21.9240   O 0  0  0  0  0  0  0  0  0  0  0  0
  -22.5170   37.9150   22.7610   C 0  0  0  0  0  0  0  0  0  0  0  0
  -22.6210   38.9800   21.6810   C 0  0  0  0  0  0  0  0  0  0  0  0
  -22.8940   38.3370   20.3300   C 0  0  0  0  0  0  0  0  0  0  0  0
  -22.8390   39.0310   19.2940   O 0  0  0  0  0  0  0  0  0  0  0  0
  -23.0460   37.0970   20.2920   O 0  0  0  0  0  0  0  0  0  0  0  0
  -25.7540   37.5420   21.8360   N 0  0  0  0  0  0  0  0  0  0  0  0
  -26.5920   36.9600   20.7790   C 0  0  0  0  0  0  0  0  0  0  0  0
  -26.8450   38.0000   19.6920   C 0  0  0  0  0  0  0  0  0  0  0  0
  -27.2010   39.1410   19.9740   O 0  0  0  0  0  0  0  0  0  0  0  0
  -27.9010   36.4210   21.3390   C 0  0  0  0  0  0  0  0  0  0  0  0
  -28.8940   37.4590   21.8350   C 0  0  0  0  0  0  0  0  0  0  0  0
  -29.6950   38.1760   20.9680   C 0  0  0  0  0  0  0  0  0  0  0  0
  -29.0100   37.7110   23.1950   C 0  0  0  0  0  0  0  0  0  0  0  0
  -30.5810   39.1200   21.4310   C 0  0  0  0  0  0  0  0  0  0  0  0
  -29.9060   38.6550   23.6670   C 0  0  0  0  0  0  0  0  0  0  0  0
  -30.7020   39.3640   22.7900   C 0  0  0  0  0  0  0  0  0  0  0  0
  -26.6320   37.5980   18.4320   N 0  0  0  0  0  0  0  0  0  0  0  0
  1  2  2  0  0  0  0
  2  3  1  0  0  0  0
  3  4  1  0  0  0  0
  4  5  1  0  0  0  0
  4  6  1  0  0  0  0
  4  7  1  0  0  0  0
 20 21  1  0  0  0  0
 21 22  1  0  0  0  0
 21 24  1  0  0  0  0
 22 23  2  0  0  0  0
 24 25  1  0  0  0  0
 25 26  2  0  0  0  0
 25 27  1  0  0  0  0
 26 28  1  0  0  0  0
 27 29  2  0  0  0  0
 28 30  2  0  0  0  0
 29 30  1  0  0  0  0
  8  9  1  0  0  0  0
  9 10  1  0  0  0  0
  9 12  1  0  0  0  0
 10 11  1  0  0  0  0
 10 19  1  0  0  0  0
 12 13  1  0  0  0  0
 13 14  2  0  0  0  0
 13 15  1  0  0  0  0
 14 16  1  0  0  0  0
 15 17  2  0  0  0  0
 16 18  2  0  0  0  0
 17 18  1  0  0  0  0
 31 32  1  0  0  0  0
 32 33  1  0  0  0  0
 32 35  1  0  0  0  0
 33 34  2  0  0  0  0
 35 36  1  0  0  0  0
 36 37  1  0  0  0  0
 37 38  2  0  0  0  0
 37 39  1  0  0  0  0
 40 41  1  0  0  0  0
 41 42  1  0  0  0  0
 41 44  1  0  0  0  0
 42 43  2  0  0  0  0
 44 45  1  0  0  0  0
 45 46  2  0  0  0  0
 45 47  1  0  0  0  0
 46 48  1  0  0  0  0
 47 49  2  0  0  0  0
 48 50  2  0  0  0  0
 49 50  1  0  0  0  0
  2  8  1  0  0  0  0
 19 20  1  0  0  0  0
 22 31  1  0  0  0  0
 33 40  1  0  0  0  0
 42 51  1  0  0  0  0
A    1
O1
A    2
C
A    3
O2
A    4
CT
A    5
C1
A    6
C2
A    7
C3
A    8
N1
A    9
CA1
A   10
C5
A   11
OXT
A   12
CB1
A   13
CG1
A   14
CD11
A   15
CD21
A   16
CE11
A   17
CE21
A   18
CZ1
A   19
CM
A   20
N
A   21
CA
A   22
C4
A   23
O
A   24
CB
A   25
CG
A   26
CD1
A   27
CD2
A   28
CE1
A   29
CE2
A   30
CZ
A   31
N2
A   32
CA2
A   33
C6
A   34
O3
A   35
CB2
A   36
CG2
A   37
CD
A   38
OE1
A   39
OE2
A   40
N3
A   41
CA3
A   42
C7
A   43
O4
A   44
CB3
A   45
CG3
A   46
CD12
A   47
CD22
A   48
CE12
A   49
CE22
A   50
CZ2
A   51
N4
M  END
>  <InstanceId>
1ZSF_0ZS_B_201

>  <ChemCompId>
0ZS

>  <PdbId>
1ZSF

>  <ChainId>
B

>  <ResidueNumber>
201

>  <InsertionCode>


>  <Model>
1

>  <AltIds>


>  <MissingHeavyAtoms>
0

>  <ObservedFormula>
C38 N5 O8

>  <Name>
N-{(2R,3S)-3-[(tert-butoxycarbonyl)amino]-2-hydroxy-4-phenylbutyl}-L-phenylalanyl-L-alpha-glutamyl-L-phenylalaninamide

>  <SystematicName>
(4S)-5-[[(2S)-1-azanyl-1-oxo-3-phenyl-propan-2-yl]amino]-4-[[(2S)-2-[[(2R,3S)-2-hydroxy-3-[(2-methylpropan-2-yl)oxycarbonylamino]-4-phenyl-butyl]amino]-3-phenyl-propanoyl]amino]-5-oxo-pentanoic acid

>  <Synonyms>


>  <Type>
peptide-like

>  <Formula>
C38 H49 N5 O8

>  <MolecularWeight>
703.824

>  <ModifiedDate>
2011-07-13

>  <Parent>


>  <OneLetterCode>


>  <SubcomponentList>
BOC T00 GLU PHE NH2

>  <AmbiguousFlag>
N

>  <InChI>
InChI=1S/C38H49N5O8/c1-38(2,3)51-37(50)43-29(21-25-13-7-4-8-14-25)32(44)24-40-31(23-27-17-11-6-12-18-27)36(49)41-28(19-20-33(45)46)35(48)42-30(34(39)47)22-26-15-9-5-10-16-26/h4-18,28-32,40,44H,19-24H2,1-3H3,(H2,39,47)(H,41,49)(H,42,48)(H,43,50)(H,45,46)/t28-,29-,30-,31-,32+/m0/s1

>  <InChIKey>
MPMUDVMRFYJRLP-QEUNAIBPSA-N

>  <SMILES>
CC(C)(C)OC(=O)N[C@@H](Cc1ccccc1)[C@@H](CN[C@@H](Cc2ccccc2)C(=O)N[C@@H](CCC(=O)O)C(=O)N[C@@H](Cc3ccccc3)C(=O)N)O

$$$$
