1ZSF_0ZS_B_201


 59 61  0  0  0  0  0  0  0  0999 V2000
  -22.5849   39.5294   30.1528 C   0  0  0  0  0  0  0  0  0  0  0  0
  -21.0726   39.3206   30.2613 C   0  0  0  0  0  0  0  0  0  0  0  0
  -20.5685   38.2052   30.1225 O   0  0  0  0  0  0  0  0  0  0  0  0
  -20.3558   40.3767   30.6325 N   0  0  0  0  0  0  0  0  0  0  0  0
  -20.8053   41.2203   30.8684 H   0  0  0  0  0  0  0  0  0  0  0  0
  -18.9002   40.2820   30.6895 C   0  0  0  0  0  0  0  0  0  0  0  0
  -18.3656   40.5054   32.0909 C   0  0  0  0  0  0  0  0  0  0  0  0
  -17.9670   39.5837   32.7852 O   0  0  0  0  0  0  0  0  0  0  0  0
  -18.3661   41.7584   32.5343 N   0  0  0  0  0  0  0  0  0  0  0  0
  -18.6533   42.5002   31.9541 H   0  0  0  0  0  0  0  0  0  0  0  0
  -17.9265   42.0058   33.9140 C   0  0  0  0  0  0  0  0  0  0  0  0
  -19.0877   41.7682   34.8744 C   0  0  0  0  0  0  0  0  0  0  0  0
  -20.0219   42.5616   34.9513 O   0  0  0  0  0  0  0  0  0  0  0  0
  -19.0321   40.6420   35.5976 N   0  0  0  0  0  0  0  0  0  0  0  0
  -18.2633   40.0342   35.5039 H   0  0  0  0  0  0  0  0  0  0  0  0
  -19.7601   40.4221   36.2229 H   0  0  0  0  0  0  0  0  0  0  0  0
  -17.3589   43.4093   34.0748 C   0  0  0  0  0  0  0  0  0  0  0  0
  -17.6498   44.3819   32.9440 C   0  0  0  0  0  0  0  0  0  0  0  0
  -16.8976   44.4012   31.7859 C   0  0  0  0  0  0  0  0  0  0  0  0
  -18.6945   45.2880   33.0624 C   0  0  0  0  0  0  0  0  0  0  0  0
  -17.1659   45.2947   30.7758 C   0  0  0  0  0  0  0  0  0  0  0  0
  -18.9738   46.1847   32.0452 C   0  0  0  0  0  0  0  0  0  0  0  0
  -18.2152   46.1928   30.8919 C   0  0  0  0  0  0  0  0  0  0  0  0
  -18.2911   41.2484   29.6747 C   0  0  0  0  0  0  0  0  0  0  0  0
  -17.6002   40.5704   28.5023 C   0  0  0  0  0  0  0  0  0  0  0  0
  -18.5832   39.6877   27.7488 C   0  0  0  0  0  0  0  0  0  0  0  0
  -19.4721   40.2131   27.0476 O   0  0  0  0  0  0  0  0  0  0  0  0
  -18.3894   38.4530   27.7610 O   0  0  0  0  0  0  0  0  0  0  0  0
  -17.7134   38.0902   28.2989 H   0  0  0  0  0  0  0  0  0  0  0  0
  -23.0704   39.3216   28.8037 N   0  0  0  0  0  0  0  0  0  0  0  0
  -22.5159   39.9049   28.1771 H   0  0  0  0  0  0  0  0  0  0  0  0
  -23.0034   37.9420   28.3136 C   0  0  0  0  0  0  0  0  0  0  0  0
  -22.1274   37.8120   27.0538 C   0  0  0  0  0  0  0  0  0  0  0  0
  -21.6735   36.4669   26.9238 O   0  0  0  0  0  0  0  0  0  0  0  0
  -22.4369   35.8755   26.8318 H   0  0  0  0  0  0  0  0  0  0  0  0
  -22.9242   38.1766   25.7865 C   0  0  0  0  0  0  0  0  0  0  0  0
  -25.1135   36.9811   24.2784 O   0  0  0  0  0  0  0  0  0  0  0  0
  -25.2936   37.6519   25.2761 C   0  0  0  0  0  0  0  0  0  0  0  0
  -24.3553   38.2677   26.0381 N   0  0  0  0  0  0  0  0  0  0  0  0
  -24.6591   38.8063   26.8042 H   0  0  0  0  0  0  0  0  0  0  0  0
  -26.5210   38.0030   25.7381 O   0  0  0  0  0  0  0  0  0  0  0  0
  -27.2720   37.0171   26.5308 C   0  0  0  0  0  0  0  0  0  0  0  0
  -27.8921   37.7526   27.7049 C   0  0  0  0  0  0  0  0  0  0  0  0
  -26.2737   35.9640   26.9950 C   0  0  0  0  0  0  0  0  0  0  0  0
  -28.3242   36.4368   25.5976 C   0  0  0  0  0  0  0  0  0  0  0  0
  -22.4203   39.5016   25.2030 C   0  0  0  0  0  0  0  0  0  0  0  0
  -22.2750   39.4846   23.6939 C   0  0  0  0  0  0  0  0  0  0  0  0
  -23.2192   40.0854   22.8823 C   0  0  0  0  0  0  0  0  0  0  0  0
  -21.1884   38.8550   23.1048 C   0  0  0  0  0  0  0  0  0  0  0  0
  -23.0898   40.0560   21.5061 C   0  0  0  0  0  0  0  0  0  0  0  0
  -21.0541   38.8136   21.7281 C   0  0  0  0  0  0  0  0  0  0  0  0
  -22.0071   39.4211   20.9279 C   0  0  0  0  0  0  0  0  0  0  0  0
  -23.2631   38.5973   31.1675 C   0  0  0  0  0  0  0  0  0  0  0  0
  -22.9150   39.0278   32.5905 C   0  0  0  0  0  0  0  0  0  0  0  0
  -22.3721   38.1034   33.4692 C   0  0  0  0  0  0  0  0  0  0  0  0
  -23.1461   40.3168   33.0297 C   0  0  0  0  0  0  0  0  0  0  0  0
  -22.0570   38.4557   34.7676 C   0  0  0  0  0  0  0  0  0  0  0  0
  -22.8275   40.6851   34.3196 C   0  0  0  0  0  0  0  0  0  0  0  0
  -22.2948   39.7511   35.1915 C   0  0  0  0  0  0  0  0  0  0  0  0
 37 38  2  0  0  0
 38 41  1  0  0  0
 41 42  1  0  0  0
 42 43  1  0  0  0
 42 44  1  0  0  0
 42 45  1  0  0  0
 30  1  1  0  0  0
  1  2  1  0  0  0
  1 53  1  0  0  0
  2  3  2  0  0  0
 53 54  1  0  0  0
 54 55  2  0  0  0
 54 56  1  0  0  0
 55 57  1  0  0  0
 56 58  2  0  0  0
 57 59  2  0  0  0
 58 59  1  0  0  0
 39 36  1  0  0  0
 36 33  1  0  0  0
 36 46  1  0  0  0
 33 34  1  0  0  0
 33 32  1  0  0  0
 46 47  1  0  0  0
 47 48  2  0  0  0
 47 49  1  0  0  0
 48 50  1  0  0  0
 49 51  2  0  0  0
 50 52  2  0  0  0
 51 52  1  0  0  0
  4  6  1  0  0  0
  6  7  1  0  0  0
  6 24  1  0  0  0
  7  8  2  0  0  0
 24 25  1  0  0  0
 25 26  1  0  0  0
 26 27  2  0  0  0
 26 28  1  0  0  0
  9 11  1  0  0  0
 11 12  1  0  0  0
 11 17  1  0  0  0
 12 13  2  0  0  0
 17 18  1  0  0  0
 18 19  2  0  0  0
 18 20  1  0  0  0
 19 21  1  0  0  0
 20 22  2  0  0  0
 21 23  2  0  0  0
 22 23  1  0  0  0
 38 39  1  0  0  0
 32 30  1  0  0  0
  2  4  1  0  0  0
  7  9  1  0  0  0
 12 14  1  0  0  0
 39 40  1  0  0  0
 34 35  1  0  0  0
 30 31  1  0  0  0
  4  5  1  0  0  0
 28 29  1  0  0  0
  9 10  1  0  0  0
 14 15  1  0  0  0
 14 16  1  0  0  0
M  END
> <minimizedAffinity>
-10.12508

$$$$
1ZSF_0ZS_B_201


 59 61  0  0  0  0  0  0  0  0999 V2000
  -23.0121   37.1718   26.1239 C   0  0  0  0  0  0  0  0  0  0  0  0
  -23.4124   37.8299   24.8015 C   0  0  0  0  0  0  0  0  0  0  0  0
  -23.6502   39.0366   24.7328 O   0  0  0  0  0  0  0  0  0  0  0  0
  -23.6074   37.0133   23.7707 N   0  0  0  0  0  0  0  0  0  0  0  0
  -23.5412   36.0388   23.8935 H   0  0  0  0  0  0  0  0  0  0  0  0
  -23.9199   37.5661   22.4563 C   0  0  0  0  0  0  0  0  0  0  0  0
  -25.0725   36.8410   21.7888 C   0  0  0  0  0  0  0  0  0  0  0  0
  -24.9751   35.6852   21.4078 O   0  0  0  0  0  0  0  0  0  0  0  0
  -26.1948   37.5337   21.6243 N   0  0  0  0  0  0  0  0  0  0  0  0
  -26.2773   38.4523   21.9688 H   0  0  0  0  0  0  0  0  0  0  0  0
  -27.3087   36.8909   20.9142 C   0  0  0  0  0  0  0  0  0  0  0  0
  -27.8174   37.8145   19.8118 C   0  0  0  0  0  0  0  0  0  0  0  0
  -27.3217   38.9236   19.6322 O   0  0  0  0  0  0  0  0  0  0  0  0
  -28.8079   37.3316   19.0500 N   0  0  0  0  0  0  0  0  0  0  0  0
  -29.1756   36.4363   19.2301 H   0  0  0  0  0  0  0  0  0  0  0  0
  -29.1681   37.8721   18.3101 H   0  0  0  0  0  0  0  0  0  0  0  0
  -28.4300   36.5056   21.8691 C   0  0  0  0  0  0  0  0  0  0  0  0
  -28.9537   37.6138   22.7675 C   0  0  0  0  0  0  0  0  0  0  0  0
  -29.8990   38.5215   22.3319 C   0  0  0  0  0  0  0  0  0  0  0  0
  -28.4763   37.7361   24.0651 C   0  0  0  0  0  0  0  0  0  0  0  0
  -30.3551   39.5258   23.1528 C   0  0  0  0  0  0  0  0  0  0  0  0
  -28.9379   38.7408   24.8983 C   0  0  0  0  0  0  0  0  0  0  0  0
  -29.8840   39.6410   24.4512 C   0  0  0  0  0  0  0  0  0  0  0  0
  -22.6575   37.5665   21.5954 C   0  0  0  0  0  0  0  0  0  0  0  0
  -22.6170   38.6655   20.5456 C   0  0  0  0  0  0  0  0  0  0  0  0
  -23.4286   39.8662   21.0067 C   0  0  0  0  0  0  0  0  0  0  0  0
  -22.8787   40.7597   21.6829 O   0  0  0  0  0  0  0  0  0  0  0  0
  -24.6000   39.9776   20.5852 O   0  0  0  0  0  0  0  0  0  0  0  0
  -24.9837   39.2881   20.0800 H   0  0  0  0  0  0  0  0  0  0  0  0
  -21.5853   37.2479   26.3630 N   0  0  0  0  0  0  0  0  0  0  0  0
  -21.1101   37.1287   25.4684 H   0  0  0  0  0  0  0  0  0  0  0  0
  -21.1110   38.4982   26.9629 C   0  0  0  0  0  0  0  0  0  0  0  0
  -20.2218   38.2537   28.1961 C   0  0  0  0  0  0  0  0  0  0  0  0
  -18.8515   38.4126   27.8365 O   0  0  0  0  0  0  0  0  0  0  0  0
  -18.7025   39.3184   27.5229 H   0  0  0  0  0  0  0  0  0  0  0  0
  -20.5453   39.2579   29.3188 C   0  0  0  0  0  0  0  0  0  0  0  0
  -18.8991   40.6748   31.2628 O   0  0  0  0  0  0  0  0  0  0  0  0
  -19.0759   41.0829   30.1313 C   0  0  0  0  0  0  0  0  0  0  0  0
  -19.8334   40.5178   29.1582 N   0  0  0  0  0  0  0  0  0  0  0  0
  -19.9058   40.9857   28.2950 H   0  0  0  0  0  0  0  0  0  0  0  0
  -18.6192   42.2793   29.6806 O   0  0  0  0  0  0  0  0  0  0  0  0
  -17.3822   42.2944   28.8843 C   0  0  0  0  0  0  0  0  0  0  0  0
  -16.5352   43.4527   29.3790 C   0  0  0  0  0  0  0  0  0  0  0  0
  -17.7909   42.4823   27.4287 C   0  0  0  0  0  0  0  0  0  0  0  0
  -16.7099   40.9503   29.1215 C   0  0  0  0  0  0  0  0  0  0  0  0
  -22.0538   39.5246   29.3769 C   0  0  0  0  0  0  0  0  0  0  0  0
  -22.6694   39.2385   30.7325 C   0  0  0  0  0  0  0  0  0  0  0  0
  -23.3220   38.0449   30.9790 C   0  0  0  0  0  0  0  0  0  0  0  0
  -22.5908   40.1809   31.7474 C   0  0  0  0  0  0  0  0  0  0  0  0
  -23.8936   37.7935   32.2126 C   0  0  0  0  0  0  0  0  0  0  0  0
  -23.1663   39.9417   32.9830 C   0  0  0  0  0  0  0  0  0  0  0  0
  -23.8156   38.7409   33.2156 C   0  0  0  0  0  0  0  0  0  0  0  0
  -23.8280   37.8322   27.2448 C   0  0  0  0  0  0  0  0  0  0  0  0
  -25.2427   37.2584   27.2727 C   0  0  0  0  0  0  0  0  0  0  0  0
  -26.2609   37.9827   27.8729 C   0  0  0  0  0  0  0  0  0  0  0  0
  -25.5291   36.0218   26.7278 C   0  0  0  0  0  0  0  0  0  0  0  0
  -27.5499   37.4878   27.9270 C   0  0  0  0  0  0  0  0  0  0  0  0
  -26.8126   35.5199   26.7658 C   0  0  0  0  0  0  0  0  0  0  0  0
  -27.8196   36.2475   27.3764 C   0  0  0  0  0  0  0  0  0  0  0  0
 37 38  2  0  0  0
 38 41  1  0  0  0
 41 42  1  0  0  0
 42 43  1  0  0  0
 42 44  1  0  0  0
 42 45  1  0  0  0
 30  1  1  0  0  0
  1  2  1  0  0  0
  1 53  1  0  0  0
  2  3  2  0  0  0
 53 54  1  0  0  0
 54 55  2  0  0  0
 54 56  1  0  0  0
 55 57  1  0  0  0
 56 58  2  0  0  0
 57 59  2  0  0  0
 58 59  1  0  0  0
 39 36  1  0  0  0
 36 33  1  0  0  0
 36 46  1  0  0  0
 33 34  1  0  0  0
 33 32  1  0  0  0
 46 47  1  0  0  0
 47 48  2  0  0  0
 47 49  1  0  0  0
 48 50  1  0  0  0
 49 51  2  0  0  0
 50 52  2  0  0  0
 51 52  1  0  0  0
  4  6  1  0  0  0
  6  7  1  0  0  0
  6 24  1  0  0  0
  7  8  2  0  0  0
 24 25  1  0  0  0
 25 26  1  0  0  0
 26 27  2  0  0  0
 26 28  1  0  0  0
  9 11  1  0  0  0
 11 12  1  0  0  0
 11 17  1  0  0  0
 12 13  2  0  0  0
 17 18  1  0  0  0
 18 19  2  0  0  0
 18 20  1  0  0  0
 19 21  1  0  0  0
 20 22  2  0  0  0
 21 23  2  0  0  0
 22 23  1  0  0  0
 38 39  1  0  0  0
 32 30  1  0  0  0
  2  4  1  0  0  0
  7  9  1  0  0  0
 12 14  1  0  0  0
 39 40  1  0  0  0
 34 35  1  0  0  0
 30 31  1  0  0  0
  4  5  1  0  0  0
 28 29  1  0  0  0
  9 10  1  0  0  0
 14 15  1  0  0  0
 14 16  1  0  0  0
M  END
> <minimizedAffinity>
-9.89727

$$$$
1ZSF_0ZS_B_201


 59 61  0  0  0  0  0  0  0  0999 V2000
  -21.0768   39.5515   29.7454 C   0  0  0  0  0  0  0  0  0  0  0  0
  -19.6553   40.1183   29.7282 C   0  0  0  0  0  0  0  0  0  0  0  0
  -18.7802   39.6311   29.0110 O   0  0  0  0  0  0  0  0  0  0  0  0
  -19.3901   41.0748   30.6124 N   0  0  0  0  0  0  0  0  0  0  0  0
  -20.0750   41.3477   31.2648 H   0  0  0  0  0  0  0  0  0  0  0  0
  -18.0804   41.7194   30.6131 C   0  0  0  0  0  0  0  0  0  0  0  0
  -17.5647   41.9683   32.0173 C   0  0  0  0  0  0  0  0  0  0  0  0
  -16.4307   41.6647   32.3527 O   0  0  0  0  0  0  0  0  0  0  0  0
  -18.4169   42.5223   32.8737 N   0  0  0  0  0  0  0  0  0  0  0  0
  -19.3164   42.7991   32.5847 H   0  0  0  0  0  0  0  0  0  0  0  0
  -17.9795   42.7102   34.2635 C   0  0  0  0  0  0  0  0  0  0  0  0
  -19.0656   42.2190   35.2155 C   0  0  0  0  0  0  0  0  0  0  0  0
  -20.1871   42.7194   35.2133 O   0  0  0  0  0  0  0  0  0  0  0  0
  -18.7261   41.2053   36.0228 N   0  0  0  0  0  0  0  0  0  0  0  0
  -17.8146   40.8346   35.9908 H   0  0  0  0  0  0  0  0  0  0  0  0
  -19.3881   40.8310   36.6481 H   0  0  0  0  0  0  0  0  0  0  0  0
  -17.6198   44.1628   34.5431 C   0  0  0  0  0  0  0  0  0  0  0  0
  -17.6718   45.1057   33.3524 C   0  0  0  0  0  0  0  0  0  0  0  0
  -18.8480   45.7049   32.9464 C   0  0  0  0  0  0  0  0  0  0  0  0
  -16.5148   45.3809   32.6368 C   0  0  0  0  0  0  0  0  0  0  0  0
  -18.8815   46.5472   31.8602 C   0  0  0  0  0  0  0  0  0  0  0  0
  -16.5416   46.2343   31.5470 C   0  0  0  0  0  0  0  0  0  0  0  0
  -17.7235   46.8280   31.1522 C   0  0  0  0  0  0  0  0  0  0  0  0
  -18.1476   43.0008   29.7835 C   0  0  0  0  0  0  0  0  0  0  0  0
  -17.2616   42.9930   28.5480 C   0  0  0  0  0  0  0  0  0  0  0  0
  -18.0992   42.7655   27.2991 C   0  0  0  0  0  0  0  0  0  0  0  0
  -19.3069   42.4710   27.4114 O   0  0  0  0  0  0  0  0  0  0  0  0
  -17.5733   43.0029   26.1904 O   0  0  0  0  0  0  0  0  0  0  0  0
  -16.6634   43.2212   26.1406 H   0  0  0  0  0  0  0  0  0  0  0  0
  -21.4936   39.0799   28.4406 N   0  0  0  0  0  0  0  0  0  0  0  0
  -20.9004   39.5262   27.7411 H   0  0  0  0  0  0  0  0  0  0  0  0
  -21.4171   37.6303   28.2387 C   0  0  0  0  0  0  0  0  0  0  0  0
  -21.8663   37.2130   26.8261 C   0  0  0  0  0  0  0  0  0  0  0  0
  -21.7255   35.8024   26.6768 O   0  0  0  0  0  0  0  0  0  0  0  0
  -22.2875   35.3508   27.3257 H   0  0  0  0  0  0  0  0  0  0  0  0
  -23.3436   37.5783   26.5854 C   0  0  0  0  0  0  0  0  0  0  0  0
  -22.2782   40.1157   25.6244 O   0  0  0  0  0  0  0  0  0  0  0  0
  -22.9902   39.4031   24.9437 C   0  0  0  0  0  0  0  0  0  0  0  0
  -23.5532   38.2201   25.2955 N   0  0  0  0  0  0  0  0  0  0  0  0
  -24.1362   37.7704   24.6419 H   0  0  0  0  0  0  0  0  0  0  0  0
  -23.4492   39.7491   23.7138 O   0  0  0  0  0  0  0  0  0  0  0  0
  -22.6473   39.3668   22.5412 C   0  0  0  0  0  0  0  0  0  0  0  0
  -23.2159   38.0661   22.0039 C   0  0  0  0  0  0  0  0  0  0  0  0
  -21.2113   39.1938   23.0198 C   0  0  0  0  0  0  0  0  0  0  0  0
  -22.7851   40.5078   21.5442 C   0  0  0  0  0  0  0  0  0  0  0  0
  -24.2249   36.3279   26.6857 C   0  0  0  0  0  0  0  0  0  0  0  0
  -25.6955   36.6360   26.8884 C   0  0  0  0  0  0  0  0  0  0  0  0
  -26.1002   37.6217   27.7691 C   0  0  0  0  0  0  0  0  0  0  0  0
  -26.6602   35.9224   26.1924 C   0  0  0  0  0  0  0  0  0  0  0  0
  -27.4428   37.8905   27.9609 C   0  0  0  0  0  0  0  0  0  0  0  0
  -28.0066   36.1788   26.3831 C   0  0  0  0  0  0  0  0  0  0  0  0
  -28.3969   37.1702   27.2677 C   0  0  0  0  0  0  0  0  0  0  0  0
  -21.1305   38.4464   30.8103 C   0  0  0  0  0  0  0  0  0  0  0  0
  -21.6533   39.0122   32.1286 C   0  0  0  0  0  0  0  0  0  0  0  0
  -22.8689   39.6781   32.1509 C   0  0  0  0  0  0  0  0  0  0  0  0
  -20.9321   38.8913   33.3005 C   0  0  0  0  0  0  0  0  0  0  0  0
  -23.3658   40.2133   33.3238 C   0  0  0  0  0  0  0  0  0  0  0  0
  -21.4202   39.4118   34.4802 C   0  0  0  0  0  0  0  0  0  0  0  0
  -22.6307   40.0834   34.4888 C   0  0  0  0  0  0  0  0  0  0  0  0
 37 38  2  0  0  0
 38 41  1  0  0  0
 41 42  1  0  0  0
 42 43  1  0  0  0
 42 44  1  0  0  0
 42 45  1  0  0  0
 30  1  1  0  0  0
  1  2  1  0  0  0
  1 53  1  0  0  0
  2  3  2  0  0  0
 53 54  1  0  0  0
 54 55  2  0  0  0
 54 56  1  0  0  0
 55 57  1  0  0  0
 56 58  2  0  0  0
 57 59  2  0  0  0
 58 59  1  0  0  0
 39 36  1  0  0  0
 36 33  1  0  0  0
 36 46  1  0  0  0
 33 34  1  0  0  0
 33 32  1  0  0  0
 46 47  1  0  0  0
 47 48  2  0  0  0
 47 49  1  0  0  0
 48 50  1  0  0  0
 49 51  2  0  0  0
 50 52  2  0  0  0
 51 52  1  0  0  0
  4  6  1  0  0  0
  6  7  1  0  0  0
  6 24  1  0  0  0
  7  8  2  0  0  0
 24 25  1  0  0  0
 25 26  1  0  0  0
 26 27  2  0  0  0
 26 28  1  0  0  0
  9 11  1  0  0  0
 11 12  1  0  0  0
 11 17  1  0  0  0
 12 13  2  0  0  0
 17 18  1  0  0  0
 18 19  2  0  0  0
 18 20  1  0  0  0
 19 21  1  0  0  0
 20 22  2  0  0  0
 21 23  2  0  0  0
 22 23  1  0  0  0
 38 39  1  0  0  0
 32 30  1  0  0  0
  2  4  1  0  0  0
  7  9  1  0  0  0
 12 14  1  0  0  0
 39 40  1  0  0  0
 34 35  1  0  0  0
 30 31  1  0  0  0
  4  5  1  0  0  0
 28 29  1  0  0  0
  9 10  1  0  0  0
 14 15  1  0  0  0
 14 16  1  0  0  0
M  END
> <minimizedAffinity>
-9.89066

$$$$
1ZSF_0ZS_B_201


 59 61  0  0  0  0  0  0  0  0999 V2000
  -23.5062   38.7697   25.3619 C   0  0  0  0  0  0  0  0  0  0  0  0
  -24.7008   37.8193   25.4712 C   0  0  0  0  0  0  0  0  0  0  0  0
  -24.7897   37.0056   26.3917 O   0  0  0  0  0  0  0  0  0  0  0  0
  -25.5638   37.8367   24.4602 N   0  0  0  0  0  0  0  0  0  0  0  0
  -25.3911   38.4027   23.6734 H   0  0  0  0  0  0  0  0  0  0  0  0
  -26.7683   37.0142   24.5202 C   0  0  0  0  0  0  0  0  0  0  0  0
  -27.1619   36.4740   23.1590 C   0  0  0  0  0  0  0  0  0  0  0  0
  -27.2713   35.2769   22.9455 O   0  0  0  0  0  0  0  0  0  0  0  0
  -27.3685   37.3715   22.2006 N   0  0  0  0  0  0  0  0  0  0  0  0
  -27.3157   38.3360   22.3909 H   0  0  0  0  0  0  0  0  0  0  0  0
  -27.6777   36.8845   20.8495 C   0  0  0  0  0  0  0  0  0  0  0  0
  -26.7521   37.5526   19.8376 C   0  0  0  0  0  0  0  0  0  0  0  0
  -26.6642   38.7755   19.7666 O   0  0  0  0  0  0  0  0  0  0  0  0
  -26.0354   36.7284   19.0619 N   0  0  0  0  0  0  0  0  0  0  0  0
  -26.1379   35.7535   19.1529 H   0  0  0  0  0  0  0  0  0  0  0  0
  -25.4062   37.0977   18.4008 H   0  0  0  0  0  0  0  0  0  0  0  0
  -29.1396   37.1172   20.4942 C   0  0  0  0  0  0  0  0  0  0  0  0
  -30.1182   37.1192   21.6568 C   0  0  0  0  0  0  0  0  0  0  0  0
  -30.6389   35.9496   22.1750 C   0  0  0  0  0  0  0  0  0  0  0  0
  -30.5158   38.3218   22.2244 C   0  0  0  0  0  0  0  0  0  0  0  0
  -31.5321   35.9680   23.2201 C   0  0  0  0  0  0  0  0  0  0  0  0
  -31.4091   38.3455   23.2818 C   0  0  0  0  0  0  0  0  0  0  0  0
  -31.9212   37.1693   23.7915 C   0  0  0  0  0  0  0  0  0  0  0  0
  -27.8937   37.8135   25.1754 C   0  0  0  0  0  0  0  0  0  0  0  0
  -28.7218   37.0229   26.1757 C   0  0  0  0  0  0  0  0  0  0  0  0
  -28.2980   37.3616   27.5966 C   0  0  0  0  0  0  0  0  0  0  0  0
  -28.8304   36.7685   28.5572 O   0  0  0  0  0  0  0  0  0  0  0  0
  -27.3348   38.1432   27.7495 O   0  0  0  0  0  0  0  0  0  0  0  0
  -26.9577   38.5729   27.0071 H   0  0  0  0  0  0  0  0  0  0  0  0
  -22.9526   39.1039   26.6582 N   0  0  0  0  0  0  0  0  0  0  0  0
  -23.6053   38.7794   27.3717 H   0  0  0  0  0  0  0  0  0  0  0  0
  -21.6385   38.5253   26.9522 C   0  0  0  0  0  0  0  0  0  0  0  0
  -21.6267   37.7489   28.2819 C   0  0  0  0  0  0  0  0  0  0  0  0
  -20.5538   36.8102   28.2779 O   0  0  0  0  0  0  0  0  0  0  0  0
  -19.7113   37.2825   28.1885 H   0  0  0  0  0  0  0  0  0  0  0  0
  -21.4295   38.7015   29.4766 C   0  0  0  0  0  0  0  0  0  0  0  0
  -19.1754   39.9941   30.7976 O   0  0  0  0  0  0  0  0  0  0  0  0
  -19.6810   40.4332   29.7829 C   0  0  0  0  0  0  0  0  0  0  0  0
  -20.7385   39.9267   29.1008 N   0  0  0  0  0  0  0  0  0  0  0  0
  -21.0565   40.4149   28.3072 H   0  0  0  0  0  0  0  0  0  0  0  0
  -19.3273   41.6138   29.2135 O   0  0  0  0  0  0  0  0  0  0  0  0
  -18.1895   41.6209   28.2809 C   0  0  0  0  0  0  0  0  0  0  0  0
  -17.9440   40.1865   27.8495 C   0  0  0  0  0  0  0  0  0  0  0  0
  -16.9957   42.1891   29.0380 C   0  0  0  0  0  0  0  0  0  0  0  0
  -18.6031   42.5072   27.1155 C   0  0  0  0  0  0  0  0  0  0  0  0
  -22.7815   39.0486   30.1103 C   0  0  0  0  0  0  0  0  0  0  0  0
  -22.7278   39.1850   31.6194 C   0  0  0  0  0  0  0  0  0  0  0  0
  -23.1183   40.3563   32.2413 C   0  0  0  0  0  0  0  0  0  0  0  0
  -22.2761   38.1308   32.3996 C   0  0  0  0  0  0  0  0  0  0  0  0
  -23.0551   40.4813   33.6168 C   0  0  0  0  0  0  0  0  0  0  0  0
  -22.2020   38.2488   33.7764 C   0  0  0  0  0  0  0  0  0  0  0  0
  -22.5980   39.4278   34.3855 C   0  0  0  0  0  0  0  0  0  0  0  0
  -22.4697   38.1187   24.4344 C   0  0  0  0  0  0  0  0  0  0  0  0
  -22.6763   38.5959   22.9988 C   0  0  0  0  0  0  0  0  0  0  0  0
  -22.9293   37.6674   22.0011 C   0  0  0  0  0  0  0  0  0  0  0  0
  -22.5987   39.9344   22.6667 C   0  0  0  0  0  0  0  0  0  0  0  0
  -23.1087   38.0633   20.6895 C   0  0  0  0  0  0  0  0  0  0  0  0
  -22.7854   40.3449   21.3639 C   0  0  0  0  0  0  0  0  0  0  0  0
  -23.0278   39.4080   20.3740 C   0  0  0  0  0  0  0  0  0  0  0  0
 37 38  2  0  0  0
 38 41  1  0  0  0
 41 42  1  0  0  0
 42 43  1  0  0  0
 42 44  1  0  0  0
 42 45  1  0  0  0
 30  1  1  0  0  0
  1  2  1  0  0  0
  1 53  1  0  0  0
  2  3  2  0  0  0
 53 54  1  0  0  0
 54 55  2  0  0  0
 54 56  1  0  0  0
 55 57  1  0  0  0
 56 58  2  0  0  0
 57 59  2  0  0  0
 58 59  1  0  0  0
 39 36  1  0  0  0
 36 33  1  0  0  0
 36 46  1  0  0  0
 33 34  1  0  0  0
 33 32  1  0  0  0
 46 47  1  0  0  0
 47 48  2  0  0  0
 47 49  1  0  0  0
 48 50  1  0  0  0
 49 51  2  0  0  0
 50 52  2  0  0  0
 51 52  1  0  0  0
  4  6  1  0  0  0
  6  7  1  0  0  0
  6 24  1  0  0  0
  7  8  2  0  0  0
 24 25  1  0  0  0
 25 26  1  0  0  0
 26 27  2  0  0  0
 26 28  1  0  0  0
  9 11  1  0  0  0
 11 12  1  0  0  0
 11 17  1  0  0  0
 12 13  2  0  0  0
 17 18  1  0  0  0
 18 19  2  0  0  0
 18 20  1  0  0  0
 19 21  1  0  0  0
 20 22  2  0  0  0
 21 23  2  0  0  0
 22 23  1  0  0  0
 38 39  1  0  0  0
 32 30  1  0  0  0
  2  4  1  0  0  0
  7  9  1  0  0  0
 12 14  1  0  0  0
 39 40  1  0  0  0
 34 35  1  0  0  0
 30 31  1  0  0  0
  4  5  1  0  0  0
 28 29  1  0  0  0
  9 10  1  0  0  0
 14 15  1  0  0  0
 14 16  1  0  0  0
M  END
> <minimizedAffinity>
-9.86591

$$$$
1ZSF_0ZS_B_201


 59 61  0  0  0  0  0  0  0  0999 V2000
  -23.5205   38.3542   25.2134 C   0  0  0  0  0  0  0  0  0  0  0  0
  -24.7883   37.5021   25.3074 C   0  0  0  0  0  0  0  0  0  0  0  0
  -24.8615   36.5460   26.0806 O   0  0  0  0  0  0  0  0  0  0  0  0
  -25.7484   37.7730   24.4288 N   0  0  0  0  0  0  0  0  0  0  0  0
  -25.6036   38.4553   23.7340 H   0  0  0  0  0  0  0  0  0  0  0  0
  -27.0181   37.0560   24.4974 C   0  0  0  0  0  0  0  0  0  0  0  0
  -27.4950   36.6028   23.1311 C   0  0  0  0  0  0  0  0  0  0  0  0
  -27.6615   35.4234   22.8629 O   0  0  0  0  0  0  0  0  0  0  0  0
  -27.7096   37.5563   22.2303 N   0  0  0  0  0  0  0  0  0  0  0  0
  -27.6099   38.5069   22.4663 H   0  0  0  0  0  0  0  0  0  0  0  0
  -28.0997   37.1525   20.8727 C   0  0  0  0  0  0  0  0  0  0  0  0
  -27.0555   37.6374   19.8718 C   0  0  0  0  0  0  0  0  0  0  0  0
  -26.8154   38.8337   19.7326 O   0  0  0  0  0  0  0  0  0  0  0  0
  -26.4118   36.6844   19.1848 N   0  0  0  0  0  0  0  0  0  0  0  0
  -26.6370   35.7368   19.3284 H   0  0  0  0  0  0  0  0  0  0  0  0
  -25.7136   36.9316   18.5362 H   0  0  0  0  0  0  0  0  0  0  0  0
  -29.4860   37.6694   20.5142 C   0  0  0  0  0  0  0  0  0  0  0  0
  -30.3908   38.0230   21.6829 C   0  0  0  0  0  0  0  0  0  0  0  0
  -31.0846   37.0585   22.3870 C   0  0  0  0  0  0  0  0  0  0  0  0
  -30.5406   39.3488   22.0654 C   0  0  0  0  0  0  0  0  0  0  0  0
  -31.9083   37.3948   23.4353 C   0  0  0  0  0  0  0  0  0  0  0  0
  -31.3628   39.6922   23.1251 C   0  0  0  0  0  0  0  0  0  0  0  0
  -32.0497   38.7184   23.8217 C   0  0  0  0  0  0  0  0  0  0  0  0
  -28.0507   37.9247   25.2143 C   0  0  0  0  0  0  0  0  0  0  0  0
  -28.8815   37.1829   26.2491 C   0  0  0  0  0  0  0  0  0  0  0  0
  -28.2795   37.3595   27.6346 C   0  0  0  0  0  0  0  0  0  0  0  0
  -27.3427   38.1672   27.8019 O   0  0  0  0  0  0  0  0  0  0  0  0
  -28.8304   36.7733   28.5912 O   0  0  0  0  0  0  0  0  0  0  0  0
  -29.5315   36.1725   28.4314 H   0  0  0  0  0  0  0  0  0  0  0  0
  -22.8797   38.5255   26.5014 N   0  0  0  0  0  0  0  0  0  0  0  0
  -23.4830   38.1084   27.2103 H   0  0  0  0  0  0  0  0  0  0  0  0
  -21.5494   37.9241   26.6302 C   0  0  0  0  0  0  0  0  0  0  0  0
  -21.1547   37.6893   28.1001 C   0  0  0  0  0  0  0  0  0  0  0  0
  -20.2660   36.5779   28.1847 O   0  0  0  0  0  0  0  0  0  0  0  0
  -19.4624   36.7670   27.6754 H   0  0  0  0  0  0  0  0  0  0  0  0
  -20.4409   38.9231   28.6846 C   0  0  0  0  0  0  0  0  0  0  0  0
  -22.4950   39.9912   30.4556 O   0  0  0  0  0  0  0  0  0  0  0  0
  -21.4877   39.4512   30.8699 C   0  0  0  0  0  0  0  0  0  0  0  0
  -20.4647   38.9398   30.1403 N   0  0  0  0  0  0  0  0  0  0  0  0
  -19.6954   38.5587   30.6221 H   0  0  0  0  0  0  0  0  0  0  0  0
  -21.1580   39.3759   32.1847 O   0  0  0  0  0  0  0  0  0  0  0  0
  -22.2053   38.9858   33.1414 C   0  0  0  0  0  0  0  0  0  0  0  0
  -23.0707   37.9364   32.4678 C   0  0  0  0  0  0  0  0  0  0  0  0
  -23.0024   40.2426   33.4673 C   0  0  0  0  0  0  0  0  0  0  0  0
  -21.4808   38.4349   34.3605 C   0  0  0  0  0  0  0  0  0  0  0  0
  -18.9895   38.9811   28.1944 C   0  0  0  0  0  0  0  0  0  0  0  0
  -18.3794   40.3673   28.2656 C   0  0  0  0  0  0  0  0  0  0  0  0
  -17.2833   40.6208   29.0691 C   0  0  0  0  0  0  0  0  0  0  0  0
  -18.9219   41.4072   27.5252 C   0  0  0  0  0  0  0  0  0  0  0  0
  -16.7382   41.8894   29.1414 C   0  0  0  0  0  0  0  0  0  0  0  0
  -18.3882   42.6820   27.5966 C   0  0  0  0  0  0  0  0  0  0  0  0
  -17.2893   42.9206   28.4048 C   0  0  0  0  0  0  0  0  0  0  0  0
  -22.5899   37.7018   24.1805 C   0  0  0  0  0  0  0  0  0  0  0  0
  -22.8022   38.3360   22.8078 C   0  0  0  0  0  0  0  0  0  0  0  0
  -22.6136   39.7002   22.6501 C   0  0  0  0  0  0  0  0  0  0  0  0
  -23.1969   37.5823   21.7197 C   0  0  0  0  0  0  0  0  0  0  0  0
  -22.8091   40.3087   21.4250 C   0  0  0  0  0  0  0  0  0  0  0  0
  -23.3861   38.1743   20.4890 C   0  0  0  0  0  0  0  0  0  0  0  0
  -23.2043   39.5391   20.3454 C   0  0  0  0  0  0  0  0  0  0  0  0
 37 38  2  0  0  0
 38 41  1  0  0  0
 41 42  1  0  0  0
 42 43  1  0  0  0
 42 44  1  0  0  0
 42 45  1  0  0  0
 30  1  1  0  0  0
  1  2  1  0  0  0
  1 53  1  0  0  0
  2  3  2  0  0  0
 53 54  1  0  0  0
 54 55  2  0  0  0
 54 56  1  0  0  0
 55 57  1  0  0  0
 56 58  2  0  0  0
 57 59  2  0  0  0
 58 59  1  0  0  0
 39 36  1  0  0  0
 36 33  1  0  0  0
 36 46  1  0  0  0
 33 34  1  0  0  0
 33 32  1  0  0  0
 46 47  1  0  0  0
 47 48  2  0  0  0
 47 49  1  0  0  0
 48 50  1  0  0  0
 49 51  2  0  0  0
 50 52  2  0  0  0
 51 52  1  0  0  0
  4  6  1  0  0  0
  6  7  1  0  0  0
  6 24  1  0  0  0
  7  8  2  0  0  0
 24 25  1  0  0  0
 25 26  1  0  0  0
 26 27  2  0  0  0
 26 28  1  0  0  0
  9 11  1  0  0  0
 11 12  1  0  0  0
 11 17  1  0  0  0
 12 13  2  0  0  0
 17 18  1  0  0  0
 18 19  2  0  0  0
 18 20  1  0  0  0
 19 21  1  0  0  0
 20 22  2  0  0  0
 21 23  2  0  0  0
 22 23  1  0  0  0
 38 39  1  0  0  0
 32 30  1  0  0  0
  2  4  1  0  0  0
  7  9  1  0  0  0
 12 14  1  0  0  0
 39 40  1  0  0  0
 34 35  1  0  0  0
 30 31  1  0  0  0
  4  5  1  0  0  0
 28 29  1  0  0  0
  9 10  1  0  0  0
 14 15  1  0  0  0
 14 16  1  0  0  0
M  END
> <minimizedAffinity>
-9.73669

$$$$
1ZSF_0ZS_B_201


 59 61  0  0  0  0  0  0  0  0999 V2000
  -22.8165   36.9647   26.6372 C   0  0  0  0  0  0  0  0  0  0  0  0
  -23.2077   37.7081   25.3579 C   0  0  0  0  0  0  0  0  0  0  0  0
  -23.3272   38.9339   25.3406 O   0  0  0  0  0  0  0  0  0  0  0  0
  -23.5286   36.9538   24.3113 N   0  0  0  0  0  0  0  0  0  0  0  0
  -23.5543   35.9735   24.3985 H   0  0  0  0  0  0  0  0  0  0  0  0
  -23.8427   37.5835   23.0323 C   0  0  0  0  0  0  0  0  0  0  0  0
  -24.8963   36.8149   22.2584 C   0  0  0  0  0  0  0  0  0  0  0  0
  -24.7201   35.6623   21.8966 O   0  0  0  0  0  0  0  0  0  0  0  0
  -26.0209   37.4659   21.9788 N   0  0  0  0  0  0  0  0  0  0  0  0
  -26.1703   38.3818   22.3074 H   0  0  0  0  0  0  0  0  0  0  0  0
  -27.0348   36.7808   21.1659 C   0  0  0  0  0  0  0  0  0  0  0  0
  -27.3960   37.6429   19.9602 C   0  0  0  0  0  0  0  0  0  0  0  0
  -26.9479   38.7793   19.8339 O   0  0  0  0  0  0  0  0  0  0  0  0
  -28.2015   37.0765   19.0520 N   0  0  0  0  0  0  0  0  0  0  0  0
  -28.5377   36.1621   19.1943 H   0  0  0  0  0  0  0  0  0  0  0  0
  -28.4573   37.5745   18.2422 H   0  0  0  0  0  0  0  0  0  0  0  0
  -28.2704   36.4396   21.9872 C   0  0  0  0  0  0  0  0  0  0  0  0
  -28.8781   37.5805   22.7865 C   0  0  0  0  0  0  0  0  0  0  0  0
  -29.7960   38.4516   22.2334 C   0  0  0  0  0  0  0  0  0  0  0  0
  -28.5084   37.7712   24.1107 C   0  0  0  0  0  0  0  0  0  0  0  0
  -30.3289   39.4860   22.9659 C   0  0  0  0  0  0  0  0  0  0  0  0
  -29.0477   38.8066   24.8550 C   0  0  0  0  0  0  0  0  0  0  0  0
  -29.9654   39.6696   24.2908 C   0  0  0  0  0  0  0  0  0  0  0  0
  -22.5549   37.7702   22.2314 C   0  0  0  0  0  0  0  0  0  0  0  0
  -22.7426   38.4868   20.9038 C   0  0  0  0  0  0  0  0  0  0  0  0
  -23.4312   39.8256   21.1192 C   0  0  0  0  0  0  0  0  0  0  0  0
  -22.7960   40.7712   21.6294 O   0  0  0  0  0  0  0  0  0  0  0  0
  -24.5852   39.9706   20.6614 O   0  0  0  0  0  0  0  0  0  0  0  0
  -25.0350   39.2400   20.2848 H   0  0  0  0  0  0  0  0  0  0  0  0
  -21.3986   37.0660   26.9169 N   0  0  0  0  0  0  0  0  0  0  0  0
  -20.9412   37.4448   26.0877 H   0  0  0  0  0  0  0  0  0  0  0  0
  -21.0386   37.9129   28.0575 C   0  0  0  0  0  0  0  0  0  0  0  0
  -20.4690   39.2742   27.6172 C   0  0  0  0  0  0  0  0  0  0  0  0
  -21.5396   40.1605   27.3004 O   0  0  0  0  0  0  0  0  0  0  0  0
  -22.0907   40.2960   28.0870 H   0  0  0  0  0  0  0  0  0  0  0  0
  -19.6311   39.9126   28.7414 C   0  0  0  0  0  0  0  0  0  0  0  0
  -22.0045   40.3930   30.3641 O   0  0  0  0  0  0  0  0  0  0  0  0
  -21.1086   39.6502   30.7158 C   0  0  0  0  0  0  0  0  0  0  0  0
  -19.9584   39.3713   30.0528 N   0  0  0  0  0  0  0  0  0  0  0  0
  -19.3087   38.7693   30.4825 H   0  0  0  0  0  0  0  0  0  0  0  0
  -21.0612   39.0477   31.9315 O   0  0  0  0  0  0  0  0  0  0  0  0
  -22.3318   38.7786   32.6225 C   0  0  0  0  0  0  0  0  0  0  0  0
  -23.1359   37.8342   31.7476 C   0  0  0  0  0  0  0  0  0  0  0  0
  -23.0378   40.1175   32.7958 C   0  0  0  0  0  0  0  0  0  0  0  0
  -21.9625   38.1489   33.9573 C   0  0  0  0  0  0  0  0  0  0  0  0
  -18.1353   39.7208   28.4659 C   0  0  0  0  0  0  0  0  0  0  0  0
  -17.2740   40.8635   28.9671 C   0  0  0  0  0  0  0  0  0  0  0  0
  -16.1890   40.6273   29.7906 C   0  0  0  0  0  0  0  0  0  0  0  0
  -17.5707   42.1702   28.6083 C   0  0  0  0  0  0  0  0  0  0  0  0
  -15.4142   41.6734   30.2563 C   0  0  0  0  0  0  0  0  0  0  0  0
  -16.8058   43.2246   29.0754 C   0  0  0  0  0  0  0  0  0  0  0  0
  -15.7211   42.9725   29.8986 C   0  0  0  0  0  0  0  0  0  0  0  0
  -23.6784   37.5137   27.7834 C   0  0  0  0  0  0  0  0  0  0  0  0
  -25.1296   37.0730   27.6070 C   0  0  0  0  0  0  0  0  0  0  0  0
  -26.1532   37.9417   27.9523 C   0  0  0  0  0  0  0  0  0  0  0  0
  -25.4476   35.8176   27.1265 C   0  0  0  0  0  0  0  0  0  0  0  0
  -27.4774   37.5707   27.8172 C   0  0  0  0  0  0  0  0  0  0  0  0
  -26.7644   35.4375   26.9771 C   0  0  0  0  0  0  0  0  0  0  0  0
  -27.7784   36.3095   27.3344 C   0  0  0  0  0  0  0  0  0  0  0  0
 37 38  2  0  0  0
 38 41  1  0  0  0
 41 42  1  0  0  0
 42 43  1  0  0  0
 42 44  1  0  0  0
 42 45  1  0  0  0
 30  1  1  0  0  0
  1  2  1  0  0  0
  1 53  1  0  0  0
  2  3  2  0  0  0
 53 54  1  0  0  0
 54 55  2  0  0  0
 54 56  1  0  0  0
 55 57  1  0  0  0
 56 58  2  0  0  0
 57 59  2  0  0  0
 58 59  1  0  0  0
 39 36  1  0  0  0
 36 33  1  0  0  0
 36 46  1  0  0  0
 33 34  1  0  0  0
 33 32  1  0  0  0
 46 47  1  0  0  0
 47 48  2  0  0  0
 47 49  1  0  0  0
 48 50  1  0  0  0
 49 51  2  0  0  0
 50 52  2  0  0  0
 51 52  1  0  0  0
  4  6  1  0  0  0
  6  7  1  0  0  0
  6 24  1  0  0  0
  7  8  2  0  0  0
 24 25  1  0  0  0
 25 26  1  0  0  0
 26 27  2  0  0  0
 26 28  1  0  0  0
  9 11  1  0  0  0
 11 12  1  0  0  0
 11 17  1  0  0  0
 12 13  2  0  0  0
 17 18  1  0  0  0
 18 19  2  0  0  0
 18 20  1  0  0  0
 19 21  1  0  0  0
 20 22  2  0  0  0
 21 23  2  0  0  0
 22 23  1  0  0  0
 38 39  1  0  0  0
 32 30  1  0  0  0
  2  4  1  0  0  0
  7  9  1  0  0  0
 12 14  1  0  0  0
 39 40  1  0  0  0
 34 35  1  0  0  0
 30 31  1  0  0  0
  4  5  1  0  0  0
 28 29  1  0  0  0
  9 10  1  0  0  0
 14 15  1  0  0  0
 14 16  1  0  0  0
M  END
> <minimizedAffinity>
-9.69160

$$$$
1ZSF_0ZS_B_201


 59 61  0  0  0  0  0  0  0  0999 V2000
  -18.7251   41.5272   29.5552 C   0  0  0  0  0  0  0  0  0  0  0  0
  -18.9214   40.4032   28.5352 C   0  0  0  0  0  0  0  0  0  0  0  0
  -17.9901   40.0045   27.8344 O   0  0  0  0  0  0  0  0  0  0  0  0
  -20.1673   39.9730   28.3630 N   0  0  0  0  0  0  0  0  0  0  0  0
  -20.9102   40.4073   28.8413 H   0  0  0  0  0  0  0  0  0  0  0  0
  -20.4308   38.8545   27.4627 C   0  0  0  0  0  0  0  0  0  0  0  0
  -21.6265   39.1100   26.5657 C   0  0  0  0  0  0  0  0  0  0  0  0
  -21.9295   40.2337   26.1969 O   0  0  0  0  0  0  0  0  0  0  0  0
  -22.3410   38.0469   26.2109 N   0  0  0  0  0  0  0  0  0  0  0  0
  -22.0676   37.1405   26.4810 H   0  0  0  0  0  0  0  0  0  0  0  0
  -23.5501   38.2617   25.4046 C   0  0  0  0  0  0  0  0  0  0  0  0
  -24.7883   37.9669   26.2455 C   0  0  0  0  0  0  0  0  0  0  0  0
  -25.0679   38.6500   27.2270 O   0  0  0  0  0  0  0  0  0  0  0  0
  -25.5501   36.9451   25.8330 N   0  0  0  0  0  0  0  0  0  0  0  0
  -25.2874   36.4239   25.0402 H   0  0  0  0  0  0  0  0  0  0  0  0
  -26.3727   36.7153   26.3228 H   0  0  0  0  0  0  0  0  0  0  0  0
  -23.5325   37.4175   24.1379 C   0  0  0  0  0  0  0  0  0  0  0  0
  -23.2277   38.1569   22.8456 C   0  0  0  0  0  0  0  0  0  0  0  0
  -22.8539   39.4864   22.8358 C   0  0  0  0  0  0  0  0  0  0  0  0
  -23.3270   37.4948   21.6298 C   0  0  0  0  0  0  0  0  0  0  0  0
  -22.5920   40.1450   21.6576 C   0  0  0  0  0  0  0  0  0  0  0  0
  -23.0570   38.1512   20.4411 C   0  0  0  0  0  0  0  0  0  0  0  0
  -22.6830   39.4799   20.4450 C   0  0  0  0  0  0  0  0  0  0  0  0
  -20.5817   37.5726   28.2805 C   0  0  0  0  0  0  0  0  0  0  0  0
  -21.1386   37.7851   29.6791 C   0  0  0  0  0  0  0  0  0  0  0  0
  -22.6282   38.0848   29.6143 C   0  0  0  0  0  0  0  0  0  0  0  0
  -23.0303   39.2542   29.7844 O   0  0  0  0  0  0  0  0  0  0  0  0
  -23.3965   37.1615   29.2688 O   0  0  0  0  0  0  0  0  0  0  0  0
  -23.0627   36.2941   29.1496 H   0  0  0  0  0  0  0  0  0  0  0  0
  -18.4010   41.0196   30.8729 N   0  0  0  0  0  0  0  0  0  0  0  0
  -18.0332   41.7938   31.4259 H   0  0  0  0  0  0  0  0  0  0  0  0
  -19.5177   40.4263   31.6137 C   0  0  0  0  0  0  0  0  0  0  0  0
  -19.0399   39.4925   32.7411 C   0  0  0  0  0  0  0  0  0  0  0  0
  -17.7360   39.0035   32.4365 O   0  0  0  0  0  0  0  0  0  0  0  0
  -17.1186   39.7487   32.3700 H   0  0  0  0  0  0  0  0  0  0  0  0
  -18.9724   40.2400   34.0866 C   0  0  0  0  0  0  0  0  0  0  0  0
  -16.7691   42.1484   34.0869 O   0  0  0  0  0  0  0  0  0  0  0  0
  -17.9262   42.4822   33.9205 C   0  0  0  0  0  0  0  0  0  0  0  0
  -19.0241   41.6856   33.9213 N   0  0  0  0  0  0  0  0  0  0  0  0
  -19.9053   42.1086   33.8034 H   0  0  0  0  0  0  0  0  0  0  0  0
  -18.3319   43.7738   33.8202 O   0  0  0  0  0  0  0  0  0  0  0  0
  -18.0854   44.6692   34.9612 C   0  0  0  0  0  0  0  0  0  0  0  0
  -16.6433   45.1344   34.8730 C   0  0  0  0  0  0  0  0  0  0  0  0
  -18.3348   43.8583   36.2266 C   0  0  0  0  0  0  0  0  0  0  0  0
  -19.0692   45.8206   34.8158 C   0  0  0  0  0  0  0  0  0  0  0  0
  -20.1131   39.7874   35.0054 C   0  0  0  0  0  0  0  0  0  0  0  0
  -21.4334   39.5957   34.2852 C   0  0  0  0  0  0  0  0  0  0  0  0
  -22.2750   40.6663   34.0470 C   0  0  0  0  0  0  0  0  0  0  0  0
  -21.8190   38.3330   33.8596 C   0  0  0  0  0  0  0  0  0  0  0  0
  -23.4843   40.4849   33.4018 C   0  0  0  0  0  0  0  0  0  0  0  0
  -23.0308   38.1400   33.2197 C   0  0  0  0  0  0  0  0  0  0  0  0
  -23.8628   39.2223   32.9868 C   0  0  0  0  0  0  0  0  0  0  0  0
  -17.6443   42.4732   29.0117 C   0  0  0  0  0  0  0  0  0  0  0  0
  -17.6107   43.7596   29.8336 C   0  0  0  0  0  0  0  0  0  0  0  0
  -16.4070   44.2009   30.3608 C   0  0  0  0  0  0  0  0  0  0  0  0
  -18.7589   44.4868   30.0802 C   0  0  0  0  0  0  0  0  0  0  0  0
  -16.3426   45.3539   31.1196 C   0  0  0  0  0  0  0  0  0  0  0  0
  -18.7080   45.6444   30.8273 C   0  0  0  0  0  0  0  0  0  0  0  0
  -17.5021   46.0705   31.3571 C   0  0  0  0  0  0  0  0  0  0  0  0
 37 38  2  0  0  0
 38 41  1  0  0  0
 41 42  1  0  0  0
 42 43  1  0  0  0
 42 44  1  0  0  0
 42 45  1  0  0  0
 30  1  1  0  0  0
  1  2  1  0  0  0
  1 53  1  0  0  0
  2  3  2  0  0  0
 53 54  1  0  0  0
 54 55  2  0  0  0
 54 56  1  0  0  0
 55 57  1  0  0  0
 56 58  2  0  0  0
 57 59  2  0  0  0
 58 59  1  0  0  0
 39 36  1  0  0  0
 36 33  1  0  0  0
 36 46  1  0  0  0
 33 34  1  0  0  0
 33 32  1  0  0  0
 46 47  1  0  0  0
 47 48  2  0  0  0
 47 49  1  0  0  0
 48 50  1  0  0  0
 49 51  2  0  0  0
 50 52  2  0  0  0
 51 52  1  0  0  0
  4  6  1  0  0  0
  6  7  1  0  0  0
  6 24  1  0  0  0
  7  8  2  0  0  0
 24 25  1  0  0  0
 25 26  1  0  0  0
 26 27  2  0  0  0
 26 28  1  0  0  0
  9 11  1  0  0  0
 11 12  1  0  0  0
 11 17  1  0  0  0
 12 13  2  0  0  0
 17 18  1  0  0  0
 18 19  2  0  0  0
 18 20  1  0  0  0
 19 21  1  0  0  0
 20 22  2  0  0  0
 21 23  2  0  0  0
 22 23  1  0  0  0
 38 39  1  0  0  0
 32 30  1  0  0  0
  2  4  1  0  0  0
  7  9  1  0  0  0
 12 14  1  0  0  0
 39 40  1  0  0  0
 34 35  1  0  0  0
 30 31  1  0  0  0
  4  5  1  0  0  0
 28 29  1  0  0  0
  9 10  1  0  0  0
 14 15  1  0  0  0
 14 16  1  0  0  0
M  END
> <minimizedAffinity>
-9.62267

$$$$
1ZSF_0ZS_B_201


 59 61  0  0  0  0  0  0  0  0999 V2000
  -23.2247   38.4184   25.3947 C   0  0  0  0  0  0  0  0  0  0  0  0
  -24.4896   37.5605   25.4740 C   0  0  0  0  0  0  0  0  0  0  0  0
  -24.6397   36.7215   26.3633 O   0  0  0  0  0  0  0  0  0  0  0  0
  -25.3508   37.6839   24.4688 N   0  0  0  0  0  0  0  0  0  0  0  0
  -25.1361   38.2644   23.7032 H   0  0  0  0  0  0  0  0  0  0  0  0
  -26.6156   36.9560   24.5036 C   0  0  0  0  0  0  0  0  0  0  0  0
  -27.0612   36.5147   23.1229 C   0  0  0  0  0  0  0  0  0  0  0  0
  -27.2275   35.3381   22.8427 O   0  0  0  0  0  0  0  0  0  0  0  0
  -27.2483   37.4753   22.2236 N   0  0  0  0  0  0  0  0  0  0  0  0
  -27.1492   38.4237   22.4685 H   0  0  0  0  0  0  0  0  0  0  0  0
  -27.6070   37.0828   20.8541 C   0  0  0  0  0  0  0  0  0  0  0  0
  -26.5780   37.6374   19.8739 C   0  0  0  0  0  0  0  0  0  0  0  0
  -26.4198   38.8472   19.7347 O   0  0  0  0  0  0  0  0  0  0  0  0
  -25.8540   36.7302   19.2051 N   0  0  0  0  0  0  0  0  0  0  0  0
  -26.0149   35.7695   19.3479 H   0  0  0  0  0  0  0  0  0  0  0  0
  -25.1609   37.0242   18.5706 H   0  0  0  0  0  0  0  0  0  0  0  0
  -29.0129   37.5418   20.4930 C   0  0  0  0  0  0  0  0  0  0  0  0
  -29.9590   37.7791   21.6584 C   0  0  0  0  0  0  0  0  0  0  0  0
  -30.1968   39.0437   22.1600 C   0  0  0  0  0  0  0  0  0  0  0  0
  -30.6082   36.7055   22.2520 C   0  0  0  0  0  0  0  0  0  0  0  0
  -31.0471   39.2415   23.2222 C   0  0  0  0  0  0  0  0  0  0  0  0
  -31.4713   36.8999   23.3170 C   0  0  0  0  0  0  0  0  0  0  0  0
  -31.7016   38.1693   23.8081 C   0  0  0  0  0  0  0  0  0  0  0  0
  -27.6695   37.8082   25.2092 C   0  0  0  0  0  0  0  0  0  0  0  0
  -28.5565   37.0351   26.1721 C   0  0  0  0  0  0  0  0  0  0  0  0
  -28.1648   37.3385   27.6100 C   0  0  0  0  0  0  0  0  0  0  0  0
  -28.7914   36.8016   28.5465 O   0  0  0  0  0  0  0  0  0  0  0  0
  -27.1401   38.0271   27.8047 O   0  0  0  0  0  0  0  0  0  0  0  0
  -26.6927   38.4166   27.0794 H   0  0  0  0  0  0  0  0  0  0  0  0
  -22.5717   38.5505   26.6812 N   0  0  0  0  0  0  0  0  0  0  0  0
  -21.7351   37.9671   26.6701 H   0  0  0  0  0  0  0  0  0  0  0  0
  -22.1685   39.9108   27.0483 C   0  0  0  0  0  0  0  0  0  0  0  0
  -20.6399   40.0946   27.0190 C   0  0  0  0  0  0  0  0  0  0  0  0
  -20.3209   41.3543   26.4329 O   0  0  0  0  0  0  0  0  0  0  0  0
  -20.7075   42.0663   26.9663 H   0  0  0  0  0  0  0  0  0  0  0  0
  -20.0518   40.0625   28.4427 C   0  0  0  0  0  0  0  0  0  0  0  0
  -20.1395   40.0725   31.3563 O   0  0  0  0  0  0  0  0  0  0  0  0
  -20.7792   39.2877   30.6834 C   0  0  0  0  0  0  0  0  0  0  0  0
  -20.7975   39.1823   29.3311 N   0  0  0  0  0  0  0  0  0  0  0  0
  -21.3456   38.4709   28.9277 H   0  0  0  0  0  0  0  0  0  0  0  0
  -21.5169   38.2738   31.2038 O   0  0  0  0  0  0  0  0  0  0  0  0
  -22.9291   38.5358   31.5222 C   0  0  0  0  0  0  0  0  0  0  0  0
  -23.3741   37.4841   32.5222 C   0  0  0  0  0  0  0  0  0  0  0  0
  -23.7078   38.4309   30.2170 C   0  0  0  0  0  0  0  0  0  0  0  0
  -22.9777   39.9396   32.1069 C   0  0  0  0  0  0  0  0  0  0  0  0
  -18.5827   39.6266   28.4028 C   0  0  0  0  0  0  0  0  0  0  0  0
  -17.6207   40.6872   28.9012 C   0  0  0  0  0  0  0  0  0  0  0  0
  -16.6461   40.3813   29.8328 C   0  0  0  0  0  0  0  0  0  0  0  0
  -17.7120   41.9887   28.4301 C   0  0  0  0  0  0  0  0  0  0  0  0
  -15.7795   41.3546   30.2947 C   0  0  0  0  0  0  0  0  0  0  0  0
  -16.8542   42.9715   28.8920 C   0  0  0  0  0  0  0  0  0  0  0  0
  -15.8820   42.6499   29.8242 C   0  0  0  0  0  0  0  0  0  0  0  0
  -22.3029   37.8016   24.3326 C   0  0  0  0  0  0  0  0  0  0  0  0
  -22.5428   38.4661   22.9790 C   0  0  0  0  0  0  0  0  0  0  0  0
  -22.5714   39.8494   22.8937 C   0  0  0  0  0  0  0  0  0  0  0  0
  -22.7507   37.7182   21.8364 C   0  0  0  0  0  0  0  0  0  0  0  0
  -22.7985   40.4834   21.6871 C   0  0  0  0  0  0  0  0  0  0  0  0
  -22.9686   38.3373   20.6240 C   0  0  0  0  0  0  0  0  0  0  0  0
  -23.0049   39.7193   20.5523 C   0  0  0  0  0  0  0  0  0  0  0  0
 37 38  2  0  0  0
 38 41  1  0  0  0
 41 42  1  0  0  0
 42 43  1  0  0  0
 42 44  1  0  0  0
 42 45  1  0  0  0
 30  1  1  0  0  0
  1  2  1  0  0  0
  1 53  1  0  0  0
  2  3  2  0  0  0
 53 54  1  0  0  0
 54 55  2  0  0  0
 54 56  1  0  0  0
 55 57  1  0  0  0
 56 58  2  0  0  0
 57 59  2  0  0  0
 58 59  1  0  0  0
 39 36  1  0  0  0
 36 33  1  0  0  0
 36 46  1  0  0  0
 33 34  1  0  0  0
 33 32  1  0  0  0
 46 47  1  0  0  0
 47 48  2  0  0  0
 47 49  1  0  0  0
 48 50  1  0  0  0
 49 51  2  0  0  0
 50 52  2  0  0  0
 51 52  1  0  0  0
  4  6  1  0  0  0
  6  7  1  0  0  0
  6 24  1  0  0  0
  7  8  2  0  0  0
 24 25  1  0  0  0
 25 26  1  0  0  0
 26 27  2  0  0  0
 26 28  1  0  0  0
  9 11  1  0  0  0
 11 12  1  0  0  0
 11 17  1  0  0  0
 12 13  2  0  0  0
 17 18  1  0  0  0
 18 19  2  0  0  0
 18 20  1  0  0  0
 19 21  1  0  0  0
 20 22  2  0  0  0
 21 23  2  0  0  0
 22 23  1  0  0  0
 38 39  1  0  0  0
 32 30  1  0  0  0
  2  4  1  0  0  0
  7  9  1  0  0  0
 12 14  1  0  0  0
 39 40  1  0  0  0
 34 35  1  0  0  0
 30 31  1  0  0  0
  4  5  1  0  0  0
 28 29  1  0  0  0
  9 10  1  0  0  0
 14 15  1  0  0  0
 14 16  1  0  0  0
M  END
> <minimizedAffinity>
-9.51351

$$$$
1ZSF_0ZS_B_201


 59 61  0  0  0  0  0  0  0  0999 V2000
  -17.6953   41.0965   29.0679 C   0  0  0  0  0  0  0  0  0  0  0  0
  -18.3175   39.9639   28.2480 C   0  0  0  0  0  0  0  0  0  0  0  0
  -17.7070   39.4372   27.3167 O   0  0  0  0  0  0  0  0  0  0  0  0
  -19.5861   39.6696   28.5150 N   0  0  0  0  0  0  0  0  0  0  0  0
  -20.0884   40.2021   29.1732 H   0  0  0  0  0  0  0  0  0  0  0  0
  -20.2319   38.5544   27.8293 C   0  0  0  0  0  0  0  0  0  0  0  0
  -21.3739   39.0109   26.9421 C   0  0  0  0  0  0  0  0  0  0  0  0
  -21.5369   40.1853   26.6513 O   0  0  0  0  0  0  0  0  0  0  0  0
  -22.2020   38.0668   26.5066 N   0  0  0  0  0  0  0  0  0  0  0  0
  -22.0413   37.1179   26.7142 H   0  0  0  0  0  0  0  0  0  0  0  0
  -23.3636   38.4783   25.7070 C   0  0  0  0  0  0  0  0  0  0  0  0
  -24.6239   38.4242   26.5649 C   0  0  0  0  0  0  0  0  0  0  0  0
  -24.6466   38.9091   27.6929 O   0  0  0  0  0  0  0  0  0  0  0  0
  -25.6930   37.8438   26.0040 N   0  0  0  0  0  0  0  0  0  0  0  0
  -25.6296   37.4678   25.0963 H   0  0  0  0  0  0  0  0  0  0  0  0
  -26.5423   37.7932   26.4995 H   0  0  0  0  0  0  0  0  0  0  0  0
  -23.5122   37.6210   24.4577 C   0  0  0  0  0  0  0  0  0  0  0  0
  -23.2491   38.3180   23.1332 C   0  0  0  0  0  0  0  0  0  0  0  0
  -23.3960   37.6672   21.9239 C   0  0  0  0  0  0  0  0  0  0  0  0
  -22.8442   39.6455   23.1184 C   0  0  0  0  0  0  0  0  0  0  0  0
  -23.1435   38.3080   20.7338 C   0  0  0  0  0  0  0  0  0  0  0  0
  -22.5961   40.2976   21.9226 C   0  0  0  0  0  0  0  0  0  0  0  0
  -22.7479   39.6363   20.7205 C   0  0  0  0  0  0  0  0  0  0  0  0
  -20.6758   37.5169   28.8595 C   0  0  0  0  0  0  0  0  0  0  0  0
  -21.2826   38.1089   30.1216 C   0  0  0  0  0  0  0  0  0  0  0  0
  -22.7064   37.6079   30.3081 C   0  0  0  0  0  0  0  0  0  0  0  0
  -23.3406   37.9201   31.3369 O   0  0  0  0  0  0  0  0  0  0  0  0
  -23.2404   36.9951   29.3586 O   0  0  0  0  0  0  0  0  0  0  0  0
  -22.7361   36.7756   28.6000 H   0  0  0  0  0  0  0  0  0  0  0  0
  -16.2898   40.8696   29.3360 N   0  0  0  0  0  0  0  0  0  0  0  0
  -15.7568   41.5899   28.8488 H   0  0  0  0  0  0  0  0  0  0  0  0
  -15.9032   40.9004   30.7493 C   0  0  0  0  0  0  0  0  0  0  0  0
  -16.9919   40.3114   31.6654 C   0  0  0  0  0  0  0  0  0  0  0  0
  -16.3806   39.5838   32.7279 O   0  0  0  0  0  0  0  0  0  0  0  0
  -15.8260   40.1823   33.2524 H   0  0  0  0  0  0  0  0  0  0  0  0
  -17.8590   41.4263   32.2808 C   0  0  0  0  0  0  0  0  0  0  0  0
  -19.0847   39.2591   33.7967 O   0  0  0  0  0  0  0  0  0  0  0  0
  -19.7316   40.0312   33.1160 C   0  0  0  0  0  0  0  0  0  0  0  0
  -19.2649   41.0559   32.3594 N   0  0  0  0  0  0  0  0  0  0  0  0
  -19.9132   41.5784   31.8341 H   0  0  0  0  0  0  0  0  0  0  0  0
  -21.0672   39.9131   32.9034 O   0  0  0  0  0  0  0  0  0  0  0  0
  -21.9723   40.1188   34.0449 C   0  0  0  0  0  0  0  0  0  0  0  0
  -22.1661   38.7740   34.7216 C   0  0  0  0  0  0  0  0  0  0  0  0
  -23.2828   40.6564   33.4840 C   0  0  0  0  0  0  0  0  0  0  0  0
  -21.2835   41.1246   34.9552 C   0  0  0  0  0  0  0  0  0  0  0  0
  -17.3454   41.7906   33.6785 C   0  0  0  0  0  0  0  0  0  0  0  0
  -17.4874   43.2626   34.0131 C   0  0  0  0  0  0  0  0  0  0  0  0
  -18.7338   43.8351   34.1855 C   0  0  0  0  0  0  0  0  0  0  0  0
  -16.3600   44.0601   34.1444 C   0  0  0  0  0  0  0  0  0  0  0  0
  -18.8593   45.1808   34.4774 C   0  0  0  0  0  0  0  0  0  0  0  0
  -16.4755   45.4095   34.4288 C   0  0  0  0  0  0  0  0  0  0  0  0
  -17.7307   45.9687   34.6002 C   0  0  0  0  0  0  0  0  0  0  0  0
  -17.9411   42.4126   28.3157 C   0  0  0  0  0  0  0  0  0  0  0  0
  -17.8054   43.5965   29.2704 C   0  0  0  0  0  0  0  0  0  0  0  0
  -16.5429   44.0466   29.6239 C   0  0  0  0  0  0  0  0  0  0  0  0
  -18.9153   44.2203   29.8062 C   0  0  0  0  0  0  0  0  0  0  0  0
  -16.3836   45.1072   30.4951 C   0  0  0  0  0  0  0  0  0  0  0  0
  -18.7716   45.2861   30.6690 C   0  0  0  0  0  0  0  0  0  0  0  0
  -17.5058   45.7208   31.0227 C   0  0  0  0  0  0  0  0  0  0  0  0
 37 38  2  0  0  0
 38 41  1  0  0  0
 41 42  1  0  0  0
 42 43  1  0  0  0
 42 44  1  0  0  0
 42 45  1  0  0  0
 30  1  1  0  0  0
  1  2  1  0  0  0
  1 53  1  0  0  0
  2  3  2  0  0  0
 53 54  1  0  0  0
 54 55  2  0  0  0
 54 56  1  0  0  0
 55 57  1  0  0  0
 56 58  2  0  0  0
 57 59  2  0  0  0
 58 59  1  0  0  0
 39 36  1  0  0  0
 36 33  1  0  0  0
 36 46  1  0  0  0
 33 34  1  0  0  0
 33 32  1  0  0  0
 46 47  1  0  0  0
 47 48  2  0  0  0
 47 49  1  0  0  0
 48 50  1  0  0  0
 49 51  2  0  0  0
 50 52  2  0  0  0
 51 52  1  0  0  0
  4  6  1  0  0  0
  6  7  1  0  0  0
  6 24  1  0  0  0
  7  8  2  0  0  0
 24 25  1  0  0  0
 25 26  1  0  0  0
 26 27  2  0  0  0
 26 28  1  0  0  0
  9 11  1  0  0  0
 11 12  1  0  0  0
 11 17  1  0  0  0
 12 13  2  0  0  0
 17 18  1  0  0  0
 18 19  2  0  0  0
 18 20  1  0  0  0
 19 21  1  0  0  0
 20 22  2  0  0  0
 21 23  2  0  0  0
 22 23  1  0  0  0
 38 39  1  0  0  0
 32 30  1  0  0  0
  2  4  1  0  0  0
  7  9  1  0  0  0
 12 14  1  0  0  0
 39 40  1  0  0  0
 34 35  1  0  0  0
 30 31  1  0  0  0
  4  5  1  0  0  0
 28 29  1  0  0  0
  9 10  1  0  0  0
 14 15  1  0  0  0
 14 16  1  0  0  0
M  END
> <minimizedAffinity>
-9.45613

$$$$
1ZSF_0ZS_B_201


 59 61  0  0  0  0  0  0  0  0999 V2000
  -22.6529   39.4248   30.1076 C   0  0  0  0  0  0  0  0  0  0  0  0
  -21.1871   39.0159   29.9449 C   0  0  0  0  0  0  0  0  0  0  0  0
  -20.8555   37.8310   29.8858 O   0  0  0  0  0  0  0  0  0  0  0  0
  -20.2912   39.9967   29.9957 N   0  0  0  0  0  0  0  0  0  0  0  0
  -20.5796   40.9197   30.1806 H   0  0  0  0  0  0  0  0  0  0  0  0
  -18.8786   39.7012   29.7765 C   0  0  0  0  0  0  0  0  0  0  0  0
  -17.9740   40.5366   30.6616 C   0  0  0  0  0  0  0  0  0  0  0  0
  -16.7674   40.3560   30.7064 O   0  0  0  0  0  0  0  0  0  0  0  0
  -18.5639   41.4700   31.4014 N   0  0  0  0  0  0  0  0  0  0  0  0
  -19.5320   41.6346   31.3306 H   0  0  0  0  0  0  0  0  0  0  0  0
  -17.7315   42.2492   32.3277 C   0  0  0  0  0  0  0  0  0  0  0  0
  -18.1580   41.9662   33.7648 C   0  0  0  0  0  0  0  0  0  0  0  0
  -19.1561   41.2946   34.0115 O   0  0  0  0  0  0  0  0  0  0  0  0
  -17.3691   42.4706   34.7229 N   0  0  0  0  0  0  0  0  0  0  0  0
  -16.5782   43.0038   34.4792 H   0  0  0  0  0  0  0  0  0  0  0  0
  -17.5802   42.3080   35.6706 H   0  0  0  0  0  0  0  0  0  0  0  0
  -17.7975   43.7384   32.0182 C   0  0  0  0  0  0  0  0  0  0  0  0
  -16.5846   44.3307   31.3201 C   0  0  0  0  0  0  0  0  0  0  0  0
  -16.0843   43.7982   30.1481 C   0  0  0  0  0  0  0  0  0  0  0  0
  -15.9448   45.4361   31.8637 C   0  0  0  0  0  0  0  0  0  0  0  0
  -14.9791   44.3385   29.5339 C   0  0  0  0  0  0  0  0  0  0  0  0
  -14.8363   45.9886   31.2451 C   0  0  0  0  0  0  0  0  0  0  0  0
  -14.3468   45.4477   30.0732 C   0  0  0  0  0  0  0  0  0  0  0  0
  -18.5525   39.8659   28.2928 C   0  0  0  0  0  0  0  0  0  0  0  0
  -18.0698   41.2556   27.9092 C   0  0  0  0  0  0  0  0  0  0  0  0
  -19.1877   42.0351   27.2341 C   0  0  0  0  0  0  0  0  0  0  0  0
  -19.1201   43.2798   27.1692 O   0  0  0  0  0  0  0  0  0  0  0  0
  -20.0855   41.3872   26.6542 O   0  0  0  0  0  0  0  0  0  0  0  0
  -20.1080   40.4530   26.7230 H   0  0  0  0  0  0  0  0  0  0  0  0
  -23.3816   39.3576   28.8574 N   0  0  0  0  0  0  0  0  0  0  0  0
  -24.2304   39.9142   28.9582 H   0  0  0  0  0  0  0  0  0  0  0  0
  -22.6599   39.8447   27.6784 C   0  0  0  0  0  0  0  0  0  0  0  0
  -22.6038   38.7949   26.5532 C   0  0  0  0  0  0  0  0  0  0  0  0
  -22.0850   37.5706   27.0671 O   0  0  0  0  0  0  0  0  0  0  0  0
  -22.6686   37.2410   27.7683 H   0  0  0  0  0  0  0  0  0  0  0  0
  -24.0082   38.5214   25.9818 C   0  0  0  0  0  0  0  0  0  0  0  0
  -22.3426   37.1687   24.0088 O   0  0  0  0  0  0  0  0  0  0  0  0
  -23.2310   37.9389   23.7000 C   0  0  0  0  0  0  0  0  0  0  0  0
  -24.0481   38.6335   24.5307 N   0  0  0  0  0  0  0  0  0  0  0  0
  -24.7048   39.2478   24.1300 H   0  0  0  0  0  0  0  0  0  0  0  0
  -23.4795   38.3321   22.4246 O   0  0  0  0  0  0  0  0  0  0  0  0
  -22.4684   39.1551   21.7428 C   0  0  0  0  0  0  0  0  0  0  0  0
  -22.1542   38.4864   20.4169 C   0  0  0  0  0  0  0  0  0  0  0  0
  -21.2450   39.2009   22.6496 C   0  0  0  0  0  0  0  0  0  0  0  0
  -23.0957   40.5288   21.5576 C   0  0  0  0  0  0  0  0  0  0  0  0
  -24.4928   37.1291   26.4025 C   0  0  0  0  0  0  0  0  0  0  0  0
  -25.9704   37.0762   26.7382 C   0  0  0  0  0  0  0  0  0  0  0  0
  -26.8492   36.3423   25.9635 C   0  0  0  0  0  0  0  0  0  0  0  0
  -26.4630   37.7744   27.8309 C   0  0  0  0  0  0  0  0  0  0  0  0
  -28.1981   36.3074   26.2654 C   0  0  0  0  0  0  0  0  0  0  0  0
  -27.8124   37.7519   28.1367 C   0  0  0  0  0  0  0  0  0  0  0  0
  -28.6807   37.0112   27.3524 C   0  0  0  0  0  0  0  0  0  0  0  0
  -23.2729   38.5334   31.1936 C   0  0  0  0  0  0  0  0  0  0  0  0
  -22.8679   39.0335   32.5782 C   0  0  0  0  0  0  0  0  0  0  0  0
  -22.3368   38.1418   33.4971 C   0  0  0  0  0  0  0  0  0  0  0  0
  -23.0356   40.3548   32.9441 C   0  0  0  0  0  0  0  0  0  0  0  0
  -21.9713   38.5578   34.7631 C   0  0  0  0  0  0  0  0  0  0  0  0
  -22.6662   40.7861   34.2004 C   0  0  0  0  0  0  0  0  0  0  0  0
  -22.1460   39.8849   35.1133 C   0  0  0  0  0  0  0  0  0  0  0  0
 37 38  2  0  0  0
 38 41  1  0  0  0
 41 42  1  0  0  0
 42 43  1  0  0  0
 42 44  1  0  0  0
 42 45  1  0  0  0
 30  1  1  0  0  0
  1  2  1  0  0  0
  1 53  1  0  0  0
  2  3  2  0  0  0
 53 54  1  0  0  0
 54 55  2  0  0  0
 54 56  1  0  0  0
 55 57  1  0  0  0
 56 58  2  0  0  0
 57 59  2  0  0  0
 58 59  1  0  0  0
 39 36  1  0  0  0
 36 33  1  0  0  0
 36 46  1  0  0  0
 33 34  1  0  0  0
 33 32  1  0  0  0
 46 47  1  0  0  0
 47 48  2  0  0  0
 47 49  1  0  0  0
 48 50  1  0  0  0
 49 51  2  0  0  0
 50 52  2  0  0  0
 51 52  1  0  0  0
  4  6  1  0  0  0
  6  7  1  0  0  0
  6 24  1  0  0  0
  7  8  2  0  0  0
 24 25  1  0  0  0
 25 26  1  0  0  0
 26 27  2  0  0  0
 26 28  1  0  0  0
  9 11  1  0  0  0
 11 12  1  0  0  0
 11 17  1  0  0  0
 12 13  2  0  0  0
 17 18  1  0  0  0
 18 19  2  0  0  0
 18 20  1  0  0  0
 19 21  1  0  0  0
 20 22  2  0  0  0
 21 23  2  0  0  0
 22 23  1  0  0  0
 38 39  1  0  0  0
 32 30  1  0  0  0
  2  4  1  0  0  0
  7  9  1  0  0  0
 12 14  1  0  0  0
 39 40  1  0  0  0
 34 35  1  0  0  0
 30 31  1  0  0  0
  4  5  1  0  0  0
 28 29  1  0  0  0
  9 10  1  0  0  0
 14 15  1  0  0  0
 14 16  1  0  0  0
M  END
> <minimizedAffinity>
-9.25977

$$$$
