4GID_0GH_A_501


 52 54  0  0  0  0  0  0  0  0999 V2000
   45.3841   -2.6252   11.2827 N   0  0  0  0  0  0  0  0  0  0  0  0
   44.1997   -2.6736   10.6562 C   0  0  0  0  0  0  0  0  0  0  0  0
   44.0493   -2.2916    9.4970 O   0  0  0  0  0  0  0  0  0  0  0  0
   45.4699   -2.9928   12.1920 H   0  0  0  0  0  0  0  0  0  0  0  0
   43.1498   -3.1981   11.4059 C   0  0  0  0  0  0  0  0  0  0  0  0
   42.3986   -2.3161   12.1749 C   0  0  0  0  0  0  0  0  0  0  0  0
   42.6783   -4.4931   11.2020 C   0  0  0  0  0  0  0  0  0  0  0  0
   41.4873   -4.9283   11.7825 C   0  0  0  0  0  0  0  0  0  0  0  0
   40.7338   -4.0142   12.5117 C   0  0  0  0  0  0  0  0  0  0  0  0
   41.1847   -2.7148   12.7227 C   0  0  0  0  0  0  0  0  0  0  0  0
   40.5020   -1.8774   13.5971 C   0  0  0  0  0  0  0  0  0  0  0  0
   40.7568   -0.6745   13.6369 O   0  0  0  0  0  0  0  0  0  0  0  0
   39.6973   -2.4758   14.4870 N   0  0  0  0  0  0  0  0  0  0  0  0
   39.6173   -3.4570   14.4887 H   0  0  0  0  0  0  0  0  0  0  0  0
   38.9327   -1.6817   15.4607 C   0  0  0  0  0  0  0  0  0  0  0  0
   39.6809   -1.6283   16.7945 C   0  0  0  0  0  0  0  0  0  0  0  0
   37.6443   -2.1800   15.6418 C   0  0  0  0  0  0  0  0  0  0  0  0
   36.8731   -1.7132   16.6993 C   0  0  0  0  0  0  0  0  0  0  0  0
   35.5334   -2.0782   16.8152 C   0  0  0  0  0  0  0  0  0  0  0  0
   34.9563   -2.9154   15.8671 C   0  0  0  0  0  0  0  0  0  0  0  0
   35.7271   -3.3914   14.8095 C   0  0  0  0  0  0  0  0  0  0  0  0
   37.0673   -3.0323   14.7038 C   0  0  0  0  0  0  0  0  0  0  0  0
   40.9291   -6.0922   11.4404 N   0  0  0  0  0  0  0  0  0  0  0  0
   39.4934   -6.1665   11.7498 C   0  0  0  0  0  0  0  0  0  0  0  0
   41.2209   -6.6295    9.9141 S   0  0  0  0  0  0  0  0  0  0  0  0
   41.3802   -5.4469    8.9582 O   0  0  0  0  0  0  0  0  0  0  0  0
   42.4867   -7.4891    9.8663 O   0  0  0  0  0  0  0  0  0  0  0  0
   39.8403   -7.6236    9.3865 C   0  0  0  0  0  0  0  0  0  0  0  0
   46.5558   -2.0286   10.6252 C   0  0  0  0  0  0  0  0  0  0  0  0
   47.4607   -1.3974   11.6889 C   0  0  0  0  0  0  0  0  0  0  0  0
   47.0952   -0.0838   11.9782 C   0  0  0  0  0  0  0  0  0  0  0  0
   46.0515    0.5248   11.2885 C   0  0  0  0  0  0  0  0  0  0  0  0
   45.7222    1.8557   11.5280 C   0  0  0  0  0  0  0  0  0  0  0  0
   46.4431    2.5956   12.4588 C   0  0  0  0  0  0  0  0  0  0  0  0
   47.4900    1.9904   13.1458 C   0  0  0  0  0  0  0  0  0  0  0  0
   47.8094    0.6569   12.9147 C   0  0  0  0  0  0  0  0  0  0  0  0
   47.3474   -3.0327    9.7813 C   0  0  0  0  0  0  0  0  0  0  0  0
   48.6580   -2.5205    9.3509 N   0  0  0  0  0  0  0  0  0  0  0  0
   48.8252   -1.6144    9.7885 H   0  0  0  0  0  0  0  0  0  0  0  0
   49.7262   -3.4533    9.7436 C   0  0  0  0  0  0  0  0  0  0  0  0
   51.3856   -1.6081   10.0598 N   0  0  0  0  0  0  0  0  0  0  0  0
   50.8174   -2.8368   10.6366 C   0  0  0  0  0  0  0  0  0  0  0  0
   50.8194   -3.0101   11.8581 O   0  0  0  0  0  0  0  0  0  0  0  0
   51.1580   -1.2393    9.1759 H   0  0  0  0  0  0  0  0  0  0  0  0
   52.3466   -1.0134   11.0050 C   0  0  0  0  0  0  0  0  0  0  0  0
   53.9177   -1.3224    9.0896 C   0  0  0  0  0  0  0  0  0  0  0  0
   53.5425   -0.4161   10.2614 C   0  0  0  0  0  0  0  0  0  0  0  0
   53.2530    0.9930    9.7360 C   0  0  0  0  0  0  0  0  0  0  0  0
   50.3832   -4.0828    8.5061 C   0  0  0  0  0  0  0  0  0  0  0  0
   49.9681   -3.3825    7.2113 C   0  0  0  0  0  0  0  0  0  0  0  0
   51.8058   -4.1886    8.6404 O   0  0  0  0  0  0  0  0  0  0  0  0
   52.1914   -3.3009    8.7051 H   0  0  0  0  0  0  0  0  0  0  0  0
 21 20  2  0  0  0
 21 22  1  0  0  0
 20 19  1  0  0  0
 46 47  1  0  0  0
 22 17  2  0  0  0
 32 33  2  0  0  0
 32 31  1  0  0  0
 19 18  2  0  0  0
 30 31  1  0  0  0
 30 29  1  0  0  0
 47 48  1  0  0  0
 47 45  1  0  0  0
 37 29  1  0  0  0
 37 38  1  0  0  0
 17 18  1  0  0  0
 17 15  1  0  0  0
 33 34  1  0  0  0
 16 15  1  0  0  0
 31 36  2  0  0  0
 41 45  1  0  0  0
 41 42  1  0  0  0
 40 38  1  0  0  0
 40 42  1  0  0  0
 40 49  1  0  0  0
 29  1  1  0  0  0
 15 13  1  0  0  0
 42 43  2  0  0  0
  1  2  1  0  0  0
 49 51  1  0  0  0
 49 50  1  0  0  0
 34 35  2  0  0  0
 13 11  1  0  0  0
 36 35  1  0  0  0
  2  5  1  0  0  0
  2  3  2  0  0  0
  6  5  2  0  0  0
  6 10  1  0  0  0
 11 10  1  0  0  0
 11 12  2  0  0  0
  5  7  1  0  0  0
 10  9  2  0  0  0
  7  8  2  0  0  0
  9  8  1  0  0  0
 27 25  2  0  0  0
  8 23  1  0  0  0
 23 25  1  0  0  0
 23 24  1  0  0  0
 25 26  2  0  0  0
 25 28  1  0  0  0
 41 44  1  0  0  0
 51 52  1  0  0  0
 38 39  1  0  0  0
  1  4  1  0  0  0
 13 14  1  0  0  0
M  END
> <minimizedAffinity>
-9.46718

$$$$
4GID_0GH_A_501


 52 54  0  0  0  0  0  0  0  0999 V2000
   45.0386   -2.7127   11.0723 N   0  0  0  0  0  0  0  0  0  0  0  0
   43.8486   -2.9397   10.4977 C   0  0  0  0  0  0  0  0  0  0  0  0
   43.6478   -2.7548    9.2987 O   0  0  0  0  0  0  0  0  0  0  0  0
   45.1690   -2.9269   12.0243 H   0  0  0  0  0  0  0  0  0  0  0  0
   42.8547   -3.4116   11.3515 C   0  0  0  0  0  0  0  0  0  0  0  0
   42.2284   -2.4933   12.1869 C   0  0  0  0  0  0  0  0  0  0  0  0
   42.3026   -4.6820   11.2030 C   0  0  0  0  0  0  0  0  0  0  0  0
   41.1559   -5.0579   11.9020 C   0  0  0  0  0  0  0  0  0  0  0  0
   40.5248   -4.1075   12.6980 C   0  0  0  0  0  0  0  0  0  0  0  0
   41.0575   -2.8316   12.8557 C   0  0  0  0  0  0  0  0  0  0  0  0
   40.5074   -1.9612   13.7894 C   0  0  0  0  0  0  0  0  0  0  0  0
   40.7674   -0.7594   13.7519 O   0  0  0  0  0  0  0  0  0  0  0  0
   39.8365   -2.5244   14.8043 N   0  0  0  0  0  0  0  0  0  0  0  0
   39.7559   -3.5045   14.8505 H   0  0  0  0  0  0  0  0  0  0  0  0
   39.2195   -1.6935   15.8493 C   0  0  0  0  0  0  0  0  0  0  0  0
   39.8303   -2.0280   17.2119 C   0  0  0  0  0  0  0  0  0  0  0  0
   37.8347   -1.8432   15.8836 C   0  0  0  0  0  0  0  0  0  0  0  0
   37.0913   -1.5927   14.7366 C   0  0  0  0  0  0  0  0  0  0  0  0
   35.7284   -1.8799   14.6982 C   0  0  0  0  0  0  0  0  0  0  0  0
   35.1007   -2.4233   15.8133 C   0  0  0  0  0  0  0  0  0  0  0  0
   35.8400   -2.6694   16.9673 C   0  0  0  0  0  0  0  0  0  0  0  0
   37.1988   -2.3714   17.0042 C   0  0  0  0  0  0  0  0  0  0  0  0
   40.5100   -6.1931   11.6239 N   0  0  0  0  0  0  0  0  0  0  0  0
   39.0479   -6.0758   11.7279 C   0  0  0  0  0  0  0  0  0  0  0  0
   40.9318   -6.9592   10.2315 S   0  0  0  0  0  0  0  0  0  0  0  0
   41.1401   -5.9413    9.1098 O   0  0  0  0  0  0  0  0  0  0  0  0
   42.2154   -7.7721   10.4181 O   0  0  0  0  0  0  0  0  0  0  0  0
   39.6181   -8.0713    9.7729 C   0  0  0  0  0  0  0  0  0  0  0  0
   46.1505   -2.1471   10.2945 C   0  0  0  0  0  0  0  0  0  0  0  0
   46.9917   -1.2456   11.2047 C   0  0  0  0  0  0  0  0  0  0  0  0
   46.3296   -0.0635   11.5317 C   0  0  0  0  0  0  0  0  0  0  0  0
   46.9557    0.9007   12.3151 C   0  0  0  0  0  0  0  0  0  0  0  0
   46.2784    2.0550   12.6976 C   0  0  0  0  0  0  0  0  0  0  0  0
   44.9594    2.2520   12.3044 C   0  0  0  0  0  0  0  0  0  0  0  0
   44.3301    1.2869   11.5253 C   0  0  0  0  0  0  0  0  0  0  0  0
   45.0122    0.1404   11.1331 C   0  0  0  0  0  0  0  0  0  0  0  0
   47.0328   -3.2163    9.6425 C   0  0  0  0  0  0  0  0  0  0  0  0
   48.3159   -2.6879    9.1529 N   0  0  0  0  0  0  0  0  0  0  0  0
   48.4656   -1.7562    9.5400 H   0  0  0  0  0  0  0  0  0  0  0  0
   49.4218   -3.5674    9.5636 C   0  0  0  0  0  0  0  0  0  0  0  0
   49.8189   -3.0249   11.9733 N   0  0  0  0  0  0  0  0  0  0  0  0
   50.3699   -2.9564   10.6106 C   0  0  0  0  0  0  0  0  0  0  0  0
   51.5905   -2.9317   10.4329 O   0  0  0  0  0  0  0  0  0  0  0  0
   48.9221   -3.3581   12.2058 H   0  0  0  0  0  0  0  0  0  0  0  0
   50.8120   -2.5197   12.9372 C   0  0  0  0  0  0  0  0  0  0  0  0
   50.0878   -0.2751   13.7555 C   0  0  0  0  0  0  0  0  0  0  0  0
   50.1276   -1.7678   14.0800 C   0  0  0  0  0  0  0  0  0  0  0  0
   48.7016   -2.2673   14.3300 C   0  0  0  0  0  0  0  0  0  0  0  0
   50.2403   -4.0202    8.3452 C   0  0  0  0  0  0  0  0  0  0  0  0
   49.6780   -5.2933    7.7112 C   0  0  0  0  0  0  0  0  0  0  0  0
   50.4228   -2.9669    7.3911 O   0  0  0  0  0  0  0  0  0  0  0  0
   49.5613   -2.7039    7.0311 H   0  0  0  0  0  0  0  0  0  0  0  0
 21 20  2  0  0  0
 21 22  1  0  0  0
 20 19  1  0  0  0
 46 47  1  0  0  0
 22 17  2  0  0  0
 32 33  2  0  0  0
 32 31  1  0  0  0
 19 18  2  0  0  0
 30 31  1  0  0  0
 30 29  1  0  0  0
 47 48  1  0  0  0
 47 45  1  0  0  0
 37 29  1  0  0  0
 37 38  1  0  0  0
 17 18  1  0  0  0
 17 15  1  0  0  0
 33 34  1  0  0  0
 16 15  1  0  0  0
 31 36  2  0  0  0
 41 45  1  0  0  0
 41 42  1  0  0  0
 40 38  1  0  0  0
 40 42  1  0  0  0
 40 49  1  0  0  0
 29  1  1  0  0  0
 15 13  1  0  0  0
 42 43  2  0  0  0
  1  2  1  0  0  0
 49 51  1  0  0  0
 49 50  1  0  0  0
 34 35  2  0  0  0
 13 11  1  0  0  0
 36 35  1  0  0  0
  2  5  1  0  0  0
  2  3  2  0  0  0
  6  5  2  0  0  0
  6 10  1  0  0  0
 11 10  1  0  0  0
 11 12  2  0  0  0
  5  7  1  0  0  0
 10  9  2  0  0  0
  7  8  2  0  0  0
  9  8  1  0  0  0
 27 25  2  0  0  0
  8 23  1  0  0  0
 23 25  1  0  0  0
 23 24  1  0  0  0
 25 26  2  0  0  0
 25 28  1  0  0  0
 41 44  1  0  0  0
 51 52  1  0  0  0
 38 39  1  0  0  0
  1  4  1  0  0  0
 13 14  1  0  0  0
M  END
> <minimizedAffinity>
-9.37808

$$$$
4GID_0GH_A_501


 52 54  0  0  0  0  0  0  0  0999 V2000
   37.3818   -5.5063   11.5477 N   0  0  0  0  0  0  0  0  0  0  0  0
   37.3103   -4.5794   12.5138 C   0  0  0  0  0  0  0  0  0  0  0  0
   36.2833   -4.3747   13.1584 O   0  0  0  0  0  0  0  0  0  0  0  0
   38.2400   -5.6736   11.0952 H   0  0  0  0  0  0  0  0  0  0  0  0
   38.4854   -3.8689   12.7463 C   0  0  0  0  0  0  0  0  0  0  0  0
   38.5121   -2.9974   13.8294 C   0  0  0  0  0  0  0  0  0  0  0  0
   39.6799   -4.1987   12.1098 C   0  0  0  0  0  0  0  0  0  0  0  0
   40.8929   -3.6446   12.5175 C   0  0  0  0  0  0  0  0  0  0  0  0
   40.8982   -2.8090   13.6297 C   0  0  0  0  0  0  0  0  0  0  0  0
   39.7166   -2.4713   14.2825 C   0  0  0  0  0  0  0  0  0  0  0  0
   39.7271   -1.5009   15.2775 C   0  0  0  0  0  0  0  0  0  0  0  0
   40.4344   -0.5005   15.1667 O   0  0  0  0  0  0  0  0  0  0  0  0
   39.0706   -1.8006   16.4074 N   0  0  0  0  0  0  0  0  0  0  0  0
   38.6149   -2.6694   16.4901 H   0  0  0  0  0  0  0  0  0  0  0  0
   39.0241   -0.8452   17.5246 C   0  0  0  0  0  0  0  0  0  0  0  0
   40.0474   -1.2387   18.5921 C   0  0  0  0  0  0  0  0  0  0  0  0
   37.7491   -0.7541   18.0789 C   0  0  0  0  0  0  0  0  0  0  0  0
   36.7013   -1.4633   17.5042 C   0  0  0  0  0  0  0  0  0  0  0  0
   35.4542   -1.5123   18.1237 C   0  0  0  0  0  0  0  0  0  0  0  0
   35.2497   -0.8491   19.3283 C   0  0  0  0  0  0  0  0  0  0  0  0
   36.2946   -0.1312   19.9045 C   0  0  0  0  0  0  0  0  0  0  0  0
   37.5354   -0.0768   19.2768 C   0  0  0  0  0  0  0  0  0  0  0  0
   42.0589   -4.0963   12.0487 N   0  0  0  0  0  0  0  0  0  0  0  0
   41.9670   -5.4305   11.4374 C   0  0  0  0  0  0  0  0  0  0  0  0
   42.9109   -3.0744   11.0828 S   0  0  0  0  0  0  0  0  0  0  0  0
   42.4650   -1.6306   11.3163 O   0  0  0  0  0  0  0  0  0  0  0  0
   44.4135   -3.1868   11.3529 O   0  0  0  0  0  0  0  0  0  0  0  0
   42.6063   -3.5108    9.3829 C   0  0  0  0  0  0  0  0  0  0  0  0
   36.1912   -6.2754   11.1575 C   0  0  0  0  0  0  0  0  0  0  0  0
   36.5467   -7.1856    9.9769 C   0  0  0  0  0  0  0  0  0  0  0  0
   37.8794   -7.5927   10.0092 C   0  0  0  0  0  0  0  0  0  0  0  0
   38.7857   -7.1111    9.0699 C   0  0  0  0  0  0  0  0  0  0  0  0
   40.1027   -7.5612    9.0575 C   0  0  0  0  0  0  0  0  0  0  0  0
   40.5247   -8.5079    9.9844 C   0  0  0  0  0  0  0  0  0  0  0  0
   39.6189   -8.9942   10.9210 C   0  0  0  0  0  0  0  0  0  0  0  0
   38.3068   -8.5339   10.9404 C   0  0  0  0  0  0  0  0  0  0  0  0
   35.6052   -7.1004   12.3076 C   0  0  0  0  0  0  0  0  0  0  0  0
   34.3291   -6.5674   12.8104 N   0  0  0  0  0  0  0  0  0  0  0  0
   33.5589   -7.0928   12.3967 H   0  0  0  0  0  0  0  0  0  0  0  0
   34.2662   -6.6872   14.2757 C   0  0  0  0  0  0  0  0  0  0  0  0
   34.9283   -8.4567   15.9153 N   0  0  0  0  0  0  0  0  0  0  0  0
   34.0408   -8.1195   14.7912 C   0  0  0  0  0  0  0  0  0  0  0  0
   32.9479   -8.6793   14.6710 O   0  0  0  0  0  0  0  0  0  0  0  0
   35.6379   -7.8745   16.2714 H   0  0  0  0  0  0  0  0  0  0  0  0
   34.5948   -9.7973   16.4275 C   0  0  0  0  0  0  0  0  0  0  0  0
   36.9230  -10.6898   16.3057 C   0  0  0  0  0  0  0  0  0  0  0  0
   35.4933  -10.8609   15.7941 C   0  0  0  0  0  0  0  0  0  0  0  0
   35.0143  -12.2824   16.1028 C   0  0  0  0  0  0  0  0  0  0  0  0
   33.1802   -5.7666   14.8523 C   0  0  0  0  0  0  0  0  0  0  0  0
   33.7631   -4.6795   15.7563 C   0  0  0  0  0  0  0  0  0  0  0  0
   32.3238   -5.2328   13.8350 O   0  0  0  0  0  0  0  0  0  0  0  0
   32.8415   -4.6681   13.2400 H   0  0  0  0  0  0  0  0  0  0  0  0
 21 20  2  0  0  0
 21 22  1  0  0  0
 20 19  1  0  0  0
 46 47  1  0  0  0
 22 17  2  0  0  0
 32 33  2  0  0  0
 32 31  1  0  0  0
 19 18  2  0  0  0
 30 31  1  0  0  0
 30 29  1  0  0  0
 47 48  1  0  0  0
 47 45  1  0  0  0
 37 29  1  0  0  0
 37 38  1  0  0  0
 17 18  1  0  0  0
 17 15  1  0  0  0
 33 34  1  0  0  0
 16 15  1  0  0  0
 31 36  2  0  0  0
 41 45  1  0  0  0
 41 42  1  0  0  0
 40 38  1  0  0  0
 40 42  1  0  0  0
 40 49  1  0  0  0
 29  1  1  0  0  0
 15 13  1  0  0  0
 42 43  2  0  0  0
  1  2  1  0  0  0
 49 51  1  0  0  0
 49 50  1  0  0  0
 34 35  2  0  0  0
 13 11  1  0  0  0
 36 35  1  0  0  0
  2  5  1  0  0  0
  2  3  2  0  0  0
  6  5  2  0  0  0
  6 10  1  0  0  0
 11 10  1  0  0  0
 11 12  2  0  0  0
  5  7  1  0  0  0
 10  9  2  0  0  0
  7  8  2  0  0  0
  9  8  1  0  0  0
 27 25  2  0  0  0
  8 23  1  0  0  0
 23 25  1  0  0  0
 23 24  1  0  0  0
 25 26  2  0  0  0
 25 28  1  0  0  0
 41 44  1  0  0  0
 51 52  1  0  0  0
 38 39  1  0  0  0
  1  4  1  0  0  0
 13 14  1  0  0  0
M  END
> <minimizedAffinity>
-9.25809

$$$$
4GID_0GH_A_501


 52 54  0  0  0  0  0  0  0  0999 V2000
   39.2427   -2.9419   14.0976 N   0  0  0  0  0  0  0  0  0  0  0  0
   40.2268   -2.2864   13.4654 C   0  0  0  0  0  0  0  0  0  0  0  0
   40.5446   -1.1340   13.7536 O   0  0  0  0  0  0  0  0  0  0  0  0
   39.0592   -3.8822   13.8709 H   0  0  0  0  0  0  0  0  0  0  0  0
   40.8746   -3.0055   12.4640 C   0  0  0  0  0  0  0  0  0  0  0  0
   42.0487   -2.4749   11.9412 C   0  0  0  0  0  0  0  0  0  0  0  0
   40.5374   -4.3258   12.1740 C   0  0  0  0  0  0  0  0  0  0  0  0
   41.3372   -5.1102   11.3435 C   0  0  0  0  0  0  0  0  0  0  0  0
   42.5275   -4.5696   10.8681 C   0  0  0  0  0  0  0  0  0  0  0  0
   42.8848   -3.2547   11.1504 C   0  0  0  0  0  0  0  0  0  0  0  0
   43.9865   -2.6855   10.5224 C   0  0  0  0  0  0  0  0  0  0  0  0
   43.9787   -2.4843    9.3088 O   0  0  0  0  0  0  0  0  0  0  0  0
   45.0873   -2.5360   11.2730 N   0  0  0  0  0  0  0  0  0  0  0  0
   45.0772   -2.8224   12.2149 H   0  0  0  0  0  0  0  0  0  0  0  0
   46.3098   -1.9486   10.7041 C   0  0  0  0  0  0  0  0  0  0  0  0
   47.4674   -2.9434   10.8125 C   0  0  0  0  0  0  0  0  0  0  0  0
   46.6420   -0.7424   11.3174 C   0  0  0  0  0  0  0  0  0  0  0  0
   45.9998    0.4250   10.9227 C   0  0  0  0  0  0  0  0  0  0  0  0
   46.2000    1.6148   11.6196 C   0  0  0  0  0  0  0  0  0  0  0  0
   47.0474    1.6411   12.7214 C   0  0  0  0  0  0  0  0  0  0  0  0
   47.6987    0.4754   13.1163 C   0  0  0  0  0  0  0  0  0  0  0  0
   47.5035   -0.7081   12.4109 C   0  0  0  0  0  0  0  0  0  0  0  0
   41.1325   -6.4236   11.2155 N   0  0  0  0  0  0  0  0  0  0  0  0
   39.9004   -6.8907   11.8682 C   0  0  0  0  0  0  0  0  0  0  0  0
   41.2548   -7.0443    9.6979 S   0  0  0  0  0  0  0  0  0  0  0  0
   40.8347   -5.9997    8.6635 O   0  0  0  0  0  0  0  0  0  0  0  0
   42.6870   -7.4972    9.4026 O   0  0  0  0  0  0  0  0  0  0  0  0
   40.1764   -8.4564    9.5715 C   0  0  0  0  0  0  0  0  0  0  0  0
   38.4352   -2.2702   15.1261 C   0  0  0  0  0  0  0  0  0  0  0  0
   39.3328   -1.3223   15.9288 C   0  0  0  0  0  0  0  0  0  0  0  0
   39.4503   -1.7119   17.2620 C   0  0  0  0  0  0  0  0  0  0  0  0
   39.4357   -0.7608   18.2773 C   0  0  0  0  0  0  0  0  0  0  0  0
   39.6155   -1.1366   19.6054 C   0  0  0  0  0  0  0  0  0  0  0  0
   39.8202   -2.4730   19.9302 C   0  0  0  0  0  0  0  0  0  0  0  0
   39.8400   -3.4245   18.9162 C   0  0  0  0  0  0  0  0  0  0  0  0
   39.6474   -3.0492   17.5911 C   0  0  0  0  0  0  0  0  0  0  0  0
   37.2390   -1.5077   14.5478 C   0  0  0  0  0  0  0  0  0  0  0  0
   36.2977   -1.0405   15.5779 N   0  0  0  0  0  0  0  0  0  0  0  0
   35.4641   -0.6646   15.1261 H   0  0  0  0  0  0  0  0  0  0  0  0
   35.9114   -2.1527   16.4606 C   0  0  0  0  0  0  0  0  0  0  0  0
   35.0901   -4.4165   15.7833 N   0  0  0  0  0  0  0  0  0  0  0  0
   34.7332   -2.9982   15.9457 C   0  0  0  0  0  0  0  0  0  0  0  0
   33.5645   -2.6717   16.1684 O   0  0  0  0  0  0  0  0  0  0  0  0
   35.9894   -4.7935   15.9183 H   0  0  0  0  0  0  0  0  0  0  0  0
   33.8981   -5.1870   15.3880 C   0  0  0  0  0  0  0  0  0  0  0  0
   33.1153   -7.5541   15.2615 C   0  0  0  0  0  0  0  0  0  0  0  0
   34.2816   -6.6091   14.9755 C   0  0  0  0  0  0  0  0  0  0  0  0
   34.6533   -6.7018   13.4927 C   0  0  0  0  0  0  0  0  0  0  0  0
   35.5867   -1.6415   17.8722 C   0  0  0  0  0  0  0  0  0  0  0  0
   36.1644   -2.5456   18.9622 C   0  0  0  0  0  0  0  0  0  0  0  0
   35.9510   -0.2671   18.0498 O   0  0  0  0  0  0  0  0  0  0  0  0
   36.9127   -0.1738   17.9641 H   0  0  0  0  0  0  0  0  0  0  0  0
 21 20  2  0  0  0
 21 22  1  0  0  0
 20 19  1  0  0  0
 46 47  1  0  0  0
 22 17  2  0  0  0
 32 33  2  0  0  0
 32 31  1  0  0  0
 19 18  2  0  0  0
 30 31  1  0  0  0
 30 29  1  0  0  0
 47 48  1  0  0  0
 47 45  1  0  0  0
 37 29  1  0  0  0
 37 38  1  0  0  0
 17 18  1  0  0  0
 17 15  1  0  0  0
 33 34  1  0  0  0
 16 15  1  0  0  0
 31 36  2  0  0  0
 41 45  1  0  0  0
 41 42  1  0  0  0
 40 38  1  0  0  0
 40 42  1  0  0  0
 40 49  1  0  0  0
 29  1  1  0  0  0
 15 13  1  0  0  0
 42 43  2  0  0  0
  1  2  1  0  0  0
 49 51  1  0  0  0
 49 50  1  0  0  0
 34 35  2  0  0  0
 13 11  1  0  0  0
 36 35  1  0  0  0
  2  5  1  0  0  0
  2  3  2  0  0  0
  6  5  2  0  0  0
  6 10  1  0  0  0
 11 10  1  0  0  0
 11 12  2  0  0  0
  5  7  1  0  0  0
 10  9  2  0  0  0
  7  8  2  0  0  0
  9  8  1  0  0  0
 27 25  2  0  0  0
  8 23  1  0  0  0
 23 25  1  0  0  0
 23 24  1  0  0  0
 25 26  2  0  0  0
 25 28  1  0  0  0
 41 44  1  0  0  0
 51 52  1  0  0  0
 38 39  1  0  0  0
  1  4  1  0  0  0
 13 14  1  0  0  0
M  END
> <minimizedAffinity>
-9.20642

$$$$
4GID_0GH_A_501


 52 54  0  0  0  0  0  0  0  0999 V2000
   38.7686   -3.5094   13.5615 N   0  0  0  0  0  0  0  0  0  0  0  0
   40.0767   -3.2411   13.4404 C   0  0  0  0  0  0  0  0  0  0  0  0
   40.6824   -2.5309   14.2409 O   0  0  0  0  0  0  0  0  0  0  0  0
   38.3371   -4.1276   12.9282 H   0  0  0  0  0  0  0  0  0  0  0  0
   40.7079   -3.8326   12.3489 C   0  0  0  0  0  0  0  0  0  0  0  0
   41.8544   -3.2212   11.8537 C   0  0  0  0  0  0  0  0  0  0  0  0
   40.3889   -5.1215   11.9271 C   0  0  0  0  0  0  0  0  0  0  0  0
   41.1786   -5.7927   10.9940 C   0  0  0  0  0  0  0  0  0  0  0  0
   42.3425   -5.1761   10.5465 C   0  0  0  0  0  0  0  0  0  0  0  0
   42.6815   -3.8913   10.9596 C   0  0  0  0  0  0  0  0  0  0  0  0
   43.7516   -3.2320   10.3661 C   0  0  0  0  0  0  0  0  0  0  0  0
   44.0314   -3.4326    9.1851 O   0  0  0  0  0  0  0  0  0  0  0  0
   44.5386   -2.5191   11.1846 N   0  0  0  0  0  0  0  0  0  0  0  0
   44.3363   -2.4853   12.1475 H   0  0  0  0  0  0  0  0  0  0  0  0
   45.7011   -1.7872   10.6591 C   0  0  0  0  0  0  0  0  0  0  0  0
   46.9897   -2.5396   10.9979 C   0  0  0  0  0  0  0  0  0  0  0  0
   45.7556   -0.4812   11.1416 C   0  0  0  0  0  0  0  0  0  0  0  0
   44.5878    0.2678   11.2207 C   0  0  0  0  0  0  0  0  0  0  0  0
   44.5869    1.5167   11.8385 C   0  0  0  0  0  0  0  0  0  0  0  0
   45.7610    2.0233   12.3841 C   0  0  0  0  0  0  0  0  0  0  0  0
   46.9352    1.2796   12.3009 C   0  0  0  0  0  0  0  0  0  0  0  0
   46.9333    0.0373   11.6738 C   0  0  0  0  0  0  0  0  0  0  0  0
   40.9968   -7.0891   10.7301 N   0  0  0  0  0  0  0  0  0  0  0  0
   40.3903   -7.8340   11.8434 C   0  0  0  0  0  0  0  0  0  0  0  0
   40.2482   -7.4550    9.3127 S   0  0  0  0  0  0  0  0  0  0  0  0
   40.6506   -6.4551    8.2282 O   0  0  0  0  0  0  0  0  0  0  0  0
   40.6066   -8.8698    8.8507 O   0  0  0  0  0  0  0  0  0  0  0  0
   38.4863   -7.3688    9.5603 C   0  0  0  0  0  0  0  0  0  0  0  0
   37.9724   -2.8896   14.6306 C   0  0  0  0  0  0  0  0  0  0  0  0
   38.4733   -1.4602   14.8646 C   0  0  0  0  0  0  0  0  0  0  0  0
   38.4042   -1.0918   16.2071 C   0  0  0  0  0  0  0  0  0  0  0  0
   37.3194   -0.3613   16.6818 C   0  0  0  0  0  0  0  0  0  0  0  0
   37.2740    0.0638   18.0063 C   0  0  0  0  0  0  0  0  0  0  0  0
   38.3225   -0.2328   18.8701 C   0  0  0  0  0  0  0  0  0  0  0  0
   39.4100   -0.9587   18.3962 C   0  0  0  0  0  0  0  0  0  0  0  0
   39.4480   -1.3938   17.0760 C   0  0  0  0  0  0  0  0  0  0  0  0
   36.4694   -2.8847   14.3346 C   0  0  0  0  0  0  0  0  0  0  0  0
   35.7168   -3.8552   15.1453 N   0  0  0  0  0  0  0  0  0  0  0  0
   36.3502   -4.3027   15.8078 H   0  0  0  0  0  0  0  0  0  0  0  0
   34.6398   -3.1784   15.8851 C   0  0  0  0  0  0  0  0  0  0  0  0
   36.1996   -3.5782   17.7997 N   0  0  0  0  0  0  0  0  0  0  0  0
   34.8837   -3.0552   17.3995 C   0  0  0  0  0  0  0  0  0  0  0  0
   34.3335   -2.1761   18.0678 O   0  0  0  0  0  0  0  0  0  0  0  0
   36.8404   -4.0208   17.1974 H   0  0  0  0  0  0  0  0  0  0  0  0
   36.4133   -3.3393   19.2377 C   0  0  0  0  0  0  0  0  0  0  0  0
   36.6287   -5.8079   19.5405 C   0  0  0  0  0  0  0  0  0  0  0  0
   37.2617   -4.4528   19.8541 C   0  0  0  0  0  0  0  0  0  0  0  0
   38.7026   -4.4376   19.3357 C   0  0  0  0  0  0  0  0  0  0  0  0
   33.2921   -3.8756   15.6461 C   0  0  0  0  0  0  0  0  0  0  0  0
   33.1434   -5.1489   16.4801 C   0  0  0  0  0  0  0  0  0  0  0  0
   32.1826   -2.9830   15.8056 O   0  0  0  0  0  0  0  0  0  0  0  0
   32.1458   -2.6737   16.7242 H   0  0  0  0  0  0  0  0  0  0  0  0
 21 20  2  0  0  0
 21 22  1  0  0  0
 20 19  1  0  0  0
 46 47  1  0  0  0
 22 17  2  0  0  0
 32 33  2  0  0  0
 32 31  1  0  0  0
 19 18  2  0  0  0
 30 31  1  0  0  0
 30 29  1  0  0  0
 47 48  1  0  0  0
 47 45  1  0  0  0
 37 29  1  0  0  0
 37 38  1  0  0  0
 17 18  1  0  0  0
 17 15  1  0  0  0
 33 34  1  0  0  0
 16 15  1  0  0  0
 31 36  2  0  0  0
 41 45  1  0  0  0
 41 42  1  0  0  0
 40 38  1  0  0  0
 40 42  1  0  0  0
 40 49  1  0  0  0
 29  1  1  0  0  0
 15 13  1  0  0  0
 42 43  2  0  0  0
  1  2  1  0  0  0
 49 51  1  0  0  0
 49 50  1  0  0  0
 34 35  2  0  0  0
 13 11  1  0  0  0
 36 35  1  0  0  0
  2  5  1  0  0  0
  2  3  2  0  0  0
  6  5  2  0  0  0
  6 10  1  0  0  0
 11 10  1  0  0  0
 11 12  2  0  0  0
  5  7  1  0  0  0
 10  9  2  0  0  0
  7  8  2  0  0  0
  9  8  1  0  0  0
 27 25  2  0  0  0
  8 23  1  0  0  0
 23 25  1  0  0  0
 23 24  1  0  0  0
 25 26  2  0  0  0
 25 28  1  0  0  0
 41 44  1  0  0  0
 51 52  1  0  0  0
 38 39  1  0  0  0
  1  4  1  0  0  0
 13 14  1  0  0  0
M  END
> <minimizedAffinity>
-9.19647

$$$$
4GID_0GH_A_501


 52 54  0  0  0  0  0  0  0  0999 V2000
   45.3076   -2.6910   11.4805 N   0  0  0  0  0  0  0  0  0  0  0  0
   44.1669   -2.8191   10.7876 C   0  0  0  0  0  0  0  0  0  0  0  0
   44.0805   -2.5244    9.5969 O   0  0  0  0  0  0  0  0  0  0  0  0
   45.3451   -2.9910   12.4175 H   0  0  0  0  0  0  0  0  0  0  0  0
   43.0855   -3.3212   11.5073 C   0  0  0  0  0  0  0  0  0  0  0  0
   42.3387   -2.4251   12.2642 C   0  0  0  0  0  0  0  0  0  0  0  0
   42.5858   -4.6020   11.2822 C   0  0  0  0  0  0  0  0  0  0  0  0
   41.3699   -5.0099   11.8299 C   0  0  0  0  0  0  0  0  0  0  0  0
   40.6226   -4.0815   12.5473 C   0  0  0  0  0  0  0  0  0  0  0  0
   41.1017   -2.7957   12.7790 C   0  0  0  0  0  0  0  0  0  0  0  0
   40.4195   -1.9468   13.6427 C   0  0  0  0  0  0  0  0  0  0  0  0
   40.6721   -0.7430   13.6641 O   0  0  0  0  0  0  0  0  0  0  0  0
   39.6181   -2.5335   14.5433 N   0  0  0  0  0  0  0  0  0  0  0  0
   39.5401   -3.5148   14.5597 H   0  0  0  0  0  0  0  0  0  0  0  0
   38.8545   -1.7266   15.5070 C   0  0  0  0  0  0  0  0  0  0  0  0
   39.5960   -1.6687   16.8443 C   0  0  0  0  0  0  0  0  0  0  0  0
   37.5614   -2.2140   15.6851 C   0  0  0  0  0  0  0  0  0  0  0  0
   36.7853   -1.7278   16.7303 C   0  0  0  0  0  0  0  0  0  0  0  0
   35.4424   -2.0825   16.8409 C   0  0  0  0  0  0  0  0  0  0  0  0
   34.8671   -2.9289   15.9000 C   0  0  0  0  0  0  0  0  0  0  0  0
   35.6427   -3.4244   14.8550 C   0  0  0  0  0  0  0  0  0  0  0  0
   36.9860   -3.0754   14.7546 C   0  0  0  0  0  0  0  0  0  0  0  0
   40.7902   -6.1564   11.4655 N   0  0  0  0  0  0  0  0  0  0  0  0
   39.3370   -6.1750   11.6893 C   0  0  0  0  0  0  0  0  0  0  0  0
   41.1520   -6.7209    9.9642 S   0  0  0  0  0  0  0  0  0  0  0  0
   41.3027   -5.5574    8.9836 O   0  0  0  0  0  0  0  0  0  0  0  0
   42.4476   -7.5361    9.9805 O   0  0  0  0  0  0  0  0  0  0  0  0
   39.8252   -7.7760    9.4173 C   0  0  0  0  0  0  0  0  0  0  0  0
   46.5029   -2.1070   10.8548 C   0  0  0  0  0  0  0  0  0  0  0  0
   46.8276   -2.8821    9.5732 C   0  0  0  0  0  0  0  0  0  0  0  0
   48.1957   -3.1042    9.4251 C   0  0  0  0  0  0  0  0  0  0  0  0
   48.9514   -2.3019    8.5761 C   0  0  0  0  0  0  0  0  0  0  0  0
   50.3048   -2.5571    8.3753 C   0  0  0  0  0  0  0  0  0  0  0  0
   50.9154   -3.6276    9.0192 C   0  0  0  0  0  0  0  0  0  0  0  0
   50.1605   -4.4338    9.8644 C   0  0  0  0  0  0  0  0  0  0  0  0
   48.8114   -4.1697   10.0741 C   0  0  0  0  0  0  0  0  0  0  0  0
   46.3522   -0.6134   10.5494 C   0  0  0  0  0  0  0  0  0  0  0  0
   45.6614    0.1285   11.6160 N   0  0  0  0  0  0  0  0  0  0  0  0
   45.3073   -0.5307   12.3091 H   0  0  0  0  0  0  0  0  0  0  0  0
   46.5874    1.0677   12.2685 C   0  0  0  0  0  0  0  0  0  0  0  0
   48.9163    0.3241   12.7987 N   0  0  0  0  0  0  0  0  0  0  0  0
   47.5347    0.4225   13.2954 C   0  0  0  0  0  0  0  0  0  0  0  0
   47.3120    0.4947   14.5067 O   0  0  0  0  0  0  0  0  0  0  0  0
   49.2123    0.5741   11.8937 H   0  0  0  0  0  0  0  0  0  0  0  0
   49.7899   -0.2052   13.8605 C   0  0  0  0  0  0  0  0  0  0  0  0
   49.2342   -2.6063   13.4626 C   0  0  0  0  0  0  0  0  0  0  0  0
   50.3576   -1.5703   13.4681 C   0  0  0  0  0  0  0  0  0  0  0  0
   51.0266   -1.5452   12.0907 C   0  0  0  0  0  0  0  0  0  0  0  0
   45.8174    2.2133   12.9426 C   0  0  0  0  0  0  0  0  0  0  0  0
   45.5058    3.3519   11.9703 C   0  0  0  0  0  0  0  0  0  0  0  0
   44.6524    1.7506   13.6367 O   0  0  0  0  0  0  0  0  0  0  0  0
   44.0276    1.3684   13.0007 H   0  0  0  0  0  0  0  0  0  0  0  0
 21 20  2  0  0  0
 21 22  1  0  0  0
 20 19  1  0  0  0
 46 47  1  0  0  0
 22 17  2  0  0  0
 32 33  2  0  0  0
 32 31  1  0  0  0
 19 18  2  0  0  0
 30 31  1  0  0  0
 30 29  1  0  0  0
 47 48  1  0  0  0
 47 45  1  0  0  0
 37 29  1  0  0  0
 37 38  1  0  0  0
 17 18  1  0  0  0
 17 15  1  0  0  0
 33 34  1  0  0  0
 16 15  1  0  0  0
 31 36  2  0  0  0
 41 45  1  0  0  0
 41 42  1  0  0  0
 40 38  1  0  0  0
 40 42  1  0  0  0
 40 49  1  0  0  0
 29  1  1  0  0  0
 15 13  1  0  0  0
 42 43  2  0  0  0
  1  2  1  0  0  0
 49 51  1  0  0  0
 49 50  1  0  0  0
 34 35  2  0  0  0
 13 11  1  0  0  0
 36 35  1  0  0  0
  2  5  1  0  0  0
  2  3  2  0  0  0
  6  5  2  0  0  0
  6 10  1  0  0  0
 11 10  1  0  0  0
 11 12  2  0  0  0
  5  7  1  0  0  0
 10  9  2  0  0  0
  7  8  2  0  0  0
  9  8  1  0  0  0
 27 25  2  0  0  0
  8 23  1  0  0  0
 23 25  1  0  0  0
 23 24  1  0  0  0
 25 26  2  0  0  0
 25 28  1  0  0  0
 41 44  1  0  0  0
 51 52  1  0  0  0
 38 39  1  0  0  0
  1  4  1  0  0  0
 13 14  1  0  0  0
M  END
> <minimizedAffinity>
-9.07572

$$$$
4GID_0GH_A_501


 52 54  0  0  0  0  0  0  0  0999 V2000
   48.8055   -1.7775   11.3033 N   0  0  0  0  0  0  0  0  0  0  0  0
   47.8293   -2.6299   10.9593 C   0  0  0  0  0  0  0  0  0  0  0  0
   48.0320   -3.8295   10.7810 O   0  0  0  0  0  0  0  0  0  0  0  0
   48.5871   -0.8357   11.4894 H   0  0  0  0  0  0  0  0  0  0  0  0
   46.5633   -2.0645   10.8280 C   0  0  0  0  0  0  0  0  0  0  0  0
   45.4655   -2.9170   10.8687 C   0  0  0  0  0  0  0  0  0  0  0  0
   46.3601   -0.6898   10.9265 C   0  0  0  0  0  0  0  0  0  0  0  0
   45.0766   -0.1546   11.0304 C   0  0  0  0  0  0  0  0  0  0  0  0
   43.9990   -1.0305   11.1118 C   0  0  0  0  0  0  0  0  0  0  0  0
   44.1812   -2.4070   11.0204 C   0  0  0  0  0  0  0  0  0  0  0  0
   43.0781   -3.2478   10.9284 C   0  0  0  0  0  0  0  0  0  0  0  0
   42.2737   -3.1239   10.0059 O   0  0  0  0  0  0  0  0  0  0  0  0
   42.8620   -4.0613   11.9718 N   0  0  0  0  0  0  0  0  0  0  0  0
   43.4745   -4.0386   12.7422 H   0  0  0  0  0  0  0  0  0  0  0  0
   41.7193   -4.9873   11.9777 C   0  0  0  0  0  0  0  0  0  0  0  0
   41.5775   -5.6516   10.6065 C   0  0  0  0  0  0  0  0  0  0  0  0
   40.5341   -4.3494   12.3375 C   0  0  0  0  0  0  0  0  0  0  0  0
   39.3223   -5.0046   12.1547 C   0  0  0  0  0  0  0  0  0  0  0  0
   38.1386   -4.4558   12.6437 C   0  0  0  0  0  0  0  0  0  0  0  0
   38.1631   -3.2429   13.3228 C   0  0  0  0  0  0  0  0  0  0  0  0
   39.3740   -2.5792   13.5021 C   0  0  0  0  0  0  0  0  0  0  0  0
   40.5521   -3.1263   13.0029 C   0  0  0  0  0  0  0  0  0  0  0  0
   44.8794    1.1341   11.3198 N   0  0  0  0  0  0  0  0  0  0  0  0
   43.5153    1.4282   11.7834 C   0  0  0  0  0  0  0  0  0  0  0  0
   45.9903    1.8482   12.2992 S   0  0  0  0  0  0  0  0  0  0  0  0
   45.8182    1.3606   13.7381 O   0  0  0  0  0  0  0  0  0  0  0  0
   47.4150    1.5408   11.8309 O   0  0  0  0  0  0  0  0  0  0  0  0
   45.7450    3.6117   12.2480 C   0  0  0  0  0  0  0  0  0  0  0  0
   50.1986   -2.2356   11.4055 C   0  0  0  0  0  0  0  0  0  0  0  0
   50.9301   -1.9122   10.0982 C   0  0  0  0  0  0  0  0  0  0  0  0
   50.7256   -2.8893    9.1253 C   0  0  0  0  0  0  0  0  0  0  0  0
   50.0773   -2.5735    7.9356 C   0  0  0  0  0  0  0  0  0  0  0  0
   49.8140   -3.5574    6.9870 C   0  0  0  0  0  0  0  0  0  0  0  0
   50.1917   -4.8742    7.2251 C   0  0  0  0  0  0  0  0  0  0  0  0
   50.8355   -5.1928    8.4160 C   0  0  0  0  0  0  0  0  0  0  0  0
   51.1094   -4.2064    9.3571 C   0  0  0  0  0  0  0  0  0  0  0  0
   50.9452   -1.6277   12.5971 C   0  0  0  0  0  0  0  0  0  0  0  0
   50.4878   -0.2706   12.9352 N   0  0  0  0  0  0  0  0  0  0  0  0
   49.6320   -0.0659   12.4194 H   0  0  0  0  0  0  0  0  0  0  0  0
   50.2213   -0.1649   14.3785 C   0  0  0  0  0  0  0  0  0  0  0  0
   49.0411   -1.2214   16.3148 N   0  0  0  0  0  0  0  0  0  0  0  0
   49.0048   -0.9721   14.8651 C   0  0  0  0  0  0  0  0  0  0  0  0
   47.9264   -0.9288   14.2674 O   0  0  0  0  0  0  0  0  0  0  0  0
   49.7796   -0.9689   16.9148 H   0  0  0  0  0  0  0  0  0  0  0  0
   47.8052   -1.9059   16.7327 C   0  0  0  0  0  0  0  0  0  0  0  0
   48.3945   -0.5985   18.7761 C   0  0  0  0  0  0  0  0  0  0  0  0
   47.2632   -1.3059   18.0312 C   0  0  0  0  0  0  0  0  0  0  0  0
   46.1263   -0.3113   17.7794 C   0  0  0  0  0  0  0  0  0  0  0  0
   50.0522    1.3035   14.7961 C   0  0  0  0  0  0  0  0  0  0  0  0
   51.2772    2.1495   14.4457 C   0  0  0  0  0  0  0  0  0  0  0  0
   48.8335    1.8723   14.3018 O   0  0  0  0  0  0  0  0  0  0  0  0
   48.8539    1.8879   13.3321 H   0  0  0  0  0  0  0  0  0  0  0  0
 21 20  2  0  0  0
 21 22  1  0  0  0
 20 19  1  0  0  0
 46 47  1  0  0  0
 22 17  2  0  0  0
 32 33  2  0  0  0
 32 31  1  0  0  0
 19 18  2  0  0  0
 30 31  1  0  0  0
 30 29  1  0  0  0
 47 48  1  0  0  0
 47 45  1  0  0  0
 37 29  1  0  0  0
 37 38  1  0  0  0
 17 18  1  0  0  0
 17 15  1  0  0  0
 33 34  1  0  0  0
 16 15  1  0  0  0
 31 36  2  0  0  0
 41 45  1  0  0  0
 41 42  1  0  0  0
 40 38  1  0  0  0
 40 42  1  0  0  0
 40 49  1  0  0  0
 29  1  1  0  0  0
 15 13  1  0  0  0
 42 43  2  0  0  0
  1  2  1  0  0  0
 49 51  1  0  0  0
 49 50  1  0  0  0
 34 35  2  0  0  0
 13 11  1  0  0  0
 36 35  1  0  0  0
  2  5  1  0  0  0
  2  3  2  0  0  0
  6  5  2  0  0  0
  6 10  1  0  0  0
 11 10  1  0  0  0
 11 12  2  0  0  0
  5  7  1  0  0  0
 10  9  2  0  0  0
  7  8  2  0  0  0
  9  8  1  0  0  0
 27 25  2  0  0  0
  8 23  1  0  0  0
 23 25  1  0  0  0
 23 24  1  0  0  0
 25 26  2  0  0  0
 25 28  1  0  0  0
 41 44  1  0  0  0
 51 52  1  0  0  0
 38 39  1  0  0  0
  1  4  1  0  0  0
 13 14  1  0  0  0
M  END
> <minimizedAffinity>
-8.97066

$$$$
4GID_0GH_A_501


 52 54  0  0  0  0  0  0  0  0999 V2000
   48.8584   -1.8913   11.6342 N   0  0  0  0  0  0  0  0  0  0  0  0
   47.8148   -2.6262   11.2236 C   0  0  0  0  0  0  0  0  0  0  0  0
   47.8779   -3.8470   11.0905 O   0  0  0  0  0  0  0  0  0  0  0  0
   48.7465   -0.9240   11.7794 H   0  0  0  0  0  0  0  0  0  0  0  0
   46.6468   -1.9120   10.9679 C   0  0  0  0  0  0  0  0  0  0  0  0
   45.4642   -2.6308   10.8325 C   0  0  0  0  0  0  0  0  0  0  0  0
   46.5879   -0.5274   11.1096 C   0  0  0  0  0  0  0  0  0  0  0  0
   45.3695    0.1506   11.0835 C   0  0  0  0  0  0  0  0  0  0  0  0
   44.1991   -0.5953   10.9896 C   0  0  0  0  0  0  0  0  0  0  0  0
   44.2362   -1.9796   10.8524 C   0  0  0  0  0  0  0  0  0  0  0  0
   43.0666   -2.6814   10.5853 C   0  0  0  0  0  0  0  0  0  0  0  0
   42.6718   -2.8201    9.4284 O   0  0  0  0  0  0  0  0  0  0  0  0
   42.3300   -3.0358   11.6480 N   0  0  0  0  0  0  0  0  0  0  0  0
   42.6346   -2.7971   12.5532 H   0  0  0  0  0  0  0  0  0  0  0  0
   41.0715   -3.7772   11.4756 C   0  0  0  0  0  0  0  0  0  0  0  0
   40.1442   -3.5172   12.6647 C   0  0  0  0  0  0  0  0  0  0  0  0
   41.2902   -5.1439   11.3152 C   0  0  0  0  0  0  0  0  0  0  0  0
   40.5020   -6.0492   12.0153 C   0  0  0  0  0  0  0  0  0  0  0  0
   40.5953   -7.4159   11.7605 C   0  0  0  0  0  0  0  0  0  0  0  0
   41.4817   -7.8847   10.7975 C   0  0  0  0  0  0  0  0  0  0  0  0
   42.2788   -6.9819   10.0985 C   0  0  0  0  0  0  0  0  0  0  0  0
   42.1894   -5.6188   10.3638 C   0  0  0  0  0  0  0  0  0  0  0  0
   45.2828    1.4423   11.4107 N   0  0  0  0  0  0  0  0  0  0  0  0
   43.9015    1.9454   11.4491 C   0  0  0  0  0  0  0  0  0  0  0  0
   46.1107    1.9214   12.7480 S   0  0  0  0  0  0  0  0  0  0  0  0
   46.1103    3.4468   12.8524 O   0  0  0  0  0  0  0  0  0  0  0  0
   45.4938    1.3300   14.0180 O   0  0  0  0  0  0  0  0  0  0  0  0
   47.7914    1.3467   12.6136 C   0  0  0  0  0  0  0  0  0  0  0  0
   50.1682   -2.5159   11.8698 C   0  0  0  0  0  0  0  0  0  0  0  0
   51.0965   -2.1935   10.6937 C   0  0  0  0  0  0  0  0  0  0  0  0
   50.7917   -2.9468    9.5612 C   0  0  0  0  0  0  0  0  0  0  0  0
   50.2485   -2.3367    8.4350 C   0  0  0  0  0  0  0  0  0  0  0  0
   49.8836   -3.0917    7.3242 C   0  0  0  0  0  0  0  0  0  0  0  0
   50.0524   -4.4719    7.3334 C   0  0  0  0  0  0  0  0  0  0  0  0
   50.5906   -5.0842    8.4601 C   0  0  0  0  0  0  0  0  0  0  0  0
   50.9667   -4.3270    9.5642 C   0  0  0  0  0  0  0  0  0  0  0  0
   50.8122   -2.0817   13.1902 C   0  0  0  0  0  0  0  0  0  0  0  0
   50.7511   -3.1188   14.2323 N   0  0  0  0  0  0  0  0  0  0  0  0
   51.5253   -2.9875   14.8833 H   0  0  0  0  0  0  0  0  0  0  0  0
   49.4793   -3.0317   14.9673 C   0  0  0  0  0  0  0  0  0  0  0  0
   47.7427   -1.3390   15.5815 N   0  0  0  0  0  0  0  0  0  0  0  0
   49.1815   -1.6468   15.5684 C   0  0  0  0  0  0  0  0  0  0  0  0
   49.9358   -1.1328   16.3984 O   0  0  0  0  0  0  0  0  0  0  0  0
   47.0380   -1.9082   15.1959 H   0  0  0  0  0  0  0  0  0  0  0  0
   47.5159   -0.0504   16.2588 C   0  0  0  0  0  0  0  0  0  0  0  0
   47.5769   -0.0185   18.7543 C   0  0  0  0  0  0  0  0  0  0  0  0
   46.6888   -0.2425   17.5311 C   0  0  0  0  0  0  0  0  0  0  0  0
   45.4934    0.7126   17.5946 C   0  0  0  0  0  0  0  0  0  0  0  0
   49.4188   -4.0885   16.0804 C   0  0  0  0  0  0  0  0  0  0  0  0
   50.7769   -4.3013   16.7507 C   0  0  0  0  0  0  0  0  0  0  0  0
   48.3760   -3.8224   17.0264 O   0  0  0  0  0  0  0  0  0  0  0  0
   48.5597   -2.9867   17.4835 H   0  0  0  0  0  0  0  0  0  0  0  0
 21 20  2  0  0  0
 21 22  1  0  0  0
 20 19  1  0  0  0
 46 47  1  0  0  0
 22 17  2  0  0  0
 32 33  2  0  0  0
 32 31  1  0  0  0
 19 18  2  0  0  0
 30 31  1  0  0  0
 30 29  1  0  0  0
 47 48  1  0  0  0
 47 45  1  0  0  0
 37 29  1  0  0  0
 37 38  1  0  0  0
 17 18  1  0  0  0
 17 15  1  0  0  0
 33 34  1  0  0  0
 16 15  1  0  0  0
 31 36  2  0  0  0
 41 45  1  0  0  0
 41 42  1  0  0  0
 40 38  1  0  0  0
 40 42  1  0  0  0
 40 49  1  0  0  0
 29  1  1  0  0  0
 15 13  1  0  0  0
 42 43  2  0  0  0
  1  2  1  0  0  0
 49 51  1  0  0  0
 49 50  1  0  0  0
 34 35  2  0  0  0
 13 11  1  0  0  0
 36 35  1  0  0  0
  2  5  1  0  0  0
  2  3  2  0  0  0
  6  5  2  0  0  0
  6 10  1  0  0  0
 11 10  1  0  0  0
 11 12  2  0  0  0
  5  7  1  0  0  0
 10  9  2  0  0  0
  7  8  2  0  0  0
  9  8  1  0  0  0
 27 25  2  0  0  0
  8 23  1  0  0  0
 23 25  1  0  0  0
 23 24  1  0  0  0
 25 26  2  0  0  0
 25 28  1  0  0  0
 41 44  1  0  0  0
 51 52  1  0  0  0
 38 39  1  0  0  0
  1  4  1  0  0  0
 13 14  1  0  0  0
M  END
> <minimizedAffinity>
-8.96528

$$$$
4GID_0GH_A_501


 52 54  0  0  0  0  0  0  0  0999 V2000
   47.0750   -0.7180   12.3491 N   0  0  0  0  0  0  0  0  0  0  0  0
   47.3816    0.5869   12.3811 C   0  0  0  0  0  0  0  0  0  0  0  0
   47.0245    1.3713   11.5039 O   0  0  0  0  0  0  0  0  0  0  0  0
   47.3349   -1.2983   13.1007 H   0  0  0  0  0  0  0  0  0  0  0  0
   48.1250    0.9977   13.4849 C   0  0  0  0  0  0  0  0  0  0  0  0
   48.0202    0.2489   14.6518 C   0  0  0  0  0  0  0  0  0  0  0  0
   49.1416    1.9436   13.3735 C   0  0  0  0  0  0  0  0  0  0  0  0
   50.0313    2.1752   14.4221 C   0  0  0  0  0  0  0  0  0  0  0  0
   49.9315    1.3836   15.5616 C   0  0  0  0  0  0  0  0  0  0  0  0
   48.9263    0.4300   15.6904 C   0  0  0  0  0  0  0  0  0  0  0  0
   48.7413   -0.2229   16.9035 C   0  0  0  0  0  0  0  0  0  0  0  0
   49.6894   -0.4042   17.6661 O   0  0  0  0  0  0  0  0  0  0  0  0
   47.5368   -0.7770   17.1028 N   0  0  0  0  0  0  0  0  0  0  0  0
   46.8450   -0.7022   16.4064 H   0  0  0  0  0  0  0  0  0  0  0  0
   47.2383   -1.4954   18.3510 C   0  0  0  0  0  0  0  0  0  0  0  0
   47.1888   -3.0021   18.0881 C   0  0  0  0  0  0  0  0  0  0  0  0
   46.0481   -1.0603   18.9302 C   0  0  0  0  0  0  0  0  0  0  0  0
   45.6474    0.2594   18.7602 C   0  0  0  0  0  0  0  0  0  0  0  0
   44.3933    0.6815   19.1966 C   0  0  0  0  0  0  0  0  0  0  0  0
   43.5296   -0.2208   19.8071 C   0  0  0  0  0  0  0  0  0  0  0  0
   43.9296   -1.5425   19.9861 C   0  0  0  0  0  0  0  0  0  0  0  0
   45.1871   -1.9568   19.5578 C   0  0  0  0  0  0  0  0  0  0  0  0
   51.1199    2.9314   14.2593 N   0  0  0  0  0  0  0  0  0  0  0  0
   51.7879    3.2761   15.5232 C   0  0  0  0  0  0  0  0  0  0  0  0
   52.2157    2.4165   13.1470 S   0  0  0  0  0  0  0  0  0  0  0  0
   52.2541    0.8884   13.1101 O   0  0  0  0  0  0  0  0  0  0  0  0
   51.8731    2.9450   11.7518 O   0  0  0  0  0  0  0  0  0  0  0  0
   53.8241    3.0291   13.6060 C   0  0  0  0  0  0  0  0  0  0  0  0
   46.3545   -1.2905   11.2027 C   0  0  0  0  0  0  0  0  0  0  0  0
   46.9365   -2.6718   10.8835 C   0  0  0  0  0  0  0  0  0  0  0  0
   48.1867   -2.5875   10.2729 C   0  0  0  0  0  0  0  0  0  0  0  0
   48.2876   -2.4088    8.8970 C   0  0  0  0  0  0  0  0  0  0  0  0
   49.5314   -2.3867    8.2726 C   0  0  0  0  0  0  0  0  0  0  0  0
   50.6908   -2.5521    9.0223 C   0  0  0  0  0  0  0  0  0  0  0  0
   50.5917   -2.7358   10.3973 C   0  0  0  0  0  0  0  0  0  0  0  0
   49.3490   -2.7448   11.0213 C   0  0  0  0  0  0  0  0  0  0  0  0
   44.8431   -1.3902   11.4319 C   0  0  0  0  0  0  0  0  0  0  0  0
   44.3266   -2.7615   11.2970 N   0  0  0  0  0  0  0  0  0  0  0  0
   44.4617   -3.2598   12.1766 H   0  0  0  0  0  0  0  0  0  0  0  0
   42.8926   -2.7384   10.9678 C   0  0  0  0  0  0  0  0  0  0  0  0
   40.5560   -3.2265   11.7164 N   0  0  0  0  0  0  0  0  0  0  0  0
   41.9854   -3.4098   12.0139 C   0  0  0  0  0  0  0  0  0  0  0  0
   42.3667   -4.3907   12.6577 O   0  0  0  0  0  0  0  0  0  0  0  0
   40.1960   -2.6854   10.9769 H   0  0  0  0  0  0  0  0  0  0  0  0
   39.7450   -3.9751   12.6923 C   0  0  0  0  0  0  0  0  0  0  0  0
   37.3678   -3.8460   13.4436 C   0  0  0  0  0  0  0  0  0  0  0  0
   38.6807   -3.0738   13.3206 C   0  0  0  0  0  0  0  0  0  0  0  0
   39.0966   -2.5636   14.7034 C   0  0  0  0  0  0  0  0  0  0  0  0
   42.6377   -3.3772    9.5944 C   0  0  0  0  0  0  0  0  0  0  0  0
   43.9228   -3.5293    8.7793 C   0  0  0  0  0  0  0  0  0  0  0  0
   41.9028   -4.6033    9.6932 O   0  0  0  0  0  0  0  0  0  0  0  0
   42.4284   -5.2570   10.1804 H   0  0  0  0  0  0  0  0  0  0  0  0
 21 20  2  0  0  0
 21 22  1  0  0  0
 20 19  1  0  0  0
 46 47  1  0  0  0
 22 17  2  0  0  0
 32 33  2  0  0  0
 32 31  1  0  0  0
 19 18  2  0  0  0
 30 31  1  0  0  0
 30 29  1  0  0  0
 47 48  1  0  0  0
 47 45  1  0  0  0
 37 29  1  0  0  0
 37 38  1  0  0  0
 17 18  1  0  0  0
 17 15  1  0  0  0
 33 34  1  0  0  0
 16 15  1  0  0  0
 31 36  2  0  0  0
 41 45  1  0  0  0
 41 42  1  0  0  0
 40 38  1  0  0  0
 40 42  1  0  0  0
 40 49  1  0  0  0
 29  1  1  0  0  0
 15 13  1  0  0  0
 42 43  2  0  0  0
  1  2  1  0  0  0
 49 51  1  0  0  0
 49 50  1  0  0  0
 34 35  2  0  0  0
 13 11  1  0  0  0
 36 35  1  0  0  0
  2  5  1  0  0  0
  2  3  2  0  0  0
  6  5  2  0  0  0
  6 10  1  0  0  0
 11 10  1  0  0  0
 11 12  2  0  0  0
  5  7  1  0  0  0
 10  9  2  0  0  0
  7  8  2  0  0  0
  9  8  1  0  0  0
 27 25  2  0  0  0
  8 23  1  0  0  0
 23 25  1  0  0  0
 23 24  1  0  0  0
 25 26  2  0  0  0
 25 28  1  0  0  0
 41 44  1  0  0  0
 51 52  1  0  0  0
 38 39  1  0  0  0
  1  4  1  0  0  0
 13 14  1  0  0  0
M  END
> <minimizedAffinity>
-8.90490

$$$$
4GID_0GH_A_501


 52 54  0  0  0  0  0  0  0  0999 V2000
   37.9821   -5.9734   11.9117 N   0  0  0  0  0  0  0  0  0  0  0  0
   37.6762   -4.7051   12.2211 C   0  0  0  0  0  0  0  0  0  0  0  0
   36.5803   -4.2088   11.9664 O   0  0  0  0  0  0  0  0  0  0  0  0
   38.8520   -6.3453   12.1839 H   0  0  0  0  0  0  0  0  0  0  0  0
   38.6833   -3.9886   12.8629 C   0  0  0  0  0  0  0  0  0  0  0  0
   39.9154   -3.8902   12.2259 C   0  0  0  0  0  0  0  0  0  0  0  0
   38.4168   -3.1689   13.9574 C   0  0  0  0  0  0  0  0  0  0  0  0
   39.3741   -2.2793   14.4441 C   0  0  0  0  0  0  0  0  0  0  0  0
   40.5823   -2.1697   13.7634 C   0  0  0  0  0  0  0  0  0  0  0  0
   40.8659   -2.9757   12.6651 C   0  0  0  0  0  0  0  0  0  0  0  0
   42.1413   -2.9710   12.1126 C   0  0  0  0  0  0  0  0  0  0  0  0
   42.9152   -3.9045   12.3201 O   0  0  0  0  0  0  0  0  0  0  0  0
   42.5209   -1.8391   11.5027 N   0  0  0  0  0  0  0  0  0  0  0  0
   41.9016   -1.0747   11.4652 H   0  0  0  0  0  0  0  0  0  0  0  0
   43.8528   -1.7272   10.8890 C   0  0  0  0  0  0  0  0  0  0  0  0
   44.7349   -2.8944   11.3374 C   0  0  0  0  0  0  0  0  0  0  0  0
   44.4627   -0.5103   11.1866 C   0  0  0  0  0  0  0  0  0  0  0  0
   43.7082    0.5138   11.7459 C   0  0  0  0  0  0  0  0  0  0  0  0
   44.3205    1.6828   12.1931 C   0  0  0  0  0  0  0  0  0  0  0  0
   45.6983    1.8319   12.0831 C   0  0  0  0  0  0  0  0  0  0  0  0
   46.4577    0.8113   11.5168 C   0  0  0  0  0  0  0  0  0  0  0  0
   45.8403   -0.3501   11.0622 C   0  0  0  0  0  0  0  0  0  0  0  0
   39.0677   -1.3574   15.3603 N   0  0  0  0  0  0  0  0  0  0  0  0
   37.7396   -0.7569   15.1657 C   0  0  0  0  0  0  0  0  0  0  0  0
   39.2868   -1.7805   16.9339 S   0  0  0  0  0  0  0  0  0  0  0  0
   40.1738   -3.0222   17.0294 O   0  0  0  0  0  0  0  0  0  0  0  0
   39.9313   -0.6398   17.7256 O   0  0  0  0  0  0  0  0  0  0  0  0
   37.6978   -2.1424   17.6530 C   0  0  0  0  0  0  0  0  0  0  0  0
   37.0310   -6.8140   11.1701 C   0  0  0  0  0  0  0  0  0  0  0  0
   37.8088   -7.8596   10.3636 C   0  0  0  0  0  0  0  0  0  0  0  0
   39.1777   -7.5977   10.3446 C   0  0  0  0  0  0  0  0  0  0  0  0
   39.7569   -6.9571    9.2539 C   0  0  0  0  0  0  0  0  0  0  0  0
   41.1320   -6.7486    9.2002 C   0  0  0  0  0  0  0  0  0  0  0  0
   41.9449   -7.1886   10.2391 C   0  0  0  0  0  0  0  0  0  0  0  0
   41.3683   -7.8336   11.3280 C   0  0  0  0  0  0  0  0  0  0  0  0
   39.9929   -8.0296   11.3861 C   0  0  0  0  0  0  0  0  0  0  0  0
   36.0015   -7.4983   12.0749 C   0  0  0  0  0  0  0  0  0  0  0  0
   35.0190   -6.5624   12.6444 N   0  0  0  0  0  0  0  0  0  0  0  0
   34.1237   -6.6858   12.1716 H   0  0  0  0  0  0  0  0  0  0  0  0
   34.8464   -6.8146   14.0838 C   0  0  0  0  0  0  0  0  0  0  0  0
   35.1977   -8.9168   15.3936 N   0  0  0  0  0  0  0  0  0  0  0  0
   34.3301   -8.2226   14.4290 C   0  0  0  0  0  0  0  0  0  0  0  0
   33.1301   -8.5002   14.3585 O   0  0  0  0  0  0  0  0  0  0  0  0
   36.0501   -8.5685   15.7419 H   0  0  0  0  0  0  0  0  0  0  0  0
   34.5981  -10.2119   15.7595 C   0  0  0  0  0  0  0  0  0  0  0  0
   36.9145  -10.8934   16.3935 C   0  0  0  0  0  0  0  0  0  0  0  0
   35.6356  -11.3332   15.6820 C   0  0  0  0  0  0  0  0  0  0  0  0
   35.1303  -12.6343   16.3122 C   0  0  0  0  0  0  0  0  0  0  0  0
   33.9156   -5.7675   14.7135 C   0  0  0  0  0  0  0  0  0  0  0  0
   34.6786   -4.5373   15.2073 C   0  0  0  0  0  0  0  0  0  0  0  0
   32.8216   -5.4255   13.8536 O   0  0  0  0  0  0  0  0  0  0  0  0
   33.1624   -5.0063   13.0480 H   0  0  0  0  0  0  0  0  0  0  0  0
 21 20  2  0  0  0
 21 22  1  0  0  0
 20 19  1  0  0  0
 46 47  1  0  0  0
 22 17  2  0  0  0
 32 33  2  0  0  0
 32 31  1  0  0  0
 19 18  2  0  0  0
 30 31  1  0  0  0
 30 29  1  0  0  0
 47 48  1  0  0  0
 47 45  1  0  0  0
 37 29  1  0  0  0
 37 38  1  0  0  0
 17 18  1  0  0  0
 17 15  1  0  0  0
 33 34  1  0  0  0
 16 15  1  0  0  0
 31 36  2  0  0  0
 41 45  1  0  0  0
 41 42  1  0  0  0
 40 38  1  0  0  0
 40 42  1  0  0  0
 40 49  1  0  0  0
 29  1  1  0  0  0
 15 13  1  0  0  0
 42 43  2  0  0  0
  1  2  1  0  0  0
 49 51  1  0  0  0
 49 50  1  0  0  0
 34 35  2  0  0  0
 13 11  1  0  0  0
 36 35  1  0  0  0
  2  5  1  0  0  0
  2  3  2  0  0  0
  6  5  2  0  0  0
  6 10  1  0  0  0
 11 10  1  0  0  0
 11 12  2  0  0  0
  5  7  1  0  0  0
 10  9  2  0  0  0
  7  8  2  0  0  0
  9  8  1  0  0  0
 27 25  2  0  0  0
  8 23  1  0  0  0
 23 25  1  0  0  0
 23 24  1  0  0  0
 25 26  2  0  0  0
 25 28  1  0  0  0
 41 44  1  0  0  0
 51 52  1  0  0  0
 38 39  1  0  0  0
  1  4  1  0  0  0
 13 14  1  0  0  0
M  END
> <minimizedAffinity>
-8.89223

$$$$
