4GID_0GH_A_501
  RCSB PDB12061712423D
Coordinates from PDB:4GID:A:501 Model:1 without hydrogens
 47 49  0  0  0  0            999 V2000
   49.5370   -2.5550    8.2710   C 0  0  0  0  0  0  0  0  0  0  0  0
   48.9440   -3.5780    9.2390   C 0  0  0  0  0  0  0  0  0  0  0  0
   50.0680   -4.4590    9.7920   C 0  0  0  0  0  0  0  0  0  0  0  0
   48.1820   -2.8490   10.3470   C 0  0  0  0  0  0  0  0  0  0  0  0
   47.1100   -2.0110    9.7820   N 0  0  0  0  0  0  0  0  0  0  0  0
   45.8260   -2.3550   10.4130   C 0  0  0  0  0  0  0  0  0  0  0  0
   45.8020   -2.8950   11.5220   O 0  0  0  0  0  0  0  0  0  0  0  0
   44.6790   -1.4430    9.9430   C 0  0  0  0  0  0  0  0  0  0  0  0
   44.7780   -0.0930   10.6690   C 0  0  0  0  0  0  0  0  0  0  0  0
   44.1370   -0.1340   12.0570   C 0  0  0  0  0  0  0  0  0  0  0  0
   46.1190    0.4110   10.6990   O 0  0  0  0  0  0  0  0  0  0  0  0
   43.3350   -2.0220   10.0970   N 0  0  0  0  0  0  0  0  0  0  0  0
   43.1900   -3.2130    9.2450   C 0  0  0  0  0  0  0  0  0  0  0  0
   42.5960   -4.4150    9.9860   C 0  0  0  0  0  0  0  0  0  0  0  0
   42.4160   -5.5960    9.0260   C 0  0  0  0  0  0  0  0  0  0  0  0
   41.7140   -6.6480    9.6120   C 0  0  0  0  0  0  0  0  0  0  0  0
   40.7020   -7.2960    8.9110   C 0  0  0  0  0  0  0  0  0  0  0  0
   39.9550   -8.3050    9.5120   C 0  0  0  0  0  0  0  0  0  0  0  0
   40.2100   -8.6710   10.8290   C 0  0  0  0  0  0  0  0  0  0  0  0
   41.2180   -8.0210   11.5330   C 0  0  0  0  0  0  0  0  0  0  0  0
   41.9720   -7.0220   10.9270   C 0  0  0  0  0  0  0  0  0  0  0  0
   41.3080   -4.1170   10.6290   N 0  0  0  0  0  0  0  0  0  0  0  0
   41.2570   -3.7410   11.9150   C 0  0  0  0  0  0  0  0  0  0  0  0
   42.2680   -3.5630   12.5920   O 0  0  0  0  0  0  0  0  0  0  0  0
   39.9770   -3.5540   12.4310   C 0  0  0  0  0  0  0  0  0  0  0  0
   38.9820   -4.4400   12.0330   C 0  0  0  0  0  0  0  0  0  0  0  0
   39.7370   -2.7010   13.5060   C 0  0  0  0  0  0  0  0  0  0  0  0
   38.5080   -2.6970   14.1650   C 0  0  0  0  0  0  0  0  0  0  0  0
   38.3320   -2.0310   15.3090   N 0  0  0  0  0  0  0  0  0  0  0  0
   39.4840   -1.1980   15.6850   C 0  0  0  0  0  0  0  0  0  0  0  0
   36.9310   -1.1840   15.4610   S 0  0  0  0  0  0  0  0  0  0  0  0
   37.2200    0.2310   15.9630   O 0  0  0  0  0  0  0  0  0  0  0  0
   36.1900   -1.1020   14.1240   O 0  0  0  0  0  0  0  0  0  0  0  0
   35.8860   -2.0180   16.6380   C 0  0  0  0  0  0  0  0  0  0  0  0
   37.5450   -3.6220   13.7750   C 0  0  0  0  0  0  0  0  0  0  0  0
   37.7670   -4.4860   12.7070   C 0  0  0  0  0  0  0  0  0  0  0  0
   36.7290   -5.2760   12.2270   C 0  0  0  0  0  0  0  0  0  0  0  0
   35.9770   -5.8600   13.0060   O 0  0  0  0  0  0  0  0  0  0  0  0
   36.7090   -5.4920   10.9040   N 0  0  0  0  0  0  0  0  0  0  0  0
   35.6560   -6.3180   10.2940   C 0  0  0  0  0  0  0  0  0  0  0  0
   36.2840   -7.4870    9.5320   C 0  0  0  0  0  0  0  0  0  0  0  0
   34.8310   -5.5730    9.4540   C 0  0  0  0  0  0  0  0  0  0  0  0
   33.4700   -5.4970    9.7240   C 0  0  0  0  0  0  0  0  0  0  0  0
   32.6490   -4.6400    8.9940   C 0  0  0  0  0  0  0  0  0  0  0  0
   33.1900   -3.8500    7.9860   C 0  0  0  0  0  0  0  0  0  0  0  0
   34.5520   -3.9280    7.7070   C 0  0  0  0  0  0  0  0  0  0  0  0
   35.3660   -4.7930    8.4320   C 0  0  0  0  0  0  0  0  0  0  0  0
 46 45  2  0  0  0  0
 46 47  1  0  0  0  0
 45 44  1  0  0  0  0
  1  2  1  0  0  0  0
 47 42  2  0  0  0  0
 17 18  2  0  0  0  0
 17 16  1  0  0  0  0
 44 43  2  0  0  0  0
 15 16  1  0  0  0  0
 15 14  1  0  0  0  0
  2  3  1  0  0  0  0
  2  4  1  0  0  0  0
 13 14  1  0  0  0  0
 13 12  1  0  0  0  0
 42 43  1  0  0  0  0
 42 40  1  0  0  0  0
 18 19  1  0  0  0  0
 41 40  1  0  0  0  0
 16 21  2  0  0  0  0
  5  4  1  0  0  0  0
  5  6  1  0  0  0  0
  8 12  1  0  0  0  0
  8  6  1  0  0  0  0
  8  9  1  0  0  0  0
 14 22  1  0  0  0  0
 40 39  1  0  0  0  0
  6  7  2  0  0  0  0
 22 23  1  0  0  0  0
  9 11  1  0  0  0  0
  9 10  1  0  0  0  0
 19 20  2  0  0  0  0
 39 37  1  0  0  0  0
 21 20  1  0  0  0  0
 23 25  1  0  0  0  0
 23 24  2  0  0  0  0
 26 25  2  0  0  0  0
 26 36  1  0  0  0  0
 37 36  1  0  0  0  0
 37 38  2  0  0  0  0
 25 27  1  0  0  0  0
 36 35  2  0  0  0  0
 27 28  2  0  0  0  0
 35 28  1  0  0  0  0
 33 31  2  0  0  0  0
 28 29  1  0  0  0  0
 29 31  1  0  0  0  0
 29 30  1  0  0  0  0
 31 32  2  0  0  0  0
 31 34  1  0  0  0  0
A    1
CBK
A    2
CBL
A    3
CBM
A    4
CBN
A    5
NBO
A    6
CBP
A    7
OBV
A    8
CBG
A    9
CBH
A   10
CBJ
A   11
OBI
A   12
NBF
A   13
CAX
A   14
CAW
A   15
CAY
A   16
CAZ
A   17
CBA
A   18
CBB
A   19
CBC
A   20
CBD
A   21
CBE
A   22
NAV
A   23
CAT
A   24
OAU
A   25
CAP
A   26
CAQ
A   27
CAO
A   28
CAN
A   29
NAE
A   30
CBT
A   31
SAB
A   32
OAC
A   33
OAD
A   34
CAA
A   35
CAS
A   36
CAR
A   37
CAL
A   38
OAM
A   39
NBQ
A   40
CBR
A   41
CBS
A   42
CAI
A   43
CAH
A   44
CAG
A   45
CAF
A   46
CAK
A   47
CAJ
M  END
>  <InstanceId>
4GID_0GH_A_501

>  <ChemCompId>
0GH

>  <PdbId>
4GID

>  <ChainId>
A

>  <ResidueNumber>
501

>  <InsertionCode>


>  <Model>
1

>  <AltIds>


>  <MissingHeavyAtoms>
0

>  <ObservedFormula>
C35 N5 O6 S

>  <Name>
N-[(2S)-1-({(2S,3R)-3-hydroxy-1-[(2-methylpropyl)amino]-1-oxobutan-2-yl}amino)-3-phenylpropan-2-yl]-5-[methyl(methylsulfonyl)amino]-N'-[(1R)-1-phenylethyl]benzene-1,3-dicarboxamide

>  <SystematicName>
5-[methyl(methylsulfonyl)amino]-N1-[(2S)-1-[[(2S,3R)-1-(2-methylpropylamino)-3-oxidanyl-1-oxidanylidene-butan-2-yl]amino]-3-phenyl-propan-2-yl]-N3-[(1R)-1-phenylethyl]benzene-1,3-dicarboxamide

>  <Synonyms>


>  <Type>
NON-POLYMER

>  <Formula>
C35 H47 N5 O6 S

>  <MolecularWeight>
665.843

>  <ModifiedDate>
2012-10-05

>  <Parent>


>  <OneLetterCode>


>  <SubcomponentList>


>  <AmbiguousFlag>
N

>  <InChI>
InChI=1S/C35H47N5O6S/c1-23(2)21-37-35(44)32(25(4)41)36-22-30(17-26-13-9-7-10-14-26)39-34(43)29-18-28(19-31(20-29)40(5)47(6,45)46)33(42)38-24(3)27-15-11-8-12-16-27/h7-16,18-20,23-25,30,32,36,41H,17,21-22H2,1-6H3,(H,37,44)(H,38,42)(H,39,43)/t24-,25-,30+,32+/m1/s1

>  <InChIKey>
UZFAOTIMARRSKT-TYUOOWEOSA-N

>  <SMILES>
C[C@H](c1ccccc1)NC(=O)c2cc(cc(c2)N(C)S(=O)(=O)C)C(=O)N[C@@H](Cc3ccccc3)CN[C@@H]([C@@H](C)O)C(=O)NCC(C)C

$$$$
