4I74_MBY_A_408


 24 26  0  0  0  0  0  0  0  0999 V2000
  -23.7067  -19.0681  -20.5780 C   0  0  0  0  0  0  0  0  0  0  0  0
  -28.5046  -18.9324  -24.4994 O   0  0  0  0  0  0  0  0  0  0  0  0
  -27.3305  -18.7013  -24.1331 C   0  0  0  0  0  0  0  0  0  0  0  0
  -26.4414  -18.0727  -24.9498 N   0  0  0  0  0  0  0  0  0  0  0  0
  -25.1666  -17.8050  -24.6049 C   0  0  0  0  0  0  0  0  0  0  0  0
  -24.6780  -18.1471  -23.4112 N   0  0  0  0  0  0  0  0  0  0  0  0
  -25.4654  -18.7726  -22.5193 C   0  0  0  0  0  0  0  0  0  0  0  0
  -26.8527  -19.1131  -22.8008 C   0  0  0  0  0  0  0  0  0  0  0  0
  -25.1032  -19.2482  -21.1471 C   0  0  0  0  0  0  0  0  0  0  0  0
  -26.1790  -19.8806  -20.4922 C   0  0  0  0  0  0  0  0  0  0  0  0
  -27.5866  -19.9193  -21.5060 S   0  0  0  0  0  0  0  0  0  0  0  0
  -28.7915  -18.6635  -25.3499 H   0  0  0  0  0  0  0  0  0  0  0  0
  -23.3252  -17.7351  -20.0508 N   0  0  0  0  0  0  0  0  0  0  0  0
  -23.1400  -17.7135  -18.5858 C   0  0  0  0  0  0  0  0  0  0  0  0
  -23.0549  -16.1940  -18.3154 C   0  0  0  0  0  0  0  0  0  0  0  0
  -21.6929  -15.8224  -17.9949 O   0  0  0  0  0  0  0  0  0  0  0  0
  -23.6212  -15.4808  -19.5276 C   0  0  0  0  0  0  0  0  0  0  0  0
  -22.6148  -14.7847  -20.2660 O   0  0  0  0  0  0  0  0  0  0  0  0
  -24.1769  -16.5826  -20.4082 C   0  0  0  0  0  0  0  0  0  0  0  0
  -21.1106  -16.0601  -18.7334 H   0  0  0  0  0  0  0  0  0  0  0  0
  -21.9364  -15.4128  -20.5594 H   0  0  0  0  0  0  0  0  0  0  0  0
  -24.2761  -18.4067  -17.8013 C   0  0  0  0  0  0  0  0  0  0  0  0
  -24.1248  -19.8506  -17.6589 O   0  0  0  0  0  0  0  0  0  0  0  0
  -24.1411  -20.2654  -18.5356 H   0  0  0  0  0  0  0  0  0  0  0  0
 18 17  1  0  0  0
 16 15  1  0  0  0
 17 15  1  0  0  0
 17 19  1  0  0  0
 15 14  1  0  0  0
 19 13  1  0  0  0
 14 13  1  0  0  0
 14 22  1  0  0  0
 13  1  1  0  0  0
 22 23  1  0  0  0
  5  6  1  0  0  0
  5  4  2  0  0  0
  6  7  2  0  0  0
  4  3  1  0  0  0
  7  9  1  0  0  0
  7  8  1  0  0  0
  1  9  1  0  0  0
  3  8  2  0  0  0
  3  2  1  0  0  0
  9 10  2  0  0  0
  8 11  1  0  0  0
 10 11  1  0  0  0
  2 12  1  0  0  0
 23 24  1  0  0  0
 16 20  1  0  0  0
 18 21  1  0  0  0
M  END
> <minimizedAffinity>
-11.01482

$$$$
4I74_MBY_A_408


 24 26  0  0  0  0  0  0  0  0999 V2000
  -23.8473  -18.4630  -21.1856 C   0  0  0  0  0  0  0  0  0  0  0  0
  -28.5092  -18.9540  -25.2404 O   0  0  0  0  0  0  0  0  0  0  0  0
  -27.3833  -18.5774  -24.8447 C   0  0  0  0  0  0  0  0  0  0  0  0
  -26.5540  -17.8529  -25.6447 N   0  0  0  0  0  0  0  0  0  0  0  0
  -25.3320  -17.4278  -25.2681 C   0  0  0  0  0  0  0  0  0  0  0  0
  -24.8404  -17.6957  -24.0568 N   0  0  0  0  0  0  0  0  0  0  0  0
  -25.5714  -18.4040  -23.1788 C   0  0  0  0  0  0  0  0  0  0  0  0
  -26.8980  -18.9145  -23.4943 C   0  0  0  0  0  0  0  0  0  0  0  0
  -25.1942  -18.8182  -21.7908 C   0  0  0  0  0  0  0  0  0  0  0  0
  -26.2034  -19.5710  -21.1578 C   0  0  0  0  0  0  0  0  0  0  0  0
  -27.5656  -19.7916  -22.2097 S   0  0  0  0  0  0  0  0  0  0  0  0
  -28.8018  -18.7307  -26.1021 H   0  0  0  0  0  0  0  0  0  0  0  0
  -23.8172  -17.8817  -19.8212 N   0  0  0  0  0  0  0  0  0  0  0  0
  -22.9197  -16.7153  -19.6989 C   0  0  0  0  0  0  0  0  0  0  0  0
  -22.8697  -16.5331  -18.1648 C   0  0  0  0  0  0  0  0  0  0  0  0
  -23.6298  -15.3631  -17.7789 O   0  0  0  0  0  0  0  0  0  0  0  0
  -23.3578  -17.8229  -17.5345 C   0  0  0  0  0  0  0  0  0  0  0  0
  -24.6272  -17.6677  -16.8964 O   0  0  0  0  0  0  0  0  0  0  0  0
  -23.5249  -18.7877  -18.6919 C   0  0  0  0  0  0  0  0  0  0  0  0
  -24.5495  -15.4644  -18.0702 H   0  0  0  0  0  0  0  0  0  0  0  0
  -25.2816  -17.3684  -17.5468 H   0  0  0  0  0  0  0  0  0  0  0  0
  -21.5260  -16.9294  -20.3302 C   0  0  0  0  0  0  0  0  0  0  0  0
  -20.4156  -16.3927  -19.5511 O   0  0  0  0  0  0  0  0  0  0  0  0
  -20.5081  -15.4299  -19.4771 H   0  0  0  0  0  0  0  0  0  0  0  0
 18 17  1  0  0  0
 16 15  1  0  0  0
 17 15  1  0  0  0
 17 19  1  0  0  0
 15 14  1  0  0  0
 19 13  1  0  0  0
 14 13  1  0  0  0
 14 22  1  0  0  0
 13  1  1  0  0  0
 22 23  1  0  0  0
  5  6  1  0  0  0
  5  4  2  0  0  0
  6  7  2  0  0  0
  4  3  1  0  0  0
  7  9  1  0  0  0
  7  8  1  0  0  0
  1  9  1  0  0  0
  3  8  2  0  0  0
  3  2  1  0  0  0
  9 10  2  0  0  0
  8 11  1  0  0  0
 10 11  1  0  0  0
  2 12  1  0  0  0
 23 24  1  0  0  0
 16 20  1  0  0  0
 18 21  1  0  0  0
M  END
> <minimizedAffinity>
-9.77971

$$$$
4I74_MBY_A_408


 24 26  0  0  0  0  0  0  0  0999 V2000
  -23.8464  -18.6511  -20.6619 C   0  0  0  0  0  0  0  0  0  0  0  0
  -28.4923  -19.2820  -24.7156 O   0  0  0  0  0  0  0  0  0  0  0  0
  -27.8926  -19.4820  -23.6357 C   0  0  0  0  0  0  0  0  0  0  0  0
  -28.4340  -20.2537  -22.6537 N   0  0  0  0  0  0  0  0  0  0  0  0
  -27.8317  -20.4957  -21.4730 C   0  0  0  0  0  0  0  0  0  0  0  0
  -26.6355  -19.9823  -21.1793 N   0  0  0  0  0  0  0  0  0  0  0  0
  -26.0024  -19.2044  -22.0742 C   0  0  0  0  0  0  0  0  0  0  0  0
  -26.5741  -18.8776  -23.3728 C   0  0  0  0  0  0  0  0  0  0  0  0
  -24.6752  -18.5278  -21.9286 C   0  0  0  0  0  0  0  0  0  0  0  0
  -24.3249  -17.7732  -23.0661 C   0  0  0  0  0  0  0  0  0  0  0  0
  -25.5668  -17.8593  -24.2747 S   0  0  0  0  0  0  0  0  0  0  0  0
  -29.3299  -19.6742  -24.8660 H   0  0  0  0  0  0  0  0  0  0  0  0
  -23.3038  -17.4138  -20.0494 N   0  0  0  0  0  0  0  0  0  0  0  0
  -23.0703  -17.5310  -18.5960 C   0  0  0  0  0  0  0  0  0  0  0  0
  -22.8099  -16.0563  -18.2128 C   0  0  0  0  0  0  0  0  0  0  0  0
  -21.4058  -15.8599  -17.9206 O   0  0  0  0  0  0  0  0  0  0  0  0
  -23.3332  -15.1906  -19.3423 C   0  0  0  0  0  0  0  0  0  0  0  0
  -22.2808  -14.5486  -20.0652 O   0  0  0  0  0  0  0  0  0  0  0  0
  -24.0348  -16.1515  -20.2818 C   0  0  0  0  0  0  0  0  0  0  0  0
  -20.8773  -16.0978  -18.6984 H   0  0  0  0  0  0  0  0  0  0  0  0
  -21.6853  -15.2199  -20.4337 H   0  0  0  0  0  0  0  0  0  0  0  0
  -24.2498  -18.1600  -17.8214 C   0  0  0  0  0  0  0  0  0  0  0  0
  -24.1127  -19.5882  -17.5578 O   0  0  0  0  0  0  0  0  0  0  0  0
  -24.0838  -20.0708  -18.3987 H   0  0  0  0  0  0  0  0  0  0  0  0
 18 17  1  0  0  0
 16 15  1  0  0  0
 17 15  1  0  0  0
 17 19  1  0  0  0
 15 14  1  0  0  0
 19 13  1  0  0  0
 14 13  1  0  0  0
 14 22  1  0  0  0
 13  1  1  0  0  0
 22 23  1  0  0  0
  5  6  1  0  0  0
  5  4  2  0  0  0
  6  7  2  0  0  0
  4  3  1  0  0  0
  7  9  1  0  0  0
  7  8  1  0  0  0
  1  9  1  0  0  0
  3  8  2  0  0  0
  3  2  1  0  0  0
  9 10  2  0  0  0
  8 11  1  0  0  0
 10 11  1  0  0  0
  2 12  1  0  0  0
 23 24  1  0  0  0
 16 20  1  0  0  0
 18 21  1  0  0  0
M  END
> <minimizedAffinity>
-8.25147

$$$$
