4I74_MBY_A_408
  RCSB PDB12061712583D
Coordinates from PDB:4I74:A:408 Model:1 without hydrogens
 20 22  0  0  0  0            999 V2000
  -28.4290  -19.6740  -23.7730   O 0  0  0  0  0  0  0  0  0  0  0  0
  -27.2810  -19.2370  -23.5340   C 0  0  0  0  0  0  0  0  0  0  0  0
  -26.6050  -18.4800  -24.4410   N 0  0  0  0  0  0  0  0  0  0  0  0
  -25.3670  -17.9900  -24.2340   C 0  0  0  0  0  0  0  0  0  0  0  0
  -24.7040  -18.2200  -23.0990   N 0  0  0  0  0  0  0  0  0  0  0  0
  -25.2730  -18.9550  -22.1280   C 0  0  0  0  0  0  0  0  0  0  0  0
  -26.6020  -19.5350  -22.2600   C 0  0  0  0  0  0  0  0  0  0  0  0
  -24.6920  -19.3350  -20.8020   C 0  0  0  0  0  0  0  0  0  0  0  0
  -25.5670  -20.1310  -20.0360   C 0  0  0  0  0  0  0  0  0  0  0  0
  -27.0450  -20.4310  -20.8940   S 0  0  0  0  0  0  0  0  0  0  0  0
  -23.2960  -18.9060  -20.3850   C 0  0  0  0  0  0  0  0  0  0  0  0
  -23.1030  -17.5250  -19.8790   N 0  0  0  0  0  0  0  0  0  0  0  0
  -23.0940  -17.4350  -18.4050   C 0  0  0  0  0  0  0  0  0  0  0  0
  -24.2460  -18.2070  -17.7240   C 0  0  0  0  0  0  0  0  0  0  0  0
  -23.9150  -19.5720  -17.3300   O 0  0  0  0  0  0  0  0  0  0  0  0
  -23.1810  -15.9060  -18.1960   C 0  0  0  0  0  0  0  0  0  0  0  0
  -21.9060  -15.3940  -17.7400   O 0  0  0  0  0  0  0  0  0  0  0  0
  -23.6640  -15.2930  -19.4960   C 0  0  0  0  0  0  0  0  0  0  0  0
  -22.6460  -14.5290  -20.1460   O 0  0  0  0  0  0  0  0  0  0  0  0
  -24.0090  -16.4730  -20.3830   C 0  0  0  0  0  0  0  0  0  0  0  0
 19 18  1  0  0  0  0
 17 16  1  0  0  0  0
 18 16  1  0  0  0  0
 18 20  1  0  0  0  0
 16 13  1  0  0  0  0
 20 12  1  0  0  0  0
 13 12  1  0  0  0  0
 13 14  1  0  0  0  0
 12 11  1  0  0  0  0
 14 15  1  0  0  0  0
  4  5  1  0  0  0  0
  4  3  2  0  0  0  0
  5  6  2  0  0  0  0
  3  2  1  0  0  0  0
  6  8  1  0  0  0  0
  6  7  1  0  0  0  0
 11  8  1  0  0  0  0
  2  7  2  0  0  0  0
  2  1  1  0  0  0  0
  8  9  2  0  0  0  0
  7 10  1  0  0  0  0
  9 10  1  0  0  0  0
A    1
O6
A    2
C6
A    3
N1
A    4
C2
A    5
N3
A    6
C4
A    7
C5
A    8
C9
A    9
C8
A   10
S7
A   11
C7
A   12
N4'
A   13
C4'
A   14
C5'
A   15
O5'
A   16
C3'
A   17
O3'
A   18
C2'
A   19
O2'
A   20
C1'
M  END
>  <InstanceId>
4I74_MBY_A_408

>  <ChemCompId>
MBY

>  <PdbId>
4I74

>  <ChainId>
A

>  <ResidueNumber>
408

>  <InsertionCode>


>  <Model>
1

>  <AltIds>


>  <MissingHeavyAtoms>
0

>  <ObservedFormula>
C12 N3 O4 S

>  <Name>
(2R,3R,4S)-2-(hydroxymethyl)-1-[(4-hydroxythieno[3,2-d]pyrimidin-7-yl)methyl]pyrrolidine-3,4-diol

>  <SystematicName>
(2R,3R,4S)-2-(hydroxymethyl)-1-[(4-oxidanylthieno[3,2-d]pyrimidin-7-yl)methyl]pyrrolidine-3,4-diol

>  <Synonyms>


>  <Type>
NON-POLYMER

>  <Formula>
C12 H15 N3 O4 S

>  <MolecularWeight>
297.33

>  <ModifiedDate>
2013-08-02

>  <Parent>


>  <OneLetterCode>


>  <SubcomponentList>


>  <AmbiguousFlag>
N

>  <InChI>
InChI=1S/C12H15N3O4S/c16-3-7-10(18)8(17)2-15(7)1-6-4-20-11-9(6)13-5-14-12(11)19/h4-5,7-8,10,16-18H,1-3H2,(H,13,14,19)/t7-,8+,10-/m1/s1

>  <InChIKey>
UZJHCHSHAYEOTK-KHQFGBGNSA-N

>  <SMILES>
c1c(c2c(s1)c(ncn2)O)CN3C[C@@H]([C@@H]([C@H]3CO)O)O

$$$$
