3K2F_NKX_A_264


 35 36  0  0  0  0  0  0  0  0999 V2000
    1.5032    6.9206    9.6031 C   0  0  0  0  0  0  0  0  0  0  0  0
   -0.1233    3.2420    8.9553 O   0  0  0  0  0  0  0  0  0  0  0  0
    1.1512    5.4840    9.9830 C   0  0  0  0  0  0  0  0  0  0  0  0
   -0.0046    4.7236    8.7903 S   0  0  0  0  0  0  0  0  0  0  0  0
   -1.5454    5.4936    9.1130 C   0  0  0  0  0  0  0  0  0  0  0  0
   -2.8621    5.5911    8.0956 S   0  0  0  0  0  0  0  0  0  0  0  0
   -3.8002    6.4563    9.1033 C   0  0  0  0  0  0  0  0  0  0  0  0
    0.4433    5.0230    7.3853 O   0  0  0  0  0  0  0  0  0  0  0  0
    0.4742    5.4364   11.3541 C   0  0  0  0  0  0  0  0  0  0  0  0
   -0.8282    6.2997   11.4895 C   0  0  0  0  0  0  0  0  0  0  0  0
   -1.8692    6.1707   10.3096 C   0  0  0  0  0  0  0  0  0  0  0  0
   -3.1302    6.6843   10.2471 C   0  0  0  0  0  0  0  0  0  0  0  0
   -6.0022    7.9242    9.5968 O   0  0  0  0  0  0  0  0  0  0  0  0
   -5.4188    6.9308    8.6364 S   0  0  0  0  0  0  0  0  0  0  0  0
   -6.2615    5.6797    8.6038 N   0  0  0  0  0  0  0  0  0  0  0  0
   -5.3222    7.5879    7.1963 O   0  0  0  0  0  0  0  0  0  0  0  0
   -6.3083    5.2768    9.5397 H   0  0  0  0  0  0  0  0  0  0  0  0
   -5.8434    5.0048    7.9635 H   0  0  0  0  0  0  0  0  0  0  0  0
   -1.3744    5.9806   12.8381 N   0  0  0  0  0  0  0  0  0  0  0  0
   -1.8163    3.8021   12.3439 O   0  0  0  0  0  0  0  0  0  0  0  0
   -1.8338    4.7476   13.1322 C   0  0  0  0  0  0  0  0  0  0  0  0
   -1.4242    7.0803   13.8264 C   0  0  0  0  0  0  0  0  0  0  0  0
   -2.6713    7.9126   13.5912 C   0  0  0  0  0  0  0  0  0  0  0  0
   -2.3575    4.4983   14.3615 O   0  0  0  0  0  0  0  0  0  0  0  0
   -3.8436    4.3192   14.3486 C   0  0  0  0  0  0  0  0  0  0  0  0
   -4.6208    2.9761   14.1049 C   0  0  0  0  0  0  0  0  0  0  0  0
   -3.8398    1.7950   14.4595 O   0  0  0  0  0  0  0  0  0  0  0  0
   -4.1480    1.5782   16.8689 O   0  0  0  0  0  0  0  0  0  0  0  0
   -4.2582    1.0521   15.5390 N   0  0  0  0  0  0  0  0  0  0  0  0
   -4.7800   -0.2919   15.3312 O   0  0  0  0  0  0  0  0  0  0  0  0
   -5.2128    2.8638   12.6726 C   0  0  0  0  0  0  0  0  0  0  0  0
   -4.7026    1.7159   11.9727 O   0  0  0  0  0  0  0  0  0  0  0  0
   -4.6438    1.9862   10.6410 N   0  0  0  0  0  0  0  0  0  0  0  0
   -4.8696    3.3171   10.1792 O   0  0  0  0  0  0  0  0  0  0  0  0
   -4.3558    0.9488    9.6964 O   0  0  0  0  0  0  0  0  0  0  0  0
  1  3  1  0  0  0
  2  4  2  0  0  0
 13 14  2  0  0  0
  3  4  1  0  0  0
  3  9  1  0  0  0
  4  5  1  0  0  0
  4  8  2  0  0  0
  5  6  1  0  0  0
  5 11  2  0  0  0
  6  7  1  0  0  0
  7 14  1  0  0  0
  7 12  2  0  0  0
 14 15  1  0  0  0
 14 16  2  0  0  0
  9 10  1  0  0  0
 10 11  1  0  0  0
 10 19  1  0  0  0
 11 12  1  0  0  0
 19 22  1  0  0  0
 19 21  1  0  0  0
 22 23  1  0  0  0
 20 21  2  0  0  0
 21 24  1  0  0  0
 24 25  1  0  0  0
 25 26  1  0  0  0
 28 29  2  0  0  0
 26 27  1  0  0  0
 26 31  1  0  0  0
 27 29  1  0  0  0
 29 30  1  0  0  0
 31 32  1  0  0  0
 32 33  1  0  0  0
 33 34  1  0  0  0
 33 35  2  0  0  0
 15 17  1  0  0  0
 15 18  1  0  0  0
M  CHG 1  29   1
M  CHG 1  30  -1
M  CHG 1  33   1
M  CHG 1  34  -1
M  END
> <minimizedAffinity>
-7.20896

$$$$
3K2F_NKX_A_264


 35 36  0  0  0  0  0  0  0  0999 V2000
    1.4861    6.9213    9.2819 C   0  0  0  0  0  0  0  0  0  0  0  0
   -0.0306    3.7673    7.1963 O   0  0  0  0  0  0  0  0  0  0  0  0
    1.2100    5.4403    9.0319 C   0  0  0  0  0  0  0  0  0  0  0  0
    0.0224    5.1856    7.6676 S   0  0  0  0  0  0  0  0  0  0  0  0
   -1.5274    5.6598    8.3342 C   0  0  0  0  0  0  0  0  0  0  0  0
   -2.8992    6.0996    7.4956 S   0  0  0  0  0  0  0  0  0  0  0  0
   -3.8148    6.4072    8.8038 C   0  0  0  0  0  0  0  0  0  0  0  0
    0.3830    6.0717    6.5061 O   0  0  0  0  0  0  0  0  0  0  0  0
    0.6092    4.7833   10.2761 C   0  0  0  0  0  0  0  0  0  0  0  0
   -0.7162    5.4343   10.8045 C   0  0  0  0  0  0  0  0  0  0  0  0
   -1.8129    5.7529    9.7144 C   0  0  0  0  0  0  0  0  0  0  0  0
   -3.0941    6.1723    9.9149 C   0  0  0  0  0  0  0  0  0  0  0  0
   -5.9027    7.7898    9.7918 O   0  0  0  0  0  0  0  0  0  0  0  0
   -5.4729    6.9405    8.6327 S   0  0  0  0  0  0  0  0  0  0  0  0
   -6.3347    5.7053    8.5430 N   0  0  0  0  0  0  0  0  0  0  0  0
   -5.5606    7.7920    7.2977 O   0  0  0  0  0  0  0  0  0  0  0  0
   -6.2614    5.1758    9.4118 H   0  0  0  0  0  0  0  0  0  0  0  0
   -6.0195    5.1266    7.7645 H   0  0  0  0  0  0  0  0  0  0  0  0
   -1.1773    4.5484   11.9098 N   0  0  0  0  0  0  0  0  0  0  0  0
   -1.8073    6.2649   13.2671 O   0  0  0  0  0  0  0  0  0  0  0  0
   -1.6726    5.0597   13.0547 C   0  0  0  0  0  0  0  0  0  0  0  0
   -1.0356    3.0891   11.7122 C   0  0  0  0  0  0  0  0  0  0  0  0
   -2.3290    2.5293   11.1491 C   0  0  0  0  0  0  0  0  0  0  0  0
   -2.0529    4.2244   14.0575 O   0  0  0  0  0  0  0  0  0  0  0  0
   -3.5017    4.3456   14.4139 C   0  0  0  0  0  0  0  0  0  0  0  0
   -4.6842    3.4997   13.8191 C   0  0  0  0  0  0  0  0  0  0  0  0
   -5.9723    4.1802   13.9110 O   0  0  0  0  0  0  0  0  0  0  0  0
   -5.9047    5.1365   11.6687 O   0  0  0  0  0  0  0  0  0  0  0  0
   -6.1944    5.2454   13.0693 N   0  0  0  0  0  0  0  0  0  0  0  0
   -6.6901    6.5028   13.6123 O   0  0  0  0  0  0  0  0  0  0  0  0
   -4.7543    2.0581   14.3946 C   0  0  0  0  0  0  0  0  0  0  0  0
   -5.4716    2.0150   15.6402 O   0  0  0  0  0  0  0  0  0  0  0  0
   -4.7686    1.2794   16.5428 N   0  0  0  0  0  0  0  0  0  0  0  0
   -3.3744    1.0553   16.3394 O   0  0  0  0  0  0  0  0  0  0  0  0
   -5.4129    0.7282   17.6972 O   0  0  0  0  0  0  0  0  0  0  0  0
  1  3  1  0  0  0
  2  4  2  0  0  0
 13 14  2  0  0  0
  3  4  1  0  0  0
  3  9  1  0  0  0
  4  5  1  0  0  0
  4  8  2  0  0  0
  5  6  1  0  0  0
  5 11  2  0  0  0
  6  7  1  0  0  0
  7 14  1  0  0  0
  7 12  2  0  0  0
 14 15  1  0  0  0
 14 16  2  0  0  0
  9 10  1  0  0  0
 10 11  1  0  0  0
 10 19  1  0  0  0
 11 12  1  0  0  0
 19 22  1  0  0  0
 19 21  1  0  0  0
 22 23  1  0  0  0
 20 21  2  0  0  0
 21 24  1  0  0  0
 24 25  1  0  0  0
 25 26  1  0  0  0
 28 29  2  0  0  0
 26 27  1  0  0  0
 26 31  1  0  0  0
 27 29  1  0  0  0
 29 30  1  0  0  0
 31 32  1  0  0  0
 32 33  1  0  0  0
 33 34  1  0  0  0
 33 35  2  0  0  0
 15 17  1  0  0  0
 15 18  1  0  0  0
M  CHG 1  29   1
M  CHG 1  30  -1
M  CHG 1  33   1
M  CHG 1  34  -1
M  END
> <minimizedAffinity>
-6.99747

$$$$
3K2F_NKX_A_264


 35 36  0  0  0  0  0  0  0  0999 V2000
   -1.9501    9.2009   13.7940 C   0  0  0  0  0  0  0  0  0  0  0  0
    0.4740    6.2220   12.4347 O   0  0  0  0  0  0  0  0  0  0  0  0
   -1.2528    7.8451   13.8808 C   0  0  0  0  0  0  0  0  0  0  0  0
   -0.4675    7.3762   12.2997 S   0  0  0  0  0  0  0  0  0  0  0  0
   -1.8039    6.9471   11.2505 C   0  0  0  0  0  0  0  0  0  0  0  0
   -1.8052    6.8863    9.5848 S   0  0  0  0  0  0  0  0  0  0  0  0
   -3.3673    6.4635    9.4248 C   0  0  0  0  0  0  0  0  0  0  0  0
    0.2817    8.5524   11.7345 O   0  0  0  0  0  0  0  0  0  0  0  0
   -2.2545    6.7417   14.2270 C   0  0  0  0  0  0  0  0  0  0  0  0
   -3.4613    6.5963   13.2359 C   0  0  0  0  0  0  0  0  0  0  0  0
   -3.0995    6.6076   11.6991 C   0  0  0  0  0  0  0  0  0  0  0  0
   -3.9234    6.3506   10.6443 C   0  0  0  0  0  0  0  0  0  0  0  0
   -5.5666    6.1214    7.9105 O   0  0  0  0  0  0  0  0  0  0  0  0
   -4.0712    6.2135    7.8420 S   0  0  0  0  0  0  0  0  0  0  0  0
   -3.4942    4.9328    7.2913 N   0  0  0  0  0  0  0  0  0  0  0  0
   -3.6629    7.4535    6.9415 O   0  0  0  0  0  0  0  0  0  0  0  0
   -3.7703    4.1519    7.8866 H   0  0  0  0  0  0  0  0  0  0  0  0
   -2.4766    5.0002    7.2692 H   0  0  0  0  0  0  0  0  0  0  0  0
   -4.2021    5.3867   13.6913 N   0  0  0  0  0  0  0  0  0  0  0  0
   -2.3404    4.0859   13.8572 O   0  0  0  0  0  0  0  0  0  0  0  0
   -3.5597    4.2295   13.9481 C   0  0  0  0  0  0  0  0  0  0  0  0
   -5.6720    5.4991   13.8147 C   0  0  0  0  0  0  0  0  0  0  0  0
   -6.0112    6.4069   14.9827 C   0  0  0  0  0  0  0  0  0  0  0  0
   -4.2692    3.1344   14.3291 O   0  0  0  0  0  0  0  0  0  0  0  0
   -4.2458    2.0306   13.3183 C   0  0  0  0  0  0  0  0  0  0  0  0
   -4.2028    2.1944   11.7567 C   0  0  0  0  0  0  0  0  0  0  0  0
   -5.1443    1.3177   11.0670 O   0  0  0  0  0  0  0  0  0  0  0  0
   -4.3446   -0.9687   11.3501 O   0  0  0  0  0  0  0  0  0  0  0  0
   -4.6517    0.1573   10.5162 N   0  0  0  0  0  0  0  0  0  0  0  0
   -4.4049    0.0873    9.0824 O   0  0  0  0  0  0  0  0  0  0  0  0
   -2.7696    2.0734   11.1687 C   0  0  0  0  0  0  0  0  0  0  0  0
   -2.3985    3.2449   10.4218 O   0  0  0  0  0  0  0  0  0  0  0  0
   -1.0499    3.2620   10.2459 N   0  0  0  0  0  0  0  0  0  0  0  0
   -0.5100    3.4089    8.9334 O   0  0  0  0  0  0  0  0  0  0  0  0
   -0.1650    3.1355   11.3649 O   0  0  0  0  0  0  0  0  0  0  0  0
  1  3  1  0  0  0
  2  4  2  0  0  0
 13 14  2  0  0  0
  3  4  1  0  0  0
  3  9  1  0  0  0
  4  5  1  0  0  0
  4  8  2  0  0  0
  5  6  1  0  0  0
  5 11  2  0  0  0
  6  7  1  0  0  0
  7 14  1  0  0  0
  7 12  2  0  0  0
 14 15  1  0  0  0
 14 16  2  0  0  0
  9 10  1  0  0  0
 10 11  1  0  0  0
 10 19  1  0  0  0
 11 12  1  0  0  0
 19 22  1  0  0  0
 19 21  1  0  0  0
 22 23  1  0  0  0
 20 21  2  0  0  0
 21 24  1  0  0  0
 24 25  1  0  0  0
 25 26  1  0  0  0
 28 29  2  0  0  0
 26 27  1  0  0  0
 26 31  1  0  0  0
 27 29  1  0  0  0
 29 30  1  0  0  0
 31 32  1  0  0  0
 32 33  1  0  0  0
 33 34  1  0  0  0
 33 35  2  0  0  0
 15 17  1  0  0  0
 15 18  1  0  0  0
M  CHG 1  29   1
M  CHG 1  30  -1
M  CHG 1  33   1
M  CHG 1  34  -1
M  END
> <minimizedAffinity>
-6.83668

$$$$
3K2F_NKX_A_264


 35 36  0  0  0  0  0  0  0  0999 V2000
    1.7920    7.9799   11.4872 C   0  0  0  0  0  0  0  0  0  0  0  0
    3.8029    4.5370   12.3237 O   0  0  0  0  0  0  0  0  0  0  0  0
    1.9842    6.6291   12.1730 C   0  0  0  0  0  0  0  0  0  0  0  0
    3.3997    5.7048   11.4811 S   0  0  0  0  0  0  0  0  0  0  0  0
    2.8465    5.1559    9.9114 C   0  0  0  0  0  0  0  0  0  0  0  0
    3.7825    4.6788    8.6173 S   0  0  0  0  0  0  0  0  0  0  0  0
    2.5453    4.3810    7.6049 C   0  0  0  0  0  0  0  0  0  0  0  0
    4.5809    6.6239   11.3250 O   0  0  0  0  0  0  0  0  0  0  0  0
    0.7454    5.7493   11.9941 C   0  0  0  0  0  0  0  0  0  0  0  0
    0.3259    5.4758   10.5078 C   0  0  0  0  0  0  0  0  0  0  0  0
    1.4911    5.0658    9.5245 C   0  0  0  0  0  0  0  0  0  0  0  0
    1.3848    4.6320    8.2368 C   0  0  0  0  0  0  0  0  0  0  0  0
    1.5578    3.4516    5.2794 O   0  0  0  0  0  0  0  0  0  0  0  0
    2.8366    3.8098    5.9764 S   0  0  0  0  0  0  0  0  0  0  0  0
    3.7319    2.5997    6.0786 N   0  0  0  0  0  0  0  0  0  0  0  0
    3.5544    4.9820    5.1853 O   0  0  0  0  0  0  0  0  0  0  0  0
    3.2487    1.8615    6.5903 H   0  0  0  0  0  0  0  0  0  0  0  0
    4.5884    2.8512    6.5722 H   0  0  0  0  0  0  0  0  0  0  0  0
   -0.7935    4.4962   10.5879 N   0  0  0  0  0  0  0  0  0  0  0  0
   -2.2889    5.8423    9.5215 O   0  0  0  0  0  0  0  0  0  0  0  0
   -2.0127    4.7862   10.0908 C   0  0  0  0  0  0  0  0  0  0  0  0
   -0.5208    3.2099   11.2658 C   0  0  0  0  0  0  0  0  0  0  0  0
   -0.6377    2.0772   10.2625 C   0  0  0  0  0  0  0  0  0  0  0  0
   -3.0221    3.8837   10.2105 O   0  0  0  0  0  0  0  0  0  0  0  0
   -3.6791    3.9025   11.5554 C   0  0  0  0  0  0  0  0  0  0  0  0
   -3.9265    2.6659   12.4918 C   0  0  0  0  0  0  0  0  0  0  0  0
   -4.9633    1.7702   11.9886 O   0  0  0  0  0  0  0  0  0  0  0  0
   -4.2893   -0.5714   11.8890 O   0  0  0  0  0  0  0  0  0  0  0  0
   -4.5639    0.6820   11.2478 N   0  0  0  0  0  0  0  0  0  0  0  0
   -4.3822    0.8162    9.8088 O   0  0  0  0  0  0  0  0  0  0  0  0
   -4.1795    3.0618   13.9730 C   0  0  0  0  0  0  0  0  0  0  0  0
   -5.0582    2.1329   14.6310 O   0  0  0  0  0  0  0  0  0  0  0  0
   -4.3225    1.2539   15.3632 N   0  0  0  0  0  0  0  0  0  0  0  0
   -4.6288   -0.1386   15.3124 O   0  0  0  0  0  0  0  0  0  0  0  0
   -3.2415    1.7111   16.1840 O   0  0  0  0  0  0  0  0  0  0  0  0
  1  3  1  0  0  0
  2  4  2  0  0  0
 13 14  2  0  0  0
  3  4  1  0  0  0
  3  9  1  0  0  0
  4  5  1  0  0  0
  4  8  2  0  0  0
  5  6  1  0  0  0
  5 11  2  0  0  0
  6  7  1  0  0  0
  7 14  1  0  0  0
  7 12  2  0  0  0
 14 15  1  0  0  0
 14 16  2  0  0  0
  9 10  1  0  0  0
 10 11  1  0  0  0
 10 19  1  0  0  0
 11 12  1  0  0  0
 19 22  1  0  0  0
 19 21  1  0  0  0
 22 23  1  0  0  0
 20 21  2  0  0  0
 21 24  1  0  0  0
 24 25  1  0  0  0
 25 26  1  0  0  0
 28 29  2  0  0  0
 26 27  1  0  0  0
 26 31  1  0  0  0
 27 29  1  0  0  0
 29 30  1  0  0  0
 31 32  1  0  0  0
 32 33  1  0  0  0
 33 34  1  0  0  0
 33 35  2  0  0  0
 15 17  1  0  0  0
 15 18  1  0  0  0
M  CHG 1  29   1
M  CHG 1  30  -1
M  CHG 1  33   1
M  CHG 1  34  -1
M  END
> <minimizedAffinity>
-6.79543

$$$$
3K2F_NKX_A_264


 35 36  0  0  0  0  0  0  0  0999 V2000
    1.6442    7.8622   11.3938 C   0  0  0  0  0  0  0  0  0  0  0  0
    3.6169    4.4010   12.2458 O   0  0  0  0  0  0  0  0  0  0  0  0
    1.8209    6.5119   12.0847 C   0  0  0  0  0  0  0  0  0  0  0  0
    3.2275    5.5701   11.3983 S   0  0  0  0  0  0  0  0  0  0  0  0
    2.6710    5.0215    9.8298 C   0  0  0  0  0  0  0  0  0  0  0  0
    3.6039    4.5298    8.5389 S   0  0  0  0  0  0  0  0  0  0  0  0
    2.3652    4.2417    7.5255 C   0  0  0  0  0  0  0  0  0  0  0  0
    4.4187    6.4760   11.2409 O   0  0  0  0  0  0  0  0  0  0  0  0
    0.5731    5.6447   11.9069 C   0  0  0  0  0  0  0  0  0  0  0  0
    0.1530    5.3704   10.4210 C   0  0  0  0  0  0  0  0  0  0  0  0
    1.3153    4.9445    9.4410 C   0  0  0  0  0  0  0  0  0  0  0  0
    1.2064    4.5073    8.1547 C   0  0  0  0  0  0  0  0  0  0  0  0
    3.2987    4.7111    5.0445 O   0  0  0  0  0  0  0  0  0  0  0  0
    2.6529    3.6617    5.8995 S   0  0  0  0  0  0  0  0  0  0  0  0
    1.3165    3.2670    5.3208 N   0  0  0  0  0  0  0  0  0  0  0  0
    3.6172    2.4074    6.0084 O   0  0  0  0  0  0  0  0  0  0  0  0
    0.7157    4.0890    5.2610 H   0  0  0  0  0  0  0  0  0  0  0  0
    0.8787    2.5687    5.9217 H   0  0  0  0  0  0  0  0  0  0  0  0
   -0.9769    4.4031   10.5027 N   0  0  0  0  0  0  0  0  0  0  0  0
   -2.3450    5.6068    9.1371 O   0  0  0  0  0  0  0  0  0  0  0  0
   -2.1369    4.6272    9.8531 C   0  0  0  0  0  0  0  0  0  0  0  0
   -0.7852    3.2078   11.3530 C   0  0  0  0  0  0  0  0  0  0  0  0
   -0.8563    1.9604   10.4916 C   0  0  0  0  0  0  0  0  0  0  0  0
   -3.1608    3.7415    9.9760 O   0  0  0  0  0  0  0  0  0  0  0  0
   -3.9822    3.9511   11.2097 C   0  0  0  0  0  0  0  0  0  0  0  0
   -4.5324    2.8337   12.1669 C   0  0  0  0  0  0  0  0  0  0  0  0
   -3.6768    2.6078   13.3278 O   0  0  0  0  0  0  0  0  0  0  0  0
   -3.6838    1.7992   15.6285 O   0  0  0  0  0  0  0  0  0  0  0  0
   -4.2773    2.5561   14.5644 N   0  0  0  0  0  0  0  0  0  0  0  0
   -5.5433    3.2432   14.7809 O   0  0  0  0  0  0  0  0  0  0  0  0
   -4.8625    1.5060   11.4302 C   0  0  0  0  0  0  0  0  0  0  0  0
   -4.0603    0.4143   11.9126 O   0  0  0  0  0  0  0  0  0  0  0  0
   -3.6799   -0.3660   10.8655 N   0  0  0  0  0  0  0  0  0  0  0  0
   -3.7847    0.1369    9.5345 O   0  0  0  0  0  0  0  0  0  0  0  0
   -3.1734   -1.6877   11.0847 O   0  0  0  0  0  0  0  0  0  0  0  0
  1  3  1  0  0  0
  2  4  2  0  0  0
 13 14  2  0  0  0
  3  4  1  0  0  0
  3  9  1  0  0  0
  4  5  1  0  0  0
  4  8  2  0  0  0
  5  6  1  0  0  0
  5 11  2  0  0  0
  6  7  1  0  0  0
  7 14  1  0  0  0
  7 12  2  0  0  0
 14 15  1  0  0  0
 14 16  2  0  0  0
  9 10  1  0  0  0
 10 11  1  0  0  0
 10 19  1  0  0  0
 11 12  1  0  0  0
 19 22  1  0  0  0
 19 21  1  0  0  0
 22 23  1  0  0  0
 20 21  2  0  0  0
 21 24  1  0  0  0
 24 25  1  0  0  0
 25 26  1  0  0  0
 28 29  2  0  0  0
 26 27  1  0  0  0
 26 31  1  0  0  0
 27 29  1  0  0  0
 29 30  1  0  0  0
 31 32  1  0  0  0
 32 33  1  0  0  0
 33 34  1  0  0  0
 33 35  2  0  0  0
 15 17  1  0  0  0
 15 18  1  0  0  0
M  CHG 1  29   1
M  CHG 1  30  -1
M  CHG 1  33   1
M  CHG 1  34  -1
M  END
> <minimizedAffinity>
-6.72235

$$$$
3K2F_NKX_A_264


 35 36  0  0  0  0  0  0  0  0999 V2000
   -3.7775    6.1290   14.4651 C   0  0  0  0  0  0  0  0  0  0  0  0
   -6.3283    6.0610   11.2892 O   0  0  0  0  0  0  0  0  0  0  0  0
   -4.3272    6.6243   13.1292 C   0  0  0  0  0  0  0  0  0  0  0  0
   -5.5515    5.4682   12.4212 S   0  0  0  0  0  0  0  0  0  0  0  0
   -4.6021    4.1078   11.8564 C   0  0  0  0  0  0  0  0  0  0  0  0
   -5.1349    2.5587   11.5485 S   0  0  0  0  0  0  0  0  0  0  0  0
   -3.6858    1.9545   11.1248 C   0  0  0  0  0  0  0  0  0  0  0  0
   -6.5117    5.0247   13.4916 O   0  0  0  0  0  0  0  0  0  0  0  0
   -3.2035    6.7702   12.1013 C   0  0  0  0  0  0  0  0  0  0  0  0
   -2.3748    5.4678   11.8241 C   0  0  0  0  0  0  0  0  0  0  0  0
   -3.2132    4.1485   11.6025 C   0  0  0  0  0  0  0  0  0  0  0  0
   -2.7602    2.9274   11.2010 C   0  0  0  0  0  0  0  0  0  0  0  0
   -2.0768   -0.1358   10.5878 O   0  0  0  0  0  0  0  0  0  0  0  0
   -3.5169    0.2784   10.6504 S   0  0  0  0  0  0  0  0  0  0  0  0
   -4.1623    0.1283    9.2949 N   0  0  0  0  0  0  0  0  0  0  0  0
   -4.2682   -0.5989   11.7371 O   0  0  0  0  0  0  0  0  0  0  0  0
   -3.6621    0.7009    8.6149 H   0  0  0  0  0  0  0  0  0  0  0  0
   -5.1346    0.4324    9.3457 H   0  0  0  0  0  0  0  0  0  0  0  0
   -1.4560    5.8159   10.7044 N   0  0  0  0  0  0  0  0  0  0  0  0
    0.3322    4.7183   11.5895 O   0  0  0  0  0  0  0  0  0  0  0  0
   -0.1698    5.4114   10.7045 C   0  0  0  0  0  0  0  0  0  0  0  0
   -2.0037    6.6517    9.6135 C   0  0  0  0  0  0  0  0  0  0  0  0
   -2.5197    5.7552    8.5029 C   0  0  0  0  0  0  0  0  0  0  0  0
    0.6516    5.7749    9.6842 O   0  0  0  0  0  0  0  0  0  0  0  0
    1.3905    4.6230    9.0777 C   0  0  0  0  0  0  0  0  0  0  0  0
    2.9346    4.5457    8.7997 C   0  0  0  0  0  0  0  0  0  0  0  0
    3.4036    3.1822    8.5725 O   0  0  0  0  0  0  0  0  0  0  0  0
    4.0981    2.2755    6.4177 O   0  0  0  0  0  0  0  0  0  0  0  0
    4.3844    2.9926    7.6266 N   0  0  0  0  0  0  0  0  0  0  0  0
    5.7309    3.4902    7.8738 O   0  0  0  0  0  0  0  0  0  0  0  0
    3.7866    5.2739    9.8759 C   0  0  0  0  0  0  0  0  0  0  0  0
    3.6243    4.6809   11.1760 O   0  0  0  0  0  0  0  0  0  0  0  0
    3.5954    5.6597   12.1201 N   0  0  0  0  0  0  0  0  0  0  0  0
    2.8443    6.8491   11.8823 O   0  0  0  0  0  0  0  0  0  0  0  0
    4.3100    5.5085   13.3520 O   0  0  0  0  0  0  0  0  0  0  0  0
  1  3  1  0  0  0
  2  4  2  0  0  0
 13 14  2  0  0  0
  3  4  1  0  0  0
  3  9  1  0  0  0
  4  5  1  0  0  0
  4  8  2  0  0  0
  5  6  1  0  0  0
  5 11  2  0  0  0
  6  7  1  0  0  0
  7 14  1  0  0  0
  7 12  2  0  0  0
 14 15  1  0  0  0
 14 16  2  0  0  0
  9 10  1  0  0  0
 10 11  1  0  0  0
 10 19  1  0  0  0
 11 12  1  0  0  0
 19 22  1  0  0  0
 19 21  1  0  0  0
 22 23  1  0  0  0
 20 21  2  0  0  0
 21 24  1  0  0  0
 24 25  1  0  0  0
 25 26  1  0  0  0
 28 29  2  0  0  0
 26 27  1  0  0  0
 26 31  1  0  0  0
 27 29  1  0  0  0
 29 30  1  0  0  0
 31 32  1  0  0  0
 32 33  1  0  0  0
 33 34  1  0  0  0
 33 35  2  0  0  0
 15 17  1  0  0  0
 15 18  1  0  0  0
M  CHG 1  29   1
M  CHG 1  30  -1
M  CHG 1  33   1
M  CHG 1  34  -1
M  END
> <minimizedAffinity>
-6.68511

$$$$
3K2F_NKX_A_264


 35 36  0  0  0  0  0  0  0  0999 V2000
    3.2224    7.0564   10.3050 C   0  0  0  0  0  0  0  0  0  0  0  0
    2.4617    3.1763    9.3234 O   0  0  0  0  0  0  0  0  0  0  0  0
    2.9323    5.5892   10.6134 C   0  0  0  0  0  0  0  0  0  0  0  0
    2.4489    4.6576    9.1183 S   0  0  0  0  0  0  0  0  0  0  0  0
    0.8229    5.2048    8.7610 C   0  0  0  0  0  0  0  0  0  0  0  0
    0.0160    5.1017    7.3061 S   0  0  0  0  0  0  0  0  0  0  0  0
   -1.3452    5.8372    7.8066 C   0  0  0  0  0  0  0  0  0  0  0  0
    3.3752    5.0003    7.9829 O   0  0  0  0  0  0  0  0  0  0  0  0
    1.7794    5.4627   11.6110 C   0  0  0  0  0  0  0  0  0  0  0  0
    0.4327    6.1338   11.1685 C   0  0  0  0  0  0  0  0  0  0  0  0
   -0.0307    5.8437    9.6874 C   0  0  0  0  0  0  0  0  0  0  0  0
   -1.2174    6.1721    9.1031 C   0  0  0  0  0  0  0  0  0  0  0  0
   -3.4609    7.3162    7.0428 O   0  0  0  0  0  0  0  0  0  0  0  0
   -2.6921    6.0711    6.7139 S   0  0  0  0  0  0  0  0  0  0  0  0
   -3.5839    4.8600    6.8349 N   0  0  0  0  0  0  0  0  0  0  0  0
   -2.0970    6.1938    5.2490 O   0  0  0  0  0  0  0  0  0  0  0  0
   -3.9534    4.8034    7.7839 H   0  0  0  0  0  0  0  0  0  0  0  0
   -3.0447    4.0189    6.6292 H   0  0  0  0  0  0  0  0  0  0  0  0
   -0.5582    5.7570   12.2150 N   0  0  0  0  0  0  0  0  0  0  0  0
   -0.6356    3.5631   11.6098 O   0  0  0  0  0  0  0  0  0  0  0  0
   -1.0112    4.4920   12.3252 C   0  0  0  0  0  0  0  0  0  0  0  0
   -1.0492    6.8342   13.1022 C   0  0  0  0  0  0  0  0  0  0  0  0
   -2.0935    7.6547   12.3677 C   0  0  0  0  0  0  0  0  0  0  0  0
   -1.9411    4.1883   13.2690 O   0  0  0  0  0  0  0  0  0  0  0  0
   -3.3184    4.0108   12.7102 C   0  0  0  0  0  0  0  0  0  0  0  0
   -4.3378    2.8745   13.0804 C   0  0  0  0  0  0  0  0  0  0  0  0
   -3.7774    1.8839   13.9944 O   0  0  0  0  0  0  0  0  0  0  0  0
   -3.5932    1.0758   16.2880 O   0  0  0  0  0  0  0  0  0  0  0  0
   -4.2469    1.8690   15.2874 N   0  0  0  0  0  0  0  0  0  0  0  0
   -5.4380    2.6337   15.6313 O   0  0  0  0  0  0  0  0  0  0  0  0
   -4.9860    2.2059   11.8366 C   0  0  0  0  0  0  0  0  0  0  0  0
   -4.0053    1.8673   10.8408 O   0  0  0  0  0  0  0  0  0  0  0  0
   -4.1736    0.5721   10.4609 N   0  0  0  0  0  0  0  0  0  0  0  0
   -4.4523    0.2667    9.0954 O   0  0  0  0  0  0  0  0  0  0  0  0
   -4.0726   -0.4894   11.4170 O   0  0  0  0  0  0  0  0  0  0  0  0
  1  3  1  0  0  0
  2  4  2  0  0  0
 13 14  2  0  0  0
  3  4  1  0  0  0
  3  9  1  0  0  0
  4  5  1  0  0  0
  4  8  2  0  0  0
  5  6  1  0  0  0
  5 11  2  0  0  0
  6  7  1  0  0  0
  7 14  1  0  0  0
  7 12  2  0  0  0
 14 15  1  0  0  0
 14 16  2  0  0  0
  9 10  1  0  0  0
 10 11  1  0  0  0
 10 19  1  0  0  0
 11 12  1  0  0  0
 19 22  1  0  0  0
 19 21  1  0  0  0
 22 23  1  0  0  0
 20 21  2  0  0  0
 21 24  1  0  0  0
 24 25  1  0  0  0
 25 26  1  0  0  0
 28 29  2  0  0  0
 26 27  1  0  0  0
 26 31  1  0  0  0
 27 29  1  0  0  0
 29 30  1  0  0  0
 31 32  1  0  0  0
 32 33  1  0  0  0
 33 34  1  0  0  0
 33 35  2  0  0  0
 15 17  1  0  0  0
 15 18  1  0  0  0
M  CHG 1  29   1
M  CHG 1  30  -1
M  CHG 1  33   1
M  CHG 1  34  -1
M  END
> <minimizedAffinity>
-6.67926

$$$$
3K2F_NKX_A_264


 35 36  0  0  0  0  0  0  0  0999 V2000
    2.9798    6.5550   10.6313 C   0  0  0  0  0  0  0  0  0  0  0  0
    2.9568    3.0966    8.4780 O   0  0  0  0  0  0  0  0  0  0  0  0
    2.9363    5.0379   10.4626 C   0  0  0  0  0  0  0  0  0  0  0  0
    2.6950    4.5491    8.7192 S   0  0  0  0  0  0  0  0  0  0  0  0
    1.0173    4.9257    8.3809 C   0  0  0  0  0  0  0  0  0  0  0  0
    0.3111    5.1535    6.8883 S   0  0  0  0  0  0  0  0  0  0  0  0
   -1.1800    5.4835    7.4470 C   0  0  0  0  0  0  0  0  0  0  0  0
    3.6002    5.3610    7.8326 O   0  0  0  0  0  0  0  0  0  0  0  0
    1.7770    4.4370   11.2598 C   0  0  0  0  0  0  0  0  0  0  0  0
    0.3564    4.9986   10.9047 C   0  0  0  0  0  0  0  0  0  0  0  0
    0.0220    5.1111    9.3658 C   0  0  0  0  0  0  0  0  0  0  0  0
   -1.1746    5.4188    8.7905 C   0  0  0  0  0  0  0  0  0  0  0  0
   -2.9222    7.2688    6.4350 O   0  0  0  0  0  0  0  0  0  0  0  0
   -2.4934    5.8344    6.3449 S   0  0  0  0  0  0  0  0  0  0  0  0
   -3.6399    4.9233    6.7082 N   0  0  0  0  0  0  0  0  0  0  0  0
   -1.9726    5.5339    4.8774 O   0  0  0  0  0  0  0  0  0  0  0  0
   -3.9563    5.1358    7.6543 H   0  0  0  0  0  0  0  0  0  0  0  0
   -3.3301    3.9525    6.6633 H   0  0  0  0  0  0  0  0  0  0  0  0
   -0.6021    4.1722   11.6904 N   0  0  0  0  0  0  0  0  0  0  0  0
   -1.7929    5.9555   12.4570 O   0  0  0  0  0  0  0  0  0  0  0  0
   -1.5892    4.7422   12.4105 C   0  0  0  0  0  0  0  0  0  0  0  0
   -0.4034    2.7063   11.6753 C   0  0  0  0  0  0  0  0  0  0  0  0
   -1.1720    2.1059   10.5125 C   0  0  0  0  0  0  0  0  0  0  0  0
   -2.4262    3.9616   13.1439 O   0  0  0  0  0  0  0  0  0  0  0  0
   -3.8345    3.9612   12.6367 C   0  0  0  0  0  0  0  0  0  0  0  0
   -4.3055    4.3390   11.1866 C   0  0  0  0  0  0  0  0  0  0  0  0
   -5.4992    5.1791   11.1775 O   0  0  0  0  0  0  0  0  0  0  0  0
   -4.3502    6.7672    9.7265 O   0  0  0  0  0  0  0  0  0  0  0  0
   -5.5561    6.1993   10.2564 N   0  0  0  0  0  0  0  0  0  0  0  0
   -6.8492    6.7307    9.8475 O   0  0  0  0  0  0  0  0  0  0  0  0
   -4.4645    3.1057   10.2548 C   0  0  0  0  0  0  0  0  0  0  0  0
   -5.3149    2.1030   10.8373 O   0  0  0  0  0  0  0  0  0  0  0  0
   -4.6892    0.8961   10.7921 N   0  0  0  0  0  0  0  0  0  0  0  0
   -4.4104    0.1986   12.0051 O   0  0  0  0  0  0  0  0  0  0  0  0
   -4.3082    0.3165    9.5390 O   0  0  0  0  0  0  0  0  0  0  0  0
  1  3  1  0  0  0
  2  4  2  0  0  0
 13 14  2  0  0  0
  3  4  1  0  0  0
  3  9  1  0  0  0
  4  5  1  0  0  0
  4  8  2  0  0  0
  5  6  1  0  0  0
  5 11  2  0  0  0
  6  7  1  0  0  0
  7 14  1  0  0  0
  7 12  2  0  0  0
 14 15  1  0  0  0
 14 16  2  0  0  0
  9 10  1  0  0  0
 10 11  1  0  0  0
 10 19  1  0  0  0
 11 12  1  0  0  0
 19 22  1  0  0  0
 19 21  1  0  0  0
 22 23  1  0  0  0
 20 21  2  0  0  0
 21 24  1  0  0  0
 24 25  1  0  0  0
 25 26  1  0  0  0
 28 29  2  0  0  0
 26 27  1  0  0  0
 26 31  1  0  0  0
 27 29  1  0  0  0
 29 30  1  0  0  0
 31 32  1  0  0  0
 32 33  1  0  0  0
 33 34  1  0  0  0
 33 35  2  0  0  0
 15 17  1  0  0  0
 15 18  1  0  0  0
M  CHG 1  29   1
M  CHG 1  30  -1
M  CHG 1  33   1
M  CHG 1  34  -1
M  END
> <minimizedAffinity>
-6.66021

$$$$
3K2F_NKX_A_264


 35 36  0  0  0  0  0  0  0  0999 V2000
    1.6819    7.4554   10.1030 C   0  0  0  0  0  0  0  0  0  0  0  0
    1.2470    4.3171    7.5418 O   0  0  0  0  0  0  0  0  0  0  0  0
    1.7267    5.9797    9.7128 C   0  0  0  0  0  0  0  0  0  0  0  0
    0.9480    5.6767    8.0885 S   0  0  0  0  0  0  0  0  0  0  0  0
   -0.7714    5.8459    8.3822 C   0  0  0  0  0  0  0  0  0  0  0  0
   -1.9659    6.1491    7.2599 S   0  0  0  0  0  0  0  0  0  0  0  0
   -3.1980    6.1905    8.3202 C   0  0  0  0  0  0  0  0  0  0  0  0
    1.4120    6.7121    7.1000 O   0  0  0  0  0  0  0  0  0  0  0  0
    0.9745    5.1257   10.7353 C   0  0  0  0  0  0  0  0  0  0  0  0
   -0.5279    5.5158   10.9596 C   0  0  0  0  0  0  0  0  0  0  0  0
   -1.3801    5.7650    9.6541 C   0  0  0  0  0  0  0  0  0  0  0  0
   -2.7249    5.9646    9.5589 C   0  0  0  0  0  0  0  0  0  0  0  0
   -5.2481    7.9054    7.9989 O   0  0  0  0  0  0  0  0  0  0  0  0
   -4.8373    6.4797    7.7796 S   0  0  0  0  0  0  0  0  0  0  0  0
   -5.7369    5.5518    8.5581 N   0  0  0  0  0  0  0  0  0  0  0  0
   -4.8887    6.1517    6.2289 O   0  0  0  0  0  0  0  0  0  0  0  0
   -5.6864    5.7825    9.5504 H   0  0  0  0  0  0  0  0  0  0  0  0
   -5.4347    4.5879    8.4173 H   0  0  0  0  0  0  0  0  0  0  0  0
   -1.0751    4.4706   11.8691 N   0  0  0  0  0  0  0  0  0  0  0  0
   -2.3585    5.9238   13.0636 O   0  0  0  0  0  0  0  0  0  0  0  0
   -1.9396    4.7851   12.8548 C   0  0  0  0  0  0  0  0  0  0  0  0
   -0.6035    3.0829   11.6678 C   0  0  0  0  0  0  0  0  0  0  0  0
   -1.5863    2.3407   10.7810 C   0  0  0  0  0  0  0  0  0  0  0  0
   -2.3939    3.8129   13.6892 O   0  0  0  0  0  0  0  0  0  0  0  0
   -3.8449    3.4979   13.4995 C   0  0  0  0  0  0  0  0  0  0  0  0
   -4.9100    3.2812   14.6335 C   0  0  0  0  0  0  0  0  0  0  0  0
   -5.2526    1.8760   14.8306 O   0  0  0  0  0  0  0  0  0  0  0  0
   -3.3151    1.5784   16.2814 O   0  0  0  0  0  0  0  0  0  0  0  0
   -4.6348    1.2056   15.8608 N   0  0  0  0  0  0  0  0  0  0  0  0
   -5.3113    0.0857   16.5010 O   0  0  0  0  0  0  0  0  0  0  0  0
   -6.1781    4.1618   14.4572 C   0  0  0  0  0  0  0  0  0  0  0  0
   -6.5331    4.3151   13.0722 O   0  0  0  0  0  0  0  0  0  0  0  0
   -6.5600    5.6375   12.7549 N   0  0  0  0  0  0  0  0  0  0  0  0
   -6.3080    6.0475   11.4118 O   0  0  0  0  0  0  0  0  0  0  0  0
   -6.8405    6.6237   13.7549 O   0  0  0  0  0  0  0  0  0  0  0  0
  1  3  1  0  0  0
  2  4  2  0  0  0
 13 14  2  0  0  0
  3  4  1  0  0  0
  3  9  1  0  0  0
  4  5  1  0  0  0
  4  8  2  0  0  0
  5  6  1  0  0  0
  5 11  2  0  0  0
  6  7  1  0  0  0
  7 14  1  0  0  0
  7 12  2  0  0  0
 14 15  1  0  0  0
 14 16  2  0  0  0
  9 10  1  0  0  0
 10 11  1  0  0  0
 10 19  1  0  0  0
 11 12  1  0  0  0
 19 22  1  0  0  0
 19 21  1  0  0  0
 22 23  1  0  0  0
 20 21  2  0  0  0
 21 24  1  0  0  0
 24 25  1  0  0  0
 25 26  1  0  0  0
 28 29  2  0  0  0
 26 27  1  0  0  0
 26 31  1  0  0  0
 27 29  1  0  0  0
 29 30  1  0  0  0
 31 32  1  0  0  0
 32 33  1  0  0  0
 33 34  1  0  0  0
 33 35  2  0  0  0
 15 17  1  0  0  0
 15 18  1  0  0  0
M  CHG 1  29   1
M  CHG 1  30  -1
M  CHG 1  33   1
M  CHG 1  34  -1
M  END
> <minimizedAffinity>
-6.63941

$$$$
3K2F_NKX_A_264


 35 36  0  0  0  0  0  0  0  0999 V2000
   -1.8991    9.7934   13.8210 C   0  0  0  0  0  0  0  0  0  0  0  0
    0.7792    7.0162   12.5128 O   0  0  0  0  0  0  0  0  0  0  0  0
   -1.0623    8.5219   13.9442 C   0  0  0  0  0  0  0  0  0  0  0  0
   -0.2808    8.0599   12.3592 S   0  0  0  0  0  0  0  0  0  0  0  0
   -1.5966    7.4459   11.3780 C   0  0  0  0  0  0  0  0  0  0  0  0
   -1.6421    7.3047    9.7178 S   0  0  0  0  0  0  0  0  0  0  0  0
   -3.1559    6.7170    9.6320 C   0  0  0  0  0  0  0  0  0  0  0  0
    0.3245    9.2780   11.7155 O   0  0  0  0  0  0  0  0  0  0  0  0
   -1.9329    7.3398   14.3747 C   0  0  0  0  0  0  0  0  0  0  0  0
   -3.1475    7.0238   13.4342 C   0  0  0  0  0  0  0  0  0  0  0  0
   -2.8357    6.9976   11.8867 C   0  0  0  0  0  0  0  0  0  0  0  0
   -3.6600    6.6068   10.8741 C   0  0  0  0  0  0  0  0  0  0  0  0
   -5.3462    6.6242    8.0696 O   0  0  0  0  0  0  0  0  0  0  0  0
   -3.8777    6.3198    8.0878 S   0  0  0  0  0  0  0  0  0  0  0  0
   -3.6468    4.8479    7.8497 N   0  0  0  0  0  0  0  0  0  0  0  0
   -3.1470    7.1947    6.9852 O   0  0  0  0  0  0  0  0  0  0  0  0
   -4.1257    4.3077    8.5703 H   0  0  0  0  0  0  0  0  0  0  0  0
   -2.6468    4.6505    7.8851 H   0  0  0  0  0  0  0  0  0  0  0  0
   -3.7444    5.7681   13.9693 N   0  0  0  0  0  0  0  0  0  0  0  0
   -1.9248    4.4849   13.4921 O   0  0  0  0  0  0  0  0  0  0  0  0
   -3.0684    4.6022   13.9327 C   0  0  0  0  0  0  0  0  0  0  0  0
   -5.1198    5.8479   14.5083 C   0  0  0  0  0  0  0  0  0  0  0  0
   -6.1112    5.8550   13.3593 C   0  0  0  0  0  0  0  0  0  0  0  0
   -3.6548    3.4676   14.3981 O   0  0  0  0  0  0  0  0  0  0  0  0
   -4.2763    2.6353   13.3203 C   0  0  0  0  0  0  0  0  0  0  0  0
   -3.5636    1.5228   12.4707 C   0  0  0  0  0  0  0  0  0  0  0  0
   -2.4409    2.0349   11.6910 O   0  0  0  0  0  0  0  0  0  0  0  0
   -4.0786    3.0152   10.1731 O   0  0  0  0  0  0  0  0  0  0  0  0
   -2.7253    2.8469   10.6176 N   0  0  0  0  0  0  0  0  0  0  0  0
   -1.6400    3.5080    9.9056 O   0  0  0  0  0  0  0  0  0  0  0  0
   -4.5467    0.7022   11.5906 C   0  0  0  0  0  0  0  0  0  0  0  0
   -4.3390   -0.7133   11.7363 O   0  0  0  0  0  0  0  0  0  0  0  0
   -3.4261   -1.1342   10.8201 N   0  0  0  0  0  0  0  0  0  0  0  0
   -3.3107   -0.4520    9.5724 O   0  0  0  0  0  0  0  0  0  0  0  0
   -2.5774   -2.2546   11.0951 O   0  0  0  0  0  0  0  0  0  0  0  0
  1  3  1  0  0  0
  2  4  2  0  0  0
 13 14  2  0  0  0
  3  4  1  0  0  0
  3  9  1  0  0  0
  4  5  1  0  0  0
  4  8  2  0  0  0
  5  6  1  0  0  0
  5 11  2  0  0  0
  6  7  1  0  0  0
  7 14  1  0  0  0
  7 12  2  0  0  0
 14 15  1  0  0  0
 14 16  2  0  0  0
  9 10  1  0  0  0
 10 11  1  0  0  0
 10 19  1  0  0  0
 11 12  1  0  0  0
 19 22  1  0  0  0
 19 21  1  0  0  0
 22 23  1  0  0  0
 20 21  2  0  0  0
 21 24  1  0  0  0
 24 25  1  0  0  0
 25 26  1  0  0  0
 28 29  2  0  0  0
 26 27  1  0  0  0
 26 31  1  0  0  0
 27 29  1  0  0  0
 29 30  1  0  0  0
 31 32  1  0  0  0
 32 33  1  0  0  0
 33 34  1  0  0  0
 33 35  2  0  0  0
 15 17  1  0  0  0
 15 18  1  0  0  0
M  CHG 1  29   1
M  CHG 1  30  -1
M  CHG 1  33   1
M  CHG 1  34  -1
M  END
> <minimizedAffinity>
-6.60392

$$$$
