3K2F_NKX_A_264
  RCSB PDB12061709223D
Coordinates from PDB:3K2F:A:264 Model:1 without hydrogens
 33 34  0  0  0  0            999 V2000
   -3.2360    6.7890   14.1940   C 0  0  0  0  0  0  0  0  0  0  0  0
   -7.0170    5.9590   12.9240   O 0  0  0  0  0  0  0  0  0  0  0  0
   -5.2880    1.0350   18.1010   O 0  0  0  0  0  0  0  0  0  0  0  0
   -4.2970    6.4700   13.1430   C 0  0  0  0  0  0  0  0  0  0  0  0
   -5.8840    5.9750   13.9000   S 0  0  0  0  0  0  0  0  0  0  0  0
   -5.5960    4.3610   14.5190   C 0  0  0  0  0  0  0  0  0  0  0  0
   -6.4610    3.5580   15.6960   S 0  0  0  0  0  0  0  0  0  0  0  0
   -5.5530    2.2090   15.6930   C 0  0  0  0  0  0  0  0  0  0  0  0
   -5.9310    0.8710   16.7560   S 0  0  0  0  0  0  0  0  0  0  0  0
   -5.4320   -0.3870   16.0890   N 0  0  0  0  0  0  0  0  0  0  0  0
   -6.2250    6.9120   15.0270   O 0  0  0  0  0  0  0  0  0  0  0  0
   -7.5070    0.8350   16.9290   O 0  0  0  0  0  0  0  0  0  0  0  0
   -3.8460    5.3110   12.2520   C 0  0  0  0  0  0  0  0  0  0  0  0
   -3.5040    3.9790   13.0060   C 0  0  0  0  0  0  0  0  0  0  0  0
   -4.5450    3.5160   14.0990   C 0  0  0  0  0  0  0  0  0  0  0  0
   -4.5700    2.3380   14.7840   C 0  0  0  0  0  0  0  0  0  0  0  0
   -3.2390    2.9770   11.9360   N 0  0  0  0  0  0  0  0  0  0  0  0
   -4.3770    2.1420   11.4930   C 0  0  0  0  0  0  0  0  0  0  0  0
   -5.1720    2.8920   10.4400   C 0  0  0  0  0  0  0  0  0  0  0  0
   -1.0430    3.5340   11.7060   O 0  0  0  0  0  0  0  0  0  0  0  0
   -2.0190    2.8610   11.3740   C 0  0  0  0  0  0  0  0  0  0  0  0
   -1.8190    1.9600   10.3760   O 0  0  0  0  0  0  0  0  0  0  0  0
   -0.5590    2.1990    9.6040   C 0  0  0  0  0  0  0  0  0  0  0  0
   -0.4810    4.5570    6.6470   O 0  0  0  0  0  0  0  0  0  0  0  0
    0.1840    3.5720    9.4300   C 0  0  0  0  0  0  0  0  0  0  0  0
   -0.7160    4.6640    9.0720   O 0  0  0  0  0  0  0  0  0  0  0  0
   -1.2960    4.6320    7.8250   N 0  3  0  0  0  0  0  0  0  0  0  0
   -2.7450    4.7140    7.7010   O 0  5  0  0  0  0  0  0  0  0  0  0
    1.4000    3.4910    8.4660   C 0  0  0  0  0  0  0  0  0  0  0  0
    2.6230    3.8780    9.1160   O 0  0  0  0  0  0  0  0  0  0  0  0
    3.6180    3.9680    8.1930   N 0  3  0  0  0  0  0  0  0  0  0  0
    3.8240    5.1940    7.4930   O 0  5  0  0  0  0  0  0  0  0  0  0
    4.4630    2.8450    7.9170   O 0  0  0  0  0  0  0  0  0  0  0  0
  1  4  1  0  0  0  0
  2  5  2  0  0  0  0
  3  9  2  0  0  0  0
  4  5  1  0  0  0  0
  4 13  1  0  0  0  0
  5  6  1  0  0  0  0
  5 11  2  0  0  0  0
  6  7  1  0  0  0  0
  6 15  2  0  0  0  0
  7  8  1  0  0  0  0
  8  9  1  0  0  0  0
  8 16  2  0  0  0  0
  9 10  1  0  0  0  0
  9 12  2  0  0  0  0
 13 14  1  0  0  0  0
 14 15  1  0  0  0  0
 14 17  1  0  0  0  0
 15 16  1  0  0  0  0
 17 18  1  0  0  0  0
 17 21  1  0  0  0  0
 18 19  1  0  0  0  0
 20 21  2  0  0  0  0
 21 22  1  0  0  0  0
 22 23  1  0  0  0  0
 23 25  1  0  0  0  0
 24 27  2  0  0  0  0
 25 26  1  0  0  0  0
 25 29  1  0  0  0  0
 26 27  1  0  0  0  0
 27 28  1  0  0  0  0
 29 30  1  0  0  0  0
 30 31  1  0  0  0  0
 31 32  1  0  0  0  0
 31 33  2  0  0  0  0
M  CHG  4  27   1  28  -1  31   1  32  -1
A    1
CAA
A    2
OAB
A    3
OAC
A    4
CAD
A    5
SAE
A    6
CAF
A    7
SAG
A    8
CAH
A    9
SAI
A   10
NAJ
A   11
OAK
A   12
OAL
A   13
CAM
A   14
CAN
A   15
CAO
A   16
CAP
A   17
NAQ
A   18
CAR
A   19
CAS
A   20
OAT
A   21
CAU
A   22
OAV
A   23
CAW
A   24
OAX
A   25
CAY
A   26
OAZ
A   27
NBA
A   28
OBB
A   29
CBC
A   30
OBD
A   31
NBE
A   32
OBF
A   33
OBG
M  END
>  <InstanceId>
3K2F_NKX_A_264

>  <ChemCompId>
NKX

>  <PdbId>
3K2F

>  <ChainId>
A

>  <ResidueNumber>
264

>  <InsertionCode>


>  <Model>
1

>  <AltIds>


>  <MissingHeavyAtoms>
0

>  <ObservedFormula>
C14 N4 O12 S3

>  <Name>
(2S)-2,3-bis(nitrooxy)propyl ethyl[(4S,6S)-6-methyl-7,7-dioxido-2-sulfamoyl-5,6-dihydro-4H-thieno[2,3-b]thiopyran-4-yl]carbamate

>  <SystematicName>
[(2S)-2,3-dinitrooxypropyl] N-ethyl-N-[(4S,6S)-6-methyl-7,7-dioxo-2-sulfamoyl-5,6-dihydro-4H-thieno[2,3-b]thiopyran-4-yl]carbamate

>  <Synonyms>


>  <Type>
NON-POLYMER

>  <Formula>
C14 H20 N4 O12 S3

>  <MolecularWeight>
532.523

>  <ModifiedDate>
2011-06-04

>  <Parent>


>  <OneLetterCode>


>  <SubcomponentList>


>  <AmbiguousFlag>
N

>  <InChI>
InChI=1S/C14H20N4O12S3/c1-3-16(14(19)28-6-9(30-18(22)23)7-29-17(20)21)11-4-8(2)32(24,25)13-10(11)5-12(31-13)33(15,26)27/h5,8-9,11H,3-4,6-7H2,1-2H3,(H2,15,26,27)/t8-,9-,11-/m0/s1

>  <InChIKey>
RFISBOUXKIOATP-QXEWZRGKSA-N

>  <SMILES>
CCN([C@H]1C[C@@H](S(=O)(=O)c2c1cc(s2)S(=O)(=O)N)C)C(=O)OC[C@@H](CO[N+](=O)[O-])O[N+](=O)[O-]

$$$$
