1BZJ_PIC_A_301


 23 24  0  0  0  0  0  0  0  0999 V2000
   45.8738   14.7074    3.0444 C   0  0  0  0  0  0  0  0  0  0  0  0
   44.7808   15.1029    2.2457 C   0  0  0  0  0  0  0  0  0  0  0  0
   44.4957   10.7071    0.2871 C   0  0  0  0  0  0  0  0  0  0  0  0
   45.5962   10.3209    1.0754 C   0  0  0  0  0  0  0  0  0  0  0  0
   46.2214   11.1880    1.9638 C   0  0  0  0  0  0  0  0  0  0  0  0
   45.7604   12.4897    2.0658 C   0  0  0  0  0  0  0  0  0  0  0  0
   46.3692   13.3921    2.9438 C   0  0  0  0  0  0  0  0  0  0  0  0
   44.1572   14.2272    1.3686 C   0  0  0  0  0  0  0  0  0  0  0  0
   44.6385   12.9103    1.2622 C   0  0  0  0  0  0  0  0  0  0  0  0
   44.0192   11.9985    0.3876 C   0  0  0  0  0  0  0  0  0  0  0  0
   43.8429    9.7227   -0.6833 C   0  0  0  0  0  0  0  0  0  0  0  0
   43.2703   10.1306   -1.7357 O   0  0  0  0  0  0  0  0  0  0  0  0
   43.8699    8.5034   -0.3875 O   0  0  0  0  0  0  0  0  0  0  0  0
   43.2608   11.0452   -1.9394 H   0  0  0  0  0  0  0  0  0  0  0  0
   46.5128   15.6555    3.9454 C   0  0  0  0  0  0  0  0  0  0  0  0
   46.7259   16.8454    3.3147 F   0  0  0  0  0  0  0  0  0  0  0  0
   47.7304   15.1767    4.2923 F   0  0  0  0  0  0  0  0  0  0  0  0
   45.4868   16.0058    5.3909 P   0  0  0  0  0  0  0  0  0  0  0  0
   46.2439   16.8450    6.3543 O   0  0  0  0  0  0  0  0  0  0  0  0
   45.2100   14.8052    6.2330 O   0  0  0  0  0  0  0  0  0  0  0  0
   44.0151   16.7292    5.1284 O   0  0  0  0  0  0  0  0  0  0  0  0
   47.1096   16.4415    6.5239 H   0  0  0  0  0  0  0  0  0  0  0  0
   46.0415   14.3413    6.4180 H   0  0  0  0  0  0  0  0  0  0  0  0
 15  1  1  0  0  0
 15 16  1  0  0  0
 15 17  1  0  0  0
 15 18  1  0  0  0
  1  2  1  0  0  0
  1  7  2  0  0  0
  2  8  2  0  0  0
  3  4  1  0  0  0
  3 11  1  0  0  0
  3 10  2  0  0  0
  4  5  2  0  0  0
  5  6  1  0  0  0
  6  7  1  0  0  0
  6  9  2  0  0  0
 11 12  1  0  0  0
 11 13  2  0  0  0
  8  9  1  0  0  0
  9 10  1  0  0  0
 18 19  1  0  0  0
 18 20  1  0  0  0
 18 21  2  0  0  0
 12 14  1  0  0  0
 19 22  1  0  0  0
 20 23  1  0  0  0
M  END
> <minimizedAffinity>
-9.70999

$$$$
1BZJ_PIC_A_301


 23 24  0  0  0  0  0  0  0  0999 V2000
   44.8698   12.1925    0.9694 C   0  0  0  0  0  0  0  0  0  0  0  0
   45.8675   11.7254    1.8500 C   0  0  0  0  0  0  0  0  0  0  0  0
   45.9985   15.9790    4.1146 C   0  0  0  0  0  0  0  0  0  0  0  0
   45.0131   16.4458    3.2242 C   0  0  0  0  0  0  0  0  0  0  0  0
   44.4681   15.6473    2.2255 C   0  0  0  0  0  0  0  0  0  0  0  0
   44.9240   14.3475    2.0837 C   0  0  0  0  0  0  0  0  0  0  0  0
   44.4039   13.5173    1.0857 C   0  0  0  0  0  0  0  0  0  0  0  0
   46.3986   12.5271    2.8499 C   0  0  0  0  0  0  0  0  0  0  0  0
   45.9389   13.8496    2.9801 C   0  0  0  0  0  0  0  0  0  0  0  0
   46.4533   14.6818    3.9913 C   0  0  0  0  0  0  0  0  0  0  0  0
   46.5762   16.8945    5.1941 C   0  0  0  0  0  0  0  0  0  0  0  0
   46.2025   16.7945    6.3992 O   0  0  0  0  0  0  0  0  0  0  0  0
   47.4096   17.7635    4.8407 O   0  0  0  0  0  0  0  0  0  0  0  0
   45.5792   16.1390    6.6435 H   0  0  0  0  0  0  0  0  0  0  0  0
   44.3432   11.3284   -0.0770 C   0  0  0  0  0  0  0  0  0  0  0  0
   43.3481   11.9597   -0.7628 F   0  0  0  0  0  0  0  0  0  0  0  0
   43.7864   10.2362    0.4969 F   0  0  0  0  0  0  0  0  0  0  0  0
   45.6117   10.8852   -1.2850 P   0  0  0  0  0  0  0  0  0  0  0  0
   44.9745   10.5455   -2.5827 O   0  0  0  0  0  0  0  0  0  0  0  0
   46.3075    9.6012   -0.9778 O   0  0  0  0  0  0  0  0  0  0  0  0
   46.8108   11.9960   -1.5789 O   0  0  0  0  0  0  0  0  0  0  0  0
   44.2688    9.8963   -2.4362 H   0  0  0  0  0  0  0  0  0  0  0  0
   45.6494    8.9120   -0.7968 H   0  0  0  0  0  0  0  0  0  0  0  0
 15  1  1  0  0  0
 15 16  1  0  0  0
 15 17  1  0  0  0
 15 18  1  0  0  0
  1  2  1  0  0  0
  1  7  2  0  0  0
  2  8  2  0  0  0
  3  4  1  0  0  0
  3 11  1  0  0  0
  3 10  2  0  0  0
  4  5  2  0  0  0
  5  6  1  0  0  0
  6  7  1  0  0  0
  6  9  2  0  0  0
 11 12  1  0  0  0
 11 13  2  0  0  0
  8  9  1  0  0  0
  9 10  1  0  0  0
 18 19  1  0  0  0
 18 20  1  0  0  0
 18 21  2  0  0  0
 12 14  1  0  0  0
 19 22  1  0  0  0
 20 23  1  0  0  0
M  END
> <minimizedAffinity>
-9.17214

$$$$
1BZJ_PIC_A_301


 23 24  0  0  0  0  0  0  0  0999 V2000
   45.6693   14.7657    2.8834 C   0  0  0  0  0  0  0  0  0  0  0  0
   46.4637   13.7457    3.4469 C   0  0  0  0  0  0  0  0  0  0  0  0
   44.7267   10.5245    0.3090 C   0  0  0  0  0  0  0  0  0  0  0  0
   43.9247   11.5423   -0.2409 C   0  0  0  0  0  0  0  0  0  0  0  0
   43.9450   12.8491    0.2324 C   0  0  0  0  0  0  0  0  0  0  0  0
   44.7695   13.1622    1.2999 C   0  0  0  0  0  0  0  0  0  0  0  0
   44.8109   14.4647    1.8073 C   0  0  0  0  0  0  0  0  0  0  0  0
   46.4436   12.4462    2.9613 C   0  0  0  0  0  0  0  0  0  0  0  0
   45.5950   12.1335    1.8846 C   0  0  0  0  0  0  0  0  0  0  0  0
   45.5614   10.8259    1.3660 C   0  0  0  0  0  0  0  0  0  0  0  0
   44.6669    9.0981   -0.2378 C   0  0  0  0  0  0  0  0  0  0  0  0
   43.5966    8.4250   -0.1818 O   0  0  0  0  0  0  0  0  0  0  0  0
   45.7190    8.6098   -0.7168 O   0  0  0  0  0  0  0  0  0  0  0  0
   42.8211    8.8072    0.1795 H   0  0  0  0  0  0  0  0  0  0  0  0
   45.7056   16.1161    3.4256 C   0  0  0  0  0  0  0  0  0  0  0  0
   44.7818   16.9050    2.8066 F   0  0  0  0  0  0  0  0  0  0  0  0
   46.9174   16.6598    3.1646 F   0  0  0  0  0  0  0  0  0  0  0  0
   45.3183   16.1429    5.1903 P   0  0  0  0  0  0  0  0  0  0  0  0
   43.9526   16.6881    5.3979 O   0  0  0  0  0  0  0  0  0  0  0  0
   46.1270   17.1291    5.9652 O   0  0  0  0  0  0  0  0  0  0  0  0
   45.4284   14.7087    6.0204 O   0  0  0  0  0  0  0  0  0  0  0  0
   43.8639   17.5282    4.9212 H   0  0  0  0  0  0  0  0  0  0  0  0
   46.0972   17.9913    5.5217 H   0  0  0  0  0  0  0  0  0  0  0  0
 15  1  1  0  0  0
 15 16  1  0  0  0
 15 17  1  0  0  0
 15 18  1  0  0  0
  1  2  1  0  0  0
  1  7  2  0  0  0
  2  8  2  0  0  0
  3  4  1  0  0  0
  3 11  1  0  0  0
  3 10  2  0  0  0
  4  5  2  0  0  0
  5  6  1  0  0  0
  6  7  1  0  0  0
  6  9  2  0  0  0
 11 12  1  0  0  0
 11 13  2  0  0  0
  8  9  1  0  0  0
  9 10  1  0  0  0
 18 19  1  0  0  0
 18 20  1  0  0  0
 18 21  2  0  0  0
 12 14  1  0  0  0
 19 22  1  0  0  0
 20 23  1  0  0  0
M  END
> <minimizedAffinity>
-9.08582

$$$$
1BZJ_PIC_A_301


 23 24  0  0  0  0  0  0  0  0999 V2000
   44.4964   12.6447    0.4869 C   0  0  0  0  0  0  0  0  0  0  0  0
   43.8932   13.9055    0.2982 C   0  0  0  0  0  0  0  0  0  0  0  0
   46.1769   15.6841    4.1532 C   0  0  0  0  0  0  0  0  0  0  0  0
   46.7653   14.4200    4.3464 C   0  0  0  0  0  0  0  0  0  0  0  0
   46.5210   13.3437    3.5014 C   0  0  0  0  0  0  0  0  0  0  0  0
   45.6491   13.5109    2.4387 C   0  0  0  0  0  0  0  0  0  0  0  0
   45.3738   12.4485    1.5719 C   0  0  0  0  0  0  0  0  0  0  0  0
   44.1509   14.9765    1.1416 C   0  0  0  0  0  0  0  0  0  0  0  0
   45.0283   14.7956    2.2254 C   0  0  0  0  0  0  0  0  0  0  0  0
   45.3149   15.8672    3.0911 C   0  0  0  0  0  0  0  0  0  0  0  0
   46.4678   16.8387    5.1121 C   0  0  0  0  0  0  0  0  0  0  0  0
   47.0802   17.8733    4.7166 O   0  0  0  0  0  0  0  0  0  0  0  0
   46.1046   16.7137    6.3068 O   0  0  0  0  0  0  0  0  0  0  0  0
   47.3433   17.9481    3.8204 H   0  0  0  0  0  0  0  0  0  0  0  0
   44.1942   11.5386   -0.4098 C   0  0  0  0  0  0  0  0  0  0  0  0
   43.2030   11.8851   -1.2795 F   0  0  0  0  0  0  0  0  0  0  0  0
   43.7246   10.4997    0.3199 F   0  0  0  0  0  0  0  0  0  0  0  0
   45.6262   11.0714   -1.4078 P   0  0  0  0  0  0  0  0  0  0  0  0
   46.3449   12.2901   -1.8589 O   0  0  0  0  0  0  0  0  0  0  0  0
   45.2664   10.4639   -2.7226 O   0  0  0  0  0  0  0  0  0  0  0  0
   46.7378   10.0470   -0.7199 O   0  0  0  0  0  0  0  0  0  0  0  0
   45.7146   12.9053   -2.2653 H   0  0  0  0  0  0  0  0  0  0  0  0
   44.6149   11.0256   -3.1708 H   0  0  0  0  0  0  0  0  0  0  0  0
 15  1  1  0  0  0
 15 16  1  0  0  0
 15 17  1  0  0  0
 15 18  1  0  0  0
  1  2  1  0  0  0
  1  7  2  0  0  0
  2  8  2  0  0  0
  3  4  1  0  0  0
  3 11  1  0  0  0
  3 10  2  0  0  0
  4  5  2  0  0  0
  5  6  1  0  0  0
  6  7  1  0  0  0
  6  9  2  0  0  0
 11 12  1  0  0  0
 11 13  2  0  0  0
  8  9  1  0  0  0
  9 10  1  0  0  0
 18 19  1  0  0  0
 18 20  1  0  0  0
 18 21  2  0  0  0
 12 14  1  0  0  0
 19 22  1  0  0  0
 20 23  1  0  0  0
M  END
> <minimizedAffinity>
-8.72119

$$$$
1BZJ_PIC_A_301


 23 24  0  0  0  0  0  0  0  0999 V2000
   44.9202   11.5168    0.1802 C   0  0  0  0  0  0  0  0  0  0  0  0
   44.0220   12.5389   -0.1909 C   0  0  0  0  0  0  0  0  0  0  0  0
   45.3949   15.2410    3.5578 C   0  0  0  0  0  0  0  0  0  0  0  0
   46.2794   14.2122    3.9329 C   0  0  0  0  0  0  0  0  0  0  0  0
   46.4073   13.0336    3.2071 C   0  0  0  0  0  0  0  0  0  0  0  0
   45.6210   12.8511    2.0820 C   0  0  0  0  0  0  0  0  0  0  0  0
   45.7175   11.6752    1.3311 C   0  0  0  0  0  0  0  0  0  0  0  0
   43.9083   13.7159    0.5347 C   0  0  0  0  0  0  0  0  0  0  0  0
   44.7018   13.8889    1.6826 C   0  0  0  0  0  0  0  0  0  0  0  0
   44.6137   15.0765    2.4320 C   0  0  0  0  0  0  0  0  0  0  0  0
   45.2806   16.5183    4.3901 C   0  0  0  0  0  0  0  0  0  0  0  0
   46.2237   17.3618    4.4189 O   0  0  0  0  0  0  0  0  0  0  0  0
   44.2350   16.6873    5.0631 O   0  0  0  0  0  0  0  0  0  0  0  0
   46.9967   17.2178    3.9092 H   0  0  0  0  0  0  0  0  0  0  0  0
   45.0052   10.2888   -0.5969 C   0  0  0  0  0  0  0  0  0  0  0  0
   44.0435   10.2668   -1.5631 F   0  0  0  0  0  0  0  0  0  0  0  0
   44.7596    9.2371    0.2190 F   0  0  0  0  0  0  0  0  0  0  0  0
   46.5965   10.1345   -1.4387 P   0  0  0  0  0  0  0  0  0  0  0  0
   46.9885   11.4442   -2.0188 O   0  0  0  0  0  0  0  0  0  0  0  0
   46.5421    9.2949   -2.6713 O   0  0  0  0  0  0  0  0  0  0  0  0
   47.8795    9.5628   -0.5525 O   0  0  0  0  0  0  0  0  0  0  0  0
   46.2530   11.7990   -2.5424 H   0  0  0  0  0  0  0  0  0  0  0  0
   45.8050    9.5878   -3.2297 H   0  0  0  0  0  0  0  0  0  0  0  0
 15  1  1  0  0  0
 15 16  1  0  0  0
 15 17  1  0  0  0
 15 18  1  0  0  0
  1  2  1  0  0  0
  1  7  2  0  0  0
  2  8  2  0  0  0
  3  4  1  0  0  0
  3 11  1  0  0  0
  3 10  2  0  0  0
  4  5  2  0  0  0
  5  6  1  0  0  0
  6  7  1  0  0  0
  6  9  2  0  0  0
 11 12  1  0  0  0
 11 13  2  0  0  0
  8  9  1  0  0  0
  9 10  1  0  0  0
 18 19  1  0  0  0
 18 20  1  0  0  0
 18 21  2  0  0  0
 12 14  1  0  0  0
 19 22  1  0  0  0
 20 23  1  0  0  0
M  END
> <minimizedAffinity>
-8.32520

$$$$
1BZJ_PIC_A_301


 23 24  0  0  0  0  0  0  0  0999 V2000
   45.2415   14.6635    2.8031 C   0  0  0  0  0  0  0  0  0  0  0  0
   46.1359   13.7054    3.3239 C   0  0  0  0  0  0  0  0  0  0  0  0
   44.9241   10.5580   -0.1206 C   0  0  0  0  0  0  0  0  0  0  0  0
   44.0219   11.5119   -0.6283 C   0  0  0  0  0  0  0  0  0  0  0  0
   43.8631   12.7696   -0.0584 C   0  0  0  0  0  0  0  0  0  0  0  0
   44.6041   13.0941    1.0655 C   0  0  0  0  0  0  0  0  0  0  0  0
   44.4656   14.3475    1.6701 C   0  0  0  0  0  0  0  0  0  0  0  0
   46.2943   12.4559    2.7422 C   0  0  0  0  0  0  0  0  0  0  0  0
   45.5297   12.1296    1.6081 C   0  0  0  0  0  0  0  0  0  0  0  0
   45.6770   10.8731    0.9923 C   0  0  0  0  0  0  0  0  0  0  0  0
   45.0611    9.1830   -0.7746 C   0  0  0  0  0  0  0  0  0  0  0  0
   45.9253    8.3529   -0.3672 O   0  0  0  0  0  0  0  0  0  0  0  0
   44.3092    8.9176   -1.7436 O   0  0  0  0  0  0  0  0  0  0  0  0
   46.4776    8.5695    0.3581 H   0  0  0  0  0  0  0  0  0  0  0  0
   45.0907   15.9608    3.4458 C   0  0  0  0  0  0  0  0  0  0  0  0
   43.9760   15.9790    4.2307 F   0  0  0  0  0  0  0  0  0  0  0  0
   44.9086   16.9032    2.4914 F   0  0  0  0  0  0  0  0  0  0  0  0
   46.4925   16.3469    4.5186 P   0  0  0  0  0  0  0  0  0  0  0  0
   47.5498   17.0371    3.7369 O   0  0  0  0  0  0  0  0  0  0  0  0
   47.2393   15.1415    4.9838 O   0  0  0  0  0  0  0  0  0  0  0  0
   46.1898   17.2502    5.8790 O   0  0  0  0  0  0  0  0  0  0  0  0
   47.7443   16.5268    2.9352 H   0  0  0  0  0  0  0  0  0  0  0  0
   47.4435   14.5744    4.2238 H   0  0  0  0  0  0  0  0  0  0  0  0
 15  1  1  0  0  0
 15 16  1  0  0  0
 15 17  1  0  0  0
 15 18  1  0  0  0
  1  2  1  0  0  0
  1  7  2  0  0  0
  2  8  2  0  0  0
  3  4  1  0  0  0
  3 11  1  0  0  0
  3 10  2  0  0  0
  4  5  2  0  0  0
  5  6  1  0  0  0
  6  7  1  0  0  0
  6  9  2  0  0  0
 11 12  1  0  0  0
 11 13  2  0  0  0
  8  9  1  0  0  0
  9 10  1  0  0  0
 18 19  1  0  0  0
 18 20  1  0  0  0
 18 21  2  0  0  0
 12 14  1  0  0  0
 19 22  1  0  0  0
 20 23  1  0  0  0
M  END
> <minimizedAffinity>
-8.09836

$$$$
1BZJ_PIC_A_301


 23 24  0  0  0  0  0  0  0  0999 V2000
   45.0325   11.3700    0.3852 C   0  0  0  0  0  0  0  0  0  0  0  0
   45.9248   11.1636    1.4578 C   0  0  0  0  0  0  0  0  0  0  0  0
   44.9350   15.5280    3.2498 C   0  0  0  0  0  0  0  0  0  0  0  0
   44.0565   15.7356    2.1696 C   0  0  0  0  0  0  0  0  0  0  0  0
   43.8382   14.7766    1.1875 C   0  0  0  0  0  0  0  0  0  0  0  0
   44.5251   13.5764    1.2588 C   0  0  0  0  0  0  0  0  0  0  0  0
   44.3361   12.5909    0.2847 C   0  0  0  0  0  0  0  0  0  0  0  0
   46.1289   12.1233    2.4386 C   0  0  0  0  0  0  0  0  0  0  0  0
   45.4364   13.3442    2.3529 C   0  0  0  0  0  0  0  0  0  0  0  0
   45.6172   14.3316    3.3388 C   0  0  0  0  0  0  0  0  0  0  0  0
   45.1511   16.6138    4.3040 C   0  0  0  0  0  0  0  0  0  0  0  0
   46.1733   17.3593    4.2689 O   0  0  0  0  0  0  0  0  0  0  0  0
   44.2976   16.7215    5.2176 O   0  0  0  0  0  0  0  0  0  0  0  0
   46.7995   17.2637    3.5785 H   0  0  0  0  0  0  0  0  0  0  0  0
   44.8515   10.3464   -0.6338 C   0  0  0  0  0  0  0  0  0  0  0  0
   43.5254   10.1436   -0.8775 F   0  0  0  0  0  0  0  0  0  0  0  0
   45.3443    9.1746   -0.1690 F   0  0  0  0  0  0  0  0  0  0  0  0
   45.6057   10.8213   -2.2056 P   0  0  0  0  0  0  0  0  0  0  0  0
   46.0058    9.6061   -2.9597 O   0  0  0  0  0  0  0  0  0  0  0  0
   46.9278   11.4969   -2.0546 O   0  0  0  0  0  0  0  0  0  0  0  0
   44.7138   11.7845   -3.2229 O   0  0  0  0  0  0  0  0  0  0  0  0
   46.5293    9.0265   -2.3846 H   0  0  0  0  0  0  0  0  0  0  0  0
   47.4932   10.9731   -1.4656 H   0  0  0  0  0  0  0  0  0  0  0  0
 15  1  1  0  0  0
 15 16  1  0  0  0
 15 17  1  0  0  0
 15 18  1  0  0  0
  1  2  1  0  0  0
  1  7  2  0  0  0
  2  8  2  0  0  0
  3  4  1  0  0  0
  3 11  1  0  0  0
  3 10  2  0  0  0
  4  5  2  0  0  0
  5  6  1  0  0  0
  6  7  1  0  0  0
  6  9  2  0  0  0
 11 12  1  0  0  0
 11 13  2  0  0  0
  8  9  1  0  0  0
  9 10  1  0  0  0
 18 19  1  0  0  0
 18 20  1  0  0  0
 18 21  2  0  0  0
 12 14  1  0  0  0
 19 22  1  0  0  0
 20 23  1  0  0  0
M  END
> <minimizedAffinity>
-7.97608

$$$$
1BZJ_PIC_A_301


 23 24  0  0  0  0  0  0  0  0999 V2000
   45.8889   13.9621    3.0853 C   0  0  0  0  0  0  0  0  0  0  0  0
   46.3700   12.6367    3.1156 C   0  0  0  0  0  0  0  0  0  0  0  0
   44.0438   11.5949   -0.9763 C   0  0  0  0  0  0  0  0  0  0  0  0
   43.5541   12.9145   -0.9947 C   0  0  0  0  0  0  0  0  0  0  0  0
   43.8783   13.8469   -0.0162 C   0  0  0  0  0  0  0  0  0  0  0  0
   44.6981   13.4614    1.0310 C   0  0  0  0  0  0  0  0  0  0  0  0
   45.0398   14.3703    2.0374 C   0  0  0  0  0  0  0  0  0  0  0  0
   46.0484   11.7159    2.1289 C   0  0  0  0  0  0  0  0  0  0  0  0
   45.2060   12.1117    1.0750 C   0  0  0  0  0  0  0  0  0  0  0  0
   44.8711   11.2011    0.0559 C   0  0  0  0  0  0  0  0  0  0  0  0
   43.6552   10.5994   -2.0694 C   0  0  0  0  0  0  0  0  0  0  0  0
   42.6247   10.7846   -2.7805 O   0  0  0  0  0  0  0  0  0  0  0  0
   44.3748    9.5821   -2.2181 O   0  0  0  0  0  0  0  0  0  0  0  0
   42.1000   11.5506   -2.6545 H   0  0  0  0  0  0  0  0  0  0  0  0
   46.2359   14.8993    4.1436 C   0  0  0  0  0  0  0  0  0  0  0  0
   47.5471   15.2615    4.0507 F   0  0  0  0  0  0  0  0  0  0  0  0
   46.0875   14.2830    5.3396 F   0  0  0  0  0  0  0  0  0  0  0  0
   45.2646   16.4194    4.0410 P   0  0  0  0  0  0  0  0  0  0  0  0
   46.0534   17.5583    4.5760 O   0  0  0  0  0  0  0  0  0  0  0  0
   44.0912   16.4428    4.9628 O   0  0  0  0  0  0  0  0  0  0  0  0
   44.6821   16.8568    2.5485 O   0  0  0  0  0  0  0  0  0  0  0  0
   46.4050   17.3259    5.4497 H   0  0  0  0  0  0  0  0  0  0  0  0
   44.3765   16.1933    5.8557 H   0  0  0  0  0  0  0  0  0  0  0  0
 15  1  1  0  0  0
 15 16  1  0  0  0
 15 17  1  0  0  0
 15 18  1  0  0  0
  1  2  1  0  0  0
  1  7  2  0  0  0
  2  8  2  0  0  0
  3  4  1  0  0  0
  3 11  1  0  0  0
  3 10  2  0  0  0
  4  5  2  0  0  0
  5  6  1  0  0  0
  6  7  1  0  0  0
  6  9  2  0  0  0
 11 12  1  0  0  0
 11 13  2  0  0  0
  8  9  1  0  0  0
  9 10  1  0  0  0
 18 19  1  0  0  0
 18 20  1  0  0  0
 18 21  2  0  0  0
 12 14  1  0  0  0
 19 22  1  0  0  0
 20 23  1  0  0  0
M  END
> <minimizedAffinity>
-7.82872

$$$$
1BZJ_PIC_A_301


 23 24  0  0  0  0  0  0  0  0999 V2000
   45.5778   10.6059    0.5335 C   0  0  0  0  0  0  0  0  0  0  0  0
   44.4727   11.2680   -0.0406 C   0  0  0  0  0  0  0  0  0  0  0  0
   44.9474   14.9426    3.0434 C   0  0  0  0  0  0  0  0  0  0  0  0
   46.0407   14.2715    3.6229 C   0  0  0  0  0  0  0  0  0  0  0  0
   46.4927   13.0404    3.1624 C   0  0  0  0  0  0  0  0  0  0  0  0
   45.8319   12.4367    2.1058 C   0  0  0  0  0  0  0  0  0  0  0  0
   46.2540   11.1949    1.6204 C   0  0  0  0  0  0  0  0  0  0  0  0
   44.0349   12.5013    0.4199 C   0  0  0  0  0  0  0  0  0  0  0  0
   44.7039   13.1024    1.5008 C   0  0  0  0  0  0  0  0  0  0  0  0
   44.2871   14.3571    1.9823 C   0  0  0  0  0  0  0  0  0  0  0  0
   44.4789   16.2924    3.5870 C   0  0  0  0  0  0  0  0  0  0  0  0
   44.2295   16.4460    4.8183 O   0  0  0  0  0  0  0  0  0  0  0  0
   44.3237   17.2315    2.7691 O   0  0  0  0  0  0  0  0  0  0  0  0
   44.3516   15.7327    5.4136 H   0  0  0  0  0  0  0  0  0  0  0  0
   46.0030    9.3066    0.0336 C   0  0  0  0  0  0  0  0  0  0  0  0
   45.7168    8.3287    0.9395 F   0  0  0  0  0  0  0  0  0  0  0  0
   47.3481    9.3147   -0.1167 F   0  0  0  0  0  0  0  0  0  0  0  0
   45.1539    8.8650   -1.4990 P   0  0  0  0  0  0  0  0  0  0  0  0
   45.8360    7.7110   -2.1382 O   0  0  0  0  0  0  0  0  0  0  0  0
   45.2878    9.8913   -2.5741 O   0  0  0  0  0  0  0  0  0  0  0  0
   43.5338    8.5126   -1.4028 O   0  0  0  0  0  0  0  0  0  0  0  0
   46.7863    7.8939   -2.2055 H   0  0  0  0  0  0  0  0  0  0  0  0
   46.2213   10.1355   -2.6736 H   0  0  0  0  0  0  0  0  0  0  0  0
 15  1  1  0  0  0
 15 16  1  0  0  0
 15 17  1  0  0  0
 15 18  1  0  0  0
  1  2  1  0  0  0
  1  7  2  0  0  0
  2  8  2  0  0  0
  3  4  1  0  0  0
  3 11  1  0  0  0
  3 10  2  0  0  0
  4  5  2  0  0  0
  5  6  1  0  0  0
  6  7  1  0  0  0
  6  9  2  0  0  0
 11 12  1  0  0  0
 11 13  2  0  0  0
  8  9  1  0  0  0
  9 10  1  0  0  0
 18 19  1  0  0  0
 18 20  1  0  0  0
 18 21  2  0  0  0
 12 14  1  0  0  0
 19 22  1  0  0  0
 20 23  1  0  0  0
M  END
> <minimizedAffinity>
-7.75454

$$$$
1BZJ_PIC_A_301


 23 24  0  0  0  0  0  0  0  0999 V2000
   43.9938   11.3302   -0.8809 C   0  0  0  0  0  0  0  0  0  0  0  0
   44.5012   10.8292    0.3359 C   0  0  0  0  0  0  0  0  0  0  0  0
   44.6106   15.2615    2.2286 C   0  0  0  0  0  0  0  0  0  0  0  0
   44.1180   15.7590    1.0074 C   0  0  0  0  0  0  0  0  0  0  0  0
   43.8278   14.9353   -0.0739 C   0  0  0  0  0  0  0  0  0  0  0  0
   44.0500   13.5735    0.0429 C   0  0  0  0  0  0  0  0  0  0  0  0
   43.7763   12.7148   -1.0265 C   0  0  0  0  0  0  0  0  0  0  0  0
   44.7788   11.6585    1.4129 C   0  0  0  0  0  0  0  0  0  0  0  0
   44.5616   13.0416    1.2826 C   0  0  0  0  0  0  0  0  0  0  0  0
   44.8257   13.9047    2.3619 C   0  0  0  0  0  0  0  0  0  0  0  0
   44.9238   16.2050    3.3900 C   0  0  0  0  0  0  0  0  0  0  0  0
   46.0221   16.8320    3.4398 O   0  0  0  0  0  0  0  0  0  0  0  0
   44.0695   16.3143    4.3027 O   0  0  0  0  0  0  0  0  0  0  0  0
   46.6474   16.7374    2.7484 H   0  0  0  0  0  0  0  0  0  0  0  0
   43.7251   10.4333   -1.9955 C   0  0  0  0  0  0  0  0  0  0  0  0
   44.5022   10.7572   -3.0680 F   0  0  0  0  0  0  0  0  0  0  0  0
   42.4390   10.5937   -2.3856 F   0  0  0  0  0  0  0  0  0  0  0  0
   44.0965    8.7145   -1.5801 P   0  0  0  0  0  0  0  0  0  0  0  0
   43.9474    7.8613   -2.7865 O   0  0  0  0  0  0  0  0  0  0  0  0
   43.0893    8.0868   -0.6753 O   0  0  0  0  0  0  0  0  0  0  0  0
   45.5798    8.3928   -0.9060 O   0  0  0  0  0  0  0  0  0  0  0  0
   43.0861    8.0320   -3.1987 H   0  0  0  0  0  0  0  0  0  0  0  0
   42.1982    8.2452   -1.0241 H   0  0  0  0  0  0  0  0  0  0  0  0
 15  1  1  0  0  0
 15 16  1  0  0  0
 15 17  1  0  0  0
 15 18  1  0  0  0
  1  2  1  0  0  0
  1  7  2  0  0  0
  2  8  2  0  0  0
  3  4  1  0  0  0
  3 11  1  0  0  0
  3 10  2  0  0  0
  4  5  2  0  0  0
  5  6  1  0  0  0
  6  7  1  0  0  0
  6  9  2  0  0  0
 11 12  1  0  0  0
 11 13  2  0  0  0
  8  9  1  0  0  0
  9 10  1  0  0  0
 18 19  1  0  0  0
 18 20  1  0  0  0
 18 21  2  0  0  0
 12 14  1  0  0  0
 19 22  1  0  0  0
 20 23  1  0  0  0
M  END
> <minimizedAffinity>
-7.56464

$$$$
