3FFP_LC1_X_300
  RCSB PDB12061708353D
Coordinates from PDB:3FFP:X:300 Model:1 without hydrogens
 18 20  0  0  0  0            999 V2000
   -6.7710    7.5470   12.2030   C 0  0  0  0  0  0  0  0  0  0  0  0
   -6.6190    8.9580   11.2610   S 0  0  0  0  0  0  0  0  0  0  0  0
   -4.9260    8.9820   11.2550   C 0  0  0  0  0  0  0  0  0  0  0  0
   -4.5390    7.9060   11.9720   N 0  0  0  0  0  0  0  0  0  0  0  0
   -5.5250    7.1310   12.4980   C 0  0  0  0  0  0  0  0  0  0  0  0
   -5.2640    5.9710   13.2600   C 0  0  0  0  0  0  0  0  0  0  0  0
   -4.0930    5.3330   13.3980   N 0  0  0  0  0  0  0  0  0  0  0  0
   -4.2800    4.2720   14.1910   C 0  0  0  0  0  0  0  0  0  0  0  0
   -3.4370    3.2640   14.6340   C 0  0  0  0  0  0  0  0  0  0  0  0
   -3.9300    2.2460   15.4640   C 0  0  0  0  0  0  0  0  0  0  0  0
   -5.2920    2.1920   15.8220   C 0  0  0  0  0  0  0  0  0  0  0  0
   -5.9790    1.0410   16.8710   S 0  0  0  0  0  0  0  0  0  0  0  0
   -7.3540    0.9900   16.7300   O 0  0  0  0  0  0  0  0  0  0  0  0
   -5.3650    1.0120   18.1680   O 0  0  0  0  0  0  0  0  0  0  0  0
   -5.4420   -0.3110   16.2900   N 0  0  0  0  0  0  0  0  0  0  0  0
   -6.1200    3.2300   15.3890   C 0  0  0  0  0  0  0  0  0  0  0  0
   -5.6070    4.2420   14.5540   C 0  0  0  0  0  0  0  0  0  0  0  0
   -6.1770    5.2850   13.9660   N 0  0  0  0  0  0  0  0  0  0  0  0
  1  2  1  0  0  0  0
  1  5  2  0  0  0  0
  2  3  1  0  0  0  0
  3  4  2  0  0  0  0
  4  5  1  0  0  0  0
  5  6  1  0  0  0  0
  6  7  1  0  0  0  0
  6 18  2  0  0  0  0
  7  8  1  0  0  0  0
  8  9  2  0  0  0  0
  8 17  1  0  0  0  0
  9 10  1  0  0  0  0
 10 11  2  0  0  0  0
 11 12  1  0  0  0  0
 11 16  1  0  0  0  0
 12 13  2  0  0  0  0
 12 14  2  0  0  0  0
 12 15  1  0  0  0  0
 16 17  2  0  0  0  0
 17 18  1  0  0  0  0
A    1
CAH
A    2
SAI
A    3
CAR
A    4
NAQ
A    5
CAP
A    6
CAO
A    7
NAN
A    8
CAM
A    9
CAL
A   10
CAK
A   11
CAD
A   12
SAC
A   13
OAA
A   14
OAJ
A   15
NAB
A   16
CAE
A   17
CAF
A   18
NAG
M  END
>  <InstanceId>
3FFP_LC1_X_300

>  <ChemCompId>
LC1

>  <PdbId>
3FFP

>  <ChainId>
X

>  <ResidueNumber>
300

>  <InsertionCode>


>  <Model>
1

>  <AltIds>


>  <MissingHeavyAtoms>
0

>  <ObservedFormula>
C10 N4 O2 S2

>  <Name>
2-(1,3-thiazol-4-yl)-1H-benzimidazole-5-sulfonamide

>  <SystematicName>
2-(1,3-thiazol-4-yl)-1H-benzimidazole-5-sulfonamide

>  <Synonyms>


>  <Type>
NON-POLYMER

>  <Formula>
C10 H8 N4 O2 S2

>  <MolecularWeight>
280.326

>  <ModifiedDate>
2011-06-04

>  <Parent>


>  <OneLetterCode>


>  <SubcomponentList>


>  <AmbiguousFlag>
N

>  <InChI>
InChI=1S/C10H8N4O2S2/c11-18(15,16)6-1-2-7-8(3-6)14-10(13-7)9-4-17-5-12-9/h1-5H,(H,13,14)(H2,11,15,16)

>  <InChIKey>
KGMVTZZDGKDTEU-UHFFFAOYSA-N

>  <SMILES>
c1cc2c(cc1S(=O)(=O)N)nc([nH]2)c3cscn3

$$$$
