4DLD_TZG_A_301
  RCSB PDB12061712133D
Coordinates from PDB:4DLD:A:301 Model:1 without hydrogens
 21 21  0  0  0  0            999 V2000
    3.3020   35.1610  102.0110   N 0  3  0  0  0  0  0  0  0  0  0  0
    0.3810   33.4090  103.2700   C 0  0  0  0  0  0  0  0  0  0  0  0
    1.7160   33.7160  103.0610   C 0  0  0  0  0  0  0  0  0  0  0  0
    2.0380   34.8030  102.2580   C 0  0  0  0  0  0  0  0  0  0  0  0
   -2.0590   33.7680  102.9980   C 0  0  0  0  0  0  0  0  0  0  0  0
   -2.6130   34.6330  104.1570   C 0  0  0  0  0  0  0  0  0  0  0  0
   -1.0050   37.6500  101.1960   C 0  0  0  0  0  0  0  0  0  0  0  0
   -4.8960   34.6360  103.5290   O 0  0  0  0  0  0  0  0  0  0  0  0
   -4.0640   34.2360  104.3720   C 0  0  0  0  0  0  0  0  0  0  0  0
   -4.2900   33.4930  105.3440   O 0  0  0  0  0  0  0  0  0  0  0  0
   -1.8730   34.3300  105.3870   N 0  0  0  0  0  0  0  0  0  0  0  0
   -0.6270   34.1780  102.6990   C 0  0  0  0  0  0  0  0  0  0  0  0
    2.9310   32.7310  103.8120  Cl 0  0  0  0  0  0  0  0  0  0  0  0
    3.5940   36.5220  101.7250   O 0  5  0  0  0  0  0  0  0  0  0  0
    4.3420   34.2130  101.9890   O 0  0  0  0  0  0  0  0  0  0  0  0
    1.0330   35.5630  101.6850   C 0  0  0  0  0  0  0  0  0  0  0  0
   -0.3070   35.2710  101.9000   C 0  0  0  0  0  0  0  0  0  0  0  0
   -1.3600   36.1580  101.2080   C 0  0  0  0  0  0  0  0  0  0  0  0
   -1.3510   38.2940  102.5460   C 0  0  0  0  0  0  0  0  0  0  0  0
   -2.4750   38.0500  103.0290   O 0  0  0  0  0  0  0  0  0  0  0  0
   -0.4850   39.0230  103.0620   O 0  0  0  0  0  0  0  0  0  0  0  0
  1  4  1  0  0  0  0
  1 14  1  0  0  0  0
  1 15  2  0  0  0  0
  2  3  2  0  0  0  0
  2 12  1  0  0  0  0
  3  4  1  0  0  0  0
  3 13  1  0  0  0  0
  4 16  2  0  0  0  0
  5  6  1  0  0  0  0
  5 12  1  0  0  0  0
  6  9  1  0  0  0  0
  6 11  1  0  0  0  0
  7 18  1  0  0  0  0
  7 19  1  0  0  0  0
  8  9  2  0  0  0  0
  9 10  1  0  0  0  0
 12 17  2  0  0  0  0
 16 17  1  0  0  0  0
 17 18  1  0  0  0  0
 19 20  2  0  0  0  0
 19 21  1  0  0  0  0
M  CHG  2   1   1  14  -1
A    1
N1
A    2
C4
A    3
C5
A    4
C6
A    5
C7
A    6
C8
A    7
C10
A    8
O4
A    9
C12
A   10
O5
A   11
N2
A   12
C3
A   13
CL1
A   14
O1
A   15
O2
A   16
C1
A   17
C2
A   18
C9
A   19
C11
A   20
O7
A   21
O6
M  END
>  <InstanceId>
4DLD_TZG_A_301

>  <ChemCompId>
TZG

>  <PdbId>
4DLD

>  <ChainId>
A

>  <ResidueNumber>
301

>  <InsertionCode>


>  <Model>
1

>  <AltIds>


>  <MissingHeavyAtoms>
0

>  <ObservedFormula>
C12 N2 O6 Cl

>  <Name>
(S)-2-amino-3-(2-(2-carboxyethyl)-5-chloro-4-nitrophenyl)propionic acid

>  <SystematicName>
(2S)-2-azanyl-3-[2-(2-carboxyethyl)-5-chloranyl-4-nitro-phenyl]propanoic acid

>  <Synonyms>


>  <Type>
NON-POLYMER

>  <Formula>
C12 H13 Cl N2 O6

>  <MolecularWeight>
316.694

>  <ModifiedDate>
2011-10-21

>  <Parent>


>  <OneLetterCode>


>  <SubcomponentList>


>  <AmbiguousFlag>
N

>  <InChI>
InChI=1S/C12H13ClN2O6/c13-8-3-7(4-9(14)12(18)19)6(1-2-11(16)17)5-10(8)15(20)21/h3,5,9H,1-2,4,14H2,(H,16,17)(H,18,19)/t9-/m0/s1

>  <InChIKey>
DRCLPFURMHGQPC-VIFPVBQESA-N

>  <SMILES>
c1c(c(cc(c1[N+](=O)[O-])Cl)C[C@@H](C(=O)O)N)CCC(=O)O

$$$$
