3SUE_SUE_A_1201


 57 63  0  0  0  0  0  0  0  0999 V2000
    2.6976   -9.9442   31.1897 C   0  0  0  0  0  0  0  0  0  0  0  0
    1.6642  -12.0022   31.5537 N   0  0  0  0  0  0  0  0  0  0  0  0
    2.1592   -9.8232   30.1309 O   0  0  0  0  0  0  0  0  0  0  0  0
    2.8910  -11.1968   31.7020 C   0  0  0  0  0  0  0  0  0  0  0  0
    0.7934  -12.2048   32.5463 C   0  0  0  0  0  0  0  0  0  0  0  0
    2.7581   -5.9058   35.6692 N   0  0  0  0  0  0  0  0  0  0  0  0
    0.5733   -3.6912   37.3576 C   0  0  0  0  0  0  0  0  0  0  0  0
    3.2458   -4.1701   37.0537 C   0  0  0  0  0  0  0  0  0  0  0  0
   -2.6142  -13.4898   33.1351 C   0  0  0  0  0  0  0  0  0  0  0  0
   -2.1452  -12.1396   33.5621 C   0  0  0  0  0  0  0  0  0  0  0  0
   -1.1610  -13.2311   33.3593 C   0  0  0  0  0  0  0  0  0  0  0  0
    0.9990   -4.7095   36.5676 C   0  0  0  0  0  0  0  0  0  0  0  0
   -2.2781  -11.6963   34.9727 C   0  0  0  0  0  0  0  0  0  0  0  0
   -0.9453   -9.6125   34.8219 C   0  0  0  0  0  0  0  0  0  0  0  0
    1.4782   -2.9036   38.0003 C   0  0  0  0  0  0  0  0  0  0  0  0
    2.3501   -7.6448   34.3206 O   0  0  0  0  0  0  0  0  0  0  0  0
   -2.3053  -10.2296   34.9983 C   0  0  0  0  0  0  0  0  0  0  0  0
   -0.8657   -8.3203   35.4786 C   0  0  0  0  0  0  0  0  0  0  0  0
    1.9176   -6.6569   35.0561 C   0  0  0  0  0  0  0  0  0  0  0  0
    0.5427   -6.4515   35.1976 C   0  0  0  0  0  0  0  0  0  0  0  0
    2.3405   -4.9437   36.4152 C   0  0  0  0  0  0  0  0  0  0  0  0
    0.1366   -5.4663   35.9598 N   0  0  0  0  0  0  0  0  0  0  0  0
   -0.4273   -7.2283   34.5750 C   0  0  0  0  0  0  0  0  0  0  0  0
    2.8357   -3.1287   37.8628 C   0  0  0  0  0  0  0  0  0  0  0  0
    1.0463  -11.7068   33.6051 O   0  0  0  0  0  0  0  0  0  0  0  0
   -0.2648  -12.9446   32.2865 O   0  0  0  0  0  0  0  0  0  0  0  0
    3.7167   -6.6969   32.5046 C   0  0  0  0  0  0  0  0  0  0  0  0
    3.0649   -7.5000   31.3909 C   0  0  0  0  0  0  0  0  0  0  0  0
    3.1360   -8.9035   31.8497 N   0  0  0  0  0  0  0  0  0  0  0  0
    3.8312   -8.9130   33.1310 C   0  0  0  0  0  0  0  0  0  0  0  0
    3.6234   -7.6092   33.7199 C   0  0  0  0  0  0  0  0  0  0  0  0
    1.4775  -12.4116   30.6780 H   0  0  0  0  0  0  0  0  0  0  0  0
    4.1815  -11.9130   31.1582 C   0  0  0  0  0  0  0  0  0  0  0  0
    3.7537  -13.2431   30.6062 C   0  0  0  0  0  0  0  0  0  0  0  0
    5.1855  -12.1531   32.2394 C   0  0  0  0  0  0  0  0  0  0  0  0
    4.8909  -11.1202   30.0931 C   0  0  0  0  0  0  0  0  0  0  0  0
    4.6722   -7.9279   29.8024 O   0  0  0  0  0  0  0  0  0  0  0  0
    3.6242   -7.4223   30.1029 C   0  0  0  0  0  0  0  0  0  0  0  0
    2.8510   -6.8749   29.2308 N   0  0  0  0  0  0  0  0  0  0  0  0
    2.0289   -6.4442   29.5592 H   0  0  0  0  0  0  0  0  0  0  0  0
    3.0976   -6.8440   27.8045 C   0  0  0  0  0  0  0  0  0  0  0  0
    2.7328   -8.1627   27.1851 C   0  0  0  0  0  0  0  0  0  0  0  0
    1.8807   -7.0146   26.9423 C   0  0  0  0  0  0  0  0  0  0  0  0
    5.1359   -5.3323   28.0198 N   0  0  0  0  0  0  0  0  0  0  0  0
    4.2193   -5.6727   26.0226 O   0  0  0  0  0  0  0  0  0  0  0  0
    4.2243   -5.8906   27.2011 C   0  0  0  0  0  0  0  0  0  0  0  0
    5.0969   -5.5415   28.9811 H   0  0  0  0  0  0  0  0  0  0  0  0
    5.8758   -3.5940   26.3889 O   0  0  0  0  0  0  0  0  0  0  0  0
    6.2815   -4.3419   27.4960 S   0  0  0  0  0  0  0  0  0  0  0  0
    7.4039   -5.0655   27.0587 O   0  0  0  0  0  0  0  0  0  0  0  0
    7.5906   -1.9688   28.5240 C   0  0  0  0  0  0  0  0  0  0  0  0
    6.2002   -1.8218   28.9360 C   0  0  0  0  0  0  0  0  0  0  0  0
    6.8236   -3.1445   28.9392 C   0  0  0  0  0  0  0  0  0  0  0  0
    3.4646   -8.6550   25.9648 C   0  0  0  0  0  0  0  0  0  0  0  0
    3.8403  -10.1106   25.9551 C   0  0  0  0  0  0  0  0  0  0  0  0
    4.9627   -2.1359   38.1510 C   0  0  0  0  0  0  0  0  0  0  0  0
    3.6581   -2.3148   38.5250 O   0  0  0  0  0  0  0  0  0  0  0  0
 29  1  1  0  0  0
  4  1  1  0  0  0
  1  3  2  0  0  0
  5  2  1  0  0  0
  4  2  1  0  0  0
  4 33  1  0  0  0
 34 33  1  0  0  0
 35 33  1  0  0  0
 33 36  1  0  0  0
 25  5  2  0  0  0
  5 26  1  0  0  0
 21  6  2  0  0  0
  6 19  1  0  0  0
 15  7  2  0  0  0
  7 12  1  0  0  0
 24  8  2  0  0  0
  8 21  1  0  0  0
 10  9  1  0  0  0
 11  9  1  0  0  0
 13 10  1  0  0  0
 10 11  1  0  0  0
 11 26  1  0  0  0
 52 51  1  0  0  0
 53 51  1  0  0  0
 52 53  1  0  0  0
 49 48  2  0  0  0
 53 49  1  0  0  0
 44 49  1  0  0  0
 49 50  2  0  0  0
 39 41  1  0  0  0
 41 46  1  0  0  0
 41 43  1  0  0  0
 41 42  1  0  0  0
 38 37  2  0  0  0
 28 38  1  0  0  0
 38 39  1  0  0  0
 42 54  1  0  0  0
 54 55  2  0  0  0
 12 21  1  0  0  0
 12 22  2  0  0  0
 17 13  1  0  0  0
 44 46  1  0  0  0
 43 42  1  0  0  0
 18 14  1  0  0  0
 14 17  1  0  0  0
 15 24  1  0  0  0
 19 16  1  0  0  0
 16 31  1  0  0  0
 57 56  1  0  0  0
 57 24  1  0  0  0
 18 23  1  0  0  0
 20 19  2  0  0  0
 22 20  1  0  0  0
 20 23  1  0  0  0
 46 45  2  0  0  0
 31 27  1  0  0  0
 27 28  1  0  0  0
 28 29  1  0  0  0
 30 29  1  0  0  0
 31 30  1  0  0  0
  2 32  1  0  0  0
 44 47  1  0  0  0
 39 40  1  0  0  0
M  END
> <minimizedAffinity>
-11.46777

$$$$
