4G0Y_AMP_A_801
  RCSB PDB12061712383D
Coordinates from PDB:4G0Y:A:801 Model:1 without hydrogens
 23 25  0  0  0  0            999 V2000
   25.3280   34.5700   38.3120   P 0  0  0  0  0  0  0  0  0  0  0  0
   25.8450   36.0560   38.4480   O 0  0  0  0  0  0  0  0  0  0  0  0
   25.6460   34.3310   36.7820   O 0  0  0  0  0  0  0  0  0  0  0  0
   23.9120   34.3830   38.6580   O 0  0  0  0  0  0  0  0  0  0  0  0
   26.3220   33.5580   39.0930   O 0  0  0  0  0  0  0  0  0  0  0  0
   27.6890   33.7670   39.3790   C 0  0  0  0  0  0  0  0  0  0  0  0
   28.2630   32.4330   39.9400   C 0  0  0  0  0  0  0  0  0  0  0  0
   27.8490   31.2530   39.2630   O 0  0  0  0  0  0  0  0  0  0  0  0
   29.8370   32.3810   39.9000   C 0  0  0  0  0  0  0  0  0  0  0  0
   30.3250   32.7200   41.1520   O 0  0  0  0  0  0  0  0  0  0  0  0
   30.1860   30.9000   39.5070   C 0  0  0  0  0  0  0  0  0  0  0  0
   31.1770   30.2640   40.2220   O 0  0  0  0  0  0  0  0  0  0  0  0
   28.7720   30.1960   39.5710   C 0  0  0  0  0  0  0  0  0  0  0  0
   28.5650   29.1150   38.6100   N 0  0  0  0  0  0  0  0  0  0  0  0
   28.1400   27.7680   38.8110   C 0  0  0  0  0  0  0  0  0  0  0  0
   28.0770   27.0540   37.6890   N 0  0  0  0  0  0  0  0  0  0  0  0
   28.4790   27.9420   36.6750   C 0  0  0  0  0  0  0  0  0  0  0  0
   28.6140   27.7570   35.2710   C 0  0  0  0  0  0  0  0  0  0  0  0
   28.3500   26.5670   34.6650   N 0  0  0  0  0  0  0  0  0  0  0  0
   29.0320   28.8180   34.4950   N 0  0  0  0  0  0  0  0  0  0  0  0
   29.2890   29.9910   35.1430   C 0  0  0  0  0  0  0  0  0  0  0  0
   29.2050   30.3060   36.4660   N 0  0  0  0  0  0  0  0  0  0  0  0
   28.7860   29.2270   37.2140   C 0  0  0  0  0  0  0  0  0  0  0  0
  1  2  2  0  0  0  0
  1  3  1  0  0  0  0
  1  4  1  0  0  0  0
  1  5  1  0  0  0  0
  5  6  1  0  0  0  0
  6  7  1  0  0  0  0
  7  8  1  0  0  0  0
  7  9  1  0  0  0  0
  8 13  1  0  0  0  0
  9 10  1  0  0  0  0
  9 11  1  0  0  0  0
 11 12  1  0  0  0  0
 11 13  1  0  0  0  0
 13 14  1  0  0  0  0
 14 15  1  0  0  0  0
 14 23  1  0  0  0  0
 15 16  2  0  0  0  0
 16 17  1  0  0  0  0
 17 18  1  0  0  0  0
 17 23  2  0  0  0  0
 18 19  1  0  0  0  0
 18 20  2  0  0  0  0
 20 21  1  0  0  0  0
 21 22  2  0  0  0  0
 22 23  1  0  0  0  0
A    1
P
A    2
O1P
A    3
O2P
A    4
O3P
A    5
O5'
A    6
C5'
A    7
C4'
A    8
O4'
A    9
C3'
A   10
O3'
A   11
C2'
A   12
O2'
A   13
C1'
A   14
N9
A   15
C8
A   16
N7
A   17
C5
A   18
C6
A   19
N6
A   20
N1
A   21
C2
A   22
N3
A   23
C4
M  END
>  <InstanceId>
4G0Y_AMP_A_801

>  <ChemCompId>
AMP

>  <PdbId>
4G0Y

>  <ChainId>
A

>  <ResidueNumber>
801

>  <InsertionCode>


>  <Model>
1

>  <AltIds>


>  <MissingHeavyAtoms>
0

>  <ObservedFormula>
C10 N5 O7 P

>  <Name>
ADENOSINE MONOPHOSPHATE

>  <SystematicName>
[(2R,3S,4R,5R)-5-(6-aminopurin-9-yl)-3,4-bis(oxidanyl)oxolan-2-yl]methyl dihydrogen phosphate

>  <Synonyms>


>  <Type>
NON-POLYMER

>  <Formula>
C10 H14 N5 O7 P

>  <MolecularWeight>
347.221

>  <ModifiedDate>
2011-12-08

>  <Parent>


>  <OneLetterCode>


>  <SubcomponentList>


>  <AmbiguousFlag>
N

>  <InChI>
InChI=1S/C10H14N5O7P/c11-8-5-9(13-2-12-8)15(3-14-5)10-7(17)6(16)4(22-10)1-21-23(18,19)20/h2-4,6-7,10,16-17H,1H2,(H2,11,12,13)(H2,18,19,20)/t4-,6-,7-,10-/m1/s1

>  <InChIKey>
UDMBCSSLTHHNCD-KQYNXXCUSA-N

>  <SMILES>
c1nc(c2c(n1)n(cn2)[C@H]3[C@@H]([C@@H]([C@H](O3)COP(=O)(O)O)O)O)N

$$$$
