4G0Y_AMP_A_801


 29 31  0  0  0  0  0  0  0  0999 V2000
   29.0277   31.3381   40.2327 C   0  0  0  0  0  0  0  0  0  0  0  0
   30.2213   32.0765   40.4614 O   0  0  0  0  0  0  0  0  0  0  0  0
   28.1207   31.6548   41.4813 C   0  0  0  0  0  0  0  0  0  0  0  0
   27.5516   30.4730   41.9286 O   0  0  0  0  0  0  0  0  0  0  0  0
   29.0936   32.2849   42.5424 C   0  0  0  0  0  0  0  0  0  0  0  0
   29.0013   31.8370   43.8419 O   0  0  0  0  0  0  0  0  0  0  0  0
   30.5074   32.0673   41.8692 C   0  0  0  0  0  0  0  0  0  0  0  0
   28.2520   29.8336   42.1324 H   0  0  0  0  0  0  0  0  0  0  0  0
   29.2006   30.8881   43.8717 H   0  0  0  0  0  0  0  0  0  0  0  0
   31.4982   33.1064   42.1403 N   0  0  0  0  0  0  0  0  0  0  0  0
   32.9119   33.0145   42.3086 C   0  0  0  0  0  0  0  0  0  0  0  0
   33.4976   34.1833   42.5608 N   0  0  0  0  0  0  0  0  0  0  0  0
   32.4460   35.1172   42.5716 C   0  0  0  0  0  0  0  0  0  0  0  0
   32.4476   36.5231   42.7885 C   0  0  0  0  0  0  0  0  0  0  0  0
   33.5889   37.2181   43.0483 N   0  0  0  0  0  0  0  0  0  0  0  0
   31.2511   37.2076   42.7393 N   0  0  0  0  0  0  0  0  0  0  0  0
   30.1314   36.4722   42.4795 C   0  0  0  0  0  0  0  0  0  0  0  0
   29.9844   35.1361   42.2563 N   0  0  0  0  0  0  0  0  0  0  0  0
   31.1954   34.4808   42.3124 C   0  0  0  0  0  0  0  0  0  0  0  0
   34.4531   36.7483   43.0877 H   0  0  0  0  0  0  0  0  0  0  0  0
   33.5500   38.1905   43.1969 H   0  0  0  0  0  0  0  0  0  0  0  0
   28.3111   31.6197   38.8796 C   0  0  0  0  0  0  0  0  0  0  0  0
   27.1136   32.3114   39.1653 O   0  0  0  0  0  0  0  0  0  0  0  0
   26.7866   33.8628   38.8362 P   0  0  0  0  0  0  0  0  0  0  0  0
   25.3260   34.2260   39.3142 O   0  0  0  0  0  0  0  0  0  0  0  0
   27.6135   34.6756   39.9108 O   0  0  0  0  0  0  0  0  0  0  0  0
   27.0862   34.2426   37.4485 O   0  0  0  0  0  0  0  0  0  0  0  0
   27.4691   35.6257   39.7790 H   0  0  0  0  0  0  0  0  0  0  0  0
   26.8698   35.1788   37.3156 H   0  0  0  0  0  0  0  0  0  0  0  0
 24 25  2  0  0  0
 24 26  1  0  0  0
 24 27  1  0  0  0
 24 23  1  0  0  0
 23 22  1  0  0  0
 22  1  1  0  0  0
  1  2  1  0  0  0
  1  3  1  0  0  0
  2  7  1  0  0  0
  3  4  1  0  0  0
  3  5  1  0  0  0
  5  6  1  0  0  0
  5  7  1  0  0  0
  7 10  1  0  0  0
 10 11  1  0  0  0
 10 19  1  0  0  0
 11 12  2  0  0  0
 12 13  1  0  0  0
 13 14  1  0  0  0
 13 19  2  0  0  0
 14 15  1  0  0  0
 14 16  2  0  0  0
 16 17  1  0  0  0
 17 18  2  0  0  0
 18 19  1  0  0  0
 26 28  1  0  0  0
 27 29  1  0  0  0
  4  8  1  0  0  0
  6  9  1  0  0  0
 15 20  1  0  0  0
 15 21  1  0  0  0
M  END
> <minimizedAffinity>
-6.58255

$$$$
4G0Y_AMP_A_801


 29 31  0  0  0  0  0  0  0  0999 V2000
   29.6769   32.1364   40.1754 C   0  0  0  0  0  0  0  0  0  0  0  0
   29.6331   30.7659   39.7987 O   0  0  0  0  0  0  0  0  0  0  0  0
   28.7057   32.8561   39.1653 C   0  0  0  0  0  0  0  0  0  0  0  0
   29.3129   34.0180   38.7159 O   0  0  0  0  0  0  0  0  0  0  0  0
   28.4792   31.8177   38.0076 C   0  0  0  0  0  0  0  0  0  0  0  0
   28.5572   32.2766   36.7110 O   0  0  0  0  0  0  0  0  0  0  0  0
   29.5194   30.6835   38.3689 C   0  0  0  0  0  0  0  0  0  0  0  0
   30.1693   33.8011   38.3154 H   0  0  0  0  0  0  0  0  0  0  0  0
   29.4464   32.6266   36.5449 H   0  0  0  0  0  0  0  0  0  0  0  0
   29.1118   29.3241   38.0211 N   0  0  0  0  0  0  0  0  0  0  0  0
   28.7218   28.2340   38.8548 C   0  0  0  0  0  0  0  0  0  0  0  0
   28.4267   27.1243   38.1809 N   0  0  0  0  0  0  0  0  0  0  0  0
   28.6255   27.4608   36.8298 C   0  0  0  0  0  0  0  0  0  0  0  0
   28.4731   26.6909   35.6433 C   0  0  0  0  0  0  0  0  0  0  0  0
   28.0800   25.3879   35.6668 N   0  0  0  0  0  0  0  0  0  0  0  0
   28.7374   27.2820   34.4254 N   0  0  0  0  0  0  0  0  0  0  0  0
   29.1319   28.5881   34.4477 C   0  0  0  0  0  0  0  0  0  0  0  0
   29.3194   29.4363   35.4974 N   0  0  0  0  0  0  0  0  0  0  0  0
   29.0483   28.8173   36.6985 C   0  0  0  0  0  0  0  0  0  0  0  0
   27.8865   24.9474   36.5258 H   0  0  0  0  0  0  0  0  0  0  0  0
   27.9891   24.8859   34.8248 H   0  0  0  0  0  0  0  0  0  0  0  0
   29.3304   32.4365   41.6632 C   0  0  0  0  0  0  0  0  0  0  0  0
   29.7497   33.7557   41.9426 O   0  0  0  0  0  0  0  0  0  0  0  0
   28.8150   34.9928   42.4099 P   0  0  0  0  0  0  0  0  0  0  0  0
   29.7099   36.1967   42.9036 O   0  0  0  0  0  0  0  0  0  0  0  0
   28.2796   35.6137   41.0583 O   0  0  0  0  0  0  0  0  0  0  0  0
   27.7499   34.6016   43.3439 O   0  0  0  0  0  0  0  0  0  0  0  0
   27.7046   36.3697   41.2552 H   0  0  0  0  0  0  0  0  0  0  0  0
   27.2280   35.3830   43.5847 H   0  0  0  0  0  0  0  0  0  0  0  0
 24 25  2  0  0  0
 24 26  1  0  0  0
 24 27  1  0  0  0
 24 23  1  0  0  0
 23 22  1  0  0  0
 22  1  1  0  0  0
  1  2  1  0  0  0
  1  3  1  0  0  0
  2  7  1  0  0  0
  3  4  1  0  0  0
  3  5  1  0  0  0
  5  6  1  0  0  0
  5  7  1  0  0  0
  7 10  1  0  0  0
 10 11  1  0  0  0
 10 19  1  0  0  0
 11 12  2  0  0  0
 12 13  1  0  0  0
 13 14  1  0  0  0
 13 19  2  0  0  0
 14 15  1  0  0  0
 14 16  2  0  0  0
 16 17  1  0  0  0
 17 18  2  0  0  0
 18 19  1  0  0  0
 26 28  1  0  0  0
 27 29  1  0  0  0
  4  8  1  0  0  0
  6  9  1  0  0  0
 15 20  1  0  0  0
 15 21  1  0  0  0
M  END
> <minimizedAffinity>
-6.43956

$$$$
4G0Y_AMP_A_801


 29 31  0  0  0  0  0  0  0  0999 V2000
   29.5872   27.8304   36.9404 C   0  0  0  0  0  0  0  0  0  0  0  0
   28.9322   28.7476   37.8074 O   0  0  0  0  0  0  0  0  0  0  0  0
   30.9152   27.4493   37.6973 C   0  0  0  0  0  0  0  0  0  0  0  0
   31.9650   27.4734   36.7929 O   0  0  0  0  0  0  0  0  0  0  0  0
   31.0719   28.5386   38.8191 C   0  0  0  0  0  0  0  0  0  0  0  0
   32.3149   29.1070   38.9911 O   0  0  0  0  0  0  0  0  0  0  0  0
   29.9243   29.5622   38.4526 C   0  0  0  0  0  0  0  0  0  0  0  0
   32.0138   28.3486   36.3774 H   0  0  0  0  0  0  0  0  0  0  0  0
   32.5761   29.5656   38.1772 H   0  0  0  0  0  0  0  0  0  0  0  0
   29.2956   30.2333   39.5880 N   0  0  0  0  0  0  0  0  0  0  0  0
   27.9536   30.1758   40.0688 C   0  0  0  0  0  0  0  0  0  0  0  0
   27.7340   30.9427   41.1347 N   0  0  0  0  0  0  0  0  0  0  0  0
   28.9719   31.5571   41.3965 C   0  0  0  0  0  0  0  0  0  0  0  0
   29.3609   32.4818   42.4050 C   0  0  0  0  0  0  0  0  0  0  0  0
   28.4895   32.9459   43.3422 N   0  0  0  0  0  0  0  0  0  0  0  0
   30.6654   32.9294   42.4331 N   0  0  0  0  0  0  0  0  0  0  0  0
   31.5043   32.4418   41.4738 C   0  0  0  0  0  0  0  0  0  0  0  0
   31.2696   31.5641   40.4584 N   0  0  0  0  0  0  0  0  0  0  0  0
   29.9595   31.1362   40.4566 C   0  0  0  0  0  0  0  0  0  0  0  0
   27.5541   32.6388   43.3395 H   0  0  0  0  0  0  0  0  0  0  0  0
   28.7947   33.5886   44.0227 H   0  0  0  0  0  0  0  0  0  0  0  0
   28.7517   26.5847   36.5235 C   0  0  0  0  0  0  0  0  0  0  0  0
   29.6574   25.5560   36.1836 O   0  0  0  0  0  0  0  0  0  0  0  0
   29.6148   24.0186   36.6903 P   0  0  0  0  0  0  0  0  0  0  0  0
   31.0044   23.3173   36.4234 O   0  0  0  0  0  0  0  0  0  0  0  0
   29.6826   24.1218   38.2664 O   0  0  0  0  0  0  0  0  0  0  0  0
   28.4499   23.2714   36.1961 O   0  0  0  0  0  0  0  0  0  0  0  0
   29.6616   23.2312   38.6499 H   0  0  0  0  0  0  0  0  0  0  0  0
   28.4822   22.3623   36.5330 H   0  0  0  0  0  0  0  0  0  0  0  0
 24 25  2  0  0  0
 24 26  1  0  0  0
 24 27  1  0  0  0
 24 23  1  0  0  0
 23 22  1  0  0  0
 22  1  1  0  0  0
  1  2  1  0  0  0
  1  3  1  0  0  0
  2  7  1  0  0  0
  3  4  1  0  0  0
  3  5  1  0  0  0
  5  6  1  0  0  0
  5  7  1  0  0  0
  7 10  1  0  0  0
 10 11  1  0  0  0
 10 19  1  0  0  0
 11 12  2  0  0  0
 12 13  1  0  0  0
 13 14  1  0  0  0
 13 19  2  0  0  0
 14 15  1  0  0  0
 14 16  2  0  0  0
 16 17  1  0  0  0
 17 18  2  0  0  0
 18 19  1  0  0  0
 26 28  1  0  0  0
 27 29  1  0  0  0
  4  8  1  0  0  0
  6  9  1  0  0  0
 15 20  1  0  0  0
 15 21  1  0  0  0
M  END
> <minimizedAffinity>
-6.35754

$$$$
4G0Y_AMP_A_801


 29 31  0  0  0  0  0  0  0  0999 V2000
   30.5482   33.4518   41.8070 C   0  0  0  0  0  0  0  0  0  0  0  0
   30.9100   32.5038   40.8107 O   0  0  0  0  0  0  0  0  0  0  0  0
   29.5668   32.6701   42.7597 C   0  0  0  0  0  0  0  0  0  0  0  0
   28.4826   33.4845   43.0461 O   0  0  0  0  0  0  0  0  0  0  0  0
   29.1501   31.3879   41.9523 C   0  0  0  0  0  0  0  0  0  0  0  0
   27.8160   31.0449   41.9385 O   0  0  0  0  0  0  0  0  0  0  0  0
   29.7716   31.6746   40.5273 C   0  0  0  0  0  0  0  0  0  0  0  0
   28.0562   33.7580   42.2190 H   0  0  0  0  0  0  0  0  0  0  0  0
   27.3027   31.7595   41.5299 H   0  0  0  0  0  0  0  0  0  0  0  0
   30.2352   30.4974   39.7963 N   0  0  0  0  0  0  0  0  0  0  0  0
   31.5514   30.1127   39.4025 C   0  0  0  0  0  0  0  0  0  0  0  0
   31.5940   28.9657   38.7277 N   0  0  0  0  0  0  0  0  0  0  0  0
   30.2540   28.5454   38.6488 C   0  0  0  0  0  0  0  0  0  0  0  0
   29.6697   27.3958   38.0483 C   0  0  0  0  0  0  0  0  0  0  0  0
   30.4114   26.4584   37.3970 N   0  0  0  0  0  0  0  0  0  0  0  0
   28.3029   27.2255   38.1229 N   0  0  0  0  0  0  0  0  0  0  0  0
   27.5974   28.1901   38.7814 C   0  0  0  0  0  0  0  0  0  0  0  0
   28.0211   29.3305   39.3951 N   0  0  0  0  0  0  0  0  0  0  0  0
   29.3889   29.4724   39.3032 C   0  0  0  0  0  0  0  0  0  0  0  0
   31.3883   26.5613   37.3326 H   0  0  0  0  0  0  0  0  0  0  0  0
   29.9708   25.6774   36.9904 H   0  0  0  0  0  0  0  0  0  0  0  0
   31.7340   34.1103   42.5713 C   0  0  0  0  0  0  0  0  0  0  0  0
   31.2322   35.2472   43.2420 O   0  0  0  0  0  0  0  0  0  0  0  0
   30.5254   36.5387   42.5677 P   0  0  0  0  0  0  0  0  0  0  0  0
   28.9580   36.3484   42.5354 O   0  0  0  0  0  0  0  0  0  0  0  0
   30.6206   37.6624   43.6755 O   0  0  0  0  0  0  0  0  0  0  0  0
   31.1192   36.9256   41.2803 O   0  0  0  0  0  0  0  0  0  0  0  0
   30.2138   38.4783   43.3443 H   0  0  0  0  0  0  0  0  0  0  0  0
   30.6542   37.7013   40.9298 H   0  0  0  0  0  0  0  0  0  0  0  0
 24 25  2  0  0  0
 24 26  1  0  0  0
 24 27  1  0  0  0
 24 23  1  0  0  0
 23 22  1  0  0  0
 22  1  1  0  0  0
  1  2  1  0  0  0
  1  3  1  0  0  0
  2  7  1  0  0  0
  3  4  1  0  0  0
  3  5  1  0  0  0
  5  6  1  0  0  0
  5  7  1  0  0  0
  7 10  1  0  0  0
 10 11  1  0  0  0
 10 19  1  0  0  0
 11 12  2  0  0  0
 12 13  1  0  0  0
 13 14  1  0  0  0
 13 19  2  0  0  0
 14 15  1  0  0  0
 14 16  2  0  0  0
 16 17  1  0  0  0
 17 18  2  0  0  0
 18 19  1  0  0  0
 26 28  1  0  0  0
 27 29  1  0  0  0
  4  8  1  0  0  0
  6  9  1  0  0  0
 15 20  1  0  0  0
 15 21  1  0  0  0
M  END
> <minimizedAffinity>
-6.17555

$$$$
4G0Y_AMP_A_801


 29 31  0  0  0  0  0  0  0  0999 V2000
   29.8088   32.0282   40.4821 C   0  0  0  0  0  0  0  0  0  0  0  0
   29.9115   30.6283   40.2542 O   0  0  0  0  0  0  0  0  0  0  0  0
   28.8044   32.5363   39.3800 C   0  0  0  0  0  0  0  0  0  0  0  0
   29.3088   33.6999   38.8212 O   0  0  0  0  0  0  0  0  0  0  0  0
   28.7177   31.3647   38.3362 C   0  0  0  0  0  0  0  0  0  0  0  0
   28.7917   31.6905   36.9998 O   0  0  0  0  0  0  0  0  0  0  0  0
   29.8520   30.3853   38.8394 C   0  0  0  0  0  0  0  0  0  0  0  0
   30.1947   33.5297   38.4647 H   0  0  0  0  0  0  0  0  0  0  0  0
   29.6472   32.1090   36.8158 H   0  0  0  0  0  0  0  0  0  0  0  0
   29.5908   28.9628   38.6314 N   0  0  0  0  0  0  0  0  0  0  0  0
   28.3567   28.2577   38.5087 C   0  0  0  0  0  0  0  0  0  0  0  0
   28.5051   26.9455   38.3386 N   0  0  0  0  0  0  0  0  0  0  0  0
   29.8960   26.7369   38.3493 C   0  0  0  0  0  0  0  0  0  0  0  0
   30.6629   25.5464   38.2141 C   0  0  0  0  0  0  0  0  0  0  0  0
   30.0866   24.3246   38.0464 N   0  0  0  0  0  0  0  0  0  0  0  0
   32.0389   25.6299   38.2595 N   0  0  0  0  0  0  0  0  0  0  0  0
   32.5748   26.8728   38.4325 C   0  0  0  0  0  0  0  0  0  0  0  0
   31.9678   28.0843   38.5761 N   0  0  0  0  0  0  0  0  0  0  0  0
   30.5954   27.9678   38.5270 C   0  0  0  0  0  0  0  0  0  0  0  0
   29.1061   24.2434   38.0113 H   0  0  0  0  0  0  0  0  0  0  0  0
   30.6504   23.5221   37.9601 H   0  0  0  0  0  0  0  0  0  0  0  0
   29.3873   32.4463   41.9213 C   0  0  0  0  0  0  0  0  0  0  0  0
   29.8551   33.7608   42.1394 O   0  0  0  0  0  0  0  0  0  0  0  0
   28.9539   35.0911   42.3396 P   0  0  0  0  0  0  0  0  0  0  0  0
   28.1614   35.4181   41.0133 O   0  0  0  0  0  0  0  0  0  0  0  0
   27.7474   34.6164   43.2441 O   0  0  0  0  0  0  0  0  0  0  0  0
   29.7015   36.2261   42.8987 O   0  0  0  0  0  0  0  0  0  0  0  0
   27.1544   35.3656   43.4114 H   0  0  0  0  0  0  0  0  0  0  0  0
   29.1089   36.9882   42.9938 H   0  0  0  0  0  0  0  0  0  0  0  0
 24 25  2  0  0  0
 24 26  1  0  0  0
 24 27  1  0  0  0
 24 23  1  0  0  0
 23 22  1  0  0  0
 22  1  1  0  0  0
  1  2  1  0  0  0
  1  3  1  0  0  0
  2  7  1  0  0  0
  3  4  1  0  0  0
  3  5  1  0  0  0
  5  6  1  0  0  0
  5  7  1  0  0  0
  7 10  1  0  0  0
 10 11  1  0  0  0
 10 19  1  0  0  0
 11 12  2  0  0  0
 12 13  1  0  0  0
 13 14  1  0  0  0
 13 19  2  0  0  0
 14 15  1  0  0  0
 14 16  2  0  0  0
 16 17  1  0  0  0
 17 18  2  0  0  0
 18 19  1  0  0  0
 26 28  1  0  0  0
 27 29  1  0  0  0
  4  8  1  0  0  0
  6  9  1  0  0  0
 15 20  1  0  0  0
 15 21  1  0  0  0
M  END
> <minimizedAffinity>
-6.08255

$$$$
4G0Y_AMP_A_801


 29 31  0  0  0  0  0  0  0  0999 V2000
   29.7653   32.3035   39.8950 C   0  0  0  0  0  0  0  0  0  0  0  0
   30.5048   31.2466   39.2964 O   0  0  0  0  0  0  0  0  0  0  0  0
   28.5365   31.5908   40.5761 C   0  0  0  0  0  0  0  0  0  0  0  0
   27.3903   32.3182   40.2975 O   0  0  0  0  0  0  0  0  0  0  0  0
   28.4968   30.1531   39.9429 C   0  0  0  0  0  0  0  0  0  0  0  0
   27.2753   29.6688   39.5292 O   0  0  0  0  0  0  0  0  0  0  0  0
   29.5839   30.2619   38.8003 C   0  0  0  0  0  0  0  0  0  0  0  0
   27.2849   32.4001   39.3368 H   0  0  0  0  0  0  0  0  0  0  0  0
   26.9180   30.2437   38.8344 H   0  0  0  0  0  0  0  0  0  0  0  0
   30.3304   29.0363   38.5255 N   0  0  0  0  0  0  0  0  0  0  0  0
   31.6744   28.6808   38.8461 C   0  0  0  0  0  0  0  0  0  0  0  0
   32.0234   27.4690   38.4192 N   0  0  0  0  0  0  0  0  0  0  0  0
   30.8768   26.9710   37.7746 C   0  0  0  0  0  0  0  0  0  0  0  0
   30.6380   25.7312   37.1192 C   0  0  0  0  0  0  0  0  0  0  0  0
   31.5936   24.7675   37.0144 N   0  0  0  0  0  0  0  0  0  0  0  0
   29.3967   25.4973   36.5650 N   0  0  0  0  0  0  0  0  0  0  0  0
   28.4697   26.4908   36.6897 C   0  0  0  0  0  0  0  0  0  0  0  0
   28.5606   27.7143   37.2825 N   0  0  0  0  0  0  0  0  0  0  0  0
   29.8108   27.9182   37.8255 C   0  0  0  0  0  0  0  0  0  0  0  0
   32.4860   24.9148   37.4032 H   0  0  0  0  0  0  0  0  0  0  0  0
   31.3923   23.9231   36.5499 H   0  0  0  0  0  0  0  0  0  0  0  0
   30.5616   33.2071   40.8815 C   0  0  0  0  0  0  0  0  0  0  0  0
   29.6998   33.5368   41.9505 O   0  0  0  0  0  0  0  0  0  0  0  0
   28.9602   34.9558   42.1988 P   0  0  0  0  0  0  0  0  0  0  0  0
   28.0911   35.3460   40.9393 O   0  0  0  0  0  0  0  0  0  0  0  0
   27.7963   34.6203   43.2147 O   0  0  0  0  0  0  0  0  0  0  0  0
   29.8663   36.0143   42.6661 O   0  0  0  0  0  0  0  0  0  0  0  0
   27.3000   35.4290   43.4163 H   0  0  0  0  0  0  0  0  0  0  0  0
   29.3654   36.8348   42.7955 H   0  0  0  0  0  0  0  0  0  0  0  0
 24 25  2  0  0  0
 24 26  1  0  0  0
 24 27  1  0  0  0
 24 23  1  0  0  0
 23 22  1  0  0  0
 22  1  1  0  0  0
  1  2  1  0  0  0
  1  3  1  0  0  0
  2  7  1  0  0  0
  3  4  1  0  0  0
  3  5  1  0  0  0
  5  6  1  0  0  0
  5  7  1  0  0  0
  7 10  1  0  0  0
 10 11  1  0  0  0
 10 19  1  0  0  0
 11 12  2  0  0  0
 12 13  1  0  0  0
 13 14  1  0  0  0
 13 19  2  0  0  0
 14 15  1  0  0  0
 14 16  2  0  0  0
 16 17  1  0  0  0
 17 18  2  0  0  0
 18 19  1  0  0  0
 26 28  1  0  0  0
 27 29  1  0  0  0
  4  8  1  0  0  0
  6  9  1  0  0  0
 15 20  1  0  0  0
 15 21  1  0  0  0
M  END
> <minimizedAffinity>
-6.07864

$$$$
4G0Y_AMP_A_801


 29 31  0  0  0  0  0  0  0  0999 V2000
   29.6537   30.5883   39.9572 C   0  0  0  0  0  0  0  0  0  0  0  0
   29.2849   29.4010   39.2668 O   0  0  0  0  0  0  0  0  0  0  0  0
   30.2081   31.5436   38.8339 C   0  0  0  0  0  0  0  0  0  0  0  0
   31.3743   32.1369   39.2906 O   0  0  0  0  0  0  0  0  0  0  0  0
   30.4614   30.6114   37.5944 C   0  0  0  0  0  0  0  0  0  0  0  0
   31.6502   30.7589   36.9141 O   0  0  0  0  0  0  0  0  0  0  0  0
   30.2263   29.1726   38.2058 C   0  0  0  0  0  0  0  0  0  0  0  0
   32.0113   31.4488   39.5391 H   0  0  0  0  0  0  0  0  0  0  0  0
   32.3903   30.5662   37.5107 H   0  0  0  0  0  0  0  0  0  0  0  0
   29.6528   28.1880   37.2911 N   0  0  0  0  0  0  0  0  0  0  0  0
   28.9081   28.3678   36.0875 C   0  0  0  0  0  0  0  0  0  0  0  0
   28.5296   27.2259   35.5172 N   0  0  0  0  0  0  0  0  0  0  0  0
   29.0286   26.2190   36.3631 C   0  0  0  0  0  0  0  0  0  0  0  0
   28.9425   24.8015   36.2797 C   0  0  0  0  0  0  0  0  0  0  0  0
   28.2897   24.1705   35.2655 N   0  0  0  0  0  0  0  0  0  0  0  0
   29.5362   24.0377   37.2629 N   0  0  0  0  0  0  0  0  0  0  0  0
   30.1767   24.7104   38.2624 C   0  0  0  0  0  0  0  0  0  0  0  0
   30.3344   26.0483   38.4667 N   0  0  0  0  0  0  0  0  0  0  0  0
   29.7307   26.7836   37.4696 C   0  0  0  0  0  0  0  0  0  0  0  0
   27.8593   24.6974   34.5539 H   0  0  0  0  0  0  0  0  0  0  0  0
   28.2480   23.1871   35.2435 H   0  0  0  0  0  0  0  0  0  0  0  0
   28.5299   31.2476   40.8093 C   0  0  0  0  0  0  0  0  0  0  0  0
   29.0242   32.4802   41.2894 O   0  0  0  0  0  0  0  0  0  0  0  0
   29.3040   32.8784   42.8338 P   0  0  0  0  0  0  0  0  0  0  0  0
   30.6687   33.6637   42.9562 O   0  0  0  0  0  0  0  0  0  0  0  0
   28.3021   34.0670   43.1213 O   0  0  0  0  0  0  0  0  0  0  0  0
   29.1647   31.7493   43.7640 O   0  0  0  0  0  0  0  0  0  0  0  0
   28.4092   34.3656   44.0379 H   0  0  0  0  0  0  0  0  0  0  0  0
   29.3440   32.0513   44.6682 H   0  0  0  0  0  0  0  0  0  0  0  0
 24 25  2  0  0  0
 24 26  1  0  0  0
 24 27  1  0  0  0
 24 23  1  0  0  0
 23 22  1  0  0  0
 22  1  1  0  0  0
  1  2  1  0  0  0
  1  3  1  0  0  0
  2  7  1  0  0  0
  3  4  1  0  0  0
  3  5  1  0  0  0
  5  6  1  0  0  0
  5  7  1  0  0  0
  7 10  1  0  0  0
 10 11  1  0  0  0
 10 19  1  0  0  0
 11 12  2  0  0  0
 12 13  1  0  0  0
 13 14  1  0  0  0
 13 19  2  0  0  0
 14 15  1  0  0  0
 14 16  2  0  0  0
 16 17  1  0  0  0
 17 18  2  0  0  0
 18 19  1  0  0  0
 26 28  1  0  0  0
 27 29  1  0  0  0
  4  8  1  0  0  0
  6  9  1  0  0  0
 15 20  1  0  0  0
 15 21  1  0  0  0
M  END
> <minimizedAffinity>
-6.06961

$$$$
4G0Y_AMP_A_801


 29 31  0  0  0  0  0  0  0  0999 V2000
   29.3331   30.3463   38.6127 C   0  0  0  0  0  0  0  0  0  0  0  0
   29.6511   31.6260   39.1450 O   0  0  0  0  0  0  0  0  0  0  0  0
   27.9148   30.0101   39.2104 C   0  0  0  0  0  0  0  0  0  0  0  0
   27.9169   28.6949   39.6474 O   0  0  0  0  0  0  0  0  0  0  0  0
   27.7182   31.0285   40.3909 C   0  0  0  0  0  0  0  0  0  0  0  0
   27.2340   30.5399   41.5846 O   0  0  0  0  0  0  0  0  0  0  0  0
   29.1425   31.7076   40.4862 C   0  0  0  0  0  0  0  0  0  0  0  0
   28.6299   28.5699   40.2931 H   0  0  0  0  0  0  0  0  0  0  0  0
   27.8525   29.8822   41.9394 H   0  0  0  0  0  0  0  0  0  0  0  0
   29.1425   33.1120   40.8895 N   0  0  0  0  0  0  0  0  0  0  0  0
   28.2438   34.1692   40.5578 C   0  0  0  0  0  0  0  0  0  0  0  0
   28.5687   35.3388   41.1048 N   0  0  0  0  0  0  0  0  0  0  0  0
   29.7402   35.0791   41.8386 C   0  0  0  0  0  0  0  0  0  0  0  0
   30.5537   35.9343   42.6327 C   0  0  0  0  0  0  0  0  0  0  0  0
   30.2769   37.2571   42.7955 N   0  0  0  0  0  0  0  0  0  0  0  0
   31.6657   35.4079   43.2563 N   0  0  0  0  0  0  0  0  0  0  0  0
   31.9082   34.0790   43.0638 C   0  0  0  0  0  0  0  0  0  0  0  0
   31.2230   33.1523   42.3368 N   0  0  0  0  0  0  0  0  0  0  0  0
   30.1195   33.7081   41.7264 C   0  0  0  0  0  0  0  0  0  0  0  0
   29.4879   37.6523   42.3588 H   0  0  0  0  0  0  0  0  0  0  0  0
   30.8655   37.8187   43.3499 H   0  0  0  0  0  0  0  0  0  0  0  0
   29.3758   30.2338   37.0605 C   0  0  0  0  0  0  0  0  0  0  0  0
   28.5236   29.1723   36.6848 O   0  0  0  0  0  0  0  0  0  0  0  0
   28.9650   27.6618   36.3028 P   0  0  0  0  0  0  0  0  0  0  0  0
   30.4632   27.4061   36.7319 O   0  0  0  0  0  0  0  0  0  0  0  0
   28.2372   26.7563   37.3749 O   0  0  0  0  0  0  0  0  0  0  0  0
   28.6579   27.2958   34.9131 O   0  0  0  0  0  0  0  0  0  0  0  0
   28.4539   25.8249   37.2121 H   0  0  0  0  0  0  0  0  0  0  0  0
   28.9451   26.3842   34.7477 H   0  0  0  0  0  0  0  0  0  0  0  0
 24 25  2  0  0  0
 24 26  1  0  0  0
 24 27  1  0  0  0
 24 23  1  0  0  0
 23 22  1  0  0  0
 22  1  1  0  0  0
  1  2  1  0  0  0
  1  3  1  0  0  0
  2  7  1  0  0  0
  3  4  1  0  0  0
  3  5  1  0  0  0
  5  6  1  0  0  0
  5  7  1  0  0  0
  7 10  1  0  0  0
 10 11  1  0  0  0
 10 19  1  0  0  0
 11 12  2  0  0  0
 12 13  1  0  0  0
 13 14  1  0  0  0
 13 19  2  0  0  0
 14 15  1  0  0  0
 14 16  2  0  0  0
 16 17  1  0  0  0
 17 18  2  0  0  0
 18 19  1  0  0  0
 26 28  1  0  0  0
 27 29  1  0  0  0
  4  8  1  0  0  0
  6  9  1  0  0  0
 15 20  1  0  0  0
 15 21  1  0  0  0
M  END
> <minimizedAffinity>
-6.05631

$$$$
4G0Y_AMP_A_801


 29 31  0  0  0  0  0  0  0  0999 V2000
   29.8408   31.6789   40.4542 C   0  0  0  0  0  0  0  0  0  0  0  0
   30.6778   32.8278   40.4155 O   0  0  0  0  0  0  0  0  0  0  0  0
   28.5187   32.1754   41.1523 C   0  0  0  0  0  0  0  0  0  0  0  0
   28.1276   31.2301   42.0872 O   0  0  0  0  0  0  0  0  0  0  0  0
   28.8996   33.5472   41.8176 C   0  0  0  0  0  0  0  0  0  0  0  0
   28.4831   33.7690   43.1119 O   0  0  0  0  0  0  0  0  0  0  0  0
   30.4664   33.5937   41.6125 C   0  0  0  0  0  0  0  0  0  0  0  0
   28.8481   31.0838   42.7200 H   0  0  0  0  0  0  0  0  0  0  0  0
   28.8782   33.1040   43.6972 H   0  0  0  0  0  0  0  0  0  0  0  0
   31.0335   34.9248   41.4086 N   0  0  0  0  0  0  0  0  0  0  0  0
   30.9240   35.8166   40.3004 C   0  0  0  0  0  0  0  0  0  0  0  0
   31.5959   36.9547   40.4614 N   0  0  0  0  0  0  0  0  0  0  0  0
   32.1963   36.8413   41.7283 C   0  0  0  0  0  0  0  0  0  0  0  0
   33.0354   37.7369   42.4477 C   0  0  0  0  0  0  0  0  0  0  0  0
   33.4109   38.9449   41.9450 N   0  0  0  0  0  0  0  0  0  0  0  0
   33.4901   37.3681   43.6966 N   0  0  0  0  0  0  0  0  0  0  0  0
   33.0927   36.1480   44.1608 C   0  0  0  0  0  0  0  0  0  0  0  0
   32.3023   35.1988   43.5857 N   0  0  0  0  0  0  0  0  0  0  0  0
   31.8650   35.5958   42.3406 C   0  0  0  0  0  0  0  0  0  0  0  0
   33.0973   39.2269   41.0554 H   0  0  0  0  0  0  0  0  0  0  0  0
   33.9961   39.5366   42.4710 H   0  0  0  0  0  0  0  0  0  0  0  0
   29.5772   30.9920   39.0822 C   0  0  0  0  0  0  0  0  0  0  0  0
   28.7572   29.8666   39.3175 O   0  0  0  0  0  0  0  0  0  0  0  0
   28.8536   28.4254   38.5856 P   0  0  0  0  0  0  0  0  0  0  0  0
   27.5232   27.6062   38.8161 O   0  0  0  0  0  0  0  0  0  0  0  0
   28.6854   28.7528   37.0482 O   0  0  0  0  0  0  0  0  0  0  0  0
   30.0855   27.6892   38.9022 O   0  0  0  0  0  0  0  0  0  0  0  0
   28.7322   27.9307   36.5355 H   0  0  0  0  0  0  0  0  0  0  0  0
   30.0829   26.8388   38.4357 H   0  0  0  0  0  0  0  0  0  0  0  0
 24 25  2  0  0  0
 24 26  1  0  0  0
 24 27  1  0  0  0
 24 23  1  0  0  0
 23 22  1  0  0  0
 22  1  1  0  0  0
  1  2  1  0  0  0
  1  3  1  0  0  0
  2  7  1  0  0  0
  3  4  1  0  0  0
  3  5  1  0  0  0
  5  6  1  0  0  0
  5  7  1  0  0  0
  7 10  1  0  0  0
 10 11  1  0  0  0
 10 19  1  0  0  0
 11 12  2  0  0  0
 12 13  1  0  0  0
 13 14  1  0  0  0
 13 19  2  0  0  0
 14 15  1  0  0  0
 14 16  2  0  0  0
 16 17  1  0  0  0
 17 18  2  0  0  0
 18 19  1  0  0  0
 26 28  1  0  0  0
 27 29  1  0  0  0
  4  8  1  0  0  0
  6  9  1  0  0  0
 15 20  1  0  0  0
 15 21  1  0  0  0
M  END
> <minimizedAffinity>
-5.77106

$$$$
4G0Y_AMP_A_801


 29 31  0  0  0  0  0  0  0  0999 V2000
   30.3745   28.0262   38.5479 C   0  0  0  0  0  0  0  0  0  0  0  0
   30.7418   29.3147   39.0243 O   0  0  0  0  0  0  0  0  0  0  0  0
   28.8637   28.1753   38.1271 C   0  0  0  0  0  0  0  0  0  0  0  0
   28.1609   27.0771   38.5966 O   0  0  0  0  0  0  0  0  0  0  0  0
   28.3856   29.5160   38.7930 C   0  0  0  0  0  0  0  0  0  0  0  0
   27.1695   29.5118   39.4402 O   0  0  0  0  0  0  0  0  0  0  0  0
   29.6182   29.8915   39.7089 C   0  0  0  0  0  0  0  0  0  0  0  0
   28.2725   27.0085   39.5577 H   0  0  0  0  0  0  0  0  0  0  0  0
   27.1962   28.8788   40.1746 H   0  0  0  0  0  0  0  0  0  0  0  0
   29.8675   31.3221   39.8703 N   0  0  0  0  0  0  0  0  0  0  0  0
   30.4313   32.2702   38.9655 C   0  0  0  0  0  0  0  0  0  0  0  0
   30.5192   33.5007   39.4664 N   0  0  0  0  0  0  0  0  0  0  0  0
   30.0002   33.3961   40.7695 C   0  0  0  0  0  0  0  0  0  0  0  0
   29.8351   34.3731   41.7902 C   0  0  0  0  0  0  0  0  0  0  0  0
   30.2046   35.6723   41.6208 N   0  0  0  0  0  0  0  0  0  0  0  0
   29.2862   33.9917   42.9968 N   0  0  0  0  0  0  0  0  0  0  0  0
   28.9332   32.6799   43.1254 C   0  0  0  0  0  0  0  0  0  0  0  0
   29.0348   31.6473   42.2422 N   0  0  0  0  0  0  0  0  0  0  0  0
   29.5864   32.0593   41.0483 C   0  0  0  0  0  0  0  0  0  0  0  0
   30.5983   35.9648   40.7672 H   0  0  0  0  0  0  0  0  0  0  0  0
   30.0782   36.3193   42.3520 H   0  0  0  0  0  0  0  0  0  0  0  0
   31.2646   27.4517   37.4072 C   0  0  0  0  0  0  0  0  0  0  0  0
   30.6811   26.2394   36.9783 O   0  0  0  0  0  0  0  0  0  0  0  0
   30.8297   24.7884   37.6816 P   0  0  0  0  0  0  0  0  0  0  0  0
   31.5048   23.7657   36.6855 O   0  0  0  0  0  0  0  0  0  0  0  0
   32.0209   24.9676   38.7053 O   0  0  0  0  0  0  0  0  0  0  0  0
   29.5862   24.3071   38.2995 O   0  0  0  0  0  0  0  0  0  0  0  0
   32.1741   24.1315   39.1727 H   0  0  0  0  0  0  0  0  0  0  0  0
   29.7402   23.4379   38.7015 H   0  0  0  0  0  0  0  0  0  0  0  0
 24 25  2  0  0  0
 24 26  1  0  0  0
 24 27  1  0  0  0
 24 23  1  0  0  0
 23 22  1  0  0  0
 22  1  1  0  0  0
  1  2  1  0  0  0
  1  3  1  0  0  0
  2  7  1  0  0  0
  3  4  1  0  0  0
  3  5  1  0  0  0
  5  6  1  0  0  0
  5  7  1  0  0  0
  7 10  1  0  0  0
 10 11  1  0  0  0
 10 19  1  0  0  0
 11 12  2  0  0  0
 12 13  1  0  0  0
 13 14  1  0  0  0
 13 19  2  0  0  0
 14 15  1  0  0  0
 14 16  2  0  0  0
 16 17  1  0  0  0
 17 18  2  0  0  0
 18 19  1  0  0  0
 26 28  1  0  0  0
 27 29  1  0  0  0
  4  8  1  0  0  0
  6  9  1  0  0  0
 15 20  1  0  0  0
 15 21  1  0  0  0
M  END
> <minimizedAffinity>
-5.64052

$$$$
