4U8W_G10_A_201


 44 47  0  0  0  0  0  0  0  0999 V2000
   12.3652   19.9613   15.9835 C   0  0  0  0  0  0  0  0  0  0  0  0
   11.5148   18.7763   15.9774 N   0  0  0  0  0  0  0  0  0  0  0  0
   11.5396   17.8030   16.8869 C   0  0  0  0  0  0  0  0  0  0  0  0
   12.2693   17.7387   17.8935 O   0  0  0  0  0  0  0  0  0  0  0  0
   10.8687   18.6884   15.2399 H   0  0  0  0  0  0  0  0  0  0  0  0
   10.6165   16.8479   16.6131 O   0  0  0  0  0  0  0  0  0  0  0  0
    9.7755   17.1257   15.4827 C   0  0  0  0  0  0  0  0  0  0  0  0
    9.9172   15.9044   14.5687 C   0  0  0  0  0  0  0  0  0  0  0  0
    9.0915   14.8921   15.1527 O   0  0  0  0  0  0  0  0  0  0  0  0
    8.0151   15.5152   15.8549 C   0  0  0  0  0  0  0  0  0  0  0  0
    8.0338   15.0601   17.2093 O   0  0  0  0  0  0  0  0  0  0  0  0
    8.1922   16.1360   18.1142 C   0  0  0  0  0  0  0  0  0  0  0  0
    7.9568   17.3812   17.3096 C   0  0  0  0  0  0  0  0  0  0  0  0
    8.2948   17.0003   15.8793 C   0  0  0  0  0  0  0  0  0  0  0  0
    8.6380   18.4493   17.7264 F   0  0  0  0  0  0  0  0  0  0  0  0
    6.6594   17.6587   17.4464 F   0  0  0  0  0  0  0  0  0  0  0  0
   11.6411   21.1217   16.6677 C   0  0  0  0  0  0  0  0  0  0  0  0
   10.9514   21.9316   15.7059 O   0  0  0  0  0  0  0  0  0  0  0  0
   11.5953   22.3436   15.1088 H   0  0  0  0  0  0  0  0  0  0  0  0
   12.5459   22.0106   17.5255 C   0  0  0  0  0  0  0  0  0  0  0  0
   12.6767   21.5333   18.8727 N   0  0  0  0  0  0  0  0  0  0  0  0
   14.1925   21.4748   19.4987 S   0  0  0  0  0  0  0  0  0  0  0  0
   14.8880   20.3296   18.8871 O   0  0  0  0  0  0  0  0  0  0  0  0
   14.0339   21.4327   20.9658 O   0  0  0  0  0  0  0  0  0  0  0  0
   17.2042   26.2040   17.6656 N   0  0  0  0  0  0  0  0  0  0  0  0
   16.5172   25.1617   18.1654 C   0  0  0  0  0  0  0  0  0  0  0  0
   16.7473   23.9108   17.6156 C   0  0  0  0  0  0  0  0  0  0  0  0
   16.0191   22.8710   18.1348 C   0  0  0  0  0  0  0  0  0  0  0  0
   15.0345   22.9504   19.0713 C   0  0  0  0  0  0  0  0  0  0  0  0
   14.7620   24.2040   19.5818 C   0  0  0  0  0  0  0  0  0  0  0  0
   15.5195   25.3008   19.1127 C   0  0  0  0  0  0  0  0  0  0  0  0
   17.9062   26.0534   16.9919 H   0  0  0  0  0  0  0  0  0  0  0  0
   17.0052   27.1178   17.9733 H   0  0  0  0  0  0  0  0  0  0  0  0
   11.6350   21.8029   19.8094 C   0  0  0  0  0  0  0  0  0  0  0  0
   10.4671   20.7975   19.7872 C   0  0  0  0  0  0  0  0  0  0  0  0
   10.9027   19.4883   20.4480 C   0  0  0  0  0  0  0  0  0  0  0  0
    9.2552   21.3829   20.5152 C   0  0  0  0  0  0  0  0  0  0  0  0
   12.7298   20.3305   14.5479 C   0  0  0  0  0  0  0  0  0  0  0  0
   15.2232   20.1975   14.9879 C   0  0  0  0  0  0  0  0  0  0  0  0
   16.5073   20.7319   14.9651 C   0  0  0  0  0  0  0  0  0  0  0  0
   16.7324   21.9917   14.4078 C   0  0  0  0  0  0  0  0  0  0  0  0
   15.6632   22.6243   13.8245 C   0  0  0  0  0  0  0  0  0  0  0  0
   14.3666   22.1341   13.8586 C   0  0  0  0  0  0  0  0  0  0  0  0
   14.1472   20.8997   14.4612 C   0  0  0  0  0  0  0  0  0  0  0  0
 41 42  2  0  0  0
 41 40  1  0  0  0
 42 43  1  0  0  0
 40 39  2  0  0  0
 25 26  1  0  0  0
 43 44  2  0  0  0
 27 26  2  0  0  0
 27 28  1  0  0  0
 26 31  1  0  0  0
 28 29  2  0  0  0
 39 44  1  0  0  0
 44 38  1  0  0  0
 23 22  2  0  0  0
 31 30  2  0  0  0
 29 30  1  0  0  0
 29 22  1  0  0  0
 38  1  1  0  0  0
 16 13  1  0  0  0
 22 24  2  0  0  0
 22 21  1  0  0  0
 15 13  1  0  0  0
 13 12  1  0  0  0
 13 14  1  0  0  0
  1  2  1  0  0  0
  1 17  1  0  0  0
 12 11  1  0  0  0
 20 21  1  0  0  0
 20 17  1  0  0  0
 21 34  1  0  0  0
  2  3  1  0  0  0
  4  3  2  0  0  0
 17 18  1  0  0  0
  3  6  1  0  0  0
 14 10  1  0  0  0
 14  7  1  0  0  0
 11 10  1  0  0  0
 34 35  1  0  0  0
  6  7  1  0  0  0
 10  9  1  0  0  0
  7  8  1  0  0  0
 36 35  1  0  0  0
 35 37  1  0  0  0
  9  8  1  0  0  0
 25 32  1  0  0  0
 25 33  1  0  0  0
 18 19  1  0  0  0
  2  5  1  0  0  0
M  END
> <minimizedAffinity>
-9.98058

$$$$
4U8W_G10_A_201


 44 47  0  0  0  0  0  0  0  0999 V2000
   12.1779   19.6843   18.2411 C   0  0  0  0  0  0  0  0  0  0  0  0
   11.3108   18.5746   17.8613 N   0  0  0  0  0  0  0  0  0  0  0  0
   11.0079   18.2234   16.6123 C   0  0  0  0  0  0  0  0  0  0  0  0
   11.4143   18.7604   15.5652 O   0  0  0  0  0  0  0  0  0  0  0  0
   10.9165   18.0407   18.5884 H   0  0  0  0  0  0  0  0  0  0  0  0
   10.1919   17.1405   16.5881 O   0  0  0  0  0  0  0  0  0  0  0  0
    9.2356   17.1274   15.5169 C   0  0  0  0  0  0  0  0  0  0  0  0
    9.4887   15.8138   14.7703 C   0  0  0  0  0  0  0  0  0  0  0  0
    8.8705   14.7971   15.5653 O   0  0  0  0  0  0  0  0  0  0  0  0
    7.7693   15.3652   16.2758 C   0  0  0  0  0  0  0  0  0  0  0  0
    7.9585   15.1256   17.6716 O   0  0  0  0  0  0  0  0  0  0  0  0
    8.0223   16.3366   18.4003 C   0  0  0  0  0  0  0  0  0  0  0  0
    7.5429   17.4027   17.4584 C   0  0  0  0  0  0  0  0  0  0  0  0
    7.8246   16.8613   16.0683 C   0  0  0  0  0  0  0  0  0  0  0  0
    8.0862   18.6044   17.6564 F   0  0  0  0  0  0  0  0  0  0  0  0
    6.2327   17.5171   17.6806 F   0  0  0  0  0  0  0  0  0  0  0  0
   13.6360   19.3369   17.9373 C   0  0  0  0  0  0  0  0  0  0  0  0
   14.0489   18.1774   18.6734 O   0  0  0  0  0  0  0  0  0  0  0  0
   14.0209   18.3707   19.6235 H   0  0  0  0  0  0  0  0  0  0  0  0
   14.6223   20.4798   18.1935 C   0  0  0  0  0  0  0  0  0  0  0  0
   14.2463   21.6963   17.5313 N   0  0  0  0  0  0  0  0  0  0  0  0
   14.1415   23.0471   18.4573 S   0  0  0  0  0  0  0  0  0  0  0  0
   13.8906   22.6229   19.8453 O   0  0  0  0  0  0  0  0  0  0  0  0
   13.1039   23.8950   17.8378 O   0  0  0  0  0  0  0  0  0  0  0  0
   19.0771   26.2775   18.4668 N   0  0  0  0  0  0  0  0  0  0  0  0
   17.9847   25.4966   18.3944 C   0  0  0  0  0  0  0  0  0  0  0  0
   16.7668   26.0516   18.7529 C   0  0  0  0  0  0  0  0  0  0  0  0
   15.6743   25.2253   18.6850 C   0  0  0  0  0  0  0  0  0  0  0  0
   15.6716   23.8973   18.3864 C   0  0  0  0  0  0  0  0  0  0  0  0
   16.8913   23.3259   18.0834 C   0  0  0  0  0  0  0  0  0  0  0  0
   18.0406   24.1482   18.0929 C   0  0  0  0  0  0  0  0  0  0  0  0
   18.9854   27.2331   18.6852 H   0  0  0  0  0  0  0  0  0  0  0  0
   19.9684   25.8937   18.3014 H   0  0  0  0  0  0  0  0  0  0  0  0
   14.6550   21.9072   16.1809 C   0  0  0  0  0  0  0  0  0  0  0  0
   15.4541   20.7466   15.5567 C   0  0  0  0  0  0  0  0  0  0  0  0
   14.6005   20.0449   14.4987 C   0  0  0  0  0  0  0  0  0  0  0  0
   16.7473   21.2745   14.9319 C   0  0  0  0  0  0  0  0  0  0  0  0
   11.9977   19.9822   19.7273 C   0  0  0  0  0  0  0  0  0  0  0  0
   10.0437   18.8278   20.8577 C   0  0  0  0  0  0  0  0  0  0  0  0
    8.6954   18.7268   21.1846 C   0  0  0  0  0  0  0  0  0  0  0  0
    7.8014   19.7224   20.7873 C   0  0  0  0  0  0  0  0  0  0  0  0
    8.3214   20.8185   20.1455 C   0  0  0  0  0  0  0  0  0  0  0  0
    9.6530   20.9348   19.7772 C   0  0  0  0  0  0  0  0  0  0  0  0
   10.5250   19.9119   20.1357 C   0  0  0  0  0  0  0  0  0  0  0  0
 41 42  2  0  0  0
 41 40  1  0  0  0
 42 43  1  0  0  0
 40 39  2  0  0  0
 25 26  1  0  0  0
 43 44  2  0  0  0
 27 26  2  0  0  0
 27 28  1  0  0  0
 26 31  1  0  0  0
 28 29  2  0  0  0
 39 44  1  0  0  0
 44 38  1  0  0  0
 23 22  2  0  0  0
 31 30  2  0  0  0
 29 30  1  0  0  0
 29 22  1  0  0  0
 38  1  1  0  0  0
 16 13  1  0  0  0
 22 24  2  0  0  0
 22 21  1  0  0  0
 15 13  1  0  0  0
 13 12  1  0  0  0
 13 14  1  0  0  0
  1  2  1  0  0  0
  1 17  1  0  0  0
 12 11  1  0  0  0
 20 21  1  0  0  0
 20 17  1  0  0  0
 21 34  1  0  0  0
  2  3  1  0  0  0
  4  3  2  0  0  0
 17 18  1  0  0  0
  3  6  1  0  0  0
 14 10  1  0  0  0
 14  7  1  0  0  0
 11 10  1  0  0  0
 34 35  1  0  0  0
  6  7  1  0  0  0
 10  9  1  0  0  0
  7  8  1  0  0  0
 36 35  1  0  0  0
 35 37  1  0  0  0
  9  8  1  0  0  0
 25 32  1  0  0  0
 25 33  1  0  0  0
 18 19  1  0  0  0
  2  5  1  0  0  0
M  END
> <minimizedAffinity>
-9.83637

$$$$
4U8W_G10_A_201


 44 47  0  0  0  0  0  0  0  0999 V2000
   12.0980   19.6858   18.2063 C   0  0  0  0  0  0  0  0  0  0  0  0
   11.2018   18.5832   17.8766 N   0  0  0  0  0  0  0  0  0  0  0  0
   10.9210   18.1575   16.6458 C   0  0  0  0  0  0  0  0  0  0  0  0
   11.3755   18.6068   15.5774 O   0  0  0  0  0  0  0  0  0  0  0  0
   10.7683   18.1145   18.6261 H   0  0  0  0  0  0  0  0  0  0  0  0
   10.0670   17.1043   16.6705 O   0  0  0  0  0  0  0  0  0  0  0  0
    9.1234   17.0650   15.5888 C   0  0  0  0  0  0  0  0  0  0  0  0
    9.3730   15.7257   14.8882 C   0  0  0  0  0  0  0  0  0  0  0  0
    8.7360   14.7409   15.7081 O   0  0  0  0  0  0  0  0  0  0  0  0
    7.6318   15.3416   16.3864 C   0  0  0  0  0  0  0  0  0  0  0  0
    7.8022   15.1457   17.7915 O   0  0  0  0  0  0  0  0  0  0  0  0
    7.8687   16.3791   18.4812 C   0  0  0  0  0  0  0  0  0  0  0  0
    7.4104   17.4183   17.4997 C   0  0  0  0  0  0  0  0  0  0  0  0
    7.7036   16.8296   16.1313 C   0  0  0  0  0  0  0  0  0  0  0  0
    7.9625   18.6209   17.6653 F   0  0  0  0  0  0  0  0  0  0  0  0
    6.0988   17.5516   17.7021 F   0  0  0  0  0  0  0  0  0  0  0  0
   13.5439   19.2958   17.8959 C   0  0  0  0  0  0  0  0  0  0  0  0
   13.9281   18.1286   18.6354 O   0  0  0  0  0  0  0  0  0  0  0  0
   13.9111   18.3272   19.5847 H   0  0  0  0  0  0  0  0  0  0  0  0
   14.5636   20.4115   18.1408 C   0  0  0  0  0  0  0  0  0  0  0  0
   14.4742   21.4674   17.1729 N   0  0  0  0  0  0  0  0  0  0  0  0
   14.4236   21.0274   15.5927 S   0  0  0  0  0  0  0  0  0  0  0  0
   13.1215   21.4500   15.0494 O   0  0  0  0  0  0  0  0  0  0  0  0
   14.7053   19.5787   15.5564 O   0  0  0  0  0  0  0  0  0  0  0  0
   18.3853   24.1798   12.5655 N   0  0  0  0  0  0  0  0  0  0  0  0
   17.5371   23.3910   13.2488 C   0  0  0  0  0  0  0  0  0  0  0  0
   16.1786   23.6217   13.1034 C   0  0  0  0  0  0  0  0  0  0  0  0
   15.3399   22.8122   13.8262 C   0  0  0  0  0  0  0  0  0  0  0  0
   15.7008   21.8652   14.7348 C   0  0  0  0  0  0  0  0  0  0  0  0
   17.0543   21.6703   14.9252 C   0  0  0  0  0  0  0  0  0  0  0  0
   17.9591   22.4476   14.1676 C   0  0  0  0  0  0  0  0  0  0  0  0
   18.0356   24.8371   11.9214 H   0  0  0  0  0  0  0  0  0  0  0  0
   19.3559   24.0999   12.7095 H   0  0  0  0  0  0  0  0  0  0  0  0
   13.7548   22.6541   17.5036 C   0  0  0  0  0  0  0  0  0  0  0  0
   14.5481   23.6832   18.3324 C   0  0  0  0  0  0  0  0  0  0  0  0
   14.4254   23.3498   19.8204 C   0  0  0  0  0  0  0  0  0  0  0  0
   16.0178   23.6810   17.9067 C   0  0  0  0  0  0  0  0  0  0  0  0
   11.9447   20.0389   19.6834 C   0  0  0  0  0  0  0  0  0  0  0  0
   10.0634   18.8506   20.8987 C   0  0  0  0  0  0  0  0  0  0  0  0
    8.7287   18.7128   21.2658 C   0  0  0  0  0  0  0  0  0  0  0  0
    7.7902   19.6659   20.8669 C   0  0  0  0  0  0  0  0  0  0  0  0
    8.2541   20.7607   20.1815 C   0  0  0  0  0  0  0  0  0  0  0  0
    9.5704   20.9120   19.7731 C   0  0  0  0  0  0  0  0  0  0  0  0
   10.4869   19.9299   20.1346 C   0  0  0  0  0  0  0  0  0  0  0  0
 41 42  2  0  0  0
 41 40  1  0  0  0
 42 43  1  0  0  0
 40 39  2  0  0  0
 25 26  1  0  0  0
 43 44  2  0  0  0
 27 26  2  0  0  0
 27 28  1  0  0  0
 26 31  1  0  0  0
 28 29  2  0  0  0
 39 44  1  0  0  0
 44 38  1  0  0  0
 23 22  2  0  0  0
 31 30  2  0  0  0
 29 30  1  0  0  0
 29 22  1  0  0  0
 38  1  1  0  0  0
 16 13  1  0  0  0
 22 24  2  0  0  0
 22 21  1  0  0  0
 15 13  1  0  0  0
 13 12  1  0  0  0
 13 14  1  0  0  0
  1  2  1  0  0  0
  1 17  1  0  0  0
 12 11  1  0  0  0
 20 21  1  0  0  0
 20 17  1  0  0  0
 21 34  1  0  0  0
  2  3  1  0  0  0
  4  3  2  0  0  0
 17 18  1  0  0  0
  3  6  1  0  0  0
 14 10  1  0  0  0
 14  7  1  0  0  0
 11 10  1  0  0  0
 34 35  1  0  0  0
  6  7  1  0  0  0
 10  9  1  0  0  0
  7  8  1  0  0  0
 36 35  1  0  0  0
 35 37  1  0  0  0
  9  8  1  0  0  0
 25 32  1  0  0  0
 25 33  1  0  0  0
 18 19  1  0  0  0
  2  5  1  0  0  0
M  END
> <minimizedAffinity>
-9.59954

$$$$
4U8W_G10_A_201


 44 47  0  0  0  0  0  0  0  0999 V2000
   11.7791   19.4677   18.3715 C   0  0  0  0  0  0  0  0  0  0  0  0
   10.6659   18.7532   17.7569 N   0  0  0  0  0  0  0  0  0  0  0  0
   10.0825   19.0770   16.6037 C   0  0  0  0  0  0  0  0  0  0  0  0
   10.3864   20.0211   15.8513 O   0  0  0  0  0  0  0  0  0  0  0  0
   10.3165   17.9661   18.2340 H   0  0  0  0  0  0  0  0  0  0  0  0
    9.0878   18.2091   16.2929 O   0  0  0  0  0  0  0  0  0  0  0  0
    8.9390   17.1083   17.2029 C   0  0  0  0  0  0  0  0  0  0  0  0
    7.6340   17.3852   17.9561 C   0  0  0  0  0  0  0  0  0  0  0  0
    6.5865   17.0080   17.0571 O   0  0  0  0  0  0  0  0  0  0  0  0
    7.0613   15.9727   16.1952 C   0  0  0  0  0  0  0  0  0  0  0  0
    6.8904   16.3963   14.8413 O   0  0  0  0  0  0  0  0  0  0  0  0
    8.1258   16.4391   14.1531 C   0  0  0  0  0  0  0  0  0  0  0  0
    9.1036   15.7102   15.0284 C   0  0  0  0  0  0  0  0  0  0  0  0
    8.5470   15.8344   16.4354 C   0  0  0  0  0  0  0  0  0  0  0  0
   10.3612   16.1447   14.9382 F   0  0  0  0  0  0  0  0  0  0  0  0
    9.0890   14.4444   14.6084 F   0  0  0  0  0  0  0  0  0  0  0  0
   13.1062   18.8526   17.9250 C   0  0  0  0  0  0  0  0  0  0  0  0
   13.5356   17.8406   18.8458 O   0  0  0  0  0  0  0  0  0  0  0  0
   13.7144   18.2442   19.7096 H   0  0  0  0  0  0  0  0  0  0  0  0
   14.2344   19.8679   17.7226 C   0  0  0  0  0  0  0  0  0  0  0  0
   13.7657   21.2243   17.7146 N   0  0  0  0  0  0  0  0  0  0  0  0
   14.0378   22.1147   19.0660 S   0  0  0  0  0  0  0  0  0  0  0  0
   14.5828   21.2141   20.0961 O   0  0  0  0  0  0  0  0  0  0  0  0
   12.7592   22.7774   19.3904 O   0  0  0  0  0  0  0  0  0  0  0  0
   17.7560   26.5847   18.0707 N   0  0  0  0  0  0  0  0  0  0  0  0
   16.9442   25.5241   18.2270 C   0  0  0  0  0  0  0  0  0  0  0  0
   15.6691   25.7515   18.7193 C   0  0  0  0  0  0  0  0  0  0  0  0
   14.8711   24.6482   18.8838 C   0  0  0  0  0  0  0  0  0  0  0  0
   15.2265   23.3476   18.6968 C   0  0  0  0  0  0  0  0  0  0  0  0
   16.5149   23.1119   18.2602 C   0  0  0  0  0  0  0  0  0  0  0  0
   17.3607   24.2203   18.0301 C   0  0  0  0  0  0  0  0  0  0  0  0
   17.4120   27.4946   18.2228 H   0  0  0  0  0  0  0  0  0  0  0  0
   18.6943   26.4514   17.8041 H   0  0  0  0  0  0  0  0  0  0  0  0
   13.7674   21.9528   16.4881 C   0  0  0  0  0  0  0  0  0  0  0  0
   14.5023   21.2602   15.3238 C   0  0  0  0  0  0  0  0  0  0  0  0
   13.5005   20.8988   14.2256 C   0  0  0  0  0  0  0  0  0  0  0  0
   15.5916   22.1799   14.7679 C   0  0  0  0  0  0  0  0  0  0  0  0
   11.6447   19.4044   19.8907 C   0  0  0  0  0  0  0  0  0  0  0  0
    9.5557   18.5419   21.0398 C   0  0  0  0  0  0  0  0  0  0  0  0
    8.2140   18.6435   21.3929 C   0  0  0  0  0  0  0  0  0  0  0  0
    7.4783   19.7739   21.0330 C   0  0  0  0  0  0  0  0  0  0  0  0
    8.1505   20.7901   20.4012 C   0  0  0  0  0  0  0  0  0  0  0  0
    9.4774   20.7069   20.0073 C   0  0  0  0  0  0  0  0  0  0  0  0
   10.1864   19.5539   20.3284 C   0  0  0  0  0  0  0  0  0  0  0  0
 41 42  2  0  0  0
 41 40  1  0  0  0
 42 43  1  0  0  0
 40 39  2  0  0  0
 25 26  1  0  0  0
 43 44  2  0  0  0
 27 26  2  0  0  0
 27 28  1  0  0  0
 26 31  1  0  0  0
 28 29  2  0  0  0
 39 44  1  0  0  0
 44 38  1  0  0  0
 23 22  2  0  0  0
 31 30  2  0  0  0
 29 30  1  0  0  0
 29 22  1  0  0  0
 38  1  1  0  0  0
 16 13  1  0  0  0
 22 24  2  0  0  0
 22 21  1  0  0  0
 15 13  1  0  0  0
 13 12  1  0  0  0
 13 14  1  0  0  0
  1  2  1  0  0  0
  1 17  1  0  0  0
 12 11  1  0  0  0
 20 21  1  0  0  0
 20 17  1  0  0  0
 21 34  1  0  0  0
  2  3  1  0  0  0
  4  3  2  0  0  0
 17 18  1  0  0  0
  3  6  1  0  0  0
 14 10  1  0  0  0
 14  7  1  0  0  0
 11 10  1  0  0  0
 34 35  1  0  0  0
  6  7  1  0  0  0
 10  9  1  0  0  0
  7  8  1  0  0  0
 36 35  1  0  0  0
 35 37  1  0  0  0
  9  8  1  0  0  0
 25 32  1  0  0  0
 25 33  1  0  0  0
 18 19  1  0  0  0
  2  5  1  0  0  0
M  END
> <minimizedAffinity>
-9.48573

$$$$
4U8W_G10_A_201


 44 47  0  0  0  0  0  0  0  0999 V2000
   10.1834   17.1050   16.4954 C   0  0  0  0  0  0  0  0  0  0  0  0
    9.2983   17.5630   17.5603 N   0  0  0  0  0  0  0  0  0  0  0  0
    8.6178   16.7751   18.3917 C   0  0  0  0  0  0  0  0  0  0  0  0
    8.6264   15.5304   18.4172 O   0  0  0  0  0  0  0  0  0  0  0  0
    9.1951   18.5354   17.6743 H   0  0  0  0  0  0  0  0  0  0  0  0
    7.8972   17.5016   19.2816 O   0  0  0  0  0  0  0  0  0  0  0  0
    6.8541   18.3026   18.7050 C   0  0  0  0  0  0  0  0  0  0  0  0
    5.5471   17.6691   19.1923 C   0  0  0  0  0  0  0  0  0  0  0  0
    5.3839   18.1191   20.5409 O   0  0  0  0  0  0  0  0  0  0  0  0
    6.0101   19.3946   20.6864 C   0  0  0  0  0  0  0  0  0  0  0  0
    6.9650   19.3124   21.7461 O   0  0  0  0  0  0  0  0  0  0  0  0
    8.2701   19.6139   21.2908 C   0  0  0  0  0  0  0  0  0  0  0  0
    8.0949   20.2194   19.9284 C   0  0  0  0  0  0  0  0  0  0  0  0
    6.7784   19.6657   19.4134 C   0  0  0  0  0  0  0  0  0  0  0  0
    9.1051   19.9960   19.0869 F   0  0  0  0  0  0  0  0  0  0  0  0
    8.0256   21.5367   20.1258 F   0  0  0  0  0  0  0  0  0  0  0  0
   11.5306   17.8227   16.5895 C   0  0  0  0  0  0  0  0  0  0  0  0
   12.2775   17.3607   17.7232 O   0  0  0  0  0  0  0  0  0  0  0  0
   11.8037   17.5904   18.5379 H   0  0  0  0  0  0  0  0  0  0  0  0
   11.4288   19.3499   16.6356 C   0  0  0  0  0  0  0  0  0  0  0  0
   12.7115   19.9898   16.7060 N   0  0  0  0  0  0  0  0  0  0  0  0
   13.3453   20.2263   18.2011 S   0  0  0  0  0  0  0  0  0  0  0  0
   14.4563   19.2750   18.3745 O   0  0  0  0  0  0  0  0  0  0  0  0
   12.2235   20.0979   19.1521 O   0  0  0  0  0  0  0  0  0  0  0  0
   15.9024   25.5302   18.5554 N   0  0  0  0  0  0  0  0  0  0  0  0
   15.2432   24.3594   18.5010 C   0  0  0  0  0  0  0  0  0  0  0  0
   15.9464   23.2053   18.8064 C   0  0  0  0  0  0  0  0  0  0  0  0
   15.2513   22.0258   18.7252 C   0  0  0  0  0  0  0  0  0  0  0  0
   13.9708   21.8600   18.2945 C   0  0  0  0  0  0  0  0  0  0  0  0
   13.2833   23.0020   17.9347 C   0  0  0  0  0  0  0  0  0  0  0  0
   13.9418   24.2473   18.0469 C   0  0  0  0  0  0  0  0  0  0  0  0
   16.8290   25.5584   18.8869 H   0  0  0  0  0  0  0  0  0  0  0  0
   15.4585   26.3591   18.2638 H   0  0  0  0  0  0  0  0  0  0  0  0
   13.6603   19.7605   15.6656 C   0  0  0  0  0  0  0  0  0  0  0  0
   14.0416   21.0107   14.8490 C   0  0  0  0  0  0  0  0  0  0  0  0
   15.5607   21.1907   14.8632 C   0  0  0  0  0  0  0  0  0  0  0  0
   13.5359   20.8744   13.4113 C   0  0  0  0  0  0  0  0  0  0  0  0
    9.5287   17.3720   15.1426 C   0  0  0  0  0  0  0  0  0  0  0  0
    7.2267   16.3477   15.4262 C   0  0  0  0  0  0  0  0  0  0  0  0
    6.2807   15.3584   15.1787 C   0  0  0  0  0  0  0  0  0  0  0  0
    6.5752   14.3099   14.3056 C   0  0  0  0  0  0  0  0  0  0  0  0
    7.7842   14.3487   13.6571 C   0  0  0  0  0  0  0  0  0  0  0  0
    8.7603   15.3017   13.9052 C   0  0  0  0  0  0  0  0  0  0  0  0
    8.4732   16.3139   14.8152 C   0  0  0  0  0  0  0  0  0  0  0  0
 41 42  2  0  0  0
 41 40  1  0  0  0
 42 43  1  0  0  0
 40 39  2  0  0  0
 25 26  1  0  0  0
 43 44  2  0  0  0
 27 26  2  0  0  0
 27 28  1  0  0  0
 26 31  1  0  0  0
 28 29  2  0  0  0
 39 44  1  0  0  0
 44 38  1  0  0  0
 23 22  2  0  0  0
 31 30  2  0  0  0
 29 30  1  0  0  0
 29 22  1  0  0  0
 38  1  1  0  0  0
 16 13  1  0  0  0
 22 24  2  0  0  0
 22 21  1  0  0  0
 15 13  1  0  0  0
 13 12  1  0  0  0
 13 14  1  0  0  0
  1  2  1  0  0  0
  1 17  1  0  0  0
 12 11  1  0  0  0
 20 21  1  0  0  0
 20 17  1  0  0  0
 21 34  1  0  0  0
  2  3  1  0  0  0
  4  3  2  0  0  0
 17 18  1  0  0  0
  3  6  1  0  0  0
 14 10  1  0  0  0
 14  7  1  0  0  0
 11 10  1  0  0  0
 34 35  1  0  0  0
  6  7  1  0  0  0
 10  9  1  0  0  0
  7  8  1  0  0  0
 36 35  1  0  0  0
 35 37  1  0  0  0
  9  8  1  0  0  0
 25 32  1  0  0  0
 25 33  1  0  0  0
 18 19  1  0  0  0
  2  5  1  0  0  0
M  END
> <minimizedAffinity>
-9.42757

$$$$
4U8W_G10_A_201


 44 47  0  0  0  0  0  0  0  0999 V2000
   14.4167   20.7611   17.0466 C   0  0  0  0  0  0  0  0  0  0  0  0
   15.1908   21.8204   17.6837 N   0  0  0  0  0  0  0  0  0  0  0  0
   14.7879   23.0796   17.8483 C   0  0  0  0  0  0  0  0  0  0  0  0
   13.6934   23.5651   17.5070 O   0  0  0  0  0  0  0  0  0  0  0  0
   16.0857   21.5854   18.0201 H   0  0  0  0  0  0  0  0  0  0  0  0
   15.7265   23.8184   18.4905 O   0  0  0  0  0  0  0  0  0  0  0  0
   15.2101   24.9123   19.2643 C   0  0  0  0  0  0  0  0  0  0  0  0
   14.9990   24.3431   20.6709 C   0  0  0  0  0  0  0  0  0  0  0  0
   16.2989   24.3083   21.2682 O   0  0  0  0  0  0  0  0  0  0  0  0
   17.1003   25.3467   20.7029 C   0  0  0  0  0  0  0  0  0  0  0  0
   18.2850   24.7604   20.1604 O   0  0  0  0  0  0  0  0  0  0  0  0
   18.3975   25.0115   18.7726 C   0  0  0  0  0  0  0  0  0  0  0  0
   17.3836   26.0762   18.4693 C   0  0  0  0  0  0  0  0  0  0  0  0
   16.3238   25.9347   19.5472 C   0  0  0  0  0  0  0  0  0  0  0  0
   16.8698   26.0201   17.2399 F   0  0  0  0  0  0  0  0  0  0  0  0
   18.0352   27.2350   18.5756 F   0  0  0  0  0  0  0  0  0  0  0  0
   14.0343   19.6992   18.0786 C   0  0  0  0  0  0  0  0  0  0  0  0
   15.1674   18.8905   18.4233 O   0  0  0  0  0  0  0  0  0  0  0  0
   15.4629   18.3980   17.6416 H   0  0  0  0  0  0  0  0  0  0  0  0
   12.8749   18.7946   17.6516 C   0  0  0  0  0  0  0  0  0  0  0  0
   11.6253   19.4956   17.5692 N   0  0  0  0  0  0  0  0  0  0  0  0
   10.8711   19.5055   16.1118 S   0  0  0  0  0  0  0  0  0  0  0  0
   11.9031   19.3663   15.0701 O   0  0  0  0  0  0  0  0  0  0  0  0
   10.0660   20.7421   16.0698 O   0  0  0  0  0  0  0  0  0  0  0  0
    7.5624   14.6528   15.5634 N   0  0  0  0  0  0  0  0  0  0  0  0
    8.2419   15.8044   15.7069 C   0  0  0  0  0  0  0  0  0  0  0  0
    9.3647   15.9965   14.9180 C   0  0  0  0  0  0  0  0  0  0  0  0
   10.0460   17.1729   15.0997 C   0  0  0  0  0  0  0  0  0  0  0  0
    9.7870   18.1317   16.0306 C   0  0  0  0  0  0  0  0  0  0  0  0
    8.7023   17.9183   16.8575 C   0  0  0  0  0  0  0  0  0  0  0  0
    7.9396   16.7424   16.6770 C   0  0  0  0  0  0  0  0  0  0  0  0
    7.8163   14.0163   14.8566 H   0  0  0  0  0  0  0  0  0  0  0  0
    6.8111   14.4463   16.1652 H   0  0  0  0  0  0  0  0  0  0  0  0
   10.7645   19.5173   18.7067 C   0  0  0  0  0  0  0  0  0  0  0  0
   10.3543   20.9246   19.1824 C   0  0  0  0  0  0  0  0  0  0  0  0
    9.4105   20.8077   20.3807 C   0  0  0  0  0  0  0  0  0  0  0  0
   11.5960   21.7348   19.5608 C   0  0  0  0  0  0  0  0  0  0  0  0
   15.2387   20.1404   15.9200 C   0  0  0  0  0  0  0  0  0  0  0  0
   17.1880   21.3858   14.8821 C   0  0  0  0  0  0  0  0  0  0  0  0
   17.7205   22.3952   14.0867 C   0  0  0  0  0  0  0  0  0  0  0  0
   16.8738   23.2546   13.3847 C   0  0  0  0  0  0  0  0  0  0  0  0
   15.5255   23.0073   13.4525 C   0  0  0  0  0  0  0  0  0  0  0  0
   14.9618   22.0312   14.2601 C   0  0  0  0  0  0  0  0  0  0  0  0
   15.8147   21.2130   14.9936 C   0  0  0  0  0  0  0  0  0  0  0  0
 41 42  2  0  0  0
 41 40  1  0  0  0
 42 43  1  0  0  0
 40 39  2  0  0  0
 25 26  1  0  0  0
 43 44  2  0  0  0
 27 26  2  0  0  0
 27 28  1  0  0  0
 26 31  1  0  0  0
 28 29  2  0  0  0
 39 44  1  0  0  0
 44 38  1  0  0  0
 23 22  2  0  0  0
 31 30  2  0  0  0
 29 30  1  0  0  0
 29 22  1  0  0  0
 38  1  1  0  0  0
 16 13  1  0  0  0
 22 24  2  0  0  0
 22 21  1  0  0  0
 15 13  1  0  0  0
 13 12  1  0  0  0
 13 14  1  0  0  0
  1  2  1  0  0  0
  1 17  1  0  0  0
 12 11  1  0  0  0
 20 21  1  0  0  0
 20 17  1  0  0  0
 21 34  1  0  0  0
  2  3  1  0  0  0
  4  3  2  0  0  0
 17 18  1  0  0  0
  3  6  1  0  0  0
 14 10  1  0  0  0
 14  7  1  0  0  0
 11 10  1  0  0  0
 34 35  1  0  0  0
  6  7  1  0  0  0
 10  9  1  0  0  0
  7  8  1  0  0  0
 36 35  1  0  0  0
 35 37  1  0  0  0
  9  8  1  0  0  0
 25 32  1  0  0  0
 25 33  1  0  0  0
 18 19  1  0  0  0
  2  5  1  0  0  0
M  END
> <minimizedAffinity>
-9.42118

$$$$
4U8W_G10_A_201


 44 47  0  0  0  0  0  0  0  0999 V2000
   13.4086   21.0491   18.5242 C   0  0  0  0  0  0  0  0  0  0  0  0
   12.2756   20.1780   18.8154 N   0  0  0  0  0  0  0  0  0  0  0  0
   11.0085   20.4217   18.4836 C   0  0  0  0  0  0  0  0  0  0  0  0
   10.5747   21.4110   17.8646 O   0  0  0  0  0  0  0  0  0  0  0  0
   12.4627   19.3402   19.2974 H   0  0  0  0  0  0  0  0  0  0  0  0
   10.1920   19.4137   18.8792 O   0  0  0  0  0  0  0  0  0  0  0  0
    8.8622   19.4652   18.3395 C   0  0  0  0  0  0  0  0  0  0  0  0
    8.7224   18.1929   17.4976 C   0  0  0  0  0  0  0  0  0  0  0  0
    8.4867   17.1381   18.4355 O   0  0  0  0  0  0  0  0  0  0  0  0
    7.8273   17.6731   19.5839 C   0  0  0  0  0  0  0  0  0  0  0  0
    8.6036   17.3563   20.7409 O   0  0  0  0  0  0  0  0  0  0  0  0
    9.0170   18.5252   21.4223 C   0  0  0  0  0  0  0  0  0  0  0  0
    8.2042   19.6442   20.8386 C   0  0  0  0  0  0  0  0  0  0  0  0
    7.8301   19.1779   19.4431 C   0  0  0  0  0  0  0  0  0  0  0  0
    8.8145   20.8299   20.8326 F   0  0  0  0  0  0  0  0  0  0  0  0
    7.1291   19.7542   21.6203 F   0  0  0  0  0  0  0  0  0  0  0  0
   14.4569   20.2897   17.7097 C   0  0  0  0  0  0  0  0  0  0  0  0
   15.0340   19.2285   18.4828 O   0  0  0  0  0  0  0  0  0  0  0  0
   15.5136   19.6027   19.2383 H   0  0  0  0  0  0  0  0  0  0  0  0
   15.5734   21.1708   17.1424 C   0  0  0  0  0  0  0  0  0  0  0  0
   15.4211   21.4241   15.7380 N   0  0  0  0  0  0  0  0  0  0  0  0
   16.6307   22.2461   14.9936 S   0  0  0  0  0  0  0  0  0  0  0  0
   16.0382   23.0100   13.8824 O   0  0  0  0  0  0  0  0  0  0  0  0
   17.6482   21.2424   14.6244 O   0  0  0  0  0  0  0  0  0  0  0  0
   18.9218   26.3684   18.5368 N   0  0  0  0  0  0  0  0  0  0  0  0
   18.4481   25.3680   17.7732 C   0  0  0  0  0  0  0  0  0  0  0  0
   18.1511   25.6486   16.4492 C   0  0  0  0  0  0  0  0  0  0  0  0
   17.6537   24.6124   15.7009 C   0  0  0  0  0  0  0  0  0  0  0  0
   17.3405   23.3631   16.1415 C   0  0  0  0  0  0  0  0  0  0  0  0
   17.5817   23.0955   17.4743 C   0  0  0  0  0  0  0  0  0  0  0  0
   18.1391   24.1173   18.2757 C   0  0  0  0  0  0  0  0  0  0  0  0
   19.1271   27.2420   18.1318 H   0  0  0  0  0  0  0  0  0  0  0  0
   19.0633   26.2273   19.5008 H   0  0  0  0  0  0  0  0  0  0  0  0
   14.7407   20.4661   14.9291 C   0  0  0  0  0  0  0  0  0  0  0  0
   13.4044   20.9519   14.3346 C   0  0  0  0  0  0  0  0  0  0  0  0
   13.4587   20.8656   12.8082 C   0  0  0  0  0  0  0  0  0  0  0  0
   12.2497   20.1050   14.8741 C   0  0  0  0  0  0  0  0  0  0  0  0
   14.0105   21.5524   19.8336 C   0  0  0  0  0  0  0  0  0  0  0  0
   14.0757   23.7748   18.6149 C   0  0  0  0  0  0  0  0  0  0  0  0
   14.4919   25.0958   18.4855 C   0  0  0  0  0  0  0  0  0  0  0  0
   15.2677   25.6872   19.4837 C   0  0  0  0  0  0  0  0  0  0  0  0
   15.5231   24.9437   20.6088 C   0  0  0  0  0  0  0  0  0  0  0  0
   15.1506   23.6161   20.7548 C   0  0  0  0  0  0  0  0  0  0  0  0
   14.4200   23.0228   19.7304 C   0  0  0  0  0  0  0  0  0  0  0  0
 41 42  2  0  0  0
 41 40  1  0  0  0
 42 43  1  0  0  0
 40 39  2  0  0  0
 25 26  1  0  0  0
 43 44  2  0  0  0
 27 26  2  0  0  0
 27 28  1  0  0  0
 26 31  1  0  0  0
 28 29  2  0  0  0
 39 44  1  0  0  0
 44 38  1  0  0  0
 23 22  2  0  0  0
 31 30  2  0  0  0
 29 30  1  0  0  0
 29 22  1  0  0  0
 38  1  1  0  0  0
 16 13  1  0  0  0
 22 24  2  0  0  0
 22 21  1  0  0  0
 15 13  1  0  0  0
 13 12  1  0  0  0
 13 14  1  0  0  0
  1  2  1  0  0  0
  1 17  1  0  0  0
 12 11  1  0  0  0
 20 21  1  0  0  0
 20 17  1  0  0  0
 21 34  1  0  0  0
  2  3  1  0  0  0
  4  3  2  0  0  0
 17 18  1  0  0  0
  3  6  1  0  0  0
 14 10  1  0  0  0
 14  7  1  0  0  0
 11 10  1  0  0  0
 34 35  1  0  0  0
  6  7  1  0  0  0
 10  9  1  0  0  0
  7  8  1  0  0  0
 36 35  1  0  0  0
 35 37  1  0  0  0
  9  8  1  0  0  0
 25 32  1  0  0  0
 25 33  1  0  0  0
 18 19  1  0  0  0
  2  5  1  0  0  0
M  END
> <minimizedAffinity>
-9.28687

$$$$
4U8W_G10_A_201


 44 47  0  0  0  0  0  0  0  0999 V2000
   13.9422   21.3040   16.2639 C   0  0  0  0  0  0  0  0  0  0  0  0
   14.6764   22.1357   17.2109 N   0  0  0  0  0  0  0  0  0  0  0  0
   15.0959   21.7492   18.4149 C   0  0  0  0  0  0  0  0  0  0  0  0
   14.9516   20.6259   18.9320 O   0  0  0  0  0  0  0  0  0  0  0  0
   14.8788   23.0595   16.9376 H   0  0  0  0  0  0  0  0  0  0  0  0
   15.7634   22.7454   19.0484 O   0  0  0  0  0  0  0  0  0  0  0  0
   14.9547   23.8698   19.4274 C   0  0  0  0  0  0  0  0  0  0  0  0
   14.7611   23.7318   20.9408 C   0  0  0  0  0  0  0  0  0  0  0  0
   15.9827   24.1935   21.5260 O   0  0  0  0  0  0  0  0  0  0  0  0
   16.5761   25.1644   20.6627 C   0  0  0  0  0  0  0  0  0  0  0  0
   17.9021   24.7375   20.3444 O   0  0  0  0  0  0  0  0  0  0  0  0
   18.0691   24.5651   18.9501 C   0  0  0  0  0  0  0  0  0  0  0  0
   16.8719   25.2106   18.3150 C   0  0  0  0  0  0  0  0  0  0  0  0
   15.7856   25.1631   19.3746 C   0  0  0  0  0  0  0  0  0  0  0  0
   16.4860   24.6559   17.1652 F   0  0  0  0  0  0  0  0  0  0  0  0
   17.2380   26.4650   18.0482 F   0  0  0  0  0  0  0  0  0  0  0  0
   13.0964   20.2758   17.0165 C   0  0  0  0  0  0  0  0  0  0  0  0
   13.4724   18.9405   16.6526 O   0  0  0  0  0  0  0  0  0  0  0  0
   13.2814   18.7955   15.7128 H   0  0  0  0  0  0  0  0  0  0  0  0
   11.5859   20.4468   16.8325 C   0  0  0  0  0  0  0  0  0  0  0  0
   10.8214   19.6491   17.7484 N   0  0  0  0  0  0  0  0  0  0  0  0
   10.7150   20.1865   19.2953 S   0  0  0  0  0  0  0  0  0  0  0  0
   10.7452   21.6587   19.2633 O   0  0  0  0  0  0  0  0  0  0  0  0
   11.8075   19.5286   20.0389 O   0  0  0  0  0  0  0  0  0  0  0  0
    5.3446   18.6625   21.2011 N   0  0  0  0  0  0  0  0  0  0  0  0
    6.5996   18.9932   20.8489 C   0  0  0  0  0  0  0  0  0  0  0  0
    6.7647   19.9864   19.8970 C   0  0  0  0  0  0  0  0  0  0  0  0
    8.0556   20.2891   19.5464 C   0  0  0  0  0  0  0  0  0  0  0  0
    9.1862   19.6599   19.9693 C   0  0  0  0  0  0  0  0  0  0  0  0
    9.0229   18.6312   20.8755 C   0  0  0  0  0  0  0  0  0  0  0  0
    7.7144   18.3134   21.3042 C   0  0  0  0  0  0  0  0  0  0  0  0
    4.5828   19.1778   20.8499 H   0  0  0  0  0  0  0  0  0  0  0  0
    5.1876   17.9051   21.8101 H   0  0  0  0  0  0  0  0  0  0  0  0
    9.6841   18.9355   17.2662 C   0  0  0  0  0  0  0  0  0  0  0  0
    9.9268   17.4386   16.9912 C   0  0  0  0  0  0  0  0  0  0  0  0
    8.7843   16.6143   17.5874 C   0  0  0  0  0  0  0  0  0  0  0  0
   10.0312   17.1907   15.4848 C   0  0  0  0  0  0  0  0  0  0  0  0
   14.9290   20.6056   15.3320 C   0  0  0  0  0  0  0  0  0  0  0  0
   15.3756   22.6438   13.8917 C   0  0  0  0  0  0  0  0  0  0  0  0
   16.2299   23.5265   13.2389 C   0  0  0  0  0  0  0  0  0  0  0  0
   17.6130   23.3809   13.3587 C   0  0  0  0  0  0  0  0  0  0  0  0
   18.0741   22.3979   14.1982 C   0  0  0  0  0  0  0  0  0  0  0  0
   17.2512   21.4829   14.8371 C   0  0  0  0  0  0  0  0  0  0  0  0
   15.8760   21.6082   14.6697 C   0  0  0  0  0  0  0  0  0  0  0  0
 41 42  2  0  0  0
 41 40  1  0  0  0
 42 43  1  0  0  0
 40 39  2  0  0  0
 25 26  1  0  0  0
 43 44  2  0  0  0
 27 26  2  0  0  0
 27 28  1  0  0  0
 26 31  1  0  0  0
 28 29  2  0  0  0
 39 44  1  0  0  0
 44 38  1  0  0  0
 23 22  2  0  0  0
 31 30  2  0  0  0
 29 30  1  0  0  0
 29 22  1  0  0  0
 38  1  1  0  0  0
 16 13  1  0  0  0
 22 24  2  0  0  0
 22 21  1  0  0  0
 15 13  1  0  0  0
 13 12  1  0  0  0
 13 14  1  0  0  0
  1  2  1  0  0  0
  1 17  1  0  0  0
 12 11  1  0  0  0
 20 21  1  0  0  0
 20 17  1  0  0  0
 21 34  1  0  0  0
  2  3  1  0  0  0
  4  3  2  0  0  0
 17 18  1  0  0  0
  3  6  1  0  0  0
 14 10  1  0  0  0
 14  7  1  0  0  0
 11 10  1  0  0  0
 34 35  1  0  0  0
  6  7  1  0  0  0
 10  9  1  0  0  0
  7  8  1  0  0  0
 36 35  1  0  0  0
 35 37  1  0  0  0
  9  8  1  0  0  0
 25 32  1  0  0  0
 25 33  1  0  0  0
 18 19  1  0  0  0
  2  5  1  0  0  0
M  END
> <minimizedAffinity>
-9.27229

$$$$
4U8W_G10_A_201


 44 47  0  0  0  0  0  0  0  0999 V2000
   13.2318   22.2037   18.9933 C   0  0  0  0  0  0  0  0  0  0  0  0
   11.8624   21.7429   19.1933 N   0  0  0  0  0  0  0  0  0  0  0  0
   11.5106   20.5456   19.6600 C   0  0  0  0  0  0  0  0  0  0  0  0
   12.2733   19.6282   20.0157 O   0  0  0  0  0  0  0  0  0  0  0  0
   11.1377   22.3687   18.9642 H   0  0  0  0  0  0  0  0  0  0  0  0
   10.1625   20.4261   19.7464 O   0  0  0  0  0  0  0  0  0  0  0  0
    9.6978   19.5590   20.7926 C   0  0  0  0  0  0  0  0  0  0  0  0
    8.7063   20.4022   21.6005 C   0  0  0  0  0  0  0  0  0  0  0  0
    7.4978   20.4099   20.8341 O   0  0  0  0  0  0  0  0  0  0  0  0
    7.4205   19.2041   20.0724 C   0  0  0  0  0  0  0  0  0  0  0  0
    7.2743   19.5479   18.6932 O   0  0  0  0  0  0  0  0  0  0  0  0
    8.3364   19.0293   17.9156 C   0  0  0  0  0  0  0  0  0  0  0  0
    9.0412   18.0410   18.7988 C   0  0  0  0  0  0  0  0  0  0  0  0
    8.7475   18.4953   20.2174 C   0  0  0  0  0  0  0  0  0  0  0  0
   10.3482   17.9191   18.5637 F   0  0  0  0  0  0  0  0  0  0  0  0
    8.4784   16.8601   18.5388 F   0  0  0  0  0  0  0  0  0  0  0  0
   14.0573   21.1116   18.3115 C   0  0  0  0  0  0  0  0  0  0  0  0
   15.1413   20.6915   19.1512 O   0  0  0  0  0  0  0  0  0  0  0  0
   15.7523   21.4328   19.2854 H   0  0  0  0  0  0  0  0  0  0  0  0
   14.6020   21.5011   16.9345 C   0  0  0  0  0  0  0  0  0  0  0  0
   14.0449   20.7114   15.8736 N   0  0  0  0  0  0  0  0  0  0  0  0
   15.0007   20.4362   14.5683 S   0  0  0  0  0  0  0  0  0  0  0  0
   14.1294   20.0470   13.4464 O   0  0  0  0  0  0  0  0  0  0  0  0
   16.0029   19.4382   14.9913 O   0  0  0  0  0  0  0  0  0  0  0  0
   18.2235   25.2147   13.3128 N   0  0  0  0  0  0  0  0  0  0  0  0
   17.4178   24.1790   13.6072 C   0  0  0  0  0  0  0  0  0  0  0  0
   17.9608   23.1155   14.3101 C   0  0  0  0  0  0  0  0  0  0  0  0
   17.1187   22.0671   14.5801 C   0  0  0  0  0  0  0  0  0  0  0  0
   15.8329   21.9222   14.1579 C   0  0  0  0  0  0  0  0  0  0  0  0
   15.3047   22.9546   13.4086 C   0  0  0  0  0  0  0  0  0  0  0  0
   16.1186   24.0792   13.1443 C   0  0  0  0  0  0  0  0  0  0  0  0
   19.1418   25.2402   13.6668 H   0  0  0  0  0  0  0  0  0  0  0  0
   17.8951   25.9474   12.7431 H   0  0  0  0  0  0  0  0  0  0  0  0
   13.1259   19.6680   16.1930 C   0  0  0  0  0  0  0  0  0  0  0  0
   11.7884   19.7260   15.4295 C   0  0  0  0  0  0  0  0  0  0  0  0
   11.0720   18.3791   15.5438 C   0  0  0  0  0  0  0  0  0  0  0  0
   10.9094   20.8450   15.9922 C   0  0  0  0  0  0  0  0  0  0  0  0
   13.8439   22.5732   20.3420 C   0  0  0  0  0  0  0  0  0  0  0  0
   14.8313   24.5281   19.0644 C   0  0  0  0  0  0  0  0  0  0  0  0
   15.7546   25.5569   18.9095 C   0  0  0  0  0  0  0  0  0  0  0  0
   16.6920   25.8140   19.9112 C   0  0  0  0  0  0  0  0  0  0  0  0
   16.6052   25.0723   21.0628 C   0  0  0  0  0  0  0  0  0  0  0  0
   15.7188   24.0202   21.2356 C   0  0  0  0  0  0  0  0  0  0  0  0
   14.8222   23.7419   20.2090 C   0  0  0  0  0  0  0  0  0  0  0  0
 41 42  2  0  0  0
 41 40  1  0  0  0
 42 43  1  0  0  0
 40 39  2  0  0  0
 25 26  1  0  0  0
 43 44  2  0  0  0
 27 26  2  0  0  0
 27 28  1  0  0  0
 26 31  1  0  0  0
 28 29  2  0  0  0
 39 44  1  0  0  0
 44 38  1  0  0  0
 23 22  2  0  0  0
 31 30  2  0  0  0
 29 30  1  0  0  0
 29 22  1  0  0  0
 38  1  1  0  0  0
 16 13  1  0  0  0
 22 24  2  0  0  0
 22 21  1  0  0  0
 15 13  1  0  0  0
 13 12  1  0  0  0
 13 14  1  0  0  0
  1  2  1  0  0  0
  1 17  1  0  0  0
 12 11  1  0  0  0
 20 21  1  0  0  0
 20 17  1  0  0  0
 21 34  1  0  0  0
  2  3  1  0  0  0
  4  3  2  0  0  0
 17 18  1  0  0  0
  3  6  1  0  0  0
 14 10  1  0  0  0
 14  7  1  0  0  0
 11 10  1  0  0  0
 34 35  1  0  0  0
  6  7  1  0  0  0
 10  9  1  0  0  0
  7  8  1  0  0  0
 36 35  1  0  0  0
 35 37  1  0  0  0
  9  8  1  0  0  0
 25 32  1  0  0  0
 25 33  1  0  0  0
 18 19  1  0  0  0
  2  5  1  0  0  0
M  END
> <minimizedAffinity>
-9.15145

$$$$
4U8W_G10_A_201


 44 47  0  0  0  0  0  0  0  0999 V2000
   13.5497   21.7925   18.5239 C   0  0  0  0  0  0  0  0  0  0  0  0
   12.2174   21.2119   18.6474 N   0  0  0  0  0  0  0  0  0  0  0  0
   11.1966   21.4378   17.8216 C   0  0  0  0  0  0  0  0  0  0  0  0
   11.2010   22.1602   16.8076 O   0  0  0  0  0  0  0  0  0  0  0  0
   12.0592   20.6023   19.4041 H   0  0  0  0  0  0  0  0  0  0  0  0
   10.0959   20.7388   18.1944 O   0  0  0  0  0  0  0  0  0  0  0  0
   10.1120   20.2622   19.5489 C   0  0  0  0  0  0  0  0  0  0  0  0
    9.2011   21.2214   20.3217 C   0  0  0  0  0  0  0  0  0  0  0  0
    7.8652   20.8131   20.0115 O   0  0  0  0  0  0  0  0  0  0  0  0
    7.8587   19.4130   19.7290 C   0  0  0  0  0  0  0  0  0  0  0  0
    7.2951   19.2152   18.4310 O   0  0  0  0  0  0  0  0  0  0  0  0
    8.2100   18.5753   17.5620 C   0  0  0  0  0  0  0  0  0  0  0  0
    9.3129   18.0611   18.4410 C   0  0  0  0  0  0  0  0  0  0  0  0
    9.2995   18.9613   19.6635 C   0  0  0  0  0  0  0  0  0  0  0  0
   10.5113   18.0125   17.8578 F   0  0  0  0  0  0  0  0  0  0  0  0
    8.9714   16.8102   18.7530 F   0  0  0  0  0  0  0  0  0  0  0  0
   14.4637   20.8446   17.7460 C   0  0  0  0  0  0  0  0  0  0  0  0
   14.9388   19.7865   18.5895 O   0  0  0  0  0  0  0  0  0  0  0  0
   15.4910   20.1585   19.2949 H   0  0  0  0  0  0  0  0  0  0  0  0
   15.6546   21.5307   17.0711 C   0  0  0  0  0  0  0  0  0  0  0  0
   15.5112   21.6161   15.6457 N   0  0  0  0  0  0  0  0  0  0  0  0
   16.6751   22.4337   14.8272 S   0  0  0  0  0  0  0  0  0  0  0  0
   16.0198   23.1837   13.7421 O   0  0  0  0  0  0  0  0  0  0  0  0
   17.6744   21.4290   14.4134 O   0  0  0  0  0  0  0  0  0  0  0  0
   19.1370   26.6017   18.1982 N   0  0  0  0  0  0  0  0  0  0  0  0
   18.6277   25.5917   17.4709 C   0  0  0  0  0  0  0  0  0  0  0  0
   18.2443   25.8615   16.1670 C   0  0  0  0  0  0  0  0  0  0  0  0
   17.7128   24.8154   15.4568 C   0  0  0  0  0  0  0  0  0  0  0  0
   17.4429   23.5652   15.9224 C   0  0  0  0  0  0  0  0  0  0  0  0
   17.7711   23.3077   17.2385 C   0  0  0  0  0  0  0  0  0  0  0  0
   18.3660   24.3403   17.9980 C   0  0  0  0  0  0  0  0  0  0  0  0
   19.3059   27.4753   17.7768 H   0  0  0  0  0  0  0  0  0  0  0  0
   19.3409   26.4676   19.1519 H   0  0  0  0  0  0  0  0  0  0  0  0
   14.9128   20.5295   14.9412 C   0  0  0  0  0  0  0  0  0  0  0  0
   13.4927   20.8051   14.4096 C   0  0  0  0  0  0  0  0  0  0  0  0
   13.5117   20.8288   12.8800 C   0  0  0  0  0  0  0  0  0  0  0  0
   12.5252   19.7316   14.9125 C   0  0  0  0  0  0  0  0  0  0  0  0
   14.1168   22.0599   19.9157 C   0  0  0  0  0  0  0  0  0  0  0  0
   14.5922   24.3708   18.9872 C   0  0  0  0  0  0  0  0  0  0  0  0
   15.2476   25.5975   19.0146 C   0  0  0  0  0  0  0  0  0  0  0  0
   16.1241   25.9005   20.0578 C   0  0  0  0  0  0  0  0  0  0  0  0
   16.2399   24.9831   21.0721 C   0  0  0  0  0  0  0  0  0  0  0  0
   15.6262   23.7398   21.0589 C   0  0  0  0  0  0  0  0  0  0  0  0
   14.7938   23.4300   19.9883 C   0  0  0  0  0  0  0  0  0  0  0  0
 41 42  2  0  0  0
 41 40  1  0  0  0
 42 43  1  0  0  0
 40 39  2  0  0  0
 25 26  1  0  0  0
 43 44  2  0  0  0
 27 26  2  0  0  0
 27 28  1  0  0  0
 26 31  1  0  0  0
 28 29  2  0  0  0
 39 44  1  0  0  0
 44 38  1  0  0  0
 23 22  2  0  0  0
 31 30  2  0  0  0
 29 30  1  0  0  0
 29 22  1  0  0  0
 38  1  1  0  0  0
 16 13  1  0  0  0
 22 24  2  0  0  0
 22 21  1  0  0  0
 15 13  1  0  0  0
 13 12  1  0  0  0
 13 14  1  0  0  0
  1  2  1  0  0  0
  1 17  1  0  0  0
 12 11  1  0  0  0
 20 21  1  0  0  0
 20 17  1  0  0  0
 21 34  1  0  0  0
  2  3  1  0  0  0
  4  3  2  0  0  0
 17 18  1  0  0  0
  3  6  1  0  0  0
 14 10  1  0  0  0
 14  7  1  0  0  0
 11 10  1  0  0  0
 34 35  1  0  0  0
  6  7  1  0  0  0
 10  9  1  0  0  0
  7  8  1  0  0  0
 36 35  1  0  0  0
 35 37  1  0  0  0
  9  8  1  0  0  0
 25 32  1  0  0  0
 25 33  1  0  0  0
 18 19  1  0  0  0
  2  5  1  0  0  0
M  END
> <minimizedAffinity>
-9.13001

$$$$
