4CWO_T62_A_1226
  RCSB PDB12061712063D
Coordinates from PDB:4CWO:A:1226 Model:1 without hydrogens
 23 26  0  0  0  0            999 V2000
    6.4160    8.8860   22.9160   N 0  0  0  0  0  0  0  0  0  0  0  0
    5.8600    9.9440   23.5680   C 0  0  0  0  0  0  0  0  0  0  0  0
    4.5470    9.9200   23.8950   N 0  0  0  0  0  0  0  0  0  0  0  0
    6.5790   11.0490   23.9160   N 0  0  0  0  0  0  0  0  0  0  0  0
    5.6540   11.8240   24.5210   C 0  0  0  0  0  0  0  0  0  0  0  0
    5.7770   13.0870   25.0970   C 0  0  0  0  0  0  0  0  0  0  0  0
    6.9790   13.7990   25.1330   C 0  0  0  0  0  0  0  0  0  0  0  0
    7.0060   15.0670   25.7310   C 0  0  0  0  0  0  0  0  0  0  0  0
    5.8480   15.6190   26.2930   C 0  0  0  0  0  0  0  0  0  0  0  0
    4.6520   14.9040   26.2430   C 0  0  0  0  0  0  0  0  0  0  0  0
    4.6130   13.6400   25.6470   C 0  0  0  0  0  0  0  0  0  0  0  0
    3.4450   12.9360   25.6090   N 0  0  0  0  0  0  0  0  0  0  0  0
    4.4890   11.1760   24.4970   N 0  0  0  0  0  0  0  0  0  0  0  0
    3.3800   11.7120   25.0250   C 0  0  0  0  0  0  0  0  0  0  0  0
    2.1120   10.8840   25.0270   C 0  0  0  0  0  0  0  0  0  0  0  0
    0.7880   11.4280   24.5420   C 0  0  0  0  0  0  0  0  0  0  0  0
    0.7140   12.1360   23.3430   C 0  0  0  0  0  0  0  0  0  0  0  0
   -0.3650   11.1300   25.2860   C 0  0  0  0  0  0  0  0  0  0  0  0
   -1.6120   11.5730   24.8330   C 0  0  0  0  0  0  0  0  0  0  0  0
   -2.7400   11.3260   25.5480   O 0  0  0  0  0  0  0  0  0  0  0  0
   -1.7030   12.2900   23.6450   C 0  0  0  0  0  0  0  0  0  0  0  0
   -0.5380   12.5730   22.9060   C 0  0  0  0  0  0  0  0  0  0  0  0
   -0.6240   13.2550   21.7310   O 0  0  0  0  0  0  0  0  0  0  0  0
  1  2  1  0  0  0  0
  2  3  2  0  0  0  0
  2  4  1  0  0  0  0
  3 13  1  0  0  0  0
  4  5  2  0  0  0  0
  5  6  1  0  0  0  0
  5 13  1  0  0  0  0
  6  7  1  0  0  0  0
  6 11  2  0  0  0  0
  7  8  2  0  0  0  0
  8  9  1  0  0  0  0
  9 10  2  0  0  0  0
 10 11  1  0  0  0  0
 11 12  1  0  0  0  0
 12 14  2  0  0  0  0
 13 14  1  0  0  0  0
 14 15  1  0  0  0  0
 15 16  1  0  0  0  0
 16 17  1  0  0  0  0
 16 18  2  0  0  0  0
 17 22  2  0  0  0  0
 18 19  1  0  0  0  0
 19 20  1  0  0  0  0
 19 21  2  0  0  0  0
 21 22  1  0  0  0  0
 22 23  1  0  0  0  0
A    1
N18
A    2
C17
A    3
N16
A    4
N19
A    5
C20
A    6
C21
A    7
C22
A    8
C23
A    9
C14
A   10
C13
A   11
C12
A   12
N11
A   13
N15
A   14
C10
A   15
C9
A   16
C8
A   17
C3
A   18
C7
A   19
C5
A   20
O6
A   21
C4
A   22
C2
A   23
O1
M  END
>  <InstanceId>
4CWO_T62_A_1226

>  <ChemCompId>
T62

>  <PdbId>
4CWO

>  <ChainId>
A

>  <ResidueNumber>
1226

>  <InsertionCode>


>  <Model>
1

>  <AltIds>


>  <MissingHeavyAtoms>
0

>  <ObservedFormula>
C16 N5 O2

>  <Name>
5-(2-amino-[1,2,4]triazolo[1,5-c]quinazolin-5-ylmethyl)-benzene-1,3-diol

>  <SystematicName>
5-[(2-azanyl-[1,2,4]triazolo[1,5-c]quinazolin-5-yl)methyl]benzene-1,3-diol

>  <Synonyms>


>  <Type>
non-polymer

>  <Formula>
C16 H13 N5 O2

>  <MolecularWeight>
307.307

>  <ModifiedDate>
2014-07-03

>  <Parent>


>  <OneLetterCode>


>  <SubcomponentList>


>  <AmbiguousFlag>
N

>  <InChI>
InChI=1S/C16H13N5O2/c17-16-19-15-12-3-1-2-4-13(12)18-14(21(15)20-16)7-9-5-10(22)8-11(23)6-9/h1-6,8,22-23H,7H2,(H2,17,20)

>  <InChIKey>
DXCBGOVJQFRCDX-UHFFFAOYSA-N

>  <SMILES>
c1ccc2c(c1)c3nc(nn3c(n2)Cc4cc(cc(c4)O)O)N

$$$$
