4K18_1OB_A_402


 31 34  0  0  0  0  0  0  0  0999 V2000
  -17.9873  -33.2383    3.5421 C   0  0  0  0  0  0  0  0  0  0  0  0
  -17.1470  -32.1540    3.3036 C   0  0  0  0  0  0  0  0  0  0  0  0
  -16.6511  -31.9717    2.0416 C   0  0  0  0  0  0  0  0  0  0  0  0
  -16.9966  -32.8233    1.0462 N   0  0  0  0  0  0  0  0  0  0  0  0
  -17.8292  -33.8609    1.3231 C   0  0  0  0  0  0  0  0  0  0  0  0
  -18.3109  -34.0581    2.5541 N   0  0  0  0  0  0  0  0  0  0  0  0
  -17.9910  -34.5508    0.1158 C   0  0  0  0  0  0  0  0  0  0  0  0
  -17.2488  -33.8846   -0.8683 C   0  0  0  0  0  0  0  0  0  0  0  0
  -16.6515  -32.8669   -0.3087 N   0  0  0  0  0  0  0  0  0  0  0  0
  -15.8430  -30.9427    1.7354 O   0  0  0  0  0  0  0  0  0  0  0  0
  -15.5195  -30.8449    0.8615 H   0  0  0  0  0  0  0  0  0  0  0  0
  -18.8425  -35.7094   -0.0681 C   0  0  0  0  0  0  0  0  0  0  0  0
  -18.9072  -36.2250   -1.1697 O   0  0  0  0  0  0  0  0  0  0  0  0
  -19.5529  -36.0935    1.0193 N   0  0  0  0  0  0  0  0  0  0  0  0
  -19.4062  -35.5628    1.8355 H   0  0  0  0  0  0  0  0  0  0  0  0
  -20.4689  -37.1469    1.1346 C   0  0  0  0  0  0  0  0  0  0  0  0
  -20.8146  -37.5512    2.4206 C   0  0  0  0  0  0  0  0  0  0  0  0
  -21.7151  -38.5802    2.6135 C   0  0  0  0  0  0  0  0  0  0  0  0
  -22.2782  -39.2056    1.5137 C   0  0  0  0  0  0  0  0  0  0  0  0
  -21.9428  -38.8130    0.2303 C   0  0  0  0  0  0  0  0  0  0  0  0
  -21.0449  -37.7779    0.0378 C   0  0  0  0  0  0  0  0  0  0  0  0
  -23.1552  -40.2137    1.6899 F   0  0  0  0  0  0  0  0  0  0  0  0
  -18.5320  -33.4289    4.9366 C   0  0  0  0  0  0  0  0  0  0  0  0
  -17.8634  -35.7947    5.3983 C   0  0  0  0  0  0  0  0  0  0  0  0
  -18.1608  -37.1099    5.7156 C   0  0  0  0  0  0  0  0  0  0  0  0
  -19.4892  -37.4919    5.9323 C   0  0  0  0  0  0  0  0  0  0  0  0
  -20.5091  -36.5419    5.8143 C   0  0  0  0  0  0  0  0  0  0  0  0
  -20.1892  -35.2328    5.4895 C   0  0  0  0  0  0  0  0  0  0  0  0
  -18.8726  -34.8579    5.2750 C   0  0  0  0  0  0  0  0  0  0  0  0
  -19.7981  -38.8440    6.2668 C   0  0  0  0  0  0  0  0  0  0  0  0
  -20.0511  -39.9188    6.5272 N   0  0  0  0  0  0  0  0  0  0  0  0
 13 12  2  0  0  0
  8  9  2  0  0  0
  8  7  1  0  0  0
 21 20  2  0  0  0
 21 16  1  0  0  0
 20 19  1  0  0  0
 12  7  1  0  0  0
 12 14  1  0  0  0
  9  4  1  0  0  0
  7  5  2  0  0  0
 16 14  1  0  0  0
 16 17  2  0  0  0
 19 22  1  0  0  0
 19 18  2  0  0  0
  4  5  1  0  0  0
  4  3  1  0  0  0
  5  6  1  0  0  0
 17 18  1  0  0  0
 10  3  1  0  0  0
  3  2  2  0  0  0
  6  1  2  0  0  0
  2  1  1  0  0  0
  1 23  1  0  0  0
 23 29  1  0  0  0
 24 29  2  0  0  0
 24 25  1  0  0  0
 29 28  1  0  0  0
 25 26  2  0  0  0
 28 27  2  0  0  0
 26 27  1  0  0  0
 26 30  1  0  0  0
 30 31  3  0  0  0
 14 15  1  0  0  0
 10 11  1  0  0  0
M  END
> <minimizedAffinity>
-10.56888

$$$$
4K18_1OB_A_402


 31 34  0  0  0  0  0  0  0  0999 V2000
  -17.3047  -33.1429    1.1155 C   0  0  0  0  0  0  0  0  0  0  0  0
  -16.7308  -33.1762   -0.1526 C   0  0  0  0  0  0  0  0  0  0  0  0
  -17.1443  -34.1353   -1.0364 C   0  0  0  0  0  0  0  0  0  0  0  0
  -18.1107  -35.0156   -0.6808 N   0  0  0  0  0  0  0  0  0  0  0  0
  -18.6505  -34.9376    0.5638 C   0  0  0  0  0  0  0  0  0  0  0  0
  -18.2471  -34.0140    1.4414 N   0  0  0  0  0  0  0  0  0  0  0  0
  -19.5995  -35.9646    0.6313 C   0  0  0  0  0  0  0  0  0  0  0  0
  -19.6096  -36.6288   -0.6023 C   0  0  0  0  0  0  0  0  0  0  0  0
  -18.7164  -36.0692   -1.3735 N   0  0  0  0  0  0  0  0  0  0  0  0
  -16.6426  -34.2219   -2.2800 O   0  0  0  0  0  0  0  0  0  0  0  0
  -16.9463  -34.8903   -2.8622 H   0  0  0  0  0  0  0  0  0  0  0  0
  -20.4577  -36.2253    1.7700 C   0  0  0  0  0  0  0  0  0  0  0  0
  -21.6642  -36.2540    1.6050 O   0  0  0  0  0  0  0  0  0  0  0  0
  -19.8266  -36.3638    2.9604 N   0  0  0  0  0  0  0  0  0  0  0  0
  -18.8448  -36.2959    2.9345 H   0  0  0  0  0  0  0  0  0  0  0  0
  -20.3880  -36.5909    4.2235 C   0  0  0  0  0  0  0  0  0  0  0  0
  -20.3660  -35.5339    5.1285 C   0  0  0  0  0  0  0  0  0  0  0  0
  -20.9049  -35.6813    6.3914 C   0  0  0  0  0  0  0  0  0  0  0  0
  -21.4746  -36.8914    6.7503 C   0  0  0  0  0  0  0  0  0  0  0  0
  -21.5027  -37.9497    5.8597 C   0  0  0  0  0  0  0  0  0  0  0  0
  -20.9679  -37.7994    4.5923 C   0  0  0  0  0  0  0  0  0  0  0  0
  -21.9999  -37.0480    7.9815 F   0  0  0  0  0  0  0  0  0  0  0  0
  -16.8444  -32.0793    2.0821 C   0  0  0  0  0  0  0  0  0  0  0  0
  -17.3685  -32.3590    4.5119 C   0  0  0  0  0  0  0  0  0  0  0  0
  -17.0763  -32.8366    5.7790 C   0  0  0  0  0  0  0  0  0  0  0  0
  -15.9129  -33.5841    5.9914 C   0  0  0  0  0  0  0  0  0  0  0  0
  -15.0468  -33.8329    4.9216 C   0  0  0  0  0  0  0  0  0  0  0  0
  -15.3557  -33.3398    3.6634 C   0  0  0  0  0  0  0  0  0  0  0  0
  -16.5085  -32.5994    3.4566 C   0  0  0  0  0  0  0  0  0  0  0  0
  -15.6129  -34.0839    7.2936 C   0  0  0  0  0  0  0  0  0  0  0  0
  -15.3726  -34.4896    8.3255 N   0  0  0  0  0  0  0  0  0  0  0  0
 13 12  2  0  0  0
  8  9  2  0  0  0
  8  7  1  0  0  0
 21 20  2  0  0  0
 21 16  1  0  0  0
 20 19  1  0  0  0
 12  7  1  0  0  0
 12 14  1  0  0  0
  9  4  1  0  0  0
  7  5  2  0  0  0
 16 14  1  0  0  0
 16 17  2  0  0  0
 19 22  1  0  0  0
 19 18  2  0  0  0
  4  5  1  0  0  0
  4  3  1  0  0  0
  5  6  1  0  0  0
 17 18  1  0  0  0
 10  3  1  0  0  0
  3  2  2  0  0  0
  6  1  2  0  0  0
  2  1  1  0  0  0
  1 23  1  0  0  0
 23 29  1  0  0  0
 24 29  2  0  0  0
 24 25  1  0  0  0
 29 28  1  0  0  0
 25 26  2  0  0  0
 28 27  2  0  0  0
 26 27  1  0  0  0
 26 30  1  0  0  0
 30 31  3  0  0  0
 14 15  1  0  0  0
 10 11  1  0  0  0
M  END
> <minimizedAffinity>
-10.03107

$$$$
4K18_1OB_A_402


 31 34  0  0  0  0  0  0  0  0999 V2000
  -17.2739  -33.2043    1.1857 C   0  0  0  0  0  0  0  0  0  0  0  0
  -16.7027  -33.2856   -0.0815 C   0  0  0  0  0  0  0  0  0  0  0  0
  -17.1631  -34.2370   -0.9503 C   0  0  0  0  0  0  0  0  0  0  0  0
  -18.1715  -35.0630   -0.5814 N   0  0  0  0  0  0  0  0  0  0  0  0
  -18.7064  -34.9392    0.6616 C   0  0  0  0  0  0  0  0  0  0  0  0
  -18.2579  -34.0227    1.5248 N   0  0  0  0  0  0  0  0  0  0  0  0
  -19.7046  -35.9170    0.7449 C   0  0  0  0  0  0  0  0  0  0  0  0
  -19.7478  -36.5993   -0.4782 C   0  0  0  0  0  0  0  0  0  0  0  0
  -18.8285  -36.0964   -1.2577 N   0  0  0  0  0  0  0  0  0  0  0  0
  -16.6667  -34.3677   -2.1921 O   0  0  0  0  0  0  0  0  0  0  0  0
  -17.0031  -35.0294   -2.7639 H   0  0  0  0  0  0  0  0  0  0  0  0
  -20.5743  -36.1174    1.8871 C   0  0  0  0  0  0  0  0  0  0  0  0
  -20.7425  -35.1986    2.6688 O   0  0  0  0  0  0  0  0  0  0  0  0
  -21.0944  -37.3613    2.0169 N   0  0  0  0  0  0  0  0  0  0  0  0
  -20.8496  -38.0031    1.3117 H   0  0  0  0  0  0  0  0  0  0  0  0
  -21.9349  -37.8540    3.0233 C   0  0  0  0  0  0  0  0  0  0  0  0
  -22.9932  -38.6662    2.6269 C   0  0  0  0  0  0  0  0  0  0  0  0
  -23.8613  -39.1928    3.5629 C   0  0  0  0  0  0  0  0  0  0  0  0
  -23.6671  -38.9102    4.9047 C   0  0  0  0  0  0  0  0  0  0  0  0
  -22.6189  -38.1043    5.3114 C   0  0  0  0  0  0  0  0  0  0  0  0
  -21.7459  -37.5819    4.3735 C   0  0  0  0  0  0  0  0  0  0  0  0
  -24.5104  -39.4154    5.8267 F   0  0  0  0  0  0  0  0  0  0  0  0
  -16.7616  -32.1495    2.1356 C   0  0  0  0  0  0  0  0  0  0  0  0
  -15.3459  -33.4349    3.7481 C   0  0  0  0  0  0  0  0  0  0  0  0
  -15.0600  -33.9053    5.0194 C   0  0  0  0  0  0  0  0  0  0  0  0
  -15.9011  -33.5798    6.0890 C   0  0  0  0  0  0  0  0  0  0  0  0
  -17.0329  -32.7898    5.8621 C   0  0  0  0  0  0  0  0  0  0  0  0
  -17.3032  -32.3353    4.5806 C   0  0  0  0  0  0  0  0  0  0  0  0
  -16.4685  -32.6600    3.5235 C   0  0  0  0  0  0  0  0  0  0  0  0
  -15.6054  -34.0563    7.4008 C   0  0  0  0  0  0  0  0  0  0  0  0
  -15.3612  -34.4340    8.4424 N   0  0  0  0  0  0  0  0  0  0  0  0
 13 12  2  0  0  0
  8  9  2  0  0  0
  8  7  1  0  0  0
 21 20  2  0  0  0
 21 16  1  0  0  0
 20 19  1  0  0  0
 12  7  1  0  0  0
 12 14  1  0  0  0
  9  4  1  0  0  0
  7  5  2  0  0  0
 16 14  1  0  0  0
 16 17  2  0  0  0
 19 22  1  0  0  0
 19 18  2  0  0  0
  4  5  1  0  0  0
  4  3  1  0  0  0
  5  6  1  0  0  0
 17 18  1  0  0  0
 10  3  1  0  0  0
  3  2  2  0  0  0
  6  1  2  0  0  0
  2  1  1  0  0  0
  1 23  1  0  0  0
 23 29  1  0  0  0
 24 29  2  0  0  0
 24 25  1  0  0  0
 29 28  1  0  0  0
 25 26  2  0  0  0
 28 27  2  0  0  0
 26 27  1  0  0  0
 26 30  1  0  0  0
 30 31  3  0  0  0
 14 15  1  0  0  0
 10 11  1  0  0  0
M  END
> <minimizedAffinity>
-9.99830

$$$$
4K18_1OB_A_402


 31 34  0  0  0  0  0  0  0  0999 V2000
  -18.1633  -33.7635    0.8871 C   0  0  0  0  0  0  0  0  0  0  0  0
  -17.2401  -32.7488    0.6489 C   0  0  0  0  0  0  0  0  0  0  0  0
  -16.4801  -32.2934    1.6915 C   0  0  0  0  0  0  0  0  0  0  0  0
  -16.6159  -32.8431    2.9222 N   0  0  0  0  0  0  0  0  0  0  0  0
  -17.5216  -33.8395    3.1050 C   0  0  0  0  0  0  0  0  0  0  0  0
  -18.2794  -34.2853    2.0985 N   0  0  0  0  0  0  0  0  0  0  0  0
  -17.4335  -34.1897    4.4575 C   0  0  0  0  0  0  0  0  0  0  0  0
  -16.4494  -33.3879    5.0508 C   0  0  0  0  0  0  0  0  0  0  0  0
  -15.9754  -32.5827    4.1383 N   0  0  0  0  0  0  0  0  0  0  0  0
  -15.5628  -31.3242    1.5343 O   0  0  0  0  0  0  0  0  0  0  0  0
  -15.0577  -31.0337    2.2681 H   0  0  0  0  0  0  0  0  0  0  0  0
  -18.1921  -35.2511    5.0892 C   0  0  0  0  0  0  0  0  0  0  0  0
  -17.7062  -35.8386    6.0391 O   0  0  0  0  0  0  0  0  0  0  0  0
  -19.3849  -35.5402    4.5163 N   0  0  0  0  0  0  0  0  0  0  0  0
  -19.6318  -34.9874    3.7400 H   0  0  0  0  0  0  0  0  0  0  0  0
  -20.3132  -36.5227    4.8839 C   0  0  0  0  0  0  0  0  0  0  0  0
  -20.1387  -37.7948    4.3475 C   0  0  0  0  0  0  0  0  0  0  0  0
  -21.0113  -38.8162    4.6676 C   0  0  0  0  0  0  0  0  0  0  0  0
  -22.0621  -38.5658    5.5342 C   0  0  0  0  0  0  0  0  0  0  0  0
  -22.2462  -37.3054    6.0741 C   0  0  0  0  0  0  0  0  0  0  0  0
  -21.3680  -36.2840    5.7576 C   0  0  0  0  0  0  0  0  0  0  0  0
  -22.9222  -39.5538    5.8506 F   0  0  0  0  0  0  0  0  0  0  0  0
  -18.9945  -34.2614   -0.2699 C   0  0  0  0  0  0  0  0  0  0  0  0
  -19.6245  -36.6400   -0.7197 C   0  0  0  0  0  0  0  0  0  0  0  0
  -20.3538  -37.7850   -0.4443 C   0  0  0  0  0  0  0  0  0  0  0  0
  -21.2629  -37.7940    0.6192 C   0  0  0  0  0  0  0  0  0  0  0  0
  -21.4361  -36.6394    1.3896 C   0  0  0  0  0  0  0  0  0  0  0  0
  -20.7004  -35.5028    1.0921 C   0  0  0  0  0  0  0  0  0  0  0  0
  -19.8014  -35.4971    0.0377 C   0  0  0  0  0  0  0  0  0  0  0  0
  -22.0100  -38.9740    0.9103 C   0  0  0  0  0  0  0  0  0  0  0  0
  -22.5980  -39.9147    1.1482 N   0  0  0  0  0  0  0  0  0  0  0  0
 13 12  2  0  0  0
  8  9  2  0  0  0
  8  7  1  0  0  0
 21 20  2  0  0  0
 21 16  1  0  0  0
 20 19  1  0  0  0
 12  7  1  0  0  0
 12 14  1  0  0  0
  9  4  1  0  0  0
  7  5  2  0  0  0
 16 14  1  0  0  0
 16 17  2  0  0  0
 19 22  1  0  0  0
 19 18  2  0  0  0
  4  5  1  0  0  0
  4  3  1  0  0  0
  5  6  1  0  0  0
 17 18  1  0  0  0
 10  3  1  0  0  0
  3  2  2  0  0  0
  6  1  2  0  0  0
  2  1  1  0  0  0
  1 23  1  0  0  0
 23 29  1  0  0  0
 24 29  2  0  0  0
 24 25  1  0  0  0
 29 28  1  0  0  0
 25 26  2  0  0  0
 28 27  2  0  0  0
 26 27  1  0  0  0
 26 30  1  0  0  0
 30 31  3  0  0  0
 14 15  1  0  0  0
 10 11  1  0  0  0
M  END
> <minimizedAffinity>
-9.85971

$$$$
4K18_1OB_A_402


 31 34  0  0  0  0  0  0  0  0999 V2000
  -18.4277  -34.8396    0.2454 C   0  0  0  0  0  0  0  0  0  0  0  0
  -17.6202  -34.2964   -0.7504 C   0  0  0  0  0  0  0  0  0  0  0  0
  -16.8289  -33.2235   -0.4429 C   0  0  0  0  0  0  0  0  0  0  0  0
  -16.8225  -32.7226    0.8159 N   0  0  0  0  0  0  0  0  0  0  0  0
  -17.6184  -33.2927    1.7583 C   0  0  0  0  0  0  0  0  0  0  0  0
  -18.4057  -34.3330    1.4685 N   0  0  0  0  0  0  0  0  0  0  0  0
  -17.3986  -32.5635    2.9329 C   0  0  0  0  0  0  0  0  0  0  0  0
  -16.4495  -31.5704    2.6567 C   0  0  0  0  0  0  0  0  0  0  0  0
  -16.1194  -31.6618    1.3964 N   0  0  0  0  0  0  0  0  0  0  0  0
  -16.0171  -32.6539   -1.3495 O   0  0  0  0  0  0  0  0  0  0  0  0
  -15.4871  -31.9198   -1.1082 H   0  0  0  0  0  0  0  0  0  0  0  0
  -18.0091  -32.8548    4.2149 C   0  0  0  0  0  0  0  0  0  0  0  0
  -18.2082  -31.9406    4.9948 O   0  0  0  0  0  0  0  0  0  0  0  0
  -18.2610  -34.1627    4.4606 N   0  0  0  0  0  0  0  0  0  0  0  0
  -18.0257  -34.7871    3.7367 H   0  0  0  0  0  0  0  0  0  0  0  0
  -18.8126  -34.7433    5.6099 C   0  0  0  0  0  0  0  0  0  0  0  0
  -20.1578  -35.0963    5.5611 C   0  0  0  0  0  0  0  0  0  0  0  0
  -20.7700  -35.6777    6.6539 C   0  0  0  0  0  0  0  0  0  0  0  0
  -20.0312  -35.9129    7.8014 C   0  0  0  0  0  0  0  0  0  0  0  0
  -18.6932  -35.5665    7.8625 C   0  0  0  0  0  0  0  0  0  0  0  0
  -18.0790  -34.9896    6.7649 C   0  0  0  0  0  0  0  0  0  0  0  0
  -20.6190  -36.4761    8.8755 F   0  0  0  0  0  0  0  0  0  0  0  0
  -19.2943  -36.0250   -0.1027 C   0  0  0  0  0  0  0  0  0  0  0  0
  -21.3041  -36.9846    1.0361 C   0  0  0  0  0  0  0  0  0  0  0  0
  -21.9259  -37.5867    2.1177 C   0  0  0  0  0  0  0  0  0  0  0  0
  -21.1850  -37.9003    3.2624 C   0  0  0  0  0  0  0  0  0  0  0  0
  -19.8216  -37.5913    3.3088 C   0  0  0  0  0  0  0  0  0  0  0  0
  -19.2213  -36.9830    2.2174 C   0  0  0  0  0  0  0  0  0  0  0  0
  -19.9581  -36.6732    1.0856 C   0  0  0  0  0  0  0  0  0  0  0  0
  -21.8208  -38.5273    4.3751 C   0  0  0  0  0  0  0  0  0  0  0  0
  -22.3261  -39.0180    5.2645 N   0  0  0  0  0  0  0  0  0  0  0  0
 13 12  2  0  0  0
  8  9  2  0  0  0
  8  7  1  0  0  0
 21 20  2  0  0  0
 21 16  1  0  0  0
 20 19  1  0  0  0
 12  7  1  0  0  0
 12 14  1  0  0  0
  9  4  1  0  0  0
  7  5  2  0  0  0
 16 14  1  0  0  0
 16 17  2  0  0  0
 19 22  1  0  0  0
 19 18  2  0  0  0
  4  5  1  0  0  0
  4  3  1  0  0  0
  5  6  1  0  0  0
 17 18  1  0  0  0
 10  3  1  0  0  0
  3  2  2  0  0  0
  6  1  2  0  0  0
  2  1  1  0  0  0
  1 23  1  0  0  0
 23 29  1  0  0  0
 24 29  2  0  0  0
 24 25  1  0  0  0
 29 28  1  0  0  0
 25 26  2  0  0  0
 28 27  2  0  0  0
 26 27  1  0  0  0
 26 30  1  0  0  0
 30 31  3  0  0  0
 14 15  1  0  0  0
 10 11  1  0  0  0
M  END
> <minimizedAffinity>
-9.66954

$$$$
4K18_1OB_A_402


 31 34  0  0  0  0  0  0  0  0999 V2000
  -21.0297  -37.6783    2.8459 C   0  0  0  0  0  0  0  0  0  0  0  0
  -21.6041  -38.7343    3.5484 C   0  0  0  0  0  0  0  0  0  0  0  0
  -21.2067  -38.9593    4.8381 C   0  0  0  0  0  0  0  0  0  0  0  0
  -20.2883  -38.1491    5.4172 N   0  0  0  0  0  0  0  0  0  0  0  0
  -19.7635  -37.1234    4.6967 C   0  0  0  0  0  0  0  0  0  0  0  0
  -20.1333  -36.8999    3.4320 N   0  0  0  0  0  0  0  0  0  0  0  0
  -18.8568  -36.4842    5.5504 C   0  0  0  0  0  0  0  0  0  0  0  0
  -18.8775  -37.1497    6.7832 C   0  0  0  0  0  0  0  0  0  0  0  0
  -19.7200  -38.1438    6.6954 N   0  0  0  0  0  0  0  0  0  0  0  0
  -21.7243  -39.9530    5.5799 O   0  0  0  0  0  0  0  0  0  0  0  0
  -21.4313  -40.0816    6.4606 H   0  0  0  0  0  0  0  0  0  0  0  0
  -18.0956  -35.2981    5.2116 C   0  0  0  0  0  0  0  0  0  0  0  0
  -17.0732  -35.0571    5.8283 O   0  0  0  0  0  0  0  0  0  0  0  0
  -18.6331  -34.5117    4.2487 N   0  0  0  0  0  0  0  0  0  0  0  0
  -19.4772  -34.8322    3.8563 H   0  0  0  0  0  0  0  0  0  0  0  0
  -18.1452  -33.3020    3.7381 C   0  0  0  0  0  0  0  0  0  0  0  0
  -17.3752  -33.3648    2.5806 C   0  0  0  0  0  0  0  0  0  0  0  0
  -16.8635  -32.2132    2.0158 C   0  0  0  0  0  0  0  0  0  0  0  0
  -17.1279  -30.9899    2.6089 C   0  0  0  0  0  0  0  0  0  0  0  0
  -17.8920  -30.9143    3.7596 C   0  0  0  0  0  0  0  0  0  0  0  0
  -18.4094  -32.0681    4.3215 C   0  0  0  0  0  0  0  0  0  0  0  0
  -16.6304  -29.8598    2.0688 F   0  0  0  0  0  0  0  0  0  0  0  0
  -21.4770  -37.4361    1.4250 C   0  0  0  0  0  0  0  0  0  0  0  0
  -19.8331  -35.6159    0.9343 C   0  0  0  0  0  0  0  0  0  0  0  0
  -18.8619  -35.0259    0.1419 C   0  0  0  0  0  0  0  0  0  0  0  0
  -18.4637  -35.6431   -1.0489 C   0  0  0  0  0  0  0  0  0  0  0  0
  -19.0603  -36.8478   -1.4356 C   0  0  0  0  0  0  0  0  0  0  0  0
  -20.0347  -37.4170   -0.6305 C   0  0  0  0  0  0  0  0  0  0  0  0
  -20.4271  -36.8029    0.5479 C   0  0  0  0  0  0  0  0  0  0  0  0
  -17.4584  -35.0421   -1.8635 C   0  0  0  0  0  0  0  0  0  0  0  0
  -16.6637  -34.5562   -2.5112 N   0  0  0  0  0  0  0  0  0  0  0  0
 13 12  2  0  0  0
  8  9  2  0  0  0
  8  7  1  0  0  0
 21 20  2  0  0  0
 21 16  1  0  0  0
 20 19  1  0  0  0
 12  7  1  0  0  0
 12 14  1  0  0  0
  9  4  1  0  0  0
  7  5  2  0  0  0
 16 14  1  0  0  0
 16 17  2  0  0  0
 19 22  1  0  0  0
 19 18  2  0  0  0
  4  5  1  0  0  0
  4  3  1  0  0  0
  5  6  1  0  0  0
 17 18  1  0  0  0
 10  3  1  0  0  0
  3  2  2  0  0  0
  6  1  2  0  0  0
  2  1  1  0  0  0
  1 23  1  0  0  0
 23 29  1  0  0  0
 24 29  2  0  0  0
 24 25  1  0  0  0
 29 28  1  0  0  0
 25 26  2  0  0  0
 28 27  2  0  0  0
 26 27  1  0  0  0
 26 30  1  0  0  0
 30 31  3  0  0  0
 14 15  1  0  0  0
 10 11  1  0  0  0
M  END
> <minimizedAffinity>
-9.53579

$$$$
4K18_1OB_A_402


 31 34  0  0  0  0  0  0  0  0999 V2000
  -18.9342  -35.3424    7.0433 C   0  0  0  0  0  0  0  0  0  0  0  0
  -19.6946  -35.5644    8.1884 C   0  0  0  0  0  0  0  0  0  0  0  0
  -20.8929  -36.2133    8.0664 C   0  0  0  0  0  0  0  0  0  0  0  0
  -21.3100  -36.6472    6.8527 N   0  0  0  0  0  0  0  0  0  0  0  0
  -20.5291  -36.4183    5.7645 C   0  0  0  0  0  0  0  0  0  0  0  0
  -19.3624  -35.7746    5.8674 N   0  0  0  0  0  0  0  0  0  0  0  0
  -21.2195  -36.9695    4.6786 C   0  0  0  0  0  0  0  0  0  0  0  0
  -22.4075  -37.5348    5.1607 C   0  0  0  0  0  0  0  0  0  0  0  0
  -22.4619  -37.3309    6.4495 N   0  0  0  0  0  0  0  0  0  0  0  0
  -21.6748  -36.4711    9.1284 O   0  0  0  0  0  0  0  0  0  0  0  0
  -22.4904  -36.9175    9.0123 H   0  0  0  0  0  0  0  0  0  0  0  0
  -20.7305  -36.9974    3.3144 C   0  0  0  0  0  0  0  0  0  0  0  0
  -20.9208  -37.9936    2.6398 O   0  0  0  0  0  0  0  0  0  0  0  0
  -20.0380  -35.9032    2.9173 N   0  0  0  0  0  0  0  0  0  0  0  0
  -19.9522  -35.1854    3.5856 H   0  0  0  0  0  0  0  0  0  0  0  0
  -19.4280  -35.6592    1.6802 C   0  0  0  0  0  0  0  0  0  0  0  0
  -18.4927  -34.6303    1.6243 C   0  0  0  0  0  0  0  0  0  0  0  0
  -17.8464  -34.3340    0.4404 C   0  0  0  0  0  0  0  0  0  0  0  0
  -18.1329  -35.0748   -0.6941 C   0  0  0  0  0  0  0  0  0  0  0  0
  -19.0606  -36.1001   -0.6515 C   0  0  0  0  0  0  0  0  0  0  0  0
  -19.7033  -36.4003    0.5366 C   0  0  0  0  0  0  0  0  0  0  0  0
  -17.5113  -34.7920   -1.8560 F   0  0  0  0  0  0  0  0  0  0  0  0
  -17.6124  -34.6288    7.1887 C   0  0  0  0  0  0  0  0  0  0  0  0
  -16.1137  -34.2800    5.2167 C   0  0  0  0  0  0  0  0  0  0  0  0
  -15.7216  -33.5806    4.0870 C   0  0  0  0  0  0  0  0  0  0  0  0
  -16.4333  -32.4438    3.6886 C   0  0  0  0  0  0  0  0  0  0  0  0
  -17.5303  -32.0158    4.4436 C   0  0  0  0  0  0  0  0  0  0  0  0
  -17.9010  -32.7273    5.5741 C   0  0  0  0  0  0  0  0  0  0  0  0
  -17.1937  -33.8523    5.9662 C   0  0  0  0  0  0  0  0  0  0  0  0
  -16.0367  -31.7256    2.5213 C   0  0  0  0  0  0  0  0  0  0  0  0
  -15.7292  -31.1497    1.5935 N   0  0  0  0  0  0  0  0  0  0  0  0
 13 12  2  0  0  0
  8  9  2  0  0  0
  8  7  1  0  0  0
 21 20  2  0  0  0
 21 16  1  0  0  0
 20 19  1  0  0  0
 12  7  1  0  0  0
 12 14  1  0  0  0
  9  4  1  0  0  0
  7  5  2  0  0  0
 16 14  1  0  0  0
 16 17  2  0  0  0
 19 22  1  0  0  0
 19 18  2  0  0  0
  4  5  1  0  0  0
  4  3  1  0  0  0
  5  6  1  0  0  0
 17 18  1  0  0  0
 10  3  1  0  0  0
  3  2  2  0  0  0
  6  1  2  0  0  0
  2  1  1  0  0  0
  1 23  1  0  0  0
 23 29  1  0  0  0
 24 29  2  0  0  0
 24 25  1  0  0  0
 29 28  1  0  0  0
 25 26  2  0  0  0
 28 27  2  0  0  0
 26 27  1  0  0  0
 26 30  1  0  0  0
 30 31  3  0  0  0
 14 15  1  0  0  0
 10 11  1  0  0  0
M  END
> <minimizedAffinity>
-9.49920

$$$$
4K18_1OB_A_402


 31 34  0  0  0  0  0  0  0  0999 V2000
  -21.5605  -36.6991    4.8294 C   0  0  0  0  0  0  0  0  0  0  0  0
  -22.5521  -37.5465    5.3165 C   0  0  0  0  0  0  0  0  0  0  0  0
  -23.1256  -38.4473    4.4612 C   0  0  0  0  0  0  0  0  0  0  0  0
  -22.7119  -38.5197    3.1732 N   0  0  0  0  0  0  0  0  0  0  0  0
  -21.7326  -37.6805    2.7452 C   0  0  0  0  0  0  0  0  0  0  0  0
  -21.1726  -36.7872    3.5665 N   0  0  0  0  0  0  0  0  0  0  0  0
  -21.5326  -37.9877    1.3941 C   0  0  0  0  0  0  0  0  0  0  0  0
  -22.4036  -39.0304    1.0520 C   0  0  0  0  0  0  0  0  0  0  0  0
  -23.1092  -39.3348    2.1080 N   0  0  0  0  0  0  0  0  0  0  0  0
  -24.0807  -39.3028    4.8630 O   0  0  0  0  0  0  0  0  0  0  0  0
  -24.4542  -39.9082    4.2531 H   0  0  0  0  0  0  0  0  0  0  0  0
  -20.5390  -37.3653    0.5417 C   0  0  0  0  0  0  0  0  0  0  0  0
  -20.1387  -37.9705   -0.4366 O   0  0  0  0  0  0  0  0  0  0  0  0
  -20.0912  -36.1543    0.9509 N   0  0  0  0  0  0  0  0  0  0  0  0
  -20.4992  -35.8035    1.7753 H   0  0  0  0  0  0  0  0  0  0  0  0
  -19.1236  -35.3357    0.3545 C   0  0  0  0  0  0  0  0  0  0  0  0
  -18.8116  -34.1443    1.0025 C   0  0  0  0  0  0  0  0  0  0  0  0
  -17.8641  -33.2879    0.4771 C   0  0  0  0  0  0  0  0  0  0  0  0
  -17.2201  -33.6273   -0.7010 C   0  0  0  0  0  0  0  0  0  0  0  0
  -17.5213  -34.8088   -1.3546 C   0  0  0  0  0  0  0  0  0  0  0  0
  -18.4665  -35.6692   -0.8244 C   0  0  0  0  0  0  0  0  0  0  0  0
  -16.2966  -32.7975   -1.2252 F   0  0  0  0  0  0  0  0  0  0  0  0
  -20.9316  -35.7112    5.7813 C   0  0  0  0  0  0  0  0  0  0  0  0
  -19.7565  -33.7920    4.6893 C   0  0  0  0  0  0  0  0  0  0  0  0
  -18.6167  -33.1721    4.2039 C   0  0  0  0  0  0  0  0  0  0  0  0
  -17.3783  -33.8164    4.2984 C   0  0  0  0  0  0  0  0  0  0  0  0
  -17.3042  -35.0895    4.8731 C   0  0  0  0  0  0  0  0  0  0  0  0
  -18.4585  -35.6938    5.3464 C   0  0  0  0  0  0  0  0  0  0  0  0
  -19.6834  -35.0532    5.2508 C   0  0  0  0  0  0  0  0  0  0  0  0
  -16.2014  -33.1775    3.8064 C   0  0  0  0  0  0  0  0  0  0  0  0
  -15.2619  -32.6777    3.4131 N   0  0  0  0  0  0  0  0  0  0  0  0
 13 12  2  0  0  0
  8  9  2  0  0  0
  8  7  1  0  0  0
 21 20  2  0  0  0
 21 16  1  0  0  0
 20 19  1  0  0  0
 12  7  1  0  0  0
 12 14  1  0  0  0
  9  4  1  0  0  0
  7  5  2  0  0  0
 16 14  1  0  0  0
 16 17  2  0  0  0
 19 22  1  0  0  0
 19 18  2  0  0  0
  4  5  1  0  0  0
  4  3  1  0  0  0
  5  6  1  0  0  0
 17 18  1  0  0  0
 10  3  1  0  0  0
  3  2  2  0  0  0
  6  1  2  0  0  0
  2  1  1  0  0  0
  1 23  1  0  0  0
 23 29  1  0  0  0
 24 29  2  0  0  0
 24 25  1  0  0  0
 29 28  1  0  0  0
 25 26  2  0  0  0
 28 27  2  0  0  0
 26 27  1  0  0  0
 26 30  1  0  0  0
 30 31  3  0  0  0
 14 15  1  0  0  0
 10 11  1  0  0  0
M  END
> <minimizedAffinity>
-9.39228

$$$$
4K18_1OB_A_402


 31 34  0  0  0  0  0  0  0  0999 V2000
  -17.3959  -33.9599    3.1303 C   0  0  0  0  0  0  0  0  0  0  0  0
  -16.0869  -33.4852    3.1242 C   0  0  0  0  0  0  0  0  0  0  0  0
  -15.3108  -33.6828    4.2334 C   0  0  0  0  0  0  0  0  0  0  0  0
  -15.8100  -34.3493    5.3020 N   0  0  0  0  0  0  0  0  0  0  0  0
  -17.0894  -34.8049    5.2583 C   0  0  0  0  0  0  0  0  0  0  0  0
  -17.8628  -34.6078    4.1863 N   0  0  0  0  0  0  0  0  0  0  0  0
  -17.3109  -35.4344    6.4889 C   0  0  0  0  0  0  0  0  0  0  0  0
  -16.1311  -35.3478    7.2398 C   0  0  0  0  0  0  0  0  0  0  0  0
  -15.2472  -34.6931    6.5357 N   0  0  0  0  0  0  0  0  0  0  0  0
  -14.0363  -33.2614    4.2954 O   0  0  0  0  0  0  0  0  0  0  0  0
  -13.5303  -33.4118    5.0696 H   0  0  0  0  0  0  0  0  0  0  0  0
  -18.5364  -36.1115    6.8640 C   0  0  0  0  0  0  0  0  0  0  0  0
  -18.9701  -35.9642    7.9926 O   0  0  0  0  0  0  0  0  0  0  0  0
  -19.0764  -36.9143    5.9161 N   0  0  0  0  0  0  0  0  0  0  0  0
  -18.5971  -36.9437    5.0566 H   0  0  0  0  0  0  0  0  0  0  0  0
  -20.2275  -37.7082    5.9986 C   0  0  0  0  0  0  0  0  0  0  0  0
  -21.4426  -37.0994    5.6993 C   0  0  0  0  0  0  0  0  0  0  0  0
  -22.6197  -37.8195    5.7543 C   0  0  0  0  0  0  0  0  0  0  0  0
  -22.5814  -39.1585    6.1055 C   0  0  0  0  0  0  0  0  0  0  0  0
  -21.3799  -39.7752    6.4053 C   0  0  0  0  0  0  0  0  0  0  0  0
  -20.2002  -39.0545    6.3440 C   0  0  0  0  0  0  0  0  0  0  0  0
  -23.7242  -39.8702    6.1663 F   0  0  0  0  0  0  0  0  0  0  0  0
  -18.2430  -33.7400    1.9008 C   0  0  0  0  0  0  0  0  0  0  0  0
  -18.8753  -35.6645    0.4334 C   0  0  0  0  0  0  0  0  0  0  0  0
  -19.6871  -36.7385    0.1069 C   0  0  0  0  0  0  0  0  0  0  0  0
  -20.7723  -37.0671    0.9267 C   0  0  0  0  0  0  0  0  0  0  0  0
  -21.0354  -36.2984    2.0653 C   0  0  0  0  0  0  0  0  0  0  0  0
  -20.2138  -35.2240    2.3693 C   0  0  0  0  0  0  0  0  0  0  0  0
  -19.1403  -34.9010    1.5550 C   0  0  0  0  0  0  0  0  0  0  0  0
  -21.6057  -38.1772    0.5975 C   0  0  0  0  0  0  0  0  0  0  0  0
  -22.2708  -39.0609    0.3446 N   0  0  0  0  0  0  0  0  0  0  0  0
 13 12  2  0  0  0
  8  9  2  0  0  0
  8  7  1  0  0  0
 21 20  2  0  0  0
 21 16  1  0  0  0
 20 19  1  0  0  0
 12  7  1  0  0  0
 12 14  1  0  0  0
  9  4  1  0  0  0
  7  5  2  0  0  0
 16 14  1  0  0  0
 16 17  2  0  0  0
 19 22  1  0  0  0
 19 18  2  0  0  0
  4  5  1  0  0  0
  4  3  1  0  0  0
  5  6  1  0  0  0
 17 18  1  0  0  0
 10  3  1  0  0  0
  3  2  2  0  0  0
  6  1  2  0  0  0
  2  1  1  0  0  0
  1 23  1  0  0  0
 23 29  1  0  0  0
 24 29  2  0  0  0
 24 25  1  0  0  0
 29 28  1  0  0  0
 25 26  2  0  0  0
 28 27  2  0  0  0
 26 27  1  0  0  0
 26 30  1  0  0  0
 30 31  3  0  0  0
 14 15  1  0  0  0
 10 11  1  0  0  0
M  END
> <minimizedAffinity>
-9.23369

$$$$
4K18_1OB_A_402


 31 34  0  0  0  0  0  0  0  0999 V2000
  -18.1519  -33.6477    7.0427 C   0  0  0  0  0  0  0  0  0  0  0  0
  -18.5686  -33.5580    8.3682 C   0  0  0  0  0  0  0  0  0  0  0  0
  -19.5401  -34.4134    8.8114 C   0  0  0  0  0  0  0  0  0  0  0  0
  -20.0624  -35.3409    7.9735 N   0  0  0  0  0  0  0  0  0  0  0  0
  -19.6165  -35.3993    6.6912 C   0  0  0  0  0  0  0  0  0  0  0  0
  -18.6772  -34.5616    6.2415 N   0  0  0  0  0  0  0  0  0  0  0  0
  -20.3368  -36.4354    6.0852 C   0  0  0  0  0  0  0  0  0  0  0  0
  -21.1971  -36.9856    7.0446 C   0  0  0  0  0  0  0  0  0  0  0  0
  -21.0387  -36.3253    8.1601 N   0  0  0  0  0  0  0  0  0  0  0  0
  -19.9843  -34.3914   10.0794 O   0  0  0  0  0  0  0  0  0  0  0  0
  -20.6510  -34.9904   10.3527 H   0  0  0  0  0  0  0  0  0  0  0  0
  -20.1513  -36.8845    4.7195 C   0  0  0  0  0  0  0  0  0  0  0  0
  -19.9802  -38.0715    4.5069 O   0  0  0  0  0  0  0  0  0  0  0  0
  -20.1296  -35.9094    3.7796 N   0  0  0  0  0  0  0  0  0  0  0  0
  -20.2637  -34.9923    4.1114 H   0  0  0  0  0  0  0  0  0  0  0  0
  -19.9412  -36.0352    2.3973 C   0  0  0  0  0  0  0  0  0  0  0  0
  -20.7097  -36.9877    1.7349 C   0  0  0  0  0  0  0  0  0  0  0  0
  -20.5827  -37.1661    0.3714 C   0  0  0  0  0  0  0  0  0  0  0  0
  -19.6855  -36.3832   -0.3357 C   0  0  0  0  0  0  0  0  0  0  0  0
  -18.9158  -35.4329    0.3112 C   0  0  0  0  0  0  0  0  0  0  0  0
  -19.0480  -35.2507    1.6765 C   0  0  0  0  0  0  0  0  0  0  0  0
  -19.5501  -36.5511   -1.6661 F   0  0  0  0  0  0  0  0  0  0  0  0
  -17.0775  -32.7021    6.5643 C   0  0  0  0  0  0  0  0  0  0  0  0
  -16.0036  -33.4981    4.4501 C   0  0  0  0  0  0  0  0  0  0  0  0
  -15.8486  -33.4764    3.0737 C   0  0  0  0  0  0  0  0  0  0  0  0
  -16.6321  -32.6159    2.2970 C   0  0  0  0  0  0  0  0  0  0  0  0
  -17.5593  -31.7744    2.9205 C   0  0  0  0  0  0  0  0  0  0  0  0
  -17.6932  -31.8082    4.2999 C   0  0  0  0  0  0  0  0  0  0  0  0
  -16.9152  -32.6611    5.0661 C   0  0  0  0  0  0  0  0  0  0  0  0
  -16.4803  -32.5966    0.8785 C   0  0  0  0  0  0  0  0  0  0  0  0
  -16.3681  -32.5843   -0.2503 N   0  0  0  0  0  0  0  0  0  0  0  0
 13 12  2  0  0  0
  8  9  2  0  0  0
  8  7  1  0  0  0
 21 20  2  0  0  0
 21 16  1  0  0  0
 20 19  1  0  0  0
 12  7  1  0  0  0
 12 14  1  0  0  0
  9  4  1  0  0  0
  7  5  2  0  0  0
 16 14  1  0  0  0
 16 17  2  0  0  0
 19 22  1  0  0  0
 19 18  2  0  0  0
  4  5  1  0  0  0
  4  3  1  0  0  0
  5  6  1  0  0  0
 17 18  1  0  0  0
 10  3  1  0  0  0
  3  2  2  0  0  0
  6  1  2  0  0  0
  2  1  1  0  0  0
  1 23  1  0  0  0
 23 29  1  0  0  0
 24 29  2  0  0  0
 24 25  1  0  0  0
 29 28  1  0  0  0
 25 26  2  0  0  0
 28 27  2  0  0  0
 26 27  1  0  0  0
 26 30  1  0  0  0
 30 31  3  0  0  0
 14 15  1  0  0  0
 10 11  1  0  0  0
M  END
> <minimizedAffinity>
-9.07434

$$$$
