1GNN_U0E_A_100
  RCSB PDB12061702373D
Coordinates from PDB:1GNN:A:100 Model:1 without hydrogens
 42 42  0  0  0  0            999 V2000
   -9.7870   15.5500   31.9810   C 0  0  0  0  0  0  0  0  0  0  0  0
   -9.8910   15.3150   30.4740   C 0  0  0  0  0  0  0  0  0  0  0  0
  -10.8230   16.2040   28.3790   C 0  0  0  0  0  0  0  0  0  0  0  0
  -12.3130   16.0210   28.0540   C 0  0  0  0  0  0  0  0  0  0  0  0
  -12.7500   14.6950   28.6840   C 0  0  0  0  0  0  0  0  0  0  0  0
  -14.2430   14.7380   29.0180   C 0  0  0  0  0  0  0  0  0  0  0  0
  -14.6920   13.3870   29.5710   C 0  0  0  0  0  0  0  0  0  0  0  0
  -14.4220   12.2690   28.5580   C 0  0  0  0  0  0  0  0  0  0  0  0
  -12.9350   12.2180   28.1880   C 0  0  0  0  0  0  0  0  0  0  0  0
  -12.4610   13.5790   27.6630   C 0  0  0  0  0  0  0  0  0  0  0  0
  -10.3670   17.5300   27.7370   C 0  0  0  0  0  0  0  0  0  0  0  0
   -8.8930   17.8210   27.9520   C 0  0  0  0  0  0  0  0  0  0  0  0
   -7.9830   18.3160   26.8370   C 0  0  0  0  0  0  0  0  0  0  0  0
   -6.5880   18.5940   27.3800   C 0  0  0  0  0  0  0  0  0  0  0  0
   -5.8750   17.3260   27.8570   C 0  0  0  0  0  0  0  0  0  0  0  0
   -5.6610   19.2260   26.3410   C 0  0  0  0  0  0  0  0  0  0  0  0
   -7.8460   17.2620   25.7430   C 0  0  0  0  0  0  0  0  0  0  0  0
   -7.6690   16.9410   23.3400   C 0  0  0  0  0  0  0  0  0  0  0  0
   -9.0130   16.7130   22.6530   C 0  0  0  0  0  0  0  0  0  0  0  0
   -8.9090   15.7900   21.4390   C 0  0  0  0  0  0  0  0  0  0  0  0
   -8.7030   16.5570   20.1350   C 0  0  0  0  0  0  0  0  0  0  0  0
   -6.7030   17.6570   22.4020   C 0  0  0  0  0  0  0  0  0  0  0  0
   -4.5390   17.4790   21.2780   C 0  0  0  0  0  0  0  0  0  0  0  0
   -4.5400   16.7320   19.9440   C 0  0  0  0  0  0  0  0  0  0  0  0
   -3.1860   17.2780   21.9600   C 0  0  0  0  0  0  0  0  0  0  0  0
   -2.1630   18.3500   21.5840   C 0  0  0  0  0  0  0  0  0  0  0  0
   -1.0180   18.4580   22.5920   C 0  0  0  0  0  0  0  0  0  0  0  0
    0.0430   20.3510   23.7960   C 0  0  0  0  0  0  0  0  0  0  0  0
  -10.6160   16.2220   29.8360   N 0  0  0  0  0  0  0  0  0  0  0  0
   -7.8420   17.7610   24.5340   N 0  0  0  0  0  0  0  0  0  0  0  0
   -7.9470   16.0480   19.1810   N 0  0  0  0  0  0  0  0  0  0  0  0
   -5.6110   16.9720   22.1400   N 0  0  0  0  0  0  0  0  0  0  0  0
   -5.2640   17.1750   18.9090   N 0  0  0  0  0  0  0  0  0  0  0  0
   -1.0510   19.7070   23.3660   N 0  0  0  0  0  0  0  0  0  0  0  0
    1.2260   19.7230   23.8750   N 0  0  0  0  0  0  0  0  0  0  0  0
    0.0580   21.6360   24.1740   N 0  0  0  0  0  0  0  0  0  0  0  0
   -9.3170   14.3540   29.9400   O 0  0  0  0  0  0  0  0  0  0  0  0
  -11.1130   18.6060   28.2800   O 0  0  0  0  0  0  0  0  0  0  0  0
   -7.7470   16.0580   26.0180   O 0  0  0  0  0  0  0  0  0  0  0  0
   -9.2440   17.6510   19.9770   O 0  0  0  0  0  0  0  0  0  0  0  0
   -6.9620   18.7880   21.9640   O 0  0  0  0  0  0  0  0  0  0  0  0
   -3.8700   15.7010   19.7910   O 0  0  0  0  0  0  0  0  0  0  0  0
  1  2  1  0  0  0  0
  2 29  1  0  0  0  0
  2 37  2  0  0  0  0
  3  4  1  0  0  0  0
  3 11  1  0  0  0  0
  3 29  1  0  0  0  0
  4  5  1  0  0  0  0
  5  6  1  0  0  0  0
  5 10  1  0  0  0  0
  6  7  1  0  0  0  0
  7  8  1  0  0  0  0
  8  9  1  0  0  0  0
  9 10  1  0  0  0  0
 11 12  1  0  0  0  0
 11 38  1  0  0  0  0
 12 13  1  0  0  0  0
 13 14  1  0  0  0  0
 13 17  1  0  0  0  0
 14 15  1  0  0  0  0
 14 16  1  0  0  0  0
 17 30  1  0  0  0  0
 17 39  2  0  0  0  0
 18 19  1  0  0  0  0
 18 22  1  0  0  0  0
 18 30  1  0  0  0  0
 19 20  1  0  0  0  0
 20 21  1  0  0  0  0
 21 31  1  0  0  0  0
 21 40  2  0  0  0  0
 22 32  1  0  0  0  0
 22 41  2  0  0  0  0
 23 24  1  0  0  0  0
 23 25  1  0  0  0  0
 23 32  1  0  0  0  0
 24 33  1  0  0  0  0
 24 42  2  0  0  0  0
 25 26  1  0  0  0  0
 26 27  1  0  0  0  0
 27 34  1  0  0  0  0
 28 34  1  0  0  0  0
 28 35  2  0  0  0  0
 28 36  1  0  0  0  0
A    1
C1
A    2
C2
A    3
C3
A    4
C4
A    5
C5
A    6
C6
A    7
C7
A    8
C8
A    9
C9
A   10
C10
A   11
C11
A   12
C12
A   13
C13
A   14
C14
A   15
C15
A   16
C16
A   17
C17
A   18
C18
A   19
C19
A   20
C20
A   21
C21
A   22
C22
A   23
C23
A   24
C24
A   25
C25
A   26
C26
A   27
C27
A   28
C28
A   29
N1
A   30
N2
A   31
N3
A   32
N4
A   33
N5
A   34
N6
A   35
N7
A   36
N8
A   37
O1
A   38
O2
A   39
O3
A   40
O4
A   41
O5
A   42
O6
M  END
>  <InstanceId>
1GNN_U0E_A_100

>  <ChemCompId>
U0E

>  <PdbId>
1GNN

>  <ChainId>
A

>  <ResidueNumber>
100

>  <InsertionCode>


>  <Model>
1

>  <AltIds>


>  <MissingHeavyAtoms>
0

>  <ObservedFormula>
C28 N8 O6

>  <Name>
N-[[1-[N-ACETAMIDYL]-[1-CYCLOHEXYLMETHYL-2-HYDROXY-4-ISOPROPYL]-BUT-4-YL]-CARBONYL]-GLUTAMINYL-ARGINYL-AMIDE

>  <SystematicName>
(2S)-2-[[(2S,4S,5S)-5-acetamido-6-cyclohexyl-4-hydroxy-2-propan-2-yl-hexanoyl]amino]-N-[(2S)-1-amino-5-carbamimidamido-1-oxo-pentan-2-yl]pentanediamide

>  <Synonyms>


>  <Type>
NON-POLYMER

>  <Formula>
C28 H52 N8 O6

>  <MolecularWeight>
596.762

>  <ModifiedDate>
2011-06-04

>  <Parent>


>  <OneLetterCode>


>  <SubcomponentList>


>  <AmbiguousFlag>
N

>  <InChI>
InChI=1S/C28H52N8O6/c1-16(2)19(15-23(38)22(34-17(3)37)14-18-8-5-4-6-9-18)26(41)36-21(11-12-24(29)39)27(42)35-20(25(30)40)10-7-13-33-28(31)32/h16,18-23,38H,4-15H2,1-3H3,(H2,29,39)(H2,30,40)(H,34,37)(H,35,42)(H,36,41)(H4,31,32,33)/t19-,20-,21-,22-,23-/m0/s1

>  <InChIKey>
XTOQWMLQBSGKOK-VUBDRERZSA-N

>  <SMILES>
CC(C)[C@H](C[C@@H]([C@H](CC1CCCCC1)NC(=O)C)O)C(=O)N[C@@H](CCC(=O)N)C(=O)N[C@@H](CCCNC(=N)N)C(=O)N

$$$$
