1GNN_U0E_A_100


 54 54  0  0  0  0  0  0  0  0999 V2000
  -10.8916   14.9936   31.8868 C   0  0  0  0  0  0  0  0  0  0  0  0
  -10.5872   15.5840   29.5485 C   0  0  0  0  0  0  0  0  0  0  0  0
  -11.3142   15.6128   30.6354 N   0  0  0  0  0  0  0  0  0  0  0  0
   -9.4605   15.0768   29.4573 O   0  0  0  0  0  0  0  0  0  0  0  0
  -12.1845   16.0722   30.6077 H   0  0  0  0  0  0  0  0  0  0  0  0
  -11.2581   16.2451   28.3488 C   0  0  0  0  0  0  0  0  0  0  0  0
  -12.3530   15.3052   27.8631 C   0  0  0  0  0  0  0  0  0  0  0  0
  -13.7059   16.0042   27.7050 C   0  0  0  0  0  0  0  0  0  0  0  0
  -12.0433   14.6863   26.4995 C   0  0  0  0  0  0  0  0  0  0  0  0
  -10.2491   16.4967   27.2375 C   0  0  0  0  0  0  0  0  0  0  0  0
   -9.3318   17.7058   27.2232 C   0  0  0  0  0  0  0  0  0  0  0  0
  -10.1347   18.8674   27.1008 O   0  0  0  0  0  0  0  0  0  0  0  0
  -10.6258   18.8345   26.2650 H   0  0  0  0  0  0  0  0  0  0  0  0
   -8.2952   17.6668   26.0820 C   0  0  0  0  0  0  0  0  0  0  0  0
   -5.1582   19.0552   27.7273 C   0  0  0  0  0  0  0  0  0  0  0  0
   -6.6172   19.0139   27.2726 C   0  0  0  0  0  0  0  0  0  0  0  0
   -6.9381   17.9248   26.5897 N   0  0  0  0  0  0  0  0  0  0  0  0
   -7.3969   19.9360   27.5554 O   0  0  0  0  0  0  0  0  0  0  0  0
   -6.2363   17.2572   26.4138 H   0  0  0  0  0  0  0  0  0  0  0  0
   -8.3681   16.2741   25.4382 C   0  0  0  0  0  0  0  0  0  0  0  0
   -8.8735   16.4682   24.0053 C   0  0  0  0  0  0  0  0  0  0  0  0
   -7.8421   17.2458   23.1844 C   0  0  0  0  0  0  0  0  0  0  0  0
   -8.3132   17.3672   21.7367 C   0  0  0  0  0  0  0  0  0  0  0  0
   -8.5268   15.9815   21.1174 C   0  0  0  0  0  0  0  0  0  0  0  0
   -9.5403   15.1714   21.9342 C   0  0  0  0  0  0  0  0  0  0  0  0
   -9.0975   15.0704   23.3993 C   0  0  0  0  0  0  0  0  0  0  0  0
  -12.1155   14.8404   32.7837 C   0  0  0  0  0  0  0  0  0  0  0  0
  -12.4714   13.5906   32.9878 N   0  0  0  0  0  0  0  0  0  0  0  0
  -12.6965   15.8353   33.2428 O   0  0  0  0  0  0  0  0  0  0  0  0
  -11.9349   12.8757   32.5752 H   0  0  0  0  0  0  0  0  0  0  0  0
  -13.6311   13.2144   33.8020 C   0  0  0  0  0  0  0  0  0  0  0  0
  -13.1719   12.7237   35.1752 C   0  0  0  0  0  0  0  0  0  0  0  0
  -14.0604   12.4278   36.1316 N   0  0  0  0  0  0  0  0  0  0  0  0
  -11.9675   12.5878   35.4329 O   0  0  0  0  0  0  0  0  0  0  0  0
  -15.0240   12.5260   35.9556 H   0  0  0  0  0  0  0  0  0  0  0  0
  -13.7502   12.1119   37.0110 H   0  0  0  0  0  0  0  0  0  0  0  0
  -14.4108   12.0971   33.1093 C   0  0  0  0  0  0  0  0  0  0  0  0
  -13.6038   10.8068   32.9652 C   0  0  0  0  0  0  0  0  0  0  0  0
  -13.5232   10.3148   31.5194 C   0  0  0  0  0  0  0  0  0  0  0  0
  -14.2156   11.2005   30.5727 N   0  0  0  0  0  0  0  0  0  0  0  0
  -15.1998   11.1837   30.5589 H   0  0  0  0  0  0  0  0  0  0  0  0
  -13.5884   12.0298   29.7268 C   0  0  0  0  0  0  0  0  0  0  0  0
  -12.3681   12.5101   30.0104 N   0  0  0  0  0  0  0  0  0  0  0  0
  -14.1022   12.4426   28.5607 N   0  0  0  0  0  0  0  0  0  0  0  0
  -11.9211   12.2541   30.8494 H   0  0  0  0  0  0  0  0  0  0  0  0
  -14.9941   12.1351   28.2794 H   0  0  0  0  0  0  0  0  0  0  0  0
  -13.5879   13.0536   27.9849 H   0  0  0  0  0  0  0  0  0  0  0  0
   -9.8297   15.8505   32.5712 C   0  0  0  0  0  0  0  0  0  0  0  0
   -9.2748   15.2047   33.8407 C   0  0  0  0  0  0  0  0  0  0  0  0
   -9.8082   15.8589   35.1129 C   0  0  0  0  0  0  0  0  0  0  0  0
  -10.6383   15.1988   35.8977 N   0  0  0  0  0  0  0  0  0  0  0  0
   -9.4616   17.0034   35.4035 O   0  0  0  0  0  0  0  0  0  0  0  0
  -10.9143   14.2833   35.6633 H   0  0  0  0  0  0  0  0  0  0  0  0
  -10.9817   15.6218   36.7177 H   0  0  0  0  0  0  0  0  0  0  0  0
 15 16  1  0  0  0
 16 17  1  0  0  0
 16 18  2  0  0  0
 14 20  1  0  0  0
 14 11  1  0  0  0
 14 17  1  0  0  0
 20 21  1  0  0  0
 21 22  1  0  0  0
 21 26  1  0  0  0
 22 23  1  0  0  0
 23 24  1  0  0  0
 24 25  1  0  0  0
 25 26  1  0  0  0
 11 10  1  0  0  0
 11 12  1  0  0  0
 10  6  1  0  0  0
  6  7  1  0  0  0
  6  2  1  0  0  0
  7  8  1  0  0  0
  7  9  1  0  0  0
  2  3  1  0  0  0
  2  4  2  0  0  0
  1 48  1  0  0  0
  1 27  1  0  0  0
  1  3  1  0  0  0
 48 49  1  0  0  0
 49 50  1  0  0  0
 50 51  1  0  0  0
 50 52  2  0  0  0
 27 28  1  0  0  0
 27 29  2  0  0  0
 31 32  1  0  0  0
 31 37  1  0  0  0
 31 28  1  0  0  0
 32 33  1  0  0  0
 32 34  2  0  0  0
 37 38  1  0  0  0
 38 39  1  0  0  0
 39 40  1  0  0  0
 42 40  1  0  0  0
 42 43  2  0  0  0
 42 44  1  0  0  0
 17 19  1  0  0  0
  3  5  1  0  0  0
 51 53  1  0  0  0
 51 54  1  0  0  0
 28 30  1  0  0  0
 33 35  1  0  0  0
 33 36  1  0  0  0
 40 41  1  0  0  0
 43 45  1  0  0  0
 44 46  1  0  0  0
 44 47  1  0  0  0
 12 13  1  0  0  0
M  END
> <minimizedAffinity>
-8.67743

$$$$
1GNN_U0E_A_100


 54 54  0  0  0  0  0  0  0  0999 V2000
   -9.4676   16.1820   27.2321 C   0  0  0  0  0  0  0  0  0  0  0  0
   -7.6593   17.7838   26.9609 C   0  0  0  0  0  0  0  0  0  0  0  0
   -8.1241   16.5697   26.8165 N   0  0  0  0  0  0  0  0  0  0  0  0
   -8.2975   18.7420   27.4187 O   0  0  0  0  0  0  0  0  0  0  0  0
   -7.5419   15.8879   26.4097 H   0  0  0  0  0  0  0  0  0  0  0  0
   -6.2109   17.9397   26.5091 C   0  0  0  0  0  0  0  0  0  0  0  0
   -5.5360   18.9111   27.4678 C   0  0  0  0  0  0  0  0  0  0  0  0
   -4.2738   18.3289   28.1093 C   0  0  0  0  0  0  0  0  0  0  0  0
   -5.0959   20.2080   26.7876 C   0  0  0  0  0  0  0  0  0  0  0  0
   -6.1443   18.4734   25.0854 C   0  0  0  0  0  0  0  0  0  0  0  0
   -5.3386   17.7938   23.9934 C   0  0  0  0  0  0  0  0  0  0  0  0
   -3.9630   17.9958   24.2694 O   0  0  0  0  0  0  0  0  0  0  0  0
   -3.7675   18.9458   24.2605 H   0  0  0  0  0  0  0  0  0  0  0  0
   -5.6686   18.3180   22.5811 C   0  0  0  0  0  0  0  0  0  0  0  0
   -3.6628   16.4929   19.9125 C   0  0  0  0  0  0  0  0  0  0  0  0
   -4.0014   17.5831   20.9294 C   0  0  0  0  0  0  0  0  0  0  0  0
   -5.1610   17.4046   21.5448 N   0  0  0  0  0  0  0  0  0  0  0  0
   -3.2201   18.5240   21.1356 O   0  0  0  0  0  0  0  0  0  0  0  0
   -5.7085   16.6247   21.2973 H   0  0  0  0  0  0  0  0  0  0  0  0
   -7.1961   18.4439   22.4796 C   0  0  0  0  0  0  0  0  0  0  0  0
   -7.7238   17.1007   21.9664 C   0  0  0  0  0  0  0  0  0  0  0  0
   -8.4884   16.3768   23.0772 C   0  0  0  0  0  0  0  0  0  0  0  0
   -9.0813   15.0763   22.5390 C   0  0  0  0  0  0  0  0  0  0  0  0
  -10.0225   15.3550   21.3620 C   0  0  0  0  0  0  0  0  0  0  0  0
   -9.2869   16.1007   20.2424 C   0  0  0  0  0  0  0  0  0  0  0  0
   -8.6563   17.3929   20.7763 C   0  0  0  0  0  0  0  0  0  0  0  0
   -9.3566   15.3719   28.5194 C   0  0  0  0  0  0  0  0  0  0  0  0
  -10.0254   15.8850   29.5292 N   0  0  0  0  0  0  0  0  0  0  0  0
   -8.6737   14.3377   28.5635 O   0  0  0  0  0  0  0  0  0  0  0  0
  -10.5385   16.7121   29.3815 H   0  0  0  0  0  0  0  0  0  0  0  0
  -10.0410   15.2808   30.8648 C   0  0  0  0  0  0  0  0  0  0  0  0
  -11.4676   14.8832   31.2449 C   0  0  0  0  0  0  0  0  0  0  0  0
  -12.1466   15.5661   32.1745 N   0  0  0  0  0  0  0  0  0  0  0  0
  -12.0270   13.9211   30.7002 O   0  0  0  0  0  0  0  0  0  0  0  0
  -11.7277   16.3353   32.6242 H   0  0  0  0  0  0  0  0  0  0  0  0
  -13.0649   15.2993   32.4085 H   0  0  0  0  0  0  0  0  0  0  0  0
   -9.5123   16.2806   31.8929 C   0  0  0  0  0  0  0  0  0  0  0  0
   -8.3882   15.7097   32.7574 C   0  0  0  0  0  0  0  0  0  0  0  0
   -8.7174   15.7319   34.2507 C   0  0  0  0  0  0  0  0  0  0  0  0
   -9.7105   14.7186   34.6343 N   0  0  0  0  0  0  0  0  0  0  0  0
   -9.5293   13.7806   34.3968 H   0  0  0  0  0  0  0  0  0  0  0  0
  -10.8478   14.9941   35.2879 C   0  0  0  0  0  0  0  0  0  0  0  0
  -11.3680   16.2307   35.2748 N   0  0  0  0  0  0  0  0  0  0  0  0
  -11.5471   14.0933   35.9906 N   0  0  0  0  0  0  0  0  0  0  0  0
  -10.9136   16.9507   34.7805 H   0  0  0  0  0  0  0  0  0  0  0  0
  -11.2319   13.1625   36.0495 H   0  0  0  0  0  0  0  0  0  0  0  0
  -12.3764   14.3620   36.4482 H   0  0  0  0  0  0  0  0  0  0  0  0
  -10.1453   15.3603   26.1386 C   0  0  0  0  0  0  0  0  0  0  0  0
  -11.6313   15.6853   25.9879 C   0  0  0  0  0  0  0  0  0  0  0  0
  -12.4633   15.1862   27.1667 C   0  0  0  0  0  0  0  0  0  0  0  0
  -13.1408   16.0424   27.9073 N   0  0  0  0  0  0  0  0  0  0  0  0
  -12.4996   13.9832   27.4237 O   0  0  0  0  0  0  0  0  0  0  0  0
  -13.1104   17.0044   27.7000 H   0  0  0  0  0  0  0  0  0  0  0  0
  -13.6769   15.7194   28.6673 H   0  0  0  0  0  0  0  0  0  0  0  0
 15 16  1  0  0  0
 16 17  1  0  0  0
 16 18  2  0  0  0
 14 20  1  0  0  0
 14 11  1  0  0  0
 14 17  1  0  0  0
 20 21  1  0  0  0
 21 22  1  0  0  0
 21 26  1  0  0  0
 22 23  1  0  0  0
 23 24  1  0  0  0
 24 25  1  0  0  0
 25 26  1  0  0  0
 11 10  1  0  0  0
 11 12  1  0  0  0
 10  6  1  0  0  0
  6  7  1  0  0  0
  6  2  1  0  0  0
  7  8  1  0  0  0
  7  9  1  0  0  0
  2  3  1  0  0  0
  2  4  2  0  0  0
  1 48  1  0  0  0
  1 27  1  0  0  0
  1  3  1  0  0  0
 48 49  1  0  0  0
 49 50  1  0  0  0
 50 51  1  0  0  0
 50 52  2  0  0  0
 27 28  1  0  0  0
 27 29  2  0  0  0
 31 32  1  0  0  0
 31 37  1  0  0  0
 31 28  1  0  0  0
 32 33  1  0  0  0
 32 34  2  0  0  0
 37 38  1  0  0  0
 38 39  1  0  0  0
 39 40  1  0  0  0
 42 40  1  0  0  0
 42 43  2  0  0  0
 42 44  1  0  0  0
 17 19  1  0  0  0
  3  5  1  0  0  0
 51 53  1  0  0  0
 51 54  1  0  0  0
 28 30  1  0  0  0
 33 35  1  0  0  0
 33 36  1  0  0  0
 40 41  1  0  0  0
 43 45  1  0  0  0
 44 46  1  0  0  0
 44 47  1  0  0  0
 12 13  1  0  0  0
M  END
> <minimizedAffinity>
-8.67589

$$$$
1GNN_U0E_A_100


 54 54  0  0  0  0  0  0  0  0999 V2000
   -8.6235   15.2727   24.3966 C   0  0  0  0  0  0  0  0  0  0  0  0
   -9.0958   14.7086   26.7134 C   0  0  0  0  0  0  0  0  0  0  0  0
   -9.5117   15.1205   25.5437 N   0  0  0  0  0  0  0  0  0  0  0  0
   -7.9348   14.3660   26.9775 O   0  0  0  0  0  0  0  0  0  0  0  0
  -10.4656   15.3371   25.4327 H   0  0  0  0  0  0  0  0  0  0  0  0
  -10.1903   14.6839   27.7755 C   0  0  0  0  0  0  0  0  0  0  0  0
  -11.5293   14.7211   27.0517 C   0  0  0  0  0  0  0  0  0  0  0  0
  -12.3935   13.4913   27.3422 C   0  0  0  0  0  0  0  0  0  0  0  0
  -12.3818   15.9294   27.4411 C   0  0  0  0  0  0  0  0  0  0  0  0
  -10.0630   15.8790   28.7091 C   0  0  0  0  0  0  0  0  0  0  0  0
  -11.1091   16.2145   29.7565 C   0  0  0  0  0  0  0  0  0  0  0  0
  -10.9250   17.5645   30.1473 O   0  0  0  0  0  0  0  0  0  0  0  0
  -10.0432   17.6709   30.5371 H   0  0  0  0  0  0  0  0  0  0  0  0
  -11.0408   15.2996   30.9961 C   0  0  0  0  0  0  0  0  0  0  0  0
  -13.2908   12.2520   30.6428 C   0  0  0  0  0  0  0  0  0  0  0  0
  -12.8738   13.6615   31.0630 C   0  0  0  0  0  0  0  0  0  0  0  0
  -11.6362   13.9831   30.7164 N   0  0  0  0  0  0  0  0  0  0  0  0
  -13.6652   14.4063   31.6607 O   0  0  0  0  0  0  0  0  0  0  0  0
  -11.0894   13.3101   30.2502 H   0  0  0  0  0  0  0  0  0  0  0  0
   -9.5606   15.1458   31.3766 C   0  0  0  0  0  0  0  0  0  0  0  0
   -9.4942   15.0887   32.9058 C   0  0  0  0  0  0  0  0  0  0  0  0
   -8.2116   15.7604   33.4021 C   0  0  0  0  0  0  0  0  0  0  0  0
   -8.1878   15.7731   34.9292 C   0  0  0  0  0  0  0  0  0  0  0  0
   -9.4076   16.5162   35.4849 C   0  0  0  0  0  0  0  0  0  0  0  0
  -10.7082   15.8769   34.9844 C   0  0  0  0  0  0  0  0  0  0  0  0
  -10.7312   15.8259   33.4516 C   0  0  0  0  0  0  0  0  0  0  0  0
   -8.1708   16.7274   24.3300 C   0  0  0  0  0  0  0  0  0  0  0  0
   -6.8808   16.8731   24.1176 N   0  0  0  0  0  0  0  0  0  0  0  0
   -8.9811   17.6537   24.4829 O   0  0  0  0  0  0  0  0  0  0  0  0
   -6.3284   16.0657   24.0075 H   0  0  0  0  0  0  0  0  0  0  0  0
   -6.2287   18.1837   24.0374 C   0  0  0  0  0  0  0  0  0  0  0  0
   -6.0986   18.6172   22.5770 C   0  0  0  0  0  0  0  0  0  0  0  0
   -4.9193   18.5621   21.9464 N   0  0  0  0  0  0  0  0  0  0  0  0
   -7.0819   19.0280   21.9447 O   0  0  0  0  0  0  0  0  0  0  0  0
   -4.1206   18.2400   22.4235 H   0  0  0  0  0  0  0  0  0  0  0  0
   -4.8505   18.8437   21.0055 H   0  0  0  0  0  0  0  0  0  0  0  0
   -4.8350   18.1088   24.6604 C   0  0  0  0  0  0  0  0  0  0  0  0
   -4.5109   19.3131   25.5445 C   0  0  0  0  0  0  0  0  0  0  0  0
   -4.6693   19.0148   27.0360 C   0  0  0  0  0  0  0  0  0  0  0  0
   -6.0143   18.5364   27.3858 N   0  0  0  0  0  0  0  0  0  0  0  0
   -6.1254   17.5806   27.5939 H   0  0  0  0  0  0  0  0  0  0  0  0
   -7.0987   19.3223   27.4386 C   0  0  0  0  0  0  0  0  0  0  0  0
   -8.3232   18.8234   27.2108 N   0  0  0  0  0  0  0  0  0  0  0  0
   -7.0637   20.6329   27.7136 N   0  0  0  0  0  0  0  0  0  0  0  0
   -8.4343   17.8678   27.0016 H   0  0  0  0  0  0  0  0  0  0  0  0
   -6.2028   21.0754   27.8927 H   0  0  0  0  0  0  0  0  0  0  0  0
   -7.8990   21.1535   27.7366 H   0  0  0  0  0  0  0  0  0  0  0  0
   -9.3443   14.8764   23.1106 C   0  0  0  0  0  0  0  0  0  0  0  0
   -8.6057   15.3328   21.8525 C   0  0  0  0  0  0  0  0  0  0  0  0
   -9.4727   16.2045   20.9472 C   0  0  0  0  0  0  0  0  0  0  0  0
   -9.1324   17.4575   20.7128 N   0  0  0  0  0  0  0  0  0  0  0  0
  -10.4894   15.7347   20.4372 O   0  0  0  0  0  0  0  0  0  0  0  0
   -8.3186   17.8313   21.1218 H   0  0  0  0  0  0  0  0  0  0  0  0
   -9.6923   18.0187   20.1290 H   0  0  0  0  0  0  0  0  0  0  0  0
 15 16  1  0  0  0
 16 17  1  0  0  0
 16 18  2  0  0  0
 14 20  1  0  0  0
 14 11  1  0  0  0
 14 17  1  0  0  0
 20 21  1  0  0  0
 21 22  1  0  0  0
 21 26  1  0  0  0
 22 23  1  0  0  0
 23 24  1  0  0  0
 24 25  1  0  0  0
 25 26  1  0  0  0
 11 10  1  0  0  0
 11 12  1  0  0  0
 10  6  1  0  0  0
  6  7  1  0  0  0
  6  2  1  0  0  0
  7  8  1  0  0  0
  7  9  1  0  0  0
  2  3  1  0  0  0
  2  4  2  0  0  0
  1 48  1  0  0  0
  1 27  1  0  0  0
  1  3  1  0  0  0
 48 49  1  0  0  0
 49 50  1  0  0  0
 50 51  1  0  0  0
 50 52  2  0  0  0
 27 28  1  0  0  0
 27 29  2  0  0  0
 31 32  1  0  0  0
 31 37  1  0  0  0
 31 28  1  0  0  0
 32 33  1  0  0  0
 32 34  2  0  0  0
 37 38  1  0  0  0
 38 39  1  0  0  0
 39 40  1  0  0  0
 42 40  1  0  0  0
 42 43  2  0  0  0
 42 44  1  0  0  0
 17 19  1  0  0  0
  3  5  1  0  0  0
 51 53  1  0  0  0
 51 54  1  0  0  0
 28 30  1  0  0  0
 33 35  1  0  0  0
 33 36  1  0  0  0
 40 41  1  0  0  0
 43 45  1  0  0  0
 44 46  1  0  0  0
 44 47  1  0  0  0
 12 13  1  0  0  0
M  END
> <minimizedAffinity>
-8.51727

$$$$
1GNN_U0E_A_100


 54 54  0  0  0  0  0  0  0  0999 V2000
   -9.3822   16.3214   28.2045 C   0  0  0  0  0  0  0  0  0  0  0  0
   -7.8135   17.4131   26.7025 C   0  0  0  0  0  0  0  0  0  0  0  0
   -8.0397   16.6896   27.7683 N   0  0  0  0  0  0  0  0  0  0  0  0
   -8.6840   17.8319   25.9267 O   0  0  0  0  0  0  0  0  0  0  0  0
   -7.2706   16.3799   28.2992 H   0  0  0  0  0  0  0  0  0  0  0  0
   -6.3367   17.7207   26.4768 C   0  0  0  0  0  0  0  0  0  0  0  0
   -5.8566   18.5476   27.6616 C   0  0  0  0  0  0  0  0  0  0  0  0
   -4.3848   18.2971   28.0006 C   0  0  0  0  0  0  0  0  0  0  0  0
   -5.9777   20.0532   27.4235 C   0  0  0  0  0  0  0  0  0  0  0  0
   -6.1386   18.4935   25.1806 C   0  0  0  0  0  0  0  0  0  0  0  0
   -5.2026   18.0233   24.0823 C   0  0  0  0  0  0  0  0  0  0  0  0
   -3.9376   18.6276   24.2919 O   0  0  0  0  0  0  0  0  0  0  0  0
   -4.0271   19.5919   24.2384 H   0  0  0  0  0  0  0  0  0  0  0  0
   -5.7122   18.3600   22.6662 C   0  0  0  0  0  0  0  0  0  0  0  0
   -3.7625   16.3706   20.0746 C   0  0  0  0  0  0  0  0  0  0  0  0
   -4.0832   17.5252   21.0239 C   0  0  0  0  0  0  0  0  0  0  0  0
   -5.2246   17.3814   21.6810 N   0  0  0  0  0  0  0  0  0  0  0  0
   -3.3046   18.4830   21.1446 O   0  0  0  0  0  0  0  0  0  0  0  0
   -5.7719   16.5829   21.5020 H   0  0  0  0  0  0  0  0  0  0  0  0
   -7.2474   18.3506   22.7127 C   0  0  0  0  0  0  0  0  0  0  0  0
   -7.7076   17.0380   22.0713 C   0  0  0  0  0  0  0  0  0  0  0  0
   -8.3340   16.1266   23.1294 C   0  0  0  0  0  0  0  0  0  0  0  0
   -8.8640   14.8538   22.4725 C   0  0  0  0  0  0  0  0  0  0  0  0
   -9.9054   15.1899   21.3994 C   0  0  0  0  0  0  0  0  0  0  0  0
   -9.3102   16.1215   20.3371 C   0  0  0  0  0  0  0  0  0  0  0  0
   -8.7424   17.3898   20.9864 C   0  0  0  0  0  0  0  0  0  0  0  0
   -9.5211   16.6764   29.6811 C   0  0  0  0  0  0  0  0  0  0  0  0
  -10.0701   15.7263   30.4066 N   0  0  0  0  0  0  0  0  0  0  0  0
   -9.1486   17.7796   30.1082 O   0  0  0  0  0  0  0  0  0  0  0  0
  -10.3268   14.8855   29.9634 H   0  0  0  0  0  0  0  0  0  0  0  0
  -10.3168   15.8631   31.8452 C   0  0  0  0  0  0  0  0  0  0  0  0
   -9.0202   15.6398   32.6241 C   0  0  0  0  0  0  0  0  0  0  0  0
   -8.6024   14.4038   32.9231 N   0  0  0  0  0  0  0  0  0  0  0  0
   -8.3271   16.5976   32.9947 O   0  0  0  0  0  0  0  0  0  0  0  0
   -9.1326   13.6234   32.6416 H   0  0  0  0  0  0  0  0  0  0  0  0
   -7.7650   14.2751   33.4245 H   0  0  0  0  0  0  0  0  0  0  0  0
  -11.3513   14.8315   32.2946 C   0  0  0  0  0  0  0  0  0  0  0  0
  -12.5277   15.4544   33.0462 C   0  0  0  0  0  0  0  0  0  0  0  0
  -13.7670   14.5584   33.0572 C   0  0  0  0  0  0  0  0  0  0  0  0
  -14.0582   13.9660   31.7440 N   0  0  0  0  0  0  0  0  0  0  0  0
  -13.4230   13.3058   31.3836 H   0  0  0  0  0  0  0  0  0  0  0  0
  -15.1360   14.2698   31.0074 C   0  0  0  0  0  0  0  0  0  0  0  0
  -16.3423   14.4120   31.5771 N   0  0  0  0  0  0  0  0  0  0  0  0
  -15.1114   14.4535   29.6808 N   0  0  0  0  0  0  0  0  0  0  0  0
  -16.4448   14.2931   32.5490 H   0  0  0  0  0  0  0  0  0  0  0  0
  -14.2638   14.3668   29.1875 H   0  0  0  0  0  0  0  0  0  0  0  0
  -15.9409   14.6751   29.1990 H   0  0  0  0  0  0  0  0  0  0  0  0
   -9.6207   14.8294   27.9874 C   0  0  0  0  0  0  0  0  0  0  0  0
  -10.8008   14.5470   27.0578 C   0  0  0  0  0  0  0  0  0  0  0  0
  -12.1433   14.9122   27.6867 C   0  0  0  0  0  0  0  0  0  0  0  0
  -13.0235   15.6181   27.0029 N   0  0  0  0  0  0  0  0  0  0  0  0
  -12.4013   14.5464   28.8331 O   0  0  0  0  0  0  0  0  0  0  0  0
  -12.8150   15.9098   26.0859 H   0  0  0  0  0  0  0  0  0  0  0  0
  -13.8887   15.8532   27.4094 H   0  0  0  0  0  0  0  0  0  0  0  0
 15 16  1  0  0  0
 16 17  1  0  0  0
 16 18  2  0  0  0
 14 20  1  0  0  0
 14 11  1  0  0  0
 14 17  1  0  0  0
 20 21  1  0  0  0
 21 22  1  0  0  0
 21 26  1  0  0  0
 22 23  1  0  0  0
 23 24  1  0  0  0
 24 25  1  0  0  0
 25 26  1  0  0  0
 11 10  1  0  0  0
 11 12  1  0  0  0
 10  6  1  0  0  0
  6  7  1  0  0  0
  6  2  1  0  0  0
  7  8  1  0  0  0
  7  9  1  0  0  0
  2  3  1  0  0  0
  2  4  2  0  0  0
  1 48  1  0  0  0
  1 27  1  0  0  0
  1  3  1  0  0  0
 48 49  1  0  0  0
 49 50  1  0  0  0
 50 51  1  0  0  0
 50 52  2  0  0  0
 27 28  1  0  0  0
 27 29  2  0  0  0
 31 32  1  0  0  0
 31 37  1  0  0  0
 31 28  1  0  0  0
 32 33  1  0  0  0
 32 34  2  0  0  0
 37 38  1  0  0  0
 38 39  1  0  0  0
 39 40  1  0  0  0
 42 40  1  0  0  0
 42 43  2  0  0  0
 42 44  1  0  0  0
 17 19  1  0  0  0
  3  5  1  0  0  0
 51 53  1  0  0  0
 51 54  1  0  0  0
 28 30  1  0  0  0
 33 35  1  0  0  0
 33 36  1  0  0  0
 40 41  1  0  0  0
 43 45  1  0  0  0
 44 46  1  0  0  0
 44 47  1  0  0  0
 12 13  1  0  0  0
M  END
> <minimizedAffinity>
-8.48009

$$$$
1GNN_U0E_A_100


 54 54  0  0  0  0  0  0  0  0999 V2000
   -5.8594   18.4096   24.6572 C   0  0  0  0  0  0  0  0  0  0  0  0
   -7.8699   17.0433   24.6673 C   0  0  0  0  0  0  0  0  0  0  0  0
   -6.5794   17.1526   24.4848 N   0  0  0  0  0  0  0  0  0  0  0  0
   -8.6177   17.9585   25.0391 O   0  0  0  0  0  0  0  0  0  0  0  0
   -6.0719   16.3518   24.2196 H   0  0  0  0  0  0  0  0  0  0  0  0
   -8.4112   15.6482   24.3723 C   0  0  0  0  0  0  0  0  0  0  0  0
   -9.3369   15.7629   23.1690 C   0  0  0  0  0  0  0  0  0  0  0  0
   -8.8195   16.7464   22.1159 C   0  0  0  0  0  0  0  0  0  0  0  0
   -9.5283   14.4338   22.4376 C   0  0  0  0  0  0  0  0  0  0  0  0
   -9.1718   15.1000   25.5713 C   0  0  0  0  0  0  0  0  0  0  0  0
   -8.6339   15.1804   26.9882 C   0  0  0  0  0  0  0  0  0  0  0  0
   -7.8665   14.0147   27.2357 O   0  0  0  0  0  0  0  0  0  0  0  0
   -8.4337   13.2316   27.1577 H   0  0  0  0  0  0  0  0  0  0  0  0
   -9.7436   15.3087   28.0515 C   0  0  0  0  0  0  0  0  0  0  0  0
   -8.9535   16.9434   31.3949 C   0  0  0  0  0  0  0  0  0  0  0  0
   -9.4923   15.8890   30.4280 C   0  0  0  0  0  0  0  0  0  0  0  0
   -9.3253   16.1946   29.1497 N   0  0  0  0  0  0  0  0  0  0  0  0
  -10.0180   14.8486   30.8515 O   0  0  0  0  0  0  0  0  0  0  0  0
   -8.9016   17.0541   28.9241 H   0  0  0  0  0  0  0  0  0  0  0  0
  -10.9893   15.8752   27.3540 C   0  0  0  0  0  0  0  0  0  0  0  0
  -12.1931   15.0825   27.8722 C   0  0  0  0  0  0  0  0  0  0  0  0
  -13.3601   15.1949   26.8884 C   0  0  0  0  0  0  0  0  0  0  0  0
  -14.5301   14.3384   27.3682 C   0  0  0  0  0  0  0  0  0  0  0  0
  -14.1089   12.8709   27.5033 C   0  0  0  0  0  0  0  0  0  0  0  0
  -12.9249   12.7317   28.4674 C   0  0  0  0  0  0  0  0  0  0  0  0
  -11.7536   13.6137   28.0170 C   0  0  0  0  0  0  0  0  0  0  0  0
   -5.0228   18.6587   23.4067 C   0  0  0  0  0  0  0  0  0  0  0  0
   -4.7628   17.5700   22.7158 N   0  0  0  0  0  0  0  0  0  0  0  0
   -4.6346   19.8007   23.1180 O   0  0  0  0  0  0  0  0  0  0  0  0
   -5.1248   16.7123   23.0362 H   0  0  0  0  0  0  0  0  0  0  0  0
   -3.9583   17.5762   21.4903 C   0  0  0  0  0  0  0  0  0  0  0  0
   -4.7799   17.0351   20.3199 C   0  0  0  0  0  0  0  0  0  0  0  0
   -5.7373   16.1207   20.5171 N   0  0  0  0  0  0  0  0  0  0  0  0
   -4.5786   17.4317   19.1634 O   0  0  0  0  0  0  0  0  0  0  0  0
   -5.9197   15.7870   21.4252 H   0  0  0  0  0  0  0  0  0  0  0  0
   -6.2591   15.7819   19.7541 H   0  0  0  0  0  0  0  0  0  0  0  0
   -2.7209   16.6988   21.6775 C   0  0  0  0  0  0  0  0  0  0  0  0
   -2.3790   16.4550   23.1474 C   0  0  0  0  0  0  0  0  0  0  0  0
   -1.0762   15.6758   23.3330 C   0  0  0  0  0  0  0  0  0  0  0  0
   -1.1314   14.7240   24.4515 N   0  0  0  0  0  0  0  0  0  0  0  0
   -1.5296   15.0288   25.2987 H   0  0  0  0  0  0  0  0  0  0  0  0
   -0.6724   13.4663   24.3882 C   0  0  0  0  0  0  0  0  0  0  0  0
   -1.4178   12.4381   24.8211 N   0  0  0  0  0  0  0  0  0  0  0  0
    0.5304   13.1292   23.9045 N   0  0  0  0  0  0  0  0  0  0  0  0
   -2.3151   12.6021   25.1914 H   0  0  0  0  0  0  0  0  0  0  0  0
    1.1380   13.8263   23.5667 H   0  0  0  0  0  0  0  0  0  0  0  0
    0.8067   12.1845   23.8867 H   0  0  0  0  0  0  0  0  0  0  0  0
   -4.9677   18.3454   25.8945 C   0  0  0  0  0  0  0  0  0  0  0  0
   -5.4224   19.2951   27.0026 C   0  0  0  0  0  0  0  0  0  0  0  0
   -6.7575   18.8822   27.6176 C   0  0  0  0  0  0  0  0  0  0  0  0
   -7.8096   19.6703   27.5039 N   0  0  0  0  0  0  0  0  0  0  0  0
   -6.8490   17.8127   28.2194 O   0  0  0  0  0  0  0  0  0  0  0  0
   -7.7342   20.5255   27.0219 H   0  0  0  0  0  0  0  0  0  0  0  0
   -8.6699   19.4032   27.9009 H   0  0  0  0  0  0  0  0  0  0  0  0
 15 16  1  0  0  0
 16 17  1  0  0  0
 16 18  2  0  0  0
 14 20  1  0  0  0
 14 11  1  0  0  0
 14 17  1  0  0  0
 20 21  1  0  0  0
 21 22  1  0  0  0
 21 26  1  0  0  0
 22 23  1  0  0  0
 23 24  1  0  0  0
 24 25  1  0  0  0
 25 26  1  0  0  0
 11 10  1  0  0  0
 11 12  1  0  0  0
 10  6  1  0  0  0
  6  7  1  0  0  0
  6  2  1  0  0  0
  7  8  1  0  0  0
  7  9  1  0  0  0
  2  3  1  0  0  0
  2  4  2  0  0  0
  1 48  1  0  0  0
  1 27  1  0  0  0
  1  3  1  0  0  0
 48 49  1  0  0  0
 49 50  1  0  0  0
 50 51  1  0  0  0
 50 52  2  0  0  0
 27 28  1  0  0  0
 27 29  2  0  0  0
 31 32  1  0  0  0
 31 37  1  0  0  0
 31 28  1  0  0  0
 32 33  1  0  0  0
 32 34  2  0  0  0
 37 38  1  0  0  0
 38 39  1  0  0  0
 39 40  1  0  0  0
 42 40  1  0  0  0
 42 43  2  0  0  0
 42 44  1  0  0  0
 17 19  1  0  0  0
  3  5  1  0  0  0
 51 53  1  0  0  0
 51 54  1  0  0  0
 28 30  1  0  0  0
 33 35  1  0  0  0
 33 36  1  0  0  0
 40 41  1  0  0  0
 43 45  1  0  0  0
 44 46  1  0  0  0
 44 47  1  0  0  0
 12 13  1  0  0  0
M  END
> <minimizedAffinity>
-8.41924

$$$$
1GNN_U0E_A_100


 54 54  0  0  0  0  0  0  0  0999 V2000
   -7.1114   17.3773   22.5947 C   0  0  0  0  0  0  0  0  0  0  0  0
   -8.0309   16.9294   24.7999 C   0  0  0  0  0  0  0  0  0  0  0  0
   -7.5723   17.7803   23.9188 N   0  0  0  0  0  0  0  0  0  0  0  0
   -8.1665   15.7122   24.6126 O   0  0  0  0  0  0  0  0  0  0  0  0
   -7.5367   18.7342   24.1596 H   0  0  0  0  0  0  0  0  0  0  0  0
   -8.3983   17.5716   26.1337 C   0  0  0  0  0  0  0  0  0  0  0  0
   -7.0988   17.8871   26.8616 C   0  0  0  0  0  0  0  0  0  0  0  0
   -7.1437   19.2282   27.5986 C   0  0  0  0  0  0  0  0  0  0  0  0
   -6.7422   16.8429   27.9203 C   0  0  0  0  0  0  0  0  0  0  0  0
   -9.2541   16.6296   26.9684 C   0  0  0  0  0  0  0  0  0  0  0  0
  -10.6697   16.9718   27.3956 C   0  0  0  0  0  0  0  0  0  0  0  0
  -10.6599   18.2759   27.9510 O   0  0  0  0  0  0  0  0  0  0  0  0
  -10.0830   18.2911   28.7306 H   0  0  0  0  0  0  0  0  0  0  0  0
  -11.2519   15.9749   28.4181 C   0  0  0  0  0  0  0  0  0  0  0  0
  -13.7556   13.3089   27.3695 C   0  0  0  0  0  0  0  0  0  0  0  0
  -13.1130   14.3754   28.2565 C   0  0  0  0  0  0  0  0  0  0  0  0
  -12.0139   14.9104   27.7455 N   0  0  0  0  0  0  0  0  0  0  0  0
  -13.6215   14.6881   29.3436 O   0  0  0  0  0  0  0  0  0  0  0  0
  -11.6920   14.5807   26.8755 H   0  0  0  0  0  0  0  0  0  0  0  0
  -10.0747   15.3749   29.2013 C   0  0  0  0  0  0  0  0  0  0  0  0
  -10.1035   15.9968   30.6008 C   0  0  0  0  0  0  0  0  0  0  0  0
  -10.8690   15.0874   31.5649 C   0  0  0  0  0  0  0  0  0  0  0  0
  -10.8264   15.6709   32.9757 C   0  0  0  0  0  0  0  0  0  0  0  0
   -9.3791   15.8284   33.4545 C   0  0  0  0  0  0  0  0  0  0  0  0
   -8.5821   16.7179   32.4931 C   0  0  0  0  0  0  0  0  0  0  0  0
   -8.6445   16.1627   31.0647 C   0  0  0  0  0  0  0  0  0  0  0  0
   -5.8425   18.1583   22.2700 C   0  0  0  0  0  0  0  0  0  0  0  0
   -5.0406   17.5429   21.4282 N   0  0  0  0  0  0  0  0  0  0  0  0
   -5.6249   19.2633   22.7895 O   0  0  0  0  0  0  0  0  0  0  0  0
   -5.3145   16.6663   21.0736 H   0  0  0  0  0  0  0  0  0  0  0  0
   -3.7574   18.1036   20.9943 C   0  0  0  0  0  0  0  0  0  0  0  0
   -3.6108   17.9683   19.4785 C   0  0  0  0  0  0  0  0  0  0  0  0
   -4.6435   18.2151   18.6635 N   0  0  0  0  0  0  0  0  0  0  0  0
   -2.5328   17.6286   18.9708 O   0  0  0  0  0  0  0  0  0  0  0  0
   -5.5124   18.4869   19.0383 H   0  0  0  0  0  0  0  0  0  0  0  0
   -4.5343   18.1248   17.6893 H   0  0  0  0  0  0  0  0  0  0  0  0
   -2.6091   17.3583   21.6740 C   0  0  0  0  0  0  0  0  0  0  0  0
   -1.5230   18.2931   22.2064 C   0  0  0  0  0  0  0  0  0  0  0  0
   -1.5171   18.3884   23.7327 C   0  0  0  0  0  0  0  0  0  0  0  0
   -2.7558   18.9630   24.2764 N   0  0  0  0  0  0  0  0  0  0  0  0
   -3.0315   19.8527   23.9576 H   0  0  0  0  0  0  0  0  0  0  0  0
   -3.5327   18.3494   25.1799 C   0  0  0  0  0  0  0  0  0  0  0  0
   -3.7441   18.8917   26.3888 N   0  0  0  0  0  0  0  0  0  0  0  0
   -4.1492   17.1790   24.9690 N   0  0  0  0  0  0  0  0  0  0  0  0
   -3.3261   19.7519   26.6223 H   0  0  0  0  0  0  0  0  0  0  0  0
   -4.0446   16.7160   24.1065 H   0  0  0  0  0  0  0  0  0  0  0  0
   -4.7068   16.7819   25.6765 H   0  0  0  0  0  0  0  0  0  0  0  0
   -8.1909   17.6507   21.5506 C   0  0  0  0  0  0  0  0  0  0  0  0
   -8.4782   16.4393   20.6638 C   0  0  0  0  0  0  0  0  0  0  0  0
   -9.7021   15.6517   21.1252 C   0  0  0  0  0  0  0  0  0  0  0  0
   -9.6144   14.8418   22.1631 N   0  0  0  0  0  0  0  0  0  0  0  0
  -10.7700   15.7747   20.5260 O   0  0  0  0  0  0  0  0  0  0  0  0
   -8.7592   14.7449   22.6410 H   0  0  0  0  0  0  0  0  0  0  0  0
  -10.4042   14.3344   22.4596 H   0  0  0  0  0  0  0  0  0  0  0  0
 15 16  1  0  0  0
 16 17  1  0  0  0
 16 18  2  0  0  0
 14 20  1  0  0  0
 14 11  1  0  0  0
 14 17  1  0  0  0
 20 21  1  0  0  0
 21 22  1  0  0  0
 21 26  1  0  0  0
 22 23  1  0  0  0
 23 24  1  0  0  0
 24 25  1  0  0  0
 25 26  1  0  0  0
 11 10  1  0  0  0
 11 12  1  0  0  0
 10  6  1  0  0  0
  6  7  1  0  0  0
  6  2  1  0  0  0
  7  8  1  0  0  0
  7  9  1  0  0  0
  2  3  1  0  0  0
  2  4  2  0  0  0
  1 48  1  0  0  0
  1 27  1  0  0  0
  1  3  1  0  0  0
 48 49  1  0  0  0
 49 50  1  0  0  0
 50 51  1  0  0  0
 50 52  2  0  0  0
 27 28  1  0  0  0
 27 29  2  0  0  0
 31 32  1  0  0  0
 31 37  1  0  0  0
 31 28  1  0  0  0
 32 33  1  0  0  0
 32 34  2  0  0  0
 37 38  1  0  0  0
 38 39  1  0  0  0
 39 40  1  0  0  0
 42 40  1  0  0  0
 42 43  2  0  0  0
 42 44  1  0  0  0
 17 19  1  0  0  0
  3  5  1  0  0  0
 51 53  1  0  0  0
 51 54  1  0  0  0
 28 30  1  0  0  0
 33 35  1  0  0  0
 33 36  1  0  0  0
 40 41  1  0  0  0
 43 45  1  0  0  0
 44 46  1  0  0  0
 44 47  1  0  0  0
 12 13  1  0  0  0
M  END
> <minimizedAffinity>
-8.40066

$$$$
1GNN_U0E_A_100


 54 54  0  0  0  0  0  0  0  0999 V2000
   -8.9815   15.3733   25.9191 C   0  0  0  0  0  0  0  0  0  0  0  0
  -10.9456   15.2709   27.3475 C   0  0  0  0  0  0  0  0  0  0  0  0
  -10.0794   14.6701   26.5733 N   0  0  0  0  0  0  0  0  0  0  0  0
  -10.9204   16.4726   27.6481 O   0  0  0  0  0  0  0  0  0  0  0  0
  -10.1725   13.7012   26.4256 H   0  0  0  0  0  0  0  0  0  0  0  0
  -12.0385   14.3456   27.8727 C   0  0  0  0  0  0  0  0  0  0  0  0
  -13.1664   14.3453   26.8500 C   0  0  0  0  0  0  0  0  0  0  0  0
  -13.9177   13.0124   26.7977 C   0  0  0  0  0  0  0  0  0  0  0  0
  -14.2272   15.4092   27.1350 C   0  0  0  0  0  0  0  0  0  0  0  0
  -12.5513   14.8279   29.2220 C   0  0  0  0  0  0  0  0  0  0  0  0
  -12.8863   13.8780   30.3574 C   0  0  0  0  0  0  0  0  0  0  0  0
  -14.2060   13.4005   30.1585 O   0  0  0  0  0  0  0  0  0  0  0  0
  -14.8260   14.1463   30.1781 H   0  0  0  0  0  0  0  0  0  0  0  0
  -12.7738   14.5332   31.7490 C   0  0  0  0  0  0  0  0  0  0  0  0
  -12.9724   12.0808   34.6510 C   0  0  0  0  0  0  0  0  0  0  0  0
  -13.4388   13.1697   33.6846 C   0  0  0  0  0  0  0  0  0  0  0  0
  -12.5267   13.5240   32.7913 N   0  0  0  0  0  0  0  0  0  0  0  0
  -14.5846   13.6381   33.7607 O   0  0  0  0  0  0  0  0  0  0  0  0
  -11.6426   13.0922   32.8265 H   0  0  0  0  0  0  0  0  0  0  0  0
  -11.6141   15.5389   31.6944 C   0  0  0  0  0  0  0  0  0  0  0  0
  -10.6291   15.1482   32.8005 C   0  0  0  0  0  0  0  0  0  0  0  0
   -9.1991   15.4919   32.3770 C   0  0  0  0  0  0  0  0  0  0  0  0
   -8.2292   15.1757   33.5136 C   0  0  0  0  0  0  0  0  0  0  0  0
   -8.5968   15.9634   34.7758 C   0  0  0  0  0  0  0  0  0  0  0  0
  -10.0345   15.6547   35.2100 C   0  0  0  0  0  0  0  0  0  0  0  0
  -11.0172   15.9349   34.0661 C   0  0  0  0  0  0  0  0  0  0  0  0
   -8.0219   15.8712   26.9947 C   0  0  0  0  0  0  0  0  0  0  0  0
   -7.4263   17.0044   26.6921 N   0  0  0  0  0  0  0  0  0  0  0  0
   -7.8426   15.2233   28.0369 O   0  0  0  0  0  0  0  0  0  0  0  0
   -7.6459   17.4366   25.8352 H   0  0  0  0  0  0  0  0  0  0  0  0
   -6.4503   17.6526   27.5732 C   0  0  0  0  0  0  0  0  0  0  0  0
   -6.6184   19.1712   27.5163 C   0  0  0  0  0  0  0  0  0  0  0  0
   -7.8356   19.7279   27.5093 N   0  0  0  0  0  0  0  0  0  0  0  0
   -5.6320   19.9200   27.4765 O   0  0  0  0  0  0  0  0  0  0  0  0
   -8.6377   19.1580   27.5402 H   0  0  0  0  0  0  0  0  0  0  0  0
   -7.9287   20.7074   27.4733 H   0  0  0  0  0  0  0  0  0  0  0  0
   -5.0323   17.2918   27.1312 C   0  0  0  0  0  0  0  0  0  0  0  0
   -4.9089   17.1008   25.6194 C   0  0  0  0  0  0  0  0  0  0  0  0
   -3.8314   17.9882   24.9946 C   0  0  0  0  0  0  0  0  0  0  0  0
   -4.3136   18.7409   23.8280 N   0  0  0  0  0  0  0  0  0  0  0  0
   -4.2801   18.3010   22.9479 H   0  0  0  0  0  0  0  0  0  0  0  0
   -4.7961   19.9899   23.8894 C   0  0  0  0  0  0  0  0  0  0  0  0
   -4.3031   20.8767   24.7672 N   0  0  0  0  0  0  0  0  0  0  0  0
   -5.7807   20.4538   23.1086 N   0  0  0  0  0  0  0  0  0  0  0  0
   -3.5769   20.6136   25.3776 H   0  0  0  0  0  0  0  0  0  0  0  0
   -6.1960   19.8648   22.4379 H   0  0  0  0  0  0  0  0  0  0  0  0
   -6.0890   21.3837   23.2054 H   0  0  0  0  0  0  0  0  0  0  0  0
   -9.5154   16.5419   25.0948 C   0  0  0  0  0  0  0  0  0  0  0  0
   -9.3345   16.3378   23.5907 C   0  0  0  0  0  0  0  0  0  0  0  0
   -8.2369   17.2238   23.0064 C   0  0  0  0  0  0  0  0  0  0  0  0
   -8.0806   17.3071   21.6990 N   0  0  0  0  0  0  0  0  0  0  0  0
   -7.4989   17.8594   23.7586 O   0  0  0  0  0  0  0  0  0  0  0  0
   -8.6721   16.7978   21.0990 H   0  0  0  0  0  0  0  0  0  0  0  0
   -7.3724   17.8786   21.3233 H   0  0  0  0  0  0  0  0  0  0  0  0
 15 16  1  0  0  0
 16 17  1  0  0  0
 16 18  2  0  0  0
 14 20  1  0  0  0
 14 11  1  0  0  0
 14 17  1  0  0  0
 20 21  1  0  0  0
 21 22  1  0  0  0
 21 26  1  0  0  0
 22 23  1  0  0  0
 23 24  1  0  0  0
 24 25  1  0  0  0
 25 26  1  0  0  0
 11 10  1  0  0  0
 11 12  1  0  0  0
 10  6  1  0  0  0
  6  7  1  0  0  0
  6  2  1  0  0  0
  7  8  1  0  0  0
  7  9  1  0  0  0
  2  3  1  0  0  0
  2  4  2  0  0  0
  1 48  1  0  0  0
  1 27  1  0  0  0
  1  3  1  0  0  0
 48 49  1  0  0  0
 49 50  1  0  0  0
 50 51  1  0  0  0
 50 52  2  0  0  0
 27 28  1  0  0  0
 27 29  2  0  0  0
 31 32  1  0  0  0
 31 37  1  0  0  0
 31 28  1  0  0  0
 32 33  1  0  0  0
 32 34  2  0  0  0
 37 38  1  0  0  0
 38 39  1  0  0  0
 39 40  1  0  0  0
 42 40  1  0  0  0
 42 43  2  0  0  0
 42 44  1  0  0  0
 17 19  1  0  0  0
  3  5  1  0  0  0
 51 53  1  0  0  0
 51 54  1  0  0  0
 28 30  1  0  0  0
 33 35  1  0  0  0
 33 36  1  0  0  0
 40 41  1  0  0  0
 43 45  1  0  0  0
 44 46  1  0  0  0
 44 47  1  0  0  0
 12 13  1  0  0  0
M  END
> <minimizedAffinity>
-8.25006

$$$$
1GNN_U0E_A_100


 54 54  0  0  0  0  0  0  0  0999 V2000
   -8.4066   17.1577   23.5447 C   0  0  0  0  0  0  0  0  0  0  0  0
   -6.5731   18.4216   22.5701 C   0  0  0  0  0  0  0  0  0  0  0  0
   -6.9943   17.4032   23.2746 N   0  0  0  0  0  0  0  0  0  0  0  0
   -7.3023   19.2611   22.0236 O   0  0  0  0  0  0  0  0  0  0  0  0
   -6.3292   16.7751   23.6384 H   0  0  0  0  0  0  0  0  0  0  0  0
   -5.0535   18.5066   22.4697 C   0  0  0  0  0  0  0  0  0  0  0  0
   -4.6179   17.5777   21.3447 C   0  0  0  0  0  0  0  0  0  0  0  0
   -5.7142   17.3607   20.2984 C   0  0  0  0  0  0  0  0  0  0  0  0
   -3.4067   18.1047   20.5744 C   0  0  0  0  0  0  0  0  0  0  0  0
   -4.4021   18.0882   23.7800 C   0  0  0  0  0  0  0  0  0  0  0  0
   -3.1077   18.7009   24.2828 C   0  0  0  0  0  0  0  0  0  0  0  0
   -3.0394   20.0360   23.8119 O   0  0  0  0  0  0  0  0  0  0  0  0
   -3.0326   20.0368   22.8419 H   0  0  0  0  0  0  0  0  0  0  0  0
   -1.8541   17.9246   23.8311 C   0  0  0  0  0  0  0  0  0  0  0  0
    1.4373   19.5130   24.8892 C   0  0  0  0  0  0  0  0  0  0  0  0
    0.3013   19.1027   23.9520 C   0  0  0  0  0  0  0  0  0  0  0  0
   -0.6540   18.3976   24.5398 N   0  0  0  0  0  0  0  0  0  0  0  0
    0.3109   19.4374   22.7579 O   0  0  0  0  0  0  0  0  0  0  0  0
   -0.5567   18.1799   25.4950 H   0  0  0  0  0  0  0  0  0  0  0  0
   -2.0983   16.4377   24.1290 C   0  0  0  0  0  0  0  0  0  0  0  0
   -0.9549   15.6556   23.4755 C   0  0  0  0  0  0  0  0  0  0  0  0
   -0.7957   14.2923   24.1527 C   0  0  0  0  0  0  0  0  0  0  0  0
    0.2908   13.4839   23.4466 C   0  0  0  0  0  0  0  0  0  0  0  0
   -0.0543   13.2874   21.9663 C   0  0  0  0  0  0  0  0  0  0  0  0
   -0.2419   14.6392   21.2677 C   0  0  0  0  0  0  0  0  0  0  0  0
   -1.3065   15.4770   21.9870 C   0  0  0  0  0  0  0  0  0  0  0  0
   -8.6460   17.3298   25.0410 C   0  0  0  0  0  0  0  0  0  0  0  0
   -7.6156   17.8271   25.6901 N   0  0  0  0  0  0  0  0  0  0  0  0
   -9.7263   17.0022   25.5544 O   0  0  0  0  0  0  0  0  0  0  0  0
   -6.8047   18.0554   25.1806 H   0  0  0  0  0  0  0  0  0  0  0  0
   -7.6203   18.0566   27.1380 C   0  0  0  0  0  0  0  0  0  0  0  0
   -6.7369   19.2560   27.4826 C   0  0  0  0  0  0  0  0  0  0  0  0
   -5.4025   19.1626   27.4351 N   0  0  0  0  0  0  0  0  0  0  0  0
   -7.2364   20.3409   27.8124 O   0  0  0  0  0  0  0  0  0  0  0  0
   -4.9774   18.3132   27.1764 H   0  0  0  0  0  0  0  0  0  0  0  0
   -4.8462   19.9435   27.6588 H   0  0  0  0  0  0  0  0  0  0  0  0
   -7.0858   16.8206   27.8610 C   0  0  0  0  0  0  0  0  0  0  0  0
   -8.1621   16.0830   28.6576 C   0  0  0  0  0  0  0  0  0  0  0  0
   -8.7799   16.9441   29.7602 C   0  0  0  0  0  0  0  0  0  0  0  0
  -10.2474   16.8698   29.7916 N   0  0  0  0  0  0  0  0  0  0  0  0
  -10.6776   16.5731   30.6260 H   0  0  0  0  0  0  0  0  0  0  0  0
  -11.0357   17.1814   28.7533 C   0  0  0  0  0  0  0  0  0  0  0  0
  -10.8480   18.3155   28.0615 N   0  0  0  0  0  0  0  0  0  0  0  0
  -12.0490   16.4177   28.3240 N   0  0  0  0  0  0  0  0  0  0  0  0
  -10.1232   18.9320   28.3141 H   0  0  0  0  0  0  0  0  0  0  0  0
  -12.2523   15.5685   28.7787 H   0  0  0  0  0  0  0  0  0  0  0  0
  -12.5904   16.7055   27.5537 H   0  0  0  0  0  0  0  0  0  0  0  0
   -8.7960   15.7509   23.0981 C   0  0  0  0  0  0  0  0  0  0  0  0
   -8.6713   15.5529   21.5875 C   0  0  0  0  0  0  0  0  0  0  0  0
   -9.6494   16.4208   20.7995 C   0  0  0  0  0  0  0  0  0  0  0  0
  -10.8547   15.9662   20.5142 N   0  0  0  0  0  0  0  0  0  0  0  0
   -9.3100   17.5449   20.4313 O   0  0  0  0  0  0  0  0  0  0  0  0
  -11.1243   15.0666   20.8096 H   0  0  0  0  0  0  0  0  0  0  0  0
  -11.4846   16.5267   20.0058 H   0  0  0  0  0  0  0  0  0  0  0  0
 15 16  1  0  0  0
 16 17  1  0  0  0
 16 18  2  0  0  0
 14 20  1  0  0  0
 14 11  1  0  0  0
 14 17  1  0  0  0
 20 21  1  0  0  0
 21 22  1  0  0  0
 21 26  1  0  0  0
 22 23  1  0  0  0
 23 24  1  0  0  0
 24 25  1  0  0  0
 25 26  1  0  0  0
 11 10  1  0  0  0
 11 12  1  0  0  0
 10  6  1  0  0  0
  6  7  1  0  0  0
  6  2  1  0  0  0
  7  8  1  0  0  0
  7  9  1  0  0  0
  2  3  1  0  0  0
  2  4  2  0  0  0
  1 48  1  0  0  0
  1 27  1  0  0  0
  1  3  1  0  0  0
 48 49  1  0  0  0
 49 50  1  0  0  0
 50 51  1  0  0  0
 50 52  2  0  0  0
 27 28  1  0  0  0
 27 29  2  0  0  0
 31 32  1  0  0  0
 31 37  1  0  0  0
 31 28  1  0  0  0
 32 33  1  0  0  0
 32 34  2  0  0  0
 37 38  1  0  0  0
 38 39  1  0  0  0
 39 40  1  0  0  0
 42 40  1  0  0  0
 42 43  2  0  0  0
 42 44  1  0  0  0
 17 19  1  0  0  0
  3  5  1  0  0  0
 51 53  1  0  0  0
 51 54  1  0  0  0
 28 30  1  0  0  0
 33 35  1  0  0  0
 33 36  1  0  0  0
 40 41  1  0  0  0
 43 45  1  0  0  0
 44 46  1  0  0  0
 44 47  1  0  0  0
 12 13  1  0  0  0
M  END
> <minimizedAffinity>
-8.17816

$$$$
1GNN_U0E_A_100


 54 54  0  0  0  0  0  0  0  0999 V2000
  -13.1277   13.8101   30.9966 C   0  0  0  0  0  0  0  0  0  0  0  0
  -13.8323   14.6937   28.8445 C   0  0  0  0  0  0  0  0  0  0  0  0
  -12.9253   14.1084   29.5831 N   0  0  0  0  0  0  0  0  0  0  0  0
  -14.9626   15.0231   29.2305 O   0  0  0  0  0  0  0  0  0  0  0  0
  -12.0688   13.8584   29.1670 H   0  0  0  0  0  0  0  0  0  0  0  0
  -13.3760   14.9564   27.4130 C   0  0  0  0  0  0  0  0  0  0  0  0
  -14.1255   13.9864   26.5099 C   0  0  0  0  0  0  0  0  0  0  0  0
  -14.1724   12.5653   27.0774 C   0  0  0  0  0  0  0  0  0  0  0  0
  -15.5825   14.3912   26.2825 C   0  0  0  0  0  0  0  0  0  0  0  0
  -11.8744   14.7477   27.2785 C   0  0  0  0  0  0  0  0  0  0  0  0
  -10.8620   15.8051   27.6792 C   0  0  0  0  0  0  0  0  0  0  0  0
  -11.5711   16.9449   28.1344 O   0  0  0  0  0  0  0  0  0  0  0  0
  -12.1214   17.2919   27.4150 H   0  0  0  0  0  0  0  0  0  0  0  0
   -9.9162   16.2055   26.5287 C   0  0  0  0  0  0  0  0  0  0  0  0
   -6.4851   17.1569   27.8695 C   0  0  0  0  0  0  0  0  0  0  0  0
   -7.9324   17.3547   27.4185 C   0  0  0  0  0  0  0  0  0  0  0  0
   -8.5172   16.2482   26.9835 N   0  0  0  0  0  0  0  0  0  0  0  0
   -8.4723   18.4691   27.4869 O   0  0  0  0  0  0  0  0  0  0  0  0
   -7.9914   15.4161   26.9637 H   0  0  0  0  0  0  0  0  0  0  0  0
  -10.0821   15.1658   25.4104 C   0  0  0  0  0  0  0  0  0  0  0  0
   -9.0491   15.5003   24.3300 C   0  0  0  0  0  0  0  0  0  0  0  0
   -9.3338   14.6924   23.0617 C   0  0  0  0  0  0  0  0  0  0  0  0
   -8.3516   15.0878   21.9610 C   0  0  0  0  0  0  0  0  0  0  0  0
   -8.4559   16.5855   21.6528 C   0  0  0  0  0  0  0  0  0  0  0  0
   -8.1970   17.4193   22.9132 C   0  0  0  0  0  0  0  0  0  0  0  0
   -9.1540   17.0090   24.0395 C   0  0  0  0  0  0  0  0  0  0  0  0
  -12.2440   14.7449   31.8157 C   0  0  0  0  0  0  0  0  0  0  0  0
  -11.0578   14.9536   31.2868 N   0  0  0  0  0  0  0  0  0  0  0  0
  -12.6473   15.2278   32.8844 O   0  0  0  0  0  0  0  0  0  0  0  0
  -10.8425   14.5201   30.4295 H   0  0  0  0  0  0  0  0  0  0  0  0
  -10.0419   15.8025   31.9166 C   0  0  0  0  0  0  0  0  0  0  0  0
   -9.2834   16.5931   30.8501 C   0  0  0  0  0  0  0  0  0  0  0  0
   -9.7636   17.7517   30.3825 N   0  0  0  0  0  0  0  0  0  0  0  0
   -8.2072   16.1797   30.3961 O   0  0  0  0  0  0  0  0  0  0  0  0
  -10.6165   18.1050   30.7247 H   0  0  0  0  0  0  0  0  0  0  0  0
   -9.2640   18.2506   29.6964 H   0  0  0  0  0  0  0  0  0  0  0  0
   -9.0505   14.9362   32.6930 C   0  0  0  0  0  0  0  0  0  0  0  0
   -8.6436   15.5496   34.0328 C   0  0  0  0  0  0  0  0  0  0  0  0
   -9.8326   16.1077   34.8161 C   0  0  0  0  0  0  0  0  0  0  0  0
  -10.3422   15.1724   35.8290 N   0  0  0  0  0  0  0  0  0  0  0  0
   -9.9320   15.1914   36.7237 H   0  0  0  0  0  0  0  0  0  0  0  0
  -11.3314   14.2953   35.6084 C   0  0  0  0  0  0  0  0  0  0  0  0
  -11.1119   13.1695   34.9124 N   0  0  0  0  0  0  0  0  0  0  0  0
  -12.5874   14.4543   36.0462 N   0  0  0  0  0  0  0  0  0  0  0  0
  -10.2143   12.9784   34.5558 H   0  0  0  0  0  0  0  0  0  0  0  0
  -12.8302   15.2548   36.5652 H   0  0  0  0  0  0  0  0  0  0  0  0
  -13.2676   13.7705   35.8490 H   0  0  0  0  0  0  0  0  0  0  0  0
  -12.7795   12.3524   31.2869 C   0  0  0  0  0  0  0  0  0  0  0  0
  -13.6247   11.3688   30.4779 C   0  0  0  0  0  0  0  0  0  0  0  0
  -14.3192   10.3313   31.3569 C   0  0  0  0  0  0  0  0  0  0  0  0
  -15.5817   10.0174   31.1371 N   0  0  0  0  0  0  0  0  0  0  0  0
  -13.6979    9.7895   32.2706 O   0  0  0  0  0  0  0  0  0  0  0  0
  -16.0769   10.4520   30.4056 H   0  0  0  0  0  0  0  0  0  0  0  0
  -16.0286    9.3484   31.7046 H   0  0  0  0  0  0  0  0  0  0  0  0
 15 16  1  0  0  0
 16 17  1  0  0  0
 16 18  2  0  0  0
 14 20  1  0  0  0
 14 11  1  0  0  0
 14 17  1  0  0  0
 20 21  1  0  0  0
 21 22  1  0  0  0
 21 26  1  0  0  0
 22 23  1  0  0  0
 23 24  1  0  0  0
 24 25  1  0  0  0
 25 26  1  0  0  0
 11 10  1  0  0  0
 11 12  1  0  0  0
 10  6  1  0  0  0
  6  7  1  0  0  0
  6  2  1  0  0  0
  7  8  1  0  0  0
  7  9  1  0  0  0
  2  3  1  0  0  0
  2  4  2  0  0  0
  1 48  1  0  0  0
  1 27  1  0  0  0
  1  3  1  0  0  0
 48 49  1  0  0  0
 49 50  1  0  0  0
 50 51  1  0  0  0
 50 52  2  0  0  0
 27 28  1  0  0  0
 27 29  2  0  0  0
 31 32  1  0  0  0
 31 37  1  0  0  0
 31 28  1  0  0  0
 32 33  1  0  0  0
 32 34  2  0  0  0
 37 38  1  0  0  0
 38 39  1  0  0  0
 39 40  1  0  0  0
 42 40  1  0  0  0
 42 43  2  0  0  0
 42 44  1  0  0  0
 17 19  1  0  0  0
  3  5  1  0  0  0
 51 53  1  0  0  0
 51 54  1  0  0  0
 28 30  1  0  0  0
 33 35  1  0  0  0
 33 36  1  0  0  0
 40 41  1  0  0  0
 43 45  1  0  0  0
 44 46  1  0  0  0
 44 47  1  0  0  0
 12 13  1  0  0  0
M  END
> <minimizedAffinity>
-8.15735

$$$$
1GNN_U0E_A_100


 54 54  0  0  0  0  0  0  0  0999 V2000
   -7.5780   16.6378   23.4597 C   0  0  0  0  0  0  0  0  0  0  0  0
   -7.8396   16.5270   25.8738 C   0  0  0  0  0  0  0  0  0  0  0  0
   -7.5602   17.2170   24.7984 N   0  0  0  0  0  0  0  0  0  0  0  0
   -8.1849   15.3372   25.8882 O   0  0  0  0  0  0  0  0  0  0  0  0
   -7.3279   18.1686   24.8966 H   0  0  0  0  0  0  0  0  0  0  0  0
   -7.6990   17.3269   27.1649 C   0  0  0  0  0  0  0  0  0  0  0  0
   -6.4924   18.2418   27.0057 C   0  0  0  0  0  0  0  0  0  0  0  0
   -6.7216   19.6329   27.6025 C   0  0  0  0  0  0  0  0  0  0  0  0
   -5.2390   17.6969   27.6914 C   0  0  0  0  0  0  0  0  0  0  0  0
   -7.5030   16.3994   28.3555 C   0  0  0  0  0  0  0  0  0  0  0  0
   -8.6531   15.6621   29.0167 C   0  0  0  0  0  0  0  0  0  0  0  0
   -8.8265   14.4244   28.3479 O   0  0  0  0  0  0  0  0  0  0  0  0
   -9.0497   14.5878   27.4182 H   0  0  0  0  0  0  0  0  0  0  0  0
   -9.9751   16.4560   28.9938 C   0  0  0  0  0  0  0  0  0  0  0  0
  -12.7860   14.3472   27.5352 C   0  0  0  0  0  0  0  0  0  0  0  0
  -11.6128   15.3273   27.5474 C   0  0  0  0  0  0  0  0  0  0  0  0
  -11.1232   15.5666   28.7550 N   0  0  0  0  0  0  0  0  0  0  0  0
  -11.1836   15.8172   26.4920 O   0  0  0  0  0  0  0  0  0  0  0  0
  -11.5470   15.1293   29.5285 H   0  0  0  0  0  0  0  0  0  0  0  0
  -10.1171   17.1574   30.3528 C   0  0  0  0  0  0  0  0  0  0  0  0
   -9.6856   16.1514   31.4242 C   0  0  0  0  0  0  0  0  0  0  0  0
   -8.5423   16.7312   32.2603 C   0  0  0  0  0  0  0  0  0  0  0  0
   -8.1694   15.7591   33.3776 C   0  0  0  0  0  0  0  0  0  0  0  0
   -9.3769   15.4789   34.2789 C   0  0  0  0  0  0  0  0  0  0  0  0
  -10.5466   14.9176   33.4618 C   0  0  0  0  0  0  0  0  0  0  0  0
  -10.9100   15.8677   32.3139 C   0  0  0  0  0  0  0  0  0  0  0  0
   -6.9321   17.6303   22.4988 C   0  0  0  0  0  0  0  0  0  0  0  0
   -5.9164   17.1343   21.8261 N   0  0  0  0  0  0  0  0  0  0  0  0
   -7.3535   18.7931   22.4066 O   0  0  0  0  0  0  0  0  0  0  0  0
   -5.6677   16.1936   21.9760 H   0  0  0  0  0  0  0  0  0  0  0  0
   -5.1379   17.9192   20.8631 C   0  0  0  0  0  0  0  0  0  0  0  0
   -5.5949   17.6055   19.4382 C   0  0  0  0  0  0  0  0  0  0  0  0
   -5.1429   18.3180   18.3992 N   0  0  0  0  0  0  0  0  0  0  0  0
   -6.3927   16.6845   19.2136 O   0  0  0  0  0  0  0  0  0  0  0  0
   -4.5082   19.0559   18.5472 H   0  0  0  0  0  0  0  0  0  0  0  0
   -5.4452   18.1042   17.4870 H   0  0  0  0  0  0  0  0  0  0  0  0
   -3.6537   17.5791   20.9960 C   0  0  0  0  0  0  0  0  0  0  0  0
   -3.2400   17.2638   22.4335 C   0  0  0  0  0  0  0  0  0  0  0  0
   -2.8903   18.5158   23.2392 C   0  0  0  0  0  0  0  0  0  0  0  0
   -3.9725   18.9398   24.1388 N   0  0  0  0  0  0  0  0  0  0  0  0
   -4.3555   18.2692   24.7494 H   0  0  0  0  0  0  0  0  0  0  0  0
   -4.4696   20.1839   24.1784 C   0  0  0  0  0  0  0  0  0  0  0  0
   -5.1312   20.6954   23.1292 N   0  0  0  0  0  0  0  0  0  0  0  0
   -4.3567   21.0045   25.2311 N   0  0  0  0  0  0  0  0  0  0  0  0
   -5.2572   20.1553   22.3158 H   0  0  0  0  0  0  0  0  0  0  0  0
   -3.8849   20.7039   26.0412 H   0  0  0  0  0  0  0  0  0  0  0  0
   -4.7456   21.9082   25.1947 H   0  0  0  0  0  0  0  0  0  0  0  0
   -9.0114   16.3331   23.0318 C   0  0  0  0  0  0  0  0  0  0  0  0
   -9.0853   15.5607   21.7149 C   0  0  0  0  0  0  0  0  0  0  0  0
   -9.8574   16.3149   20.6351 C   0  0  0  0  0  0  0  0  0  0  0  0
  -10.9125   15.7614   20.0682 N   0  0  0  0  0  0  0  0  0  0  0  0
   -9.4925   17.4400   20.2953 O   0  0  0  0  0  0  0  0  0  0  0  0
  -11.2027   14.8613   20.3415 H   0  0  0  0  0  0  0  0  0  0  0  0
  -11.4095   16.2486   19.3719 H   0  0  0  0  0  0  0  0  0  0  0  0
 15 16  1  0  0  0
 16 17  1  0  0  0
 16 18  2  0  0  0
 14 20  1  0  0  0
 14 11  1  0  0  0
 14 17  1  0  0  0
 20 21  1  0  0  0
 21 22  1  0  0  0
 21 26  1  0  0  0
 22 23  1  0  0  0
 23 24  1  0  0  0
 24 25  1  0  0  0
 25 26  1  0  0  0
 11 10  1  0  0  0
 11 12  1  0  0  0
 10  6  1  0  0  0
  6  7  1  0  0  0
  6  2  1  0  0  0
  7  8  1  0  0  0
  7  9  1  0  0  0
  2  3  1  0  0  0
  2  4  2  0  0  0
  1 48  1  0  0  0
  1 27  1  0  0  0
  1  3  1  0  0  0
 48 49  1  0  0  0
 49 50  1  0  0  0
 50 51  1  0  0  0
 50 52  2  0  0  0
 27 28  1  0  0  0
 27 29  2  0  0  0
 31 32  1  0  0  0
 31 37  1  0  0  0
 31 28  1  0  0  0
 32 33  1  0  0  0
 32 34  2  0  0  0
 37 38  1  0  0  0
 38 39  1  0  0  0
 39 40  1  0  0  0
 42 40  1  0  0  0
 42 43  2  0  0  0
 42 44  1  0  0  0
 17 19  1  0  0  0
  3  5  1  0  0  0
 51 53  1  0  0  0
 51 54  1  0  0  0
 28 30  1  0  0  0
 33 35  1  0  0  0
 33 36  1  0  0  0
 40 41  1  0  0  0
 43 45  1  0  0  0
 44 46  1  0  0  0
 44 47  1  0  0  0
 12 13  1  0  0  0
M  END
> <minimizedAffinity>
-8.15070

$$$$
