6AYO_C1Y_A_301


 24 26  0  0  0  0  0  0  0  0999 V2000
  -31.7082    8.3305   94.7608 C   0  0  0  0  0  0  0  0  0  0  0  0
  -32.2171    9.5037   94.0716 C   0  0  0  0  0  0  0  0  0  0  0  0
  -31.8947   10.7947   94.6973 C   0  0  0  0  0  0  0  0  0  0  0  0
  -32.8361    7.7223   92.9061 C   0  0  0  0  0  0  0  0  0  0  0  0
  -32.1446    7.1735   93.9744 C   0  0  0  0  0  0  0  0  0  0  0  0
  -30.9895    8.4247   95.9063 N   0  0  0  0  0  0  0  0  0  0  0  0
  -32.8806    9.0845   92.9919 N   0  0  0  0  0  0  0  0  0  0  0  0
  -32.3175   11.9446   94.1328 N   0  0  0  0  0  0  0  0  0  0  0  0
  -31.1761   10.7840   95.8487 N   0  0  0  0  0  0  0  0  0  0  0  0
  -30.7391    9.6390   96.4154 C   0  0  0  0  0  0  0  0  0  0  0  0
  -33.3372    9.6737   92.3488 H   0  0  0  0  0  0  0  0  0  0  0  0
  -32.8372   11.9206   93.2969 H   0  0  0  0  0  0  0  0  0  0  0  0
  -32.1065   12.8078   94.5566 H   0  0  0  0  0  0  0  0  0  0  0  0
  -31.8811    5.7025   94.1849 C   0  0  0  0  0  0  0  0  0  0  0  0
  -33.3590    3.0455   97.1454 O   0  0  0  0  0  0  0  0  0  0  0  0
  -33.3710    4.4723   97.3006 C   0  0  0  0  0  0  0  0  0  0  0  0
  -32.1957    5.0326   96.5398 C   0  0  0  0  0  0  0  0  0  0  0  0
  -32.7120    4.9945   95.1568 N   0  0  0  0  0  0  0  0  0  0  0  0
  -34.1531    5.3673   95.2100 C   0  0  0  0  0  0  0  0  0  0  0  0
  -34.5895    5.1199   96.6544 C   0  0  0  0  0  0  0  0  0  0  0  0
  -32.5677    2.6805   97.5714 H   0  0  0  0  0  0  0  0  0  0  0  0
  -35.0560    6.4030   97.3700 C   0  0  0  0  0  0  0  0  0  0  0  0
  -36.4193    6.9318   96.8771 C   0  0  0  0  0  0  0  0  0  0  0  0
  -37.6357    6.2273   97.4578 C   0  0  0  0  0  0  0  0  0  0  0  0
  4  7  1  0  0  0
  4  5  2  0  0  0
  7  2  1  0  0  0
  5 14  1  0  0  0
  5  1  1  0  0  0
 14 18  1  0  0  0
  2  1  2  0  0  0
  2  3  1  0  0  0
  8  3  1  0  0  0
  1  6  1  0  0  0
  3  9  2  0  0  0
 18 19  1  0  0  0
 18 17  1  0  0  0
 19 20  1  0  0  0
  6 10  2  0  0  0
  9 10  1  0  0  0
 17 16  1  0  0  0
 20 22  1  0  0  0
 20 16  1  0  0  0
 23 22  1  0  0  0
 23 24  1  0  0  0
 15 16  1  0  0  0
 15 21  1  0  0  0
  7 11  1  0  0  0
  8 12  1  0  0  0
  8 13  1  0  0  0
M  END
> <minimizedAffinity>
-10.21863

$$$$
