6AYO_C1Y_A_301
  RCSB PDB09151803283D
Coordinates from PDB:6AYO:A:301 Model:1 without hydrogens
 20 22  0  0  0  0            999 V2000
  -31.7660    8.3470   94.6880   C 0  0  0  0  0  0  0  0  0  0  0  0
  -32.2620    9.5450   94.0330   C 0  0  0  0  0  0  0  0  0  0  0  0
  -31.9840   10.8090   94.7310   C 0  0  0  0  0  0  0  0  0  0  0  0
  -31.8780    5.7470   93.9840   C 0  0  0  0  0  0  0  0  0  0  0  0
  -35.0470    6.3220   97.2000   C 0  0  0  0  0  0  0  0  0  0  0  0
  -36.5780    6.4480   97.0540   C 0  0  0  0  0  0  0  0  0  0  0  0
  -32.8070    7.8130   92.7610   C 0  0  0  0  0  0  0  0  0  0  0  0
  -37.3640    6.3340   98.3510   C 0  0  0  0  0  0  0  0  0  0  0  0
  -33.0110    3.1510   97.1440   O 0  0  0  0  0  0  0  0  0  0  0  0
  -33.1700    4.5760   97.2090   C 0  0  0  0  0  0  0  0  0  0  0  0
  -32.0750    5.2040   96.3840   C 0  0  0  0  0  0  0  0  0  0  0  0
  -32.6110    5.0220   95.0200   N 0  0  0  0  0  0  0  0  0  0  0  0
  -34.0820    5.2460   95.0870   C 0  0  0  0  0  0  0  0  0  0  0  0
  -34.4620    5.0500   96.5550   C 0  0  0  0  0  0  0  0  0  0  0  0
  -32.1530    7.2230   93.8310   C 0  0  0  0  0  0  0  0  0  0  0  0
  -31.0970    8.3960   95.8660   N 0  0  0  0  0  0  0  0  0  0  0  0
  -32.8740    9.1690   92.9080   N 0  0  0  0  0  0  0  0  0  0  0  0
  -32.3990   11.9790   94.2030   N 0  0  0  0  0  0  0  0  0  0  0  0
  -31.3140   10.7530   95.9100   N 0  0  0  0  0  0  0  0  0  0  0  0
  -30.8850    9.5880   96.4410   C 0  0  0  0  0  0  0  0  0  0  0  0
  7 17  1  0  0  0  0
  7 15  2  0  0  0  0
 17  2  1  0  0  0  0
 15  4  1  0  0  0  0
 15  1  1  0  0  0  0
  4 12  1  0  0  0  0
  2  1  2  0  0  0  0
  2  3  1  0  0  0  0
 18  3  1  0  0  0  0
  1 16  1  0  0  0  0
  3 19  2  0  0  0  0
 12 13  1  0  0  0  0
 12 11  1  0  0  0  0
 13 14  1  0  0  0  0
 16 20  2  0  0  0  0
 19 20  1  0  0  0  0
 11 10  1  0  0  0  0
 14  5  1  0  0  0  0
 14 10  1  0  0  0  0
  6  5  1  0  0  0  0
  6  8  1  0  0  0  0
  9 10  1  0  0  0  0
A    1
C4
A    2
C5
A    3
C6
A    4
C10
A    5
C20
A    6
C21
A    7
C8
A    8
C22
A    9
O3'
A   10
C3'
A   11
C2'
A   12
N1'
A   13
C1'
A   14
C4'
A   15
C9
A   16
N3
A   17
N7
A   18
N6
A   19
N1
A   20
C2
M  END
>  <InstanceId>
6AYO_C1Y_A_301

>  <ChemCompId>
C1Y

>  <PdbId>
6AYO

>  <ChainId>
A

>  <ResidueNumber>
301

>  <InsertionCode>


>  <Model>
1

>  <AltIds>


>  <MissingHeavyAtoms>
0

>  <ObservedFormula>
C14 N5 O

>  <Name>
(3R,4S)-1-[(4-amino-5H-pyrrolo[3,2-d]pyrimidin-7-yl)methyl]-4-propylpyrrolidin-3-ol

>  <SystematicName>
(3~{R},4~{S})-1-[(4-azanyl-5~{H}-pyrrolo[3,2-d]pyrimidin-7-yl)methyl]-4-propyl-pyrrolidin-3-ol

>  <Synonyms>
5'-deoxy-5'-Propyl-DADMe-Immucillin-A

>  <Type>
NON-POLYMER

>  <Formula>
C14 H21 N5 O

>  <MolecularWeight>
275.349

>  <ModifiedDate>
2018-09-07

>  <Parent>


>  <OneLetterCode>


>  <SubcomponentList>


>  <AmbiguousFlag>
N

>  <InChI>
InChI=1S/C14H21N5O/c1-2-3-9-5-19(7-11(9)20)6-10-4-16-13-12(10)17-8-18-14(13)15/h4,8-9,11,16,20H,2-3,5-7H2,1H3,(H2,15,17,18)/t9-,11-/m0/s1

>  <InChIKey>
XCPKSVNKJHKGNS-ONGXEEELSA-N

>  <SMILES>
CCC[C@H]1CN(C[C@@H]1O)Cc2c[nH]c3c2ncnc3N

$$$$
