4B9Z_ACR_A_1818
  RCSB PDB12061711483D
Coordinates from PDB:4B9Z:A:1818 Model:1 without hydrogens
 44 47  0  0  0  0            999 V2000
   29.7750   79.8540   34.7220   C 0  0  0  0  0  0  0  0  0  0  0  0
   28.2370   79.7440   34.6840   C 0  0  0  0  0  0  0  0  0  0  0  0
   27.5730   80.2720   35.9640   C 0  0  0  0  0  0  0  0  0  0  0  0
   27.9980   79.4030   37.1360   C 0  0  0  0  0  0  0  0  0  0  0  0
   29.4860   79.1140   37.1050   C 0  0  0  0  0  0  0  0  0  0  0  0
   30.1970   78.7740   38.3930   C 0  0  0  0  0  0  0  0  0  0  0  0
   30.2180   79.1280   35.9730   C 0  0  0  0  0  0  0  0  0  0  0  0
   27.6770   80.3170   33.4950   O 0  0  0  0  0  0  0  0  0  0  0  0
   26.1290   80.2210   35.8860   O 0  0  0  0  0  0  0  0  0  0  0  0
   27.6640   80.0930   38.3450   O 0  0  0  0  0  0  0  0  0  0  0  0
   30.1070   77.3610   38.5920   O 0  0  0  0  0  0  0  0  0  0  0  0
   34.6270   82.2180   34.6140   C 0  0  0  0  0  0  0  0  0  0  0  0
   34.1050   81.1390   33.6640   C 0  0  0  0  0  0  0  0  0  0  0  0
   32.5950   81.2660   33.4360   C 0  0  0  0  0  0  0  0  0  0  0  0
   31.8780   81.2620   34.7780   C 0  0  0  0  0  0  0  0  0  0  0  0
   32.4240   82.4660   35.5500   C 0  0  0  0  0  0  0  0  0  0  0  0
   31.7050   82.6840   36.8840   C 0  0  0  0  0  0  0  0  0  0  0  0
   30.4100   81.1840   34.6340   N 0  0  0  0  0  0  0  0  0  0  0  0
   34.7710   81.2690   32.4030   O 0  0  0  0  0  0  0  0  0  0  0  0
   32.1330   80.1780   32.6250   O 0  0  0  0  0  0  0  0  0  0  0  0
   33.8310   82.2740   35.8080   O 0  0  0  0  0  0  0  0  0  0  0  0
   36.6320   86.7240   33.1410   C 0  0  0  0  0  0  0  0  0  0  0  0
   37.2720   85.5150   32.4890   C 0  0  0  0  0  0  0  0  0  0  0  0
   36.1740   84.4580   32.5290   C 0  0  0  0  0  0  0  0  0  0  0  0
   35.7500   84.2240   33.9800   C 0  0  0  0  0  0  0  0  0  0  0  0
   35.5650   85.5120   34.7860   C 0  0  0  0  0  0  0  0  0  0  0  0
   35.5350   85.1860   36.2780   C 0  0  0  0  0  0  0  0  0  0  0  0
   37.6800   85.7910   31.1480   O 0  0  0  0  0  0  0  0  0  0  0  0
   36.6270   83.2080   32.0070   O 0  0  0  0  0  0  0  0  0  0  0  0
   34.5300   83.4850   33.9670   O 0  0  0  0  0  0  0  0  0  0  0  0
   36.6210   86.4500   34.5350   O 0  0  0  0  0  0  0  0  0  0  0  0
   34.8980   86.2420   36.9930   O 0  0  0  0  0  0  0  0  0  0  0  0
   35.7440   91.0270   30.6720   C 0  0  0  0  0  0  0  0  0  0  0  0
   36.5930   90.0870   29.8290   C 0  0  0  0  0  0  0  0  0  0  0  0
   37.0620   88.8820   30.6390   C 0  0  0  0  0  0  0  0  0  0  0  0
   36.4180   88.7470   32.0210   C 0  0  0  0  0  0  0  0  0  0  0  0
   36.1560   90.0660   32.7490   C 0  0  0  0  0  0  0  0  0  0  0  0
   36.9340   90.1840   34.0570   C 0  0  0  0  0  0  0  0  0  0  0  0
   35.6130   92.2840   30.0000   O 0  0  0  0  0  0  0  0  0  0  0  0
   35.8630   89.6380   28.6800   O 0  0  0  0  0  0  0  0  0  0  0  0
   36.7620   87.7040   29.8780   O 0  0  0  0  0  0  0  0  0  0  0  0
   37.2710   87.9540   32.8420   O 0  0  0  0  0  0  0  0  0  0  0  0
   36.4270   91.1850   31.9100   O 0  0  0  0  0  0  0  0  0  0  0  0
   36.1400   89.7050   35.1480   O 0  0  0  0  0  0  0  0  0  0  0  0
  1  2  1  0  0  0  0
  1  7  1  0  0  0  0
  1 18  1  0  0  0  0
  2  3  1  0  0  0  0
  2  8  1  0  0  0  0
  3  4  1  0  0  0  0
  3  9  1  0  0  0  0
  4  5  1  0  0  0  0
  4 10  1  0  0  0  0
  5  6  1  0  0  0  0
  5  7  2  0  0  0  0
  6 11  1  0  0  0  0
 12 13  1  0  0  0  0
 12 21  1  0  0  0  0
 12 30  1  0  0  0  0
 13 14  1  0  0  0  0
 13 19  1  0  0  0  0
 14 15  1  0  0  0  0
 14 20  1  0  0  0  0
 15 16  1  0  0  0  0
 15 18  1  0  0  0  0
 16 17  1  0  0  0  0
 16 21  1  0  0  0  0
 22 23  1  0  0  0  0
 22 31  1  0  0  0  0
 22 42  1  0  0  0  0
 23 24  1  0  0  0  0
 23 28  1  0  0  0  0
 24 25  1  0  0  0  0
 24 29  1  0  0  0  0
 25 26  1  0  0  0  0
 25 30  1  0  0  0  0
 26 27  1  0  0  0  0
 26 31  1  0  0  0  0
 27 32  1  0  0  0  0
 33 34  1  0  0  0  0
 33 39  1  0  0  0  0
 33 43  1  0  0  0  0
 34 35  1  0  0  0  0
 34 40  1  0  0  0  0
 35 36  1  0  0  0  0
 35 41  1  0  0  0  0
 36 37  1  0  0  0  0
 36 42  1  0  0  0  0
 37 38  1  0  0  0  0
 37 43  1  0  0  0  0
 38 44  1  0  0  0  0
A    1
C1A
A    2
C2A
A    3
C3A
A    4
C4A
A    5
C5A
A    6
C6A
A    7
C7A
A    8
O2A
A    9
O3A
A   10
O4A
A   11
O6A
A   12
C1B
A   13
C2B
A   14
C3B
A   15
C4B
A   16
C5B
A   17
C6B
A   18
N4B
A   19
O2B
A   20
O3B
A   21
O5B
A   22
C1C
A   23
C2C
A   24
C3C
A   25
C4C
A   26
C5C
A   27
C6C
A   28
O2C
A   29
O3C
A   30
O4C
A   31
O5C
A   32
O6C
A   33
C1D
A   34
C2D
A   35
C3D
A   36
C4D
A   37
C5D
A   38
C6D
A   39
O1D
A   40
O2D
A   41
O3D
A   42
O4D
A   43
O5D
A   44
O6D
M  END
>  <InstanceId>
4B9Z_ACR_A_1818

>  <ChemCompId>
ACR

>  <PdbId>
4B9Z

>  <ChainId>
A

>  <ResidueNumber>
1818

>  <InsertionCode>


>  <Model>
1

>  <AltIds>


>  <MissingHeavyAtoms>
0

>  <ObservedFormula>
C25 N O18

>  <Name>
ALPHA-ACARBOSE

>  <SystematicName>
(2S,3R,4R,5S,6R)-5-[(2R,3R,4R,5S,6R)-5-[(2R,3R,4S,5S,6R)-3,4-dihydroxy-6-methyl-5-[[(1S,4R,5S,6S)-4,5,6-trihydroxy-3-(hydroxymethyl)cyclohex-2-en-1-yl]amino]oxan-2-yl]oxy-3,4-dihydroxy-6-(hydroxymethyl)oxan-2-yl]oxy-6-(hydroxymethyl)oxane-2,3,4-triol

>  <Synonyms>
1,4-DEOXY-4-((5-HYDROXYMETHYL-2,3,4-TRIHYDROXYCYCLOHEX-5,6-ENYL)AMINO)FRUCTOSE

>  <Type>
SACCHARIDE

>  <Formula>
C25 H43 N O18

>  <MolecularWeight>
645.605

>  <ModifiedDate>
2011-06-04

>  <Parent>


>  <OneLetterCode>


>  <SubcomponentList>


>  <AmbiguousFlag>
N

>  <InChI>
InChI=1S/C25H43NO18/c1-6-11(26-8-2-7(3-27)12(30)15(33)13(8)31)14(32)19(37)24(40-6)43-22-10(5-29)42-25(20(38)17(22)35)44-21-9(4-28)41-23(39)18(36)16(21)34/h2,6,8-39H,3-5H2,1H3/t6-,8+,9-,10-,11-,12-,13+,14+,15+,16-,17-,18-,19-,20-,21-,22-,23+,24-,25-/m1/s1

>  <InChIKey>
XUFXOAAUWZOOIT-WVJZLWNXSA-N

>  <SMILES>
C[C@@H]1[C@H]([C@@H]([C@H]([C@H](O1)O[C@@H]2[C@H](O[C@@H]([C@@H]([C@H]2O)O)O[C@@H]3[C@H](O[C@@H]([C@@H]([C@H]3O)O)O)CO)CO)O)O)N[C@H]4C=C([C@H]([C@@H]([C@H]4O)O)O)CO

$$$$
