4B9Z_ACR_A_1818


 58 61  0  0  0  0  0  0  0  0999 V2000
   36.3403   87.2616   33.0713 C   0  0  0  0  0  0  0  0  0  0  0  0
   36.9892   86.1128   32.3259 C   0  0  0  0  0  0  0  0  0  0  0  0
   35.9511   84.9988   32.4023 C   0  0  0  0  0  0  0  0  0  0  0  0
   35.6486   84.6894   33.8695 C   0  0  0  0  0  0  0  0  0  0  0  0
   35.4604   85.9352   34.7386 C   0  0  0  0  0  0  0  0  0  0  0  0
   37.2820   86.4593   30.9712 O   0  0  0  0  0  0  0  0  0  0  0  0
   36.4255   83.7945   31.7984 O   0  0  0  0  0  0  0  0  0  0  0  0
   36.4468   86.9360   34.4501 O   0  0  0  0  0  0  0  0  0  0  0  0
   36.4649   86.7271   30.5222 H   0  0  0  0  0  0  0  0  0  0  0  0
   37.2165   83.4870   32.2682 H   0  0  0  0  0  0  0  0  0  0  0  0
   35.5579   85.5531   36.2143 C   0  0  0  0  0  0  0  0  0  0  0  0
   34.2517   85.3788   36.7580 O   0  0  0  0  0  0  0  0  0  0  0  0
   33.7545   86.2078   36.6772 H   0  0  0  0  0  0  0  0  0  0  0  0
   34.4692   83.8883   33.9149 O   0  0  0  0  0  0  0  0  0  0  0  0
   34.6898   82.5831   34.4451 C   0  0  0  0  0  0  0  0  0  0  0  0
   34.1108   81.5531   33.4740 C   0  0  0  0  0  0  0  0  0  0  0  0
   32.5808   81.6212   33.4203 C   0  0  0  0  0  0  0  0  0  0  0  0
   32.0179   81.4816   34.8270 C   0  0  0  0  0  0  0  0  0  0  0  0
   32.5959   82.6506   35.6290 C   0  0  0  0  0  0  0  0  0  0  0  0
   32.0209   82.7326   37.0456 C   0  0  0  0  0  0  0  0  0  0  0  0
   34.6268   81.8096   32.1630 O   0  0  0  0  0  0  0  0  0  0  0  0
   32.0772   80.5749   32.5798 O   0  0  0  0  0  0  0  0  0  0  0  0
   34.0296   82.5103   35.7183 O   0  0  0  0  0  0  0  0  0  0  0  0
   34.3575   82.6966   31.8774 H   0  0  0  0  0  0  0  0  0  0  0  0
   32.3449   79.7146   32.9389 H   0  0  0  0  0  0  0  0  0  0  0  0
   30.5475   81.3415   34.8358 N   0  0  0  0  0  0  0  0  0  0  0  0
   30.1990   81.8511   35.6477 H   0  0  0  0  0  0  0  0  0  0  0  0
   29.9819   79.9790   34.8964 C   0  0  0  0  0  0  0  0  0  0  0  0
   28.4617   79.7809   34.7264 C   0  0  0  0  0  0  0  0  0  0  0  0
   27.6588   80.2911   35.9319 C   0  0  0  0  0  0  0  0  0  0  0  0
   28.0259   79.4672   37.1549 C   0  0  0  0  0  0  0  0  0  0  0  0
   29.5245   79.2631   37.2603 C   0  0  0  0  0  0  0  0  0  0  0  0
   30.3519   79.3002   36.1966 C   0  0  0  0  0  0  0  0  0  0  0  0
   27.9783   80.3013   33.4810 O   0  0  0  0  0  0  0  0  0  0  0  0
   26.2325   80.1566   35.7290 O   0  0  0  0  0  0  0  0  0  0  0  0
   27.5485   80.1569   38.3150 O   0  0  0  0  0  0  0  0  0  0  0  0
   28.1027   81.2631   33.4624 H   0  0  0  0  0  0  0  0  0  0  0  0
   26.0096   79.2199   35.6114 H   0  0  0  0  0  0  0  0  0  0  0  0
   27.9690   81.0294   38.3683 H   0  0  0  0  0  0  0  0  0  0  0  0
   30.1365   78.9855   38.6125 C   0  0  0  0  0  0  0  0  0  0  0  0
   30.5077   77.6055   38.6588 O   0  0  0  0  0  0  0  0  0  0  0  0
   29.7215   77.0544   38.5201 H   0  0  0  0  0  0  0  0  0  0  0  0
   36.8933   88.5337   32.7771 O   0  0  0  0  0  0  0  0  0  0  0  0
   34.8667   91.8897   31.7216 C   0  0  0  0  0  0  0  0  0  0  0  0
   35.2546   91.0434   30.5181 C   0  0  0  0  0  0  0  0  0  0  0  0
   35.9141   89.7356   30.9456 C   0  0  0  0  0  0  0  0  0  0  0  0
   35.8474   89.4432   32.4465 C   0  0  0  0  0  0  0  0  0  0  0  0
   35.9814   90.6661   33.3548 C   0  0  0  0  0  0  0  0  0  0  0  0
   34.5750   93.2238   31.2930 O   0  0  0  0  0  0  0  0  0  0  0  0
   34.1071   90.7594   29.7074 O   0  0  0  0  0  0  0  0  0  0  0  0
   35.2606   88.6699   30.2428 O   0  0  0  0  0  0  0  0  0  0  0  0
   35.9849   91.8750   32.6011 O   0  0  0  0  0  0  0  0  0  0  0  0
   35.3495   93.5953   30.8425 H   0  0  0  0  0  0  0  0  0  0  0  0
   33.4653   90.2471   30.2236 H   0  0  0  0  0  0  0  0  0  0  0  0
   34.3246   88.6419   30.4959 H   0  0  0  0  0  0  0  0  0  0  0  0
   37.2112   90.6007   34.2567 C   0  0  0  0  0  0  0  0  0  0  0  0
   36.9373   89.7922   35.4063 O   0  0  0  0  0  0  0  0  0  0  0  0
   36.2018   90.1796   35.9061 H   0  0  0  0  0  0  0  0  0  0  0  0
 28 29  1  0  0  0
 28 33  1  0  0  0
 28 26  1  0  0  0
 29 30  1  0  0  0
 29 34  1  0  0  0
 30 31  1  0  0  0
 30 35  1  0  0  0
 31 32  1  0  0  0
 31 36  1  0  0  0
 32 40  1  0  0  0
 32 33  2  0  0  0
 40 41  1  0  0  0
 15 16  1  0  0  0
 15 23  1  0  0  0
 15 14  1  0  0  0
 16 17  1  0  0  0
 16 21  1  0  0  0
 17 18  1  0  0  0
 17 22  1  0  0  0
 18 19  1  0  0  0
 18 26  1  0  0  0
 19 20  1  0  0  0
 19 23  1  0  0  0
  1  2  1  0  0  0
  1  8  1  0  0  0
  1 43  1  0  0  0
  2  3  1  0  0  0
  2  6  1  0  0  0
  3  4  1  0  0  0
  3  7  1  0  0  0
  4  5  1  0  0  0
  4 14  1  0  0  0
  5 11  1  0  0  0
  5  8  1  0  0  0
 11 12  1  0  0  0
 44 45  1  0  0  0
 44 49  1  0  0  0
 44 52  1  0  0  0
 45 46  1  0  0  0
 45 50  1  0  0  0
 46 47  1  0  0  0
 46 51  1  0  0  0
 47 48  1  0  0  0
 47 43  1  0  0  0
 48 56  1  0  0  0
 48 52  1  0  0  0
 56 57  1  0  0  0
 34 37  1  0  0  0
 35 38  1  0  0  0
 36 39  1  0  0  0
 41 42  1  0  0  0
 26 27  1  0  0  0
 21 24  1  0  0  0
 22 25  1  0  0  0
  6  9  1  0  0  0
  7 10  1  0  0  0
 12 13  1  0  0  0
 49 53  1  0  0  0
 50 54  1  0  0  0
 51 55  1  0  0  0
 57 58  1  0  0  0
M  END
> <minimizedAffinity>
-9.42375

$$$$
4B9Z_ACR_A_1818


 58 61  0  0  0  0  0  0  0  0999 V2000
   36.2635   87.1733   34.2798 C   0  0  0  0  0  0  0  0  0  0  0  0
   37.0847   86.1146   33.5718 C   0  0  0  0  0  0  0  0  0  0  0  0
   36.0885   84.9865   33.3279 C   0  0  0  0  0  0  0  0  0  0  0  0
   35.5095   84.5250   34.6664 C   0  0  0  0  0  0  0  0  0  0  0  0
   35.1118   85.6730   35.5974 C   0  0  0  0  0  0  0  0  0  0  0  0
   37.6304   86.6013   32.3446 O   0  0  0  0  0  0  0  0  0  0  0  0
   36.7123   83.8560   32.7171 O   0  0  0  0  0  0  0  0  0  0  0  0
   36.1033   86.7097   35.6132 O   0  0  0  0  0  0  0  0  0  0  0  0
   36.9112   86.9040   31.7684 H   0  0  0  0  0  0  0  0  0  0  0  0
   37.4031   83.5113   33.3044 H   0  0  0  0  0  0  0  0  0  0  0  0
   34.9252   85.1431   37.0178 C   0  0  0  0  0  0  0  0  0  0  0  0
   33.5357   85.0361   37.3175 O   0  0  0  0  0  0  0  0  0  0  0  0
   33.1217   85.9106   37.2484 H   0  0  0  0  0  0  0  0  0  0  0  0
   34.3712   83.7096   34.3944 O   0  0  0  0  0  0  0  0  0  0  0  0
   34.5285   82.3565   34.8159 C   0  0  0  0  0  0  0  0  0  0  0  0
   34.0430   81.4330   33.6976 C   0  0  0  0  0  0  0  0  0  0  0  0
   32.5267   81.5310   33.4990 C   0  0  0  0  0  0  0  0  0  0  0  0
   31.8244   81.2677   34.8228 C   0  0  0  0  0  0  0  0  0  0  0  0
   32.3267   82.3455   35.7870 C   0  0  0  0  0  0  0  0  0  0  0  0
   31.6129   82.3020   37.1407 C   0  0  0  0  0  0  0  0  0  0  0  0
   34.6898   81.8044   32.4752 O   0  0  0  0  0  0  0  0  0  0  0  0
   32.1029   80.5776   32.5159 O   0  0  0  0  0  0  0  0  0  0  0  0
   33.7432   82.1739   36.0044 O   0  0  0  0  0  0  0  0  0  0  0  0
   34.4566   82.7188   32.2508 H   0  0  0  0  0  0  0  0  0  0  0  0
   32.3274   79.6828   32.8155 H   0  0  0  0  0  0  0  0  0  0  0  0
   30.3596   81.1514   34.6719 N   0  0  0  0  0  0  0  0  0  0  0  0
   29.9334   81.7631   35.3680 H   0  0  0  0  0  0  0  0  0  0  0  0
   29.7508   79.8156   34.8296 C   0  0  0  0  0  0  0  0  0  0  0  0
   28.2191   79.6638   34.7304 C   0  0  0  0  0  0  0  0  0  0  0  0
   27.4842   80.2669   35.9363 C   0  0  0  0  0  0  0  0  0  0  0  0
   27.8728   79.4971   37.1876 C   0  0  0  0  0  0  0  0  0  0  0  0
   29.3666   79.2447   37.2455 C   0  0  0  0  0  0  0  0  0  0  0  0
   30.1505   79.1946   36.1498 C   0  0  0  0  0  0  0  0  0  0  0  0
   27.7030   80.1338   33.4780 O   0  0  0  0  0  0  0  0  0  0  0  0
   26.0469   80.1734   35.7971 O   0  0  0  0  0  0  0  0  0  0  0  0
   27.4671   80.2649   38.3257 O   0  0  0  0  0  0  0  0  0  0  0  0
   27.8593   81.0881   33.4016 H   0  0  0  0  0  0  0  0  0  0  0  0
   25.7876   79.2404   35.7400 H   0  0  0  0  0  0  0  0  0  0  0  0
   27.9189   81.1232   38.3144 H   0  0  0  0  0  0  0  0  0  0  0  0
   30.0237   79.0182   38.5860 C   0  0  0  0  0  0  0  0  0  0  0  0
   30.4655   77.6595   38.6417 O   0  0  0  0  0  0  0  0  0  0  0  0
   29.7053   77.0675   38.5296 H   0  0  0  0  0  0  0  0  0  0  0  0
   36.8230   88.4753   34.2292 O   0  0  0  0  0  0  0  0  0  0  0  0
   37.7273   90.8641   37.3851 C   0  0  0  0  0  0  0  0  0  0  0  0
   36.2710   90.9880   36.9622 C   0  0  0  0  0  0  0  0  0  0  0  0
   35.9275   90.0008   35.8506 C   0  0  0  0  0  0  0  0  0  0  0  0
   37.0137   88.9639   35.5541 C   0  0  0  0  0  0  0  0  0  0  0  0
   38.4504   89.4758   35.6655 C   0  0  0  0  0  0  0  0  0  0  0  0
   38.0972   92.0070   38.1634 O   0  0  0  0  0  0  0  0  0  0  0  0
   35.3990   90.7745   38.0797 O   0  0  0  0  0  0  0  0  0  0  0  0
   34.7308   89.3113   36.2369 O   0  0  0  0  0  0  0  0  0  0  0  0
   38.4905   90.8013   36.1860 O   0  0  0  0  0  0  0  0  0  0  0  0
   37.9541   92.8128   37.6428 H   0  0  0  0  0  0  0  0  0  0  0  0
   35.5236   89.8747   38.4198 H   0  0  0  0  0  0  0  0  0  0  0  0
   34.8935   88.8138   37.0535 H   0  0  0  0  0  0  0  0  0  0  0  0
   39.2081   89.4032   34.3424 C   0  0  0  0  0  0  0  0  0  0  0  0
   39.8118   88.1138   34.1899 O   0  0  0  0  0  0  0  0  0  0  0  0
   40.4349   87.9605   34.9173 H   0  0  0  0  0  0  0  0  0  0  0  0
 28 29  1  0  0  0
 28 33  1  0  0  0
 28 26  1  0  0  0
 29 30  1  0  0  0
 29 34  1  0  0  0
 30 31  1  0  0  0
 30 35  1  0  0  0
 31 32  1  0  0  0
 31 36  1  0  0  0
 32 40  1  0  0  0
 32 33  2  0  0  0
 40 41  1  0  0  0
 15 16  1  0  0  0
 15 23  1  0  0  0
 15 14  1  0  0  0
 16 17  1  0  0  0
 16 21  1  0  0  0
 17 18  1  0  0  0
 17 22  1  0  0  0
 18 19  1  0  0  0
 18 26  1  0  0  0
 19 20  1  0  0  0
 19 23  1  0  0  0
  1  2  1  0  0  0
  1  8  1  0  0  0
  1 43  1  0  0  0
  2  3  1  0  0  0
  2  6  1  0  0  0
  3  4  1  0  0  0
  3  7  1  0  0  0
  4  5  1  0  0  0
  4 14  1  0  0  0
  5 11  1  0  0  0
  5  8  1  0  0  0
 11 12  1  0  0  0
 44 45  1  0  0  0
 44 49  1  0  0  0
 44 52  1  0  0  0
 45 46  1  0  0  0
 45 50  1  0  0  0
 46 47  1  0  0  0
 46 51  1  0  0  0
 47 48  1  0  0  0
 47 43  1  0  0  0
 48 56  1  0  0  0
 48 52  1  0  0  0
 56 57  1  0  0  0
 34 37  1  0  0  0
 35 38  1  0  0  0
 36 39  1  0  0  0
 41 42  1  0  0  0
 26 27  1  0  0  0
 21 24  1  0  0  0
 22 25  1  0  0  0
  6  9  1  0  0  0
  7 10  1  0  0  0
 12 13  1  0  0  0
 49 53  1  0  0  0
 50 54  1  0  0  0
 51 55  1  0  0  0
 57 58  1  0  0  0
M  END
> <minimizedAffinity>
-9.35025

$$$$
4B9Z_ACR_A_1818


 58 61  0  0  0  0  0  0  0  0999 V2000
   33.1251   81.9561   36.4970 C   0  0  0  0  0  0  0  0  0  0  0  0
   34.0080   81.6900   37.6995 C   0  0  0  0  0  0  0  0  0  0  0  0
   34.0029   83.0152   38.4533 C   0  0  0  0  0  0  0  0  0  0  0  0
   34.5275   84.1209   37.5356 C   0  0  0  0  0  0  0  0  0  0  0  0
   33.9504   84.0749   36.1187 C   0  0  0  0  0  0  0  0  0  0  0  0
   33.4955   80.6295   38.5079 O   0  0  0  0  0  0  0  0  0  0  0  0
   34.8513   82.9714   39.6015 O   0  0  0  0  0  0  0  0  0  0  0  0
   33.9109   82.7356   35.6063 O   0  0  0  0  0  0  0  0  0  0  0  0
   32.5965   80.8498   38.7983 H   0  0  0  0  0  0  0  0  0  0  0  0
   35.7643   82.7997   39.3225 H   0  0  0  0  0  0  0  0  0  0  0  0
   34.8007   84.9375   35.1881 C   0  0  0  0  0  0  0  0  0  0  0  0
   36.0601   85.2125   35.7968 O   0  0  0  0  0  0  0  0  0  0  0  0
   35.9193   85.6887   36.6300 H   0  0  0  0  0  0  0  0  0  0  0  0
   34.2197   85.3758   38.1401 O   0  0  0  0  0  0  0  0  0  0  0  0
   35.1921   85.8006   39.0926 C   0  0  0  0  0  0  0  0  0  0  0  0
   34.4711   86.4393   40.2806 C   0  0  0  0  0  0  0  0  0  0  0  0
   33.8035   87.7633   39.8941 C   0  0  0  0  0  0  0  0  0  0  0  0
   34.8374   88.6886   39.2697 C   0  0  0  0  0  0  0  0  0  0  0  0
   35.3669   87.9550   38.0348 C   0  0  0  0  0  0  0  0  0  0  0  0
   36.3315   88.8120   37.2107 C   0  0  0  0  0  0  0  0  0  0  0  0
   33.4625   85.5380   40.7507 O   0  0  0  0  0  0  0  0  0  0  0  0
   33.2295   88.3754   41.0564 O   0  0  0  0  0  0  0  0  0  0  0  0
   36.0513   86.7527   38.4463 O   0  0  0  0  0  0  0  0  0  0  0  0
   32.8191   85.3754   40.0433 H   0  0  0  0  0  0  0  0  0  0  0  0
   33.9267   88.5490   41.7080 H   0  0  0  0  0  0  0  0  0  0  0  0
   34.3154   90.0529   39.0505 N   0  0  0  0  0  0  0  0  0  0  0  0
   34.3653   90.2396   38.0489 H   0  0  0  0  0  0  0  0  0  0  0  0
   34.9891   91.1714   39.7397 C   0  0  0  0  0  0  0  0  0  0  0  0
   34.3933   91.7233   41.0510 C   0  0  0  0  0  0  0  0  0  0  0  0
   33.0860   92.4976   40.8285 C   0  0  0  0  0  0  0  0  0  0  0  0
   33.3771   93.7269   39.9839 C   0  0  0  0  0  0  0  0  0  0  0  0
   34.2840   93.3978   38.8144 C   0  0  0  0  0  0  0  0  0  0  0  0
   35.1430   92.3587   38.8150 C   0  0  0  0  0  0  0  0  0  0  0  0
   34.2723   90.7153   42.0634 O   0  0  0  0  0  0  0  0  0  0  0  0
   32.5072   92.9529   42.0742 O   0  0  0  0  0  0  0  0  0  0  0  0
   32.1309   94.2395   39.5008 O   0  0  0  0  0  0  0  0  0  0  0  0
   33.6397   90.0397   41.7731 H   0  0  0  0  0  0  0  0  0  0  0  0
   33.1256   93.5548   42.5170 H   0  0  0  0  0  0  0  0  0  0  0  0
   31.6920   93.5650   38.9591 H   0  0  0  0  0  0  0  0  0  0  0  0
   34.2506   94.2763   37.5868 C   0  0  0  0  0  0  0  0  0  0  0  0
   34.2402   95.6403   38.0152 O   0  0  0  0  0  0  0  0  0  0  0  0
   33.4605   95.7991   38.5700 H   0  0  0  0  0  0  0  0  0  0  0  0
   32.6153   80.7867   35.8781 O   0  0  0  0  0  0  0  0  0  0  0  0
   28.7399   80.0165   34.9441 C   0  0  0  0  0  0  0  0  0  0  0  0
   29.1314   79.4567   36.3037 C   0  0  0  0  0  0  0  0  0  0  0  0
   30.5551   79.8546   36.6813 C   0  0  0  0  0  0  0  0  0  0  0  0
   31.1993   80.8904   35.7566 C   0  0  0  0  0  0  0  0  0  0  0  0
   30.8418   80.7533   34.2761 C   0  0  0  0  0  0  0  0  0  0  0  0
   27.5590   79.3556   34.4778 O   0  0  0  0  0  0  0  0  0  0  0  0
   28.2228   79.9060   37.3173 O   0  0  0  0  0  0  0  0  0  0  0  0
   30.5180   80.3898   38.0114 O   0  0  0  0  0  0  0  0  0  0  0  0
   29.8368   79.7640   34.0740 O   0  0  0  0  0  0  0  0  0  0  0  0
   27.7218   78.4007   34.4263 H   0  0  0  0  0  0  0  0  0  0  0  0
   28.2636   80.8730   37.3824 H   0  0  0  0  0  0  0  0  0  0  0  0
   29.9606   81.1836   38.0250 H   0  0  0  0  0  0  0  0  0  0  0  0
   32.0567   80.4610   33.3992 C   0  0  0  0  0  0  0  0  0  0  0  0
   31.9403   81.1505   32.1498 O   0  0  0  0  0  0  0  0  0  0  0  0
   31.1411   80.8514   31.6886 H   0  0  0  0  0  0  0  0  0  0  0  0
 28 29  1  0  0  0
 28 33  1  0  0  0
 28 26  1  0  0  0
 29 30  1  0  0  0
 29 34  1  0  0  0
 30 31  1  0  0  0
 30 35  1  0  0  0
 31 32  1  0  0  0
 31 36  1  0  0  0
 32 40  1  0  0  0
 32 33  2  0  0  0
 40 41  1  0  0  0
 15 16  1  0  0  0
 15 23  1  0  0  0
 15 14  1  0  0  0
 16 17  1  0  0  0
 16 21  1  0  0  0
 17 18  1  0  0  0
 17 22  1  0  0  0
 18 19  1  0  0  0
 18 26  1  0  0  0
 19 20  1  0  0  0
 19 23  1  0  0  0
  1  2  1  0  0  0
  1  8  1  0  0  0
  1 43  1  0  0  0
  2  3  1  0  0  0
  2  6  1  0  0  0
  3  4  1  0  0  0
  3  7  1  0  0  0
  4  5  1  0  0  0
  4 14  1  0  0  0
  5 11  1  0  0  0
  5  8  1  0  0  0
 11 12  1  0  0  0
 44 45  1  0  0  0
 44 49  1  0  0  0
 44 52  1  0  0  0
 45 46  1  0  0  0
 45 50  1  0  0  0
 46 47  1  0  0  0
 46 51  1  0  0  0
 47 48  1  0  0  0
 47 43  1  0  0  0
 48 56  1  0  0  0
 48 52  1  0  0  0
 56 57  1  0  0  0
 34 37  1  0  0  0
 35 38  1  0  0  0
 36 39  1  0  0  0
 41 42  1  0  0  0
 26 27  1  0  0  0
 21 24  1  0  0  0
 22 25  1  0  0  0
  6  9  1  0  0  0
  7 10  1  0  0  0
 12 13  1  0  0  0
 49 53  1  0  0  0
 50 54  1  0  0  0
 51 55  1  0  0  0
 57 58  1  0  0  0
M  END
> <minimizedAffinity>
-8.82373

$$$$
4B9Z_ACR_A_1818


 58 61  0  0  0  0  0  0  0  0999 V2000
   35.2413   91.0306   39.0270 C   0  0  0  0  0  0  0  0  0  0  0  0
   36.6418   90.6568   38.5851 C   0  0  0  0  0  0  0  0  0  0  0  0
   36.4298   89.4242   37.7132 C   0  0  0  0  0  0  0  0  0  0  0  0
   35.7316   88.3383   38.5338 C   0  0  0  0  0  0  0  0  0  0  0  0
   34.5644   88.8553   39.3782 C   0  0  0  0  0  0  0  0  0  0  0  0
   37.2645   91.7125   37.8512 O   0  0  0  0  0  0  0  0  0  0  0  0
   37.6699   88.8846   37.2536 O   0  0  0  0  0  0  0  0  0  0  0  0
   34.8899   90.0900   40.0321 O   0  0  0  0  0  0  0  0  0  0  0  0
   36.7207   91.9340   37.0791 H   0  0  0  0  0  0  0  0  0  0  0  0
   38.2062   88.6129   38.0148 H   0  0  0  0  0  0  0  0  0  0  0  0
   34.1938   87.8166   40.4352 C   0  0  0  0  0  0  0  0  0  0  0  0
   35.3223   86.9955   40.7257 O   0  0  0  0  0  0  0  0  0  0  0  0
   35.6064   86.5390   39.9183 H   0  0  0  0  0  0  0  0  0  0  0  0
   35.2660   87.3371   37.6308 O   0  0  0  0  0  0  0  0  0  0  0  0
   36.1606   86.2350   37.4950 C   0  0  0  0  0  0  0  0  0  0  0  0
   36.1039   85.7299   36.0524 C   0  0  0  0  0  0  0  0  0  0  0  0
   34.7518   85.0849   35.7299 C   0  0  0  0  0  0  0  0  0  0  0  0
   34.4571   83.9912   36.7457 C   0  0  0  0  0  0  0  0  0  0  0  0
   34.4283   84.6825   38.1114 C   0  0  0  0  0  0  0  0  0  0  0  0
   34.0119   83.7361   39.2405 C   0  0  0  0  0  0  0  0  0  0  0  0
   36.3072   86.8354   35.1652 O   0  0  0  0  0  0  0  0  0  0  0  0
   34.7789   84.5361   34.4059 O   0  0  0  0  0  0  0  0  0  0  0  0
   35.7373   85.2122   38.4099 O   0  0  0  0  0  0  0  0  0  0  0  0
   35.6030   87.4894   35.2968 H   0  0  0  0  0  0  0  0  0  0  0  0
   35.4744   83.8623   34.3494 H   0  0  0  0  0  0  0  0  0  0  0  0
   33.2668   83.1933   36.3875 N   0  0  0  0  0  0  0  0  0  0  0  0
   32.5811   83.3204   37.1319 H   0  0  0  0  0  0  0  0  0  0  0  0
   33.4398   81.7399   36.1933 C   0  0  0  0  0  0  0  0  0  0  0  0
   33.4094   81.1567   34.7657 C   0  0  0  0  0  0  0  0  0  0  0  0
   32.0065   81.1886   34.1420 C   0  0  0  0  0  0  0  0  0  0  0  0
   31.0854   80.2903   34.9508 C   0  0  0  0  0  0  0  0  0  0  0  0
   31.2690   80.5006   36.4410 C   0  0  0  0  0  0  0  0  0  0  0  0
   32.4111   80.9649   36.9865 C   0  0  0  0  0  0  0  0  0  0  0  0
   34.4050   81.7406   33.9151 O   0  0  0  0  0  0  0  0  0  0  0  0
   32.0074   80.6977   32.7808 O   0  0  0  0  0  0  0  0  0  0  0  0
   29.7352   80.5911   34.5822 O   0  0  0  0  0  0  0  0  0  0  0  0
   34.2162   82.6848   33.7973 H   0  0  0  0  0  0  0  0  0  0  0  0
   32.3055   79.7747   32.7702 H   0  0  0  0  0  0  0  0  0  0  0  0
   29.5452   81.5212   34.7814 H   0  0  0  0  0  0  0  0  0  0  0  0
   30.1342   80.1618   37.3777 C   0  0  0  0  0  0  0  0  0  0  0  0
   29.5720   78.9141   36.9636 O   0  0  0  0  0  0  0  0  0  0  0  0
   29.2506   78.9911   36.0516 H   0  0  0  0  0  0  0  0  0  0  0  0
   35.1097   92.3690   39.4765 O   0  0  0  0  0  0  0  0  0  0  0  0
   32.3750   95.1012   38.2354 C   0  0  0  0  0  0  0  0  0  0  0  0
   33.6286   95.1021   37.3732 C   0  0  0  0  0  0  0  0  0  0  0  0
   34.5913   93.9935   37.7882 C   0  0  0  0  0  0  0  0  0  0  0  0
   34.0232   92.9945   38.7992 C   0  0  0  0  0  0  0  0  0  0  0  0
   33.0924   93.5937   39.8542 C   0  0  0  0  0  0  0  0  0  0  0  0
   31.6697   96.3334   38.0537 O   0  0  0  0  0  0  0  0  0  0  0  0
   33.2911   94.9508   35.9883 O   0  0  0  0  0  0  0  0  0  0  0  0
   34.9684   93.2797   36.6029 O   0  0  0  0  0  0  0  0  0  0  0  0
   32.8129   94.9639   39.5821 O   0  0  0  0  0  0  0  0  0  0  0  0
   32.2499   97.0753   38.2854 H   0  0  0  0  0  0  0  0  0  0  0  0
   32.8511   94.0968   35.8542 H   0  0  0  0  0  0  0  0  0  0  0  0
   34.1818   92.8741   36.2057 H   0  0  0  0  0  0  0  0  0  0  0  0
   33.6283   93.4344   41.2745 C   0  0  0  0  0  0  0  0  0  0  0  0
   33.3076   92.1335   41.7796 O   0  0  0  0  0  0  0  0  0  0  0  0
   32.3443   92.0204   41.7931 H   0  0  0  0  0  0  0  0  0  0  0  0
 28 29  1  0  0  0
 28 33  1  0  0  0
 28 26  1  0  0  0
 29 30  1  0  0  0
 29 34  1  0  0  0
 30 31  1  0  0  0
 30 35  1  0  0  0
 31 32  1  0  0  0
 31 36  1  0  0  0
 32 40  1  0  0  0
 32 33  2  0  0  0
 40 41  1  0  0  0
 15 16  1  0  0  0
 15 23  1  0  0  0
 15 14  1  0  0  0
 16 17  1  0  0  0
 16 21  1  0  0  0
 17 18  1  0  0  0
 17 22  1  0  0  0
 18 19  1  0  0  0
 18 26  1  0  0  0
 19 20  1  0  0  0
 19 23  1  0  0  0
  1  2  1  0  0  0
  1  8  1  0  0  0
  1 43  1  0  0  0
  2  3  1  0  0  0
  2  6  1  0  0  0
  3  4  1  0  0  0
  3  7  1  0  0  0
  4  5  1  0  0  0
  4 14  1  0  0  0
  5 11  1  0  0  0
  5  8  1  0  0  0
 11 12  1  0  0  0
 44 45  1  0  0  0
 44 49  1  0  0  0
 44 52  1  0  0  0
 45 46  1  0  0  0
 45 50  1  0  0  0
 46 47  1  0  0  0
 46 51  1  0  0  0
 47 48  1  0  0  0
 47 43  1  0  0  0
 48 56  1  0  0  0
 48 52  1  0  0  0
 56 57  1  0  0  0
 34 37  1  0  0  0
 35 38  1  0  0  0
 36 39  1  0  0  0
 41 42  1  0  0  0
 26 27  1  0  0  0
 21 24  1  0  0  0
 22 25  1  0  0  0
  6  9  1  0  0  0
  7 10  1  0  0  0
 12 13  1  0  0  0
 49 53  1  0  0  0
 50 54  1  0  0  0
 51 55  1  0  0  0
 57 58  1  0  0  0
M  END
> <minimizedAffinity>
-8.36063

$$$$
4B9Z_ACR_A_1818


 58 61  0  0  0  0  0  0  0  0999 V2000
   35.5423   91.0848   36.7825 C   0  0  0  0  0  0  0  0  0  0  0  0
   36.7468   90.6084   35.9960 C   0  0  0  0  0  0  0  0  0  0  0  0
   36.3530   89.2068   35.5436 C   0  0  0  0  0  0  0  0  0  0  0  0
   36.0390   88.3489   36.7705 C   0  0  0  0  0  0  0  0  0  0  0  0
   35.1748   89.0576   37.8163 C   0  0  0  0  0  0  0  0  0  0  0  0
   37.0199   91.4579   34.8803 O   0  0  0  0  0  0  0  0  0  0  0  0
   37.4124   88.5661   34.8312 O   0  0  0  0  0  0  0  0  0  0  0  0
   35.6048   90.4093   38.0308 O   0  0  0  0  0  0  0  0  0  0  0  0
   36.2406   91.4951   34.3039 H   0  0  0  0  0  0  0  0  0  0  0  0
   38.1848   88.4776   35.4113 H   0  0  0  0  0  0  0  0  0  0  0  0
   35.2430   88.2991   39.1404 C   0  0  0  0  0  0  0  0  0  0  0  0
   34.1570   87.3800   39.2300 O   0  0  0  0  0  0  0  0  0  0  0  0
   33.3183   87.8653   39.1854 H   0  0  0  0  0  0  0  0  0  0  0  0
   35.3791   87.1665   36.3221 O   0  0  0  0  0  0  0  0  0  0  0  0
   36.1989   86.0013   36.3829 C   0  0  0  0  0  0  0  0  0  0  0  0
   36.0532   85.2281   35.0713 C   0  0  0  0  0  0  0  0  0  0  0  0
   34.6525   84.6252   34.9207 C   0  0  0  0  0  0  0  0  0  0  0  0
   34.3334   83.7744   36.1412 C   0  0  0  0  0  0  0  0  0  0  0  0
   34.4020   84.7205   37.3428 C   0  0  0  0  0  0  0  0  0  0  0  0
   33.9750   84.0443   38.6484 C   0  0  0  0  0  0  0  0  0  0  0  0
   36.2871   86.1218   33.9771 O   0  0  0  0  0  0  0  0  0  0  0  0
   34.5926   83.8268   33.7317 O   0  0  0  0  0  0  0  0  0  0  0  0
   35.7518   85.2088   37.4939 O   0  0  0  0  0  0  0  0  0  0  0  0
   35.6298   86.8349   33.9959 H   0  0  0  0  0  0  0  0  0  0  0  0
   35.2430   83.1096   33.7907 H   0  0  0  0  0  0  0  0  0  0  0  0
   33.0833   83.0039   35.9815 N   0  0  0  0  0  0  0  0  0  0  0  0
   32.4484   83.2986   36.7235 H   0  0  0  0  0  0  0  0  0  0  0  0
   33.1661   81.5307   36.0338 C   0  0  0  0  0  0  0  0  0  0  0  0
   33.1911   80.7255   34.7185 C   0  0  0  0  0  0  0  0  0  0  0  0
   31.8393   80.7377   33.9900 C   0  0  0  0  0  0  0  0  0  0  0  0
   30.8046   80.0390   34.8563 C   0  0  0  0  0  0  0  0  0  0  0  0
   30.9014   80.4781   36.3042 C   0  0  0  0  0  0  0  0  0  0  0  0
   32.0339   80.9571   36.8569 C   0  0  0  0  0  0  0  0  0  0  0  0
   34.2806   81.1035   33.8666 O   0  0  0  0  0  0  0  0  0  0  0  0
   31.8976   80.0324   32.7279 O   0  0  0  0  0  0  0  0  0  0  0  0
   29.5070   80.3545   34.3405 O   0  0  0  0  0  0  0  0  0  0  0  0
   34.1673   82.0252   33.5865 H   0  0  0  0  0  0  0  0  0  0  0  0
   32.1298   79.1041   32.8867 H   0  0  0  0  0  0  0  0  0  0  0  0
   29.3701   81.3142   34.3746 H   0  0  0  0  0  0  0  0  0  0  0  0
   29.6848   80.3638   37.1912 C   0  0  0  0  0  0  0  0  0  0  0  0
   29.9575   79.3855   38.1976 O   0  0  0  0  0  0  0  0  0  0  0  0
   30.1541   78.5342   37.7762 H   0  0  0  0  0  0  0  0  0  0  0  0
   35.4675   92.4922   36.9383 O   0  0  0  0  0  0  0  0  0  0  0  0
   35.9983   94.5982   40.3686 C   0  0  0  0  0  0  0  0  0  0  0  0
   34.5506   94.1769   40.1646 C   0  0  0  0  0  0  0  0  0  0  0  0
   34.3960   93.2932   38.9304 C   0  0  0  0  0  0  0  0  0  0  0  0
   35.7130   92.8347   38.2996 C   0  0  0  0  0  0  0  0  0  0  0  0
   36.8430   93.8646   38.3301 C   0  0  0  0  0  0  0  0  0  0  0  0
   36.0536   95.6780   41.3066 O   0  0  0  0  0  0  0  0  0  0  0  0
   34.0580   93.4817   41.3173 O   0  0  0  0  0  0  0  0  0  0  0  0
   33.6468   92.1333   39.3181 O   0  0  0  0  0  0  0  0  0  0  0  0
   36.4808   95.0104   39.0952 O   0  0  0  0  0  0  0  0  0  0  0  0
   35.5194   96.4184   40.9792 H   0  0  0  0  0  0  0  0  0  0  0  0
   34.5760   92.6728   41.4528 H   0  0  0  0  0  0  0  0  0  0  0  0
   34.1401   91.6403   39.9922 H   0  0  0  0  0  0  0  0  0  0  0  0
   37.3001   94.2823   36.9348 C   0  0  0  0  0  0  0  0  0  0  0  0
   38.4312   93.5021   36.5323 O   0  0  0  0  0  0  0  0  0  0  0  0
   39.1600   93.6433   37.1567 H   0  0  0  0  0  0  0  0  0  0  0  0
 28 29  1  0  0  0
 28 33  1  0  0  0
 28 26  1  0  0  0
 29 30  1  0  0  0
 29 34  1  0  0  0
 30 31  1  0  0  0
 30 35  1  0  0  0
 31 32  1  0  0  0
 31 36  1  0  0  0
 32 40  1  0  0  0
 32 33  2  0  0  0
 40 41  1  0  0  0
 15 16  1  0  0  0
 15 23  1  0  0  0
 15 14  1  0  0  0
 16 17  1  0  0  0
 16 21  1  0  0  0
 17 18  1  0  0  0
 17 22  1  0  0  0
 18 19  1  0  0  0
 18 26  1  0  0  0
 19 20  1  0  0  0
 19 23  1  0  0  0
  1  2  1  0  0  0
  1  8  1  0  0  0
  1 43  1  0  0  0
  2  3  1  0  0  0
  2  6  1  0  0  0
  3  4  1  0  0  0
  3  7  1  0  0  0
  4  5  1  0  0  0
  4 14  1  0  0  0
  5 11  1  0  0  0
  5  8  1  0  0  0
 11 12  1  0  0  0
 44 45  1  0  0  0
 44 49  1  0  0  0
 44 52  1  0  0  0
 45 46  1  0  0  0
 45 50  1  0  0  0
 46 47  1  0  0  0
 46 51  1  0  0  0
 47 48  1  0  0  0
 47 43  1  0  0  0
 48 56  1  0  0  0
 48 52  1  0  0  0
 56 57  1  0  0  0
 34 37  1  0  0  0
 35 38  1  0  0  0
 36 39  1  0  0  0
 41 42  1  0  0  0
 26 27  1  0  0  0
 21 24  1  0  0  0
 22 25  1  0  0  0
  6  9  1  0  0  0
  7 10  1  0  0  0
 12 13  1  0  0  0
 49 53  1  0  0  0
 50 54  1  0  0  0
 51 55  1  0  0  0
 57 58  1  0  0  0
M  END
> <minimizedAffinity>
-7.84778

$$$$
4B9Z_ACR_A_1818


 58 61  0  0  0  0  0  0  0  0999 V2000
   36.7084   85.3509   28.5458 C   0  0  0  0  0  0  0  0  0  0  0  0
   36.0999   84.0292   28.1227 C   0  0  0  0  0  0  0  0  0  0  0  0
   35.5617   83.4449   29.4240 C   0  0  0  0  0  0  0  0  0  0  0  0
   36.7080   83.3031   30.4268 C   0  0  0  0  0  0  0  0  0  0  0  0
   37.6290   84.5239   30.4906 C   0  0  0  0  0  0  0  0  0  0  0  0
   35.0572   84.2099   27.1629 O   0  0  0  0  0  0  0  0  0  0  0  0
   35.0010   82.1462   29.2260 O   0  0  0  0  0  0  0  0  0  0  0  0
   37.9362   85.0244   29.1817 O   0  0  0  0  0  0  0  0  0  0  0  0
   34.3720   84.7870   27.5347 H   0  0  0  0  0  0  0  0  0  0  0  0
   35.6877   81.5439   28.8995 H   0  0  0  0  0  0  0  0  0  0  0  0
   38.9307   84.1507   31.1973 C   0  0  0  0  0  0  0  0  0  0  0  0
   38.8929   84.5955   32.5512 O   0  0  0  0  0  0  0  0  0  0  0  0
   38.7859   85.5593   32.5719 H   0  0  0  0  0  0  0  0  0  0  0  0
   36.1391   83.0618   31.7124 O   0  0  0  0  0  0  0  0  0  0  0  0
   35.1338   84.0061   32.0745 C   0  0  0  0  0  0  0  0  0  0  0  0
   35.2007   84.2415   33.5843 C   0  0  0  0  0  0  0  0  0  0  0  0
   34.7701   82.9995   34.3718 C   0  0  0  0  0  0  0  0  0  0  0  0
   33.3896   82.5589   33.9079 C   0  0  0  0  0  0  0  0  0  0  0  0
   33.5272   82.2473   32.4154 C   0  0  0  0  0  0  0  0  0  0  0  0
   32.2460   81.6604   31.8170 C   0  0  0  0  0  0  0  0  0  0  0  0
   36.5478   84.5676   33.9441 O   0  0  0  0  0  0  0  0  0  0  0  0
   34.7495   83.2964   35.7741 O   0  0  0  0  0  0  0  0  0  0  0  0
   33.8611   83.4558   31.7006 O   0  0  0  0  0  0  0  0  0  0  0  0
   37.1317   83.8275   33.7155 H   0  0  0  0  0  0  0  0  0  0  0  0
   34.1197   84.0145   35.9432 H   0  0  0  0  0  0  0  0  0  0  0  0
   32.8244   81.4881   34.7539 N   0  0  0  0  0  0  0  0  0  0  0  0
   32.2477   80.8993   34.1529 H   0  0  0  0  0  0  0  0  0  0  0  0
   31.9941   81.8832   35.9090 C   0  0  0  0  0  0  0  0  0  0  0  0
   32.2251   81.2068   37.2757 C   0  0  0  0  0  0  0  0  0  0  0  0
   31.7623   79.7428   37.2985 C   0  0  0  0  0  0  0  0  0  0  0  0
   30.2578   79.6966   37.0891 C   0  0  0  0  0  0  0  0  0  0  0  0
   29.8219   80.6233   35.9711 C   0  0  0  0  0  0  0  0  0  0  0  0
   30.5236   81.7123   35.5981 C   0  0  0  0  0  0  0  0  0  0  0  0
   33.5703   81.3677   37.7451 O   0  0  0  0  0  0  0  0  0  0  0  0
   32.0446   79.1049   38.5662 O   0  0  0  0  0  0  0  0  0  0  0  0
   29.8946   78.3491   36.7702 O   0  0  0  0  0  0  0  0  0  0  0  0
   34.1796   80.9140   37.1420 H   0  0  0  0  0  0  0  0  0  0  0  0
   31.5690   79.5674   39.2739 H   0  0  0  0  0  0  0  0  0  0  0  0
   30.3481   78.0757   35.9575 H   0  0  0  0  0  0  0  0  0  0  0  0
   28.5318   80.3388   35.2398 C   0  0  0  0  0  0  0  0  0  0  0  0
   28.8441   79.5997   34.0564 O   0  0  0  0  0  0  0  0  0  0  0  0
   29.4447   80.1195   33.4996 H   0  0  0  0  0  0  0  0  0  0  0  0
   36.8836   86.2775   27.4868 O   0  0  0  0  0  0  0  0  0  0  0  0
   35.8447   90.2024   27.4883 C   0  0  0  0  0  0  0  0  0  0  0  0
   34.7669   89.3171   26.8802 C   0  0  0  0  0  0  0  0  0  0  0  0
   35.1303   87.8395   26.9928 C   0  0  0  0  0  0  0  0  0  0  0  0
   36.3507   87.5429   27.8678 C   0  0  0  0  0  0  0  0  0  0  0  0
   37.4775   88.5734   27.7845 C   0  0  0  0  0  0  0  0  0  0  0  0
   35.6436   91.5559   27.0686 O   0  0  0  0  0  0  0  0  0  0  0  0
   33.5027   89.5499   27.5143 O   0  0  0  0  0  0  0  0  0  0  0  0
   33.9966   87.1543   27.5424 O   0  0  0  0  0  0  0  0  0  0  0  0
   37.0898   89.7056   27.0117 O   0  0  0  0  0  0  0  0  0  0  0  0
   35.6635   91.6005   26.0999 H   0  0  0  0  0  0  0  0  0  0  0  0
   33.5655   89.3207   28.4547 H   0  0  0  0  0  0  0  0  0  0  0  0
   33.8117   87.4964   28.4311 H   0  0  0  0  0  0  0  0  0  0  0  0
   38.7785   87.9845   27.2454 C   0  0  0  0  0  0  0  0  0  0  0  0
   39.5378   87.4065   28.3129 O   0  0  0  0  0  0  0  0  0  0  0  0
   39.7503   88.0913   28.9662 H   0  0  0  0  0  0  0  0  0  0  0  0
 28 29  1  0  0  0
 28 33  1  0  0  0
 28 26  1  0  0  0
 29 30  1  0  0  0
 29 34  1  0  0  0
 30 31  1  0  0  0
 30 35  1  0  0  0
 31 32  1  0  0  0
 31 36  1  0  0  0
 32 40  1  0  0  0
 32 33  2  0  0  0
 40 41  1  0  0  0
 15 16  1  0  0  0
 15 23  1  0  0  0
 15 14  1  0  0  0
 16 17  1  0  0  0
 16 21  1  0  0  0
 17 18  1  0  0  0
 17 22  1  0  0  0
 18 19  1  0  0  0
 18 26  1  0  0  0
 19 20  1  0  0  0
 19 23  1  0  0  0
  1  2  1  0  0  0
  1  8  1  0  0  0
  1 43  1  0  0  0
  2  3  1  0  0  0
  2  6  1  0  0  0
  3  4  1  0  0  0
  3  7  1  0  0  0
  4  5  1  0  0  0
  4 14  1  0  0  0
  5 11  1  0  0  0
  5  8  1  0  0  0
 11 12  1  0  0  0
 44 45  1  0  0  0
 44 49  1  0  0  0
 44 52  1  0  0  0
 45 46  1  0  0  0
 45 50  1  0  0  0
 46 47  1  0  0  0
 46 51  1  0  0  0
 47 48  1  0  0  0
 47 43  1  0  0  0
 48 56  1  0  0  0
 48 52  1  0  0  0
 56 57  1  0  0  0
 34 37  1  0  0  0
 35 38  1  0  0  0
 36 39  1  0  0  0
 41 42  1  0  0  0
 26 27  1  0  0  0
 21 24  1  0  0  0
 22 25  1  0  0  0
  6  9  1  0  0  0
  7 10  1  0  0  0
 12 13  1  0  0  0
 49 53  1  0  0  0
 50 54  1  0  0  0
 51 55  1  0  0  0
 57 58  1  0  0  0
M  END
> <minimizedAffinity>
-7.66817

$$$$
4B9Z_ACR_A_1818


 58 61  0  0  0  0  0  0  0  0999 V2000
   37.3957   83.6284   30.9056 C   0  0  0  0  0  0  0  0  0  0  0  0
   37.1307   85.1188   30.8374 C   0  0  0  0  0  0  0  0  0  0  0  0
   36.4194   85.4209   32.1517 C   0  0  0  0  0  0  0  0  0  0  0  0
   35.1501   84.5726   32.2463 C   0  0  0  0  0  0  0  0  0  0  0  0
   35.3495   83.1124   31.8331 C   0  0  0  0  0  0  0  0  0  0  0  0
   38.3421   85.8666   30.7175 O   0  0  0  0  0  0  0  0  0  0  0  0
   36.0271   86.7918   32.2352 O   0  0  0  0  0  0  0  0  0  0  0  0
   36.1471   83.0022   30.6458 O   0  0  0  0  0  0  0  0  0  0  0  0
   38.9214   85.6665   31.4693 H   0  0  0  0  0  0  0  0  0  0  0  0
   35.4081   86.9953   31.5167 H   0  0  0  0  0  0  0  0  0  0  0  0
   33.9921   82.4585   31.5814 C   0  0  0  0  0  0  0  0  0  0  0  0
   33.7334   81.4765   32.5819 O   0  0  0  0  0  0  0  0  0  0  0  0
   34.4237   80.7956   32.5529 H   0  0  0  0  0  0  0  0  0  0  0  0
   34.6817   84.6322   33.5923 O   0  0  0  0  0  0  0  0  0  0  0  0
   35.6175   84.1262   34.5418 C   0  0  0  0  0  0  0  0  0  0  0  0
   34.8479   83.5042   35.7080 C   0  0  0  0  0  0  0  0  0  0  0  0
   34.1043   84.5647   36.5270 C   0  0  0  0  0  0  0  0  0  0  0  0
   35.0856   85.6367   36.9776 C   0  0  0  0  0  0  0  0  0  0  0  0
   35.6703   86.2368   35.6964 C   0  0  0  0  0  0  0  0  0  0  0  0
   36.5884   87.4306   35.9724 C   0  0  0  0  0  0  0  0  0  0  0  0
   33.8918   82.5729   35.1892 O   0  0  0  0  0  0  0  0  0  0  0  0
   33.4833   83.9526   37.6647 O   0  0  0  0  0  0  0  0  0  0  0  0
   36.4229   85.2266   34.9920 O   0  0  0  0  0  0  0  0  0  0  0  0
   33.2661   83.0390   34.6130 H   0  0  0  0  0  0  0  0  0  0  0  0
   34.1626   83.5398   38.2207 H   0  0  0  0  0  0  0  0  0  0  0  0
   34.4834   86.5877   37.9340 N   0  0  0  0  0  0  0  0  0  0  0  0
   34.3930   87.4836   37.4548 H   0  0  0  0  0  0  0  0  0  0  0  0
   35.1952   86.8383   39.2030 C   0  0  0  0  0  0  0  0  0  0  0  0
   35.0455   85.8375   40.3669 C   0  0  0  0  0  0  0  0  0  0  0  0
   33.6510   85.8787   41.0087 C   0  0  0  0  0  0  0  0  0  0  0  0
   33.4369   87.2451   41.6384 C   0  0  0  0  0  0  0  0  0  0  0  0
   33.8929   88.3606   40.7184 C   0  0  0  0  0  0  0  0  0  0  0  0
   34.8316   88.1949   39.7651 C   0  0  0  0  0  0  0  0  0  0  0  0
   35.4459   84.5101   40.0016 O   0  0  0  0  0  0  0  0  0  0  0  0
   33.5068   84.8901   42.0554 O   0  0  0  0  0  0  0  0  0  0  0  0
   32.0410   87.3906   41.9205 O   0  0  0  0  0  0  0  0  0  0  0  0
   34.8540   84.1722   39.3114 H   0  0  0  0  0  0  0  0  0  0  0  0
   34.1516   85.0669   42.7582 H   0  0  0  0  0  0  0  0  0  0  0  0
   31.5358   87.3264   41.0950 H   0  0  0  0  0  0  0  0  0  0  0  0
   33.2905   89.7364   40.8745 C   0  0  0  0  0  0  0  0  0  0  0  0
   32.8189   90.1641   39.5944 O   0  0  0  0  0  0  0  0  0  0  0  0
   33.5588   90.1845   38.9675 H   0  0  0  0  0  0  0  0  0  0  0  0
   38.4141   83.1767   30.0284 O   0  0  0  0  0  0  0  0  0  0  0  0
   38.0054   80.5190   26.9864 C   0  0  0  0  0  0  0  0  0  0  0  0
   38.4715   79.8584   28.2754 C   0  0  0  0  0  0  0  0  0  0  0  0
   38.5093   80.8548   29.4303 C   0  0  0  0  0  0  0  0  0  0  0  0
   37.8744   82.2141   29.1270 C   0  0  0  0  0  0  0  0  0  0  0  0
   38.0881   82.7296   27.7033 C   0  0  0  0  0  0  0  0  0  0  0  0
   38.3046   79.6653   25.8772 O   0  0  0  0  0  0  0  0  0  0  0  0
   37.6184   78.7587   28.6183 O   0  0  0  0  0  0  0  0  0  0  0  0
   37.8154   80.2630   30.5371 O   0  0  0  0  0  0  0  0  0  0  0  0
   38.7158   81.7474   26.8841 O   0  0  0  0  0  0  0  0  0  0  0  0
   39.2583   79.4898   25.8523 H   0  0  0  0  0  0  0  0  0  0  0  0
   36.7176   79.0839   28.7719 H   0  0  0  0  0  0  0  0  0  0  0  0
   36.8897   80.1074   30.2925 H   0  0  0  0  0  0  0  0  0  0  0  0
   38.8749   84.0369   27.6598 C   0  0  0  0  0  0  0  0  0  0  0  0
   37.9772   85.1521   27.6336 O   0  0  0  0  0  0  0  0  0  0  0  0
   37.4161   85.0970   26.8442 H   0  0  0  0  0  0  0  0  0  0  0  0
 28 29  1  0  0  0
 28 33  1  0  0  0
 28 26  1  0  0  0
 29 30  1  0  0  0
 29 34  1  0  0  0
 30 31  1  0  0  0
 30 35  1  0  0  0
 31 32  1  0  0  0
 31 36  1  0  0  0
 32 40  1  0  0  0
 32 33  2  0  0  0
 40 41  1  0  0  0
 15 16  1  0  0  0
 15 23  1  0  0  0
 15 14  1  0  0  0
 16 17  1  0  0  0
 16 21  1  0  0  0
 17 18  1  0  0  0
 17 22  1  0  0  0
 18 19  1  0  0  0
 18 26  1  0  0  0
 19 20  1  0  0  0
 19 23  1  0  0  0
  1  2  1  0  0  0
  1  8  1  0  0  0
  1 43  1  0  0  0
  2  3  1  0  0  0
  2  6  1  0  0  0
  3  4  1  0  0  0
  3  7  1  0  0  0
  4  5  1  0  0  0
  4 14  1  0  0  0
  5 11  1  0  0  0
  5  8  1  0  0  0
 11 12  1  0  0  0
 44 45  1  0  0  0
 44 49  1  0  0  0
 44 52  1  0  0  0
 45 46  1  0  0  0
 45 50  1  0  0  0
 46 47  1  0  0  0
 46 51  1  0  0  0
 47 48  1  0  0  0
 47 43  1  0  0  0
 48 56  1  0  0  0
 48 52  1  0  0  0
 56 57  1  0  0  0
 34 37  1  0  0  0
 35 38  1  0  0  0
 36 39  1  0  0  0
 41 42  1  0  0  0
 26 27  1  0  0  0
 21 24  1  0  0  0
 22 25  1  0  0  0
  6  9  1  0  0  0
  7 10  1  0  0  0
 12 13  1  0  0  0
 49 53  1  0  0  0
 50 54  1  0  0  0
 51 55  1  0  0  0
 57 58  1  0  0  0
M  END
> <minimizedAffinity>
-7.60071

$$$$
4B9Z_ACR_A_1818


 58 61  0  0  0  0  0  0  0  0999 V2000
   35.5828   89.7049   28.7921 C   0  0  0  0  0  0  0  0  0  0  0  0
   36.0543   88.6775   27.7828 C   0  0  0  0  0  0  0  0  0  0  0  0
   35.5585   87.3539   28.3544 C   0  0  0  0  0  0  0  0  0  0  0  0
   36.1433   87.1569   29.7540 C   0  0  0  0  0  0  0  0  0  0  0  0
   36.0830   88.4093   30.6318 C   0  0  0  0  0  0  0  0  0  0  0  0
   35.5082   88.9212   26.4853 O   0  0  0  0  0  0  0  0  0  0  0  0
   35.9750   86.2460   27.5549 O   0  0  0  0  0  0  0  0  0  0  0  0
   36.4607   89.5856   29.9027 O   0  0  0  0  0  0  0  0  0  0  0  0
   34.5396   88.9165   26.5361 H   0  0  0  0  0  0  0  0  0  0  0  0
   36.9441   86.2084   27.5343 H   0  0  0  0  0  0  0  0  0  0  0  0
   37.0184   88.2452   31.8282 C   0  0  0  0  0  0  0  0  0  0  0  0
   38.2955   87.7906   31.3871 O   0  0  0  0  0  0  0  0  0  0  0  0
   38.1978   86.9347   30.9413 H   0  0  0  0  0  0  0  0  0  0  0  0
   35.4292   86.0939   30.3824 O   0  0  0  0  0  0  0  0  0  0  0  0
   36.2320   84.9432   30.6366 C   0  0  0  0  0  0  0  0  0  0  0  0
   35.4528   83.6966   30.2147 C   0  0  0  0  0  0  0  0  0  0  0  0
   34.2436   83.4488   31.1228 C   0  0  0  0  0  0  0  0  0  0  0  0
   34.7023   83.3906   32.5724 C   0  0  0  0  0  0  0  0  0  0  0  0
   35.3448   84.7490   32.8650 C   0  0  0  0  0  0  0  0  0  0  0  0
   35.7470   84.9046   34.3341 C   0  0  0  0  0  0  0  0  0  0  0  0
   34.9884   83.8718   28.8715 O   0  0  0  0  0  0  0  0  0  0  0  0
   33.6047   82.2191   30.7563 O   0  0  0  0  0  0  0  0  0  0  0  0
   36.5199   84.9122   32.0432 O   0  0  0  0  0  0  0  0  0  0  0  0
   34.3975   84.6400   28.8314 H   0  0  0  0  0  0  0  0  0  0  0  0
   34.2325   81.4864   30.8555 H   0  0  0  0  0  0  0  0  0  0  0  0
   33.6263   82.9611   33.4886 N   0  0  0  0  0  0  0  0  0  0  0  0
   33.6568   83.5761   34.3018 H   0  0  0  0  0  0  0  0  0  0  0  0
   33.6547   81.5717   33.9875 C   0  0  0  0  0  0  0  0  0  0  0  0
   32.3815   80.7062   33.8937 C   0  0  0  0  0  0  0  0  0  0  0  0
   31.2857   81.1556   34.8711 C   0  0  0  0  0  0  0  0  0  0  0  0
   31.7838   80.9649   36.2940 C   0  0  0  0  0  0  0  0  0  0  0  0
   33.2083   81.4578   36.4568 C   0  0  0  0  0  0  0  0  0  0  0  0
   34.0867   81.5291   35.4366 C   0  0  0  0  0  0  0  0  0  0  0  0
   31.9032   80.5811   32.5479 O   0  0  0  0  0  0  0  0  0  0  0  0
   30.0762   80.3748   34.7254 O   0  0  0  0  0  0  0  0  0  0  0  0
   30.9166   81.6930   37.1699 O   0  0  0  0  0  0  0  0  0  0  0  0
   31.6311   81.4521   32.2192 H   0  0  0  0  0  0  0  0  0  0  0  0
   30.2676   79.4434   34.9173 H   0  0  0  0  0  0  0  0  0  0  0  0
   30.9385   82.6344   36.9375 H   0  0  0  0  0  0  0  0  0  0  0  0
   33.6906   81.8769   37.8250 C   0  0  0  0  0  0  0  0  0  0  0  0
   34.3188   83.1555   37.7036 O   0  0  0  0  0  0  0  0  0  0  0  0
   35.0623   83.0929   37.0839 H   0  0  0  0  0  0  0  0  0  0  0  0
   35.5286   91.0307   28.2922 O   0  0  0  0  0  0  0  0  0  0  0  0
   32.3612   93.5660   28.4452 C   0  0  0  0  0  0  0  0  0  0  0  0
   32.3044   92.6386   27.2403 C   0  0  0  0  0  0  0  0  0  0  0  0
   33.4423   91.6224   27.2650 C   0  0  0  0  0  0  0  0  0  0  0  0
   34.2476   91.5914   28.5663 C   0  0  0  0  0  0  0  0  0  0  0  0
   34.4609   92.9511   29.2327 C   0  0  0  0  0  0  0  0  0  0  0  0
   31.5109   94.6950   28.2190 O   0  0  0  0  0  0  0  0  0  0  0  0
   31.0479   91.9507   27.1891 O   0  0  0  0  0  0  0  0  0  0  0  0
   32.8702   90.3249   27.0506 O   0  0  0  0  0  0  0  0  0  0  0  0
   33.7179   93.9737   28.5756 O   0  0  0  0  0  0  0  0  0  0  0  0
   31.7923   95.1555   27.4130 H   0  0  0  0  0  0  0  0  0  0  0  0
   30.9488   91.3991   27.9808 H   0  0  0  0  0  0  0  0  0  0  0  0
   32.2556   90.1192   27.7722 H   0  0  0  0  0  0  0  0  0  0  0  0
   35.9340   93.3410   29.3222 C   0  0  0  0  0  0  0  0  0  0  0  0
   36.5773   92.6015   30.3659 O   0  0  0  0  0  0  0  0  0  0  0  0
   36.1485   92.7985   31.2134 H   0  0  0  0  0  0  0  0  0  0  0  0
 28 29  1  0  0  0
 28 33  1  0  0  0
 28 26  1  0  0  0
 29 30  1  0  0  0
 29 34  1  0  0  0
 30 31  1  0  0  0
 30 35  1  0  0  0
 31 32  1  0  0  0
 31 36  1  0  0  0
 32 40  1  0  0  0
 32 33  2  0  0  0
 40 41  1  0  0  0
 15 16  1  0  0  0
 15 23  1  0  0  0
 15 14  1  0  0  0
 16 17  1  0  0  0
 16 21  1  0  0  0
 17 18  1  0  0  0
 17 22  1  0  0  0
 18 19  1  0  0  0
 18 26  1  0  0  0
 19 20  1  0  0  0
 19 23  1  0  0  0
  1  2  1  0  0  0
  1  8  1  0  0  0
  1 43  1  0  0  0
  2  3  1  0  0  0
  2  6  1  0  0  0
  3  4  1  0  0  0
  3  7  1  0  0  0
  4  5  1  0  0  0
  4 14  1  0  0  0
  5 11  1  0  0  0
  5  8  1  0  0  0
 11 12  1  0  0  0
 44 45  1  0  0  0
 44 49  1  0  0  0
 44 52  1  0  0  0
 45 46  1  0  0  0
 45 50  1  0  0  0
 46 47  1  0  0  0
 46 51  1  0  0  0
 47 48  1  0  0  0
 47 43  1  0  0  0
 48 56  1  0  0  0
 48 52  1  0  0  0
 56 57  1  0  0  0
 34 37  1  0  0  0
 35 38  1  0  0  0
 36 39  1  0  0  0
 41 42  1  0  0  0
 26 27  1  0  0  0
 21 24  1  0  0  0
 22 25  1  0  0  0
  6  9  1  0  0  0
  7 10  1  0  0  0
 12 13  1  0  0  0
 49 53  1  0  0  0
 50 54  1  0  0  0
 51 55  1  0  0  0
 57 58  1  0  0  0
M  END
> <minimizedAffinity>
-7.51524

$$$$
4B9Z_ACR_A_1818


 58 61  0  0  0  0  0  0  0  0999 V2000
   35.5296   88.5676   40.2937 C   0  0  0  0  0  0  0  0  0  0  0  0
   36.9538   88.1276   40.0206 C   0  0  0  0  0  0  0  0  0  0  0  0
   36.8030   87.0598   38.9429 C   0  0  0  0  0  0  0  0  0  0  0  0
   35.9006   85.9398   39.4637 C   0  0  0  0  0  0  0  0  0  0  0  0
   34.6485   86.4401   40.1881 C   0  0  0  0  0  0  0  0  0  0  0  0
   37.7652   89.2128   39.5680 O   0  0  0  0  0  0  0  0  0  0  0  0
   38.0604   86.4747   38.6016 O   0  0  0  0  0  0  0  0  0  0  0  0
   34.9478   87.5305   41.0710 O   0  0  0  0  0  0  0  0  0  0  0  0
   37.3761   89.5948   38.7657 H   0  0  0  0  0  0  0  0  0  0  0  0
   38.4405   86.0456   39.3842 H   0  0  0  0  0  0  0  0  0  0  0  0
   34.0320   85.3009   40.9975 C   0  0  0  0  0  0  0  0  0  0  0  0
   32.8836   84.7923   40.3232 O   0  0  0  0  0  0  0  0  0  0  0  0
   32.2282   85.5002   40.2220 H   0  0  0  0  0  0  0  0  0  0  0  0
   35.5222   85.1288   38.3529 O   0  0  0  0  0  0  0  0  0  0  0  0
   34.5552   85.7438   37.5045 C   0  0  0  0  0  0  0  0  0  0  0  0
   33.7544   84.6497   36.7968 C   0  0  0  0  0  0  0  0  0  0  0  0
   34.6150   83.8767   35.7918 C   0  0  0  0  0  0  0  0  0  0  0  0
   35.2587   84.8538   34.8192 C   0  0  0  0  0  0  0  0  0  0  0  0
   36.1144   85.7940   35.6722 C   0  0  0  0  0  0  0  0  0  0  0  0
   36.9404   86.7667   34.8263 C   0  0  0  0  0  0  0  0  0  0  0  0
   33.2578   83.7307   37.7764 O   0  0  0  0  0  0  0  0  0  0  0  0
   33.8026   82.9337   35.0807 O   0  0  0  0  0  0  0  0  0  0  0  0
   35.2608   86.5552   36.5525 O   0  0  0  0  0  0  0  0  0  0  0  0
   34.0031   83.3220   38.2436 H   0  0  0  0  0  0  0  0  0  0  0  0
   33.1023   83.4055   34.6033 H   0  0  0  0  0  0  0  0  0  0  0  0
   35.9448   84.1710   33.7034 N   0  0  0  0  0  0  0  0  0  0  0  0
   36.8792   84.5733   33.6302 H   0  0  0  0  0  0  0  0  0  0  0  0
   35.3292   84.2436   32.3634 C   0  0  0  0  0  0  0  0  0  0  0  0
   35.3305   82.9938   31.4596 C   0  0  0  0  0  0  0  0  0  0  0  0
   36.7282   82.6506   30.9242 C   0  0  0  0  0  0  0  0  0  0  0  0
   37.2057   83.7813   30.0281 C   0  0  0  0  0  0  0  0  0  0  0  0
   36.9315   85.1375   30.6478 C   0  0  0  0  0  0  0  0  0  0  0  0
   35.9497   85.3548   31.5457 C   0  0  0  0  0  0  0  0  0  0  0  0
   34.6851   81.8720   32.0767 O   0  0  0  0  0  0  0  0  0  0  0  0
   36.7227   81.4401   30.1314 O   0  0  0  0  0  0  0  0  0  0  0  0
   38.6128   83.6196   29.8201 O   0  0  0  0  0  0  0  0  0  0  0  0
   35.1846   81.6045   32.8640 H   0  0  0  0  0  0  0  0  0  0  0  0
   36.1424   81.5593   29.3634 H   0  0  0  0  0  0  0  0  0  0  0  0
   39.0725   83.6600   30.6733 H   0  0  0  0  0  0  0  0  0  0  0  0
   37.7779   86.3189   30.2379 C   0  0  0  0  0  0  0  0  0  0  0  0
   37.6600   86.4817   28.8223 O   0  0  0  0  0  0  0  0  0  0  0  0
   37.9624   85.6744   28.3777 H   0  0  0  0  0  0  0  0  0  0  0  0
   35.4212   89.8337   40.9229 O   0  0  0  0  0  0  0  0  0  0  0  0
   33.0346   92.9165   39.7897 C   0  0  0  0  0  0  0  0  0  0  0  0
   34.4532   93.0548   39.2571 C   0  0  0  0  0  0  0  0  0  0  0  0
   35.2990   91.8321   39.6003 C   0  0  0  0  0  0  0  0  0  0  0  0
   34.5174   90.6549   40.1886 C   0  0  0  0  0  0  0  0  0  0  0  0
   33.3660   91.0378   41.1193 C   0  0  0  0  0  0  0  0  0  0  0  0
   32.3850   94.1915   39.7542 O   0  0  0  0  0  0  0  0  0  0  0  0
   34.4445   93.2488   37.8369 O   0  0  0  0  0  0  0  0  0  0  0  0
   35.9421   91.3968   38.3946 O   0  0  0  0  0  0  0  0  0  0  0  0
   33.1510   92.4461   41.1273 O   0  0  0  0  0  0  0  0  0  0  0  0
   32.8931   94.8280   40.2811 H   0  0  0  0  0  0  0  0  0  0  0  0
   34.0508   92.4735   37.4070 H   0  0  0  0  0  0  0  0  0  0  0  0
   35.2699   91.1361   37.7456 H   0  0  0  0  0  0  0  0  0  0  0  0
   33.5609   90.5237   42.5433 C   0  0  0  0  0  0  0  0  0  0  0  0
   33.1442   89.1569   42.6355 O   0  0  0  0  0  0  0  0  0  0  0  0
   32.2049   89.0889   42.4031 H   0  0  0  0  0  0  0  0  0  0  0  0
 28 29  1  0  0  0
 28 33  1  0  0  0
 28 26  1  0  0  0
 29 30  1  0  0  0
 29 34  1  0  0  0
 30 31  1  0  0  0
 30 35  1  0  0  0
 31 32  1  0  0  0
 31 36  1  0  0  0
 32 40  1  0  0  0
 32 33  2  0  0  0
 40 41  1  0  0  0
 15 16  1  0  0  0
 15 23  1  0  0  0
 15 14  1  0  0  0
 16 17  1  0  0  0
 16 21  1  0  0  0
 17 18  1  0  0  0
 17 22  1  0  0  0
 18 19  1  0  0  0
 18 26  1  0  0  0
 19 20  1  0  0  0
 19 23  1  0  0  0
  1  2  1  0  0  0
  1  8  1  0  0  0
  1 43  1  0  0  0
  2  3  1  0  0  0
  2  6  1  0  0  0
  3  4  1  0  0  0
  3  7  1  0  0  0
  4  5  1  0  0  0
  4 14  1  0  0  0
  5 11  1  0  0  0
  5  8  1  0  0  0
 11 12  1  0  0  0
 44 45  1  0  0  0
 44 49  1  0  0  0
 44 52  1  0  0  0
 45 46  1  0  0  0
 45 50  1  0  0  0
 46 47  1  0  0  0
 46 51  1  0  0  0
 47 48  1  0  0  0
 47 43  1  0  0  0
 48 56  1  0  0  0
 48 52  1  0  0  0
 56 57  1  0  0  0
 34 37  1  0  0  0
 35 38  1  0  0  0
 36 39  1  0  0  0
 41 42  1  0  0  0
 26 27  1  0  0  0
 21 24  1  0  0  0
 22 25  1  0  0  0
  6  9  1  0  0  0
  7 10  1  0  0  0
 12 13  1  0  0  0
 49 53  1  0  0  0
 50 54  1  0  0  0
 51 55  1  0  0  0
 57 58  1  0  0  0
M  END
> <minimizedAffinity>
-7.14929

$$$$
4B9Z_ACR_A_1818


 58 61  0  0  0  0  0  0  0  0999 V2000
   35.9971   84.8384   30.1471 C   0  0  0  0  0  0  0  0  0  0  0  0
   36.8482   85.3685   31.2833 C   0  0  0  0  0  0  0  0  0  0  0  0
   36.2245   86.7227   31.6019 C   0  0  0  0  0  0  0  0  0  0  0  0
   36.2528   87.5998   30.3490 C   0  0  0  0  0  0  0  0  0  0  0  0
   35.8237   86.8708   29.0734 C   0  0  0  0  0  0  0  0  0  0  0  0
   36.8160   84.5009   32.4179 O   0  0  0  0  0  0  0  0  0  0  0  0
   36.9494   87.4093   32.6233 O   0  0  0  0  0  0  0  0  0  0  0  0
   36.4020   85.5604   28.9924 O   0  0  0  0  0  0  0  0  0  0  0  0
   35.8990   84.3896   32.7138 H   0  0  0  0  0  0  0  0  0  0  0  0
   37.8572   87.5714   32.3222 H   0  0  0  0  0  0  0  0  0  0  0  0
   36.2517   87.6786   27.8497 C   0  0  0  0  0  0  0  0  0  0  0  0
   35.1571   88.4595   27.3763 O   0  0  0  0  0  0  0  0  0  0  0  0
   34.4248   87.8734   27.1291 H   0  0  0  0  0  0  0  0  0  0  0  0
   35.3959   88.7173   30.5761 O   0  0  0  0  0  0  0  0  0  0  0  0
   36.0783   89.9692   30.5556 C   0  0  0  0  0  0  0  0  0  0  0  0
   35.7209   90.7454   31.8241 C   0  0  0  0  0  0  0  0  0  0  0  0
   34.2522   91.1826   31.8269 C   0  0  0  0  0  0  0  0  0  0  0  0
   33.9546   91.9661   30.5570 C   0  0  0  0  0  0  0  0  0  0  0  0
   34.2452   91.0115   29.3961 C   0  0  0  0  0  0  0  0  0  0  0  0
   33.8690   91.6074   28.0369 C   0  0  0  0  0  0  0  0  0  0  0  0
   35.9512   89.9068   32.9618 O   0  0  0  0  0  0  0  0  0  0  0  0
   33.9884   91.9915   32.9806 O   0  0  0  0  0  0  0  0  0  0  0  0
   35.6504   90.6820   29.3846 O   0  0  0  0  0  0  0  0  0  0  0  0
   35.3851   89.1212   32.9043 H   0  0  0  0  0  0  0  0  0  0  0  0
   34.5547   92.7787   32.9599 H   0  0  0  0  0  0  0  0  0  0  0  0
   32.6147   92.5876   30.5776 N   0  0  0  0  0  0  0  0  0  0  0  0
   32.1408   92.3155   29.7163 H   0  0  0  0  0  0  0  0  0  0  0  0
   32.5348   94.0585   30.6770 C   0  0  0  0  0  0  0  0  0  0  0  0
   31.7919   94.6988   31.8674 C   0  0  0  0  0  0  0  0  0  0  0  0
   30.2703   94.5072   31.7892 C   0  0  0  0  0  0  0  0  0  0  0  0
   29.7429   95.2338   30.5631 C   0  0  0  0  0  0  0  0  0  0  0  0
   30.6130   94.9803   29.3477 C   0  0  0  0  0  0  0  0  0  0  0  0
   31.9174   94.6493   29.4288 C   0  0  0  0  0  0  0  0  0  0  0  0
   32.3347   94.2954   33.1317 O   0  0  0  0  0  0  0  0  0  0  0  0
   29.5948   95.0573   32.9446 O   0  0  0  0  0  0  0  0  0  0  0  0
   28.4120   94.7712   30.3106 O   0  0  0  0  0  0  0  0  0  0  0  0
   32.2067   93.3410   33.2488 H   0  0  0  0  0  0  0  0  0  0  0  0
   29.7619   96.0115   32.9930 H   0  0  0  0  0  0  0  0  0  0  0  0
   28.4278   93.8156   30.1448 H   0  0  0  0  0  0  0  0  0  0  0  0
   30.0113   95.1183   27.9697 C   0  0  0  0  0  0  0  0  0  0  0  0
   29.2320   93.9491   27.7047 O   0  0  0  0  0  0  0  0  0  0  0  0
   29.8001   93.1643   27.7522 H   0  0  0  0  0  0  0  0  0  0  0  0
   36.0840   83.4356   29.9592 O   0  0  0  0  0  0  0  0  0  0  0  0
   37.1862   81.5041   26.5624 C   0  0  0  0  0  0  0  0  0  0  0  0
   35.7415   81.9794   26.5169 C   0  0  0  0  0  0  0  0  0  0  0  0
   35.3850   82.7984   27.7539 C   0  0  0  0  0  0  0  0  0  0  0  0
   36.5726   83.1594   28.6495 C   0  0  0  0  0  0  0  0  0  0  0  0
   37.6514   82.0820   28.7662 C   0  0  0  0  0  0  0  0  0  0  0  0
   37.3820   80.4776   25.5843 O   0  0  0  0  0  0  0  0  0  0  0  0
   35.5020   82.7605   25.3391 O   0  0  0  0  0  0  0  0  0  0  0  0
   34.7639   84.0115   27.3073 O   0  0  0  0  0  0  0  0  0  0  0  0
   37.4025   80.9990   27.8748 O   0  0  0  0  0  0  0  0  0  0  0  0
   36.7699   79.7452   25.7572 H   0  0  0  0  0  0  0  0  0  0  0  0
   36.0639   83.5510   25.3555 H   0  0  0  0  0  0  0  0  0  0  0  0
   35.3934   84.5185   26.7711 H   0  0  0  0  0  0  0  0  0  0  0  0
   37.8194   81.5657   30.1929 C   0  0  0  0  0  0  0  0  0  0  0  0
   38.6753   82.4403   30.9362 O   0  0  0  0  0  0  0  0  0  0  0  0
   39.5466   82.4780   30.5115 H   0  0  0  0  0  0  0  0  0  0  0  0
 28 29  1  0  0  0
 28 33  1  0  0  0
 28 26  1  0  0  0
 29 30  1  0  0  0
 29 34  1  0  0  0
 30 31  1  0  0  0
 30 35  1  0  0  0
 31 32  1  0  0  0
 31 36  1  0  0  0
 32 40  1  0  0  0
 32 33  2  0  0  0
 40 41  1  0  0  0
 15 16  1  0  0  0
 15 23  1  0  0  0
 15 14  1  0  0  0
 16 17  1  0  0  0
 16 21  1  0  0  0
 17 18  1  0  0  0
 17 22  1  0  0  0
 18 19  1  0  0  0
 18 26  1  0  0  0
 19 20  1  0  0  0
 19 23  1  0  0  0
  1  2  1  0  0  0
  1  8  1  0  0  0
  1 43  1  0  0  0
  2  3  1  0  0  0
  2  6  1  0  0  0
  3  4  1  0  0  0
  3  7  1  0  0  0
  4  5  1  0  0  0
  4 14  1  0  0  0
  5 11  1  0  0  0
  5  8  1  0  0  0
 11 12  1  0  0  0
 44 45  1  0  0  0
 44 49  1  0  0  0
 44 52  1  0  0  0
 45 46  1  0  0  0
 45 50  1  0  0  0
 46 47  1  0  0  0
 46 51  1  0  0  0
 47 48  1  0  0  0
 47 43  1  0  0  0
 48 56  1  0  0  0
 48 52  1  0  0  0
 56 57  1  0  0  0
 34 37  1  0  0  0
 35 38  1  0  0  0
 36 39  1  0  0  0
 41 42  1  0  0  0
 26 27  1  0  0  0
 21 24  1  0  0  0
 22 25  1  0  0  0
  6  9  1  0  0  0
  7 10  1  0  0  0
 12 13  1  0  0  0
 49 53  1  0  0  0
 50 54  1  0  0  0
 51 55  1  0  0  0
 57 58  1  0  0  0
M  END
> <minimizedAffinity>
-6.96462

$$$$
