4CIG_X0P_A_1217


 39 42  0  0  0  0  0  0  0  0999 V2000
   32.3425  -32.1767    0.9198 C   0  0  0  0  0  0  0  0  0  0  0  0
   33.4845  -32.9515    0.8891 C   0  0  0  0  0  0  0  0  0  0  0  0
   32.3890  -30.8550    0.5296 C   0  0  0  0  0  0  0  0  0  0  0  0
   34.6784  -32.4062    0.4694 C   0  0  0  0  0  0  0  0  0  0  0  0
   33.5902  -30.3228    0.1116 C   0  0  0  0  0  0  0  0  0  0  0  0
   34.7409  -31.0857    0.0791 C   0  0  0  0  0  0  0  0  0  0  0  0
   31.1005  -34.0410    1.7342 C   0  0  0  0  0  0  0  0  0  0  0  0
   32.2375  -34.8173    1.7029 C   0  0  0  0  0  0  0  0  0  0  0  0
   31.1500  -32.7222    1.3406 C   0  0  0  0  0  0  0  0  0  0  0  0
   33.4299  -34.2729    1.2784 C   0  0  0  0  0  0  0  0  0  0  0  0
   33.6165  -28.9129   -0.3020 C   0  0  0  0  0  0  0  0  0  0  0  0
   33.0804  -28.6957   -1.5431 N   0  0  0  0  0  0  0  0  0  0  0  0
   34.0837  -28.0602    0.4416 O   0  0  0  0  0  0  0  0  0  0  0  0
   32.7817  -29.4651   -2.0797 H   0  0  0  0  0  0  0  0  0  0  0  0
   32.9434  -27.3660   -2.0811 C   0  0  0  0  0  0  0  0  0  0  0  0
   33.9002  -27.6190   -4.3778 C   0  0  0  0  0  0  0  0  0  0  0  0
   35.0267  -26.2314   -2.8018 C   0  0  0  0  0  0  0  0  0  0  0  0
   34.8592  -27.3439   -5.3292 C   0  0  0  0  0  0  0  0  0  0  0  0
   35.9890  -25.9499   -3.7464 C   0  0  0  0  0  0  0  0  0  0  0  0
   33.9768  -27.0663   -3.1159 C   0  0  0  0  0  0  0  0  0  0  0  0
   35.9069  -26.5073   -5.0042 C   0  0  0  0  0  0  0  0  0  0  0  0
   37.6621  -25.0618   -5.4197 C   0  0  0  0  0  0  0  0  0  0  0  0
   36.9123  -26.1717   -5.9011 O   0  0  0  0  0  0  0  0  0  0  0  0
   36.0435  -30.5154   -0.3736 C   0  0  0  0  0  0  0  0  0  0  0  0
   36.5713  -29.7345   -2.5934 C   0  0  0  0  0  0  0  0  0  0  0  0
   36.4875  -30.9468   -1.7292 N   0  0  0  0  0  0  0  0  0  0  0  0
   37.6884  -31.8535   -1.7867 C   0  0  0  0  0  0  0  0  0  0  0  0
   36.3515  -33.7321   -2.6567 C   0  0  0  0  0  0  0  0  0  0  0  0
   35.8885  -35.0294   -2.6260 C   0  0  0  0  0  0  0  0  0  0  0  0
   37.6669  -34.1209   -0.6871 C   0  0  0  0  0  0  0  0  0  0  0  0
   37.2388  -33.2750   -1.7000 C   0  0  0  0  0  0  0  0  0  0  0  0
   36.3068  -35.8778   -1.6253 C   0  0  0  0  0  0  0  0  0  0  0  0
   37.1906  -35.4215   -0.6663 C   0  0  0  0  0  0  0  0  0  0  0  0
   38.6358  -33.6609    0.3514 C   0  0  0  0  0  0  0  0  0  0  0  0
   38.1385  -33.4149    1.4879 O   0  0  0  0  0  0  0  0  0  0  0  0
   39.8715  -33.5933    0.0837 O   0  0  0  0  0  0  0  0  0  0  0  0
   37.2134  -33.4838    1.6194 H   0  0  0  0  0  0  0  0  0  0  0  0
   37.6492  -37.6077   -0.0953 C   0  0  0  0  0  0  0  0  0  0  0  0
   37.6140  -36.2577    0.3543 O   0  0  0  0  0  0  0  0  0  0  0  0
  1  2  1  0  0  0
  1  3  2  0  0  0
  1  9  1  0  0  0
  2  4  2  0  0  0
  2 10  1  0  0  0
  3  5  1  0  0  0
  4  6  1  0  0  0
 28 29  1  0  0  0
 28 31  2  0  0  0
 16 18  1  0  0  0
 16 20  2  0  0  0
 17 19  2  0  0  0
 17 20  1  0  0  0
 29 32  2  0  0  0
 18 21  2  0  0  0
 19 21  1  0  0  0
  5  6  2  0  0  0
  5 11  1  0  0  0
 30 31  1  0  0  0
 30 33  2  0  0  0
 30 34  1  0  0  0
 20 15  1  0  0  0
  6 24  1  0  0  0
 31 27  1  0  0  0
 32 33  1  0  0  0
 33 39  1  0  0  0
 21 23  1  0  0  0
 11 12  1  0  0  0
 11 13  2  0  0  0
 34 35  1  0  0  0
 34 36  2  0  0  0
  7  8  1  0  0  0
  7  9  2  0  0  0
 38 39  1  0  0  0
 22 23  1  0  0  0
 15 12  1  0  0  0
 24 26  1  0  0  0
 27 26  1  0  0  0
 25 26  1  0  0  0
  8 10  2  0  0  0
 12 14  1  0  0  0
 35 37  1  0  0  0
M  END
> <minimizedAffinity>
-7.58633

$$$$
4CIG_X0P_A_1217


 39 42  0  0  0  0  0  0  0  0999 V2000
   32.3795  -32.2426    0.9276 C   0  0  0  0  0  0  0  0  0  0  0  0
   33.4649  -33.0721    0.7296 C   0  0  0  0  0  0  0  0  0  0  0  0
   32.4491  -30.9113    0.5751 C   0  0  0  0  0  0  0  0  0  0  0  0
   34.6253  -32.5723    0.1797 C   0  0  0  0  0  0  0  0  0  0  0  0
   33.6163  -30.4251    0.0255 C   0  0  0  0  0  0  0  0  0  0  0  0
   34.7108  -31.2431   -0.1749 C   0  0  0  0  0  0  0  0  0  0  0  0
   31.1485  -34.0711    1.8346 C   0  0  0  0  0  0  0  0  0  0  0  0
   32.2289  -34.9018    1.6367 C   0  0  0  0  0  0  0  0  0  0  0  0
   31.2206  -32.7428    1.4783 C   0  0  0  0  0  0  0  0  0  0  0  0
   33.3872  -34.4026    1.0821 C   0  0  0  0  0  0  0  0  0  0  0  0
   33.6679  -29.0039   -0.3449 C   0  0  0  0  0  0  0  0  0  0  0  0
   33.0407  -28.7230   -1.5292 N   0  0  0  0  0  0  0  0  0  0  0  0
   34.2305  -28.1964    0.3831 O   0  0  0  0  0  0  0  0  0  0  0  0
   32.6665  -29.4611   -2.0625 H   0  0  0  0  0  0  0  0  0  0  0  0
   32.9160  -27.3712   -2.0123 C   0  0  0  0  0  0  0  0  0  0  0  0
   35.0278  -26.2895   -2.8023 C   0  0  0  0  0  0  0  0  0  0  0  0
   33.7165  -27.5360   -4.3530 C   0  0  0  0  0  0  0  0  0  0  0  0
   35.9454  -25.9976   -3.7888 C   0  0  0  0  0  0  0  0  0  0  0  0
   34.6287  -27.2505   -5.3449 C   0  0  0  0  0  0  0  0  0  0  0  0
   33.9149  -27.0575   -3.0764 C   0  0  0  0  0  0  0  0  0  0  0  0
   35.7371  -26.4811   -5.0640 C   0  0  0  0  0  0  0  0  0  0  0  0
   36.2277  -26.9869   -7.2654 C   0  0  0  0  0  0  0  0  0  0  0  0
   36.6116  -26.2412   -6.1155 O   0  0  0  0  0  0  0  0  0  0  0  0
   35.9762  -30.7225   -0.7705 C   0  0  0  0  0  0  0  0  0  0  0  0
   35.9295  -30.1202   -3.1051 C   0  0  0  0  0  0  0  0  0  0  0  0
   36.2761  -31.2088   -2.1469 N   0  0  0  0  0  0  0  0  0  0  0  0
   37.6283  -31.8365   -2.3587 C   0  0  0  0  0  0  0  0  0  0  0  0
   38.5410  -33.1704   -0.4983 C   0  0  0  0  0  0  0  0  0  0  0  0
   38.6645  -34.3270    0.2403 C   0  0  0  0  0  0  0  0  0  0  0  0
   36.9804  -34.2413   -1.9742 C   0  0  0  0  0  0  0  0  0  0  0  0
   37.7027  -33.1186   -1.5965 C   0  0  0  0  0  0  0  0  0  0  0  0
   37.9521  -35.4472   -0.1254 C   0  0  0  0  0  0  0  0  0  0  0  0
   37.1169  -35.3984   -1.2249 C   0  0  0  0  0  0  0  0  0  0  0  0
   36.0560  -34.2120   -3.1462 C   0  0  0  0  0  0  0  0  0  0  0  0
   34.8426  -33.9797   -2.8759 O   0  0  0  0  0  0  0  0  0  0  0  0
   36.5104  -34.3565   -4.3191 O   0  0  0  0  0  0  0  0  0  0  0  0
   34.5714  -33.8832   -1.9842 H   0  0  0  0  0  0  0  0  0  0  0  0
   35.5237  -36.9317   -0.5717 C   0  0  0  0  0  0  0  0  0  0  0  0
   36.4006  -36.5189   -1.6140 O   0  0  0  0  0  0  0  0  0  0  0  0
  1  2  1  0  0  0
  1  3  2  0  0  0
  1  9  1  0  0  0
  2  4  2  0  0  0
  2 10  1  0  0  0
  3  5  1  0  0  0
  4  6  1  0  0  0
 28 29  1  0  0  0
 28 31  2  0  0  0
 16 18  1  0  0  0
 16 20  2  0  0  0
 17 19  2  0  0  0
 17 20  1  0  0  0
 29 32  2  0  0  0
 18 21  2  0  0  0
 19 21  1  0  0  0
  5  6  2  0  0  0
  5 11  1  0  0  0
 30 31  1  0  0  0
 30 33  2  0  0  0
 30 34  1  0  0  0
 20 15  1  0  0  0
  6 24  1  0  0  0
 31 27  1  0  0  0
 32 33  1  0  0  0
 33 39  1  0  0  0
 21 23  1  0  0  0
 11 12  1  0  0  0
 11 13  2  0  0  0
 34 35  1  0  0  0
 34 36  2  0  0  0
  7  8  1  0  0  0
  7  9  2  0  0  0
 38 39  1  0  0  0
 22 23  1  0  0  0
 15 12  1  0  0  0
 24 26  1  0  0  0
 27 26  1  0  0  0
 25 26  1  0  0  0
  8 10  2  0  0  0
 12 14  1  0  0  0
 35 37  1  0  0  0
M  END
> <minimizedAffinity>
-7.56840

$$$$
4CIG_X0P_A_1217


 39 42  0  0  0  0  0  0  0  0999 V2000
   34.6664  -27.9310   -3.8427 C   0  0  0  0  0  0  0  0  0  0  0  0
   35.9416  -28.4577   -3.8864 C   0  0  0  0  0  0  0  0  0  0  0  0
   33.9075  -28.0427   -2.6968 C   0  0  0  0  0  0  0  0  0  0  0  0
   36.4620  -29.1001   -2.7840 C   0  0  0  0  0  0  0  0  0  0  0  0
   34.4412  -28.6875   -1.6013 C   0  0  0  0  0  0  0  0  0  0  0  0
   35.7142  -29.2220   -1.6325 C   0  0  0  0  0  0  0  0  0  0  0  0
   34.9005  -27.1797   -6.0926 C   0  0  0  0  0  0  0  0  0  0  0  0
   36.1737  -27.7024   -6.1390 C   0  0  0  0  0  0  0  0  0  0  0  0
   34.1467  -27.2902   -4.9454 C   0  0  0  0  0  0  0  0  0  0  0  0
   36.6954  -28.3401   -5.0347 C   0  0  0  0  0  0  0  0  0  0  0  0
   33.6160  -28.7931   -0.3899 C   0  0  0  0  0  0  0  0  0  0  0  0
   32.5519  -29.6443   -0.5241 N   0  0  0  0  0  0  0  0  0  0  0  0
   33.9091  -28.1568    0.6139 O   0  0  0  0  0  0  0  0  0  0  0  0
   32.3785  -30.0641   -1.3976 H   0  0  0  0  0  0  0  0  0  0  0  0
   31.6801  -29.9393    0.5846 C   0  0  0  0  0  0  0  0  0  0  0  0
   33.1195  -31.7371    1.5594 C   0  0  0  0  0  0  0  0  0  0  0  0
   30.8197  -32.1975    1.1387 C   0  0  0  0  0  0  0  0  0  0  0  0
   33.3040  -33.0161    2.0393 C   0  0  0  0  0  0  0  0  0  0  0  0
   30.9944  -33.4772    1.6176 C   0  0  0  0  0  0  0  0  0  0  0  0
   31.8828  -31.3218    1.1102 C   0  0  0  0  0  0  0  0  0  0  0  0
   32.2332  -33.8855    2.0629 C   0  0  0  0  0  0  0  0  0  0  0  0
   31.1330  -35.5624    3.2120 C   0  0  0  0  0  0  0  0  0  0  0  0
   32.3274  -35.1881    2.5344 O   0  0  0  0  0  0  0  0  0  0  0  0
   36.2974  -29.9199   -0.4494 C   0  0  0  0  0  0  0  0  0  0  0  0
   38.0080  -31.4896    0.2029 C   0  0  0  0  0  0  0  0  0  0  0  0
   36.8614  -31.2715   -0.7251 N   0  0  0  0  0  0  0  0  0  0  0  0
   35.8771  -32.4087   -0.7987 C   0  0  0  0  0  0  0  0  0  0  0  0
   36.1095  -32.7515   -3.2281 C   0  0  0  0  0  0  0  0  0  0  0  0
   36.3998  -33.5115   -4.3402 C   0  0  0  0  0  0  0  0  0  0  0  0
   36.6195  -34.6037   -1.7894 C   0  0  0  0  0  0  0  0  0  0  0  0
   36.2210  -33.2855   -1.9577 C   0  0  0  0  0  0  0  0  0  0  0  0
   36.7964  -34.8210   -4.1848 C   0  0  0  0  0  0  0  0  0  0  0  0
   36.9047  -35.3573   -2.9162 C   0  0  0  0  0  0  0  0  0  0  0  0
   36.7635  -35.2040   -0.4301 C   0  0  0  0  0  0  0  0  0  0  0  0
   35.8121  -35.9516   -0.0623 O   0  0  0  0  0  0  0  0  0  0  0  0
   37.8122  -34.9980    0.2490 O   0  0  0  0  0  0  0  0  0  0  0  0
   35.0624  -36.0613   -0.6137 H   0  0  0  0  0  0  0  0  0  0  0  0
   38.4836  -36.9428   -3.4725 C   0  0  0  0  0  0  0  0  0  0  0  0
   37.2919  -36.6762   -2.7412 O   0  0  0  0  0  0  0  0  0  0  0  0
  1  2  1  0  0  0
  1  3  2  0  0  0
  1  9  1  0  0  0
  2  4  2  0  0  0
  2 10  1  0  0  0
  3  5  1  0  0  0
  4  6  1  0  0  0
 28 29  1  0  0  0
 28 31  2  0  0  0
 16 18  1  0  0  0
 16 20  2  0  0  0
 17 19  2  0  0  0
 17 20  1  0  0  0
 29 32  2  0  0  0
 18 21  2  0  0  0
 19 21  1  0  0  0
  5  6  2  0  0  0
  5 11  1  0  0  0
 30 31  1  0  0  0
 30 33  2  0  0  0
 30 34  1  0  0  0
 20 15  1  0  0  0
  6 24  1  0  0  0
 31 27  1  0  0  0
 32 33  1  0  0  0
 33 39  1  0  0  0
 21 23  1  0  0  0
 11 12  1  0  0  0
 11 13  2  0  0  0
 34 35  1  0  0  0
 34 36  2  0  0  0
  7  8  1  0  0  0
  7  9  2  0  0  0
 38 39  1  0  0  0
 22 23  1  0  0  0
 15 12  1  0  0  0
 24 26  1  0  0  0
 27 26  1  0  0  0
 25 26  1  0  0  0
  8 10  2  0  0  0
 12 14  1  0  0  0
 35 37  1  0  0  0
M  END
> <minimizedAffinity>
-7.53668

$$$$
4CIG_X0P_A_1217


 39 42  0  0  0  0  0  0  0  0999 V2000
   36.7575  -33.6659   -5.9886 C   0  0  0  0  0  0  0  0  0  0  0  0
   36.9931  -34.7411   -5.1557 C   0  0  0  0  0  0  0  0  0  0  0  0
   36.7059  -32.3873   -5.4749 C   0  0  0  0  0  0  0  0  0  0  0  0
   37.1763  -34.5414   -3.8046 C   0  0  0  0  0  0  0  0  0  0  0  0
   36.8915  -32.2024   -4.1213 C   0  0  0  0  0  0  0  0  0  0  0  0
   37.1246  -33.2695   -3.2762 C   0  0  0  0  0  0  0  0  0  0  0  0
   36.6208  -35.1425   -7.8548 C   0  0  0  0  0  0  0  0  0  0  0  0
   36.8576  -36.2172   -7.0269 C   0  0  0  0  0  0  0  0  0  0  0  0
   36.5733  -33.8666   -7.3386 C   0  0  0  0  0  0  0  0  0  0  0  0
   37.0457  -36.0164   -5.6768 C   0  0  0  0  0  0  0  0  0  0  0  0
   36.8348  -30.8313   -3.5954 C   0  0  0  0  0  0  0  0  0  0  0  0
   35.5620  -30.3385   -3.4860 N   0  0  0  0  0  0  0  0  0  0  0  0
   37.8652  -30.2414   -3.2976 O   0  0  0  0  0  0  0  0  0  0  0  0
   34.8063  -30.8816   -3.8072 H   0  0  0  0  0  0  0  0  0  0  0  0
   35.3039  -29.0426   -2.9112 C   0  0  0  0  0  0  0  0  0  0  0  0
   34.6456  -28.6509   -0.5306 C   0  0  0  0  0  0  0  0  0  0  0  0
   33.0691  -29.6396   -2.0190 C   0  0  0  0  0  0  0  0  0  0  0  0
   33.7354  -28.7173    0.5027 C   0  0  0  0  0  0  0  0  0  0  0  0
   32.1527  -29.7089   -0.9928 C   0  0  0  0  0  0  0  0  0  0  0  0
   34.3193  -29.1076   -1.7909 C   0  0  0  0  0  0  0  0  0  0  0  0
   32.4865  -29.2524    0.2640 C   0  0  0  0  0  0  0  0  0  0  0  0
   30.4874  -30.2597    0.8402 C   0  0  0  0  0  0  0  0  0  0  0  0
   31.5074  -29.3526    1.2434 O   0  0  0  0  0  0  0  0  0  0  0  0
   37.3274  -33.0752   -1.8105 C   0  0  0  0  0  0  0  0  0  0  0  0
   36.6761  -33.6230    0.4459 C   0  0  0  0  0  0  0  0  0  0  0  0
   36.1782  -33.4796   -0.9524 N   0  0  0  0  0  0  0  0  0  0  0  0
   34.9139  -32.6749   -1.0984 C   0  0  0  0  0  0  0  0  0  0  0  0
   33.8641  -32.2714    1.0945 C   0  0  0  0  0  0  0  0  0  0  0  0
   33.0031  -32.5889    2.1223 C   0  0  0  0  0  0  0  0  0  0  0  0
   33.1707  -34.2157   -0.1301 C   0  0  0  0  0  0  0  0  0  0  0  0
   33.9493  -33.0719   -0.0296 C   0  0  0  0  0  0  0  0  0  0  0  0
   32.2254  -33.7218    2.0331 C   0  0  0  0  0  0  0  0  0  0  0  0
   32.3121  -34.5249    0.9121 C   0  0  0  0  0  0  0  0  0  0  0  0
   33.2296  -35.0917   -1.3376 C   0  0  0  0  0  0  0  0  0  0  0  0
   34.2391  -35.8500   -1.4104 O   0  0  0  0  0  0  0  0  0  0  0  0
   32.2807  -35.0849   -2.1759 O   0  0  0  0  0  0  0  0  0  0  0  0
   34.9075  -35.8044   -0.7553 H   0  0  0  0  0  0  0  0  0  0  0  0
   31.5774  -36.4007    2.0334 C   0  0  0  0  0  0  0  0  0  0  0  0
   31.5451  -35.6744    0.8098 O   0  0  0  0  0  0  0  0  0  0  0  0
  1  2  1  0  0  0
  1  3  2  0  0  0
  1  9  1  0  0  0
  2  4  2  0  0  0
  2 10  1  0  0  0
  3  5  1  0  0  0
  4  6  1  0  0  0
 28 29  1  0  0  0
 28 31  2  0  0  0
 16 18  1  0  0  0
 16 20  2  0  0  0
 17 19  2  0  0  0
 17 20  1  0  0  0
 29 32  2  0  0  0
 18 21  2  0  0  0
 19 21  1  0  0  0
  5  6  2  0  0  0
  5 11  1  0  0  0
 30 31  1  0  0  0
 30 33  2  0  0  0
 30 34  1  0  0  0
 20 15  1  0  0  0
  6 24  1  0  0  0
 31 27  1  0  0  0
 32 33  1  0  0  0
 33 39  1  0  0  0
 21 23  1  0  0  0
 11 12  1  0  0  0
 11 13  2  0  0  0
 34 35  1  0  0  0
 34 36  2  0  0  0
  7  8  1  0  0  0
  7  9  2  0  0  0
 38 39  1  0  0  0
 22 23  1  0  0  0
 15 12  1  0  0  0
 24 26  1  0  0  0
 27 26  1  0  0  0
 25 26  1  0  0  0
  8 10  2  0  0  0
 12 14  1  0  0  0
 35 37  1  0  0  0
M  END
> <minimizedAffinity>
-7.52930

$$$$
4CIG_X0P_A_1217


 39 42  0  0  0  0  0  0  0  0999 V2000
   35.8208  -27.7343   -6.3116 C   0  0  0  0  0  0  0  0  0  0  0  0
   36.7838  -28.6661   -5.9801 C   0  0  0  0  0  0  0  0  0  0  0  0
   35.0280  -27.1758   -5.3313 C   0  0  0  0  0  0  0  0  0  0  0  0
   36.9562  -29.0442   -4.6663 C   0  0  0  0  0  0  0  0  0  0  0  0
   35.2118  -27.5632   -4.0210 C   0  0  0  0  0  0  0  0  0  0  0  0
   36.1692  -28.4968   -3.6759 C   0  0  0  0  0  0  0  0  0  0  0  0
   36.4362  -27.9161   -8.6071 C   0  0  0  0  0  0  0  0  0  0  0  0
   37.3991  -28.8444   -8.2797 C   0  0  0  0  0  0  0  0  0  0  0  0
   35.6484  -27.3579   -7.6250 C   0  0  0  0  0  0  0  0  0  0  0  0
   37.5745  -29.2184   -6.9652 C   0  0  0  0  0  0  0  0  0  0  0  0
   34.3576  -26.9536   -2.9922 C   0  0  0  0  0  0  0  0  0  0  0  0
   33.3151  -27.7512   -2.6024 N   0  0  0  0  0  0  0  0  0  0  0  0
   34.6111  -25.8359   -2.5623 O   0  0  0  0  0  0  0  0  0  0  0  0
   33.1734  -28.6137   -3.0555 H   0  0  0  0  0  0  0  0  0  0  0  0
   32.4209  -27.3564   -1.5437 C   0  0  0  0  0  0  0  0  0  0  0  0
   30.8945  -28.7417   -0.1277 C   0  0  0  0  0  0  0  0  0  0  0  0
   33.2303  -29.2124   -0.1131 C   0  0  0  0  0  0  0  0  0  0  0  0
   30.6673  -29.7616    0.7716 C   0  0  0  0  0  0  0  0  0  0  0  0
   33.0128  -30.2343    0.7847 C   0  0  0  0  0  0  0  0  0  0  0  0
   32.1699  -28.4635   -0.5742 C   0  0  0  0  0  0  0  0  0  0  0  0
   31.7361  -30.5051    1.2277 C   0  0  0  0  0  0  0  0  0  0  0  0
   31.1011  -32.7141    1.4723 C   0  0  0  0  0  0  0  0  0  0  0  0
   31.5984  -31.5529    2.1282 O   0  0  0  0  0  0  0  0  0  0  0  0
   36.3735  -28.9188   -2.2592 C   0  0  0  0  0  0  0  0  0  0  0  0
   36.8210  -30.6260   -0.6157 C   0  0  0  0  0  0  0  0  0  0  0  0
   36.4530  -30.3909   -2.0414 N   0  0  0  0  0  0  0  0  0  0  0  0
   35.2917  -31.2085   -2.5420 C   0  0  0  0  0  0  0  0  0  0  0  0
   36.7229  -32.9151   -3.5967 C   0  0  0  0  0  0  0  0  0  0  0  0
   37.1533  -34.2096   -3.7905 C   0  0  0  0  0  0  0  0  0  0  0  0
   35.1211  -33.6569   -1.9705 C   0  0  0  0  0  0  0  0  0  0  0  0
   35.7175  -32.6321   -2.6909 C   0  0  0  0  0  0  0  0  0  0  0  0
   36.5685  -35.2345   -3.0807 C   0  0  0  0  0  0  0  0  0  0  0  0
   35.5610  -34.9540   -2.1779 C   0  0  0  0  0  0  0  0  0  0  0  0
   34.0435  -33.3812   -0.9746 C   0  0  0  0  0  0  0  0  0  0  0  0
   34.4123  -33.3650    0.2350 O   0  0  0  0  0  0  0  0  0  0  0  0
   32.8659  -33.1279   -1.3647 O   0  0  0  0  0  0  0  0  0  0  0  0
   35.3011  -33.5625    0.4565 H   0  0  0  0  0  0  0  0  0  0  0  0
   35.9100  -36.6449   -0.6498 C   0  0  0  0  0  0  0  0  0  0  0  0
   34.9537  -35.9737   -1.4628 O   0  0  0  0  0  0  0  0  0  0  0  0
  1  2  1  0  0  0
  1  3  2  0  0  0
  1  9  1  0  0  0
  2  4  2  0  0  0
  2 10  1  0  0  0
  3  5  1  0  0  0
  4  6  1  0  0  0
 28 29  1  0  0  0
 28 31  2  0  0  0
 16 18  1  0  0  0
 16 20  2  0  0  0
 17 19  2  0  0  0
 17 20  1  0  0  0
 29 32  2  0  0  0
 18 21  2  0  0  0
 19 21  1  0  0  0
  5  6  2  0  0  0
  5 11  1  0  0  0
 30 31  1  0  0  0
 30 33  2  0  0  0
 30 34  1  0  0  0
 20 15  1  0  0  0
  6 24  1  0  0  0
 31 27  1  0  0  0
 32 33  1  0  0  0
 33 39  1  0  0  0
 21 23  1  0  0  0
 11 12  1  0  0  0
 11 13  2  0  0  0
 34 35  1  0  0  0
 34 36  2  0  0  0
  7  8  1  0  0  0
  7  9  2  0  0  0
 38 39  1  0  0  0
 22 23  1  0  0  0
 15 12  1  0  0  0
 24 26  1  0  0  0
 27 26  1  0  0  0
 25 26  1  0  0  0
  8 10  2  0  0  0
 12 14  1  0  0  0
 35 37  1  0  0  0
M  END
> <minimizedAffinity>
-7.28687

$$$$
4CIG_X0P_A_1217


 39 42  0  0  0  0  0  0  0  0999 V2000
   34.8386  -34.1562   -1.5750 C   0  0  0  0  0  0  0  0  0  0  0  0
   34.8213  -32.9070   -2.1620 C   0  0  0  0  0  0  0  0  0  0  0  0
   34.0735  -34.4086   -0.4559 C   0  0  0  0  0  0  0  0  0  0  0  0
   34.0397  -31.9045   -1.6301 C   0  0  0  0  0  0  0  0  0  0  0  0
   33.2960  -33.3963    0.0651 C   0  0  0  0  0  0  0  0  0  0  0  0
   33.2719  -32.1410   -0.5101 C   0  0  0  0  0  0  0  0  0  0  0  0
   36.3888  -34.9079   -3.2222 C   0  0  0  0  0  0  0  0  0  0  0  0
   36.3724  -33.6632   -3.8113 C   0  0  0  0  0  0  0  0  0  0  0  0
   35.6209  -35.1573   -2.1065 C   0  0  0  0  0  0  0  0  0  0  0  0
   35.5868  -32.6626   -3.2821 C   0  0  0  0  0  0  0  0  0  0  0  0
   32.4869  -33.6878    1.2567 C   0  0  0  0  0  0  0  0  0  0  0  0
   31.4423  -34.5394    1.0150 N   0  0  0  0  0  0  0  0  0  0  0  0
   32.7755  -33.1877    2.3361 O   0  0  0  0  0  0  0  0  0  0  0  0
   31.2696  -34.8399    0.0936 H   0  0  0  0  0  0  0  0  0  0  0  0
   30.5900  -35.0056    2.0793 C   0  0  0  0  0  0  0  0  0  0  0  0
   31.8080  -37.1809    2.2748 C   0  0  0  0  0  0  0  0  0  0  0  0
   31.2423  -35.9896    4.2595 C   0  0  0  0  0  0  0  0  0  0  0  0
   32.3958  -38.1789    3.0226 C   0  0  0  0  0  0  0  0  0  0  0  0
   31.8283  -36.9814    5.0148 C   0  0  0  0  0  0  0  0  0  0  0  0
   31.2323  -36.0857    2.8852 C   0  0  0  0  0  0  0  0  0  0  0  0
   32.3997  -38.0735    4.3981 C   0  0  0  0  0  0  0  0  0  0  0  0
   34.3174  -38.6762    5.5393 C   0  0  0  0  0  0  0  0  0  0  0  0
   32.9738  -39.0276    5.2276 O   0  0  0  0  0  0  0  0  0  0  0  0
   32.4313  -31.0419    0.0487 C   0  0  0  0  0  0  0  0  0  0  0  0
   31.2217  -29.1993   -0.9297 C   0  0  0  0  0  0  0  0  0  0  0  0
   32.5847  -29.7214   -0.6248 N   0  0  0  0  0  0  0  0  0  0  0  0
   33.5118  -28.7343    0.0337 C   0  0  0  0  0  0  0  0  0  0  0  0
   35.8525  -29.4654    0.2787 C   0  0  0  0  0  0  0  0  0  0  0  0
   37.1426  -29.6311   -0.1759 C   0  0  0  0  0  0  0  0  0  0  0  0
   35.2097  -28.4731   -1.8101 C   0  0  0  0  0  0  0  0  0  0  0  0
   34.8857  -28.8956   -0.5289 C   0  0  0  0  0  0  0  0  0  0  0  0
   37.4752  -29.2156   -1.4459 C   0  0  0  0  0  0  0  0  0  0  0  0
   36.5112  -28.6425   -2.2529 C   0  0  0  0  0  0  0  0  0  0  0  0
   34.1843  -27.8679   -2.7108 C   0  0  0  0  0  0  0  0  0  0  0  0
   33.6645  -28.6576   -3.5508 O   0  0  0  0  0  0  0  0  0  0  0  0
   33.8470  -26.6559   -2.5677 O   0  0  0  0  0  0  0  0  0  0  0  0
   33.9609  -29.5448   -3.6055 H   0  0  0  0  0  0  0  0  0  0  0  0
   37.1024  -29.3202   -4.3759 C   0  0  0  0  0  0  0  0  0  0  0  0
   36.8303  -28.2086   -3.5296 O   0  0  0  0  0  0  0  0  0  0  0  0
  1  2  1  0  0  0
  1  3  2  0  0  0
  1  9  1  0  0  0
  2  4  2  0  0  0
  2 10  1  0  0  0
  3  5  1  0  0  0
  4  6  1  0  0  0
 28 29  1  0  0  0
 28 31  2  0  0  0
 16 18  1  0  0  0
 16 20  2  0  0  0
 17 19  2  0  0  0
 17 20  1  0  0  0
 29 32  2  0  0  0
 18 21  2  0  0  0
 19 21  1  0  0  0
  5  6  2  0  0  0
  5 11  1  0  0  0
 30 31  1  0  0  0
 30 33  2  0  0  0
 30 34  1  0  0  0
 20 15  1  0  0  0
  6 24  1  0  0  0
 31 27  1  0  0  0
 32 33  1  0  0  0
 33 39  1  0  0  0
 21 23  1  0  0  0
 11 12  1  0  0  0
 11 13  2  0  0  0
 34 35  1  0  0  0
 34 36  2  0  0  0
  7  8  1  0  0  0
  7  9  2  0  0  0
 38 39  1  0  0  0
 22 23  1  0  0  0
 15 12  1  0  0  0
 24 26  1  0  0  0
 27 26  1  0  0  0
 25 26  1  0  0  0
  8 10  2  0  0  0
 12 14  1  0  0  0
 35 37  1  0  0  0
M  END
> <minimizedAffinity>
-7.23066

$$$$
4CIG_X0P_A_1217


 39 42  0  0  0  0  0  0  0  0999 V2000
   36.8015  -35.9337   -0.5283 C   0  0  0  0  0  0  0  0  0  0  0  0
   37.4996  -34.7475   -0.4243 C   0  0  0  0  0  0  0  0  0  0  0  0
   35.4337  -35.9525   -0.3540 C   0  0  0  0  0  0  0  0  0  0  0  0
   36.8320  -33.5752   -0.1434 C   0  0  0  0  0  0  0  0  0  0  0  0
   34.7789  -34.7720   -0.0740 C   0  0  0  0  0  0  0  0  0  0  0  0
   35.4654  -33.5788    0.0362 C   0  0  0  0  0  0  0  0  0  0  0  0
   38.8360  -37.0907   -0.9792 C   0  0  0  0  0  0  0  0  0  0  0  0
   39.5353  -35.9087   -0.8780 C   0  0  0  0  0  0  0  0  0  0  0  0
   37.4696  -37.1051   -0.8078 C   0  0  0  0  0  0  0  0  0  0  0  0
   38.8666  -34.7360   -0.6022 C   0  0  0  0  0  0  0  0  0  0  0  0
   33.3210  -34.8145    0.1057 C   0  0  0  0  0  0  0  0  0  0  0  0
   32.9336  -34.9553    1.4115 N   0  0  0  0  0  0  0  0  0  0  0  0
   32.5769  -34.7229   -0.8620 O   0  0  0  0  0  0  0  0  0  0  0  0
   33.6201  -35.0749    2.1069 H   0  0  0  0  0  0  0  0  0  0  0  0
   31.5435  -34.9322    1.7904 C   0  0  0  0  0  0  0  0  0  0  0  0
   30.2059  -35.8995    3.6691 C   0  0  0  0  0  0  0  0  0  0  0  0
   31.8686  -37.2459    2.6198 C   0  0  0  0  0  0  0  0  0  0  0  0
   29.8874  -36.9321    4.5250 C   0  0  0  0  0  0  0  0  0  0  0  0
   31.5563  -38.2837    3.4701 C   0  0  0  0  0  0  0  0  0  0  0  0
   31.1918  -36.0497    2.7156 C   0  0  0  0  0  0  0  0  0  0  0  0
   30.5716  -38.1255    4.4214 C   0  0  0  0  0  0  0  0  0  0  0  0
   31.2762  -40.2436    5.0217 C   0  0  0  0  0  0  0  0  0  0  0  0
   30.3124  -39.2187    5.2373 O   0  0  0  0  0  0  0  0  0  0  0  0
   34.7617  -32.2978    0.3379 C   0  0  0  0  0  0  0  0  0  0  0  0
   33.9776  -31.6343   -1.8439 C   0  0  0  0  0  0  0  0  0  0  0  0
   34.8734  -31.2498   -0.7156 N   0  0  0  0  0  0  0  0  0  0  0  0
   34.7443  -29.8207   -0.2590 C   0  0  0  0  0  0  0  0  0  0  0  0
   32.6378  -30.2119    0.9586 C   0  0  0  0  0  0  0  0  0  0  0  0
   31.3045  -29.9774    1.2155 C   0  0  0  0  0  0  0  0  0  0  0  0
   32.6286  -28.5529   -0.7758 C   0  0  0  0  0  0  0  0  0  0  0  0
   33.3035  -29.5049   -0.0255 C   0  0  0  0  0  0  0  0  0  0  0  0
   30.6248  -29.0346    0.4770 C   0  0  0  0  0  0  0  0  0  0  0  0
   31.2876  -28.3299   -0.5094 C   0  0  0  0  0  0  0  0  0  0  0  0
   33.3238  -27.7630   -1.8349 C   0  0  0  0  0  0  0  0  0  0  0  0
   33.6186  -26.5740   -1.5210 O   0  0  0  0  0  0  0  0  0  0  0  0
   33.6301  -28.3067   -2.9366 O   0  0  0  0  0  0  0  0  0  0  0  0
   33.3613  -26.2320   -0.6875 H   0  0  0  0  0  0  0  0  0  0  0  0
   29.8762  -26.5086   -0.4281 C   0  0  0  0  0  0  0  0  0  0  0  0
   30.6172  -27.3852   -1.2697 O   0  0  0  0  0  0  0  0  0  0  0  0
  1  2  1  0  0  0
  1  3  2  0  0  0
  1  9  1  0  0  0
  2  4  2  0  0  0
  2 10  1  0  0  0
  3  5  1  0  0  0
  4  6  1  0  0  0
 28 29  1  0  0  0
 28 31  2  0  0  0
 16 18  1  0  0  0
 16 20  2  0  0  0
 17 19  2  0  0  0
 17 20  1  0  0  0
 29 32  2  0  0  0
 18 21  2  0  0  0
 19 21  1  0  0  0
  5  6  2  0  0  0
  5 11  1  0  0  0
 30 31  1  0  0  0
 30 33  2  0  0  0
 30 34  1  0  0  0
 20 15  1  0  0  0
  6 24  1  0  0  0
 31 27  1  0  0  0
 32 33  1  0  0  0
 33 39  1  0  0  0
 21 23  1  0  0  0
 11 12  1  0  0  0
 11 13  2  0  0  0
 34 35  1  0  0  0
 34 36  2  0  0  0
  7  8  1  0  0  0
  7  9  2  0  0  0
 38 39  1  0  0  0
 22 23  1  0  0  0
 15 12  1  0  0  0
 24 26  1  0  0  0
 27 26  1  0  0  0
 25 26  1  0  0  0
  8 10  2  0  0  0
 12 14  1  0  0  0
 35 37  1  0  0  0
M  END
> <minimizedAffinity>
-7.18432

$$$$
4CIG_X0P_A_1217


 39 42  0  0  0  0  0  0  0  0999 V2000
   34.6820  -27.3442   -4.0684 C   0  0  0  0  0  0  0  0  0  0  0  0
   35.8596  -28.0355   -4.2703 C   0  0  0  0  0  0  0  0  0  0  0  0
   33.9970  -27.4714   -2.8784 C   0  0  0  0  0  0  0  0  0  0  0  0
   36.3557  -28.8586   -3.2828 C   0  0  0  0  0  0  0  0  0  0  0  0
   34.5053  -28.2980   -1.8991 C   0  0  0  0  0  0  0  0  0  0  0  0
   35.6806  -28.9980   -2.0892 C   0  0  0  0  0  0  0  0  0  0  0  0
   34.8659  -26.3959   -6.2475 C   0  0  0  0  0  0  0  0  0  0  0  0
   36.0420  -27.0826   -6.4514 C   0  0  0  0  0  0  0  0  0  0  0  0
   34.1863  -26.5228   -5.0564 C   0  0  0  0  0  0  0  0  0  0  0  0
   36.5403  -27.9015   -5.4617 C   0  0  0  0  0  0  0  0  0  0  0  0
   33.7604  -28.4171   -0.6379 C   0  0  0  0  0  0  0  0  0  0  0  0
   32.5360  -29.0134   -0.7788 N   0  0  0  0  0  0  0  0  0  0  0  0
   34.2469  -28.0059    0.4074 O   0  0  0  0  0  0  0  0  0  0  0  0
   32.2202  -29.2574   -1.6788 H   0  0  0  0  0  0  0  0  0  0  0  0
   31.6992  -29.2917    0.3608 C   0  0  0  0  0  0  0  0  0  0  0  0
   30.8234  -31.5708    0.9021 C   0  0  0  0  0  0  0  0  0  0  0  0
   33.1197  -31.0860    1.3146 C   0  0  0  0  0  0  0  0  0  0  0  0
   30.9931  -32.8544    1.3755 C   0  0  0  0  0  0  0  0  0  0  0  0
   33.2990  -32.3670    1.7883 C   0  0  0  0  0  0  0  0  0  0  0  0
   31.8800  -30.6843    0.8675 C   0  0  0  0  0  0  0  0  0  0  0  0
   32.2383  -33.2464    1.8216 C   0  0  0  0  0  0  0  0  0  0  0  0
   31.2957  -35.1544    2.7239 C   0  0  0  0  0  0  0  0  0  0  0  0
   32.5003  -34.5201    2.3084 O   0  0  0  0  0  0  0  0  0  0  0  0
   36.2361  -29.8931   -1.0323 C   0  0  0  0  0  0  0  0  0  0  0  0
   38.3159  -29.6837    0.1704 C   0  0  0  0  0  0  0  0  0  0  0  0
   37.7046  -30.1339   -1.1130 N   0  0  0  0  0  0  0  0  0  0  0  0
   38.1377  -31.4984   -1.5800 C   0  0  0  0  0  0  0  0  0  0  0  0
   37.1802  -32.8773    0.2242 C   0  0  0  0  0  0  0  0  0  0  0  0
   36.3058  -33.8206    0.7184 C   0  0  0  0  0  0  0  0  0  0  0  0
   36.2435  -33.1134   -1.9730 C   0  0  0  0  0  0  0  0  0  0  0  0
   37.1520  -32.5173   -1.1104 C   0  0  0  0  0  0  0  0  0  0  0  0
   35.3998  -34.4186   -0.1287 C   0  0  0  0  0  0  0  0  0  0  0  0
   35.3728  -34.0627   -1.4635 C   0  0  0  0  0  0  0  0  0  0  0  0
   36.1789  -32.7349   -3.4157 C   0  0  0  0  0  0  0  0  0  0  0  0
   35.2180  -31.9781   -3.7367 O   0  0  0  0  0  0  0  0  0  0  0  0
   37.0809  -33.1210   -4.2161 O   0  0  0  0  0  0  0  0  0  0  0  0
   34.5828  -31.7293   -3.0944 H   0  0  0  0  0  0  0  0  0  0  0  0
   33.1633  -34.6395   -1.7815 C   0  0  0  0  0  0  0  0  0  0  0  0
   34.4753  -34.6617   -2.3328 O   0  0  0  0  0  0  0  0  0  0  0  0
  1  2  1  0  0  0
  1  3  2  0  0  0
  1  9  1  0  0  0
  2  4  2  0  0  0
  2 10  1  0  0  0
  3  5  1  0  0  0
  4  6  1  0  0  0
 28 29  1  0  0  0
 28 31  2  0  0  0
 16 18  1  0  0  0
 16 20  2  0  0  0
 17 19  2  0  0  0
 17 20  1  0  0  0
 29 32  2  0  0  0
 18 21  2  0  0  0
 19 21  1  0  0  0
  5  6  2  0  0  0
  5 11  1  0  0  0
 30 31  1  0  0  0
 30 33  2  0  0  0
 30 34  1  0  0  0
 20 15  1  0  0  0
  6 24  1  0  0  0
 31 27  1  0  0  0
 32 33  1  0  0  0
 33 39  1  0  0  0
 21 23  1  0  0  0
 11 12  1  0  0  0
 11 13  2  0  0  0
 34 35  1  0  0  0
 34 36  2  0  0  0
  7  8  1  0  0  0
  7  9  2  0  0  0
 38 39  1  0  0  0
 22 23  1  0  0  0
 15 12  1  0  0  0
 24 26  1  0  0  0
 27 26  1  0  0  0
 25 26  1  0  0  0
  8 10  2  0  0  0
 12 14  1  0  0  0
 35 37  1  0  0  0
M  END
> <minimizedAffinity>
-7.14140

$$$$
4CIG_X0P_A_1217


 39 42  0  0  0  0  0  0  0  0999 V2000
   34.6973  -27.6256   -3.9833 C   0  0  0  0  0  0  0  0  0  0  0  0
   35.7782  -28.4460   -4.2366 C   0  0  0  0  0  0  0  0  0  0  0  0
   34.0302  -27.7073   -2.7793 C   0  0  0  0  0  0  0  0  0  0  0  0
   36.1948  -29.3530   -3.2866 C   0  0  0  0  0  0  0  0  0  0  0  0
   34.4583  -28.6191   -1.8379 C   0  0  0  0  0  0  0  0  0  0  0  0
   35.5360  -29.4482   -2.0796 C   0  0  0  0  0  0  0  0  0  0  0  0
   34.9428  -26.6380   -6.1388 C   0  0  0  0  0  0  0  0  0  0  0  0
   36.0226  -27.4537   -6.3939 C   0  0  0  0  0  0  0  0  0  0  0  0
   34.2809  -26.7201   -4.9338 C   0  0  0  0  0  0  0  0  0  0  0  0
   36.4418  -28.3570   -5.4417 C   0  0  0  0  0  0  0  0  0  0  0  0
   33.7344  -28.6878   -0.5609 C   0  0  0  0  0  0  0  0  0  0  0  0
   32.6501  -29.5234   -0.5898 N   0  0  0  0  0  0  0  0  0  0  0  0
   34.1188  -28.0374    0.4023 O   0  0  0  0  0  0  0  0  0  0  0  0
   32.3990  -29.9568   -1.4374 H   0  0  0  0  0  0  0  0  0  0  0  0
   31.8684  -29.7827    0.5926 C   0  0  0  0  0  0  0  0  0  0  0  0
   30.8978  -32.0236    1.1312 C   0  0  0  0  0  0  0  0  0  0  0  0
   33.2366  -31.6752    1.4251 C   0  0  0  0  0  0  0  0  0  0  0  0
   31.0212  -33.3261    1.5656 C   0  0  0  0  0  0  0  0  0  0  0  0
   33.3698  -32.9757    1.8593 C   0  0  0  0  0  0  0  0  0  0  0  0
   31.9987  -31.1954    1.0572 C   0  0  0  0  0  0  0  0  0  0  0  0
   32.2651  -33.7966    1.9324 C   0  0  0  0  0  0  0  0  0  0  0  0
   31.3760  -35.5512    3.1463 C   0  0  0  0  0  0  0  0  0  0  0  0
   32.4818  -35.0946    2.3752 O   0  0  0  0  0  0  0  0  0  0  0  0
   36.0046  -30.4361   -1.0639 C   0  0  0  0  0  0  0  0  0  0  0  0
   38.1060  -30.3817    0.1179 C   0  0  0  0  0  0  0  0  0  0  0  0
   37.4469  -30.8005   -1.1524 N   0  0  0  0  0  0  0  0  0  0  0  0
   37.7597  -32.2042   -1.5990 C   0  0  0  0  0  0  0  0  0  0  0  0
   38.9966  -31.5797   -3.6370 C   0  0  0  0  0  0  0  0  0  0  0  0
   39.1843  -31.5543   -5.0018 C   0  0  0  0  0  0  0  0  0  0  0  0
   36.9817  -32.8559   -3.9056 C   0  0  0  0  0  0  0  0  0  0  0  0
   37.9077  -32.2284   -3.0848 C   0  0  0  0  0  0  0  0  0  0  0  0
   38.2716  -32.1740   -5.8259 C   0  0  0  0  0  0  0  0  0  0  0  0
   37.1808  -32.8195   -5.2760 C   0  0  0  0  0  0  0  0  0  0  0  0
   35.8040  -33.5771   -3.3383 C   0  0  0  0  0  0  0  0  0  0  0  0
   35.9098  -34.8364   -3.2887 O   0  0  0  0  0  0  0  0  0  0  0  0
   34.8124  -32.9267   -2.8947 O   0  0  0  0  0  0  0  0  0  0  0  0
   36.6718  -35.2565   -3.6361 H   0  0  0  0  0  0  0  0  0  0  0  0
   36.8596  -34.4801   -6.8428 C   0  0  0  0  0  0  0  0  0  0  0  0
   36.2465  -33.4392   -6.0902 O   0  0  0  0  0  0  0  0  0  0  0  0
  1  2  1  0  0  0
  1  3  2  0  0  0
  1  9  1  0  0  0
  2  4  2  0  0  0
  2 10  1  0  0  0
  3  5  1  0  0  0
  4  6  1  0  0  0
 28 29  1  0  0  0
 28 31  2  0  0  0
 16 18  1  0  0  0
 16 20  2  0  0  0
 17 19  2  0  0  0
 17 20  1  0  0  0
 29 32  2  0  0  0
 18 21  2  0  0  0
 19 21  1  0  0  0
  5  6  2  0  0  0
  5 11  1  0  0  0
 30 31  1  0  0  0
 30 33  2  0  0  0
 30 34  1  0  0  0
 20 15  1  0  0  0
  6 24  1  0  0  0
 31 27  1  0  0  0
 32 33  1  0  0  0
 33 39  1  0  0  0
 21 23  1  0  0  0
 11 12  1  0  0  0
 11 13  2  0  0  0
 34 35  1  0  0  0
 34 36  2  0  0  0
  7  8  1  0  0  0
  7  9  2  0  0  0
 38 39  1  0  0  0
 22 23  1  0  0  0
 15 12  1  0  0  0
 24 26  1  0  0  0
 27 26  1  0  0  0
 25 26  1  0  0  0
  8 10  2  0  0  0
 12 14  1  0  0  0
 35 37  1  0  0  0
M  END
> <minimizedAffinity>
-7.14053

$$$$
4CIG_X0P_A_1217


 39 42  0  0  0  0  0  0  0  0999 V2000
   32.2593  -32.3810    0.8367 C   0  0  0  0  0  0  0  0  0  0  0  0
   32.9211  -33.2704    0.0142 C   0  0  0  0  0  0  0  0  0  0  0  0
   32.3989  -31.0225    0.6460 C   0  0  0  0  0  0  0  0  0  0  0  0
   33.7270  -32.8037   -1.0015 C   0  0  0  0  0  0  0  0  0  0  0  0
   33.2081  -30.5699   -0.3743 C   0  0  0  0  0  0  0  0  0  0  0  0
   33.8786  -31.4486   -1.2024 C   0  0  0  0  0  0  0  0  0  0  0  0
   31.3158  -34.2044    2.0477 C   0  0  0  0  0  0  0  0  0  0  0  0
   31.9731  -35.0943    1.2278 C   0  0  0  0  0  0  0  0  0  0  0  0
   31.4549  -32.8483    1.8523 C   0  0  0  0  0  0  0  0  0  0  0  0
   32.7748  -34.6272    0.2092 C   0  0  0  0  0  0  0  0  0  0  0  0
   33.3408  -29.1183   -0.5610 C   0  0  0  0  0  0  0  0  0  0  0  0
   32.9680  -28.6896   -1.8069 N   0  0  0  0  0  0  0  0  0  0  0  0
   33.7482  -28.4132    0.3529 O   0  0  0  0  0  0  0  0  0  0  0  0
   32.7060  -29.3528   -2.4856 H   0  0  0  0  0  0  0  0  0  0  0  0
   32.9506  -27.2894   -2.1466 C   0  0  0  0  0  0  0  0  0  0  0  0
   33.8860  -27.3349   -4.4655 C   0  0  0  0  0  0  0  0  0  0  0  0
   35.1018  -26.2144   -2.7495 C   0  0  0  0  0  0  0  0  0  0  0  0
   34.8595  -27.0132   -5.3870 C   0  0  0  0  0  0  0  0  0  0  0  0
   36.0790  -25.8874   -3.6637 C   0  0  0  0  0  0  0  0  0  0  0  0
   33.9998  -26.9384   -3.1489 C   0  0  0  0  0  0  0  0  0  0  0  0
   35.9593  -26.2886   -4.9768 C   0  0  0  0  0  0  0  0  0  0  0  0
   36.9860  -26.7408   -6.9978 C   0  0  0  0  0  0  0  0  0  0  0  0
   36.9831  -25.9163   -5.8376 O   0  0  0  0  0  0  0  0  0  0  0  0
   34.7548  -30.9644   -2.3092 C   0  0  0  0  0  0  0  0  0  0  0  0
   36.9070  -30.2152   -3.0979 C   0  0  0  0  0  0  0  0  0  0  0  0
   36.2137  -30.9568   -2.0057 N   0  0  0  0  0  0  0  0  0  0  0  0
   36.6083  -30.5505   -0.6105 C   0  0  0  0  0  0  0  0  0  0  0  0
   37.0401  -32.8717    0.0961 C   0  0  0  0  0  0  0  0  0  0  0  0
   37.8280  -33.8675    0.6309 C   0  0  0  0  0  0  0  0  0  0  0  0
   38.8085  -31.2743    0.3825 C   0  0  0  0  0  0  0  0  0  0  0  0
   37.5218  -31.5824   -0.0351 C   0  0  0  0  0  0  0  0  0  0  0  0
   39.1067  -33.5730    1.0485 C   0  0  0  0  0  0  0  0  0  0  0  0
   39.5884  -32.2843    0.9216 C   0  0  0  0  0  0  0  0  0  0  0  0
   39.3619  -29.8950    0.2401 C   0  0  0  0  0  0  0  0  0  0  0  0
   39.3716  -29.2014    1.2975 O   0  0  0  0  0  0  0  0  0  0  0  0
   39.8330  -29.5096   -0.8701 O   0  0  0  0  0  0  0  0  0  0  0  0
   39.0055  -29.5468    2.0878 H   0  0  0  0  0  0  0  0  0  0  0  0
   41.8307  -32.7364    0.6332 C   0  0  0  0  0  0  0  0  0  0  0  0
   40.8687  -31.9672    1.3463 O   0  0  0  0  0  0  0  0  0  0  0  0
  1  2  1  0  0  0
  1  3  2  0  0  0
  1  9  1  0  0  0
  2  4  2  0  0  0
  2 10  1  0  0  0
  3  5  1  0  0  0
  4  6  1  0  0  0
 28 29  1  0  0  0
 28 31  2  0  0  0
 16 18  1  0  0  0
 16 20  2  0  0  0
 17 19  2  0  0  0
 17 20  1  0  0  0
 29 32  2  0  0  0
 18 21  2  0  0  0
 19 21  1  0  0  0
  5  6  2  0  0  0
  5 11  1  0  0  0
 30 31  1  0  0  0
 30 33  2  0  0  0
 30 34  1  0  0  0
 20 15  1  0  0  0
  6 24  1  0  0  0
 31 27  1  0  0  0
 32 33  1  0  0  0
 33 39  1  0  0  0
 21 23  1  0  0  0
 11 12  1  0  0  0
 11 13  2  0  0  0
 34 35  1  0  0  0
 34 36  2  0  0  0
  7  8  1  0  0  0
  7  9  2  0  0  0
 38 39  1  0  0  0
 22 23  1  0  0  0
 15 12  1  0  0  0
 24 26  1  0  0  0
 27 26  1  0  0  0
 25 26  1  0  0  0
  8 10  2  0  0  0
 12 14  1  0  0  0
 35 37  1  0  0  0
M  END
> <minimizedAffinity>
-6.86823

$$$$
