2Q5K_AB1_A_201


 50 53  0  0  0  0  0  0  0  0999 V2000
   19.2909   28.4915   13.6939 C   0  0  0  0  0  0  0  0  0  0  0  0
   20.4801   29.0587   14.4657 C   0  0  0  0  0  0  0  0  0  0  0  0
   20.2174   28.8470   15.8650 O   0  0  0  0  0  0  0  0  0  0  0  0
   19.4154   29.3294   16.1200 H   0  0  0  0  0  0  0  0  0  0  0  0
   20.7784   30.5426   14.2010 C   0  0  0  0  0  0  0  0  0  0  0  0
   19.6390   31.3910   14.5114 N   0  0  0  0  0  0  0  0  0  0  0  0
   18.8187   31.9115   13.5800 C   0  0  0  0  0  0  0  0  0  0  0  0
   18.9206   31.7344   12.3760 O   0  0  0  0  0  0  0  0  0  0  0  0
   19.4571   31.5963   15.4570 H   0  0  0  0  0  0  0  0  0  0  0  0
   17.6688   32.7843   14.0310 C   0  0  0  0  0  0  0  0  0  0  0  0
   17.3332   32.6210   15.3994 O   0  0  0  0  0  0  0  0  0  0  0  0
   16.5761   33.5783   16.0270 C   0  0  0  0  0  0  0  0  0  0  0  0
   15.1873   33.5195   15.9653 C   0  0  0  0  0  0  0  0  0  0  0  0
   14.4299   34.4990   16.6047 C   0  0  0  0  0  0  0  0  0  0  0  0
   15.0450   35.5286   17.3127 C   0  0  0  0  0  0  0  0  0  0  0  0
   16.4279   35.5825   17.3729 C   0  0  0  0  0  0  0  0  0  0  0  0
   17.1971   34.6014   16.7407 C   0  0  0  0  0  0  0  0  0  0  0  0
   18.7041   34.6611   16.8313 C   0  0  0  0  0  0  0  0  0  0  0  0
   14.4963   32.4305   15.1858 C   0  0  0  0  0  0  0  0  0  0  0  0
   22.0121   30.9546   15.0273 C   0  0  0  0  0  0  0  0  0  0  0  0
   22.2976   32.4432   14.9572 C   0  0  0  0  0  0  0  0  0  0  0  0
   22.0688   33.2567   16.0684 C   0  0  0  0  0  0  0  0  0  0  0  0
   22.3117   34.6369   16.0232 C   0  0  0  0  0  0  0  0  0  0  0  0
   22.7930   35.2068   14.8585 C   0  0  0  0  0  0  0  0  0  0  0  0
   23.0347   34.3890   13.7458 C   0  0  0  0  0  0  0  0  0  0  0  0
   22.7885   33.0144   13.7831 C   0  0  0  0  0  0  0  0  0  0  0  0
   19.5919   28.0423   12.2608 C   0  0  0  0  0  0  0  0  0  0  0  0
   21.8588   27.9069   11.3122 C   0  0  0  0  0  0  0  0  0  0  0  0
   20.9083   27.4373   12.1232 N   0  0  0  0  0  0  0  0  0  0  0  0
   21.7077   28.8873   10.5944 O   0  0  0  0  0  0  0  0  0  0  0  0
   21.1092   26.6360   12.6588 H   0  0  0  0  0  0  0  0  0  0  0  0
   23.1388   27.1023   11.3147 C   0  0  0  0  0  0  0  0  0  0  0  0
   23.5846   24.7013    7.8230 C   0  0  0  0  0  0  0  0  0  0  0  0
   23.7688   26.9336    8.9077 C   0  0  0  0  0  0  0  0  0  0  0  0
   23.2145   26.2653   10.0936 N   0  0  0  0  0  0  0  0  0  0  0  0
   22.7460   25.0035   10.1080 C   0  0  0  0  0  0  0  0  0  0  0  0
   22.8802   24.2555    9.0112 N   0  0  0  0  0  0  0  0  0  0  0  0
   22.2161   24.5222   11.1054 O   0  0  0  0  0  0  0  0  0  0  0  0
   24.5219   25.8593    8.1383 C   0  0  0  0  0  0  0  0  0  0  0  0
   22.4812   23.3555    9.0077 H   0  0  0  0  0  0  0  0  0  0  0  0
   24.4157   27.9326   11.5220 C   0  0  0  0  0  0  0  0  0  0  0  0
   24.2539   28.8944   12.7035 C   0  0  0  0  0  0  0  0  0  0  0  0
   25.6271   27.0213   11.7417 C   0  0  0  0  0  0  0  0  0  0  0  0
   18.5042   27.0281   11.8869 C   0  0  0  0  0  0  0  0  0  0  0  0
   17.8867   27.2146    8.1655 C   0  0  0  0  0  0  0  0  0  0  0  0
   18.3538   25.9767    7.7305 C   0  0  0  0  0  0  0  0  0  0  0  0
   18.8767   25.0742    8.6489 C   0  0  0  0  0  0  0  0  0  0  0  0
   18.9179   25.4063    9.9956 C   0  0  0  0  0  0  0  0  0  0  0  0
   18.4781   26.6608   10.4250 C   0  0  0  0  0  0  0  0  0  0  0  0
   17.9489   27.5530    9.5089 C   0  0  0  0  0  0  0  0  0  0  0  0
 33 37  1  0  0  0
 33 39  1  0  0  0
 34 35  1  0  0  0
 34 39  1  0  0  0
 35 36  1  0  0  0
 35 32  1  0  0  0
 36 37  1  0  0  0
 36 38  2  0  0  0
 21 22  2  0  0  0
 21 26  1  0  0  0
 21 20  1  0  0  0
 22 23  1  0  0  0
 23 24  2  0  0  0
 24 25  1  0  0  0
 25 26  2  0  0  0
 32 28  1  0  0  0
 32 41  1  0  0  0
 28 29  1  0  0  0
 28 30  2  0  0  0
 29 27  1  0  0  0
 27 44  1  0  0  0
 27  1  1  0  0  0
 41 42  1  0  0  0
 41 43  1  0  0  0
 45 46  2  0  0  0
 45 50  1  0  0  0
 46 47  1  0  0  0
 47 48  2  0  0  0
 48 49  1  0  0  0
 49 50  2  0  0  0
 49 44  1  0  0  0
  1  2  1  0  0  0
  2  5  1  0  0  0
  2  3  1  0  0  0
  5  6  1  0  0  0
  5 20  1  0  0  0
  6  7  1  0  0  0
  7 10  1  0  0  0
  7  8  2  0  0  0
 10 11  1  0  0  0
 11 12  1  0  0  0
 12 13  2  0  0  0
 12 17  1  0  0  0
 13 14  1  0  0  0
 13 19  1  0  0  0
 14 15  2  0  0  0
 15 16  1  0  0  0
 16 17  2  0  0  0
 17 18  1  0  0  0
 37 40  1  0  0  0
 29 31  1  0  0  0
  6  9  1  0  0  0
  3  4  1  0  0  0
M  END
> <minimizedAffinity>
-11.30737

$$$$
2Q5K_AB1_A_201


 50 53  0  0  0  0  0  0  0  0999 V2000
   20.2397   29.3434   14.1737 C   0  0  0  0  0  0  0  0  0  0  0  0
   20.8929   30.1541   15.2906 C   0  0  0  0  0  0  0  0  0  0  0  0
   20.2179   29.8105   16.5145 O   0  0  0  0  0  0  0  0  0  0  0  0
   19.2826   30.0588   16.4487 H   0  0  0  0  0  0  0  0  0  0  0  0
   20.8745   31.6767   15.0846 C   0  0  0  0  0  0  0  0  0  0  0  0
   19.5418   32.2331   15.2547 N   0  0  0  0  0  0  0  0  0  0  0  0
   18.6911   32.4607   14.2370 C   0  0  0  0  0  0  0  0  0  0  0  0
   18.9232   32.2257   13.0612 O   0  0  0  0  0  0  0  0  0  0  0  0
   19.2449   32.4560   16.1665 H   0  0  0  0  0  0  0  0  0  0  0  0
   17.3318   33.0485   14.5441 C   0  0  0  0  0  0  0  0  0  0  0  0
   17.0146   33.0563   15.9265 O   0  0  0  0  0  0  0  0  0  0  0  0
   16.2692   34.0871   16.4416 C   0  0  0  0  0  0  0  0  0  0  0  0
   14.8813   34.0584   16.3474 C   0  0  0  0  0  0  0  0  0  0  0  0
   14.1359   35.1124   16.8722 C   0  0  0  0  0  0  0  0  0  0  0  0
   14.7617   36.1876   17.4983 C   0  0  0  0  0  0  0  0  0  0  0  0
   16.1436   36.2115   17.5912 C   0  0  0  0  0  0  0  0  0  0  0  0
   16.9006   35.1563   17.0741 C   0  0  0  0  0  0  0  0  0  0  0  0
   18.4059   35.1855   17.2001 C   0  0  0  0  0  0  0  0  0  0  0  0
   14.1797   32.9193   15.6536 C   0  0  0  0  0  0  0  0  0  0  0  0
   21.8695   32.3215   16.0687 C   0  0  0  0  0  0  0  0  0  0  0  0
   22.0360   33.8131   15.8452 C   0  0  0  0  0  0  0  0  0  0  0  0
   22.1550   34.3216   14.5505 C   0  0  0  0  0  0  0  0  0  0  0  0
   22.3239   35.6943   14.3197 C   0  0  0  0  0  0  0  0  0  0  0  0
   22.3681   36.5658   15.3927 C   0  0  0  0  0  0  0  0  0  0  0  0
   22.2364   36.0577   16.6927 C   0  0  0  0  0  0  0  0  0  0  0  0
   22.0744   34.6904   16.9289 C   0  0  0  0  0  0  0  0  0  0  0  0
   21.2007   28.5179   13.3127 C   0  0  0  0  0  0  0  0  0  0  0  0
   19.8488   28.0008   11.3223 C   0  0  0  0  0  0  0  0  0  0  0  0
   20.5110   27.6063   12.4121 N   0  0  0  0  0  0  0  0  0  0  0  0
   19.7472   29.1730   10.9833 O   0  0  0  0  0  0  0  0  0  0  0  0
   20.5342   26.6440   12.6183 H   0  0  0  0  0  0  0  0  0  0  0  0
   19.1890   26.8809   10.5501 C   0  0  0  0  0  0  0  0  0  0  0  0
   21.9862   24.8243    8.0798 C   0  0  0  0  0  0  0  0  0  0  0  0
   21.4265   25.8094   10.2957 C   0  0  0  0  0  0  0  0  0  0  0  0
   20.1751   26.2339    9.6521 N   0  0  0  0  0  0  0  0  0  0  0  0
   19.9164   26.1151    8.3365 C   0  0  0  0  0  0  0  0  0  0  0  0
   20.7970   25.4769    7.5633 N   0  0  0  0  0  0  0  0  0  0  0  0
   18.8882   26.5630    7.8370 O   0  0  0  0  0  0  0  0  0  0  0  0
   21.8588   24.5439    9.5712 C   0  0  0  0  0  0  0  0  0  0  0  0
   20.6317   25.4472    6.5933 H   0  0  0  0  0  0  0  0  0  0  0  0
   18.4455   25.8552   11.4207 C   0  0  0  0  0  0  0  0  0  0  0  0
   17.0561   26.3735   11.8060 C   0  0  0  0  0  0  0  0  0  0  0  0
   18.3282   24.5106   10.6965 C   0  0  0  0  0  0  0  0  0  0  0  0
   22.0344   29.5228   12.5086 C   0  0  0  0  0  0  0  0  0  0  0  0
   24.5344   28.1492   10.0331 C   0  0  0  0  0  0  0  0  0  0  0  0
   25.6123   27.8290   10.8552 C   0  0  0  0  0  0  0  0  0  0  0  0
   25.5312   28.0628   12.2227 C   0  0  0  0  0  0  0  0  0  0  0  0
   24.3720   28.6011   12.7630 C   0  0  0  0  0  0  0  0  0  0  0  0
   23.3046   28.9507   11.9323 C   0  0  0  0  0  0  0  0  0  0  0  0
   23.3852   28.7073   10.5723 C   0  0  0  0  0  0  0  0  0  0  0  0
 33 37  1  0  0  0
 33 39  1  0  0  0
 34 35  1  0  0  0
 34 39  1  0  0  0
 35 36  1  0  0  0
 35 32  1  0  0  0
 36 37  1  0  0  0
 36 38  2  0  0  0
 21 22  2  0  0  0
 21 26  1  0  0  0
 21 20  1  0  0  0
 22 23  1  0  0  0
 23 24  2  0  0  0
 24 25  1  0  0  0
 25 26  2  0  0  0
 32 28  1  0  0  0
 32 41  1  0  0  0
 28 29  1  0  0  0
 28 30  2  0  0  0
 29 27  1  0  0  0
 27 44  1  0  0  0
 27  1  1  0  0  0
 41 42  1  0  0  0
 41 43  1  0  0  0
 45 46  2  0  0  0
 45 50  1  0  0  0
 46 47  1  0  0  0
 47 48  2  0  0  0
 48 49  1  0  0  0
 49 50  2  0  0  0
 49 44  1  0  0  0
  1  2  1  0  0  0
  2  5  1  0  0  0
  2  3  1  0  0  0
  5  6  1  0  0  0
  5 20  1  0  0  0
  6  7  1  0  0  0
  7 10  1  0  0  0
  7  8  2  0  0  0
 10 11  1  0  0  0
 11 12  1  0  0  0
 12 13  2  0  0  0
 12 17  1  0  0  0
 13 14  1  0  0  0
 13 19  1  0  0  0
 14 15  2  0  0  0
 15 16  1  0  0  0
 16 17  2  0  0  0
 17 18  1  0  0  0
 37 40  1  0  0  0
 29 31  1  0  0  0
  6  9  1  0  0  0
  3  4  1  0  0  0
M  END
> <minimizedAffinity>
-10.15164

$$$$
2Q5K_AB1_A_201


 50 53  0  0  0  0  0  0  0  0999 V2000
   21.3475   31.6030   12.5052 C   0  0  0  0  0  0  0  0  0  0  0  0
   20.3233   30.6623   11.8747 C   0  0  0  0  0  0  0  0  0  0  0  0
   19.8353   31.3043   10.6824 O   0  0  0  0  0  0  0  0  0  0  0  0
   19.3969   32.1364   10.9196 H   0  0  0  0  0  0  0  0  0  0  0  0
   19.1488   30.2750   12.7867 C   0  0  0  0  0  0  0  0  0  0  0  0
   18.8341   31.3233   13.7439 N   0  0  0  0  0  0  0  0  0  0  0  0
   19.1146   31.2449   15.0579 C   0  0  0  0  0  0  0  0  0  0  0  0
   19.6670   30.3021   15.6034 O   0  0  0  0  0  0  0  0  0  0  0  0
   18.3904   32.1371   13.4119 H   0  0  0  0  0  0  0  0  0  0  0  0
   18.7317   32.4024   15.9528 C   0  0  0  0  0  0  0  0  0  0  0  0
   18.0050   33.4214   15.2853 O   0  0  0  0  0  0  0  0  0  0  0  0
   16.9198   33.9909   15.9030 C   0  0  0  0  0  0  0  0  0  0  0  0
   17.0977   35.0515   16.7859 C   0  0  0  0  0  0  0  0  0  0  0  0
   15.9879   35.6196   17.4086 C   0  0  0  0  0  0  0  0  0  0  0  0
   14.7038   35.1462   17.1502 C   0  0  0  0  0  0  0  0  0  0  0  0
   14.5312   34.0910   16.2695 C   0  0  0  0  0  0  0  0  0  0  0  0
   15.6368   33.5183   15.6344 C   0  0  0  0  0  0  0  0  0  0  0  0
   15.4322   32.3812   14.6608 C   0  0  0  0  0  0  0  0  0  0  0  0
   18.4779   35.5674   17.1022 C   0  0  0  0  0  0  0  0  0  0  0  0
   17.9264   29.9478   11.9076 C   0  0  0  0  0  0  0  0  0  0  0  0
   17.9303   28.5171   11.4022 C   0  0  0  0  0  0  0  0  0  0  0  0
   18.2722   27.4692   12.2590 C   0  0  0  0  0  0  0  0  0  0  0  0
   18.2966   26.1406   11.8112 C   0  0  0  0  0  0  0  0  0  0  0  0
   17.9706   25.8578   10.4972 C   0  0  0  0  0  0  0  0  0  0  0  0
   17.6153   26.9080    9.6392 C   0  0  0  0  0  0  0  0  0  0  0  0
   17.5955   28.2341   10.0781 C   0  0  0  0  0  0  0  0  0  0  0  0
   22.4803   30.9190   13.2766 C   0  0  0  0  0  0  0  0  0  0  0  0
   22.8523   28.5542   12.7054 C   0  0  0  0  0  0  0  0  0  0  0  0
   23.1140   29.8498   12.5195 N   0  0  0  0  0  0  0  0  0  0  0  0
   22.0610   28.1403   13.5432 O   0  0  0  0  0  0  0  0  0  0  0  0
   23.7732   30.0962   11.8310 H   0  0  0  0  0  0  0  0  0  0  0  0
   23.6477   27.6209   11.8211 C   0  0  0  0  0  0  0  0  0  0  0  0
   21.0735   25.5356    9.1414 C   0  0  0  0  0  0  0  0  0  0  0  0
   21.5189   27.5566   10.5238 C   0  0  0  0  0  0  0  0  0  0  0  0
   22.7335   26.8461   10.9486 N   0  0  0  0  0  0  0  0  0  0  0  0
   23.0155   25.5668   10.6392 C   0  0  0  0  0  0  0  0  0  0  0  0
   22.2042   24.9133    9.8054 N   0  0  0  0  0  0  0  0  0  0  0  0
   24.0042   24.9958   11.0904 O   0  0  0  0  0  0  0  0  0  0  0  0
   21.2101   27.0522    9.1225 C   0  0  0  0  0  0  0  0  0  0  0  0
   22.3816   23.9606    9.6318 H   0  0  0  0  0  0  0  0  0  0  0  0
   24.7688   28.3006   11.0187 C   0  0  0  0  0  0  0  0  0  0  0  0
   26.1130   27.6090   11.2679 C   0  0  0  0  0  0  0  0  0  0  0  0
   24.4423   28.3020    9.5221 C   0  0  0  0  0  0  0  0  0  0  0  0
   23.5047   32.0124   13.6027 C   0  0  0  0  0  0  0  0  0  0  0  0
   22.4885   35.5010   14.6333 C   0  0  0  0  0  0  0  0  0  0  0  0
   21.9995   35.2934   15.9209 C   0  0  0  0  0  0  0  0  0  0  0  0
   21.9952   34.0124   16.4598 C   0  0  0  0  0  0  0  0  0  0  0  0
   22.4905   32.9499   15.7172 C   0  0  0  0  0  0  0  0  0  0  0  0
   22.9509   33.1558   14.4144 C   0  0  0  0  0  0  0  0  0  0  0  0
   22.9628   34.4344   13.8848 C   0  0  0  0  0  0  0  0  0  0  0  0
 33 37  1  0  0  0
 33 39  1  0  0  0
 34 35  1  0  0  0
 34 39  1  0  0  0
 35 36  1  0  0  0
 35 32  1  0  0  0
 36 37  1  0  0  0
 36 38  2  0  0  0
 21 22  2  0  0  0
 21 26  1  0  0  0
 21 20  1  0  0  0
 22 23  1  0  0  0
 23 24  2  0  0  0
 24 25  1  0  0  0
 25 26  2  0  0  0
 32 28  1  0  0  0
 32 41  1  0  0  0
 28 29  1  0  0  0
 28 30  2  0  0  0
 29 27  1  0  0  0
 27 44  1  0  0  0
 27  1  1  0  0  0
 41 42  1  0  0  0
 41 43  1  0  0  0
 45 46  2  0  0  0
 45 50  1  0  0  0
 46 47  1  0  0  0
 47 48  2  0  0  0
 48 49  1  0  0  0
 49 50  2  0  0  0
 49 44  1  0  0  0
  1  2  1  0  0  0
  2  5  1  0  0  0
  2  3  1  0  0  0
  5  6  1  0  0  0
  5 20  1  0  0  0
  6  7  1  0  0  0
  7 10  1  0  0  0
  7  8  2  0  0  0
 10 11  1  0  0  0
 11 12  1  0  0  0
 12 13  2  0  0  0
 12 17  1  0  0  0
 13 14  1  0  0  0
 13 19  1  0  0  0
 14 15  2  0  0  0
 15 16  1  0  0  0
 16 17  2  0  0  0
 17 18  1  0  0  0
 37 40  1  0  0  0
 29 31  1  0  0  0
  6  9  1  0  0  0
  3  4  1  0  0  0
M  END
> <minimizedAffinity>
-10.00794

$$$$
2Q5K_AB1_A_201


 50 53  0  0  0  0  0  0  0  0999 V2000
   19.1762   29.3612   13.6788 C   0  0  0  0  0  0  0  0  0  0  0  0
   20.0270   30.5840   14.0141 C   0  0  0  0  0  0  0  0  0  0  0  0
   21.0634   30.1463   14.9119 O   0  0  0  0  0  0  0  0  0  0  0  0
   20.6626   29.8063   15.7272 H   0  0  0  0  0  0  0  0  0  0  0  0
   19.2566   31.7630   14.6286 C   0  0  0  0  0  0  0  0  0  0  0  0
   19.9418   33.0286   14.4211 N   0  0  0  0  0  0  0  0  0  0  0  0
   20.9645   33.4589   15.1828 C   0  0  0  0  0  0  0  0  0  0  0  0
   21.4445   32.8478   16.1250 O   0  0  0  0  0  0  0  0  0  0  0  0
   19.6403   33.6037   13.6810 H   0  0  0  0  0  0  0  0  0  0  0  0
   21.5917   34.7985   14.8675 C   0  0  0  0  0  0  0  0  0  0  0  0
   21.7237   35.6450   15.9979 O   0  0  0  0  0  0  0  0  0  0  0  0
   20.8268   36.6670   16.1835 C   0  0  0  0  0  0  0  0  0  0  0  0
   20.9149   37.8205   15.4104 C   0  0  0  0  0  0  0  0  0  0  0  0
   19.9995   38.8521   15.6101 C   0  0  0  0  0  0  0  0  0  0  0  0
   18.9926   38.7385   16.5656 C   0  0  0  0  0  0  0  0  0  0  0  0
   18.9076   37.5878   17.3321 C   0  0  0  0  0  0  0  0  0  0  0  0
   19.8165   36.5442   17.1353 C   0  0  0  0  0  0  0  0  0  0  0  0
   19.6999   35.2865   17.9644 C   0  0  0  0  0  0  0  0  0  0  0  0
   22.0092   37.9799   14.3865 C   0  0  0  0  0  0  0  0  0  0  0  0
   17.8402   31.7985   14.0227 C   0  0  0  0  0  0  0  0  0  0  0  0
   16.8400   32.5215   14.9054 C   0  0  0  0  0  0  0  0  0  0  0  0
   15.4749   32.2539   14.7874 C   0  0  0  0  0  0  0  0  0  0  0  0
   14.5307   32.9194   15.5821 C   0  0  0  0  0  0  0  0  0  0  0  0
   14.9563   33.8560   16.5065 C   0  0  0  0  0  0  0  0  0  0  0  0
   16.3279   34.1167   16.6346 C   0  0  0  0  0  0  0  0  0  0  0  0
   17.2725   33.4613   15.8410 C   0  0  0  0  0  0  0  0  0  0  0  0
   19.4603   28.7163   12.3188 C   0  0  0  0  0  0  0  0  0  0  0  0
   21.6362   28.2224   11.2803 C   0  0  0  0  0  0  0  0  0  0  0  0
   20.7543   28.0524   12.2679 N   0  0  0  0  0  0  0  0  0  0  0  0
   21.4333   28.9455   10.3133 O   0  0  0  0  0  0  0  0  0  0  0  0
   20.9929   27.4432   13.0036 H   0  0  0  0  0  0  0  0  0  0  0  0
   22.9041   27.4118   11.4258 C   0  0  0  0  0  0  0  0  0  0  0  0
   23.6038   24.8500    8.0935 C   0  0  0  0  0  0  0  0  0  0  0  0
   23.6089   27.1484    9.0481 C   0  0  0  0  0  0  0  0  0  0  0  0
   23.0686   26.5130   10.2585 N   0  0  0  0  0  0  0  0  0  0  0  0
   22.6853   25.2251   10.3367 C   0  0  0  0  0  0  0  0  0  0  0  0
   22.8989   24.4262    9.2895 N   0  0  0  0  0  0  0  0  0  0  0  0
   22.1620   24.7669   11.3483 O   0  0  0  0  0  0  0  0  0  0  0  0
   24.4527   26.0855    8.3613 C   0  0  0  0  0  0  0  0  0  0  0  0
   22.5612   23.5023    9.3301 H   0  0  0  0  0  0  0  0  0  0  0  0
   24.1684   28.2444   11.6923 C   0  0  0  0  0  0  0  0  0  0  0  0
   23.9552   29.1948   12.8749 C   0  0  0  0  0  0  0  0  0  0  0  0
   25.3733   27.3351   11.9528 C   0  0  0  0  0  0  0  0  0  0  0  0
   18.3371   27.7005   12.0776 C   0  0  0  0  0  0  0  0  0  0  0  0
   18.7723   25.4059    9.1094 C   0  0  0  0  0  0  0  0  0  0  0  0
   18.2576   26.1753    8.0687 C   0  0  0  0  0  0  0  0  0  0  0  0
   17.7618   27.4471    8.3299 C   0  0  0  0  0  0  0  0  0  0  0  0
   17.7949   27.9482    9.6234 C   0  0  0  0  0  0  0  0  0  0  0  0
   18.2824   27.1623   10.6704 C   0  0  0  0  0  0  0  0  0  0  0  0
   18.7844   25.9002   10.4050 C   0  0  0  0  0  0  0  0  0  0  0  0
 33 37  1  0  0  0
 33 39  1  0  0  0
 34 35  1  0  0  0
 34 39  1  0  0  0
 35 36  1  0  0  0
 35 32  1  0  0  0
 36 37  1  0  0  0
 36 38  2  0  0  0
 21 22  2  0  0  0
 21 26  1  0  0  0
 21 20  1  0  0  0
 22 23  1  0  0  0
 23 24  2  0  0  0
 24 25  1  0  0  0
 25 26  2  0  0  0
 32 28  1  0  0  0
 32 41  1  0  0  0
 28 29  1  0  0  0
 28 30  2  0  0  0
 29 27  1  0  0  0
 27 44  1  0  0  0
 27  1  1  0  0  0
 41 42  1  0  0  0
 41 43  1  0  0  0
 45 46  2  0  0  0
 45 50  1  0  0  0
 46 47  1  0  0  0
 47 48  2  0  0  0
 48 49  1  0  0  0
 49 50  2  0  0  0
 49 44  1  0  0  0
  1  2  1  0  0  0
  2  5  1  0  0  0
  2  3  1  0  0  0
  5  6  1  0  0  0
  5 20  1  0  0  0
  6  7  1  0  0  0
  7 10  1  0  0  0
  7  8  2  0  0  0
 10 11  1  0  0  0
 11 12  1  0  0  0
 12 13  2  0  0  0
 12 17  1  0  0  0
 13 14  1  0  0  0
 13 19  1  0  0  0
 14 15  2  0  0  0
 15 16  1  0  0  0
 16 17  2  0  0  0
 17 18  1  0  0  0
 37 40  1  0  0  0
 29 31  1  0  0  0
  6  9  1  0  0  0
  3  4  1  0  0  0
M  END
> <minimizedAffinity>
-9.87157

$$$$
2Q5K_AB1_A_201


 50 53  0  0  0  0  0  0  0  0999 V2000
   20.3050   30.2656   15.2968 C   0  0  0  0  0  0  0  0  0  0  0  0
   19.3063   29.5310   14.4054 C   0  0  0  0  0  0  0  0  0  0  0  0
   19.6537   28.1346   14.4404 O   0  0  0  0  0  0  0  0  0  0  0  0
   20.5467   28.0145   14.0812 H   0  0  0  0  0  0  0  0  0  0  0  0
   19.2462   30.0258   12.9519 C   0  0  0  0  0  0  0  0  0  0  0  0
   20.3125   29.4617   12.1400 N   0  0  0  0  0  0  0  0  0  0  0  0
   20.8208   30.0647   11.0494 C   0  0  0  0  0  0  0  0  0  0  0  0
   20.4625   31.1481   10.6143 O   0  0  0  0  0  0  0  0  0  0  0  0
   20.6839   28.5887   12.4032 H   0  0  0  0  0  0  0  0  0  0  0  0
   21.9271   29.3718   10.2856 C   0  0  0  0  0  0  0  0  0  0  0  0
   22.2414   28.0818   10.7845 O   0  0  0  0  0  0  0  0  0  0  0  0
   23.5526   27.6798   10.8365 C   0  0  0  0  0  0  0  0  0  0  0  0
   24.3409   28.0143   11.9332 C   0  0  0  0  0  0  0  0  0  0  0  0
   25.6716   27.6022   11.9730 C   0  0  0  0  0  0  0  0  0  0  0  0
   26.2182   26.8518   10.9349 C   0  0  0  0  0  0  0  0  0  0  0  0
   25.4295   26.5198    9.8457 C   0  0  0  0  0  0  0  0  0  0  0  0
   24.0917   26.9223    9.7986 C   0  0  0  0  0  0  0  0  0  0  0  0
   23.2372   26.5361    8.6140 C   0  0  0  0  0  0  0  0  0  0  0  0
   23.7819   28.8460   13.0588 C   0  0  0  0  0  0  0  0  0  0  0  0
   17.8647   29.6751   12.3663 C   0  0  0  0  0  0  0  0  0  0  0  0
   17.9102   28.4911   11.4184 C   0  0  0  0  0  0  0  0  0  0  0  0
   17.9794   27.1902   11.9203 C   0  0  0  0  0  0  0  0  0  0  0  0
   18.0366   26.0812   11.0643 C   0  0  0  0  0  0  0  0  0  0  0  0
   18.0185   26.2751    9.6949 C   0  0  0  0  0  0  0  0  0  0  0  0
   17.9368   27.5803    9.1898 C   0  0  0  0  0  0  0  0  0  0  0  0
   17.8860   28.6892   10.0379 C   0  0  0  0  0  0  0  0  0  0  0  0
   20.2752   31.7937   15.1961 C   0  0  0  0  0  0  0  0  0  0  0  0
   18.1432   33.0229   15.1994 C   0  0  0  0  0  0  0  0  0  0  0  0
   19.1153   32.3804   15.8504 N   0  0  0  0  0  0  0  0  0  0  0  0
   18.1422   33.1919   13.9866 O   0  0  0  0  0  0  0  0  0  0  0  0
   19.0435   32.2987   16.8289 H   0  0  0  0  0  0  0  0  0  0  0  0
   17.0495   33.5707   16.0879 C   0  0  0  0  0  0  0  0  0  0  0  0
   17.6282   37.6685   17.1024 C   0  0  0  0  0  0  0  0  0  0  0  0
   16.6785   35.9761   15.5443 C   0  0  0  0  0  0  0  0  0  0  0  0
   17.3270   34.9888   16.4189 N   0  0  0  0  0  0  0  0  0  0  0  0
   18.1639   35.2971   17.4271 C   0  0  0  0  0  0  0  0  0  0  0  0
   18.3492   36.5813   17.7386 N   0  0  0  0  0  0  0  0  0  0  0  0
   18.7444   34.4296   18.0733 O   0  0  0  0  0  0  0  0  0  0  0  0
   16.3560   37.1693   16.4307 C   0  0  0  0  0  0  0  0  0  0  0  0
   19.0086   36.8025   18.4355 H   0  0  0  0  0  0  0  0  0  0  0  0
   15.6253   33.3762   15.5432 C   0  0  0  0  0  0  0  0  0  0  0  0
   15.4047   31.9258   15.1016 C   0  0  0  0  0  0  0  0  0  0  0  0
   14.5827   33.7761   16.5917 C   0  0  0  0  0  0  0  0  0  0  0  0
   21.5640   32.2969   15.8575 C   0  0  0  0  0  0  0  0  0  0  0  0
   22.2073   35.6833   14.3136 C   0  0  0  0  0  0  0  0  0  0  0  0
   22.2853   36.5047   15.4357 C   0  0  0  0  0  0  0  0  0  0  0  0
   22.1249   35.9589   16.7037 C   0  0  0  0  0  0  0  0  0  0  0  0
   21.9015   34.5967   16.8451 C   0  0  0  0  0  0  0  0  0  0  0  0
   21.7921   33.7805   15.7167 C   0  0  0  0  0  0  0  0  0  0  0  0
   21.9623   34.3259   14.4561 C   0  0  0  0  0  0  0  0  0  0  0  0
 33 37  1  0  0  0
 33 39  1  0  0  0
 34 35  1  0  0  0
 34 39  1  0  0  0
 35 36  1  0  0  0
 35 32  1  0  0  0
 36 37  1  0  0  0
 36 38  2  0  0  0
 21 22  2  0  0  0
 21 26  1  0  0  0
 21 20  1  0  0  0
 22 23  1  0  0  0
 23 24  2  0  0  0
 24 25  1  0  0  0
 25 26  2  0  0  0
 32 28  1  0  0  0
 32 41  1  0  0  0
 28 29  1  0  0  0
 28 30  2  0  0  0
 29 27  1  0  0  0
 27 44  1  0  0  0
 27  1  1  0  0  0
 41 42  1  0  0  0
 41 43  1  0  0  0
 45 46  2  0  0  0
 45 50  1  0  0  0
 46 47  1  0  0  0
 47 48  2  0  0  0
 48 49  1  0  0  0
 49 50  2  0  0  0
 49 44  1  0  0  0
  1  2  1  0  0  0
  2  5  1  0  0  0
  2  3  1  0  0  0
  5  6  1  0  0  0
  5 20  1  0  0  0
  6  7  1  0  0  0
  7 10  1  0  0  0
  7  8  2  0  0  0
 10 11  1  0  0  0
 11 12  1  0  0  0
 12 13  2  0  0  0
 12 17  1  0  0  0
 13 14  1  0  0  0
 13 19  1  0  0  0
 14 15  2  0  0  0
 15 16  1  0  0  0
 16 17  2  0  0  0
 17 18  1  0  0  0
 37 40  1  0  0  0
 29 31  1  0  0  0
  6  9  1  0  0  0
  3  4  1  0  0  0
M  END
> <minimizedAffinity>
-9.79591

$$$$
2Q5K_AB1_A_201


 50 53  0  0  0  0  0  0  0  0999 V2000
   22.3485   30.6706   12.5766 C   0  0  0  0  0  0  0  0  0  0  0  0
   20.8893   31.0956   12.7242 C   0  0  0  0  0  0  0  0  0  0  0  0
   20.4123   31.4382   11.4101 O   0  0  0  0  0  0  0  0  0  0  0  0
   20.9260   32.1848   11.0642 H   0  0  0  0  0  0  0  0  0  0  0  0
   20.6471   32.2606   13.6964 C   0  0  0  0  0  0  0  0  0  0  0  0
   19.3674   32.1446   14.3773 N   0  0  0  0  0  0  0  0  0  0  0  0
   18.1959   32.5292   13.8379 C   0  0  0  0  0  0  0  0  0  0  0  0
   18.0596   33.0096   12.7234 O   0  0  0  0  0  0  0  0  0  0  0  0
   19.3575   31.7628   15.2847 H   0  0  0  0  0  0  0  0  0  0  0  0
   16.9318   32.3605   14.6508 C   0  0  0  0  0  0  0  0  0  0  0  0
   17.0614   32.7832   15.9985 O   0  0  0  0  0  0  0  0  0  0  0  0
   16.3776   33.8939   16.4256 C   0  0  0  0  0  0  0  0  0  0  0  0
   14.9901   33.9370   16.3315 C   0  0  0  0  0  0  0  0  0  0  0  0
   14.3077   35.0715   16.7663 C   0  0  0  0  0  0  0  0  0  0  0  0
   14.9958   36.1570   17.3031 C   0  0  0  0  0  0  0  0  0  0  0  0
   16.3770   36.1093   17.3963 C   0  0  0  0  0  0  0  0  0  0  0  0
   17.0709   34.9735   16.9692 C   0  0  0  0  0  0  0  0  0  0  0  0
   18.5758   34.9269   17.0953 C   0  0  0  0  0  0  0  0  0  0  0  0
   14.2226   32.7867   15.7324 C   0  0  0  0  0  0  0  0  0  0  0  0
   21.8068   32.3091   14.7098 C   0  0  0  0  0  0  0  0  0  0  0  0
   22.0129   33.6902   15.3035 C   0  0  0  0  0  0  0  0  0  0  0  0
   22.1029   33.8553   16.6868 C   0  0  0  0  0  0  0  0  0  0  0  0
   22.2791   35.1231   17.2592 C   0  0  0  0  0  0  0  0  0  0  0  0
   22.3720   36.2340   16.4405 C   0  0  0  0  0  0  0  0  0  0  0  0
   22.2940   36.0680   15.0506 C   0  0  0  0  0  0  0  0  0  0  0  0
   22.1121   34.8082   14.4751 C   0  0  0  0  0  0  0  0  0  0  0  0
   22.6531   29.2211   12.9667 C   0  0  0  0  0  0  0  0  0  0  0  0
   20.7520   27.7540   12.4276 C   0  0  0  0  0  0  0  0  0  0  0  0
   21.9546   28.2533   12.1339 N   0  0  0  0  0  0  0  0  0  0  0  0
   20.1262   28.0540   13.4364 O   0  0  0  0  0  0  0  0  0  0  0  0
   22.3941   27.9497   11.3070 H   0  0  0  0  0  0  0  0  0  0  0  0
   20.2316   26.7447   11.4295 C   0  0  0  0  0  0  0  0  0  0  0  0
   16.4334   28.0805   10.0348 C   0  0  0  0  0  0  0  0  0  0  0  0
   17.8204   26.2614   11.0149 C   0  0  0  0  0  0  0  0  0  0  0  0
   18.9383   27.2047   10.8699 N   0  0  0  0  0  0  0  0  0  0  0  0
   18.8583   28.3894   10.2359 C   0  0  0  0  0  0  0  0  0  0  0  0
   17.6692   28.8027    9.7936 N   0  0  0  0  0  0  0  0  0  0  0  0
   19.8445   29.1016   10.0704 O   0  0  0  0  0  0  0  0  0  0  0  0
   16.5765   27.1159   11.2044 C   0  0  0  0  0  0  0  0  0  0  0  0
   17.6279   29.6401    9.2775 H   0  0  0  0  0  0  0  0  0  0  0  0
   21.2313   26.3623   10.3262 C   0  0  0  0  0  0  0  0  0  0  0  0
   22.1917   25.2734   10.8153 C   0  0  0  0  0  0  0  0  0  0  0  0
   20.4972   25.8952    9.0655 C   0  0  0  0  0  0  0  0  0  0  0  0
   24.1694   29.0429   12.8227 C   0  0  0  0  0  0  0  0  0  0  0  0
   25.8211   26.3304   10.7785 C   0  0  0  0  0  0  0  0  0  0  0  0
   25.4179   26.6541    9.4853 C   0  0  0  0  0  0  0  0  0  0  0  0
   24.6012   27.7582    9.2725 C   0  0  0  0  0  0  0  0  0  0  0  0
   24.2033   28.5394   10.3481 C   0  0  0  0  0  0  0  0  0  0  0  0
   24.5830   28.1942   11.6474 C   0  0  0  0  0  0  0  0  0  0  0  0
   25.4045   27.0998   11.8544 C   0  0  0  0  0  0  0  0  0  0  0  0
 33 37  1  0  0  0
 33 39  1  0  0  0
 34 35  1  0  0  0
 34 39  1  0  0  0
 35 36  1  0  0  0
 35 32  1  0  0  0
 36 37  1  0  0  0
 36 38  2  0  0  0
 21 22  2  0  0  0
 21 26  1  0  0  0
 21 20  1  0  0  0
 22 23  1  0  0  0
 23 24  2  0  0  0
 24 25  1  0  0  0
 25 26  2  0  0  0
 32 28  1  0  0  0
 32 41  1  0  0  0
 28 29  1  0  0  0
 28 30  2  0  0  0
 29 27  1  0  0  0
 27 44  1  0  0  0
 27  1  1  0  0  0
 41 42  1  0  0  0
 41 43  1  0  0  0
 45 46  2  0  0  0
 45 50  1  0  0  0
 46 47  1  0  0  0
 47 48  2  0  0  0
 48 49  1  0  0  0
 49 50  2  0  0  0
 49 44  1  0  0  0
  1  2  1  0  0  0
  2  5  1  0  0  0
  2  3  1  0  0  0
  5  6  1  0  0  0
  5 20  1  0  0  0
  6  7  1  0  0  0
  7 10  1  0  0  0
  7  8  2  0  0  0
 10 11  1  0  0  0
 11 12  1  0  0  0
 12 13  2  0  0  0
 12 17  1  0  0  0
 13 14  1  0  0  0
 13 19  1  0  0  0
 14 15  2  0  0  0
 15 16  1  0  0  0
 16 17  2  0  0  0
 17 18  1  0  0  0
 37 40  1  0  0  0
 29 31  1  0  0  0
  6  9  1  0  0  0
  3  4  1  0  0  0
M  END
> <minimizedAffinity>
-9.73807

$$$$
2Q5K_AB1_A_201


 50 53  0  0  0  0  0  0  0  0999 V2000
   19.8657   30.4273   13.3124 C   0  0  0  0  0  0  0  0  0  0  0  0
   20.0787   30.9757   14.7215 C   0  0  0  0  0  0  0  0  0  0  0  0
   19.7927   29.9057   15.6407 O   0  0  0  0  0  0  0  0  0  0  0  0
   18.8665   29.6345   15.5432 H   0  0  0  0  0  0  0  0  0  0  0  0
   19.2379   32.2135   15.0709 C   0  0  0  0  0  0  0  0  0  0  0  0
   19.9550   33.4508   14.8077 N   0  0  0  0  0  0  0  0  0  0  0  0
   21.0844   33.8105   15.4452 C   0  0  0  0  0  0  0  0  0  0  0  0
   21.6459   33.1509   16.3061 O   0  0  0  0  0  0  0  0  0  0  0  0
   19.5936   34.0603   14.1242 H   0  0  0  0  0  0  0  0  0  0  0  0
   21.7344   35.1275   15.0840 C   0  0  0  0  0  0  0  0  0  0  0  0
   21.7472   36.0661   16.1474 O   0  0  0  0  0  0  0  0  0  0  0  0
   20.7361   36.9891   16.2443 C   0  0  0  0  0  0  0  0  0  0  0  0
   19.6602   36.7573   17.0957 C   0  0  0  0  0  0  0  0  0  0  0  0
   18.6388   37.7012   17.1834 C   0  0  0  0  0  0  0  0  0  0  0  0
   18.6868   38.8769   16.4383 C   0  0  0  0  0  0  0  0  0  0  0  0
   19.7604   39.1043   15.5931 C   0  0  0  0  0  0  0  0  0  0  0  0
   20.7937   38.1673   15.5025 C   0  0  0  0  0  0  0  0  0  0  0  0
   21.9686   38.4374   14.5918 C   0  0  0  0  0  0  0  0  0  0  0  0
   19.5709   35.4827   17.8948 C   0  0  0  0  0  0  0  0  0  0  0  0
   17.9218   32.1598   14.2713 C   0  0  0  0  0  0  0  0  0  0  0  0
   16.7563   32.7880   15.0126 C   0  0  0  0  0  0  0  0  0  0  0  0
   16.9661   33.8782   15.8590 C   0  0  0  0  0  0  0  0  0  0  0  0
   15.9073   34.4665   16.5653 C   0  0  0  0  0  0  0  0  0  0  0  0
   14.6272   33.9636   16.4189 C   0  0  0  0  0  0  0  0  0  0  0  0
   14.4133   32.8766   15.5597 C   0  0  0  0  0  0  0  0  0  0  0  0
   15.4654   32.2825   14.8586 C   0  0  0  0  0  0  0  0  0  0  0  0
   20.8539   29.3423   12.8736 C   0  0  0  0  0  0  0  0  0  0  0  0
   19.6427   28.3892   10.9548 C   0  0  0  0  0  0  0  0  0  0  0  0
   20.2126   28.2519   12.1540 N   0  0  0  0  0  0  0  0  0  0  0  0
   19.5936   29.4528   10.3502 O   0  0  0  0  0  0  0  0  0  0  0  0
   20.1983   27.3625   12.5758 H   0  0  0  0  0  0  0  0  0  0  0  0
   19.0169   27.1254   10.4099 C   0  0  0  0  0  0  0  0  0  0  0  0
   21.7512   24.9186    7.9996 C   0  0  0  0  0  0  0  0  0  0  0  0
   21.2626   26.0726   10.1498 C   0  0  0  0  0  0  0  0  0  0  0  0
   19.9782   26.4229    9.5268 N   0  0  0  0  0  0  0  0  0  0  0  0
   19.6689   26.1928    8.2371 C   0  0  0  0  0  0  0  0  0  0  0  0
   20.5296   25.5076    7.4821 N   0  0  0  0  0  0  0  0  0  0  0  0
   18.6128   26.5818    7.7465 O   0  0  0  0  0  0  0  0  0  0  0  0
   21.6897   24.7591    9.5127 C   0  0  0  0  0  0  0  0  0  0  0  0
   20.3259   25.3959    6.5254 H   0  0  0  0  0  0  0  0  0  0  0  0
   18.4298   26.1900   11.4791 C   0  0  0  0  0  0  0  0  0  0  0  0
   17.0547   26.6845   11.9394 C   0  0  0  0  0  0  0  0  0  0  0  0
   18.3284   24.7559   10.9504 C   0  0  0  0  0  0  0  0  0  0  0  0
   21.8849   30.0335   11.9730 C   0  0  0  0  0  0  0  0  0  0  0  0
   25.1771   28.2722   12.5419 C   0  0  0  0  0  0  0  0  0  0  0  0
   25.4703   27.7853   11.2703 C   0  0  0  0  0  0  0  0  0  0  0  0
   24.5933   28.0259   10.2195 C   0  0  0  0  0  0  0  0  0  0  0  0
   23.4374   28.7612   10.4402 C   0  0  0  0  0  0  0  0  0  0  0  0
   23.1300   29.2212   11.7230 C   0  0  0  0  0  0  0  0  0  0  0  0
   24.0107   28.9882   12.7649 C   0  0  0  0  0  0  0  0  0  0  0  0
 33 37  1  0  0  0
 33 39  1  0  0  0
 34 35  1  0  0  0
 34 39  1  0  0  0
 35 36  1  0  0  0
 35 32  1  0  0  0
 36 37  1  0  0  0
 36 38  2  0  0  0
 21 22  2  0  0  0
 21 26  1  0  0  0
 21 20  1  0  0  0
 22 23  1  0  0  0
 23 24  2  0  0  0
 24 25  1  0  0  0
 25 26  2  0  0  0
 32 28  1  0  0  0
 32 41  1  0  0  0
 28 29  1  0  0  0
 28 30  2  0  0  0
 29 27  1  0  0  0
 27 44  1  0  0  0
 27  1  1  0  0  0
 41 42  1  0  0  0
 41 43  1  0  0  0
 45 46  2  0  0  0
 45 50  1  0  0  0
 46 47  1  0  0  0
 47 48  2  0  0  0
 48 49  1  0  0  0
 49 50  2  0  0  0
 49 44  1  0  0  0
  1  2  1  0  0  0
  2  5  1  0  0  0
  2  3  1  0  0  0
  5  6  1  0  0  0
  5 20  1  0  0  0
  6  7  1  0  0  0
  7 10  1  0  0  0
  7  8  2  0  0  0
 10 11  1  0  0  0
 11 12  1  0  0  0
 12 13  2  0  0  0
 12 17  1  0  0  0
 13 14  1  0  0  0
 13 19  1  0  0  0
 14 15  2  0  0  0
 15 16  1  0  0  0
 16 17  2  0  0  0
 17 18  1  0  0  0
 37 40  1  0  0  0
 29 31  1  0  0  0
  6  9  1  0  0  0
  3  4  1  0  0  0
M  END
> <minimizedAffinity>
-9.63379

$$$$
2Q5K_AB1_A_201


 50 53  0  0  0  0  0  0  0  0999 V2000
   18.0012   31.4158   12.9914 C   0  0  0  0  0  0  0  0  0  0  0  0
   18.3801   30.0245   13.4935 C   0  0  0  0  0  0  0  0  0  0  0  0
   19.2708   30.2045   14.6098 O   0  0  0  0  0  0  0  0  0  0  0  0
   20.0724   30.6631   14.3132 H   0  0  0  0  0  0  0  0  0  0  0  0
   19.0259   29.1080   12.4427 C   0  0  0  0  0  0  0  0  0  0  0  0
   20.4675   29.0187   12.6103 N   0  0  0  0  0  0  0  0  0  0  0  0
   21.3408   29.8679   12.0381 C   0  0  0  0  0  0  0  0  0  0  0  0
   21.0384   30.8108   11.3233 O   0  0  0  0  0  0  0  0  0  0  0  0
   20.8252   28.2956   13.1746 H   0  0  0  0  0  0  0  0  0  0  0  0
   22.8190   29.6662   12.2862 C   0  0  0  0  0  0  0  0  0  0  0  0
   23.5396   29.2628   11.1329 O   0  0  0  0  0  0  0  0  0  0  0  0
   23.8296   27.9339   10.9496 C   0  0  0  0  0  0  0  0  0  0  0  0
   24.9072   27.3576   11.6149 C   0  0  0  0  0  0  0  0  0  0  0  0
   25.1927   26.0078   11.4184 C   0  0  0  0  0  0  0  0  0  0  0  0
   24.4074   25.2273   10.5735 C   0  0  0  0  0  0  0  0  0  0  0  0
   23.3347   25.8048    9.9143 C   0  0  0  0  0  0  0  0  0  0  0  0
   23.0354   27.1561   10.1093 C   0  0  0  0  0  0  0  0  0  0  0  0
   21.8504   27.7682    9.3996 C   0  0  0  0  0  0  0  0  0  0  0  0
   25.7880   28.1846   12.5157 C   0  0  0  0  0  0  0  0  0  0  0  0
   18.3742   27.7146   12.5336 C   0  0  0  0  0  0  0  0  0  0  0  0
   18.5289   26.9078   11.2579 C   0  0  0  0  0  0  0  0  0  0  0  0
   18.1189   27.4404   10.0343 C   0  0  0  0  0  0  0  0  0  0  0  0
   18.2387   26.7085    8.8444 C   0  0  0  0  0  0  0  0  0  0  0  0
   18.7786   25.4356    8.8781 C   0  0  0  0  0  0  0  0  0  0  0  0
   19.2020   24.9044   10.1045 C   0  0  0  0  0  0  0  0  0  0  0  0
   19.0791   25.6265   11.2940 C   0  0  0  0  0  0  0  0  0  0  0  0
   18.2155   32.5560   13.9915 C   0  0  0  0  0  0  0  0  0  0  0  0
   20.1688   33.6801   14.9804 C   0  0  0  0  0  0  0  0  0  0  0  0
   19.5609   33.1082   13.9387 N   0  0  0  0  0  0  0  0  0  0  0  0
   19.6447   33.8069   16.0797 O   0  0  0  0  0  0  0  0  0  0  0  0
   20.0506   33.0570   13.0862 H   0  0  0  0  0  0  0  0  0  0  0  0
   21.5559   34.2048   14.6862 C   0  0  0  0  0  0  0  0  0  0  0  0
   22.5087   37.6340   17.0290 C   0  0  0  0  0  0  0  0  0  0  0  0
   21.8892   35.2253   16.9371 C   0  0  0  0  0  0  0  0  0  0  0  0
   21.8157   35.4274   15.4831 N   0  0  0  0  0  0  0  0  0  0  0  0
   21.9166   36.6235   14.8739 C   0  0  0  0  0  0  0  0  0  0  0  0
   22.2081   37.6973   15.6104 N   0  0  0  0  0  0  0  0  0  0  0  0
   21.7639   36.7464   13.6620 O   0  0  0  0  0  0  0  0  0  0  0  0
   22.9151   36.2267   17.4452 C   0  0  0  0  0  0  0  0  0  0  0  0
   22.2199   38.5774   15.1692 H   0  0  0  0  0  0  0  0  0  0  0  0
   22.6789   33.1671   14.8437 C   0  0  0  0  0  0  0  0  0  0  0  0
   22.1154   31.8221   15.3135 C   0  0  0  0  0  0  0  0  0  0  0  0
   23.4452   32.9913   13.5291 C   0  0  0  0  0  0  0  0  0  0  0  0
   17.1875   33.6387   13.6415 C   0  0  0  0  0  0  0  0  0  0  0  0
   15.1504   35.0887   16.4722 C   0  0  0  0  0  0  0  0  0  0  0  0
   14.1507   34.1320   16.6313 C   0  0  0  0  0  0  0  0  0  0  0  0
   14.1332   33.0088   15.8130 C   0  0  0  0  0  0  0  0  0  0  0  0
   15.1193   32.8404   14.8514 C   0  0  0  0  0  0  0  0  0  0  0  0
   16.1023   33.8167   14.6728 C   0  0  0  0  0  0  0  0  0  0  0  0
   16.1224   34.9290   15.4961 C   0  0  0  0  0  0  0  0  0  0  0  0
 33 37  1  0  0  0
 33 39  1  0  0  0
 34 35  1  0  0  0
 34 39  1  0  0  0
 35 36  1  0  0  0
 35 32  1  0  0  0
 36 37  1  0  0  0
 36 38  2  0  0  0
 21 22  2  0  0  0
 21 26  1  0  0  0
 21 20  1  0  0  0
 22 23  1  0  0  0
 23 24  2  0  0  0
 24 25  1  0  0  0
 25 26  2  0  0  0
 32 28  1  0  0  0
 32 41  1  0  0  0
 28 29  1  0  0  0
 28 30  2  0  0  0
 29 27  1  0  0  0
 27 44  1  0  0  0
 27  1  1  0  0  0
 41 42  1  0  0  0
 41 43  1  0  0  0
 45 46  2  0  0  0
 45 50  1  0  0  0
 46 47  1  0  0  0
 47 48  2  0  0  0
 48 49  1  0  0  0
 49 50  2  0  0  0
 49 44  1  0  0  0
  1  2  1  0  0  0
  2  5  1  0  0  0
  2  3  1  0  0  0
  5  6  1  0  0  0
  5 20  1  0  0  0
  6  7  1  0  0  0
  7 10  1  0  0  0
  7  8  2  0  0  0
 10 11  1  0  0  0
 11 12  1  0  0  0
 12 13  2  0  0  0
 12 17  1  0  0  0
 13 14  1  0  0  0
 13 19  1  0  0  0
 14 15  2  0  0  0
 15 16  1  0  0  0
 16 17  2  0  0  0
 17 18  1  0  0  0
 37 40  1  0  0  0
 29 31  1  0  0  0
  6  9  1  0  0  0
  3  4  1  0  0  0
M  END
> <minimizedAffinity>
-9.58143

$$$$
2Q5K_AB1_A_201


 50 53  0  0  0  0  0  0  0  0999 V2000
   18.1292   31.5676   13.1413 C   0  0  0  0  0  0  0  0  0  0  0  0
   18.3778   30.1139   13.5366 C   0  0  0  0  0  0  0  0  0  0  0  0
   19.2488   30.1289   14.6824 O   0  0  0  0  0  0  0  0  0  0  0  0
   20.0935   30.5402   14.4411 H   0  0  0  0  0  0  0  0  0  0  0  0
   18.9748   29.2322   12.4287 C   0  0  0  0  0  0  0  0  0  0  0  0
   20.4129   29.0743   12.5740 N   0  0  0  0  0  0  0  0  0  0  0  0
   21.3163   29.8958   12.0079 C   0  0  0  0  0  0  0  0  0  0  0  0
   21.0476   30.8669   11.3177 O   0  0  0  0  0  0  0  0  0  0  0  0
   20.7448   28.3236   13.1176 H   0  0  0  0  0  0  0  0  0  0  0  0
   22.7870   29.6222   12.2307 C   0  0  0  0  0  0  0  0  0  0  0  0
   23.4719   29.2059   11.0605 O   0  0  0  0  0  0  0  0  0  0  0  0
   23.7468   27.8737   10.8779 C   0  0  0  0  0  0  0  0  0  0  0  0
   22.9364   27.1019   10.0511 C   0  0  0  0  0  0  0  0  0  0  0  0
   23.2247   25.7498    9.8758 C   0  0  0  0  0  0  0  0  0  0  0  0
   24.3188   25.1649   10.5088 C   0  0  0  0  0  0  0  0  0  0  0  0
   25.1238   25.9373   11.3298 C   0  0  0  0  0  0  0  0  0  0  0  0
   24.8475   27.2960   11.5074 C   0  0  0  0  0  0  0  0  0  0  0  0
   25.7456   28.1313   12.3897 C   0  0  0  0  0  0  0  0  0  0  0  0
   21.7321   27.7035    9.3735 C   0  0  0  0  0  0  0  0  0  0  0  0
   18.2664   27.8639   12.4493 C   0  0  0  0  0  0  0  0  0  0  0  0
   18.3758   27.1242   11.1290 C   0  0  0  0  0  0  0  0  0  0  0  0
   18.8969   25.8296   11.0888 C   0  0  0  0  0  0  0  0  0  0  0  0
   19.0209   25.1315    9.8791 C   0  0  0  0  0  0  0  0  0  0  0  0
   18.6147   25.7313    8.7009 C   0  0  0  0  0  0  0  0  0  0  0  0
   18.0799   27.0266    8.7415 C   0  0  0  0  0  0  0  0  0  0  0  0
   17.9600   27.7293    9.9430 C   0  0  0  0  0  0  0  0  0  0  0  0
   17.8511   32.5260   14.3034 C   0  0  0  0  0  0  0  0  0  0  0  0
   19.2462   33.5774   16.0369 C   0  0  0  0  0  0  0  0  0  0  0  0
   19.0474   33.2118   14.7686 N   0  0  0  0  0  0  0  0  0  0  0  0
   18.4316   33.3817   16.9299 O   0  0  0  0  0  0  0  0  0  0  0  0
   19.7500   33.4177   14.1105 H   0  0  0  0  0  0  0  0  0  0  0  0
   20.5517   34.2989   16.2840 C   0  0  0  0  0  0  0  0  0  0  0  0
   23.5807   33.2870   13.4631 C   0  0  0  0  0  0  0  0  0  0  0  0
   21.9650   34.9646   14.3401 C   0  0  0  0  0  0  0  0  0  0  0  0
   21.5526   33.9000   15.2659 N   0  0  0  0  0  0  0  0  0  0  0  0
   21.9823   32.6260   15.2021 C   0  0  0  0  0  0  0  0  0  0  0  0
   22.9259   32.3096   14.3132 N   0  0  0  0  0  0  0  0  0  0  0  0
   21.5411   31.7570   15.9488 O   0  0  0  0  0  0  0  0  0  0  0  0
   23.4277   34.6954   14.0214 C   0  0  0  0  0  0  0  0  0  0  0  0
   23.1914   31.3652   14.2298 H   0  0  0  0  0  0  0  0  0  0  0  0
   20.4264   35.8266   16.3985 C   0  0  0  0  0  0  0  0  0  0  0  0
   19.1739   36.2122   17.1920 C   0  0  0  0  0  0  0  0  0  0  0  0
   21.6747   36.4270   17.0526 C   0  0  0  0  0  0  0  0  0  0  0  0
   16.8260   33.5443   13.7897 C   0  0  0  0  0  0  0  0  0  0  0  0
   15.0357   35.4631   16.5059 C   0  0  0  0  0  0  0  0  0  0  0  0
   13.9208   34.6623   16.7416 C   0  0  0  0  0  0  0  0  0  0  0  0
   13.7444   33.4923   16.0127 C   0  0  0  0  0  0  0  0  0  0  0  0
   14.6869   33.1218   15.0640 C   0  0  0  0  0  0  0  0  0  0  0  0
   15.7876   33.9428   14.8074 C   0  0  0  0  0  0  0  0  0  0  0  0
   15.9651   35.1021   15.5422 C   0  0  0  0  0  0  0  0  0  0  0  0
 33 37  1  0  0  0
 33 39  1  0  0  0
 34 35  1  0  0  0
 34 39  1  0  0  0
 35 36  1  0  0  0
 35 32  1  0  0  0
 36 37  1  0  0  0
 36 38  2  0  0  0
 21 22  2  0  0  0
 21 26  1  0  0  0
 21 20  1  0  0  0
 22 23  1  0  0  0
 23 24  2  0  0  0
 24 25  1  0  0  0
 25 26  2  0  0  0
 32 28  1  0  0  0
 32 41  1  0  0  0
 28 29  1  0  0  0
 28 30  2  0  0  0
 29 27  1  0  0  0
 27 44  1  0  0  0
 27  1  1  0  0  0
 41 42  1  0  0  0
 41 43  1  0  0  0
 45 46  2  0  0  0
 45 50  1  0  0  0
 46 47  1  0  0  0
 47 48  2  0  0  0
 48 49  1  0  0  0
 49 50  2  0  0  0
 49 44  1  0  0  0
  1  2  1  0  0  0
  2  5  1  0  0  0
  2  3  1  0  0  0
  5  6  1  0  0  0
  5 20  1  0  0  0
  6  7  1  0  0  0
  7 10  1  0  0  0
  7  8  2  0  0  0
 10 11  1  0  0  0
 11 12  1  0  0  0
 12 13  2  0  0  0
 12 17  1  0  0  0
 13 14  1  0  0  0
 13 19  1  0  0  0
 14 15  2  0  0  0
 15 16  1  0  0  0
 16 17  2  0  0  0
 17 18  1  0  0  0
 37 40  1  0  0  0
 29 31  1  0  0  0
  6  9  1  0  0  0
  3  4  1  0  0  0
M  END
> <minimizedAffinity>
-9.58026

$$$$
2Q5K_AB1_A_201


 50 53  0  0  0  0  0  0  0  0999 V2000
   19.6969   32.2243   15.2609 C   0  0  0  0  0  0  0  0  0  0  0  0
   19.3430   30.7393   15.2273 C   0  0  0  0  0  0  0  0  0  0  0  0
   20.2037   30.0767   16.1717 O   0  0  0  0  0  0  0  0  0  0  0  0
   21.1282   30.1880   15.9000 H   0  0  0  0  0  0  0  0  0  0  0  0
   19.4597   30.0745   13.8468 C   0  0  0  0  0  0  0  0  0  0  0  0
   20.8343   29.7272   13.5242 N   0  0  0  0  0  0  0  0  0  0  0  0
   21.5983   30.4222   12.6613 C   0  0  0  0  0  0  0  0  0  0  0  0
   21.2428   31.4211   12.0551 O   0  0  0  0  0  0  0  0  0  0  0  0
   21.2287   28.9385   13.9620 H   0  0  0  0  0  0  0  0  0  0  0  0
   23.0142   29.9558   12.4062 C   0  0  0  0  0  0  0  0  0  0  0  0
   23.1573   28.5446   12.4083 O   0  0  0  0  0  0  0  0  0  0  0  0
   23.7972   27.9301   11.3611 C   0  0  0  0  0  0  0  0  0  0  0  0
   23.0811   27.5616   10.2265 C   0  0  0  0  0  0  0  0  0  0  0  0
   23.7420   26.9362    9.1710 C   0  0  0  0  0  0  0  0  0  0  0  0
   25.1105   26.6854    9.2335 C   0  0  0  0  0  0  0  0  0  0  0  0
   25.8198   27.0552   10.3644 C   0  0  0  0  0  0  0  0  0  0  0  0
   25.1681   27.6891   11.4261 C   0  0  0  0  0  0  0  0  0  0  0  0
   25.9578   28.1052   12.6451 C   0  0  0  0  0  0  0  0  0  0  0  0
   21.5952   27.7990   10.1425 C   0  0  0  0  0  0  0  0  0  0  0  0
   18.5563   28.8265   13.8204 C   0  0  0  0  0  0  0  0  0  0  0  0
   18.3109   28.3067   12.4162 C   0  0  0  0  0  0  0  0  0  0  0  0
   18.1789   26.9361   12.1862 C   0  0  0  0  0  0  0  0  0  0  0  0
   17.9658   26.4311   10.8956 C   0  0  0  0  0  0  0  0  0  0  0  0
   17.8781   27.3051    9.8273 C   0  0  0  0  0  0  0  0  0  0  0  0
   17.9983   28.6826   10.0587 C   0  0  0  0  0  0  0  0  0  0  0  0
   18.2170   29.1908   11.3414 C   0  0  0  0  0  0  0  0  0  0  0  0
   18.5922   33.1513   15.7770 C   0  0  0  0  0  0  0  0  0  0  0  0
   18.7646   35.1249   17.2371 C   0  0  0  0  0  0  0  0  0  0  0  0
   19.0809   34.4806   16.1117 N   0  0  0  0  0  0  0  0  0  0  0  0
   18.0196   34.6621   18.0915 O   0  0  0  0  0  0  0  0  0  0  0  0
   19.6788   34.9302   15.4717 H   0  0  0  0  0  0  0  0  0  0  0  0
   19.3695   36.5050   17.3604 C   0  0  0  0  0  0  0  0  0  0  0  0
   23.3036   36.7559   15.7431 C   0  0  0  0  0  0  0  0  0  0  0  0
   20.8993   37.3816   15.5967 C   0  0  0  0  0  0  0  0  0  0  0  0
   20.7306   36.5169   16.7733 N   0  0  0  0  0  0  0  0  0  0  0  0
   21.6960   35.7319   17.2868 C   0  0  0  0  0  0  0  0  0  0  0  0
   22.9257   35.8068   16.7742 N   0  0  0  0  0  0  0  0  0  0  0  0
   21.4772   34.9653   18.2204 O   0  0  0  0  0  0  0  0  0  0  0  0
   22.3208   37.9170   15.6740 C   0  0  0  0  0  0  0  0  0  0  0  0
   23.6115   35.1868   17.1126 H   0  0  0  0  0  0  0  0  0  0  0  0
   18.4939   37.6392   16.8038 C   0  0  0  0  0  0  0  0  0  0  0  0
   17.0096   37.2671   16.8770 C   0  0  0  0  0  0  0  0  0  0  0  0
   18.7514   38.9460   17.5602 C   0  0  0  0  0  0  0  0  0  0  0  0
   17.5446   33.2407   14.6607 C   0  0  0  0  0  0  0  0  0  0  0  0
   14.0032   32.1455   15.3844 C   0  0  0  0  0  0  0  0  0  0  0  0
   13.4637   33.2815   15.9830 C   0  0  0  0  0  0  0  0  0  0  0  0
   14.2537   34.4115   16.1574 C   0  0  0  0  0  0  0  0  0  0  0  0
   15.5712   34.4060   15.7220 C   0  0  0  0  0  0  0  0  0  0  0  0
   16.1190   33.2548   15.1508 C   0  0  0  0  0  0  0  0  0  0  0  0
   15.3264   32.1347   14.9698 C   0  0  0  0  0  0  0  0  0  0  0  0
 33 37  1  0  0  0
 33 39  1  0  0  0
 34 35  1  0  0  0
 34 39  1  0  0  0
 35 36  1  0  0  0
 35 32  1  0  0  0
 36 37  1  0  0  0
 36 38  2  0  0  0
 21 22  2  0  0  0
 21 26  1  0  0  0
 21 20  1  0  0  0
 22 23  1  0  0  0
 23 24  2  0  0  0
 24 25  1  0  0  0
 25 26  2  0  0  0
 32 28  1  0  0  0
 32 41  1  0  0  0
 28 29  1  0  0  0
 28 30  2  0  0  0
 29 27  1  0  0  0
 27 44  1  0  0  0
 27  1  1  0  0  0
 41 42  1  0  0  0
 41 43  1  0  0  0
 45 46  2  0  0  0
 45 50  1  0  0  0
 46 47  1  0  0  0
 47 48  2  0  0  0
 48 49  1  0  0  0
 49 50  2  0  0  0
 49 44  1  0  0  0
  1  2  1  0  0  0
  2  5  1  0  0  0
  2  3  1  0  0  0
  5  6  1  0  0  0
  5 20  1  0  0  0
  6  7  1  0  0  0
  7 10  1  0  0  0
  7  8  2  0  0  0
 10 11  1  0  0  0
 11 12  1  0  0  0
 12 13  2  0  0  0
 12 17  1  0  0  0
 13 14  1  0  0  0
 13 19  1  0  0  0
 14 15  2  0  0  0
 15 16  1  0  0  0
 16 17  2  0  0  0
 17 18  1  0  0  0
 37 40  1  0  0  0
 29 31  1  0  0  0
  6  9  1  0  0  0
  3  4  1  0  0  0
M  END
> <minimizedAffinity>
-9.57276

$$$$
