2Q5K_AB1_A_201
  RCSB PDB12061706443D
Coordinates from PDB:2Q5K:A:201 Model:1 without hydrogens
 46 49  0  0  0  0            999 V2000
   22.7850   24.6920    7.6740   C 0  0  0  0  0  0  0  0  0  0  0  0
   22.8720   26.9600    8.6950   C 0  0  0  0  0  0  0  0  0  0  0  0
   22.8430   26.2470    9.9800   N 0  0  0  0  0  0  0  0  0  0  0  0
   22.6460   24.9220   10.1120   C 0  0  0  0  0  0  0  0  0  0  0  0
   22.5750   24.1700    9.0120   N 0  0  0  0  0  0  0  0  0  0  0  0
   22.2230   32.6130   15.1280   C 0  0  0  0  0  0  0  0  0  0  0  0
   22.0280   33.4870   16.1990   C 0  0  0  0  0  0  0  0  0  0  0  0
   22.2160   34.8690   16.0550   C 0  0  0  0  0  0  0  0  0  0  0  0
   22.6080   35.3800   14.8310   C 0  0  0  0  0  0  0  0  0  0  0  0
   22.8160   34.5020   13.7580   C 0  0  0  0  0  0  0  0  0  0  0  0
   22.6240   33.1250   13.8940   C 0  0  0  0  0  0  0  0  0  0  0  0
   22.5470   24.3900   11.2140   O 0  0  0  0  0  0  0  0  0  0  0  0
   22.9900   27.1020   11.1820   C 0  0  0  0  0  0  0  0  0  0  0  0
   21.7670   27.9750   11.3490   C 0  0  0  0  0  0  0  0  0  0  0  0
   20.8990   27.5420   12.2660   N 0  0  0  0  0  0  0  0  0  0  0  0
   19.6460   28.2150   12.5740   C 0  0  0  0  0  0  0  0  0  0  0  0
   24.3250   27.8640   11.1850   C 0  0  0  0  0  0  0  0  0  0  0  0
   24.4610   28.7190   12.4490   C 0  0  0  0  0  0  0  0  0  0  0  0
   25.5050   26.8940   11.0710   C 0  0  0  0  0  0  0  0  0  0  0  0
   21.5840   28.9760   10.6680   O 0  0  0  0  0  0  0  0  0  0  0  0
   17.8410   27.5710    8.3780   C 0  0  0  0  0  0  0  0  0  0  0  0
   18.4630   26.4140    7.9150   C 0  0  0  0  0  0  0  0  0  0  0  0
   19.0920   25.5610    8.8140   C 0  0  0  0  0  0  0  0  0  0  0  0
   19.0850   25.8600   10.1690   C 0  0  0  0  0  0  0  0  0  0  0  0
   18.4880   27.0370   10.6270   C 0  0  0  0  0  0  0  0  0  0  0  0
   17.8540   27.8790    9.7300   C 0  0  0  0  0  0  0  0  0  0  0  0
   18.4610   27.3660   12.0980   C 0  0  0  0  0  0  0  0  0  0  0  0
   19.4440   28.4370   14.0760   C 0  0  0  0  0  0  0  0  0  0  0  0
   20.6100   29.1040   14.8020   C 0  0  0  0  0  0  0  0  0  0  0  0
   20.7920   30.6000   14.5020   C 0  0  0  0  0  0  0  0  0  0  0  0
   19.5940   31.3660   14.8060   N 0  0  0  0  0  0  0  0  0  0  0  0
   18.7790   31.8830   13.8680   C 0  0  0  0  0  0  0  0  0  0  0  0
   17.5640   32.6660   14.3130   C 0  0  0  0  0  0  0  0  0  0  0  0
   17.3860   32.6890   15.7200   O 0  0  0  0  0  0  0  0  0  0  0  0
   16.6480   33.6960   16.2900   C 0  0  0  0  0  0  0  0  0  0  0  0
   20.4030   28.9020   16.2120   O 0  0  0  0  0  0  0  0  0  0  0  0
   21.9980   31.1230   15.3060   C 0  0  0  0  0  0  0  0  0  0  0  0
   18.9350   31.7700   12.6620   O 0  0  0  0  0  0  0  0  0  0  0  0
   15.2580   33.6350   16.2760   C 0  0  0  0  0  0  0  0  0  0  0  0
   14.5200   34.6650   16.8560   C 0  0  0  0  0  0  0  0  0  0  0  0
   15.1560   35.7480   17.4580   C 0  0  0  0  0  0  0  0  0  0  0  0
   16.5400   35.8040   17.4710   C 0  0  0  0  0  0  0  0  0  0  0  0
   17.2900   34.7730   16.8980   C 0  0  0  0  0  0  0  0  0  0  0  0
   18.7990   34.8370   16.9370   C 0  0  0  0  0  0  0  0  0  0  0  0
   14.5440   32.4870   15.6100   C 0  0  0  0  0  0  0  0  0  0  0  0
   23.5400   26.0140    7.7090   C 0  0  0  0  0  0  0  0  0  0  0  0
  1  5  1  0  0  0  0
  1 46  1  0  0  0  0
  2  3  1  0  0  0  0
  2 46  1  0  0  0  0
  3  4  1  0  0  0  0
  3 13  1  0  0  0  0
  4  5  1  0  0  0  0
  4 12  2  0  0  0  0
  6  7  2  0  0  0  0
  6 11  1  0  0  0  0
  6 37  1  0  0  0  0
  7  8  1  0  0  0  0
  8  9  2  0  0  0  0
  9 10  1  0  0  0  0
 10 11  2  0  0  0  0
 13 14  1  0  0  0  0
 13 17  1  0  0  0  0
 14 15  1  0  0  0  0
 14 20  2  0  0  0  0
 15 16  1  0  0  0  0
 16 27  1  0  0  0  0
 16 28  1  0  0  0  0
 17 18  1  0  0  0  0
 17 19  1  0  0  0  0
 21 22  2  0  0  0  0
 21 26  1  0  0  0  0
 22 23  1  0  0  0  0
 23 24  2  0  0  0  0
 24 25  1  0  0  0  0
 25 26  2  0  0  0  0
 25 27  1  0  0  0  0
 28 29  1  0  0  0  0
 29 30  1  0  0  0  0
 29 36  1  0  0  0  0
 30 31  1  0  0  0  0
 30 37  1  0  0  0  0
 31 32  1  0  0  0  0
 32 33  1  0  0  0  0
 32 38  2  0  0  0  0
 33 34  1  0  0  0  0
 34 35  1  0  0  0  0
 35 39  2  0  0  0  0
 35 43  1  0  0  0  0
 39 40  1  0  0  0  0
 39 45  1  0  0  0  0
 40 41  2  0  0  0  0
 41 42  1  0  0  0  0
 42 43  2  0  0  0  0
 43 44  1  0  0  0  0
A    1
C1
A    2
C2
A    3
N1
A    4
C3
A    5
N2
A    6
C4
A    7
C5
A    8
C6
A    9
C7
A   10
C8
A   11
C9
A   12
O1
A   13
C10
A   14
C11
A   15
N3
A   16
C12
A   17
C13
A   18
C14
A   19
C15
A   20
O2
A   21
C16
A   22
C17
A   23
C18
A   24
C19
A   25
C20
A   26
C21
A   27
C22
A   28
C23
A   29
C24
A   30
C25
A   31
N4
A   32
C26
A   33
C27
A   34
O3
A   35
C28
A   36
O4
A   37
C29
A   38
O5
A   39
C30
A   40
C31
A   41
C32
A   42
C33
A   43
C34
A   44
C35
A   45
C36
A   46
C37
M  END
>  <InstanceId>
2Q5K_AB1_A_201

>  <ChemCompId>
AB1

>  <PdbId>
2Q5K

>  <ChainId>
A

>  <ResidueNumber>
201

>  <InsertionCode>


>  <Model>
1

>  <AltIds>


>  <MissingHeavyAtoms>
0

>  <ObservedFormula>
C37 N4 O5

>  <Name>
N-{1-BENZYL-4-[2-(2,6-DIMETHYL-PHENOXY)-ACETYLAMINO]-3-HYDROXY-5-PHENYL-PENTYL}-3-METHYL-2-(2-OXO-TETRAHYDRO-PYRIMIDIN-1-YL)-BUTYRAMIDE

>  <SystematicName>
(2S)-N-[(2S,4S,5S)-5-[2-(2,6-dimethylphenoxy)ethanoylamino]-4-hydroxy-1,6-diphenyl-hexan-2-yl]-3-methyl-2-(2-oxo-1,3-diazinan-1-yl)butanamide

>  <Synonyms>
ABT-378, LOPINAVIR

>  <Type>
NON-POLYMER

>  <Formula>
C37 H48 N4 O5

>  <MolecularWeight>
628.801

>  <ModifiedDate>
2011-06-04

>  <Parent>


>  <OneLetterCode>


>  <SubcomponentList>


>  <AmbiguousFlag>
N

>  <InChI>
InChI=1S/C37H48N4O5/c1-25(2)34(41-20-12-19-38-37(41)45)36(44)39-30(21-28-15-7-5-8-16-28)23-32(42)31(22-29-17-9-6-10-18-29)40-33(43)24-46-35-26(3)13-11-14-27(35)4/h5-11,13-18,25,30-32,34,42H,12,19-24H2,1-4H3,(H,38,45)(H,39,44)(H,40,43)/t30-,31-,32-,34-/m0/s1

>  <InChIKey>
KJHKTHWMRKYKJE-SUGCFTRWSA-N

>  <SMILES>
Cc1cccc(c1OCC(=O)N[C@@H](Cc2ccccc2)[C@H](C[C@H](Cc3ccccc3)NC(=O)[C@H](C(C)C)N4CCCNC4=O)O)C

$$$$
