5LSG_QZQ_A_501


 35 39  0  0  0  0  0  0  0  0999 V2000
   19.1559   19.7251   17.5004 C   0  0  0  0  0  0  0  0  0  0  0  0
   18.8571   19.1264   18.8790 C   0  0  0  0  0  0  0  0  0  0  0  0
   19.7715   17.8976   18.8204 C   0  0  0  0  0  0  0  0  0  0  0  0
   19.2781   17.2214   17.5578 C   0  0  0  0  0  0  0  0  0  0  0  0
   20.2201   16.3183   16.7329 C   0  0  0  0  0  0  0  0  0  0  0  0
   19.5129   15.8099   15.4575 C   0  0  0  0  0  0  0  0  0  0  0  0
   18.8226   16.8913   14.5983 C   0  0  0  0  0  0  0  0  0  0  0  0
   18.2303   17.9475   15.5594 C   0  0  0  0  0  0  0  0  0  0  0  0
   19.1556   18.4407   16.6792 C   0  0  0  0  0  0  0  0  0  0  0  0
   17.3610   18.9546   14.8792 C   0  0  0  0  0  0  0  0  0  0  0  0
   16.1817   18.3958   14.1165 C   0  0  0  0  0  0  0  0  0  0  0  0
   16.8254   17.5768   13.0215 C   0  0  0  0  0  0  0  0  0  0  0  0
   16.0098   17.4579   11.6815 C   0  0  0  0  0  0  0  0  0  0  0  0
   16.9204   16.9027   10.5743 C   0  0  0  0  0  0  0  0  0  0  0  0
   17.6497   17.8528    9.5655 C   0  0  0  0  0  0  0  0  0  0  0  0
   17.0299   17.4452    8.2481 C   0  0  0  0  0  0  0  0  0  0  0  0
   19.1321   17.5302    9.3635 C   0  0  0  0  0  0  0  0  0  0  0  0
   17.4800   19.3726    9.7596 C   0  0  0  0  0  0  0  0  0  0  0  0
   17.2585   20.1179    8.5677 O   0  0  0  0  0  0  0  0  0  0  0  0
   16.4543   19.8462   10.7635 C   0  0  0  0  0  0  0  0  0  0  0  0
   15.4673   18.7949   11.1968 C   0  0  0  0  0  0  0  0  0  0  0  0
   17.7280   15.7090   11.0426 C   0  0  0  0  0  0  0  0  0  0  0  0
   18.1966   15.5649   12.4902 C   0  0  0  0  0  0  0  0  0  0  0  0
   17.6251   16.3812   13.6339 C   0  0  0  0  0  0  0  0  0  0  0  0
   16.7197   15.4328   14.4424 C   0  0  0  0  0  0  0  0  0  0  0  0
   14.7377   16.6042   11.8058 C   0  0  0  0  0  0  0  0  0  0  0  0
   19.9980   17.4611   13.8167 C   0  0  0  0  0  0  0  0  0  0  0  0
   16.3734   19.9210    8.2231 H   0  0  0  0  0  0  0  0  0  0  0  0
   18.1928   16.3918   18.0501 C   0  0  0  0  0  0  0  0  0  0  0  0
   17.2178   16.2040   17.3127 O   0  0  0  0  0  0  0  0  0  0  0  0
   18.2838   15.9339   19.1817 O   0  0  0  0  0  0  0  0  0  0  0  0
   19.0464   16.1079   19.6976 H   0  0  0  0  0  0  0  0  0  0  0  0
   20.5124   20.3853   17.5687 C   0  0  0  0  0  0  0  0  0  0  0  0
   21.4058   20.2642   16.3952 C   0  0  0  0  0  0  0  0  0  0  0  0
   20.8795   21.2000   18.5662 C   0  0  0  0  0  0  0  0  0  0  0  0
 16 15  1  0  0  0
 19 18  1  0  0  0
 17 15  1  0  0  0
 15 18  1  0  0  0
 15 14  1  0  0  0
 18 20  1  0  0  0
 20 21  2  0  0  0
 14 22  1  0  0  0
 14 13  1  0  0  0
 21 13  1  0  0  0
 22 23  1  0  0  0
 13 26  1  0  0  0
 13 12  1  0  0  0
 23 24  1  0  0  0
 12 24  1  0  0  0
 12 11  1  0  0  0
 24 25  1  0  0  0
 24  7  1  0  0  0
 27  7  1  0  0  0
 11 10  1  0  0  0
  7  6  1  0  0  0
  7  8  1  0  0  0
 10  8  1  0  0  0
  6  5  1  0  0  0
  8  9  1  0  0  0
 34 33  1  0  0  0
  9  1  1  0  0  0
  9  4  1  0  0  0
  5  4  1  0  0  0
 33  1  1  0  0  0
 33 35  2  0  0  0
  1  2  1  0  0  0
  4 29  1  0  0  0
  4  3  1  0  0  0
 30 29  2  0  0  0
 29 31  1  0  0  0
  3  2  1  0  0  0
 19 28  1  0  0  0
 31 32  1  0  0  0
M  END
> <minimizedAffinity>
-8.36287

$$$$
