4F9W_LM4_A_403
  RCSB PDB12061712303D
Coordinates from PDB:4F9W:A:403 Model:1 without hydrogens
 25 28  0  0  0  0            999 V2000
    0.9190    4.6690   22.6420   C 0  0  0  0  0  0  0  0  0  0  0  0
    0.4040    3.3730   23.0710   N 0  0  0  0  0  0  0  0  0  0  0  0
    1.0060    2.6990   24.2240   C 0  0  0  0  0  0  0  0  0  0  0  0
   -0.6160    2.7590   22.3120   C 0  0  0  0  0  0  0  0  0  0  0  0
   -1.0820    3.4070   21.2270   N 0  0  0  0  0  0  0  0  0  0  0  0
   -2.0740    2.8890   20.4090   N 0  0  0  0  0  0  0  0  0  0  0  0
   -2.6060    1.6870   20.6480   C 0  0  0  0  0  0  0  0  0  0  0  0
   -2.1490    0.9380   21.7640   C 0  0  0  0  0  0  0  0  0  0  0  0
   -2.6050   -0.4600   22.0800   C 0  0  0  0  0  0  0  0  0  0  0  0
   -2.6390   -1.4080   21.0580   C 0  0  0  0  0  0  0  0  0  0  0  0
   -2.9900   -2.7250   21.3360   C 0  0  0  0  0  0  0  0  0  0  0  0
   -3.2780   -3.0900   22.6000   N 0  0  0  0  0  0  0  0  0  0  0  0
   -3.2110   -2.2140   23.6120   C 0  0  0  0  0  0  0  0  0  0  0  0
   -2.8520   -0.8950   23.3940   C 0  0  0  0  0  0  0  0  0  0  0  0
   -1.1400    1.4870   22.5860   C 0  0  0  0  0  0  0  0  0  0  0  0
   -3.6250    1.1960   19.7170   C 0  0  0  0  0  0  0  0  0  0  0  0
   -3.3100    1.1380   18.3760   C 0  0  0  0  0  0  0  0  0  0  0  0
   -4.2310    0.6630   17.4700   C 0  0  0  0  0  0  0  0  0  0  0  0
   -3.9060    0.6010   16.1300   C 0  0  0  0  0  0  0  0  0  0  0  0
   -4.8290    0.1180   15.2100   C 0  0  0  0  0  0  0  0  0  0  0  0
   -6.0840   -0.3240   15.6300   C 0  0  0  0  0  0  0  0  0  0  0  0
   -6.3930   -0.2340   16.9820   C 0  0  0  0  0  0  0  0  0  0  0  0
   -5.4850    0.2560   17.8950   C 0  0  0  0  0  0  0  0  0  0  0  0
   -5.8030    0.2970   19.2370   C 0  0  0  0  0  0  0  0  0  0  0  0
   -4.8760    0.7590   20.1540   C 0  0  0  0  0  0  0  0  0  0  0  0
 20 21  2  0  0  0  0
 20 19  1  0  0  0  0
 21 22  1  0  0  0  0
 19 18  2  0  0  0  0
 22 23  2  0  0  0  0
 18 23  1  0  0  0  0
 18 17  1  0  0  0  0
 23 24  1  0  0  0  0
 17 16  2  0  0  0  0
 24 25  2  0  0  0  0
 16 25  1  0  0  0  0
 16  7  1  0  0  0  0
  6  7  2  0  0  0  0
  6  5  1  0  0  0  0
  7  8  1  0  0  0  0
 10 11  2  0  0  0  0
 10  9  1  0  0  0  0
  5  4  2  0  0  0  0
 11 12  1  0  0  0  0
  8  9  1  0  0  0  0
  8 15  2  0  0  0  0
  9 14  2  0  0  0  0
  4 15  1  0  0  0  0
  4  2  1  0  0  0  0
 12 13  2  0  0  0  0
  1  2  1  0  0  0  0
  2  3  1  0  0  0  0
 14 13  1  0  0  0  0
A    1
C3
A    2
N2
A    3
C1
A    4
C4
A    5
N9
A    6
N8
A    7
C7
A    8
C6
A    9
C10
A   10
C21
A   11
C20
A   12
N19
A   13
C18
A   14
C17
A   15
C5
A   16
C11
A   17
C16
A   18
C15
A   19
C25
A   20
C24
A   21
C23
A   22
C22
A   23
C14
A   24
C13
A   25
C12
M  END
>  <InstanceId>
4F9W_LM4_A_403

>  <ChemCompId>
LM4

>  <PdbId>
4F9W

>  <ChainId>
A

>  <ResidueNumber>
403

>  <InsertionCode>


>  <Model>
1

>  <AltIds>


>  <MissingHeavyAtoms>
0

>  <ObservedFormula>
C21 N4

>  <Name>
N,N-dimethyl-6-(naphthalen-2-yl)-5-(pyridin-4-yl)pyridazin-3-amine

>  <SystematicName>
N,N-dimethyl-6-naphthalen-2-yl-5-pyridin-4-yl-pyridazin-3-amine

>  <Synonyms>


>  <Type>
NON-POLYMER

>  <Formula>
C21 H18 N4

>  <MolecularWeight>
326.394

>  <ModifiedDate>
2013-05-31

>  <Parent>


>  <OneLetterCode>


>  <SubcomponentList>


>  <AmbiguousFlag>
N

>  <InChI>
InChI=1S/C21H18N4/c1-25(2)20-14-19(16-9-11-22-12-10-16)21(24-23-20)18-8-7-15-5-3-4-6-17(15)13-18/h3-14H,1-2H3

>  <InChIKey>
ODFGOBPLQKLCRM-UHFFFAOYSA-N

>  <SMILES>
CN(C)c1cc(c(nn1)c2ccc3ccccc3c2)c4ccncc4

$$$$
