3SU5_SU3_A_1
  RCSB PDB12061710473D
Coordinates from PDB:3SU5:A:1 Model:1 without hydrogens
 53 58  0  0  0  0            999 V2000
  -13.2070   -8.3430   14.1530   C 0  0  0  0  0  0  0  0  0  0  0  0
  -15.0550   -9.7890   13.6030   N 0  0  0  0  0  0  0  0  0  0  0  0
  -13.3730   -7.5950   13.1870   O 0  0  0  0  0  0  0  0  0  0  0  0
  -13.6660   -9.7990   14.1300   C 0  0  0  0  0  0  0  0  0  0  0  0
  -12.8890  -10.6190   13.1400   C 0  0  0  0  0  0  0  0  0  0  0  0
  -13.9210  -11.6480   12.7010   C 0  0  0  0  0  0  0  0  0  0  0  0
  -16.0400   -9.0460   14.0850   C 0  0  0  0  0  0  0  0  0  0  0  0
  -15.7870   -8.2880   15.0310   O 0  0  0  0  0  0  0  0  0  0  0  0
  -17.4290   -9.0470   13.4430   C 0  0  0  0  0  0  0  0  0  0  0  0
  -18.4200   -9.3070   14.4980   N 0  0  0  0  0  0  0  0  0  0  0  0
  -18.9420  -10.5040   14.6680   C 0  0  0  0  0  0  0  0  0  0  0  0
  -19.8030  -10.5890   15.7100   O 0  0  0  0  0  0  0  0  0  0  0  0
  -17.7230   -7.7300   12.7010   C 0  0  0  0  0  0  0  0  0  0  0  0
  -18.7480  -11.4570   13.9140   O 0  0  0  0  0  0  0  0  0  0  0  0
  -13.4460  -13.6590   13.9000   C 0  0  0  0  0  0  0  0  0  0  0  0
  -12.4700  -13.8470   13.1580   O 0  0  0  0  0  0  0  0  0  0  0  0
  -13.6830  -14.4700   14.8970   N 0  0  0  0  0  0  0  0  0  0  0  0
  -13.5910   -4.2920   15.5080   C 0  0  0  0  0  0  0  0  0  0  0  0
  -14.0810   -4.1140   14.0650   C 0  0  0  0  0  0  0  0  0  0  0  0
  -17.8200   -6.5130   13.6400   C 0  0  0  0  0  0  0  0  0  0  0  0
  -12.5730   -7.9790   15.2670   N 0  0  0  0  0  0  0  0  0  0  0  0
  -12.2550   -6.6000   15.5880   C 0  0  0  0  0  0  0  0  0  0  0  0
  -11.0320   -5.9510   14.9610   C 0  0  0  0  0  0  0  0  0  0  0  0
  -13.5290   -5.7720   15.8970   C 0  0  0  0  0  0  0  0  0  0  0  0
  -12.5520   -6.1440   17.0110   C 0  0  0  0  0  0  0  0  0  0  0  0
  -12.8870  -15.6250   15.3330   C 0  0  0  0  0  0  0  0  0  0  0  0
  -13.5740  -16.1360   16.5770   C 0  0  0  0  0  0  0  0  0  0  0  0
  -14.7230  -15.3930   16.8350   C 0  0  0  0  0  0  0  0  0  0  0  0
  -14.8540  -14.2910   15.7820   C 0  0  0  0  0  0  0  0  0  0  0  0
  -13.2410  -17.1940   17.4080   C 0  0  0  0  0  0  0  0  0  0  0  0
  -14.0330  -17.5020   18.4960   C 0  0  0  0  0  0  0  0  0  0  0  0
  -15.1710  -16.7590   18.7510   C 0  0  0  0  0  0  0  0  0  0  0  0
  -15.5310  -15.6890   17.9390   C 0  0  0  0  0  0  0  0  0  0  0  0
  -16.8510  -15.0390   18.3620   C 0  0  0  0  0  0  0  0  0  0  0  0
  -10.2650   -6.7480   14.2520   N 0  0  0  0  0  0  0  0  0  0  0  0
  -10.7920   -4.7750   15.2180   O 0  0  0  0  0  0  0  0  0  0  0  0
   -9.0000   -6.0590   13.5690   S 0  0  0  0  0  0  0  0  0  0  0  0
   -8.2520   -7.3520   12.5800   C 0  0  0  0  0  0  0  0  0  0  0  0
   -9.4250   -4.9830   12.6280   O 0  0  0  0  0  0  0  0  0  0  0  0
   -7.9920   -5.6090   14.5520   O 0  0  0  0  0  0  0  0  0  0  0  0
   -6.8170   -7.0550   12.1740   C 0  0  0  0  0  0  0  0  0  0  0  0
   -7.1160   -8.0870   13.2750   C 0  0  0  0  0  0  0  0  0  0  0  0
  -16.8620  -13.5820   18.6990   C 0  0  0  0  0  0  0  0  0  0  0  0
  -18.3460  -13.1880   18.7590   C 0  0  0  0  0  0  0  0  0  0  0  0
  -18.8630  -12.8890   17.3500   C 0  0  0  0  0  0  0  0  0  0  0  0
  -20.2910  -12.3570   17.3220   C 0  0  0  0  0  0  0  0  0  0  0  0
  -20.4830  -11.8340   15.9170   C 0  0  0  0  0  0  0  0  0  0  0  0
  -21.3220  -13.4690   17.5450   C 0  0  0  0  0  0  0  0  0  0  0  0
  -20.4790  -11.2430   18.3670   C 0  0  0  0  0  0  0  0  0  0  0  0
  -16.6380   -7.4910   11.6620   C 0  0  0  0  0  0  0  0  0  0  0  0
  -19.0650   -7.8660   11.9750   C 0  0  0  0  0  0  0  0  0  0  0  0
  -15.1760  -10.7870   12.5220   C 0  0  0  0  0  0  0  0  0  0  0  0
  -14.2760  -12.6070   13.7300   O 0  0  0  0  0  0  0  0  0  0  0  0
  1 21  1  0  0  0  0
  2  7  1  0  0  0  0
  2  4  1  0  0  0  0
  3  1  2  0  0  0  0
  4  1  1  0  0  0  0
  5  4  1  0  0  0  0
  6  5  1  0  0  0  0
  6 53  1  0  0  0  0
  7  8  2  0  0  0  0
  9  7  1  0  0  0  0
  9 10  1  0  0  0  0
 10 11  1  0  0  0  0
 11 12  1  0  0  0  0
 12 47  1  0  0  0  0
 13  9  1  0  0  0  0
 13 50  1  0  0  0  0
 14 11  2  0  0  0  0
 15 17  1  0  0  0  0
 16 15  2  0  0  0  0
 17 26  1  0  0  0  0
 17 29  1  0  0  0  0
 18 24  1  0  0  0  0
 19 18  1  0  0  0  0
 20 13  1  0  0  0  0
 21 22  1  0  0  0  0
 22 24  1  0  0  0  0
 22 25  1  0  0  0  0
 23 22  1  0  0  0  0
 23 36  2  0  0  0  0
 24 25  1  0  0  0  0
 26 27  1  0  0  0  0
 27 28  2  0  0  0  0
 27 30  1  0  0  0  0
 28 33  1  0  0  0  0
 29 28  1  0  0  0  0
 30 31  2  0  0  0  0
 31 32  1  0  0  0  0
 33 32  2  0  0  0  0
 33 34  1  0  0  0  0
 34 43  1  0  0  0  0
 35 23  1  0  0  0  0
 37 35  1  0  0  0  0
 37 40  2  0  0  0  0
 38 37  1  0  0  0  0
 38 42  1  0  0  0  0
 39 37  2  0  0  0  0
 41 38  1  0  0  0  0
 41 42  1  0  0  0  0
 43 44  1  0  0  0  0
 45 44  1  0  0  0  0
 46 45  1  0  0  0  0
 46 48  1  0  0  0  0
 46 49  1  0  0  0  0
 47 46  1  0  0  0  0
 51 13  1  0  0  0  0
 52  2  1  0  0  0  0
 52  6  1  0  0  0  0
 53 15  1  0  0  0  0
A    1
C
A    2
N
A    3
O
A    4
CA
A    5
CB
A    6
CG
A    7
CAF
A    8
OAG
A    9
CAH
A   10
NAI
A   11
CAJ
A   12
OAK
A   13
CAL
A   14
OAM
A   15
CAO
A   16
OAP
A   17
NAQ
A   18
CAR
A   19
CAS
A   20
CAT
A   21
NAV
A   22
CAX
A   23
CAY
A   24
CAZ
A   25
CBA
A   26
CBB
A   27
CBC
A   28
CBD
A   29
CBE
A   30
CBF
A   31
CBG
A   32
CBH
A   33
CBI
A   34
CBJ
A   35
NBK
A   36
OBL
A   37
SBM
A   38
CBN
A   39
OBO
A   40
OBP
A   41
CBQ
A   42
CBR
A   43
CBS
A   44
CBT
A   45
CBU
A   46
CBV
A   47
CBW
A   48
CBX
A   49
CBY
A   50
CBZ
A   51
CCA
A   52
CD1
A   53
OD2
M  END
>  <InstanceId>
3SU5_SU3_A_1

>  <ChemCompId>
SU3

>  <PdbId>
3SU5

>  <ChainId>
A

>  <ResidueNumber>
1

>  <InsertionCode>


>  <Model>
1

>  <AltIds>


>  <MissingHeavyAtoms>
0

>  <ObservedFormula>
C38 N5 O9 S

>  <Name>
(5R,7S,10S)-10-tert-butyl-N-{(1R,2R)-1-[(cyclopropylsulfonyl)carbamoyl]-2-ethylcyclopropyl}-15,15-dimethyl-3,9,12-trioxo-6,7,9,10,11,12,14,15,16,17,18,19-dodecahydro-1H,5H-2,23:5,8-dimethano-4,13,2,8,11-benzodioxatriazacyclohenicosine-7(3H)-carboxamide

>  <SystematicName>


>  <Synonyms>
vaniprevir, MK-7009

>  <Type>
NON-POLYMER

>  <Formula>
C38 H55 N5 O9 S

>  <MolecularWeight>
757.936

>  <ModifiedDate>
2012-08-31

>  <Parent>


>  <OneLetterCode>


>  <SubcomponentList>


>  <AmbiguousFlag>
N

>  <InChI>
InChI=1S/C38H55N5O9S/c1-7-25-18-38(25,33(46)41-53(49,50)27-14-15-27)40-31(44)29-17-26-20-43(29)32(45)30(36(2,3)4)39-34(47)51-22-37(5,6)16-9-8-11-23-12-10-13-24-19-42(21-28(23)24)35(48)52-26/h10,12-13,25-27,29-30H,7-9,11,14-22H2,1-6H3,(H,39,47)(H,40,44)(H,41,46)/t25-,26-,29+,30-,38-/m1/s1

>  <InChIKey>
KUQWGLQLLVFLSM-ONAXAZCASA-N

>  <SMILES>
CC[C@@H]1C[C@@]1(C(=O)NS(=O)(=O)C2CC2)NC(=O)[C@@H]3C[C@@H]4CN3C(=O)[C@@H](NC(=O)OCC(CCCCc5cccc6c5CN(C6)C(=O)O4)(C)C)C(C)(C)C

$$$$
