3AG9_A02_B_351
  RCSB PDB12061707523D
Coordinates from PDB:3AG9:B:351 Model:1 without hydrogens
 67 69  0  0  0  0            999 V2000
    8.1330    4.1030   17.1980   N 0  0  0  0  0  0  0  0  0  0  0  0
    7.3260    4.7630   16.3560   C 0  0  0  0  0  0  0  0  0  0  0  0
    7.7330    5.1070   15.1410   N 0  0  0  0  0  0  0  0  0  0  0  0
    8.9690    4.7920   14.7230   C 0  0  0  0  0  0  0  0  0  0  0  0
    9.8310    4.1170   15.5770   C 0  0  0  0  0  0  0  0  0  0  0  0
    9.3850    3.7730   16.8420   C 0  0  0  0  0  0  0  0  0  0  0  0
   10.1900    3.1300   17.6810   N 0  0  0  0  0  0  0  0  0  0  0  0
   10.9870    3.9300   14.9430   N 0  0  0  0  0  0  0  0  0  0  0  0
   10.8470    4.4670   13.7260   C 0  0  0  0  0  0  0  0  0  0  0  0
    9.6260    5.0080   13.5880   N 0  0  0  0  0  0  0  0  0  0  0  0
   11.5190    4.3030   10.5370   O 0  0  0  0  0  0  0  0  0  0  0  0
    8.3910    7.5990   10.2280   O 0  0  0  0  0  0  0  0  0  0  0  0
    9.7350    8.0680   12.4790   O 0  0  0  0  0  0  0  0  0  0  0  0
    8.9100    4.8170   11.2340   O 0  0  0  0  0  0  0  0  0  0  0  0
   10.8260    4.8240    9.6510   C 0  0  0  0  0  0  0  0  0  0  0  0
    9.6510    6.9150   10.3730   C 0  0  0  0  0  0  0  0  0  0  0  0
   10.0240    6.8320   11.8420   C 0  0  0  0  0  0  0  0  0  0  0  0
    9.4640    5.4380   10.0260   C 0  0  0  0  0  0  0  0  0  0  0  0
    9.0810    5.7280   12.3590   C 0  0  0  0  0  0  0  0  0  0  0  0
   16.3250    1.5850    5.8220   C 0  0  0  0  0  0  0  0  0  0  0  0
   15.9480    1.3040    4.6780   O 0  0  0  0  0  0  0  0  0  0  0  0
   15.7840    0.8100    7.0410   C 0  0  0  0  0  0  0  0  0  0  0  0
   14.2840    1.0790    7.2730   C 0  0  0  0  0  0  0  0  0  0  0  0
   13.9760    2.5800    7.2340   C 0  0  0  0  0  0  0  0  0  0  0  0
   12.5930    2.9190    7.7970   C 0  0  0  0  0  0  0  0  0  0  0  0
   12.4690    4.4440    7.8270   C 0  0  0  0  0  0  0  0  0  0  0  0
   11.1750    4.8980    8.3660   N 0  0  0  0  0  0  0  0  0  0  0  0
   17.1720    2.5850    6.1140   N 0  0  0  0  0  0  0  0  0  0  0  0
   17.7880    3.4240    5.0540   C 0  0  0  0  0  0  0  0  0  0  0  0
   16.7230    4.3270    4.3850   C 0  0  0  0  0  0  0  0  0  0  0  0
   15.7310    4.6850    5.0080   O 0  0  0  0  0  0  0  0  0  0  0  0
   19.0060    4.2140    5.5840   C 0  0  0  0  0  0  0  0  0  0  0  0
   18.6760    5.3540    6.5530   C 0  0  0  0  0  0  0  0  0  0  0  0
   19.9630    6.1100    6.9450   C 0  0  0  0  0  0  0  0  0  0  0  0
   19.8140    6.7850    8.3170   C 0  0  0  0  0  0  0  0  0  0  0  0
   20.2100    8.2020    8.2270   N 0  0  0  0  0  0  0  0  0  0  0  0
   16.3330   11.1550    1.4080   C 0  0  0  0  0  0  0  0  0  0  0  0
   17.5310   11.4240    1.2740   O 0  0  0  0  0  0  0  0  0  0  0  0
   15.6390   10.1580    0.4650   C 0  0  0  0  0  0  0  0  0  0  0  0
   16.3530    8.7960    0.4520   C 0  0  0  0  0  0  0  0  0  0  0  0
   15.6320    7.7690    1.3310   C 0  0  0  0  0  0  0  0  0  0  0  0
   16.6190    6.8800    2.0970   C 0  0  0  0  0  0  0  0  0  0  0  0
   16.0230    5.4860    2.3230   C 0  0  0  0  0  0  0  0  0  0  0  0
   16.9520    4.6450    3.1120   N 0  0  0  0  0  0  0  0  0  0  0  0
   15.5410   11.6900    2.3450   N 0  0  0  0  0  0  0  0  0  0  0  0
   16.0220   12.6680    3.3520   C 0  0  0  0  0  0  0  0  0  0  0  0
   14.9850   12.8640    4.4900   C 0  0  0  0  0  0  0  0  0  0  0  0
   13.5280   12.5910    4.0780   C 0  0  0  0  0  0  0  0  0  0  0  0
   12.9210   13.7540    3.2770   C 0  0  0  0  0  0  0  0  0  0  0  0
   12.7560   13.3160    1.8780   N 0  0  0  0  0  0  0  0  0  0  0  0
   12.4380   14.1360    0.8670   C 0  0  0  0  0  0  0  0  0  0  0  0
   12.2550   15.4440    1.0400   N 0  0  0  0  0  0  0  0  0  0  0  0
   12.3120   13.6200   -0.3520   N 0  0  0  0  0  0  0  0  0  0  0  0
   16.3700   14.0160    2.6750   C 0  0  0  0  0  0  0  0  0  0  0  0
   16.2800   14.1540    1.4550   O 0  0  0  0  0  0  0  0  0  0  0  0
   16.7690   14.9850    3.5020   N 0  0  0  0  0  0  0  0  0  0  0  0
   17.1480   16.3410    3.0460   C 0  0  0  0  0  0  0  0  0  0  0  0
   17.8410   17.0950    4.1880   C 0  0  0  0  0  0  0  0  0  0  0  0
   17.0880   16.9250    5.5090   C 0  0  0  0  0  0  0  0  0  0  0  0
   18.0520   16.7450    6.6770   C 0  0  0  0  0  0  0  0  0  0  0  0
   18.3430   18.0710    7.2130   N 0  0  0  0  0  0  0  0  0  0  0  0
   17.8120   18.5840    8.3220   C 0  0  0  0  0  0  0  0  0  0  0  0
   16.9670   17.9090    9.1010   N 0  0  0  0  0  0  0  0  0  0  0  0
   18.1780   19.8160    8.6480   N 0  0  0  0  0  0  0  0  0  0  0  0
   15.9170   17.1400    2.5600   C 0  0  0  0  0  0  0  0  0  0  0  0
   14.8180   17.0370    3.1090   O 0  0  0  0  0  0  0  0  0  0  0  0
   16.1500   17.9510    1.5300   N 0  0  0  0  0  0  0  0  0  0  0  0
  1  2  2  0  0  0  0
  1  6  1  0  0  0  0
  2  3  1  0  0  0  0
  3  4  2  0  0  0  0
  4  5  1  0  0  0  0
  4 10  1  0  0  0  0
  5  6  2  0  0  0  0
  5  8  1  0  0  0  0
  6  7  1  0  0  0  0
  8  9  2  0  0  0  0
  9 10  1  0  0  0  0
 10 19  1  0  0  0  0
 11 15  2  0  0  0  0
 12 16  1  0  0  0  0
 13 17  1  0  0  0  0
 14 18  1  0  0  0  0
 14 19  1  0  0  0  0
 15 18  1  0  0  0  0
 16 17  1  0  0  0  0
 16 18  1  0  0  0  0
 17 19  1  0  0  0  0
 20 21  2  0  0  0  0
 20 22  1  0  0  0  0
 22 23  1  0  0  0  0
 23 24  1  0  0  0  0
 24 25  1  0  0  0  0
 25 26  1  0  0  0  0
 26 27  1  0  0  0  0
 28 29  1  0  0  0  0
 29 30  1  0  0  0  0
 29 32  1  0  0  0  0
 30 31  2  0  0  0  0
 32 33  1  0  0  0  0
 33 34  1  0  0  0  0
 34 35  1  0  0  0  0
 35 36  1  0  0  0  0
 37 38  2  0  0  0  0
 37 39  1  0  0  0  0
 39 40  1  0  0  0  0
 40 41  1  0  0  0  0
 41 42  1  0  0  0  0
 42 43  1  0  0  0  0
 43 44  1  0  0  0  0
 45 46  1  0  0  0  0
 46 47  1  0  0  0  0
 46 54  1  0  0  0  0
 47 48  1  0  0  0  0
 48 49  1  0  0  0  0
 49 50  1  0  0  0  0
 50 51  1  0  0  0  0
 51 52  1  0  0  0  0
 51 53  2  0  0  0  0
 54 55  2  0  0  0  0
 56 57  1  0  0  0  0
 57 58  1  0  0  0  0
 57 65  1  0  0  0  0
 58 59  1  0  0  0  0
 59 60  1  0  0  0  0
 60 61  1  0  0  0  0
 61 62  1  0  0  0  0
 62 63  1  0  0  0  0
 62 64  2  0  0  0  0
 65 66  2  0  0  0  0
 15 27  1  0  0  0  0
 20 28  1  0  0  0  0
 30 44  1  0  0  0  0
 37 45  1  0  0  0  0
 54 56  1  0  0  0  0
 65 67  1  0  0  0  0
A    1
N1
A    2
C2
A    3
N3
A    4
C4
A    5
C5
A    6
C6
A    7
N6
A    8
N7
A    9
C8
A   10
N9
A   11
OAL
A   12
OAN
A   13
OAO
A   14
OBV
A   15
CCC
A   16
CCK
A   17
CCL
A   18
CCM
A   19
CCN
A   20
CBZ
A   21
OAI
A   22
CBG
A   23
CAX
A   24
CAU
A   25
CAW
A   26
CBD
A   27
NBR
A   28
NBS
A   29
CCI
A   30
CCB
A   31
OAK
A   32
CBJ
A   33
CAZ
A   34
CAS
A   35
CAR
A   36
NAC
A   37
CCA
A   38
OAJ
A   39
CBH
A   40
CAY
A   41
CAT
A   42
CAV
A   43
CBC
A   44
NBQ
A   45
NBT
A   46
CCJ
A   47
CBK
A   48
CBB
A   49
CBF
A   50
NBP
A   51
CBX
A   52
NAB
A   53
NAE
A   54
CCD
A   55
OAM
A   56
N
A   57
CA
A   58
CB
A   59
CG
A   60
CD
A   61
NE
A   62
CZ
A   63
NH1
A   64
NH2
A   65
C
A   66
O
A   67
NAF
M  END
>  <InstanceId>
3AG9_A02_B_351

>  <ChemCompId>
A02

>  <PdbId>
3AG9

>  <ChainId>
B

>  <ResidueNumber>
351

>  <InsertionCode>


>  <Model>
1

>  <AltIds>


>  <MissingHeavyAtoms>
0

>  <ObservedFormula>
C40 N18 O9

>  <Name>
(10R,20R,23R)-10-(4-aminobutyl)-1-[(2S,3S,4R,5R)-5-(6-amino-9H-purin-9-yl)-3,4-dihydroxytetrahydrofuran-2-yl]-20,23-bis(3-carbamimidamidopropyl)-1,8,11,18,21-pentaoxo-2,9,12,19,22-pentaazatetracosan-24-amide

>  <SystematicName>
(2S,3S,4R,5R)-5-(6-aminopurin-9-yl)-N-[6-[[(2R)-6-azanyl-1-[[6-[[(2R)-1-[[(2R)-1-azanyl-5-carbamimidamido-1-oxo-pentan-2-yl]amino]-5-carbamimidamido-1-oxo-pentan-2-yl]amino]-6-oxo-hexyl]amino]-1-oxo-hexan-2-yl]amino]-6-oxo-hexyl]-3,4-dihydroxy-oxolane-2-carboxamide

>  <Synonyms>
ARC-1012

>  <Type>
peptide-like

>  <Formula>
C40 H70 N18 O9

>  <MolecularWeight>
947.099

>  <ModifiedDate>
2011-06-04

>  <Parent>


>  <OneLetterCode>


>  <SubcomponentList>
44A ACA DLY ACA DAR DAR NH2

>  <AmbiguousFlag>
N

>  <InChI>
InChI=1S/C40H70N18O9/c41-16-6-5-11-24(55-26(59)14-4-2-8-18-49-37(66)31-29(61)30(62)38(67-31)58-22-54-28-32(42)52-21-53-34(28)58)35(64)48-17-7-1-3-15-27(60)56-25(13-10-20-51-40(46)47)36(65)57-23(33(43)63)12-9-19-50-39(44)45/h21-25,29-31,38,61-62H,1-20,41H2,(H2,43,63)(H,48,64)(H,49,66)(H,55,59)(H,56,60)(H,57,65)(H2,42,52,53)(H4,44,45,50)(H4,46,47,51)/t23-,24-,25-,29+,30-,31+,38-/m1/s1

>  <InChIKey>
LIYNJKNSBUCWCZ-SAPGASOESA-N

>  <SMILES>
[H]/N=C(\N)/NCCC[C@H](C(=O)N)NC(=O)[C@@H](CCCN/C(=N/[H])/N)NC(=O)CCCCCNC(=O)[C@@H](CCCCN)NC(=O)CCCCCNC(=O)[C@@H]1[C@H]([C@H]([C@@H](O1)n2cnc3c2ncnc3N)O)O

$$$$
