3AG9_A02_B_351


 88 90  0  0  0  0  0  0  0  0999 V2000
   10.6287    3.5788   15.5262 C   0  0  0  0  0  0  0  0  0  0  0  0
   10.8358    3.5275   16.7324 O   0  0  0  0  0  0  0  0  0  0  0  0
   11.2280    2.7874   14.6381 N   0  0  0  0  0  0  0  0  0  0  0  0
   11.0141    2.8992   13.6837 H   0  0  0  0  0  0  0  0  0  0  0  0
    9.6502    4.6260   14.9404 C   0  0  0  0  0  0  0  0  0  0  0  0
   10.8105    5.8224   13.1143 C   0  0  0  0  0  0  0  0  0  0  0  0
   10.6613    4.8959   12.3086 O   0  0  0  0  0  0  0  0  0  0  0  0
   10.3946    5.7881   14.3905 N   0  0  0  0  0  0  0  0  0  0  0  0
   10.5883    6.5540   14.9779 H   0  0  0  0  0  0  0  0  0  0  0  0
   11.5613    7.1065   12.7061 C   0  0  0  0  0  0  0  0  0  0  0  0
   10.6580    8.3524   12.7941 C   0  0  0  0  0  0  0  0  0  0  0  0
    9.4351    8.2181   11.8798 C   0  0  0  0  0  0  0  0  0  0  0  0
    8.4396    9.3699   12.0436 C   0  0  0  0  0  0  0  0  0  0  0  0
    7.6546    9.4898   10.7354 C   0  0  0  0  0  0  0  0  0  0  0  0
    7.6320    8.8696    7.9280 O   0  0  0  0  0  0  0  0  0  0  0  0
    8.3446    9.7839    8.3672 C   0  0  0  0  0  0  0  0  0  0  0  0
    8.4413   10.1123    9.6561 N   0  0  0  0  0  0  0  0  0  0  0  0
    9.0815   10.8182    9.9032 H   0  0  0  0  0  0  0  0  0  0  0  0
    9.6956   10.7526    5.0207 O   0  0  0  0  0  0  0  0  0  0  0  0
   11.2359    8.5887    5.2170 O   0  0  0  0  0  0  0  0  0  0  0  0
   10.5409   10.8498    7.9011 O   0  0  0  0  0  0  0  0  0  0  0  0
    9.3741    9.8350    6.0843 C   0  0  0  0  0  0  0  0  0  0  0  0
   10.5892    8.9883    6.4167 C   0  0  0  0  0  0  0  0  0  0  0  0
    9.1879   10.6177    7.3842 C   0  0  0  0  0  0  0  0  0  0  0  0
   11.4746    9.9769    7.2004 C   0  0  0  0  0  0  0  0  0  0  0  0
    9.8146   10.2599    4.1936 H   0  0  0  0  0  0  0  0  0  0  0  0
   10.6678    7.9676    4.7350 H   0  0  0  0  0  0  0  0  0  0  0  0
   16.3772    8.5816    8.1868 N   0  0  0  0  0  0  0  0  0  0  0  0
   15.8846    9.2458    7.1323 C   0  0  0  0  0  0  0  0  0  0  0  0
   14.5905    9.5220    7.0368 N   0  0  0  0  0  0  0  0  0  0  0  0
   13.7413    9.1460    8.0059 C   0  0  0  0  0  0  0  0  0  0  0  0
   14.2212    8.4478    9.1060 C   0  0  0  0  0  0  0  0  0  0  0  0
   15.5751    8.1670    9.1807 C   0  0  0  0  0  0  0  0  0  0  0  0
   16.0609    7.4971   10.2203 N   0  0  0  0  0  0  0  0  0  0  0  0
   13.1961    8.1830    9.9136 N   0  0  0  0  0  0  0  0  0  0  0  0
   12.1093    8.7074    9.3366 C   0  0  0  0  0  0  0  0  0  0  0  0
   12.4291    9.2830    8.1665 N   0  0  0  0  0  0  0  0  0  0  0  0
   17.0238    7.2985   10.2715 H   0  0  0  0  0  0  0  0  0  0  0  0
   15.4580    7.1995   10.9394 H   0  0  0  0  0  0  0  0  0  0  0  0
    8.5612    5.0663   15.9447 C   0  0  0  0  0  0  0  0  0  0  0  0
    7.1476    5.1881   15.3663 C   0  0  0  0  0  0  0  0  0  0  0  0
    7.1915    5.0937   13.8266 C   0  0  0  0  0  0  0  0  0  0  0  0
    6.4531    6.2740   13.1771 C   0  0  0  0  0  0  0  0  0  0  0  0
    6.2746    7.3586   14.1592 N   0  0  0  0  0  0  0  0  0  0  0  0
    5.7254    7.0163   14.9477 H   0  0  0  0  0  0  0  0  0  0  0  0
    5.7874    8.1391   13.7189 H   0  0  0  0  0  0  0  0  0  0  0  0
   12.2041    1.7459   15.0324 C   0  0  0  0  0  0  0  0  0  0  0  0
   13.2094    1.4952   13.9028 C   0  0  0  0  0  0  0  0  0  0  0  0
   13.9512    2.7889   13.5463 C   0  0  0  0  0  0  0  0  0  0  0  0
   13.7043    3.2062   12.0930 C   0  0  0  0  0  0  0  0  0  0  0  0
   14.9656    3.8078   11.4510 C   0  0  0  0  0  0  0  0  0  0  0  0
   14.6887    4.3255   10.0297 C   0  0  0  0  0  0  0  0  0  0  0  0
   13.5977    4.8267    9.7400 O   0  0  0  0  0  0  0  0  0  0  0  0
   15.7089    4.1948    9.1731 N   0  0  0  0  0  0  0  0  0  0  0  0
   16.5458    3.7915    9.4990 H   0  0  0  0  0  0  0  0  0  0  0  0
   15.6388    4.6287    7.7558 C   0  0  0  0  0  0  0  0  0  0  0  0
   17.0611    4.8476    7.1852 C   0  0  0  0  0  0  0  0  0  0  0  0
   17.3812    4.3893    6.0884 O   0  0  0  0  0  0  0  0  0  0  0  0
   17.8875    5.5502    7.9634 N   0  0  0  0  0  0  0  0  0  0  0  0
   17.5485    5.8784    8.8275 H   0  0  0  0  0  0  0  0  0  0  0  0
   19.2866    5.8616    7.5948 C   0  0  0  0  0  0  0  0  0  0  0  0
   19.6072    7.3596    7.8024 C   0  0  0  0  0  0  0  0  0  0  0  0
   20.0867    8.0519    6.9021 O   0  0  0  0  0  0  0  0  0  0  0  0
   19.3042    7.8324    9.0097 N   0  0  0  0  0  0  0  0  0  0  0  0
   18.9229    7.2332    9.6915 H   0  0  0  0  0  0  0  0  0  0  0  0
   19.4613    8.7811    9.2206 H   0  0  0  0  0  0  0  0  0  0  0  0
   20.2442    5.0029    8.4306 C   0  0  0  0  0  0  0  0  0  0  0  0
   20.2204    3.5402    7.9824 C   0  0  0  0  0  0  0  0  0  0  0  0
   20.8969    2.6357    9.0071 C   0  0  0  0  0  0  0  0  0  0  0  0
   19.8463    1.8956    9.6991 N   0  0  0  0  0  0  0  0  0  0  0  0
   19.1282    2.4181   10.1239 H   0  0  0  0  0  0  0  0  0  0  0  0
   19.7823    0.5687    9.8014 C   0  0  0  0  0  0  0  0  0  0  0  0
   20.8638   -0.2097    9.8288 N   0  0  0  0  0  0  0  0  0  0  0  0
   18.5737    0.0323    9.8998 N   0  0  0  0  0  0  0  0  0  0  0  0
   21.7603    0.1905    9.7556 H   0  0  0  0  0  0  0  0  0  0  0  0
   20.7662   -1.1849    9.9222 H   0  0  0  0  0  0  0  0  0  0  0  0
   17.7760    0.6090    9.8794 H   0  0  0  0  0  0  0  0  0  0  0  0
   14.8391    3.6159    6.8934 C   0  0  0  0  0  0  0  0  0  0  0  0
   13.6010    4.2089    6.1988 C   0  0  0  0  0  0  0  0  0  0  0  0
   13.4654    5.7208    6.4401 C   0  0  0  0  0  0  0  0  0  0  0  0
   12.3321    5.9431    7.3580 N   0  0  0  0  0  0  0  0  0  0  0  0
   12.4302    6.6325    8.0540 H   0  0  0  0  0  0  0  0  0  0  0  0
   11.1775    5.2652    7.3034 C   0  0  0  0  0  0  0  0  0  0  0  0
   10.8731    4.3036    8.1734 N   0  0  0  0  0  0  0  0  0  0  0  0
   10.3046    5.5759    6.3497 N   0  0  0  0  0  0  0  0  0  0  0  0
   11.5102    4.0635    8.8845 H   0  0  0  0  0  0  0  0  0  0  0  0
   10.0110    3.8330    8.1053 H   0  0  0  0  0  0  0  0  0  0  0  0
   10.5167    6.2846    5.7000 H   0  0  0  0  0  0  0  0  0  0  0  0
 28 29  2  0  0  0
 28 33  1  0  0  0
 29 30  1  0  0  0
 30 31  2  0  0  0
 31 32  1  0  0  0
 31 37  1  0  0  0
 32 33  2  0  0  0
 32 35  1  0  0  0
 33 34  1  0  0  0
 35 36  2  0  0  0
 36 37  1  0  0  0
 37 25  1  0  0  0
 15 16  2  0  0  0
 19 22  1  0  0  0
 20 23  1  0  0  0
 21 24  1  0  0  0
 21 25  1  0  0  0
 16 24  1  0  0  0
 22 23  1  0  0  0
 22 24  1  0  0  0
 23 25  1  0  0  0
  6  7  2  0  0  0
  6 10  1  0  0  0
 10 11  1  0  0  0
 11 12  1  0  0  0
 12 13  1  0  0  0
 13 14  1  0  0  0
 14 17  1  0  0  0
  8  5  1  0  0  0
  5  1  1  0  0  0
  5 40  1  0  0  0
  1  2  2  0  0  0
 40 41  1  0  0  0
 41 42  1  0  0  0
 42 43  1  0  0  0
 43 44  1  0  0  0
 52 53  2  0  0  0
 52 51  1  0  0  0
 51 50  1  0  0  0
 50 49  1  0  0  0
 49 48  1  0  0  0
 48 47  1  0  0  0
 47  3  1  0  0  0
 54 56  1  0  0  0
 56 78  1  0  0  0
 56 57  1  0  0  0
 78 79  1  0  0  0
 79 80  1  0  0  0
 80 81  1  0  0  0
 81 83  1  0  0  0
 83 84  1  0  0  0
 83 85  2  0  0  0
 57 58  2  0  0  0
 59 61  1  0  0  0
 61 67  1  0  0  0
 61 62  1  0  0  0
 67 68  1  0  0  0
 68 69  1  0  0  0
 69 70  1  0  0  0
 70 72  1  0  0  0
 72 73  1  0  0  0
 72 74  2  0  0  0
 62 63  2  0  0  0
 16 17  1  0  0  0
  6  8  1  0  0  0
  1  3  1  0  0  0
 52 54  1  0  0  0
 57 59  1  0  0  0
 62 64  1  0  0  0
 34 38  1  0  0  0
 34 39  1  0  0  0
 19 26  1  0  0  0
 20 27  1  0  0  0
 17 18  1  0  0  0
  8  9  1  0  0  0
 44 45  1  0  0  0
 44 46  1  0  0  0
  3  4  1  0  0  0
 54 55  1  0  0  0
 81 82  1  0  0  0
 84 86  1  0  0  0
 84 87  1  0  0  0
 85 88  1  0  0  0
 59 60  1  0  0  0
 70 71  1  0  0  0
 73 75  1  0  0  0
 73 76  1  0  0  0
 74 77  1  0  0  0
 64 65  1  0  0  0
 64 66  1  0  0  0
M  END
> <minimizedAffinity>
-7.28455

$$$$
3AG9_A02_B_351


 88 90  0  0  0  0  0  0  0  0999 V2000
   18.2769    3.7383    7.5566 C   0  0  0  0  0  0  0  0  0  0  0  0
   17.7844    3.8017    6.4369 O   0  0  0  0  0  0  0  0  0  0  0  0
   17.6544    3.2124    8.6101 N   0  0  0  0  0  0  0  0  0  0  0  0
   18.1157    3.2089    9.4798 H   0  0  0  0  0  0  0  0  0  0  0  0
   19.6868    4.3171    7.8292 C   0  0  0  0  0  0  0  0  0  0  0  0
   20.1079    6.7532    7.8306 C   0  0  0  0  0  0  0  0  0  0  0  0
   20.1724    6.8193    9.0640 O   0  0  0  0  0  0  0  0  0  0  0  0
   19.8567    5.6256    7.1465 N   0  0  0  0  0  0  0  0  0  0  0  0
   19.7830    5.6670    6.1657 H   0  0  0  0  0  0  0  0  0  0  0  0
   20.2640    8.0210    6.9658 C   0  0  0  0  0  0  0  0  0  0  0  0
   20.6112    7.6794    5.5033 C   0  0  0  0  0  0  0  0  0  0  0  0
   19.4051    7.8915    4.5816 C   0  0  0  0  0  0  0  0  0  0  0  0
   19.0575    9.3699    4.3865 C   0  0  0  0  0  0  0  0  0  0  0  0
   17.6029    9.5625    4.8212 C   0  0  0  0  0  0  0  0  0  0  0  0
   16.2049    9.4078    7.3289 O   0  0  0  0  0  0  0  0  0  0  0  0
   16.3790    8.3927    6.6391 C   0  0  0  0  0  0  0  0  0  0  0  0
   17.0459    8.3704    5.4845 N   0  0  0  0  0  0  0  0  0  0  0  0
   17.1749    7.4986    5.0456 H   0  0  0  0  0  0  0  0  0  0  0  0
   15.0691    4.9166    6.2341 O   0  0  0  0  0  0  0  0  0  0  0  0
   12.8569    6.0544    5.2831 O   0  0  0  0  0  0  0  0  0  0  0  0
   14.7200    7.2490    8.0940 O   0  0  0  0  0  0  0  0  0  0  0  0
   15.1526    6.3243    5.9376 C   0  0  0  0  0  0  0  0  0  0  0  0
   13.7618    6.9322    5.9371 C   0  0  0  0  0  0  0  0  0  0  0  0
   15.7975    7.0494    7.1188 C   0  0  0  0  0  0  0  0  0  0  0  0
   13.4378    7.0139    7.4417 C   0  0  0  0  0  0  0  0  0  0  0  0
   14.6603    4.4525    5.4869 H   0  0  0  0  0  0  0  0  0  0  0  0
   13.0725    6.0130    4.3382 H   0  0  0  0  0  0  0  0  0  0  0  0
    8.4405    8.2139    8.1775 N   0  0  0  0  0  0  0  0  0  0  0  0
    8.9879    7.0294    7.8723 C   0  0  0  0  0  0  0  0  0  0  0  0
   10.2989    6.8973    7.7168 N   0  0  0  0  0  0  0  0  0  0  0  0
   11.1121    7.9541    7.8708 C   0  0  0  0  0  0  0  0  0  0  0  0
   10.5726    9.1962    8.1775 C   0  0  0  0  0  0  0  0  0  0  0  0
    9.2010    9.3100    8.3300 C   0  0  0  0  0  0  0  0  0  0  0  0
    8.6576   10.4873    8.6199 N   0  0  0  0  0  0  0  0  0  0  0  0
   11.5693   10.0746    8.2686 N   0  0  0  0  0  0  0  0  0  0  0  0
   12.6985    9.3976    8.0324 C   0  0  0  0  0  0  0  0  0  0  0  0
   12.4287    8.1080    7.7740 N   0  0  0  0  0  0  0  0  0  0  0  0
    7.6822   10.5660    8.7279 H   0  0  0  0  0  0  0  0  0  0  0  0
    9.2303   11.2809    8.7267 H   0  0  0  0  0  0  0  0  0  0  0  0
   20.8248    3.3335    7.4742 C   0  0  0  0  0  0  0  0  0  0  0  0
   21.5208    2.6775    8.6711 C   0  0  0  0  0  0  0  0  0  0  0  0
   20.6747    1.5004    9.2005 C   0  0  0  0  0  0  0  0  0  0  0  0
   21.5221    0.2266    9.3399 C   0  0  0  0  0  0  0  0  0  0  0  0
   20.7500   -0.8184   10.0360 N   0  0  0  0  0  0  0  0  0  0  0  0
   20.4915   -0.4877   10.9657 H   0  0  0  0  0  0  0  0  0  0  0  0
   21.3181   -1.6613   10.1208 H   0  0  0  0  0  0  0  0  0  0  0  0
   16.2945    2.6328    8.5225 C   0  0  0  0  0  0  0  0  0  0  0  0
   16.3681    1.1264    8.2492 C   0  0  0  0  0  0  0  0  0  0  0  0
   15.1086    0.6510    7.5150 C   0  0  0  0  0  0  0  0  0  0  0  0
   14.2771    1.8256    6.9895 C   0  0  0  0  0  0  0  0  0  0  0  0
   12.8253    1.7661    7.4934 C   0  0  0  0  0  0  0  0  0  0  0  0
   12.3287    3.1443    7.9612 C   0  0  0  0  0  0  0  0  0  0  0  0
   11.7647    3.9136    7.1766 O   0  0  0  0  0  0  0  0  0  0  0  0
   12.5493    3.4145    9.2534 N   0  0  0  0  0  0  0  0  0  0  0  0
   12.9980    2.7333    9.8047 H   0  0  0  0  0  0  0  0  0  0  0  0
   12.1498    4.6915    9.8949 C   0  0  0  0  0  0  0  0  0  0  0  0
   10.8763    4.4921   10.7521 C   0  0  0  0  0  0  0  0  0  0  0  0
    9.7950    4.2254   10.2276 O   0  0  0  0  0  0  0  0  0  0  0  0
   11.0449    4.6352   12.0686 N   0  0  0  0  0  0  0  0  0  0  0  0
   11.9455    4.8505   12.4030 H   0  0  0  0  0  0  0  0  0  0  0  0
    9.9486    4.4869   13.0517 C   0  0  0  0  0  0  0  0  0  0  0  0
   10.4784    4.0101   14.4236 C   0  0  0  0  0  0  0  0  0  0  0  0
   10.0702    2.9742   14.9529 O   0  0  0  0  0  0  0  0  0  0  0  0
   11.4134    4.7905   14.9619 N   0  0  0  0  0  0  0  0  0  0  0  0
   11.7017    5.6074   14.4943 H   0  0  0  0  0  0  0  0  0  0  0  0
   11.8163    4.5505   15.8275 H   0  0  0  0  0  0  0  0  0  0  0  0
    9.2148    5.8243   13.2126 C   0  0  0  0  0  0  0  0  0  0  0  0
    7.8107    5.7687   12.6074 C   0  0  0  0  0  0  0  0  0  0  0  0
    7.5914    6.9025   11.6114 C   0  0  0  0  0  0  0  0  0  0  0  0
    8.8838    7.5413   11.3835 N   0  0  0  0  0  0  0  0  0  0  0  0
    9.5478    7.0443   10.8532 H   0  0  0  0  0  0  0  0  0  0  0  0
    9.2360    8.7438   11.8363 C   0  0  0  0  0  0  0  0  0  0  0  0
    8.3569    9.7198   12.0623 N   0  0  0  0  0  0  0  0  0  0  0  0
   10.5242    8.9382   12.0829 N   0  0  0  0  0  0  0  0  0  0  0  0
    7.4008    9.5735   11.8785 H   0  0  0  0  0  0  0  0  0  0  0  0
    8.6636   10.5871   12.4131 H   0  0  0  0  0  0  0  0  0  0  0  0
   11.1719    8.2160   11.9153 H   0  0  0  0  0  0  0  0  0  0  0  0
   13.3074    5.2853   10.7413 C   0  0  0  0  0  0  0  0  0  0  0  0
   14.4597    4.3049   11.0211 C   0  0  0  0  0  0  0  0  0  0  0  0
   14.5639    3.9375   12.5100 C   0  0  0  0  0  0  0  0  0  0  0  0
   13.6588    2.8022   12.7710 N   0  0  0  0  0  0  0  0  0  0  0  0
   13.0004    2.5679   12.0775 H   0  0  0  0  0  0  0  0  0  0  0  0
   13.6771    2.0699   13.8930 C   0  0  0  0  0  0  0  0  0  0  0  0
   12.6642    1.2801   14.2460 N   0  0  0  0  0  0  0  0  0  0  0  0
   14.7526    2.1311   14.6725 N   0  0  0  0  0  0  0  0  0  0  0  0
   11.8618    1.2252   13.6781 H   0  0  0  0  0  0  0  0  0  0  0  0
   12.7179    0.7513   15.0746 H   0  0  0  0  0  0  0  0  0  0  0  0
   15.5085    2.7108   14.4236 H   0  0  0  0  0  0  0  0  0  0  0  0
 28 29  2  0  0  0
 28 33  1  0  0  0
 29 30  1  0  0  0
 30 31  2  0  0  0
 31 32  1  0  0  0
 31 37  1  0  0  0
 32 33  2  0  0  0
 32 35  1  0  0  0
 33 34  1  0  0  0
 35 36  2  0  0  0
 36 37  1  0  0  0
 37 25  1  0  0  0
 15 16  2  0  0  0
 19 22  1  0  0  0
 20 23  1  0  0  0
 21 24  1  0  0  0
 21 25  1  0  0  0
 16 24  1  0  0  0
 22 23  1  0  0  0
 22 24  1  0  0  0
 23 25  1  0  0  0
  6  7  2  0  0  0
  6 10  1  0  0  0
 10 11  1  0  0  0
 11 12  1  0  0  0
 12 13  1  0  0  0
 13 14  1  0  0  0
 14 17  1  0  0  0
  8  5  1  0  0  0
  5  1  1  0  0  0
  5 40  1  0  0  0
  1  2  2  0  0  0
 40 41  1  0  0  0
 41 42  1  0  0  0
 42 43  1  0  0  0
 43 44  1  0  0  0
 52 53  2  0  0  0
 52 51  1  0  0  0
 51 50  1  0  0  0
 50 49  1  0  0  0
 49 48  1  0  0  0
 48 47  1  0  0  0
 47  3  1  0  0  0
 54 56  1  0  0  0
 56 78  1  0  0  0
 56 57  1  0  0  0
 78 79  1  0  0  0
 79 80  1  0  0  0
 80 81  1  0  0  0
 81 83  1  0  0  0
 83 84  1  0  0  0
 83 85  2  0  0  0
 57 58  2  0  0  0
 59 61  1  0  0  0
 61 67  1  0  0  0
 61 62  1  0  0  0
 67 68  1  0  0  0
 68 69  1  0  0  0
 69 70  1  0  0  0
 70 72  1  0  0  0
 72 73  1  0  0  0
 72 74  2  0  0  0
 62 63  2  0  0  0
 16 17  1  0  0  0
  6  8  1  0  0  0
  1  3  1  0  0  0
 52 54  1  0  0  0
 57 59  1  0  0  0
 62 64  1  0  0  0
 34 38  1  0  0  0
 34 39  1  0  0  0
 19 26  1  0  0  0
 20 27  1  0  0  0
 17 18  1  0  0  0
  8  9  1  0  0  0
 44 45  1  0  0  0
 44 46  1  0  0  0
  3  4  1  0  0  0
 54 55  1  0  0  0
 81 82  1  0  0  0
 84 86  1  0  0  0
 84 87  1  0  0  0
 85 88  1  0  0  0
 59 60  1  0  0  0
 70 71  1  0  0  0
 73 75  1  0  0  0
 73 76  1  0  0  0
 74 77  1  0  0  0
 64 65  1  0  0  0
 64 66  1  0  0  0
M  END
> <minimizedAffinity>
-7.21647

$$$$
3AG9_A02_B_351


 88 90  0  0  0  0  0  0  0  0999 V2000
   18.0828    4.6788    7.4564 C   0  0  0  0  0  0  0  0  0  0  0  0
   17.2345    5.5320    7.6865 O   0  0  0  0  0  0  0  0  0  0  0  0
   17.8022    3.4633    6.9898 N   0  0  0  0  0  0  0  0  0  0  0  0
   18.5418    2.8307    6.8409 H   0  0  0  0  0  0  0  0  0  0  0  0
   19.5789    4.9619    7.7373 C   0  0  0  0  0  0  0  0  0  0  0  0
   20.1210    7.3590    7.4689 C   0  0  0  0  0  0  0  0  0  0  0  0
   19.7660    7.6472    8.6181 O   0  0  0  0  0  0  0  0  0  0  0  0
   20.0497    6.1257    6.9430 N   0  0  0  0  0  0  0  0  0  0  0  0
   20.3167    5.9889    6.0053 H   0  0  0  0  0  0  0  0  0  0  0  0
   20.6384    8.4498    6.5088 C   0  0  0  0  0  0  0  0  0  0  0  0
   21.0244    7.8689    5.1341 C   0  0  0  0  0  0  0  0  0  0  0  0
   19.8087    7.7866    4.2043 C   0  0  0  0  0  0  0  0  0  0  0  0
   19.9517    6.7035    3.1314 C   0  0  0  0  0  0  0  0  0  0  0  0
   19.1146    5.5019    3.5753 C   0  0  0  0  0  0  0  0  0  0  0  0
   16.6003    4.2400    2.9816 O   0  0  0  0  0  0  0  0  0  0  0  0
   16.6516    5.2217    3.7368 C   0  0  0  0  0  0  0  0  0  0  0  0
   17.7686    5.8864    4.0352 N   0  0  0  0  0  0  0  0  0  0  0  0
   17.6884    6.6881    4.6010 H   0  0  0  0  0  0  0  0  0  0  0  0
   12.9991    5.9934    3.8996 O   0  0  0  0  0  0  0  0  0  0  0  0
   13.5482    8.0571    2.3081 O   0  0  0  0  0  0  0  0  0  0  0  0
   15.5682    7.0167    5.0715 O   0  0  0  0  0  0  0  0  0  0  0  0
   14.3133    6.0115    3.3089 C   0  0  0  0  0  0  0  0  0  0  0  0
   14.6744    7.4288    2.9031 C   0  0  0  0  0  0  0  0  0  0  0  0
   15.3553    5.7339    4.3925 C   0  0  0  0  0  0  0  0  0  0  0  0
   15.0020    8.0857    4.2583 C   0  0  0  0  0  0  0  0  0  0  0  0
   12.3345    6.1692    3.2152 H   0  0  0  0  0  0  0  0  0  0  0  0
   13.3540    7.6339    1.4571 H   0  0  0  0  0  0  0  0  0  0  0  0
   16.7103   12.5206    6.3483 N   0  0  0  0  0  0  0  0  0  0  0  0
   15.7655   11.6840    6.7992 C   0  0  0  0  0  0  0  0  0  0  0  0
   15.4477   10.5820    6.1324 N   0  0  0  0  0  0  0  0  0  0  0  0
   16.0760   10.2750    4.9867 C   0  0  0  0  0  0  0  0  0  0  0  0
   17.0525   11.1279    4.4898 C   0  0  0  0  0  0  0  0  0  0  0  0
   17.3634   12.2746    5.2011 C   0  0  0  0  0  0  0  0  0  0  0  0
   18.2911   13.1102    4.7469 N   0  0  0  0  0  0  0  0  0  0  0  0
   17.5155   10.6158    3.3511 N   0  0  0  0  0  0  0  0  0  0  0  0
   16.8514    9.4727    3.1478 C   0  0  0  0  0  0  0  0  0  0  0  0
   15.9615    9.2643    4.1313 N   0  0  0  0  0  0  0  0  0  0  0  0
   18.5107   13.9249    5.2542 H   0  0  0  0  0  0  0  0  0  0  0  0
   18.7590   12.9148    3.9030 H   0  0  0  0  0  0  0  0  0  0  0  0
   20.4796    3.7235    7.5284 C   0  0  0  0  0  0  0  0  0  0  0  0
   20.6031    2.7919    8.7385 C   0  0  0  0  0  0  0  0  0  0  0  0
   21.9150    1.9833    8.6572 C   0  0  0  0  0  0  0  0  0  0  0  0
   21.7149    0.5483    9.1679 C   0  0  0  0  0  0  0  0  0  0  0  0
   20.4377    0.4464    9.8967 N   0  0  0  0  0  0  0  0  0  0  0  0
   20.4487    1.0840   10.6927 H   0  0  0  0  0  0  0  0  0  0  0  0
   20.3110   -0.5098   10.2286 H   0  0  0  0  0  0  0  0  0  0  0  0
   16.4199    3.0275    6.6864 C   0  0  0  0  0  0  0  0  0  0  0  0
   16.4308    1.8290    5.7309 C   0  0  0  0  0  0  0  0  0  0  0  0
   15.4468    0.7534    6.2063 C   0  0  0  0  0  0  0  0  0  0  0  0
   15.1892    0.8422    7.7140 C   0  0  0  0  0  0  0  0  0  0  0  0
   13.6866    0.7997    8.0385 C   0  0  0  0  0  0  0  0  0  0  0  0
   13.0432    2.1928    7.9372 C   0  0  0  0  0  0  0  0  0  0  0  0
   12.1271    2.4103    7.1378 O   0  0  0  0  0  0  0  0  0  0  0  0
   13.5458    3.1084    8.7743 N   0  0  0  0  0  0  0  0  0  0  0  0
   14.2699    2.8384    9.3842 H   0  0  0  0  0  0  0  0  0  0  0  0
   13.0638    4.5108    8.8269 C   0  0  0  0  0  0  0  0  0  0  0  0
   13.4249    5.1572   10.1865 C   0  0  0  0  0  0  0  0  0  0  0  0
   14.5963    5.2458   10.5545 O   0  0  0  0  0  0  0  0  0  0  0  0
   12.3881    5.5922   10.9061 N   0  0  0  0  0  0  0  0  0  0  0  0
   11.4829    5.4797   10.5356 H   0  0  0  0  0  0  0  0  0  0  0  0
   12.5285    6.2349   12.2318 C   0  0  0  0  0  0  0  0  0  0  0  0
   12.6649    7.7696   12.1059 C   0  0  0  0  0  0  0  0  0  0  0  0
   11.6810    8.5123   12.1206 O   0  0  0  0  0  0  0  0  0  0  0  0
   13.9169    8.2116   12.0051 N   0  0  0  0  0  0  0  0  0  0  0  0
   14.6655    7.5722   11.9983 H   0  0  0  0  0  0  0  0  0  0  0  0
   14.0939    9.1776   11.9373 H   0  0  0  0  0  0  0  0  0  0  0  0
   11.3151    5.8894   13.1043 C   0  0  0  0  0  0  0  0  0  0  0  0
   11.0096    4.3906   13.0700 C   0  0  0  0  0  0  0  0  0  0  0  0
   10.2018    3.9617   14.2905 C   0  0  0  0  0  0  0  0  0  0  0  0
   11.1382    3.7886   15.3966 N   0  0  0  0  0  0  0  0  0  0  0  0
   11.3244    4.5742   15.9600 H   0  0  0  0  0  0  0  0  0  0  0  0
   11.7609    2.6517   15.7042 C   0  0  0  0  0  0  0  0  0  0  0  0
   11.5346    1.5046   15.0643 N   0  0  0  0  0  0  0  0  0  0  0  0
   12.6552    2.7031   16.6818 N   0  0  0  0  0  0  0  0  0  0  0  0
   10.8701    1.4685   14.3388 H   0  0  0  0  0  0  0  0  0  0  0  0
   12.0319    0.6935   15.3172 H   0  0  0  0  0  0  0  0  0  0  0  0
   12.8210    3.5513   17.1532 H   0  0  0  0  0  0  0  0  0  0  0  0
   13.6229    5.3455    7.6438 C   0  0  0  0  0  0  0  0  0  0  0  0
   12.8330    6.6308    7.3418 C   0  0  0  0  0  0  0  0  0  0  0  0
   13.6324    7.8993    7.6798 C   0  0  0  0  0  0  0  0  0  0  0  0
   14.9412    7.4903    8.2241 N   0  0  0  0  0  0  0  0  0  0  0  0
   15.2892    6.6044    7.9725 H   0  0  0  0  0  0  0  0  0  0  0  0
   15.6857    8.2495    9.0395 C   0  0  0  0  0  0  0  0  0  0  0  0
   16.8860    7.8667    9.4722 N   0  0  0  0  0  0  0  0  0  0  0  0
   15.2071    9.4308    9.4184 N   0  0  0  0  0  0  0  0  0  0  0  0
   17.2524    6.9946    9.1995 H   0  0  0  0  0  0  0  0  0  0  0  0
   17.4066    8.4559   10.0647 H   0  0  0  0  0  0  0  0  0  0  0  0
   14.3214    9.7261    9.1061 H   0  0  0  0  0  0  0  0  0  0  0  0
 28 29  2  0  0  0
 28 33  1  0  0  0
 29 30  1  0  0  0
 30 31  2  0  0  0
 31 32  1  0  0  0
 31 37  1  0  0  0
 32 33  2  0  0  0
 32 35  1  0  0  0
 33 34  1  0  0  0
 35 36  2  0  0  0
 36 37  1  0  0  0
 37 25  1  0  0  0
 15 16  2  0  0  0
 19 22  1  0  0  0
 20 23  1  0  0  0
 21 24  1  0  0  0
 21 25  1  0  0  0
 16 24  1  0  0  0
 22 23  1  0  0  0
 22 24  1  0  0  0
 23 25  1  0  0  0
  6  7  2  0  0  0
  6 10  1  0  0  0
 10 11  1  0  0  0
 11 12  1  0  0  0
 12 13  1  0  0  0
 13 14  1  0  0  0
 14 17  1  0  0  0
  8  5  1  0  0  0
  5  1  1  0  0  0
  5 40  1  0  0  0
  1  2  2  0  0  0
 40 41  1  0  0  0
 41 42  1  0  0  0
 42 43  1  0  0  0
 43 44  1  0  0  0
 52 53  2  0  0  0
 52 51  1  0  0  0
 51 50  1  0  0  0
 50 49  1  0  0  0
 49 48  1  0  0  0
 48 47  1  0  0  0
 47  3  1  0  0  0
 54 56  1  0  0  0
 56 78  1  0  0  0
 56 57  1  0  0  0
 78 79  1  0  0  0
 79 80  1  0  0  0
 80 81  1  0  0  0
 81 83  1  0  0  0
 83 84  1  0  0  0
 83 85  2  0  0  0
 57 58  2  0  0  0
 59 61  1  0  0  0
 61 67  1  0  0  0
 61 62  1  0  0  0
 67 68  1  0  0  0
 68 69  1  0  0  0
 69 70  1  0  0  0
 70 72  1  0  0  0
 72 73  1  0  0  0
 72 74  2  0  0  0
 62 63  2  0  0  0
 16 17  1  0  0  0
  6  8  1  0  0  0
  1  3  1  0  0  0
 52 54  1  0  0  0
 57 59  1  0  0  0
 62 64  1  0  0  0
 34 38  1  0  0  0
 34 39  1  0  0  0
 19 26  1  0  0  0
 20 27  1  0  0  0
 17 18  1  0  0  0
  8  9  1  0  0  0
 44 45  1  0  0  0
 44 46  1  0  0  0
  3  4  1  0  0  0
 54 55  1  0  0  0
 81 82  1  0  0  0
 84 86  1  0  0  0
 84 87  1  0  0  0
 85 88  1  0  0  0
 59 60  1  0  0  0
 70 71  1  0  0  0
 73 75  1  0  0  0
 73 76  1  0  0  0
 74 77  1  0  0  0
 64 65  1  0  0  0
 64 66  1  0  0  0
M  END
> <minimizedAffinity>
-7.13804

$$$$
3AG9_A02_B_351


 88 90  0  0  0  0  0  0  0  0999 V2000
   15.3013    3.8650    9.1489 C   0  0  0  0  0  0  0  0  0  0  0  0
   14.6151    4.7562    8.6639 O   0  0  0  0  0  0  0  0  0  0  0  0
   15.4184    3.6506   10.4583 N   0  0  0  0  0  0  0  0  0  0  0  0
   15.9992    2.9187   10.7684 H   0  0  0  0  0  0  0  0  0  0  0  0
   16.1284    2.9253    8.2377 C   0  0  0  0  0  0  0  0  0  0  0  0
   17.9928    1.5710    9.1331 C   0  0  0  0  0  0  0  0  0  0  0  0
   17.3391    0.5211    9.1180 O   0  0  0  0  0  0  0  0  0  0  0  0
   17.5088    2.7676    8.7635 N   0  0  0  0  0  0  0  0  0  0  0  0
   18.0845    3.5623    8.8432 H   0  0  0  0  0  0  0  0  0  0  0  0
   19.4464    1.5851    9.6489 C   0  0  0  0  0  0  0  0  0  0  0  0
   20.1493    2.9239    9.3488 C   0  0  0  0  0  0  0  0  0  0  0  0
   21.1864    2.7688    8.2309 C   0  0  0  0  0  0  0  0  0  0  0  0
   20.9693    3.7511    7.0766 C   0  0  0  0  0  0  0  0  0  0  0  0
   20.2050    4.9544    7.6333 C   0  0  0  0  0  0  0  0  0  0  0  0
   19.1330    7.5844    8.0809 O   0  0  0  0  0  0  0  0  0  0  0  0
   19.7996    7.3384    7.0651 C   0  0  0  0  0  0  0  0  0  0  0  0
   20.3012    6.1400    6.7638 N   0  0  0  0  0  0  0  0  0  0  0  0
   20.7673    6.0409    5.9023 H   0  0  0  0  0  0  0  0  0  0  0  0
   19.0258   10.4317    5.1168 O   0  0  0  0  0  0  0  0  0  0  0  0
   17.4727    8.8776    3.6114 O   0  0  0  0  0  0  0  0  0  0  0  0
   20.7063    7.9583    4.8356 O   0  0  0  0  0  0  0  0  0  0  0  0
   18.7684    9.1067    5.6215 C   0  0  0  0  0  0  0  0  0  0  0  0
   18.3633    8.1922    4.4798 C   0  0  0  0  0  0  0  0  0  0  0  0
   20.0873    8.4717    6.0624 C   0  0  0  0  0  0  0  0  0  0  0  0
   19.7082    7.9321    3.7735 C   0  0  0  0  0  0  0  0  0  0  0  0
   18.1912   10.8384    4.8359 H   0  0  0  0  0  0  0  0  0  0  0  0
   16.6317    9.0342    4.0687 H   0  0  0  0  0  0  0  0  0  0  0  0
   22.1093    3.3822    3.0746 N   0  0  0  0  0  0  0  0  0  0  0  0
   22.4128    4.3754    3.9215 C   0  0  0  0  0  0  0  0  0  0  0  0
   21.6855    5.4839    3.9705 N   0  0  0  0  0  0  0  0  0  0  0  0
   20.6170    5.6323    3.1717 C   0  0  0  0  0  0  0  0  0  0  0  0
   20.2839    4.6243    2.2769 C   0  0  0  0  0  0  0  0  0  0  0  0
   21.0610    3.4787    2.2409 C   0  0  0  0  0  0  0  0  0  0  0  0
   20.7672    2.4999    1.3918 N   0  0  0  0  0  0  0  0  0  0  0  0
   19.2040    5.0070    1.5982 N   0  0  0  0  0  0  0  0  0  0  0  0
   18.8695    6.2162    2.0619 C   0  0  0  0  0  0  0  0  0  0  0  0
   19.7335    6.6120    3.0102 N   0  0  0  0  0  0  0  0  0  0  0  0
   21.3210    1.6863    1.3678 H   0  0  0  0  0  0  0  0  0  0  0  0
   19.9957    2.5882    0.7867 H   0  0  0  0  0  0  0  0  0  0  0  0
   16.1263    3.3624    6.7553 C   0  0  0  0  0  0  0  0  0  0  0  0
   17.3796    2.9842    5.9592 C   0  0  0  0  0  0  0  0  0  0  0  0
   17.8187    4.1624    5.0645 C   0  0  0  0  0  0  0  0  0  0  0  0
   16.6052    4.8645    4.4363 C   0  0  0  0  0  0  0  0  0  0  0  0
   16.2800    4.2443    3.1392 N   0  0  0  0  0  0  0  0  0  0  0  0
   17.0779    4.3334    2.5102 H   0  0  0  0  0  0  0  0  0  0  0  0
   15.4714    4.7135    2.7312 H   0  0  0  0  0  0  0  0  0  0  0  0
   14.7078    4.4718   11.4651 C   0  0  0  0  0  0  0  0  0  0  0  0
   14.7273    3.7814   12.8335 C   0  0  0  0  0  0  0  0  0  0  0  0
   13.5810    2.7687   12.9411 C   0  0  0  0  0  0  0  0  0  0  0  0
   13.7420    1.8520   14.1580 C   0  0  0  0  0  0  0  0  0  0  0  0
   12.3850    1.5043   14.7927 C   0  0  0  0  0  0  0  0  0  0  0  0
   11.5649    2.7663   15.1087 C   0  0  0  0  0  0  0  0  0  0  0  0
   11.7505    3.3962   16.1548 O   0  0  0  0  0  0  0  0  0  0  0  0
   10.6726    3.1083   14.1716 N   0  0  0  0  0  0  0  0  0  0  0  0
   10.6034    2.5495   13.3641 H   0  0  0  0  0  0  0  0  0  0  0  0
    9.7825    4.2896   14.2916 C   0  0  0  0  0  0  0  0  0  0  0  0
    9.8109    5.1241   12.9880 C   0  0  0  0  0  0  0  0  0  0  0  0
    9.5397    4.6118   11.9020 O   0  0  0  0  0  0  0  0  0  0  0  0
   10.1495    6.4067   13.1374 N   0  0  0  0  0  0  0  0  0  0  0  0
   10.3524    6.7332   14.0438 H   0  0  0  0  0  0  0  0  0  0  0  0
   10.2360    7.3633   12.0115 C   0  0  0  0  0  0  0  0  0  0  0  0
    8.9156    8.1469   11.8312 C   0  0  0  0  0  0  0  0  0  0  0  0
    7.9049    7.6173   11.3643 O   0  0  0  0  0  0  0  0  0  0  0  0
    8.9592    9.4139   12.2382 N   0  0  0  0  0  0  0  0  0  0  0  0
    9.7947    9.7851   12.6034 H   0  0  0  0  0  0  0  0  0  0  0  0
    8.1560    9.9795   12.1739 H   0  0  0  0  0  0  0  0  0  0  0  0
   11.3934    8.3408   12.2521 C   0  0  0  0  0  0  0  0  0  0  0  0
   12.2448    8.5208   10.9936 C   0  0  0  0  0  0  0  0  0  0  0  0
   13.6657    8.0102   11.2085 C   0  0  0  0  0  0  0  0  0  0  0  0
   14.5140    8.6391   10.2009 N   0  0  0  0  0  0  0  0  0  0  0  0
   14.4397    9.6145   10.0904 H   0  0  0  0  0  0  0  0  0  0  0  0
   15.3810    7.9975    9.4187 C   0  0  0  0  0  0  0  0  0  0  0  0
   16.6019    7.6478    9.8233 N   0  0  0  0  0  0  0  0  0  0  0  0
   14.9716    7.6894    8.1958 N   0  0  0  0  0  0  0  0  0  0  0  0
   16.9040    7.8775   10.7318 H   0  0  0  0  0  0  0  0  0  0  0  0
   17.2015    7.1598    9.2138 H   0  0  0  0  0  0  0  0  0  0  0  0
   14.0695    7.9486    7.8988 H   0  0  0  0  0  0  0  0  0  0  0  0
    8.3334    3.8707   14.6571 C   0  0  0  0  0  0  0  0  0  0  0  0
    7.6245    4.8198   15.6388 C   0  0  0  0  0  0  0  0  0  0  0  0
    6.4393    5.5518   14.9890 C   0  0  0  0  0  0  0  0  0  0  0  0
    6.7285    6.9984   14.9963 N   0  0  0  0  0  0  0  0  0  0  0  0
    7.6379    7.2861   15.2402 H   0  0  0  0  0  0  0  0  0  0  0  0
    5.8304    7.9451   14.6917 C   0  0  0  0  0  0  0  0  0  0  0  0
    4.7264    8.1391   15.4114 N   0  0  0  0  0  0  0  0  0  0  0  0
    6.0611    8.7219   13.6374 N   0  0  0  0  0  0  0  0  0  0  0  0
    4.5432    7.5712   16.1945 H   0  0  0  0  0  0  0  0  0  0  0  0
    4.0937    8.8503   15.1603 H   0  0  0  0  0  0  0  0  0  0  0  0
    6.8731    8.5895   13.0967 H   0  0  0  0  0  0  0  0  0  0  0  0
 28 29  2  0  0  0
 28 33  1  0  0  0
 29 30  1  0  0  0
 30 31  2  0  0  0
 31 32  1  0  0  0
 31 37  1  0  0  0
 32 33  2  0  0  0
 32 35  1  0  0  0
 33 34  1  0  0  0
 35 36  2  0  0  0
 36 37  1  0  0  0
 37 25  1  0  0  0
 15 16  2  0  0  0
 19 22  1  0  0  0
 20 23  1  0  0  0
 21 24  1  0  0  0
 21 25  1  0  0  0
 16 24  1  0  0  0
 22 23  1  0  0  0
 22 24  1  0  0  0
 23 25  1  0  0  0
  6  7  2  0  0  0
  6 10  1  0  0  0
 10 11  1  0  0  0
 11 12  1  0  0  0
 12 13  1  0  0  0
 13 14  1  0  0  0
 14 17  1  0  0  0
  8  5  1  0  0  0
  5  1  1  0  0  0
  5 40  1  0  0  0
  1  2  2  0  0  0
 40 41  1  0  0  0
 41 42  1  0  0  0
 42 43  1  0  0  0
 43 44  1  0  0  0
 52 53  2  0  0  0
 52 51  1  0  0  0
 51 50  1  0  0  0
 50 49  1  0  0  0
 49 48  1  0  0  0
 48 47  1  0  0  0
 47  3  1  0  0  0
 54 56  1  0  0  0
 56 78  1  0  0  0
 56 57  1  0  0  0
 78 79  1  0  0  0
 79 80  1  0  0  0
 80 81  1  0  0  0
 81 83  1  0  0  0
 83 84  1  0  0  0
 83 85  2  0  0  0
 57 58  2  0  0  0
 59 61  1  0  0  0
 61 67  1  0  0  0
 61 62  1  0  0  0
 67 68  1  0  0  0
 68 69  1  0  0  0
 69 70  1  0  0  0
 70 72  1  0  0  0
 72 73  1  0  0  0
 72 74  2  0  0  0
 62 63  2  0  0  0
 16 17  1  0  0  0
  6  8  1  0  0  0
  1  3  1  0  0  0
 52 54  1  0  0  0
 57 59  1  0  0  0
 62 64  1  0  0  0
 34 38  1  0  0  0
 34 39  1  0  0  0
 19 26  1  0  0  0
 20 27  1  0  0  0
 17 18  1  0  0  0
  8  9  1  0  0  0
 44 45  1  0  0  0
 44 46  1  0  0  0
  3  4  1  0  0  0
 54 55  1  0  0  0
 81 82  1  0  0  0
 84 86  1  0  0  0
 84 87  1  0  0  0
 85 88  1  0  0  0
 59 60  1  0  0  0
 70 71  1  0  0  0
 73 75  1  0  0  0
 73 76  1  0  0  0
 74 77  1  0  0  0
 64 65  1  0  0  0
 64 66  1  0  0  0
M  END
> <minimizedAffinity>
-7.00175

$$$$
3AG9_A02_B_351


 88 90  0  0  0  0  0  0  0  0999 V2000
   16.2572    3.8901    5.0074 C   0  0  0  0  0  0  0  0  0  0  0  0
   16.4814    3.7109    3.8166 O   0  0  0  0  0  0  0  0  0  0  0  0
   15.3834    4.7828    5.4697 N   0  0  0  0  0  0  0  0  0  0  0  0
   15.2687    4.8730    6.4433 H   0  0  0  0  0  0  0  0  0  0  0  0
   17.0284    3.0858    6.0823 C   0  0  0  0  0  0  0  0  0  0  0  0
   15.5271    1.1637    6.4871 C   0  0  0  0  0  0  0  0  0  0  0  0
   15.6951    0.6953    5.3548 O   0  0  0  0  0  0  0  0  0  0  0  0
   16.0884    2.3022    6.9246 N   0  0  0  0  0  0  0  0  0  0  0  0
   15.8711    2.6267    7.8284 H   0  0  0  0  0  0  0  0  0  0  0  0
   14.5822    0.4730    7.4917 C   0  0  0  0  0  0  0  0  0  0  0  0
   13.6549    1.4832    8.1959 C   0  0  0  0  0  0  0  0  0  0  0  0
   12.3053    1.5932    7.4776 C   0  0  0  0  0  0  0  0  0  0  0  0
   11.5266    2.8541    7.8629 C   0  0  0  0  0  0  0  0  0  0  0  0
   12.4390    4.0555    7.6058 C   0  0  0  0  0  0  0  0  0  0  0  0
   15.0016    4.8028    8.6741 O   0  0  0  0  0  0  0  0  0  0  0  0
   13.9552    5.1532    9.2390 C   0  0  0  0  0  0  0  0  0  0  0  0
   12.7299    4.8201    8.8313 N   0  0  0  0  0  0  0  0  0  0  0  0
   11.9683    5.1043    9.3867 H   0  0  0  0  0  0  0  0  0  0  0  0
   12.6050    7.0029   12.1916 O   0  0  0  0  0  0  0  0  0  0  0  0
   11.7335    8.8060   10.4358 O   0  0  0  0  0  0  0  0  0  0  0  0
   14.9212    7.1884   10.2885 O   0  0  0  0  0  0  0  0  0  0  0  0
   12.6618    6.6208   10.8033 C   0  0  0  0  0  0  0  0  0  0  0  0
   12.6655    7.8617    9.9291 C   0  0  0  0  0  0  0  0  0  0  0  0
   14.0405    6.0344   10.4994 C   0  0  0  0  0  0  0  0  0  0  0  0
   14.1057    8.3822   10.1027 C   0  0  0  0  0  0  0  0  0  0  0  0
   11.7315    7.3757   12.3888 H   0  0  0  0  0  0  0  0  0  0  0  0
   10.8327    8.4654   10.3199 H   0  0  0  0  0  0  0  0  0  0  0  0
   12.9646   12.1383    6.7049 N   0  0  0  0  0  0  0  0  0  0  0  0
   12.2133   11.6407    7.6968 C   0  0  0  0  0  0  0  0  0  0  0  0
   12.6640   10.6693    8.4800 N   0  0  0  0  0  0  0  0  0  0  0  0
   13.8949   10.1654    8.2991 C   0  0  0  0  0  0  0  0  0  0  0  0
   14.6925   10.6542    7.2731 C   0  0  0  0  0  0  0  0  0  0  0  0
   14.1982   11.6649    6.4658 C   0  0  0  0  0  0  0  0  0  0  0  0
   14.9387   12.1489    5.4744 N   0  0  0  0  0  0  0  0  0  0  0  0
   15.8500    9.9961    7.2928 N   0  0  0  0  0  0  0  0  0  0  0  0
   15.7783    9.1266    8.3067 C   0  0  0  0  0  0  0  0  0  0  0  0
   14.5851    9.2118    8.9162 N   0  0  0  0  0  0  0  0  0  0  0  0
   14.5853   12.8675    4.9016 H   0  0  0  0  0  0  0  0  0  0  0  0
   15.8406   11.7889    5.3125 H   0  0  0  0  0  0  0  0  0  0  0  0
   17.9685    3.9644    6.9382 C   0  0  0  0  0  0  0  0  0  0  0  0
   18.9858    3.1982    7.7901 C   0  0  0  0  0  0  0  0  0  0  0  0
   20.3289    3.9574    7.8281 C   0  0  0  0  0  0  0  0  0  0  0  0
   21.2855    3.3413    8.8603 C   0  0  0  0  0  0  0  0  0  0  0  0
   21.9907    2.1897    8.2693 N   0  0  0  0  0  0  0  0  0  0  0  0
   21.3109    1.4848    7.9837 H   0  0  0  0  0  0  0  0  0  0  0  0
   22.6261    1.7894    8.9594 H   0  0  0  0  0  0  0  0  0  0  0  0
   14.5781    5.6446    4.5744 C   0  0  0  0  0  0  0  0  0  0  0  0
   14.2030    6.9523    5.2805 C   0  0  0  0  0  0  0  0  0  0  0  0
   12.6800    7.1277    5.3137 C   0  0  0  0  0  0  0  0  0  0  0  0
   12.1881    7.5827    6.6915 C   0  0  0  0  0  0  0  0  0  0  0  0
   10.7687    8.1706    6.6239 C   0  0  0  0  0  0  0  0  0  0  0  0
    9.8156    7.4703    7.6068 C   0  0  0  0  0  0  0  0  0  0  0  0
    9.9618    6.2766    7.8882 O   0  0  0  0  0  0  0  0  0  0  0  0
    8.8560    8.2523    8.1159 N   0  0  0  0  0  0  0  0  0  0  0  0
    8.8254    9.1967    7.8397 H   0  0  0  0  0  0  0  0  0  0  0  0
    7.8362    7.7638    9.0767 C   0  0  0  0  0  0  0  0  0  0  0  0
    8.2783    8.0559   10.5313 C   0  0  0  0  0  0  0  0  0  0  0  0
    8.9215    9.0688   10.8066 O   0  0  0  0  0  0  0  0  0  0  0  0
    7.9178    7.1402   11.4333 N   0  0  0  0  0  0  0  0  0  0  0  0
    7.4048    6.3584   11.1252 H   0  0  0  0  0  0  0  0  0  0  0  0
    8.2490    7.2391   12.8723 C   0  0  0  0  0  0  0  0  0  0  0  0
    6.9925    7.0656   13.7562 C   0  0  0  0  0  0  0  0  0  0  0  0
    7.0065    7.3218   14.9620 O   0  0  0  0  0  0  0  0  0  0  0  0
    5.9085    6.6449   13.1075 N   0  0  0  0  0  0  0  0  0  0  0  0
    5.9549    6.4551   12.1426 H   0  0  0  0  0  0  0  0  0  0  0  0
    5.0605    6.5237   13.5928 H   0  0  0  0  0  0  0  0  0  0  0  0
    9.2929    6.1757   13.2362 C   0  0  0  0  0  0  0  0  0  0  0  0
    8.7150    4.7633   13.1265 C   0  0  0  0  0  0  0  0  0  0  0  0
    9.2722    3.8507   14.2140 C   0  0  0  0  0  0  0  0  0  0  0  0
    9.4124    4.6500   15.4271 N   0  0  0  0  0  0  0  0  0  0  0  0
   10.0420    5.4065   15.4013 H   0  0  0  0  0  0  0  0  0  0  0  0
    8.7558    4.4371   16.5667 C   0  0  0  0  0  0  0  0  0  0  0  0
    9.3219    3.8790   17.6365 N   0  0  0  0  0  0  0  0  0  0  0  0
    7.4900    4.8290   16.6119 N   0  0  0  0  0  0  0  0  0  0  0  0
   10.2620    3.5887   17.6009 H   0  0  0  0  0  0  0  0  0  0  0  0
    8.8000    3.7571   18.4623 H   0  0  0  0  0  0  0  0  0  0  0  0
    7.0737    5.2410   15.8206 H   0  0  0  0  0  0  0  0  0  0  0  0
    6.4415    8.3773    8.7813 C   0  0  0  0  0  0  0  0  0  0  0  0
    6.4835    9.7493    8.0862 C   0  0  0  0  0  0  0  0  0  0  0  0
    5.8160   10.8494    8.9270 C   0  0  0  0  0  0  0  0  0  0  0  0
    6.7745   11.2891    9.9586 N   0  0  0  0  0  0  0  0  0  0  0  0
    7.6859   11.5258    9.6711 H   0  0  0  0  0  0  0  0  0  0  0  0
    6.4820   11.3863   11.2627 C   0  0  0  0  0  0  0  0  0  0  0  0
    6.1259   10.3318   11.9944 N   0  0  0  0  0  0  0  0  0  0  0  0
    6.5619   12.5801   11.8429 N   0  0  0  0  0  0  0  0  0  0  0  0
    6.0628    9.4421   11.5776 H   0  0  0  0  0  0  0  0  0  0  0  0
    5.9258   10.4420   12.9521 H   0  0  0  0  0  0  0  0  0  0  0  0
    6.8239   13.3680   11.3139 H   0  0  0  0  0  0  0  0  0  0  0  0
 28 29  2  0  0  0
 28 33  1  0  0  0
 29 30  1  0  0  0
 30 31  2  0  0  0
 31 32  1  0  0  0
 31 37  1  0  0  0
 32 33  2  0  0  0
 32 35  1  0  0  0
 33 34  1  0  0  0
 35 36  2  0  0  0
 36 37  1  0  0  0
 37 25  1  0  0  0
 15 16  2  0  0  0
 19 22  1  0  0  0
 20 23  1  0  0  0
 21 24  1  0  0  0
 21 25  1  0  0  0
 16 24  1  0  0  0
 22 23  1  0  0  0
 22 24  1  0  0  0
 23 25  1  0  0  0
  6  7  2  0  0  0
  6 10  1  0  0  0
 10 11  1  0  0  0
 11 12  1  0  0  0
 12 13  1  0  0  0
 13 14  1  0  0  0
 14 17  1  0  0  0
  8  5  1  0  0  0
  5  1  1  0  0  0
  5 40  1  0  0  0
  1  2  2  0  0  0
 40 41  1  0  0  0
 41 42  1  0  0  0
 42 43  1  0  0  0
 43 44  1  0  0  0
 52 53  2  0  0  0
 52 51  1  0  0  0
 51 50  1  0  0  0
 50 49  1  0  0  0
 49 48  1  0  0  0
 48 47  1  0  0  0
 47  3  1  0  0  0
 54 56  1  0  0  0
 56 78  1  0  0  0
 56 57  1  0  0  0
 78 79  1  0  0  0
 79 80  1  0  0  0
 80 81  1  0  0  0
 81 83  1  0  0  0
 83 84  1  0  0  0
 83 85  2  0  0  0
 57 58  2  0  0  0
 59 61  1  0  0  0
 61 67  1  0  0  0
 61 62  1  0  0  0
 67 68  1  0  0  0
 68 69  1  0  0  0
 69 70  1  0  0  0
 70 72  1  0  0  0
 72 73  1  0  0  0
 72 74  2  0  0  0
 62 63  2  0  0  0
 16 17  1  0  0  0
  6  8  1  0  0  0
  1  3  1  0  0  0
 52 54  1  0  0  0
 57 59  1  0  0  0
 62 64  1  0  0  0
 34 38  1  0  0  0
 34 39  1  0  0  0
 19 26  1  0  0  0
 20 27  1  0  0  0
 17 18  1  0  0  0
  8  9  1  0  0  0
 44 45  1  0  0  0
 44 46  1  0  0  0
  3  4  1  0  0  0
 54 55  1  0  0  0
 81 82  1  0  0  0
 84 86  1  0  0  0
 84 87  1  0  0  0
 85 88  1  0  0  0
 59 60  1  0  0  0
 70 71  1  0  0  0
 73 75  1  0  0  0
 73 76  1  0  0  0
 74 77  1  0  0  0
 64 65  1  0  0  0
 64 66  1  0  0  0
M  END
> <minimizedAffinity>
-6.97832

$$$$
3AG9_A02_B_351


 88 90  0  0  0  0  0  0  0  0999 V2000
   18.1384    4.2742    7.4054 C   0  0  0  0  0  0  0  0  0  0  0  0
   17.3609    4.4742    8.3305 O   0  0  0  0  0  0  0  0  0  0  0  0
   17.8047    3.6409    6.2821 N   0  0  0  0  0  0  0  0  0  0  0  0
   18.4921    3.5110    5.5894 H   0  0  0  0  0  0  0  0  0  0  0  0
   19.6143    4.7311    7.5061 C   0  0  0  0  0  0  0  0  0  0  0  0
   20.1735    7.0307    6.7912 C   0  0  0  0  0  0  0  0  0  0  0  0
   20.1340    7.4808    7.9426 O   0  0  0  0  0  0  0  0  0  0  0  0
   19.9181    5.7522    6.4706 N   0  0  0  0  0  0  0  0  0  0  0  0
   19.9327    5.4839    5.5235 H   0  0  0  0  0  0  0  0  0  0  0  0
   20.4772    7.9561    5.5950 C   0  0  0  0  0  0  0  0  0  0  0  0
   21.1178    7.1874    4.4224 C   0  0  0  0  0  0  0  0  0  0  0  0
   20.5442    7.6468    3.0773 C   0  0  0  0  0  0  0  0  0  0  0  0
   20.3768    6.4988    2.0780 C   0  0  0  0  0  0  0  0  0  0  0  0
   19.9084    5.2706    2.8616 C   0  0  0  0  0  0  0  0  0  0  0  0
   17.6780    6.1464    4.4505 O   0  0  0  0  0  0  0  0  0  0  0  0
   17.4986    5.4592    3.4344 C   0  0  0  0  0  0  0  0  0  0  0  0
   18.4770    4.9826    2.6636 N   0  0  0  0  0  0  0  0  0  0  0  0
   18.2259    4.3990    1.9116 H   0  0  0  0  0  0  0  0  0  0  0  0
   14.7451    4.7999    0.9960 O   0  0  0  0  0  0  0  0  0  0  0  0
   14.7245    7.4311    0.5836 O   0  0  0  0  0  0  0  0  0  0  0  0
   15.0723    5.8693    3.7835 O   0  0  0  0  0  0  0  0  0  0  0  0
   15.8487    5.5414    1.5515 C   0  0  0  0  0  0  0  0  0  0  0  0
   15.4552    6.9975    1.7216 C   0  0  0  0  0  0  0  0  0  0  0  0
   16.0602    5.1151    3.0043 C   0  0  0  0  0  0  0  0  0  0  0  0
   14.5400    6.9484    2.9607 C   0  0  0  0  0  0  0  0  0  0  0  0
   14.6074    5.0675    0.0738 H   0  0  0  0  0  0  0  0  0  0  0  0
   15.3124    7.4571   -0.1875 H   0  0  0  0  0  0  0  0  0  0  0  0
   11.6943   10.1954    5.8441 N   0  0  0  0  0  0  0  0  0  0  0  0
   11.3470    9.0171    5.3085 C   0  0  0  0  0  0  0  0  0  0  0  0
   12.2074    8.3084    4.5890 N   0  0  0  0  0  0  0  0  0  0  0  0
   13.4564    8.7564    4.3869 C   0  0  0  0  0  0  0  0  0  0  0  0
   13.8420    9.9786    4.9212 C   0  0  0  0  0  0  0  0  0  0  0  0
   12.9248   10.7023    5.6645 C   0  0  0  0  0  0  0  0  0  0  0  0
   13.2657   11.8766    6.1844 N   0  0  0  0  0  0  0  0  0  0  0  0
   15.1089   10.2042    4.5788 N   0  0  0  0  0  0  0  0  0  0  0  0
   15.5038    9.1493    3.8575 C   0  0  0  0  0  0  0  0  0  0  0  0
   14.4992    8.2689    3.7225 N   0  0  0  0  0  0  0  0  0  0  0  0
   12.6121   12.3895    6.7125 H   0  0  0  0  0  0  0  0  0  0  0  0
   14.1719   12.2337    6.0414 H   0  0  0  0  0  0  0  0  0  0  0  0
   20.6169    3.5557    7.4633 C   0  0  0  0  0  0  0  0  0  0  0  0
   20.6038    2.6388    8.6907 C   0  0  0  0  0  0  0  0  0  0  0  0
   21.8871    1.7826    8.7304 C   0  0  0  0  0  0  0  0  0  0  0  0
   21.6317    0.4311    9.4149 C   0  0  0  0  0  0  0  0  0  0  0  0
   22.0767   -0.6687    8.5402 N   0  0  0  0  0  0  0  0  0  0  0  0
   21.5572   -0.6369    7.6630 H   0  0  0  0  0  0  0  0  0  0  0  0
   21.9072   -1.5615    9.0035 H   0  0  0  0  0  0  0  0  0  0  0  0
   16.4387    3.1249    6.0359 C   0  0  0  0  0  0  0  0  0  0  0  0
   16.4936    1.8092    5.2514 C   0  0  0  0  0  0  0  0  0  0  0  0
   15.6510    0.7331    5.9466 C   0  0  0  0  0  0  0  0  0  0  0  0
   15.3747    1.0835    7.4123 C   0  0  0  0  0  0  0  0  0  0  0  0
   13.9762    0.6212    7.8545 C   0  0  0  0  0  0  0  0  0  0  0  0
   12.9733    1.7866    7.8791 C   0  0  0  0  0  0  0  0  0  0  0  0
   11.9837    1.7857    7.1400 O   0  0  0  0  0  0  0  0  0  0  0  0
   13.2601    2.7593    8.7527 N   0  0  0  0  0  0  0  0  0  0  0  0
   14.0676    2.6671    9.3083 H   0  0  0  0  0  0  0  0  0  0  0  0
   12.4193    3.9700    8.9237 C   0  0  0  0  0  0  0  0  0  0  0  0
   12.6911    4.6285   10.2982 C   0  0  0  0  0  0  0  0  0  0  0  0
   13.4419    4.0984   11.1172 O   0  0  0  0  0  0  0  0  0  0  0  0
   12.0565    5.7829   10.5145 N   0  0  0  0  0  0  0  0  0  0  0  0
   11.4728    6.1348    9.8041 H   0  0  0  0  0  0  0  0  0  0  0  0
   12.1848    6.5613   11.7667 C   0  0  0  0  0  0  0  0  0  0  0  0
   12.6841    7.9984   11.4919 C   0  0  0  0  0  0  0  0  0  0  0  0
   11.9784    8.8329   10.9215 O   0  0  0  0  0  0  0  0  0  0  0  0
   13.9118    8.2568   11.9376 N   0  0  0  0  0  0  0  0  0  0  0  0
   14.4312    7.5511   12.3866 H   0  0  0  0  0  0  0  0  0  0  0  0
   14.3003    9.1535   11.8183 H   0  0  0  0  0  0  0  0  0  0  0  0
   10.8310    6.6086   12.4864 C   0  0  0  0  0  0  0  0  0  0  0  0
   10.9184    5.9924   13.8842 C   0  0  0  0  0  0  0  0  0  0  0  0
   11.2310    4.5014   13.8138 C   0  0  0  0  0  0  0  0  0  0  0  0
   10.8054    3.9046   15.0759 N   0  0  0  0  0  0  0  0  0  0  0  0
    9.8436    3.9244   15.2851 H   0  0  0  0  0  0  0  0  0  0  0  0
   11.6155    3.3352   15.9673 C   0  0  0  0  0  0  0  0  0  0  0  0
   11.6757    3.7196   17.2421 N   0  0  0  0  0  0  0  0  0  0  0  0
   12.3666    2.3299   15.5392 N   0  0  0  0  0  0  0  0  0  0  0  0
   11.1172    4.4662   17.5581 H   0  0  0  0  0  0  0  0  0  0  0  0
   12.2787    3.2568   17.8678 H   0  0  0  0  0  0  0  0  0  0  0  0
   12.3206    2.0475   14.5972 H   0  0  0  0  0  0  0  0  0  0  0  0
   12.6396    4.9794    7.7656 C   0  0  0  0  0  0  0  0  0  0  0  0
   14.1163    5.2714    7.4474 C   0  0  0  0  0  0  0  0  0  0  0  0
   14.3622    6.7555    7.1316 C   0  0  0  0  0  0  0  0  0  0  0  0
   15.8012    6.9394    6.8637 N   0  0  0  0  0  0  0  0  0  0  0  0
   16.2076    6.4090    6.1407 H   0  0  0  0  0  0  0  0  0  0  0  0
   16.5895    7.7834    7.5433 C   0  0  0  0  0  0  0  0  0  0  0  0
   17.1569    7.4529    8.7022 N   0  0  0  0  0  0  0  0  0  0  0  0
   16.8173    8.9892    7.0312 N   0  0  0  0  0  0  0  0  0  0  0  0
   16.9967    6.5635    9.0927 H   0  0  0  0  0  0  0  0  0  0  0  0
   17.7363    8.0981    9.1683 H   0  0  0  0  0  0  0  0  0  0  0  0
   16.4044    9.2466    6.1753 H   0  0  0  0  0  0  0  0  0  0  0  0
 28 29  2  0  0  0
 28 33  1  0  0  0
 29 30  1  0  0  0
 30 31  2  0  0  0
 31 32  1  0  0  0
 31 37  1  0  0  0
 32 33  2  0  0  0
 32 35  1  0  0  0
 33 34  1  0  0  0
 35 36  2  0  0  0
 36 37  1  0  0  0
 37 25  1  0  0  0
 15 16  2  0  0  0
 19 22  1  0  0  0
 20 23  1  0  0  0
 21 24  1  0  0  0
 21 25  1  0  0  0
 16 24  1  0  0  0
 22 23  1  0  0  0
 22 24  1  0  0  0
 23 25  1  0  0  0
  6  7  2  0  0  0
  6 10  1  0  0  0
 10 11  1  0  0  0
 11 12  1  0  0  0
 12 13  1  0  0  0
 13 14  1  0  0  0
 14 17  1  0  0  0
  8  5  1  0  0  0
  5  1  1  0  0  0
  5 40  1  0  0  0
  1  2  2  0  0  0
 40 41  1  0  0  0
 41 42  1  0  0  0
 42 43  1  0  0  0
 43 44  1  0  0  0
 52 53  2  0  0  0
 52 51  1  0  0  0
 51 50  1  0  0  0
 50 49  1  0  0  0
 49 48  1  0  0  0
 48 47  1  0  0  0
 47  3  1  0  0  0
 54 56  1  0  0  0
 56 78  1  0  0  0
 56 57  1  0  0  0
 78 79  1  0  0  0
 79 80  1  0  0  0
 80 81  1  0  0  0
 81 83  1  0  0  0
 83 84  1  0  0  0
 83 85  2  0  0  0
 57 58  2  0  0  0
 59 61  1  0  0  0
 61 67  1  0  0  0
 61 62  1  0  0  0
 67 68  1  0  0  0
 68 69  1  0  0  0
 69 70  1  0  0  0
 70 72  1  0  0  0
 72 73  1  0  0  0
 72 74  2  0  0  0
 62 63  2  0  0  0
 16 17  1  0  0  0
  6  8  1  0  0  0
  1  3  1  0  0  0
 52 54  1  0  0  0
 57 59  1  0  0  0
 62 64  1  0  0  0
 34 38  1  0  0  0
 34 39  1  0  0  0
 19 26  1  0  0  0
 20 27  1  0  0  0
 17 18  1  0  0  0
  8  9  1  0  0  0
 44 45  1  0  0  0
 44 46  1  0  0  0
  3  4  1  0  0  0
 54 55  1  0  0  0
 81 82  1  0  0  0
 84 86  1  0  0  0
 84 87  1  0  0  0
 85 88  1  0  0  0
 59 60  1  0  0  0
 70 71  1  0  0  0
 73 75  1  0  0  0
 73 76  1  0  0  0
 74 77  1  0  0  0
 64 65  1  0  0  0
 64 66  1  0  0  0
M  END
> <minimizedAffinity>
-6.88848

$$$$
3AG9_A02_B_351


 88 90  0  0  0  0  0  0  0  0999 V2000
   11.3753    4.7039   13.5202 C   0  0  0  0  0  0  0  0  0  0  0  0
   11.5842    5.5958   14.3334 O   0  0  0  0  0  0  0  0  0  0  0  0
   11.7904    4.7438   12.2553 N   0  0  0  0  0  0  0  0  0  0  0  0
   11.5721    3.9897   11.6611 H   0  0  0  0  0  0  0  0  0  0  0  0
   10.5584    3.4509   13.9202 C   0  0  0  0  0  0  0  0  0  0  0  0
    8.8699    4.1709   15.5762 C   0  0  0  0  0  0  0  0  0  0  0  0
    9.6732    4.1558   16.5165 O   0  0  0  0  0  0  0  0  0  0  0  0
    9.1772    3.8302   14.3144 N   0  0  0  0  0  0  0  0  0  0  0  0
    8.4678    3.8317   13.6318 H   0  0  0  0  0  0  0  0  0  0  0  0
    7.3917    4.5444   15.8106 C   0  0  0  0  0  0  0  0  0  0  0  0
    7.0279    5.8898   15.1520 C   0  0  0  0  0  0  0  0  0  0  0  0
    5.8757    5.7267   14.1545 C   0  0  0  0  0  0  0  0  0  0  0  0
    5.5858    7.0062   13.3649 C   0  0  0  0  0  0  0  0  0  0  0  0
    6.5339    8.0908   13.8813 C   0  0  0  0  0  0  0  0  0  0  0  0
    9.0217    7.1539   12.7859 O   0  0  0  0  0  0  0  0  0  0  0  0
    8.4770    8.1725   12.3358 C   0  0  0  0  0  0  0  0  0  0  0  0
    7.3445    8.6940   12.8088 N   0  0  0  0  0  0  0  0  0  0  0  0
    7.0286    9.5392   12.4148 H   0  0  0  0  0  0  0  0  0  0  0  0
    8.5047   10.2154    9.2071 O   0  0  0  0  0  0  0  0  0  0  0  0
    7.6787    8.0053    7.9716 O   0  0  0  0  0  0  0  0  0  0  0  0
   10.1804    8.1012   10.5273 O   0  0  0  0  0  0  0  0  0  0  0  0
    8.0805    9.1307   10.0557 C   0  0  0  0  0  0  0  0  0  0  0  0
    8.1628    7.8205    9.2939 C   0  0  0  0  0  0  0  0  0  0  0  0
    9.1259    8.9095   11.1490 C   0  0  0  0  0  0  0  0  0  0  0  0
    9.6790    7.5444    9.2770 C   0  0  0  0  0  0  0  0  0  0  0  0
    7.8439   10.3592    8.5117 H   0  0  0  0  0  0  0  0  0  0  0  0
    6.7245    8.1779    7.9978 H   0  0  0  0  0  0  0  0  0  0  0  0
   12.5798    3.9507    6.9051 N   0  0  0  0  0  0  0  0  0  0  0  0
   12.5762    5.2798    6.7343 C   0  0  0  0  0  0  0  0  0  0  0  0
   11.7598    6.0604    7.4302 N   0  0  0  0  0  0  0  0  0  0  0  0
   10.9187    5.5321    8.3330 C   0  0  0  0  0  0  0  0  0  0  0  0
   10.8930    4.1571    8.5247 C   0  0  0  0  0  0  0  0  0  0  0  0
   11.7511    3.3627    7.7831 C   0  0  0  0  0  0  0  0  0  0  0  0
   11.7451    2.0438    7.9436 N   0  0  0  0  0  0  0  0  0  0  0  0
    9.9806    3.8811    9.4546 N   0  0  0  0  0  0  0  0  0  0  0  0
    9.4575    5.0514    9.8365 C   0  0  0  0  0  0  0  0  0  0  0  0
   10.0120    6.0618    9.1479 N   0  0  0  0  0  0  0  0  0  0  0  0
   12.3560    1.4808    7.4154 H   0  0  0  0  0  0  0  0  0  0  0  0
   11.1297    1.6295    8.5909 H   0  0  0  0  0  0  0  0  0  0  0  0
   11.2507    2.5976   15.0070 C   0  0  0  0  0  0  0  0  0  0  0  0
   12.0699    1.4124   14.4859 C   0  0  0  0  0  0  0  0  0  0  0  0
   13.5102    1.8614   14.1612 C   0  0  0  0  0  0  0  0  0  0  0  0
   14.4755    1.4948   15.2988 C   0  0  0  0  0  0  0  0  0  0  0  0
   15.7939    2.1086   15.0582 N   0  0  0  0  0  0  0  0  0  0  0  0
   16.1735    1.7643   14.1763 H   0  0  0  0  0  0  0  0  0  0  0  0
   16.4270    1.8636   15.8196 H   0  0  0  0  0  0  0  0  0  0  0  0
   12.5678    5.8795   11.7089 C   0  0  0  0  0  0  0  0  0  0  0  0
   14.0635    5.5453   11.6836 C   0  0  0  0  0  0  0  0  0  0  0  0
   14.8320    6.5815   10.8548 C   0  0  0  0  0  0  0  0  0  0  0  0
   13.8890    7.4796   10.0478 C   0  0  0  0  0  0  0  0  0  0  0  0
   14.4288    8.9150    9.9331 C   0  0  0  0  0  0  0  0  0  0  0  0
   15.0260    9.1887    8.5426 C   0  0  0  0  0  0  0  0  0  0  0  0
   15.6280   10.2414    8.3085 O   0  0  0  0  0  0  0  0  0  0  0  0
   14.8461    8.2089    7.6487 N   0  0  0  0  0  0  0  0  0  0  0  0
   14.3613    7.3999    7.9312 H   0  0  0  0  0  0  0  0  0  0  0  0
   15.3424    8.2835    6.2523 C   0  0  0  0  0  0  0  0  0  0  0  0
   16.3473    7.1397    5.9725 C   0  0  0  0  0  0  0  0  0  0  0  0
   17.5427    7.3756    5.7968 O   0  0  0  0  0  0  0  0  0  0  0  0
   15.8215    5.9133    5.9341 N   0  0  0  0  0  0  0  0  0  0  0  0
   14.8534    5.8157    6.0845 H   0  0  0  0  0  0  0  0  0  0  0  0
   16.6179    4.6926    5.6773 C   0  0  0  0  0  0  0  0  0  0  0  0
   17.0255    4.5846    4.1900 C   0  0  0  0  0  0  0  0  0  0  0  0
   16.3626    3.9322    3.3808 O   0  0  0  0  0  0  0  0  0  0  0  0
   18.1223    5.2644    3.8618 N   0  0  0  0  0  0  0  0  0  0  0  0
   18.6132    5.7689    4.5501 H   0  0  0  0  0  0  0  0  0  0  0  0
   18.4425    5.2626    2.9308 H   0  0  0  0  0  0  0  0  0  0  0  0
   17.8710    4.6980    6.5620 C   0  0  0  0  0  0  0  0  0  0  0  0
   18.0083    3.3913    7.3460 C   0  0  0  0  0  0  0  0  0  0  0  0
   16.6428    2.8038    7.6871 C   0  0  0  0  0  0  0  0  0  0  0  0
   16.5375    1.5168    7.0069 N   0  0  0  0  0  0  0  0  0  0  0  0
   17.1788    0.8150    7.2628 H   0  0  0  0  0  0  0  0  0  0  0  0
   15.6421    1.2163    6.0672 C   0  0  0  0  0  0  0  0  0  0  0  0
   14.3370    1.1108    6.3161 N   0  0  0  0  0  0  0  0  0  0  0  0
   16.1009    1.0415    4.8355 N   0  0  0  0  0  0  0  0  0  0  0  0
   13.9983    1.2409    7.2314 H   0  0  0  0  0  0  0  0  0  0  0  0
   13.7116    0.9028    5.5848 H   0  0  0  0  0  0  0  0  0  0  0  0
   17.0652    1.1199    4.6537 H   0  0  0  0  0  0  0  0  0  0  0  0
   14.1711    8.2616    5.2342 C   0  0  0  0  0  0  0  0  0  0  0  0
   13.4399    9.6060    5.0755 C   0  0  0  0  0  0  0  0  0  0  0  0
   12.0913    9.4544    4.3538 C   0  0  0  0  0  0  0  0  0  0  0  0
   11.3831    8.2978    4.9344 N   0  0  0  0  0  0  0  0  0  0  0  0
   11.7794    7.4050    4.8120 H   0  0  0  0  0  0  0  0  0  0  0  0
   10.2341    8.3869    5.6181 C   0  0  0  0  0  0  0  0  0  0  0  0
    9.8943    9.4775    6.3032 N   0  0  0  0  0  0  0  0  0  0  0  0
    9.4033    7.3488    5.5994 N   0  0  0  0  0  0  0  0  0  0  0  0
   10.5000   10.2534    6.3255 H   0  0  0  0  0  0  0  0  0  0  0  0
    9.0375    9.5078    6.7871 H   0  0  0  0  0  0  0  0  0  0  0  0
    9.6419    6.5364    5.0971 H   0  0  0  0  0  0  0  0  0  0  0  0
 28 29  2  0  0  0
 28 33  1  0  0  0
 29 30  1  0  0  0
 30 31  2  0  0  0
 31 32  1  0  0  0
 31 37  1  0  0  0
 32 33  2  0  0  0
 32 35  1  0  0  0
 33 34  1  0  0  0
 35 36  2  0  0  0
 36 37  1  0  0  0
 37 25  1  0  0  0
 15 16  2  0  0  0
 19 22  1  0  0  0
 20 23  1  0  0  0
 21 24  1  0  0  0
 21 25  1  0  0  0
 16 24  1  0  0  0
 22 23  1  0  0  0
 22 24  1  0  0  0
 23 25  1  0  0  0
  6  7  2  0  0  0
  6 10  1  0  0  0
 10 11  1  0  0  0
 11 12  1  0  0  0
 12 13  1  0  0  0
 13 14  1  0  0  0
 14 17  1  0  0  0
  8  5  1  0  0  0
  5  1  1  0  0  0
  5 40  1  0  0  0
  1  2  2  0  0  0
 40 41  1  0  0  0
 41 42  1  0  0  0
 42 43  1  0  0  0
 43 44  1  0  0  0
 52 53  2  0  0  0
 52 51  1  0  0  0
 51 50  1  0  0  0
 50 49  1  0  0  0
 49 48  1  0  0  0
 48 47  1  0  0  0
 47  3  1  0  0  0
 54 56  1  0  0  0
 56 78  1  0  0  0
 56 57  1  0  0  0
 78 79  1  0  0  0
 79 80  1  0  0  0
 80 81  1  0  0  0
 81 83  1  0  0  0
 83 84  1  0  0  0
 83 85  2  0  0  0
 57 58  2  0  0  0
 59 61  1  0  0  0
 61 67  1  0  0  0
 61 62  1  0  0  0
 67 68  1  0  0  0
 68 69  1  0  0  0
 69 70  1  0  0  0
 70 72  1  0  0  0
 72 73  1  0  0  0
 72 74  2  0  0  0
 62 63  2  0  0  0
 16 17  1  0  0  0
  6  8  1  0  0  0
  1  3  1  0  0  0
 52 54  1  0  0  0
 57 59  1  0  0  0
 62 64  1  0  0  0
 34 38  1  0  0  0
 34 39  1  0  0  0
 19 26  1  0  0  0
 20 27  1  0  0  0
 17 18  1  0  0  0
  8  9  1  0  0  0
 44 45  1  0  0  0
 44 46  1  0  0  0
  3  4  1  0  0  0
 54 55  1  0  0  0
 81 82  1  0  0  0
 84 86  1  0  0  0
 84 87  1  0  0  0
 85 88  1  0  0  0
 59 60  1  0  0  0
 70 71  1  0  0  0
 73 75  1  0  0  0
 73 76  1  0  0  0
 74 77  1  0  0  0
 64 65  1  0  0  0
 64 66  1  0  0  0
M  END
> <minimizedAffinity>
-6.83681

$$$$
3AG9_A02_B_351


 88 90  0  0  0  0  0  0  0  0999 V2000
   17.9438    1.7979    9.0546 C   0  0  0  0  0  0  0  0  0  0  0  0
   18.1588    0.6599    9.4536 O   0  0  0  0  0  0  0  0  0  0  0  0
   18.8741    2.7492    8.9946 N   0  0  0  0  0  0  0  0  0  0  0  0
   18.6176    3.6429    8.6711 H   0  0  0  0  0  0  0  0  0  0  0  0
   16.5209    2.2209    8.6143 C   0  0  0  0  0  0  0  0  0  0  0  0
   15.1539    4.0737    9.5145 C   0  0  0  0  0  0  0  0  0  0  0  0
   15.1029    4.6656    8.4297 O   0  0  0  0  0  0  0  0  0  0  0  0
   15.8190    2.9252    9.7180 N   0  0  0  0  0  0  0  0  0  0  0  0
   15.8422    2.5394   10.6234 H   0  0  0  0  0  0  0  0  0  0  0  0
   14.4758    4.6667   10.7667 C   0  0  0  0  0  0  0  0  0  0  0  0
   13.4569    3.6893   11.3853 C   0  0  0  0  0  0  0  0  0  0  0  0
   13.4935    3.7438   12.9167 C   0  0  0  0  0  0  0  0  0  0  0  0
   13.6170    2.3594   13.5591 C   0  0  0  0  0  0  0  0  0  0  0  0
   12.3464    2.1159   14.3765 C   0  0  0  0  0  0  0  0  0  0  0  0
   10.6604    2.8455   16.5882 O   0  0  0  0  0  0  0  0  0  0  0  0
   10.8040    3.6111   15.6240 C   0  0  0  0  0  0  0  0  0  0  0  0
   11.5367    3.3355   14.5443 N   0  0  0  0  0  0  0  0  0  0  0  0
   11.5367    3.9911   13.8099 H   0  0  0  0  0  0  0  0  0  0  0  0
    7.9322    5.9551   16.0945 O   0  0  0  0  0  0  0  0  0  0  0  0
    7.0139    5.0076   13.7810 O   0  0  0  0  0  0  0  0  0  0  0  0
   10.4426    5.7748   14.4556 O   0  0  0  0  0  0  0  0  0  0  0  0
    8.5889    4.7799   15.5807 C   0  0  0  0  0  0  0  0  0  0  0  0
    8.3619    4.6781   14.0834 C   0  0  0  0  0  0  0  0  0  0  0  0
   10.1029    4.9826   15.6425 C   0  0  0  0  0  0  0  0  0  0  0  0
    9.3150    5.7564   13.5320 C   0  0  0  0  0  0  0  0  0  0  0  0
    6.9709    5.8307   16.0571 H   0  0  0  0  0  0  0  0  0  0  0  0
    6.4263    4.3211   14.1335 H   0  0  0  0  0  0  0  0  0  0  0  0
   12.2519    7.3015    9.5392 N   0  0  0  0  0  0  0  0  0  0  0  0
   12.1100    7.8608   10.7487 C   0  0  0  0  0  0  0  0  0  0  0  0
   11.3073    7.3299   11.6620 N   0  0  0  0  0  0  0  0  0  0  0  0
   10.6206    6.2081   11.3946 C   0  0  0  0  0  0  0  0  0  0  0  0
   10.7399    5.6115   10.1464 C   0  0  0  0  0  0  0  0  0  0  0  0
   11.5801    6.1869    9.2082 C   0  0  0  0  0  0  0  0  0  0  0  0
   11.7104    5.6391    8.0047 N   0  0  0  0  0  0  0  0  0  0  0  0
    9.9628    4.5304   10.1232 N   0  0  0  0  0  0  0  0  0  0  0  0
    9.3812    4.4515   11.3251 C   0  0  0  0  0  0  0  0  0  0  0  0
    9.7641    5.4778   12.1014 N   0  0  0  0  0  0  0  0  0  0  0  0
   12.3083    6.0498    7.3390 H   0  0  0  0  0  0  0  0  0  0  0  0
   11.2090    4.8226    7.7786 H   0  0  0  0  0  0  0  0  0  0  0  0
   15.6836    1.0460    8.0602 C   0  0  0  0  0  0  0  0  0  0  0  0
   15.6966    0.8941    6.5357 C   0  0  0  0  0  0  0  0  0  0  0  0
   15.6244    2.2802    5.8611 C   0  0  0  0  0  0  0  0  0  0  0  0
   16.8309    2.5118    4.9386 C   0  0  0  0  0  0  0  0  0  0  0  0
   17.4711    3.8000    5.2603 N   0  0  0  0  0  0  0  0  0  0  0  0
   16.7999    4.5562    5.1260 H   0  0  0  0  0  0  0  0  0  0  0  0
   18.2728    3.9439    4.6464 H   0  0  0  0  0  0  0  0  0  0  0  0
   20.2798    2.5131    9.3961 C   0  0  0  0  0  0  0  0  0  0  0  0
   21.2346    3.3306    8.5189 C   0  0  0  0  0  0  0  0  0  0  0  0
   20.8060    3.2613    7.0483 C   0  0  0  0  0  0  0  0  0  0  0  0
   21.8650    3.8594    6.1167 C   0  0  0  0  0  0  0  0  0  0  0  0
   21.2792    4.2087    4.7383 C   0  0  0  0  0  0  0  0  0  0  0  0
   20.3840    5.4576    4.8008 C   0  0  0  0  0  0  0  0  0  0  0  0
   19.6664    5.7703    3.8453 O   0  0  0  0  0  0  0  0  0  0  0  0
   20.4477    6.1403    5.9503 N   0  0  0  0  0  0  0  0  0  0  0  0
   21.0422    5.8073    6.6608 H   0  0  0  0  0  0  0  0  0  0  0  0
   19.6650    7.3750    6.2049 C   0  0  0  0  0  0  0  0  0  0  0  0
   18.3292    7.0341    6.9092 C   0  0  0  0  0  0  0  0  0  0  0  0
   18.1670    5.9498    7.4693 O   0  0  0  0  0  0  0  0  0  0  0  0
   17.3947    7.9858    6.8544 N   0  0  0  0  0  0  0  0  0  0  0  0
   17.6090    8.8236    6.3838 H   0  0  0  0  0  0  0  0  0  0  0  0
   16.0533    7.8472    7.4641 C   0  0  0  0  0  0  0  0  0  0  0  0
   16.0015    8.4867    8.8706 C   0  0  0  0  0  0  0  0  0  0  0  0
   15.8913    9.7047    9.0264 O   0  0  0  0  0  0  0  0  0  0  0  0
   16.0621    7.6200    9.8796 N   0  0  0  0  0  0  0  0  0  0  0  0
   16.1502    6.6567    9.6965 H   0  0  0  0  0  0  0  0  0  0  0  0
   16.0189    7.9425   10.8088 H   0  0  0  0  0  0  0  0  0  0  0  0
   15.0033    8.4996    6.5560 C   0  0  0  0  0  0  0  0  0  0  0  0
   14.0290    7.4632    5.9925 C   0  0  0  0  0  0  0  0  0  0  0  0
   14.7459    6.4585    5.0966 C   0  0  0  0  0  0  0  0  0  0  0  0
   15.3009    7.1973    3.9668 N   0  0  0  0  0  0  0  0  0  0  0  0
   14.7274    7.8765    3.5437 H   0  0  0  0  0  0  0  0  0  0  0  0
   16.5220    7.0252    3.4627 C   0  0  0  0  0  0  0  0  0  0  0  0
   17.4420    7.9895    3.4452 N   0  0  0  0  0  0  0  0  0  0  0  0
   16.8095    5.8225    2.9843 N   0  0  0  0  0  0  0  0  0  0  0  0
   17.2266    8.8819    3.8009 H   0  0  0  0  0  0  0  0  0  0  0  0
   18.3369    7.8094    3.0765 H   0  0  0  0  0  0  0  0  0  0  0  0
   16.1286    5.1115    2.9981 H   0  0  0  0  0  0  0  0  0  0  0  0
   20.4850    8.4045    7.0273 C   0  0  0  0  0  0  0  0  0  0  0  0
   21.2372    9.4438    6.1782 C   0  0  0  0  0  0  0  0  0  0  0  0
   20.8107    9.4093    4.7018 C   0  0  0  0  0  0  0  0  0  0  0  0
   20.2376   10.7236    4.3548 N   0  0  0  0  0  0  0  0  0  0  0  0
   20.6223   11.2071    3.5884 H   0  0  0  0  0  0  0  0  0  0  0  0
   19.2259   11.3002    5.0178 C   0  0  0  0  0  0  0  0  0  0  0  0
   19.2725   12.5661    5.4297 N   0  0  0  0  0  0  0  0  0  0  0  0
   18.1351   10.5798    5.2611 N   0  0  0  0  0  0  0  0  0  0  0  0
   20.0740   13.1110    5.2562 H   0  0  0  0  0  0  0  0  0  0  0  0
   18.5056   12.9569    5.9075 H   0  0  0  0  0  0  0  0  0  0  0  0
   18.0872    9.6429    4.9622 H   0  0  0  0  0  0  0  0  0  0  0  0
 28 29  2  0  0  0
 28 33  1  0  0  0
 29 30  1  0  0  0
 30 31  2  0  0  0
 31 32  1  0  0  0
 31 37  1  0  0  0
 32 33  2  0  0  0
 32 35  1  0  0  0
 33 34  1  0  0  0
 35 36  2  0  0  0
 36 37  1  0  0  0
 37 25  1  0  0  0
 15 16  2  0  0  0
 19 22  1  0  0  0
 20 23  1  0  0  0
 21 24  1  0  0  0
 21 25  1  0  0  0
 16 24  1  0  0  0
 22 23  1  0  0  0
 22 24  1  0  0  0
 23 25  1  0  0  0
  6  7  2  0  0  0
  6 10  1  0  0  0
 10 11  1  0  0  0
 11 12  1  0  0  0
 12 13  1  0  0  0
 13 14  1  0  0  0
 14 17  1  0  0  0
  8  5  1  0  0  0
  5  1  1  0  0  0
  5 40  1  0  0  0
  1  2  2  0  0  0
 40 41  1  0  0  0
 41 42  1  0  0  0
 42 43  1  0  0  0
 43 44  1  0  0  0
 52 53  2  0  0  0
 52 51  1  0  0  0
 51 50  1  0  0  0
 50 49  1  0  0  0
 49 48  1  0  0  0
 48 47  1  0  0  0
 47  3  1  0  0  0
 54 56  1  0  0  0
 56 78  1  0  0  0
 56 57  1  0  0  0
 78 79  1  0  0  0
 79 80  1  0  0  0
 80 81  1  0  0  0
 81 83  1  0  0  0
 83 84  1  0  0  0
 83 85  2  0  0  0
 57 58  2  0  0  0
 59 61  1  0  0  0
 61 67  1  0  0  0
 61 62  1  0  0  0
 67 68  1  0  0  0
 68 69  1  0  0  0
 69 70  1  0  0  0
 70 72  1  0  0  0
 72 73  1  0  0  0
 72 74  2  0  0  0
 62 63  2  0  0  0
 16 17  1  0  0  0
  6  8  1  0  0  0
  1  3  1  0  0  0
 52 54  1  0  0  0
 57 59  1  0  0  0
 62 64  1  0  0  0
 34 38  1  0  0  0
 34 39  1  0  0  0
 19 26  1  0  0  0
 20 27  1  0  0  0
 17 18  1  0  0  0
  8  9  1  0  0  0
 44 45  1  0  0  0
 44 46  1  0  0  0
  3  4  1  0  0  0
 54 55  1  0  0  0
 81 82  1  0  0  0
 84 86  1  0  0  0
 84 87  1  0  0  0
 85 88  1  0  0  0
 59 60  1  0  0  0
 70 71  1  0  0  0
 73 75  1  0  0  0
 73 76  1  0  0  0
 74 77  1  0  0  0
 64 65  1  0  0  0
 64 66  1  0  0  0
M  END
> <minimizedAffinity>
-6.78032

$$$$
3AG9_A02_B_351


 88 90  0  0  0  0  0  0  0  0999 V2000
   16.2790    4.1879    4.4172 C   0  0  0  0  0  0  0  0  0  0  0  0
   16.3462    4.1409    3.1950 O   0  0  0  0  0  0  0  0  0  0  0  0
   15.3394    4.8588    5.0813 N   0  0  0  0  0  0  0  0  0  0  0  0
   15.3612    4.8555    6.0656 H   0  0  0  0  0  0  0  0  0  0  0  0
   17.3393    3.4741    5.2909 C   0  0  0  0  0  0  0  0  0  0  0  0
   16.1468    1.3624    5.7712 C   0  0  0  0  0  0  0  0  0  0  0  0
   16.0889    1.0343    4.5801 O   0  0  0  0  0  0  0  0  0  0  0  0
   16.6920    2.5067    6.2140 N   0  0  0  0  0  0  0  0  0  0  0  0
   16.6619    2.7102    7.1767 H   0  0  0  0  0  0  0  0  0  0  0  0
   15.5241    0.4695    6.8641 C   0  0  0  0  0  0  0  0  0  0  0  0
   15.0747    1.2903    8.0891 C   0  0  0  0  0  0  0  0  0  0  0  0
   13.5749    1.1178    8.3538 C   0  0  0  0  0  0  0  0  0  0  0  0
   12.7016    1.8478    7.3295 C   0  0  0  0  0  0  0  0  0  0  0  0
   12.0412    3.0283    8.0452 C   0  0  0  0  0  0  0  0  0  0  0  0
   11.3564    5.0591    9.9618 O   0  0  0  0  0  0  0  0  0  0  0  0
   12.4460    4.4713   10.0263 C   0  0  0  0  0  0  0  0  0  0  0  0
   12.8560    3.5451    9.1587 N   0  0  0  0  0  0  0  0  0  0  0  0
   13.7644    3.1823    9.2698 H   0  0  0  0  0  0  0  0  0  0  0  0
   15.0709    3.7445   12.5844 O   0  0  0  0  0  0  0  0  0  0  0  0
   13.1373    2.5387   13.9631 O   0  0  0  0  0  0  0  0  0  0  0  0
   12.7648    5.6303   12.2016 O   0  0  0  0  0  0  0  0  0  0  0  0
   13.8321    3.5204   11.8833 C   0  0  0  0  0  0  0  0  0  0  0  0
   12.7012    3.3489   12.8812 C   0  0  0  0  0  0  0  0  0  0  0  0
   13.4153    4.8092   11.1747 C   0  0  0  0  0  0  0  0  0  0  0  0
   12.4597    4.7949   13.3565 C   0  0  0  0  0  0  0  0  0  0  0  0
   15.3391    2.9288   13.0357 H   0  0  0  0  0  0  0  0  0  0  0  0
   13.2851    1.6327   13.6495 H   0  0  0  0  0  0  0  0  0  0  0  0
    9.0628    4.0805   17.2173 N   0  0  0  0  0  0  0  0  0  0  0  0
   10.3444    3.6967   17.1389 C   0  0  0  0  0  0  0  0  0  0  0  0
   11.0776    3.9630   16.0657 N   0  0  0  0  0  0  0  0  0  0  0  0
   10.5495    4.6347   15.0306 C   0  0  0  0  0  0  0  0  0  0  0  0
    9.2213    5.0366   15.0791 C   0  0  0  0  0  0  0  0  0  0  0  0
    8.4749    4.7428   16.2079 C   0  0  0  0  0  0  0  0  0  0  0  0
    7.2007    5.1122   16.2797 N   0  0  0  0  0  0  0  0  0  0  0  0
    8.9335    5.6691   13.9432 N   0  0  0  0  0  0  0  0  0  0  0  0
   10.0525    5.6675   13.2105 C   0  0  0  0  0  0  0  0  0  0  0  0
   11.0383    5.0263   13.8583 N   0  0  0  0  0  0  0  0  0  0  0  0
    6.6718    4.9024   17.0831 H   0  0  0  0  0  0  0  0  0  0  0  0
    6.7854    5.5959   15.5294 H   0  0  0  0  0  0  0  0  0  0  0  0
   18.2633    4.4562    6.0459 C   0  0  0  0  0  0  0  0  0  0  0  0
   18.6794    4.0139    7.4526 C   0  0  0  0  0  0  0  0  0  0  0  0
   20.2107    3.8361    7.5245 C   0  0  0  0  0  0  0  0  0  0  0  0
   20.6809    3.6569    8.9761 C   0  0  0  0  0  0  0  0  0  0  0  0
   19.9622    2.5332    9.6035 N   0  0  0  0  0  0  0  0  0  0  0  0
   18.9606    2.7259    9.5999 H   0  0  0  0  0  0  0  0  0  0  0  0
   20.2830    2.4188   10.5649 H   0  0  0  0  0  0  0  0  0  0  0  0
   14.2631    5.6094    4.3950 C   0  0  0  0  0  0  0  0  0  0  0  0
   14.3922    7.1111    4.6739 C   0  0  0  0  0  0  0  0  0  0  0  0
   15.0172    7.8294    3.4720 C   0  0  0  0  0  0  0  0  0  0  0  0
   16.3779    8.4425    3.8182 C   0  0  0  0  0  0  0  0  0  0  0  0
   16.2287    9.8204    4.4847 C   0  0  0  0  0  0  0  0  0  0  0  0
   16.1063    9.7027    6.0131 C   0  0  0  0  0  0  0  0  0  0  0  0
   15.6003   10.6113    6.6794 O   0  0  0  0  0  0  0  0  0  0  0  0
   16.5735    8.5599    6.5300 N   0  0  0  0  0  0  0  0  0  0  0  0
   16.9505    7.8879    5.9171 H   0  0  0  0  0  0  0  0  0  0  0  0
   16.5507    8.2573    7.9825 C   0  0  0  0  0  0  0  0  0  0  0  0
   15.1661    7.7040    8.3990 C   0  0  0  0  0  0  0  0  0  0  0  0
   14.9113    6.5029    8.3108 O   0  0  0  0  0  0  0  0  0  0  0  0
   14.2967    8.6144    8.8435 N   0  0  0  0  0  0  0  0  0  0  0  0
   14.5840    9.5553    8.8797 H   0  0  0  0  0  0  0  0  0  0  0  0
   12.9235    8.2827    9.2846 C   0  0  0  0  0  0  0  0  0  0  0  0
   12.7341    8.5486   10.7957 C   0  0  0  0  0  0  0  0  0  0  0  0
   11.6166    8.7040   11.2926 O   0  0  0  0  0  0  0  0  0  0  0  0
   13.8618    8.5716   11.5033 N   0  0  0  0  0  0  0  0  0  0  0  0
   14.7279    8.4415   11.0535 H   0  0  0  0  0  0  0  0  0  0  0  0
   13.8296    8.7187   12.4762 H   0  0  0  0  0  0  0  0  0  0  0  0
   11.9096    9.1055    8.4796 C   0  0  0  0  0  0  0  0  0  0  0  0
   11.9341    8.7286    6.9970 C   0  0  0  0  0  0  0  0  0  0  0  0
   12.2097    9.9457    6.1204 C   0  0  0  0  0  0  0  0  0  0  0  0
   12.4792   11.0726    7.0079 N   0  0  0  0  0  0  0  0  0  0  0  0
   12.6482   10.8720    7.9568 H   0  0  0  0  0  0  0  0  0  0  0  0
   12.5145   12.3514    6.6356 C   0  0  0  0  0  0  0  0  0  0  0  0
   11.5294   13.2104    6.8969 N   0  0  0  0  0  0  0  0  0  0  0  0
   13.6021   12.7604    5.9970 N   0  0  0  0  0  0  0  0  0  0  0  0
   10.7227   12.9047    7.3712 H   0  0  0  0  0  0  0  0  0  0  0  0
   11.6086   14.1505    6.6156 H   0  0  0  0  0  0  0  0  0  0  0  0
   14.3286   12.1244    5.8049 H   0  0  0  0  0  0  0  0  0  0  0  0
   17.6870    7.2751    8.3733 C   0  0  0  0  0  0  0  0  0  0  0  0
   19.0671    7.9332    8.5443 C   0  0  0  0  0  0  0  0  0  0  0  0
   20.0455    7.5345    7.4278 C   0  0  0  0  0  0  0  0  0  0  0  0
   20.7912    8.7383    7.0142 N   0  0  0  0  0  0  0  0  0  0  0  0
   21.5763    9.0007    7.5471 H   0  0  0  0  0  0  0  0  0  0  0  0
   20.4665    9.4968    5.9583 C   0  0  0  0  0  0  0  0  0  0  0  0
   20.9937   10.7035    5.7579 N   0  0  0  0  0  0  0  0  0  0  0  0
   19.5935    9.0169    5.0776 N   0  0  0  0  0  0  0  0  0  0  0  0
   21.6413   11.0710    6.4019 H   0  0  0  0  0  0  0  0  0  0  0  0
   20.7357   11.2280    4.9657 H   0  0  0  0  0  0  0  0  0  0  0  0
   19.1962    8.1265    5.2135 H   0  0  0  0  0  0  0  0  0  0  0  0
 28 29  2  0  0  0
 28 33  1  0  0  0
 29 30  1  0  0  0
 30 31  2  0  0  0
 31 32  1  0  0  0
 31 37  1  0  0  0
 32 33  2  0  0  0
 32 35  1  0  0  0
 33 34  1  0  0  0
 35 36  2  0  0  0
 36 37  1  0  0  0
 37 25  1  0  0  0
 15 16  2  0  0  0
 19 22  1  0  0  0
 20 23  1  0  0  0
 21 24  1  0  0  0
 21 25  1  0  0  0
 16 24  1  0  0  0
 22 23  1  0  0  0
 22 24  1  0  0  0
 23 25  1  0  0  0
  6  7  2  0  0  0
  6 10  1  0  0  0
 10 11  1  0  0  0
 11 12  1  0  0  0
 12 13  1  0  0  0
 13 14  1  0  0  0
 14 17  1  0  0  0
  8  5  1  0  0  0
  5  1  1  0  0  0
  5 40  1  0  0  0
  1  2  2  0  0  0
 40 41  1  0  0  0
 41 42  1  0  0  0
 42 43  1  0  0  0
 43 44  1  0  0  0
 52 53  2  0  0  0
 52 51  1  0  0  0
 51 50  1  0  0  0
 50 49  1  0  0  0
 49 48  1  0  0  0
 48 47  1  0  0  0
 47  3  1  0  0  0
 54 56  1  0  0  0
 56 78  1  0  0  0
 56 57  1  0  0  0
 78 79  1  0  0  0
 79 80  1  0  0  0
 80 81  1  0  0  0
 81 83  1  0  0  0
 83 84  1  0  0  0
 83 85  2  0  0  0
 57 58  2  0  0  0
 59 61  1  0  0  0
 61 67  1  0  0  0
 61 62  1  0  0  0
 67 68  1  0  0  0
 68 69  1  0  0  0
 69 70  1  0  0  0
 70 72  1  0  0  0
 72 73  1  0  0  0
 72 74  2  0  0  0
 62 63  2  0  0  0
 16 17  1  0  0  0
  6  8  1  0  0  0
  1  3  1  0  0  0
 52 54  1  0  0  0
 57 59  1  0  0  0
 62 64  1  0  0  0
 34 38  1  0  0  0
 34 39  1  0  0  0
 19 26  1  0  0  0
 20 27  1  0  0  0
 17 18  1  0  0  0
  8  9  1  0  0  0
 44 45  1  0  0  0
 44 46  1  0  0  0
  3  4  1  0  0  0
 54 55  1  0  0  0
 81 82  1  0  0  0
 84 86  1  0  0  0
 84 87  1  0  0  0
 85 88  1  0  0  0
 59 60  1  0  0  0
 70 71  1  0  0  0
 73 75  1  0  0  0
 73 76  1  0  0  0
 74 77  1  0  0  0
 64 65  1  0  0  0
 64 66  1  0  0  0
M  END
> <minimizedAffinity>
-6.74758

$$$$
3AG9_A02_B_351


 88 90  0  0  0  0  0  0  0  0999 V2000
    9.7756    3.9915   14.9846 C   0  0  0  0  0  0  0  0  0  0  0  0
    9.6229    4.1467   16.1900 O   0  0  0  0  0  0  0  0  0  0  0  0
   10.5360    3.0364   14.4519 N   0  0  0  0  0  0  0  0  0  0  0  0
   10.6151    2.9854   13.4719 H   0  0  0  0  0  0  0  0  0  0  0  0
    9.0980    4.9514   13.9763 C   0  0  0  0  0  0  0  0  0  0  0  0
    6.9006    5.9948   14.4179 C   0  0  0  0  0  0  0  0  0  0  0  0
    7.3888    7.1080   14.6464 O   0  0  0  0  0  0  0  0  0  0  0  0
    7.6200    4.9015   14.1181 N   0  0  0  0  0  0  0  0  0  0  0  0
    7.1553    4.0433   13.9888 H   0  0  0  0  0  0  0  0  0  0  0  0
    5.3783    5.7677   14.5193 C   0  0  0  0  0  0  0  0  0  0  0  0
    4.6245    7.0698   14.8550 C   0  0  0  0  0  0  0  0  0  0  0  0
    4.0072    7.6944   13.5987 C   0  0  0  0  0  0  0  0  0  0  0  0
    3.7163    9.1892   13.7582 C   0  0  0  0  0  0  0  0  0  0  0  0
    4.3692    9.9139   12.5791 C   0  0  0  0  0  0  0  0  0  0  0  0
    4.9704   10.3030    9.7945 O   0  0  0  0  0  0  0  0  0  0  0  0
    5.3231    9.2679   10.3783 C   0  0  0  0  0  0  0  0  0  0  0  0
    5.0541    8.9928   11.6552 N   0  0  0  0  0  0  0  0  0  0  0  0
    5.3318    8.1151   12.0041 H   0  0  0  0  0  0  0  0  0  0  0  0
    7.9056    6.6000    9.9586 O   0  0  0  0  0  0  0  0  0  0  0  0
    9.6934    8.5732   10.0185 O   0  0  0  0  0  0  0  0  0  0  0  0
    6.5604    8.7092    8.2965 O   0  0  0  0  0  0  0  0  0  0  0  0
    7.4162    7.8920   10.3681 C   0  0  0  0  0  0  0  0  0  0  0  0
    8.3424    8.9787    9.8529 C   0  0  0  0  0  0  0  0  0  0  0  0
    6.1293    8.2069    9.6055 C   0  0  0  0  0  0  0  0  0  0  0  0
    7.9791    9.0383    8.3563 C   0  0  0  0  0  0  0  0  0  0  0  0
    8.7225    6.3961   10.4403 H   0  0  0  0  0  0  0  0  0  0  0  0
    9.9075    8.5402   10.9640 H   0  0  0  0  0  0  0  0  0  0  0  0
   11.6129   12.4525    6.9094 N   0  0  0  0  0  0  0  0  0  0  0  0
   11.7646   11.2500    7.4809 C   0  0  0  0  0  0  0  0  0  0  0  0
   10.7159   10.4984    7.7902 N   0  0  0  0  0  0  0  0  0  0  0  0
    9.4711   10.9265    7.5281 C   0  0  0  0  0  0  0  0  0  0  0  0
    9.2824   12.1726    6.9454 C   0  0  0  0  0  0  0  0  0  0  0  0
   10.3923   12.9408    6.6362 C   0  0  0  0  0  0  0  0  0  0  0  0
   10.2407   14.1386    6.0814 N   0  0  0  0  0  0  0  0  0  0  0  0
    7.9742   12.3712    6.7961 N   0  0  0  0  0  0  0  0  0  0  0  0
    7.3651   11.2770    7.2660 C   0  0  0  0  0  0  0  0  0  0  0  0
    8.2683   10.3975    7.7280 N   0  0  0  0  0  0  0  0  0  0  0  0
   11.0311   14.6831    5.8623 H   0  0  0  0  0  0  0  0  0  0  0  0
    9.3381   14.4815    5.8893 H   0  0  0  0  0  0  0  0  0  0  0  0
    9.5420    4.7086   12.5161 C   0  0  0  0  0  0  0  0  0  0  0  0
   10.6348    5.6496   11.9987 C   0  0  0  0  0  0  0  0  0  0  0  0
   11.0495    6.6438   13.1038 C   0  0  0  0  0  0  0  0  0  0  0  0
   11.9612    7.7466   12.5446 C   0  0  0  0  0  0  0  0  0  0  0  0
   13.0669    7.1453   11.7774 N   0  0  0  0  0  0  0  0  0  0  0  0
   13.6145    6.5394   12.3883 H   0  0  0  0  0  0  0  0  0  0  0  0
   13.6646    7.8840   11.4066 H   0  0  0  0  0  0  0  0  0  0  0  0
   11.2667    2.0485   15.2782 C   0  0  0  0  0  0  0  0  0  0  0  0
   12.7806    2.2262   15.1163 C   0  0  0  0  0  0  0  0  0  0  0  0
   13.1817    2.1033   13.6414 C   0  0  0  0  0  0  0  0  0  0  0  0
   13.2292    3.4683   12.9475 C   0  0  0  0  0  0  0  0  0  0  0  0
   14.5098    3.6388   12.1131 C   0  0  0  0  0  0  0  0  0  0  0  0
   14.1990    3.7535   10.6114 C   0  0  0  0  0  0  0  0  0  0  0  0
   13.7162    4.7890   10.1423 O   0  0  0  0  0  0  0  0  0  0  0  0
   14.5006    2.6681    9.8886 N   0  0  0  0  0  0  0  0  0  0  0  0
   14.8929    1.8919   10.3499 H   0  0  0  0  0  0  0  0  0  0  0  0
   14.2719    2.5787    8.4252 C   0  0  0  0  0  0  0  0  0  0  0  0
   15.5994    2.2812    7.6865 C   0  0  0  0  0  0  0  0  0  0  0  0
   16.1244    1.1695    7.7502 O   0  0  0  0  0  0  0  0  0  0  0  0
   16.1133    3.3040    6.9996 N   0  0  0  0  0  0  0  0  0  0  0  0
   15.6272    4.1602    7.0040 H   0  0  0  0  0  0  0  0  0  0  0  0
   17.3756    3.2181    6.2318 C   0  0  0  0  0  0  0  0  0  0  0  0
   17.1124    2.8947    4.7432 C   0  0  0  0  0  0  0  0  0  0  0  0
   16.4757    1.8970    4.3982 O   0  0  0  0  0  0  0  0  0  0  0  0
   17.6053    3.7844    3.8839 N   0  0  0  0  0  0  0  0  0  0  0  0
   18.1068    4.5638    4.2158 H   0  0  0  0  0  0  0  0  0  0  0  0
   17.4683    3.6627    2.9166 H   0  0  0  0  0  0  0  0  0  0  0  0
   18.1430    4.5409    6.3499 C   0  0  0  0  0  0  0  0  0  0  0  0
   17.7014    5.3364    7.5801 C   0  0  0  0  0  0  0  0  0  0  0  0
   17.5002    6.8103    7.2438 C   0  0  0  0  0  0  0  0  0  0  0  0
   17.0731    7.4839    8.4661 N   0  0  0  0  0  0  0  0  0  0  0  0
   17.6864    8.1483    8.8555 H   0  0  0  0  0  0  0  0  0  0  0  0
   15.9189    7.2709    9.0967 C   0  0  0  0  0  0  0  0  0  0  0  0
   15.8440    6.9915   10.3977 N   0  0  0  0  0  0  0  0  0  0  0  0
   14.8126    7.3698    8.3725 N   0  0  0  0  0  0  0  0  0  0  0  0
   16.6666    6.9185   10.9337 H   0  0  0  0  0  0  0  0  0  0  0  0
   14.9661    6.8581   10.8228 H   0  0  0  0  0  0  0  0  0  0  0  0
   14.8701    7.5763    7.4116 H   0  0  0  0  0  0  0  0  0  0  0  0
   13.1918    1.5172    8.0856 C   0  0  0  0  0  0  0  0  0  0  0  0
   11.8649    2.1009    7.5701 C   0  0  0  0  0  0  0  0  0  0  0  0
   11.9535    3.6142    7.3156 C   0  0  0  0  0  0  0  0  0  0  0  0
   11.1656    4.3051    8.3539 N   0  0  0  0  0  0  0  0  0  0  0  0
   10.7802    3.7617    9.0788 H   0  0  0  0  0  0  0  0  0  0  0  0
   10.9417    5.6261    8.3717 C   0  0  0  0  0  0  0  0  0  0  0  0
   11.8536    6.4985    8.7981 N   0  0  0  0  0  0  0  0  0  0  0  0
    9.7682    6.0761    7.9373 N   0  0  0  0  0  0  0  0  0  0  0  0
   12.7266    6.1791    9.1223 H   0  0  0  0  0  0  0  0  0  0  0  0
   11.6546    7.4626    8.7889 H   0  0  0  0  0  0  0  0  0  0  0  0
    9.0852    5.4424    7.6194 H   0  0  0  0  0  0  0  0  0  0  0  0
 28 29  2  0  0  0
 28 33  1  0  0  0
 29 30  1  0  0  0
 30 31  2  0  0  0
 31 32  1  0  0  0
 31 37  1  0  0  0
 32 33  2  0  0  0
 32 35  1  0  0  0
 33 34  1  0  0  0
 35 36  2  0  0  0
 36 37  1  0  0  0
 37 25  1  0  0  0
 15 16  2  0  0  0
 19 22  1  0  0  0
 20 23  1  0  0  0
 21 24  1  0  0  0
 21 25  1  0  0  0
 16 24  1  0  0  0
 22 23  1  0  0  0
 22 24  1  0  0  0
 23 25  1  0  0  0
  6  7  2  0  0  0
  6 10  1  0  0  0
 10 11  1  0  0  0
 11 12  1  0  0  0
 12 13  1  0  0  0
 13 14  1  0  0  0
 14 17  1  0  0  0
  8  5  1  0  0  0
  5  1  1  0  0  0
  5 40  1  0  0  0
  1  2  2  0  0  0
 40 41  1  0  0  0
 41 42  1  0  0  0
 42 43  1  0  0  0
 43 44  1  0  0  0
 52 53  2  0  0  0
 52 51  1  0  0  0
 51 50  1  0  0  0
 50 49  1  0  0  0
 49 48  1  0  0  0
 48 47  1  0  0  0
 47  3  1  0  0  0
 54 56  1  0  0  0
 56 78  1  0  0  0
 56 57  1  0  0  0
 78 79  1  0  0  0
 79 80  1  0  0  0
 80 81  1  0  0  0
 81 83  1  0  0  0
 83 84  1  0  0  0
 83 85  2  0  0  0
 57 58  2  0  0  0
 59 61  1  0  0  0
 61 67  1  0  0  0
 61 62  1  0  0  0
 67 68  1  0  0  0
 68 69  1  0  0  0
 69 70  1  0  0  0
 70 72  1  0  0  0
 72 73  1  0  0  0
 72 74  2  0  0  0
 62 63  2  0  0  0
 16 17  1  0  0  0
  6  8  1  0  0  0
  1  3  1  0  0  0
 52 54  1  0  0  0
 57 59  1  0  0  0
 62 64  1  0  0  0
 34 38  1  0  0  0
 34 39  1  0  0  0
 19 26  1  0  0  0
 20 27  1  0  0  0
 17 18  1  0  0  0
  8  9  1  0  0  0
 44 45  1  0  0  0
 44 46  1  0  0  0
  3  4  1  0  0  0
 54 55  1  0  0  0
 81 82  1  0  0  0
 84 86  1  0  0  0
 84 87  1  0  0  0
 85 88  1  0  0  0
 59 60  1  0  0  0
 70 71  1  0  0  0
 73 75  1  0  0  0
 73 76  1  0  0  0
 74 77  1  0  0  0
 64 65  1  0  0  0
 64 66  1  0  0  0
M  END
> <minimizedAffinity>
-6.73684

$$$$
