3HVJ_705_A_1


 47 51  0  0  0  0  0  0  0  0999 V2000
  -10.8231   16.9358  -32.6766 C   0  0  0  0  0  0  0  0  0  0  0  0
  -11.3433   18.0320  -33.2496 C   0  0  0  0  0  0  0  0  0  0  0  0
  -11.9045   19.1543  -32.4353 C   0  0  0  0  0  0  0  0  0  0  0  0
  -11.9558   20.4109  -33.3152 C   0  0  0  0  0  0  0  0  0  0  0  0
  -12.8993   21.3323  -32.7496 O   0  0  0  0  0  0  0  0  0  0  0  0
  -10.4800   20.8673  -33.2305 C   0  0  0  0  0  0  0  0  0  0  0  0
  -10.3529   22.2472  -33.4462 O   0  0  0  0  0  0  0  0  0  0  0  0
  -10.9734   19.4541  -31.3948 O   0  0  0  0  0  0  0  0  0  0  0  0
  -10.1794   20.6092  -31.7802 C   0  0  0  0  0  0  0  0  0  0  0  0
  -12.6738   21.4965  -31.8205 H   0  0  0  0  0  0  0  0  0  0  0  0
  -10.9102   22.7261  -32.8130 H   0  0  0  0  0  0  0  0  0  0  0  0
   -8.8006   20.2394  -31.4546 N   0  0  0  0  0  0  0  0  0  0  0  0
   -7.9187   19.4769  -32.2428 C   0  0  0  0  0  0  0  0  0  0  0  0
   -8.1268   20.4328  -30.2496 C   0  0  0  0  0  0  0  0  0  0  0  0
   -8.5645   21.0958  -29.1503 N   0  0  0  0  0  0  0  0  0  0  0  0
   -7.7084   21.1403  -28.1280 C   0  0  0  0  0  0  0  0  0  0  0  0
   -6.4849   20.5742  -28.1482 N   0  0  0  0  0  0  0  0  0  0  0  0
   -6.0698   19.9161  -29.2388 C   0  0  0  0  0  0  0  0  0  0  0  0
   -6.9085   19.8364  -30.3805 C   0  0  0  0  0  0  0  0  0  0  0  0
   -6.7931   19.2618  -31.6086 N   0  0  0  0  0  0  0  0  0  0  0  0
   -4.7921   19.4041  -29.1613 N   0  0  0  0  0  0  0  0  0  0  0  0
   -4.6527   18.4314  -29.2223 H   0  0  0  0  0  0  0  0  0  0  0  0
   -3.6354   20.2954  -28.9885 C   0  0  0  0  0  0  0  0  0  0  0  0
   -3.0744   20.3771  -30.4285 C   0  0  0  0  0  0  0  0  0  0  0  0
   -3.4594   21.7468  -31.0364 C   0  0  0  0  0  0  0  0  0  0  0  0
  -10.2829   15.7884  -33.4746 C   0  0  0  0  0  0  0  0  0  0  0  0
  -10.7710   13.3662  -33.3579 C   0  0  0  0  0  0  0  0  0  0  0  0
   -9.6405   13.1912  -33.8443 O   0  0  0  0  0  0  0  0  0  0  0  0
  -11.1706   14.6443  -33.1692 N   0  0  0  0  0  0  0  0  0  0  0  0
  -12.0745   14.8180  -32.8199 H   0  0  0  0  0  0  0  0  0  0  0  0
  -14.0295   11.6563  -32.7691 C   0  0  0  0  0  0  0  0  0  0  0  0
  -13.0493   12.6055  -33.0709 C   0  0  0  0  0  0  0  0  0  0  0  0
  -13.6455   10.3332  -32.3796 C   0  0  0  0  0  0  0  0  0  0  0  0
  -12.2847   10.0201  -32.3133 C   0  0  0  0  0  0  0  0  0  0  0  0
  -11.8646    8.7604  -31.9056 O   0  0  0  0  0  0  0  0  0  0  0  0
  -11.3234   10.9892  -32.6263 C   0  0  0  0  0  0  0  0  0  0  0  0
  -10.0232   10.6075  -32.5703 O   0  0  0  0  0  0  0  0  0  0  0  0
  -11.7008   12.2751  -33.0338 C   0  0  0  0  0  0  0  0  0  0  0  0
  -12.4964    8.1020  -31.6929 H   0  0  0  0  0  0  0  0  0  0  0  0
   -9.8010    9.7403  -32.2937 H   0  0  0  0  0  0  0  0  0  0  0  0
  -19.4049   13.1351  -33.1971 F   0  0  0  0  0  0  0  0  0  0  0  0
  -18.1085   12.7806  -33.0890 C   0  0  0  0  0  0  0  0  0  0  0  0
  -17.7984   11.4150  -33.0458 C   0  0  0  0  0  0  0  0  0  0  0  0
  -16.4428   11.0002  -32.9461 C   0  0  0  0  0  0  0  0  0  0  0  0
  -17.1425   13.7904  -33.0246 C   0  0  0  0  0  0  0  0  0  0  0  0
  -15.8175   13.3765  -32.9029 C   0  0  0  0  0  0  0  0  0  0  0  0
  -15.4471   11.9931  -32.8588 C   0  0  0  0  0  0  0  0  0  0  0  0
 41 42  1  0  0  0
 42 43  2  0  0  0
 42 45  1  0  0  0
 43 44  1  0  0  0
 44 47  2  0  0  0
 45 46  2  0  0  0
 46 47  1  0  0  0
 47 31  1  0  0  0
 31 32  2  0  0  0
 31 33  1  0  0  0
 32 38  1  0  0  0
 33 34  2  0  0  0
 34 35  1  0  0  0
 34 36  1  0  0  0
 36 37  1  0  0  0
 36 38  2  0  0  0
 38 27  1  0  0  0
 27 28  2  0  0  0
 27 29  1  0  0  0
 29 26  1  0  0  0
 26  1  1  0  0  0
  1  2  2  0  0  0
  2  3  1  0  0  0
  3  4  1  0  0  0
  3  8  1  0  0  0
  4  5  1  0  0  0
  4  6  1  0  0  0
  6  7  1  0  0  0
  6  9  1  0  0  0
  8  9  1  0  0  0
  9 12  1  0  0  0
 12 13  1  0  0  0
 12 14  1  0  0  0
 13 20  2  0  0  0
 14 15  2  0  0  0
 14 19  1  0  0  0
 15 16  1  0  0  0
 16 17  2  0  0  0
 17 18  1  0  0  0
 18 19  2  0  0  0
 18 21  1  0  0  0
 19 20  1  0  0  0
 21 23  1  0  0  0
 23 24  1  0  0  0
 24 25  1  0  0  0
 35 39  1  0  0  0
 37 40  1  0  0  0
 29 30  1  0  0  0
  5 10  1  0  0  0
  7 11  1  0  0  0
 21 22  1  0  0  0
M  END
> <minimizedAffinity>
-9.65333

$$$$
3HVJ_705_A_1


 47 51  0  0  0  0  0  0  0  0999 V2000
  -10.9414   16.8635  -32.5024 C   0  0  0  0  0  0  0  0  0  0  0  0
  -11.0885   18.0746  -33.0612 C   0  0  0  0  0  0  0  0  0  0  0  0
  -11.5927   19.2458  -32.2791 C   0  0  0  0  0  0  0  0  0  0  0  0
  -11.5137   20.4924  -33.1712 C   0  0  0  0  0  0  0  0  0  0  0  0
  -12.4047   21.4896  -32.6508 O   0  0  0  0  0  0  0  0  0  0  0  0
  -10.0116   20.8357  -33.0328 C   0  0  0  0  0  0  0  0  0  0  0  0
   -9.7708   22.1993  -33.2552 O   0  0  0  0  0  0  0  0  0  0  0  0
  -10.6820   19.4856  -31.2056 O   0  0  0  0  0  0  0  0  0  0  0  0
   -9.7874   20.5722  -31.5696 C   0  0  0  0  0  0  0  0  0  0  0  0
  -12.2030   21.6468  -31.7151 H   0  0  0  0  0  0  0  0  0  0  0  0
  -10.3136   22.7267  -32.6484 H   0  0  0  0  0  0  0  0  0  0  0  0
   -8.4546   20.1020  -31.1872 N   0  0  0  0  0  0  0  0  0  0  0  0
   -7.8292   18.9074  -31.5898 C   0  0  0  0  0  0  0  0  0  0  0  0
   -7.5936   20.6546  -30.2403 C   0  0  0  0  0  0  0  0  0  0  0  0
   -7.7570   21.8047  -29.5401 N   0  0  0  0  0  0  0  0  0  0  0  0
   -6.7681   22.1094  -28.6979 C   0  0  0  0  0  0  0  0  0  0  0  0
   -5.6679   21.3494  -28.5254 N   0  0  0  0  0  0  0  0  0  0  0  0
   -5.5246   20.2121  -29.2188 C   0  0  0  0  0  0  0  0  0  0  0  0
   -6.5192   19.8210  -30.1521 C   0  0  0  0  0  0  0  0  0  0  0  0
   -6.6746   18.7597  -30.9894 N   0  0  0  0  0  0  0  0  0  0  0  0
   -4.3489   19.5306  -28.9869 N   0  0  0  0  0  0  0  0  0  0  0  0
   -4.3502   18.7451  -28.3935 H   0  0  0  0  0  0  0  0  0  0  0  0
   -3.0929   19.9646  -29.6166 C   0  0  0  0  0  0  0  0  0  0  0  0
   -2.1937   20.2363  -28.3868 C   0  0  0  0  0  0  0  0  0  0  0  0
   -1.4173   18.9433  -28.0415 C   0  0  0  0  0  0  0  0  0  0  0  0
  -10.4659   15.6714  -33.2757 C   0  0  0  0  0  0  0  0  0  0  0  0
  -11.2532   13.3307  -33.1337 C   0  0  0  0  0  0  0  0  0  0  0  0
  -10.0698   13.0002  -33.3217 O   0  0  0  0  0  0  0  0  0  0  0  0
  -11.5303   14.6544  -33.1246 N   0  0  0  0  0  0  0  0  0  0  0  0
  -12.4634   14.9487  -33.0148 H   0  0  0  0  0  0  0  0  0  0  0  0
  -14.7587   12.0669  -33.0833 C   0  0  0  0  0  0  0  0  0  0  0  0
  -13.6283   12.8782  -33.2124 C   0  0  0  0  0  0  0  0  0  0  0  0
  -14.6153   10.7042  -32.6682 C   0  0  0  0  0  0  0  0  0  0  0  0
  -13.3336   10.2136  -32.4026 C   0  0  0  0  0  0  0  0  0  0  0  0
  -13.1493    8.9090  -31.9627 O   0  0  0  0  0  0  0  0  0  0  0  0
  -12.2173   11.0471  -32.5452 C   0  0  0  0  0  0  0  0  0  0  0  0
  -11.0023   10.4965  -32.3005 O   0  0  0  0  0  0  0  0  0  0  0  0
  -12.3563   12.3721  -32.9779 C   0  0  0  0  0  0  0  0  0  0  0  0
  -13.8869    8.3398  -31.8625 H   0  0  0  0  0  0  0  0  0  0  0  0
  -10.9405    9.6073  -32.0118 H   0  0  0  0  0  0  0  0  0  0  0  0
  -19.9155   13.8680  -34.2787 F   0  0  0  0  0  0  0  0  0  0  0  0
  -18.6704   13.4347  -33.9954 C   0  0  0  0  0  0  0  0  0  0  0  0
  -17.9040   14.1756  -33.0862 C   0  0  0  0  0  0  0  0  0  0  0  0
  -16.5921   13.7444  -32.7508 C   0  0  0  0  0  0  0  0  0  0  0  0
  -18.2083   12.2726  -34.6222 C   0  0  0  0  0  0  0  0  0  0  0  0
  -16.9124   11.8692  -34.3066 C   0  0  0  0  0  0  0  0  0  0  0  0
  -16.0895   12.5886  -33.3802 C   0  0  0  0  0  0  0  0  0  0  0  0
 41 42  1  0  0  0
 42 43  2  0  0  0
 42 45  1  0  0  0
 43 44  1  0  0  0
 44 47  2  0  0  0
 45 46  2  0  0  0
 46 47  1  0  0  0
 47 31  1  0  0  0
 31 32  2  0  0  0
 31 33  1  0  0  0
 32 38  1  0  0  0
 33 34  2  0  0  0
 34 35  1  0  0  0
 34 36  1  0  0  0
 36 37  1  0  0  0
 36 38  2  0  0  0
 38 27  1  0  0  0
 27 28  2  0  0  0
 27 29  1  0  0  0
 29 26  1  0  0  0
 26  1  1  0  0  0
  1  2  2  0  0  0
  2  3  1  0  0  0
  3  4  1  0  0  0
  3  8  1  0  0  0
  4  5  1  0  0  0
  4  6  1  0  0  0
  6  7  1  0  0  0
  6  9  1  0  0  0
  8  9  1  0  0  0
  9 12  1  0  0  0
 12 13  1  0  0  0
 12 14  1  0  0  0
 13 20  2  0  0  0
 14 15  2  0  0  0
 14 19  1  0  0  0
 15 16  1  0  0  0
 16 17  2  0  0  0
 17 18  1  0  0  0
 18 19  2  0  0  0
 18 21  1  0  0  0
 19 20  1  0  0  0
 21 23  1  0  0  0
 23 24  1  0  0  0
 24 25  1  0  0  0
 35 39  1  0  0  0
 37 40  1  0  0  0
 29 30  1  0  0  0
  5 10  1  0  0  0
  7 11  1  0  0  0
 21 22  1  0  0  0
M  END
> <minimizedAffinity>
-9.49575

$$$$
3HVJ_705_A_1


 47 51  0  0  0  0  0  0  0  0999 V2000
   -5.8808   10.3668  -34.4848 C   0  0  0  0  0  0  0  0  0  0  0  0
   -4.8617   11.2385  -34.4384 C   0  0  0  0  0  0  0  0  0  0  0  0
   -4.0563   11.5726  -35.6539 C   0  0  0  0  0  0  0  0  0  0  0  0
   -3.6437   13.0486  -35.5691 C   0  0  0  0  0  0  0  0  0  0  0  0
   -2.5132   13.2618  -36.4268 O   0  0  0  0  0  0  0  0  0  0  0  0
   -4.9498   13.7278  -36.0445 C   0  0  0  0  0  0  0  0  0  0  0  0
   -4.7018   14.9896  -36.6042 O   0  0  0  0  0  0  0  0  0  0  0  0
   -4.9143   11.4804  -36.7917 O   0  0  0  0  0  0  0  0  0  0  0  0
   -5.3620   12.8125  -37.1638 C   0  0  0  0  0  0  0  0  0  0  0  0
   -2.7224   12.9497  -37.3211 H   0  0  0  0  0  0  0  0  0  0  0  0
   -4.0624   14.9021  -37.3284 H   0  0  0  0  0  0  0  0  0  0  0  0
   -6.8006   12.6712  -37.3960 N   0  0  0  0  0  0  0  0  0  0  0  0
   -7.8310   12.8212  -36.4492 C   0  0  0  0  0  0  0  0  0  0  0  0
   -7.4388   12.2188  -38.5499 C   0  0  0  0  0  0  0  0  0  0  0  0
   -6.8745   11.9078  -39.7435 N   0  0  0  0  0  0  0  0  0  0  0  0
   -7.7223   11.5053  -40.6917 C   0  0  0  0  0  0  0  0  0  0  0  0
   -9.0543   11.3995  -40.5121 N   0  0  0  0  0  0  0  0  0  0  0  0
   -9.5959   11.7029  -39.3249 C   0  0  0  0  0  0  0  0  0  0  0  0
   -8.7701   12.1590  -38.2651 C   0  0  0  0  0  0  0  0  0  0  0  0
   -8.9954   12.5376  -36.9776 N   0  0  0  0  0  0  0  0  0  0  0  0
  -10.9683   11.5885  -39.2623 N   0  0  0  0  0  0  0  0  0  0  0  0
  -11.3741   10.9062  -38.6801 H   0  0  0  0  0  0  0  0  0  0  0  0
  -11.8325   12.4748  -40.0561 C   0  0  0  0  0  0  0  0  0  0  0  0
  -11.7523   13.7995  -39.2601 C   0  0  0  0  0  0  0  0  0  0  0  0
  -12.6802   13.6965  -38.0263 C   0  0  0  0  0  0  0  0  0  0  0  0
   -6.6806    9.9966  -33.2731 C   0  0  0  0  0  0  0  0  0  0  0  0
   -9.0838   10.3789  -32.8286 C   0  0  0  0  0  0  0  0  0  0  0  0
   -9.0927    9.2457  -32.3177 O   0  0  0  0  0  0  0  0  0  0  0  0
   -7.9140   10.8108  -33.3520 N   0  0  0  0  0  0  0  0  0  0  0  0
   -7.8820   11.6886  -33.7965 H   0  0  0  0  0  0  0  0  0  0  0  0
  -11.0800   13.4620  -33.4592 C   0  0  0  0  0  0  0  0  0  0  0  0
  -10.0315   12.5472  -33.3306 C   0  0  0  0  0  0  0  0  0  0  0  0
  -12.4191   13.0606  -33.1500 C   0  0  0  0  0  0  0  0  0  0  0  0
  -12.6466   11.7482  -32.7255 C   0  0  0  0  0  0  0  0  0  0  0  0
  -13.9235   11.3246  -32.3800 O   0  0  0  0  0  0  0  0  0  0  0  0
  -11.5779   10.8504  -32.6105 C   0  0  0  0  0  0  0  0  0  0  0  0
  -11.8754    9.5854  -32.2226 O   0  0  0  0  0  0  0  0  0  0  0  0
  -10.2723   11.2364  -32.9397 C   0  0  0  0  0  0  0  0  0  0  0  0
  -14.6482   11.9142  -32.4518 H   0  0  0  0  0  0  0  0  0  0  0  0
  -12.7584    9.3564  -32.0085 H   0  0  0  0  0  0  0  0  0  0  0  0
  -10.0428   18.7276  -35.0286 F   0  0  0  0  0  0  0  0  0  0  0  0
  -10.2978   17.4592  -34.6486 C   0  0  0  0  0  0  0  0  0  0  0  0
  -10.3735   16.4744  -35.6422 C   0  0  0  0  0  0  0  0  0  0  0  0
  -10.6268   15.1234  -35.2813 C   0  0  0  0  0  0  0  0  0  0  0  0
  -10.4744   17.1921  -33.2868 C   0  0  0  0  0  0  0  0  0  0  0  0
  -10.7461   15.8694  -32.9428 C   0  0  0  0  0  0  0  0  0  0  0  0
  -10.8294   14.8245  -33.9196 C   0  0  0  0  0  0  0  0  0  0  0  0
 41 42  1  0  0  0
 42 43  2  0  0  0
 42 45  1  0  0  0
 43 44  1  0  0  0
 44 47  2  0  0  0
 45 46  2  0  0  0
 46 47  1  0  0  0
 47 31  1  0  0  0
 31 32  2  0  0  0
 31 33  1  0  0  0
 32 38  1  0  0  0
 33 34  2  0  0  0
 34 35  1  0  0  0
 34 36  1  0  0  0
 36 37  1  0  0  0
 36 38  2  0  0  0
 38 27  1  0  0  0
 27 28  2  0  0  0
 27 29  1  0  0  0
 29 26  1  0  0  0
 26  1  1  0  0  0
  1  2  2  0  0  0
  2  3  1  0  0  0
  3  4  1  0  0  0
  3  8  1  0  0  0
  4  5  1  0  0  0
  4  6  1  0  0  0
  6  7  1  0  0  0
  6  9  1  0  0  0
  8  9  1  0  0  0
  9 12  1  0  0  0
 12 13  1  0  0  0
 12 14  1  0  0  0
 13 20  2  0  0  0
 14 15  2  0  0  0
 14 19  1  0  0  0
 15 16  1  0  0  0
 16 17  2  0  0  0
 17 18  1  0  0  0
 18 19  2  0  0  0
 18 21  1  0  0  0
 19 20  1  0  0  0
 21 23  1  0  0  0
 23 24  1  0  0  0
 24 25  1  0  0  0
 35 39  1  0  0  0
 37 40  1  0  0  0
 29 30  1  0  0  0
  5 10  1  0  0  0
  7 11  1  0  0  0
 21 22  1  0  0  0
M  END
> <minimizedAffinity>
-9.15389

$$$$
3HVJ_705_A_1


 47 51  0  0  0  0  0  0  0  0999 V2000
  -10.6787   15.4659  -34.0512 C   0  0  0  0  0  0  0  0  0  0  0  0
  -10.5059   16.6654  -33.4752 C   0  0  0  0  0  0  0  0  0  0  0  0
  -10.8590   17.9357  -34.1818 C   0  0  0  0  0  0  0  0  0  0  0  0
   -9.7879   18.2100  -35.2464 C   0  0  0  0  0  0  0  0  0  0  0  0
  -10.3296   19.1082  -36.2256 O   0  0  0  0  0  0  0  0  0  0  0  0
   -8.6712   18.8166  -34.3642 C   0  0  0  0  0  0  0  0  0  0  0  0
   -7.8322   19.6637  -35.1027 O   0  0  0  0  0  0  0  0  0  0  0  0
  -10.7498   19.0078  -33.2448 O   0  0  0  0  0  0  0  0  0  0  0  0
   -9.4748   19.6805  -33.4323 C   0  0  0  0  0  0  0  0  0  0  0  0
  -10.6738   19.8997  -35.7829 H   0  0  0  0  0  0  0  0  0  0  0  0
   -8.3638   20.3544  -35.5285 H   0  0  0  0  0  0  0  0  0  0  0  0
   -8.9421   19.8539  -32.0796 N   0  0  0  0  0  0  0  0  0  0  0  0
   -9.6377   20.3173  -30.9474 C   0  0  0  0  0  0  0  0  0  0  0  0
   -7.6164   19.7416  -31.6633 C   0  0  0  0  0  0  0  0  0  0  0  0
   -6.5459   19.3478  -32.3973 N   0  0  0  0  0  0  0  0  0  0  0  0
   -5.3821   19.3196  -31.7455 C   0  0  0  0  0  0  0  0  0  0  0  0
   -5.2403   19.6554  -30.4475 N   0  0  0  0  0  0  0  0  0  0  0  0
   -6.3060   20.0498  -29.7378 C   0  0  0  0  0  0  0  0  0  0  0  0
   -7.5871   20.0902  -30.3463 C   0  0  0  0  0  0  0  0  0  0  0  0
   -8.8332   20.4332  -29.9204 N   0  0  0  0  0  0  0  0  0  0  0  0
   -6.0519   20.3393  -28.4141 N   0  0  0  0  0  0  0  0  0  0  0  0
   -6.0724   19.6174  -27.7450 H   0  0  0  0  0  0  0  0  0  0  0  0
   -5.7505   21.7151  -27.9910 C   0  0  0  0  0  0  0  0  0  0  0  0
   -6.9134   22.0132  -27.0144 C   0  0  0  0  0  0  0  0  0  0  0  0
   -7.8418   23.0730  -27.6538 C   0  0  0  0  0  0  0  0  0  0  0  0
  -10.3042   14.1840  -33.3719 C   0  0  0  0  0  0  0  0  0  0  0  0
  -11.5612   12.1138  -32.8691 C   0  0  0  0  0  0  0  0  0  0  0  0
  -10.4659   11.6123  -32.5626 O   0  0  0  0  0  0  0  0  0  0  0  0
  -11.5531   13.3926  -33.3089 N   0  0  0  0  0  0  0  0  0  0  0  0
  -12.3991   13.8074  -33.5944 H   0  0  0  0  0  0  0  0  0  0  0  0
  -15.2366   11.5508  -33.1202 C   0  0  0  0  0  0  0  0  0  0  0  0
  -13.9654   12.1311  -33.1361 C   0  0  0  0  0  0  0  0  0  0  0  0
  -15.3890   10.1766  -32.7487 C   0  0  0  0  0  0  0  0  0  0  0  0
  -14.2493    9.4411  -32.4104 C   0  0  0  0  0  0  0  0  0  0  0  0
  -14.3526    8.1154  -32.0089 O   0  0  0  0  0  0  0  0  0  0  0  0
  -12.9866   10.0463  -32.4400 C   0  0  0  0  0  0  0  0  0  0  0  0
  -11.9221    9.2655  -32.1297 O   0  0  0  0  0  0  0  0  0  0  0  0
  -12.8358   11.3831  -32.8302 C   0  0  0  0  0  0  0  0  0  0  0  0
  -15.1908    7.6973  -31.9842 H   0  0  0  0  0  0  0  0  0  0  0  0
  -12.0540    8.3744  -31.8718 H   0  0  0  0  0  0  0  0  0  0  0  0
  -19.8283   14.3521  -34.6480 F   0  0  0  0  0  0  0  0  0  0  0  0
  -18.7186   13.6782  -34.2839 C   0  0  0  0  0  0  0  0  0  0  0  0
  -18.0244   14.1134  -33.1474 C   0  0  0  0  0  0  0  0  0  0  0  0
  -16.8579   13.4215  -32.7230 C   0  0  0  0  0  0  0  0  0  0  0  0
  -18.3173   12.5837  -35.0573 C   0  0  0  0  0  0  0  0  0  0  0  0
  -17.1594   11.9249  -34.6489 C   0  0  0  0  0  0  0  0  0  0  0  0
  -16.4158   12.3269  -33.4919 C   0  0  0  0  0  0  0  0  0  0  0  0
 41 42  1  0  0  0
 42 43  2  0  0  0
 42 45  1  0  0  0
 43 44  1  0  0  0
 44 47  2  0  0  0
 45 46  2  0  0  0
 46 47  1  0  0  0
 47 31  1  0  0  0
 31 32  2  0  0  0
 31 33  1  0  0  0
 32 38  1  0  0  0
 33 34  2  0  0  0
 34 35  1  0  0  0
 34 36  1  0  0  0
 36 37  1  0  0  0
 36 38  2  0  0  0
 38 27  1  0  0  0
 27 28  2  0  0  0
 27 29  1  0  0  0
 29 26  1  0  0  0
 26  1  1  0  0  0
  1  2  2  0  0  0
  2  3  1  0  0  0
  3  4  1  0  0  0
  3  8  1  0  0  0
  4  5  1  0  0  0
  4  6  1  0  0  0
  6  7  1  0  0  0
  6  9  1  0  0  0
  8  9  1  0  0  0
  9 12  1  0  0  0
 12 13  1  0  0  0
 12 14  1  0  0  0
 13 20  2  0  0  0
 14 15  2  0  0  0
 14 19  1  0  0  0
 15 16  1  0  0  0
 16 17  2  0  0  0
 17 18  1  0  0  0
 18 19  2  0  0  0
 18 21  1  0  0  0
 19 20  1  0  0  0
 21 23  1  0  0  0
 23 24  1  0  0  0
 24 25  1  0  0  0
 35 39  1  0  0  0
 37 40  1  0  0  0
 29 30  1  0  0  0
  5 10  1  0  0  0
  7 11  1  0  0  0
 21 22  1  0  0  0
M  END
> <minimizedAffinity>
-8.94912

$$$$
3HVJ_705_A_1


 47 51  0  0  0  0  0  0  0  0999 V2000
  -10.4808   16.3777  -35.7608 C   0  0  0  0  0  0  0  0  0  0  0  0
  -10.2961   16.6926  -34.4696 C   0  0  0  0  0  0  0  0  0  0  0  0
   -9.6565   17.9806  -34.0578 C   0  0  0  0  0  0  0  0  0  0  0  0
   -9.8395   18.1480  -32.5430 C   0  0  0  0  0  0  0  0  0  0  0  0
   -8.8600   19.0787  -32.0598 O   0  0  0  0  0  0  0  0  0  0  0  0
  -11.2968   18.6651  -32.4969 C   0  0  0  0  0  0  0  0  0  0  0  0
  -11.5383   19.4271  -31.3445 O   0  0  0  0  0  0  0  0  0  0  0  0
  -10.3931   19.0499  -34.6522 O   0  0  0  0  0  0  0  0  0  0  0  0
  -11.3079   19.6066  -33.6690 C   0  0  0  0  0  0  0  0  0  0  0  0
   -8.9176   19.9023  -32.5690 H   0  0  0  0  0  0  0  0  0  0  0  0
  -10.9005   20.1566  -31.2997 H   0  0  0  0  0  0  0  0  0  0  0  0
  -12.5794   19.7485  -34.3809 N   0  0  0  0  0  0  0  0  0  0  0  0
  -12.9019   19.2350  -35.6509 C   0  0  0  0  0  0  0  0  0  0  0  0
  -13.6737   20.5354  -34.0252 C   0  0  0  0  0  0  0  0  0  0  0  0
  -13.8413   21.2615  -32.8919 N   0  0  0  0  0  0  0  0  0  0  0  0
  -14.9970   21.9213  -32.7985 C   0  0  0  0  0  0  0  0  0  0  0  0
  -15.9554   21.8948  -33.7465 N   0  0  0  0  0  0  0  0  0  0  0  0
  -15.7718   21.1791  -34.8641 C   0  0  0  0  0  0  0  0  0  0  0  0
  -14.5795   20.4299  -35.0379 C   0  0  0  0  0  0  0  0  0  0  0  0
  -14.0958   19.6247  -36.0225 N   0  0  0  0  0  0  0  0  0  0  0  0
  -16.8275   21.1985  -35.7504 N   0  0  0  0  0  0  0  0  0  0  0  0
  -16.6503   21.2229  -36.7185 H   0  0  0  0  0  0  0  0  0  0  0  0
  -18.2156   21.1833  -35.2651 C   0  0  0  0  0  0  0  0  0  0  0  0
  -18.9916   20.7282  -36.5243 C   0  0  0  0  0  0  0  0  0  0  0  0
  -18.0229   20.7198  -37.7307 C   0  0  0  0  0  0  0  0  0  0  0  0
  -11.0925   15.0804  -36.1946 C   0  0  0  0  0  0  0  0  0  0  0  0
  -10.4189   13.2556  -34.6665 C   0  0  0  0  0  0  0  0  0  0  0  0
  -11.4682   13.4915  -34.0431 O   0  0  0  0  0  0  0  0  0  0  0  0
  -10.1521   14.0312  -35.7417 N   0  0  0  0  0  0  0  0  0  0  0  0
   -9.3115   13.8944  -36.2355 H   0  0  0  0  0  0  0  0  0  0  0  0
   -7.2245   11.3363  -34.6597 C   0  0  0  0  0  0  0  0  0  0  0  0
   -8.2279   12.2675  -34.9403 C   0  0  0  0  0  0  0  0  0  0  0  0
   -7.4583   10.3042  -33.6954 C   0  0  0  0  0  0  0  0  0  0  0  0
   -8.6971   10.2556  -33.0496 C   0  0  0  0  0  0  0  0  0  0  0  0
   -8.9818    9.2509  -32.1335 O   0  0  0  0  0  0  0  0  0  0  0  0
   -9.6832   11.2048  -33.3460 C   0  0  0  0  0  0  0  0  0  0  0  0
  -10.8497   11.1160  -32.6599 O   0  0  0  0  0  0  0  0  0  0  0  0
   -9.4434   12.2305  -34.2694 C   0  0  0  0  0  0  0  0  0  0  0  0
   -8.3318    8.6089  -31.9253 H   0  0  0  0  0  0  0  0  0  0  0  0
  -10.9815   10.4183  -32.0484 H   0  0  0  0  0  0  0  0  0  0  0  0
   -2.3582   11.7267  -37.3859 F   0  0  0  0  0  0  0  0  0  0  0  0
   -3.5327   11.6280  -36.7310 C   0  0  0  0  0  0  0  0  0  0  0  0
   -3.5013   11.4278  -35.3447 C   0  0  0  0  0  0  0  0  0  0  0  0
   -4.7176   11.3323  -34.6161 C   0  0  0  0  0  0  0  0  0  0  0  0
   -4.7186   11.7289  -37.4662 C   0  0  0  0  0  0  0  0  0  0  0  0
   -5.9071   11.6104  -36.7486 C   0  0  0  0  0  0  0  0  0  0  0  0
   -5.9297   11.4097  -35.3301 C   0  0  0  0  0  0  0  0  0  0  0  0
 41 42  1  0  0  0
 42 43  2  0  0  0
 42 45  1  0  0  0
 43 44  1  0  0  0
 44 47  2  0  0  0
 45 46  2  0  0  0
 46 47  1  0  0  0
 47 31  1  0  0  0
 31 32  2  0  0  0
 31 33  1  0  0  0
 32 38  1  0  0  0
 33 34  2  0  0  0
 34 35  1  0  0  0
 34 36  1  0  0  0
 36 37  1  0  0  0
 36 38  2  0  0  0
 38 27  1  0  0  0
 27 28  2  0  0  0
 27 29  1  0  0  0
 29 26  1  0  0  0
 26  1  1  0  0  0
  1  2  2  0  0  0
  2  3  1  0  0  0
  3  4  1  0  0  0
  3  8  1  0  0  0
  4  5  1  0  0  0
  4  6  1  0  0  0
  6  7  1  0  0  0
  6  9  1  0  0  0
  8  9  1  0  0  0
  9 12  1  0  0  0
 12 13  1  0  0  0
 12 14  1  0  0  0
 13 20  2  0  0  0
 14 15  2  0  0  0
 14 19  1  0  0  0
 15 16  1  0  0  0
 16 17  2  0  0  0
 17 18  1  0  0  0
 18 19  2  0  0  0
 18 21  1  0  0  0
 19 20  1  0  0  0
 21 23  1  0  0  0
 23 24  1  0  0  0
 24 25  1  0  0  0
 35 39  1  0  0  0
 37 40  1  0  0  0
 29 30  1  0  0  0
  5 10  1  0  0  0
  7 11  1  0  0  0
 21 22  1  0  0  0
M  END
> <minimizedAffinity>
-8.77523

$$$$
3HVJ_705_A_1


 47 51  0  0  0  0  0  0  0  0999 V2000
  -10.3527   14.9239  -34.5909 C   0  0  0  0  0  0  0  0  0  0  0  0
  -10.4123   16.2629  -34.6532 C   0  0  0  0  0  0  0  0  0  0  0  0
  -10.4473   16.9888  -35.9607 C   0  0  0  0  0  0  0  0  0  0  0  0
   -9.1219   17.7442  -36.1295 C   0  0  0  0  0  0  0  0  0  0  0  0
   -8.9300   18.0345  -37.5216 O   0  0  0  0  0  0  0  0  0  0  0  0
   -9.3963   18.9835  -35.2451 C   0  0  0  0  0  0  0  0  0  0  0  0
   -8.6297   20.0862  -35.6490 O   0  0  0  0  0  0  0  0  0  0  0  0
  -11.4546   17.9978  -35.8793 O   0  0  0  0  0  0  0  0  0  0  0  0
  -10.8282   19.2787  -35.5956 C   0  0  0  0  0  0  0  0  0  0  0  0
   -9.7087   18.4997  -37.8652 H   0  0  0  0  0  0  0  0  0  0  0  0
   -8.7999   20.2728  -36.5855 H   0  0  0  0  0  0  0  0  0  0  0  0
  -11.6509   19.8702  -34.5388 N   0  0  0  0  0  0  0  0  0  0  0  0
  -11.6052   19.5752  -33.1635 C   0  0  0  0  0  0  0  0  0  0  0  0
  -12.7398   20.7284  -34.6841 C   0  0  0  0  0  0  0  0  0  0  0  0
  -13.2125   21.2843  -35.8275 N   0  0  0  0  0  0  0  0  0  0  0  0
  -14.2713   22.0829  -35.6825 C   0  0  0  0  0  0  0  0  0  0  0  0
  -14.8602   22.3411  -34.4974 N   0  0  0  0  0  0  0  0  0  0  0  0
  -14.3864   21.7783  -33.3778 C   0  0  0  0  0  0  0  0  0  0  0  0
  -13.2503   20.9305  -33.4368 C   0  0  0  0  0  0  0  0  0  0  0  0
  -12.5406   20.2237  -32.5156 N   0  0  0  0  0  0  0  0  0  0  0  0
  -15.0449   22.1354  -32.2205 N   0  0  0  0  0  0  0  0  0  0  0  0
  -14.6533   21.9063  -31.3467 H   0  0  0  0  0  0  0  0  0  0  0  0
  -16.3261   22.8551  -32.2772 C   0  0  0  0  0  0  0  0  0  0  0  0
  -17.2636   21.9049  -31.4942 C   0  0  0  0  0  0  0  0  0  0  0  0
  -18.5985   21.7748  -32.2655 C   0  0  0  0  0  0  0  0  0  0  0  0
  -10.2873   14.1796  -33.2921 C   0  0  0  0  0  0  0  0  0  0  0  0
  -11.5185   12.0835  -32.8346 C   0  0  0  0  0  0  0  0  0  0  0  0
  -10.4148   11.5840  -32.5564 O   0  0  0  0  0  0  0  0  0  0  0  0
  -11.5279   13.3746  -33.2370 N   0  0  0  0  0  0  0  0  0  0  0  0
  -12.3812   13.7893  -33.4998 H   0  0  0  0  0  0  0  0  0  0  0  0
  -15.1897   11.4890  -33.0741 C   0  0  0  0  0  0  0  0  0  0  0  0
  -13.9244   12.0819  -33.0870 C   0  0  0  0  0  0  0  0  0  0  0  0
  -15.3264   10.1067  -32.7269 C   0  0  0  0  0  0  0  0  0  0  0  0
  -14.1775    9.3765  -32.4091 C   0  0  0  0  0  0  0  0  0  0  0  0
  -14.2653    8.0427  -32.0313 O   0  0  0  0  0  0  0  0  0  0  0  0
  -12.9210    9.9945  -32.4351 C   0  0  0  0  0  0  0  0  0  0  0  0
  -11.8470    9.2187  -32.1455 O   0  0  0  0  0  0  0  0  0  0  0  0
  -12.7857   11.3396  -32.8016 C   0  0  0  0  0  0  0  0  0  0  0  0
  -15.0993    7.6160  -32.0093 H   0  0  0  0  0  0  0  0  0  0  0  0
  -11.9686    8.3218  -31.9032 H   0  0  0  0  0  0  0  0  0  0  0  0
  -19.8351   14.2621  -34.4867 F   0  0  0  0  0  0  0  0  0  0  0  0
  -18.7128   13.5942  -34.1509 C   0  0  0  0  0  0  0  0  0  0  0  0
  -17.8847   14.1475  -33.1656 C   0  0  0  0  0  0  0  0  0  0  0  0
  -16.7000   13.4676  -32.7737 C   0  0  0  0  0  0  0  0  0  0  0  0
  -18.4327   12.3880  -34.8017 C   0  0  0  0  0  0  0  0  0  0  0  0
  -17.2573   11.7389  -34.4293 C   0  0  0  0  0  0  0  0  0  0  0  0
  -16.3787   12.2600  -33.4245 C   0  0  0  0  0  0  0  0  0  0  0  0
 41 42  1  0  0  0
 42 43  2  0  0  0
 42 45  1  0  0  0
 43 44  1  0  0  0
 44 47  2  0  0  0
 45 46  2  0  0  0
 46 47  1  0  0  0
 47 31  1  0  0  0
 31 32  2  0  0  0
 31 33  1  0  0  0
 32 38  1  0  0  0
 33 34  2  0  0  0
 34 35  1  0  0  0
 34 36  1  0  0  0
 36 37  1  0  0  0
 36 38  2  0  0  0
 38 27  1  0  0  0
 27 28  2  0  0  0
 27 29  1  0  0  0
 29 26  1  0  0  0
 26  1  1  0  0  0
  1  2  2  0  0  0
  2  3  1  0  0  0
  3  4  1  0  0  0
  3  8  1  0  0  0
  4  5  1  0  0  0
  4  6  1  0  0  0
  6  7  1  0  0  0
  6  9  1  0  0  0
  8  9  1  0  0  0
  9 12  1  0  0  0
 12 13  1  0  0  0
 12 14  1  0  0  0
 13 20  2  0  0  0
 14 15  2  0  0  0
 14 19  1  0  0  0
 15 16  1  0  0  0
 16 17  2  0  0  0
 17 18  1  0  0  0
 18 19  2  0  0  0
 18 21  1  0  0  0
 19 20  1  0  0  0
 21 23  1  0  0  0
 23 24  1  0  0  0
 24 25  1  0  0  0
 35 39  1  0  0  0
 37 40  1  0  0  0
 29 30  1  0  0  0
  5 10  1  0  0  0
  7 11  1  0  0  0
 21 22  1  0  0  0
M  END
> <minimizedAffinity>
-8.52590

$$$$
3HVJ_705_A_1


 47 51  0  0  0  0  0  0  0  0999 V2000
  -11.1947   17.3021  -33.0085 C   0  0  0  0  0  0  0  0  0  0  0  0
  -11.2383   18.4188  -33.7513 C   0  0  0  0  0  0  0  0  0  0  0  0
  -12.1237   19.5693  -33.3909 C   0  0  0  0  0  0  0  0  0  0  0  0
  -11.9407   20.6687  -34.4463 C   0  0  0  0  0  0  0  0  0  0  0  0
  -13.0812   21.5387  -34.4092 O   0  0  0  0  0  0  0  0  0  0  0  0
  -10.6241   21.3114  -33.9494 C   0  0  0  0  0  0  0  0  0  0  0  0
  -10.5185   22.6504  -34.3529 O   0  0  0  0  0  0  0  0  0  0  0  0
  -11.6443   20.1298  -32.1680 O   0  0  0  0  0  0  0  0  0  0  0  0
  -10.8419   21.3060  -32.4618 C   0  0  0  0  0  0  0  0  0  0  0  0
  -13.2114   21.8626  -33.5042 H   0  0  0  0  0  0  0  0  0  0  0  0
  -11.2941   23.1436  -34.0431 H   0  0  0  0  0  0  0  0  0  0  0  0
   -9.6478   21.1607  -31.6272 N   0  0  0  0  0  0  0  0  0  0  0  0
   -9.3516   20.1027  -30.7478 C   0  0  0  0  0  0  0  0  0  0  0  0
   -8.6353   22.0953  -31.4155 C   0  0  0  0  0  0  0  0  0  0  0  0
   -8.4811   23.3027  -32.0141 N   0  0  0  0  0  0  0  0  0  0  0  0
   -7.4101   24.0002  -31.6317 C   0  0  0  0  0  0  0  0  0  0  0  0
   -6.5216   23.5689  -30.7140 N   0  0  0  0  0  0  0  0  0  0  0  0
   -6.6918   22.3772  -30.1258 C   0  0  0  0  0  0  0  0  0  0  0  0
   -7.7936   21.5596  -30.4873 C   0  0  0  0  0  0  0  0  0  0  0  0
   -8.2414   20.3365  -30.0934 N   0  0  0  0  0  0  0  0  0  0  0  0
   -5.7083   22.0234  -29.2270 N   0  0  0  0  0  0  0  0  0  0  0  0
   -5.1813   21.2057  -29.3785 H   0  0  0  0  0  0  0  0  0  0  0  0
   -5.4379   22.8544  -28.0443 C   0  0  0  0  0  0  0  0  0  0  0  0
   -6.5810   22.4358  -27.0889 C   0  0  0  0  0  0  0  0  0  0  0  0
   -6.3729   23.1369  -25.7254 C   0  0  0  0  0  0  0  0  0  0  0  0
  -10.3370   16.1275  -33.3685 C   0  0  0  0  0  0  0  0  0  0  0  0
  -10.7552   13.6900  -33.4184 C   0  0  0  0  0  0  0  0  0  0  0  0
   -9.6769   13.5933  -34.0293 O   0  0  0  0  0  0  0  0  0  0  0  0
  -11.1623   14.9339  -33.0781 N   0  0  0  0  0  0  0  0  0  0  0  0
  -12.0294   15.0483  -32.6260 H   0  0  0  0  0  0  0  0  0  0  0  0
  -13.9099   11.8052  -32.7991 C   0  0  0  0  0  0  0  0  0  0  0  0
  -12.9855   12.8093  -33.0992 C   0  0  0  0  0  0  0  0  0  0  0  0
  -13.4516   10.4942  -32.4512 C   0  0  0  0  0  0  0  0  0  0  0  0
  -12.0757   10.2484  -32.4232 C   0  0  0  0  0  0  0  0  0  0  0  0
  -11.5841    9.0021  -32.0563 O   0  0  0  0  0  0  0  0  0  0  0  0
  -11.1714   11.2717  -32.7336 C   0  0  0  0  0  0  0  0  0  0  0  0
   -9.8529   10.9545  -32.7163 O   0  0  0  0  0  0  0  0  0  0  0  0
  -11.6217   12.5462  -33.1006 C   0  0  0  0  0  0  0  0  0  0  0  0
  -12.1772    8.3079  -31.8459 H   0  0  0  0  0  0  0  0  0  0  0  0
   -9.5814   10.0933  -32.4663 H   0  0  0  0  0  0  0  0  0  0  0  0
  -19.3610   13.0202  -33.0735 F   0  0  0  0  0  0  0  0  0  0  0  0
  -18.0462   12.7293  -33.0024 C   0  0  0  0  0  0  0  0  0  0  0  0
  -17.6686   11.3804  -32.9756 C   0  0  0  0  0  0  0  0  0  0  0  0
  -16.2922   11.0322  -32.9149 C   0  0  0  0  0  0  0  0  0  0  0  0
  -17.1294   13.7850  -32.9581 C   0  0  0  0  0  0  0  0  0  0  0  0
  -15.7829   13.4361  -32.8746 C   0  0  0  0  0  0  0  0  0  0  0  0
  -15.3443   12.0724  -32.8486 C   0  0  0  0  0  0  0  0  0  0  0  0
 41 42  1  0  0  0
 42 43  2  0  0  0
 42 45  1  0  0  0
 43 44  1  0  0  0
 44 47  2  0  0  0
 45 46  2  0  0  0
 46 47  1  0  0  0
 47 31  1  0  0  0
 31 32  2  0  0  0
 31 33  1  0  0  0
 32 38  1  0  0  0
 33 34  2  0  0  0
 34 35  1  0  0  0
 34 36  1  0  0  0
 36 37  1  0  0  0
 36 38  2  0  0  0
 38 27  1  0  0  0
 27 28  2  0  0  0
 27 29  1  0  0  0
 29 26  1  0  0  0
 26  1  1  0  0  0
  1  2  2  0  0  0
  2  3  1  0  0  0
  3  4  1  0  0  0
  3  8  1  0  0  0
  4  5  1  0  0  0
  4  6  1  0  0  0
  6  7  1  0  0  0
  6  9  1  0  0  0
  8  9  1  0  0  0
  9 12  1  0  0  0
 12 13  1  0  0  0
 12 14  1  0  0  0
 13 20  2  0  0  0
 14 15  2  0  0  0
 14 19  1  0  0  0
 15 16  1  0  0  0
 16 17  2  0  0  0
 17 18  1  0  0  0
 18 19  2  0  0  0
 18 21  1  0  0  0
 19 20  1  0  0  0
 21 23  1  0  0  0
 23 24  1  0  0  0
 24 25  1  0  0  0
 35 39  1  0  0  0
 37 40  1  0  0  0
 29 30  1  0  0  0
  5 10  1  0  0  0
  7 11  1  0  0  0
 21 22  1  0  0  0
M  END
> <minimizedAffinity>
-8.46631

$$$$
3HVJ_705_A_1


 47 51  0  0  0  0  0  0  0  0999 V2000
  -10.8267   16.8067  -34.4543 C   0  0  0  0  0  0  0  0  0  0  0  0
  -11.0942   18.1132  -34.3059 C   0  0  0  0  0  0  0  0  0  0  0  0
  -11.8416   18.6334  -33.1191 C   0  0  0  0  0  0  0  0  0  0  0  0
  -12.1327   20.1231  -33.3467 C   0  0  0  0  0  0  0  0  0  0  0  0
  -13.2220   20.5153  -32.4990 O   0  0  0  0  0  0  0  0  0  0  0  0
  -10.7645   20.7335  -32.9608 C   0  0  0  0  0  0  0  0  0  0  0  0
  -10.8948   22.0611  -32.5280 O   0  0  0  0  0  0  0  0  0  0  0  0
  -10.9687   18.5826  -31.9901 O   0  0  0  0  0  0  0  0  0  0  0  0
  -10.4042   19.9026  -31.7608 C   0  0  0  0  0  0  0  0  0  0  0  0
  -13.0192   20.2771  -31.5808 H   0  0  0  0  0  0  0  0  0  0  0  0
  -11.5227   22.1004  -31.7897 H   0  0  0  0  0  0  0  0  0  0  0  0
   -8.9773   19.6640  -31.5359 N   0  0  0  0  0  0  0  0  0  0  0  0
   -8.1078   18.9035  -32.3397 C   0  0  0  0  0  0  0  0  0  0  0  0
   -8.2200   20.0088  -30.4174 C   0  0  0  0  0  0  0  0  0  0  0  0
   -8.6135   20.7296  -29.3379 N   0  0  0  0  0  0  0  0  0  0  0  0
   -7.6790   20.9242  -28.4059 C   0  0  0  0  0  0  0  0  0  0  0  0
   -6.4201   20.4497  -28.4945 N   0  0  0  0  0  0  0  0  0  0  0  0
   -6.0487   19.7327  -29.5635 C   0  0  0  0  0  0  0  0  0  0  0  0
   -6.9734   19.4943  -30.6129 C   0  0  0  0  0  0  0  0  0  0  0  0
   -6.9181   18.8266  -31.7974 N   0  0  0  0  0  0  0  0  0  0  0  0
   -4.7320   19.3243  -29.5644 N   0  0  0  0  0  0  0  0  0  0  0  0
   -4.4867   18.4718  -29.9915 H   0  0  0  0  0  0  0  0  0  0  0  0
   -3.6899   20.1484  -28.9340 C   0  0  0  0  0  0  0  0  0  0  0  0
   -3.1256   20.9331  -30.1427 C   0  0  0  0  0  0  0  0  0  0  0  0
   -3.0860   19.9943  -31.3719 C   0  0  0  0  0  0  0  0  0  0  0  0
  -10.1054   16.2622  -35.6495 C   0  0  0  0  0  0  0  0  0  0  0  0
   -9.9440   13.8561  -35.0986 C   0  0  0  0  0  0  0  0  0  0  0  0
  -11.1389   13.7765  -35.4315 O   0  0  0  0  0  0  0  0  0  0  0  0
   -9.3670   15.0778  -35.1575 N   0  0  0  0  0  0  0  0  0  0  0  0
   -8.4324   15.1818  -34.8659 H   0  0  0  0  0  0  0  0  0  0  0  0
   -7.0797   11.4879  -34.8234 C   0  0  0  0  0  0  0  0  0  0  0  0
   -7.9160   12.5414  -35.2023 C   0  0  0  0  0  0  0  0  0  0  0  0
   -7.5141   10.5543  -33.8287 C   0  0  0  0  0  0  0  0  0  0  0  0
   -8.7767   10.7239  -33.2532 C   0  0  0  0  0  0  0  0  0  0  0  0
   -9.2547    9.8224  -32.3107 O   0  0  0  0  0  0  0  0  0  0  0  0
   -9.5924   11.7917  -33.6477 C   0  0  0  0  0  0  0  0  0  0  0  0
  -10.7916   11.9130  -33.0260 O   0  0  0  0  0  0  0  0  0  0  0  0
   -9.1552   12.7203  -34.6009 C   0  0  0  0  0  0  0  0  0  0  0  0
   -8.7202    9.1031  -32.0371 H   0  0  0  0  0  0  0  0  0  0  0  0
  -11.0574   11.2760  -32.3923 H   0  0  0  0  0  0  0  0  0  0  0  0
   -2.0828   11.0025  -37.2852 F   0  0  0  0  0  0  0  0  0  0  0  0
   -3.2893   11.1150  -36.6938 C   0  0  0  0  0  0  0  0  0  0  0  0
   -3.3511   11.0266  -35.2969 C   0  0  0  0  0  0  0  0  0  0  0  0
   -4.6020   11.1538  -34.6347 C   0  0  0  0  0  0  0  0  0  0  0  0
   -4.4141   11.3123  -37.5018 C   0  0  0  0  0  0  0  0  0  0  0  0
   -5.6401   11.4123  -36.8473 C   0  0  0  0  0  0  0  0  0  0  0  0
   -5.7569   11.3331  -35.4214 C   0  0  0  0  0  0  0  0  0  0  0  0
 41 42  1  0  0  0
 42 43  2  0  0  0
 42 45  1  0  0  0
 43 44  1  0  0  0
 44 47  2  0  0  0
 45 46  2  0  0  0
 46 47  1  0  0  0
 47 31  1  0  0  0
 31 32  2  0  0  0
 31 33  1  0  0  0
 32 38  1  0  0  0
 33 34  2  0  0  0
 34 35  1  0  0  0
 34 36  1  0  0  0
 36 37  1  0  0  0
 36 38  2  0  0  0
 38 27  1  0  0  0
 27 28  2  0  0  0
 27 29  1  0  0  0
 29 26  1  0  0  0
 26  1  1  0  0  0
  1  2  2  0  0  0
  2  3  1  0  0  0
  3  4  1  0  0  0
  3  8  1  0  0  0
  4  5  1  0  0  0
  4  6  1  0  0  0
  6  7  1  0  0  0
  6  9  1  0  0  0
  8  9  1  0  0  0
  9 12  1  0  0  0
 12 13  1  0  0  0
 12 14  1  0  0  0
 13 20  2  0  0  0
 14 15  2  0  0  0
 14 19  1  0  0  0
 15 16  1  0  0  0
 16 17  2  0  0  0
 17 18  1  0  0  0
 18 19  2  0  0  0
 18 21  1  0  0  0
 19 20  1  0  0  0
 21 23  1  0  0  0
 23 24  1  0  0  0
 24 25  1  0  0  0
 35 39  1  0  0  0
 37 40  1  0  0  0
 29 30  1  0  0  0
  5 10  1  0  0  0
  7 11  1  0  0  0
 21 22  1  0  0  0
M  END
> <minimizedAffinity>
-8.46349

$$$$
3HVJ_705_A_1


 47 51  0  0  0  0  0  0  0  0999 V2000
  -10.1136   16.9087  -32.9869 C   0  0  0  0  0  0  0  0  0  0  0  0
  -10.6684   18.0980  -32.7072 C   0  0  0  0  0  0  0  0  0  0  0  0
   -9.9608   19.1200  -31.8751 C   0  0  0  0  0  0  0  0  0  0  0  0
  -10.2731   20.5094  -32.4477 C   0  0  0  0  0  0  0  0  0  0  0  0
  -10.0273   21.4931  -31.4323 O   0  0  0  0  0  0  0  0  0  0  0  0
   -9.2818   20.5477  -33.6347 C   0  0  0  0  0  0  0  0  0  0  0  0
   -8.9381   21.8632  -33.9785 O   0  0  0  0  0  0  0  0  0  0  0  0
   -8.5555   18.9399  -32.0543 O   0  0  0  0  0  0  0  0  0  0  0  0
   -8.0667   19.9118  -33.0185 C   0  0  0  0  0  0  0  0  0  0  0  0
   -9.1251   21.3879  -31.0920 H   0  0  0  0  0  0  0  0  0  0  0  0
   -8.5788   22.3174  -33.2003 H   0  0  0  0  0  0  0  0  0  0  0  0
   -7.2043   19.1433  -33.9182 N   0  0  0  0  0  0  0  0  0  0  0  0
   -7.5887   18.4745  -35.0952 C   0  0  0  0  0  0  0  0  0  0  0  0
   -5.8695   18.7899  -33.7261 C   0  0  0  0  0  0  0  0  0  0  0  0
   -5.0482   19.1657  -32.7142 N   0  0  0  0  0  0  0  0  0  0  0  0
   -3.8040   18.6882  -32.7773 C   0  0  0  0  0  0  0  0  0  0  0  0
   -3.3582   17.8824  -33.7621 N   0  0  0  0  0  0  0  0  0  0  0  0
   -4.1838   17.5138  -34.7507 C   0  0  0  0  0  0  0  0  0  0  0  0
   -5.5196   17.9916  -34.7736 C   0  0  0  0  0  0  0  0  0  0  0  0
   -6.5804   17.8135  -35.6070 N   0  0  0  0  0  0  0  0  0  0  0  0
   -3.6151   16.7149  -35.7196 N   0  0  0  0  0  0  0  0  0  0  0  0
   -2.9650   17.1015  -36.3498 H   0  0  0  0  0  0  0  0  0  0  0  0
   -3.9691   15.2912  -35.8217 C   0  0  0  0  0  0  0  0  0  0  0  0
   -3.1360   14.6696  -34.6753 C   0  0  0  0  0  0  0  0  0  0  0  0
   -1.7714   14.2115  -35.2427 C   0  0  0  0  0  0  0  0  0  0  0  0
  -10.8177   15.8605  -33.7935 C   0  0  0  0  0  0  0  0  0  0  0  0
  -10.4851   13.4124  -33.6715 C   0  0  0  0  0  0  0  0  0  0  0  0
  -11.7246   13.3199  -33.6605 O   0  0  0  0  0  0  0  0  0  0  0  0
   -9.9593   14.6578  -33.7107 N   0  0  0  0  0  0  0  0  0  0  0  0
   -8.9813   14.7670  -33.6835 H   0  0  0  0  0  0  0  0  0  0  0  0
   -7.5131   11.2890  -34.4108 C   0  0  0  0  0  0  0  0  0  0  0  0
   -8.4449   12.3301  -34.3916 C   0  0  0  0  0  0  0  0  0  0  0  0
   -7.7398   10.1139  -33.6250 C   0  0  0  0  0  0  0  0  0  0  0  0
   -8.8990   10.0384  -32.8473 C   0  0  0  0  0  0  0  0  0  0  0  0
   -9.1785    8.9032  -32.0972 O   0  0  0  0  0  0  0  0  0  0  0  0
   -9.8137   11.0988  -32.8425 C   0  0  0  0  0  0  0  0  0  0  0  0
  -10.9008   10.9708  -32.0418 O   0  0  0  0  0  0  0  0  0  0  0  0
   -9.5772   12.2594  -33.5903 C   0  0  0  0  0  0  0  0  0  0  0  0
   -8.5758    8.1857  -32.0908 H   0  0  0  0  0  0  0  0  0  0  0  0
  -11.0325   10.1822  -31.5533 H   0  0  0  0  0  0  0  0  0  0  0  0
   -2.9581   11.8226  -37.6097 F   0  0  0  0  0  0  0  0  0  0  0  0
   -4.0584   11.6902  -36.8416 C   0  0  0  0  0  0  0  0  0  0  0  0
   -3.9016   11.1838  -35.5447 C   0  0  0  0  0  0  0  0  0  0  0  0
   -5.0348   11.0420  -34.6989 C   0  0  0  0  0  0  0  0  0  0  0  0
   -5.2961   12.0624  -37.3768 C   0  0  0  0  0  0  0  0  0  0  0  0
   -6.4058   11.8981  -36.5502 C   0  0  0  0  0  0  0  0  0  0  0  0
   -6.2988   11.3891  -35.2151 C   0  0  0  0  0  0  0  0  0  0  0  0
 41 42  1  0  0  0
 42 43  2  0  0  0
 42 45  1  0  0  0
 43 44  1  0  0  0
 44 47  2  0  0  0
 45 46  2  0  0  0
 46 47  1  0  0  0
 47 31  1  0  0  0
 31 32  2  0  0  0
 31 33  1  0  0  0
 32 38  1  0  0  0
 33 34  2  0  0  0
 34 35  1  0  0  0
 34 36  1  0  0  0
 36 37  1  0  0  0
 36 38  2  0  0  0
 38 27  1  0  0  0
 27 28  2  0  0  0
 27 29  1  0  0  0
 29 26  1  0  0  0
 26  1  1  0  0  0
  1  2  2  0  0  0
  2  3  1  0  0  0
  3  4  1  0  0  0
  3  8  1  0  0  0
  4  5  1  0  0  0
  4  6  1  0  0  0
  6  7  1  0  0  0
  6  9  1  0  0  0
  8  9  1  0  0  0
  9 12  1  0  0  0
 12 13  1  0  0  0
 12 14  1  0  0  0
 13 20  2  0  0  0
 14 15  2  0  0  0
 14 19  1  0  0  0
 15 16  1  0  0  0
 16 17  2  0  0  0
 17 18  1  0  0  0
 18 19  2  0  0  0
 18 21  1  0  0  0
 19 20  1  0  0  0
 21 23  1  0  0  0
 23 24  1  0  0  0
 24 25  1  0  0  0
 35 39  1  0  0  0
 37 40  1  0  0  0
 29 30  1  0  0  0
  5 10  1  0  0  0
  7 11  1  0  0  0
 21 22  1  0  0  0
M  END
> <minimizedAffinity>
-8.45489

$$$$
3HVJ_705_A_1


 47 51  0  0  0  0  0  0  0  0999 V2000
   -4.7499   11.2340  -36.2017 C   0  0  0  0  0  0  0  0  0  0  0  0
   -5.6389   11.7643  -37.0555 C   0  0  0  0  0  0  0  0  0  0  0  0
   -5.2133   12.3946  -38.3436 C   0  0  0  0  0  0  0  0  0  0  0  0
   -5.0134   13.8973  -38.1031 C   0  0  0  0  0  0  0  0  0  0  0  0
   -4.1710   14.4226  -39.1392 O   0  0  0  0  0  0  0  0  0  0  0  0
   -6.4812   14.3830  -38.1586 C   0  0  0  0  0  0  0  0  0  0  0  0
   -6.5654   15.7307  -38.5375 O   0  0  0  0  0  0  0  0  0  0  0  0
   -6.3004   12.2962  -39.2643 O   0  0  0  0  0  0  0  0  0  0  0  0
   -7.0158   13.5612  -39.2985 C   0  0  0  0  0  0  0  0  0  0  0  0
   -4.5444   14.1964  -40.0053 H   0  0  0  0  0  0  0  0  0  0  0  0
   -6.1168   15.8560  -39.3883 H   0  0  0  0  0  0  0  0  0  0  0  0
   -8.4308   13.1915  -39.2299 N   0  0  0  0  0  0  0  0  0  0  0  0
   -8.9621   11.9218  -38.9364 C   0  0  0  0  0  0  0  0  0  0  0  0
   -9.5341   13.9679  -39.5811 C   0  0  0  0  0  0  0  0  0  0  0  0
   -9.5457   15.2686  -39.9658 N   0  0  0  0  0  0  0  0  0  0  0  0
  -10.7492   15.7758  -40.2383 C   0  0  0  0  0  0  0  0  0  0  0  0
  -11.8970   15.0737  -40.1515 N   0  0  0  0  0  0  0  0  0  0  0  0
  -11.8683   13.7875  -39.7775 C   0  0  0  0  0  0  0  0  0  0  0  0
  -10.6326   13.1724  -39.4494 C   0  0  0  0  0  0  0  0  0  0  0  0
  -10.2671   11.9249  -39.0470 N   0  0  0  0  0  0  0  0  0  0  0  0
  -13.1010   13.1760  -39.6930 N   0  0  0  0  0  0  0  0  0  0  0  0
  -13.4082   12.5958  -40.4267 H   0  0  0  0  0  0  0  0  0  0  0  0
  -13.9618   13.3811  -38.5186 C   0  0  0  0  0  0  0  0  0  0  0  0
  -15.3670   13.4685  -39.1611 C   0  0  0  0  0  0  0  0  0  0  0  0
  -15.6039   14.9185  -39.6461 C   0  0  0  0  0  0  0  0  0  0  0  0
   -5.1531   10.6246  -34.8936 C   0  0  0  0  0  0  0  0  0  0  0  0
   -7.3086   10.5586  -33.6819 C   0  0  0  0  0  0  0  0  0  0  0  0
   -6.8351    9.6024  -33.0442 O   0  0  0  0  0  0  0  0  0  0  0  0
   -6.5306   11.1045  -34.6440 N   0  0  0  0  0  0  0  0  0  0  0  0
   -6.8896   11.8394  -35.1919 H   0  0  0  0  0  0  0  0  0  0  0  0
  -10.1522   12.9605  -33.8617 C   0  0  0  0  0  0  0  0  0  0  0  0
   -8.9025   12.3506  -33.9984 C   0  0  0  0  0  0  0  0  0  0  0  0
  -11.1992   12.2907  -33.1510 C   0  0  0  0  0  0  0  0  0  0  0  0
  -10.9427   11.0281  -32.6087 C   0  0  0  0  0  0  0  0  0  0  0  0
  -11.9165   10.3565  -31.8806 O   0  0  0  0  0  0  0  0  0  0  0  0
   -9.6825   10.4375  -32.7652 C   0  0  0  0  0  0  0  0  0  0  0  0
   -9.5134    9.1987  -32.2397 O   0  0  0  0  0  0  0  0  0  0  0  0
   -8.6677   11.0819  -33.4842 C   0  0  0  0  0  0  0  0  0  0  0  0
  -12.7643   10.7393  -31.7675 H   0  0  0  0  0  0  0  0  0  0  0  0
  -10.2106    8.7927  -31.7633 H   0  0  0  0  0  0  0  0  0  0  0  0
  -11.2515   17.8892  -36.2628 F   0  0  0  0  0  0  0  0  0  0  0  0
  -10.9819   16.7003  -35.6866 C   0  0  0  0  0  0  0  0  0  0  0  0
  -10.6861   16.6817  -34.3173 C   0  0  0  0  0  0  0  0  0  0  0  0
  -10.4100   15.4471  -33.6700 C   0  0  0  0  0  0  0  0  0  0  0  0
  -11.0100   15.5501  -36.4825 C   0  0  0  0  0  0  0  0  0  0  0  0
  -10.7149   14.3462  -35.8459 C   0  0  0  0  0  0  0  0  0  0  0  0
  -10.4105   14.2724  -34.4478 C   0  0  0  0  0  0  0  0  0  0  0  0
 41 42  1  0  0  0
 42 43  2  0  0  0
 42 45  1  0  0  0
 43 44  1  0  0  0
 44 47  2  0  0  0
 45 46  2  0  0  0
 46 47  1  0  0  0
 47 31  1  0  0  0
 31 32  2  0  0  0
 31 33  1  0  0  0
 32 38  1  0  0  0
 33 34  2  0  0  0
 34 35  1  0  0  0
 34 36  1  0  0  0
 36 37  1  0  0  0
 36 38  2  0  0  0
 38 27  1  0  0  0
 27 28  2  0  0  0
 27 29  1  0  0  0
 29 26  1  0  0  0
 26  1  1  0  0  0
  1  2  2  0  0  0
  2  3  1  0  0  0
  3  4  1  0  0  0
  3  8  1  0  0  0
  4  5  1  0  0  0
  4  6  1  0  0  0
  6  7  1  0  0  0
  6  9  1  0  0  0
  8  9  1  0  0  0
  9 12  1  0  0  0
 12 13  1  0  0  0
 12 14  1  0  0  0
 13 20  2  0  0  0
 14 15  2  0  0  0
 14 19  1  0  0  0
 15 16  1  0  0  0
 16 17  2  0  0  0
 17 18  1  0  0  0
 18 19  2  0  0  0
 18 21  1  0  0  0
 19 20  1  0  0  0
 21 23  1  0  0  0
 23 24  1  0  0  0
 24 25  1  0  0  0
 35 39  1  0  0  0
 37 40  1  0  0  0
 29 30  1  0  0  0
  5 10  1  0  0  0
  7 11  1  0  0  0
 21 22  1  0  0  0
M  END
> <minimizedAffinity>
-8.37915

$$$$
