5MWH_UWX_A_801


 35 38  0  0  0  0  0  0  0  0999 V2000
   20.6658   -2.7090   11.9191 C   0  0  0  0  0  0  0  0  0  0  0  0
   17.8689    0.5401    8.1819 C   0  0  0  0  0  0  0  0  0  0  0  0
   21.9362   -1.7273    9.5956 C   0  0  0  0  0  0  0  0  0  0  0  0
   20.5464   -0.1424    7.7884 C   0  0  0  0  0  0  0  0  0  0  0  0
   22.5752   -1.2353    8.4578 C   0  0  0  0  0  0  0  0  0  0  0  0
   21.8766   -0.4515    7.5447 C   0  0  0  0  0  0  0  0  0  0  0  0
   18.6517   -1.5501   11.1434 C   0  0  0  0  0  0  0  0  0  0  0  0
   17.9714   -0.7533   10.2291 C   0  0  0  0  0  0  0  0  0  0  0  0
   20.5935   -1.4099    9.8374 C   0  0  0  0  0  0  0  0  0  0  0  0
   19.9024   -0.6167    8.9273 C   0  0  0  0  0  0  0  0  0  0  0  0
   19.9476   -1.8611   10.9354 N   0  0  0  0  0  0  0  0  0  0  0  0
   18.6085   -0.3015    9.1443 N   0  0  0  0  0  0  0  0  0  0  0  0
   18.0676   -1.9677   12.1464 O   0  0  0  0  0  0  0  0  0  0  0  0
   16.7824   -0.4503   10.3874 O   0  0  0  0  0  0  0  0  0  0  0  0
   23.2252   -0.0829    4.0560 C   0  0  0  0  0  0  0  0  0  0  0  0
   23.6983    1.8381    5.2056 C   0  0  0  0  0  0  0  0  0  0  0  0
   22.3591   -0.6861    5.1664 C   0  0  0  0  0  0  0  0  0  0  0  0
   22.8395    1.4815    6.4246 C   0  0  0  0  0  0  0  0  0  0  0  0
   22.4386    0.0633    6.4292 N   0  0  0  0  0  0  0  0  0  0  0  0
   23.0728    1.3459    4.0276 O   0  0  0  0  0  0  0  0  0  0  0  0
   23.8452   -1.4944    8.1252 N   0  0  0  0  0  0  0  0  0  0  0  0
   24.0320   -2.0612    7.3423 H   0  0  0  0  0  0  0  0  0  0  0  0
   24.9731    0.6419    9.0183 O   0  0  0  0  0  0  0  0  0  0  0  0
   26.4717   -1.2568    8.4131 O   0  0  0  0  0  0  0  0  0  0  0  0
   25.1113   -0.8811    9.0038 S   0  0  0  0  0  0  0  0  0  0  0  0
   24.7647   -1.0491   12.9551 C   0  0  0  0  0  0  0  0  0  0  0  0
   24.9714   -3.3112   12.1536 C   0  0  0  0  0  0  0  0  0  0  0  0
   24.8574   -0.5701   11.6557 C   0  0  0  0  0  0  0  0  0  0  0  0
   25.0516   -2.8310   10.8487 C   0  0  0  0  0  0  0  0  0  0  0  0
   24.8213   -2.4172   13.2133 C   0  0  0  0  0  0  0  0  0  0  0  0
   24.9997   -1.4669   10.6018 C   0  0  0  0  0  0  0  0  0  0  0  0
   24.7511   -2.8922   14.5299 C   0  0  0  0  0  0  0  0  0  0  0  0
   22.3802   -2.9748   15.3305 C   0  0  0  0  0  0  0  0  0  0  0  0
   23.9017   -4.9037   15.7366 C   0  0  0  0  0  0  0  0  0  0  0  0
   23.5363   -3.7938   14.7502 C   0  0  0  0  0  0  0  0  0  0  0  0
 15 20  1  0  0  0
 15 17  1  0  0  0
 20 16  1  0  0  0
 17 19  1  0  0  0
 16 18  1  0  0  0
 19 18  1  0  0  0
 19  6  1  0  0  0
  6  4  2  0  0  0
  6  5  1  0  0  0
  4 10  1  0  0  0
  2 12  1  0  0  0
 21  5  1  0  0  0
 21 25  1  0  0  0
  5  3  2  0  0  0
 23 25  2  0  0  0
 10 12  1  0  0  0
 10  9  2  0  0  0
 12  8  1  0  0  0
 28 26  2  0  0  0
 28 31  1  0  0  0
 25 31  1  0  0  0
 25 24  2  0  0  0
  3  9  1  0  0  0
  9 11  1  0  0  0
 26 30  1  0  0  0
 31 29  2  0  0  0
  8 14  2  0  0  0
  8  7  1  0  0  0
 11  7  1  0  0  0
 11  1  1  0  0  0
 33 35  1  0  0  0
  7 13  2  0  0  0
 30 32  1  0  0  0
 30 27  2  0  0  0
 29 27  1  0  0  0
 32 35  1  0  0  0
 35 34  1  0  0  0
 21 22  1  0  0  0
M  END
> <minimizedAffinity>
-8.22871

$$$$
5MWH_UWX_A_801


 35 38  0  0  0  0  0  0  0  0999 V2000
   20.9867   -2.7258   11.8926 C   0  0  0  0  0  0  0  0  0  0  0  0
   18.0532    0.5491    8.2849 C   0  0  0  0  0  0  0  0  0  0  0  0
   22.1600   -1.7542    9.5145 C   0  0  0  0  0  0  0  0  0  0  0  0
   20.7043   -0.1565    7.7715 C   0  0  0  0  0  0  0  0  0  0  0  0
   22.7516   -1.2673    8.3492 C   0  0  0  0  0  0  0  0  0  0  0  0
   22.0196   -0.4771    7.4684 C   0  0  0  0  0  0  0  0  0  0  0  0
   18.9500   -1.5490   11.2082 C   0  0  0  0  0  0  0  0  0  0  0  0
   18.2363   -0.7460   10.3253 C   0  0  0  0  0  0  0  0  0  0  0  0
   20.8323   -1.4252    9.8164 C   0  0  0  0  0  0  0  0  0  0  0  0
   20.1080   -0.6257    8.9381 C   0  0  0  0  0  0  0  0  0  0  0  0
   20.2324   -1.8713   10.9422 N   0  0  0  0  0  0  0  0  0  0  0  0
   18.8279   -0.2994    9.2131 N   0  0  0  0  0  0  0  0  0  0  0  0
   18.4079   -1.9620   12.2364 O   0  0  0  0  0  0  0  0  0  0  0  0
   17.0583   -0.4327   10.5369 O   0  0  0  0  0  0  0  0  0  0  0  0
   23.2003   -0.1143    3.9187 C   0  0  0  0  0  0  0  0  0  0  0  0
   23.7670    1.7907    5.0525 C   0  0  0  0  0  0  0  0  0  0  0  0
   22.3787   -0.7072    5.0679 C   0  0  0  0  0  0  0  0  0  0  0  0
   22.9630    1.4435    6.3110 C   0  0  0  0  0  0  0  0  0  0  0  0
   22.5354    0.0332    6.3288 N   0  0  0  0  0  0  0  0  0  0  0  0
   23.0744    1.3172    3.9048 O   0  0  0  0  0  0  0  0  0  0  0  0
   24.0031   -1.5373    7.9599 N   0  0  0  0  0  0  0  0  0  0  0  0
   24.1816   -1.7289    7.0108 H   0  0  0  0  0  0  0  0  0  0  0  0
   26.5470   -1.8100    8.2560 O   0  0  0  0  0  0  0  0  0  0  0  0
   25.0997   -2.6419   10.1082 O   0  0  0  0  0  0  0  0  0  0  0  0
   25.2599   -1.5563    9.0420 S   0  0  0  0  0  0  0  0  0  0  0  0
   25.5868    2.3572    9.6237 C   0  0  0  0  0  0  0  0  0  0  0  0
   25.3704    1.3231   11.7884 C   0  0  0  0  0  0  0  0  0  0  0  0
   25.5107    1.1138    9.0115 C   0  0  0  0  0  0  0  0  0  0  0  0
   25.2814    0.0768   11.1732 C   0  0  0  0  0  0  0  0  0  0  0  0
   25.5181    2.4712   11.0107 C   0  0  0  0  0  0  0  0  0  0  0  0
   25.3561   -0.0273    9.7919 C   0  0  0  0  0  0  0  0  0  0  0  0
   25.6195    3.7276   11.6232 C   0  0  0  0  0  0  0  0  0  0  0  0
   24.8951    5.9630   10.7585 C   0  0  0  0  0  0  0  0  0  0  0  0
   23.6197    4.8618   12.5919 C   0  0  0  0  0  0  0  0  0  0  0  0
   24.4164    4.6172   11.3097 C   0  0  0  0  0  0  0  0  0  0  0  0
 15 20  1  0  0  0
 15 17  1  0  0  0
 20 16  1  0  0  0
 17 19  1  0  0  0
 16 18  1  0  0  0
 19 18  1  0  0  0
 19  6  1  0  0  0
  6  4  2  0  0  0
  6  5  1  0  0  0
  4 10  1  0  0  0
  2 12  1  0  0  0
 21  5  1  0  0  0
 21 25  1  0  0  0
  5  3  2  0  0  0
 23 25  2  0  0  0
 10 12  1  0  0  0
 10  9  2  0  0  0
 12  8  1  0  0  0
 28 26  2  0  0  0
 28 31  1  0  0  0
 25 31  1  0  0  0
 25 24  2  0  0  0
  3  9  1  0  0  0
  9 11  1  0  0  0
 26 30  1  0  0  0
 31 29  2  0  0  0
  8 14  2  0  0  0
  8  7  1  0  0  0
 11  7  1  0  0  0
 11  1  1  0  0  0
 33 35  1  0  0  0
  7 13  2  0  0  0
 30 32  1  0  0  0
 30 27  2  0  0  0
 29 27  1  0  0  0
 32 35  1  0  0  0
 35 34  1  0  0  0
 21 22  1  0  0  0
M  END
> <minimizedAffinity>
-8.17045

$$$$
5MWH_UWX_A_801


 35 38  0  0  0  0  0  0  0  0999 V2000
   21.5708   -2.7438   11.3722 C   0  0  0  0  0  0  0  0  0  0  0  0
   18.3062    0.7060    8.2436 C   0  0  0  0  0  0  0  0  0  0  0  0
   22.5291   -1.5997    8.9746 C   0  0  0  0  0  0  0  0  0  0  0  0
   20.9134    0.0817    7.4672 C   0  0  0  0  0  0  0  0  0  0  0  0
   23.0151   -1.0280    7.7990 C   0  0  0  0  0  0  0  0  0  0  0  0
   22.2025   -0.1954    7.0359 C   0  0  0  0  0  0  0  0  0  0  0  0
   19.4698   -1.5611   10.9378 C   0  0  0  0  0  0  0  0  0  0  0  0
   18.6751   -0.7152   10.1719 C   0  0  0  0  0  0  0  0  0  0  0  0
   21.2274   -1.3143    9.4063 C   0  0  0  0  0  0  0  0  0  0  0  0
   20.4226   -0.4724    8.6456 C   0  0  0  0  0  0  0  0  0  0  0  0
   20.7293   -1.8429   10.5459 N   0  0  0  0  0  0  0  0  0  0  0  0
   19.1661   -0.1871    9.0464 N   0  0  0  0  0  0  0  0  0  0  0  0
   19.0206   -2.0493   11.9778 O   0  0  0  0  0  0  0  0  0  0  0  0
   17.5152   -0.4370   10.5004 O   0  0  0  0  0  0  0  0  0  0  0  0
   23.5710    2.3109    4.5922 C   0  0  0  0  0  0  0  0  0  0  0  0
   22.8113    0.5071    3.4070 C   0  0  0  0  0  0  0  0  0  0  0  0
   23.3691    1.6572    5.9630 C   0  0  0  0  0  0  0  0  0  0  0  0
   22.5766   -0.3752    4.6388 C   0  0  0  0  0  0  0  0  0  0  0  0
   22.6149    0.3966    5.8937 N   0  0  0  0  0  0  0  0  0  0  0  0
   23.9557    1.3228    3.6222 O   0  0  0  0  0  0  0  0  0  0  0  0
   24.2328   -1.2503    7.2906 N   0  0  0  0  0  0  0  0  0  0  0  0
   24.3314   -1.3936    6.3215 H   0  0  0  0  0  0  0  0  0  0  0  0
   26.8076   -1.2792    7.3466 O   0  0  0  0  0  0  0  0  0  0  0  0
   25.6255   -2.5321    9.1494 O   0  0  0  0  0  0  0  0  0  0  0  0
   25.5796   -1.2895    8.2579 S   0  0  0  0  0  0  0  0  0  0  0  0
   25.4876    1.1370   11.3988 C   0  0  0  0  0  0  0  0  0  0  0  0
   25.7228    2.5108    9.4342 C   0  0  0  0  0  0  0  0  0  0  0  0
   25.4742   -0.0052   10.6102 C   0  0  0  0  0  0  0  0  0  0  0  0
   25.7220    1.3638    8.6441 C   0  0  0  0  0  0  0  0  0  0  0  0
   25.6110    2.3983   10.8197 C   0  0  0  0  0  0  0  0  0  0  0  0
   25.5935    0.1126    9.2292 C   0  0  0  0  0  0  0  0  0  0  0  0
   25.5998    3.5485   11.6203 C   0  0  0  0  0  0  0  0  0  0  0  0
   25.0978    5.8753   10.8436 C   0  0  0  0  0  0  0  0  0  0  0  0
   23.5298    4.7102   12.3879 C   0  0  0  0  0  0  0  0  0  0  0  0
   24.4910    4.5193   11.2139 C   0  0  0  0  0  0  0  0  0  0  0  0
 15 20  1  0  0  0
 15 17  1  0  0  0
 20 16  1  0  0  0
 17 19  1  0  0  0
 16 18  1  0  0  0
 19 18  1  0  0  0
 19  6  1  0  0  0
  6  4  2  0  0  0
  6  5  1  0  0  0
  4 10  1  0  0  0
  2 12  1  0  0  0
 21  5  1  0  0  0
 21 25  1  0  0  0
  5  3  2  0  0  0
 23 25  2  0  0  0
 10 12  1  0  0  0
 10  9  2  0  0  0
 12  8  1  0  0  0
 28 26  2  0  0  0
 28 31  1  0  0  0
 25 31  1  0  0  0
 25 24  2  0  0  0
  3  9  1  0  0  0
  9 11  1  0  0  0
 26 30  1  0  0  0
 31 29  2  0  0  0
  8 14  2  0  0  0
  8  7  1  0  0  0
 11  7  1  0  0  0
 11  1  1  0  0  0
 33 35  1  0  0  0
  7 13  2  0  0  0
 30 32  1  0  0  0
 30 27  2  0  0  0
 29 27  1  0  0  0
 32 35  1  0  0  0
 35 34  1  0  0  0
 21 22  1  0  0  0
M  END
> <minimizedAffinity>
-7.58876

$$$$
5MWH_UWX_A_801


 35 38  0  0  0  0  0  0  0  0999 V2000
   25.3266    3.4407    9.6777 C   0  0  0  0  0  0  0  0  0  0  0  0
   25.5049    4.6419    4.1215 C   0  0  0  0  0  0  0  0  0  0  0  0
   24.3983    1.5955    7.7517 C   0  0  0  0  0  0  0  0  0  0  0  0
   24.4980    2.2083    5.0453 C   0  0  0  0  0  0  0  0  0  0  0  0
   23.9507    0.6729    6.8065 C   0  0  0  0  0  0  0  0  0  0  0  0
   23.9881    0.9835    5.4507 C   0  0  0  0  0  0  0  0  0  0  0  0
   25.8512    4.9274    7.8027 C   0  0  0  0  0  0  0  0  0  0  0  0
   25.8958    5.2170    6.4433 C   0  0  0  0  0  0  0  0  0  0  0  0
   24.9144    2.8297    7.3362 C   0  0  0  0  0  0  0  0  0  0  0  0
   24.9601    3.1312    5.9789 C   0  0  0  0  0  0  0  0  0  0  0  0
   25.3665    3.7417    8.2251 N   0  0  0  0  0  0  0  0  0  0  0  0
   25.4536    4.3155    5.5611 N   0  0  0  0  0  0  0  0  0  0  0  0
   26.2596    5.7564    8.6198 O   0  0  0  0  0  0  0  0  0  0  0  0
   26.3320    6.2951    6.0212 O   0  0  0  0  0  0  0  0  0  0  0  0
   21.8735   -0.7908    2.9000 C   0  0  0  0  0  0  0  0  0  0  0  0
   23.8752   -1.8892    3.0492 C   0  0  0  0  0  0  0  0  0  0  0  0
   22.2978    0.3712    3.8038 C   0  0  0  0  0  0  0  0  0  0  0  0
   24.5490   -0.8248    3.9230 C   0  0  0  0  0  0  0  0  0  0  0  0
   23.5789    0.1319    4.4850 N   0  0  0  0  0  0  0  0  0  0  0  0
   22.9941   -1.2565    2.1302 O   0  0  0  0  0  0  0  0  0  0  0  0
   23.4241   -0.5222    7.0984 N   0  0  0  0  0  0  0  0  0  0  0  0
   24.0081   -1.3145    7.1163 H   0  0  0  0  0  0  0  0  0  0  0  0
   21.2219   -1.6580    6.3956 O   0  0  0  0  0  0  0  0  0  0  0  0
   21.0502    0.6304    7.3708 O   0  0  0  0  0  0  0  0  0  0  0  0
   21.8084   -0.6971    7.4306 S   0  0  0  0  0  0  0  0  0  0  0  0
   20.2754   -1.9052   10.8877 C   0  0  0  0  0  0  0  0  0  0  0  0
   22.6048   -2.5185   10.8795 C   0  0  0  0  0  0  0  0  0  0  0  0
   20.4083   -1.3461    9.6243 C   0  0  0  0  0  0  0  0  0  0  0  0
   22.7349   -1.9687    9.6065 C   0  0  0  0  0  0  0  0  0  0  0  0
   21.3677   -2.4927   11.5227 C   0  0  0  0  0  0  0  0  0  0  0  0
   21.6430   -1.3813    8.9843 C   0  0  0  0  0  0  0  0  0  0  0  0
   21.2318   -3.0339   12.8082 C   0  0  0  0  0  0  0  0  0  0  0  0
   22.5424   -3.4833   14.8938 C   0  0  0  0  0  0  0  0  0  0  0  0
   21.7251   -1.1823   14.4057 C   0  0  0  0  0  0  0  0  0  0  0  0
   22.2669   -2.4686   13.7809 C   0  0  0  0  0  0  0  0  0  0  0  0
 15 20  1  0  0  0
 15 17  1  0  0  0
 20 16  1  0  0  0
 17 19  1  0  0  0
 16 18  1  0  0  0
 19 18  1  0  0  0
 19  6  1  0  0  0
  6  4  2  0  0  0
  6  5  1  0  0  0
  4 10  1  0  0  0
  2 12  1  0  0  0
 21  5  1  0  0  0
 21 25  1  0  0  0
  5  3  2  0  0  0
 23 25  2  0  0  0
 10 12  1  0  0  0
 10  9  2  0  0  0
 12  8  1  0  0  0
 28 26  2  0  0  0
 28 31  1  0  0  0
 25 31  1  0  0  0
 25 24  2  0  0  0
  3  9  1  0  0  0
  9 11  1  0  0  0
 26 30  1  0  0  0
 31 29  2  0  0  0
  8 14  2  0  0  0
  8  7  1  0  0  0
 11  7  1  0  0  0
 11  1  1  0  0  0
 33 35  1  0  0  0
  7 13  2  0  0  0
 30 32  1  0  0  0
 30 27  2  0  0  0
 29 27  1  0  0  0
 32 35  1  0  0  0
 35 34  1  0  0  0
 21 22  1  0  0  0
M  END
> <minimizedAffinity>
-7.40534

$$$$
5MWH_UWX_A_801


 35 38  0  0  0  0  0  0  0  0999 V2000
   23.8804   -1.4295    6.0735 C   0  0  0  0  0  0  0  0  0  0  0  0
   29.3988   -1.6870    7.4255 C   0  0  0  0  0  0  0  0  0  0  0  0
   24.7226   -1.5523    8.7664 C   0  0  0  0  0  0  0  0  0  0  0  0
   27.4237   -1.6767    9.3975 C   0  0  0  0  0  0  0  0  0  0  0  0
   25.1302   -1.5987   10.0993 C   0  0  0  0  0  0  0  0  0  0  0  0
   26.4828   -1.6740   10.4169 C   0  0  0  0  0  0  0  0  0  0  0  0
   26.2533   -1.5087    5.4694 C   0  0  0  0  0  0  0  0  0  0  0  0
   27.6018   -1.5691    5.8034 C   0  0  0  0  0  0  0  0  0  0  0  0
   25.6774   -1.5530    7.7414 C   0  0  0  0  0  0  0  0  0  0  0  0
   27.0289   -1.6171    8.0643 C   0  0  0  0  0  0  0  0  0  0  0  0
   25.3169   -1.4980    6.4402 N   0  0  0  0  0  0  0  0  0  0  0  0
   27.9621   -1.6191    7.0896 N   0  0  0  0  0  0  0  0  0  0  0  0
   25.9169   -1.4610    4.2836 O   0  0  0  0  0  0  0  0  0  0  0  0
   28.4868   -1.5827    4.9389 O   0  0  0  0  0  0  0  0  0  0  0  0
   27.2951   -2.8304   13.8995 C   0  0  0  0  0  0  0  0  0  0  0  0
   27.9173   -0.6360   13.7180 C   0  0  0  0  0  0  0  0  0  0  0  0
   26.9550   -2.9900   12.4143 C   0  0  0  0  0  0  0  0  0  0  0  0
   27.7040   -0.5597   12.2017 C   0  0  0  0  0  0  0  0  0  0  0  0
   26.9437   -1.7122   11.6863 N   0  0  0  0  0  0  0  0  0  0  0  0
   28.4014   -1.9277   14.0620 O   0  0  0  0  0  0  0  0  0  0  0  0
   24.3009   -1.6220   11.1493 N   0  0  0  0  0  0  0  0  0  0  0  0
   24.3418   -0.8948   11.8117 H   0  0  0  0  0  0  0  0  0  0  0  0
   23.3043   -3.3191   12.8107 O   0  0  0  0  0  0  0  0  0  0  0  0
   23.4682   -4.0353   10.4279 O   0  0  0  0  0  0  0  0  0  0  0  0
   23.2054   -2.8497   11.3586 S   0  0  0  0  0  0  0  0  0  0  0  0
   20.0403   -1.2274    9.5946 C   0  0  0  0  0  0  0  0  0  0  0  0
   19.4172   -1.7364   11.8651 C   0  0  0  0  0  0  0  0  0  0  0  0
   21.3160   -1.7244    9.8232 C   0  0  0  0  0  0  0  0  0  0  0  0
   20.6934   -2.2467   12.0904 C   0  0  0  0  0  0  0  0  0  0  0  0
   19.0853   -1.2289   10.6092 C   0  0  0  0  0  0  0  0  0  0  0  0
   21.6392   -2.2361   11.0757 C   0  0  0  0  0  0  0  0  0  0  0  0
   17.8067   -0.7037   10.3782 C   0  0  0  0  0  0  0  0  0  0  0  0
   17.8487    1.2531    8.8166 C   0  0  0  0  0  0  0  0  0  0  0  0
   16.1997   -0.5810    8.4740 C   0  0  0  0  0  0  0  0  0  0  0  0
   17.6237   -0.2573    8.9275 C   0  0  0  0  0  0  0  0  0  0  0  0
 15 20  1  0  0  0
 15 17  1  0  0  0
 20 16  1  0  0  0
 17 19  1  0  0  0
 16 18  1  0  0  0
 19 18  1  0  0  0
 19  6  1  0  0  0
  6  4  2  0  0  0
  6  5  1  0  0  0
  4 10  1  0  0  0
  2 12  1  0  0  0
 21  5  1  0  0  0
 21 25  1  0  0  0
  5  3  2  0  0  0
 23 25  2  0  0  0
 10 12  1  0  0  0
 10  9  2  0  0  0
 12  8  1  0  0  0
 28 26  2  0  0  0
 28 31  1  0  0  0
 25 31  1  0  0  0
 25 24  2  0  0  0
  3  9  1  0  0  0
  9 11  1  0  0  0
 26 30  1  0  0  0
 31 29  2  0  0  0
  8 14  2  0  0  0
  8  7  1  0  0  0
 11  7  1  0  0  0
 11  1  1  0  0  0
 33 35  1  0  0  0
  7 13  2  0  0  0
 30 32  1  0  0  0
 30 27  2  0  0  0
 29 27  1  0  0  0
 32 35  1  0  0  0
 35 34  1  0  0  0
 21 22  1  0  0  0
M  END
> <minimizedAffinity>
-7.13345

$$$$
5MWH_UWX_A_801


 35 38  0  0  0  0  0  0  0  0999 V2000
   22.1086   -0.4236    2.2504 C   0  0  0  0  0  0  0  0  0  0  0  0
   26.8753    2.4343    3.4577 C   0  0  0  0  0  0  0  0  0  0  0  0
   23.2347   -0.4844    4.8397 C   0  0  0  0  0  0  0  0  0  0  0  0
   25.5626    0.9211    5.4011 C   0  0  0  0  0  0  0  0  0  0  0  0
   23.7763   -0.5088    6.1246 C   0  0  0  0  0  0  0  0  0  0  0  0
   24.9498    0.1846    6.4043 C   0  0  0  0  0  0  0  0  0  0  0  0
   23.9729    1.0358    1.6211 C   0  0  0  0  0  0  0  0  0  0  0  0
   25.1368    1.7355    1.9202 C   0  0  0  0  0  0  0  0  0  0  0  0
   23.8567    0.2629    3.8313 C   0  0  0  0  0  0  0  0  0  0  0  0
   25.0236    0.9635    4.1187 C   0  0  0  0  0  0  0  0  0  0  0  0
   23.3523    0.3167    2.5787 N   0  0  0  0  0  0  0  0  0  0  0  0
   25.6360    1.6881    3.1593 N   0  0  0  0  0  0  0  0  0  0  0  0
   23.5085    1.0782    0.4792 O   0  0  0  0  0  0  0  0  0  0  0  0
   25.7329    2.4032    1.0661 O   0  0  0  0  0  0  0  0  0  0  0  0
   27.0482   -0.6917    9.3967 C   0  0  0  0  0  0  0  0  0  0  0  0
   25.7039    1.0705    9.9651 C   0  0  0  0  0  0  0  0  0  0  0  0
   26.6582   -0.6772    7.9152 C   0  0  0  0  0  0  0  0  0  0  0  0
   25.2034    1.3247    8.5384 C   0  0  0  0  0  0  0  0  0  0  0  0
   25.5205    0.2095    7.6286 N   0  0  0  0  0  0  0  0  0  0  0  0
   27.0602    0.6464    9.9207 O   0  0  0  0  0  0  0  0  0  0  0  0
   23.2724   -1.2043    7.1508 N   0  0  0  0  0  0  0  0  0  0  0  0
   23.8457   -1.8510    7.6222 H   0  0  0  0  0  0  0  0  0  0  0  0
   20.8106   -1.8233    6.7147 O   0  0  0  0  0  0  0  0  0  0  0  0
   21.2592    0.4635    7.6018 O   0  0  0  0  0  0  0  0  0  0  0  0
   21.7024   -1.0002    7.6454 S   0  0  0  0  0  0  0  0  0  0  0  0
   20.2093   -1.9805   11.1909 C   0  0  0  0  0  0  0  0  0  0  0  0
   22.5198   -2.6614   11.1693 C   0  0  0  0  0  0  0  0  0  0  0  0
   20.3312   -1.4924    9.8973 C   0  0  0  0  0  0  0  0  0  0  0  0
   22.6383   -2.1830    9.8668 C   0  0  0  0  0  0  0  0  0  0  0  0
   21.2978   -2.5658   11.8345 C   0  0  0  0  0  0  0  0  0  0  0  0
   21.5506   -1.5971    9.2360 C   0  0  0  0  0  0  0  0  0  0  0  0
   21.1738   -3.0349   13.1492 C   0  0  0  0  0  0  0  0  0  0  0  0
   22.5896   -3.4962   15.1622 C   0  0  0  0  0  0  0  0  0  0  0  0
   21.7822   -1.1847   14.7083 C   0  0  0  0  0  0  0  0  0  0  0  0
   22.2692   -2.4818   14.0611 C   0  0  0  0  0  0  0  0  0  0  0  0
 15 20  1  0  0  0
 15 17  1  0  0  0
 20 16  1  0  0  0
 17 19  1  0  0  0
 16 18  1  0  0  0
 19 18  1  0  0  0
 19  6  1  0  0  0
  6  4  2  0  0  0
  6  5  1  0  0  0
  4 10  1  0  0  0
  2 12  1  0  0  0
 21  5  1  0  0  0
 21 25  1  0  0  0
  5  3  2  0  0  0
 23 25  2  0  0  0
 10 12  1  0  0  0
 10  9  2  0  0  0
 12  8  1  0  0  0
 28 26  2  0  0  0
 28 31  1  0  0  0
 25 31  1  0  0  0
 25 24  2  0  0  0
  3  9  1  0  0  0
  9 11  1  0  0  0
 26 30  1  0  0  0
 31 29  2  0  0  0
  8 14  2  0  0  0
  8  7  1  0  0  0
 11  7  1  0  0  0
 11  1  1  0  0  0
 33 35  1  0  0  0
  7 13  2  0  0  0
 30 32  1  0  0  0
 30 27  2  0  0  0
 29 27  1  0  0  0
 32 35  1  0  0  0
 35 34  1  0  0  0
 21 22  1  0  0  0
M  END
> <minimizedAffinity>
-6.83593

$$$$
5MWH_UWX_A_801


 35 38  0  0  0  0  0  0  0  0999 V2000
   21.6421   -1.7420    4.4302 C   0  0  0  0  0  0  0  0  0  0  0  0
   25.9292    1.0629    1.9605 C   0  0  0  0  0  0  0  0  0  0  0  0
   24.1652   -1.5307    5.6813 C   0  0  0  0  0  0  0  0  0  0  0  0
   26.2404   -0.1546    4.4526 C   0  0  0  0  0  0  0  0  0  0  0  0
   25.4039   -1.4194    6.3125 C   0  0  0  0  0  0  0  0  0  0  0  0
   26.4486   -0.7411    5.6924 C   0  0  0  0  0  0  0  0  0  0  0  0
   22.5974   -0.4394    2.5884 C   0  0  0  0  0  0  0  0  0  0  0  0
   23.6468    0.2479    1.9884 C   0  0  0  0  0  0  0  0  0  0  0  0
   23.9603   -0.9344    4.4305 C   0  0  0  0  0  0  0  0  0  0  0  0
   25.0045   -0.2477    3.8196 C   0  0  0  0  0  0  0  0  0  0  0  0
   22.7694   -1.0140    3.7965 N   0  0  0  0  0  0  0  0  0  0  0  0
   24.8247    0.3324    2.6147 N   0  0  0  0  0  0  0  0  0  0  0  0
   21.5085   -0.5183    2.0142 O   0  0  0  0  0  0  0  0  0  0  0  0
   23.5246    0.7849    0.8806 O   0  0  0  0  0  0  0  0  0  0  0  0
   29.9458   -1.4090    6.8961 C   0  0  0  0  0  0  0  0  0  0  0  0
   29.3206    0.6600    7.6472 C   0  0  0  0  0  0  0  0  0  0  0  0
   28.7029   -1.6089    6.0230 C   0  0  0  0  0  0  0  0  0  0  0  0
   28.0340    0.7228    6.8157 C   0  0  0  0  0  0  0  0  0  0  0  0
   27.6683   -0.5894    6.2532 N   0  0  0  0  0  0  0  0  0  0  0  0
   30.3260   -0.0231    6.9098 O   0  0  0  0  0  0  0  0  0  0  0  0
   25.7081   -1.9666    7.4951 N   0  0  0  0  0  0  0  0  0  0  0  0
   26.3382   -2.7224    7.5284 H   0  0  0  0  0  0  0  0  0  0  0  0
   25.7165   -0.0626    9.2295 O   0  0  0  0  0  0  0  0  0  0  0  0
   25.2510   -2.3604   10.0785 O   0  0  0  0  0  0  0  0  0  0  0  0
   25.0466   -1.3988    8.9062 S   0  0  0  0  0  0  0  0  0  0  0  0
   21.0977   -1.7721    9.0719 C   0  0  0  0  0  0  0  0  0  0  0  0
   21.5840    0.1065    7.6448 C   0  0  0  0  0  0  0  0  0  0  0  0
   22.4548   -1.9841    9.2714 C   0  0  0  0  0  0  0  0  0  0  0  0
   22.9454   -0.0987    7.8553 C   0  0  0  0  0  0  0  0  0  0  0  0
   20.6535   -0.7302    8.2603 C   0  0  0  0  0  0  0  0  0  0  0  0
   23.3783   -1.1419    8.6608 C   0  0  0  0  0  0  0  0  0  0  0  0
   19.2824   -0.5368    8.0444 C   0  0  0  0  0  0  0  0  0  0  0  0
   17.4859   -0.2205    9.7595 C   0  0  0  0  0  0  0  0  0  0  0  0
   18.1863    1.6872    8.3205 C   0  0  0  0  0  0  0  0  0  0  0  0
   18.6747    0.4373    9.0538 C   0  0  0  0  0  0  0  0  0  0  0  0
 15 20  1  0  0  0
 15 17  1  0  0  0
 20 16  1  0  0  0
 17 19  1  0  0  0
 16 18  1  0  0  0
 19 18  1  0  0  0
 19  6  1  0  0  0
  6  4  2  0  0  0
  6  5  1  0  0  0
  4 10  1  0  0  0
  2 12  1  0  0  0
 21  5  1  0  0  0
 21 25  1  0  0  0
  5  3  2  0  0  0
 23 25  2  0  0  0
 10 12  1  0  0  0
 10  9  2  0  0  0
 12  8  1  0  0  0
 28 26  2  0  0  0
 28 31  1  0  0  0
 25 31  1  0  0  0
 25 24  2  0  0  0
  3  9  1  0  0  0
  9 11  1  0  0  0
 26 30  1  0  0  0
 31 29  2  0  0  0
  8 14  2  0  0  0
  8  7  1  0  0  0
 11  7  1  0  0  0
 11  1  1  0  0  0
 33 35  1  0  0  0
  7 13  2  0  0  0
 30 32  1  0  0  0
 30 27  2  0  0  0
 29 27  1  0  0  0
 32 35  1  0  0  0
 35 34  1  0  0  0
 21 22  1  0  0  0
M  END
> <minimizedAffinity>
-6.69574

$$$$
5MWH_UWX_A_801


 35 38  0  0  0  0  0  0  0  0999 V2000
   17.6845   -0.0938    7.8402 C   0  0  0  0  0  0  0  0  0  0  0  0
   20.5804   -2.2924   12.2135 C   0  0  0  0  0  0  0  0  0  0  0  0
   20.4951   -0.3556    7.7499 C   0  0  0  0  0  0  0  0  0  0  0  0
   21.8832   -1.4332    9.8996 C   0  0  0  0  0  0  0  0  0  0  0  0
   21.8816   -0.4940    7.6913 C   0  0  0  0  0  0  0  0  0  0  0  0
   22.5800   -1.0220    8.7727 C   0  0  0  0  0  0  0  0  0  0  0  0
   17.8017   -1.0669   10.0853 C   0  0  0  0  0  0  0  0  0  0  0  0
   18.5124   -1.6065   11.1519 C   0  0  0  0  0  0  0  0  0  0  0  0
   19.7967   -0.7747    8.8895 C   0  0  0  0  0  0  0  0  0  0  0  0
   20.4983   -1.3123    9.9637 C   0  0  0  0  0  0  0  0  0  0  0  0
   18.4525   -0.6648    8.9745 N   0  0  0  0  0  0  0  0  0  0  0  0
   19.8416   -1.7208   11.0694 N   0  0  0  0  0  0  0  0  0  0  0  0
   16.5748   -0.9611   10.1572 O   0  0  0  0  0  0  0  0  0  0  0  0
   17.9480   -1.9834   12.1863 O   0  0  0  0  0  0  0  0  0  0  0  0
   26.2702   -0.3981    8.4277 C   0  0  0  0  0  0  0  0  0  0  0  0
   25.9690   -2.6103    8.9286 C   0  0  0  0  0  0  0  0  0  0  0  0
   24.7982   -0.0213    8.6238 C   0  0  0  0  0  0  0  0  0  0  0  0
   24.4735   -2.4766    9.2387 C   0  0  0  0  0  0  0  0  0  0  0  0
   23.9204   -1.1912    8.7764 N   0  0  0  0  0  0  0  0  0  0  0  0
   26.6455   -1.4334    9.3510 O   0  0  0  0  0  0  0  0  0  0  0  0
   22.6428   -0.1086    6.6605 N   0  0  0  0  0  0  0  0  0  0  0  0
   23.3702    0.5369    6.8137 H   0  0  0  0  0  0  0  0  0  0  0  0
   22.4704    0.4841    4.1600 O   0  0  0  0  0  0  0  0  0  0  0  0
   21.0236   -1.3730    4.9820 O   0  0  0  0  0  0  0  0  0  0  0  0
   22.3872   -0.6951    5.1302 S   0  0  0  0  0  0  0  0  0  0  0  0
   24.3925   -3.7290    3.5379 C   0  0  0  0  0  0  0  0  0  0  0  0
   25.8699   -2.6227    5.0858 C   0  0  0  0  0  0  0  0  0  0  0  0
   23.3842   -2.8238    3.8385 C   0  0  0  0  0  0  0  0  0  0  0  0
   24.8619   -1.7069    5.3779 C   0  0  0  0  0  0  0  0  0  0  0  0
   25.6376   -3.6364    4.1567 C   0  0  0  0  0  0  0  0  0  0  0  0
   23.6239   -1.8102    4.7607 C   0  0  0  0  0  0  0  0  0  0  0  0
   26.6432   -4.5682    3.8660 C   0  0  0  0  0  0  0  0  0  0  0  0
   29.0395   -4.0974    4.4182 C   0  0  0  0  0  0  0  0  0  0  0  0
   27.8946   -6.0718    5.4141 C   0  0  0  0  0  0  0  0  0  0  0  0
   27.7081   -4.6231    4.9614 C   0  0  0  0  0  0  0  0  0  0  0  0
 15 20  1  0  0  0
 15 17  1  0  0  0
 20 16  1  0  0  0
 17 19  1  0  0  0
 16 18  1  0  0  0
 19 18  1  0  0  0
 19  6  1  0  0  0
  6  4  2  0  0  0
  6  5  1  0  0  0
  4 10  1  0  0  0
  2 12  1  0  0  0
 21  5  1  0  0  0
 21 25  1  0  0  0
  5  3  2  0  0  0
 23 25  2  0  0  0
 10 12  1  0  0  0
 10  9  2  0  0  0
 12  8  1  0  0  0
 28 26  2  0  0  0
 28 31  1  0  0  0
 25 31  1  0  0  0
 25 24  2  0  0  0
  3  9  1  0  0  0
  9 11  1  0  0  0
 26 30  1  0  0  0
 31 29  2  0  0  0
  8 14  2  0  0  0
  8  7  1  0  0  0
 11  7  1  0  0  0
 11  1  1  0  0  0
 33 35  1  0  0  0
  7 13  2  0  0  0
 30 32  1  0  0  0
 30 27  2  0  0  0
 29 27  1  0  0  0
 32 35  1  0  0  0
 35 34  1  0  0  0
 21 22  1  0  0  0
M  END
> <minimizedAffinity>
-6.66095

$$$$
5MWH_UWX_A_801


 35 38  0  0  0  0  0  0  0  0999 V2000
   22.0337   -2.8607   13.3877 C   0  0  0  0  0  0  0  0  0  0  0  0
   27.3466   -3.5703   15.2893 C   0  0  0  0  0  0  0  0  0  0  0  0
   24.2310   -1.6779   12.0652 C   0  0  0  0  0  0  0  0  0  0  0  0
   26.8144   -2.0417   13.0156 C   0  0  0  0  0  0  0  0  0  0  0  0
   25.3116   -1.1016   11.3980 C   0  0  0  0  0  0  0  0  0  0  0  0
   26.6056   -1.2724   11.8802 C   0  0  0  0  0  0  0  0  0  0  0  0
   23.6568   -3.7746   14.9788 C   0  0  0  0  0  0  0  0  0  0  0  0
   24.9573   -3.9483   15.4397 C   0  0  0  0  0  0  0  0  0  0  0  0
   24.4484   -2.4556   13.2098 C   0  0  0  0  0  0  0  0  0  0  0  0
   25.7449   -2.6326   13.6816 C   0  0  0  0  0  0  0  0  0  0  0  0
   23.4249   -3.0370   13.8737 N   0  0  0  0  0  0  0  0  0  0  0  0
   25.9724   -3.3783   14.7830 N   0  0  0  0  0  0  0  0  0  0  0  0
   22.7175   -4.3001   15.5815 O   0  0  0  0  0  0  0  0  0  0  0  0
   25.2060   -4.6164   16.4509 O   0  0  0  0  0  0  0  0  0  0  0  0
   29.3799    1.0642   10.8956 C   0  0  0  0  0  0  0  0  0  0  0  0
   29.4645   -0.7584    9.5149 C   0  0  0  0  0  0  0  0  0  0  0  0
   28.2979    0.4813   11.8103 C   0  0  0  0  0  0  0  0  0  0  0  0
   28.4342   -1.5743   10.3043 C   0  0  0  0  0  0  0  0  0  0  0  0
   27.6952   -0.7493   11.2765 N   0  0  0  0  0  0  0  0  0  0  0  0
   30.2418    0.0188   10.4165 O   0  0  0  0  0  0  0  0  0  0  0  0
   25.2110   -0.3280   10.3108 N   0  0  0  0  0  0  0  0  0  0  0  0
   25.3373    0.6445   10.3982 H   0  0  0  0  0  0  0  0  0  0  0  0
   25.2556   -2.4538    8.8573 O   0  0  0  0  0  0  0  0  0  0  0  0
   25.6559   -0.2840    7.6958 O   0  0  0  0  0  0  0  0  0  0  0  0
   24.8780   -0.9723    8.8191 S   0  0  0  0  0  0  0  0  0  0  0  0
   21.3841    0.1698    7.3193 C   0  0  0  0  0  0  0  0  0  0  0  0
   20.9342   -1.4744    9.0213 C   0  0  0  0  0  0  0  0  0  0  0  0
   22.7469    0.0574    7.5575 C   0  0  0  0  0  0  0  0  0  0  0  0
   22.3024   -1.5963    9.2512 C   0  0  0  0  0  0  0  0  0  0  0  0
   20.4710   -0.5913    8.0464 C   0  0  0  0  0  0  0  0  0  0  0  0
   23.2036   -0.8305    8.5261 C   0  0  0  0  0  0  0  0  0  0  0  0
   19.0952   -0.4551    7.8171 C   0  0  0  0  0  0  0  0  0  0  0  0
   17.0295   -0.2662    9.2194 C   0  0  0  0  0  0  0  0  0  0  0  0
   18.2224    1.7882    8.4726 C   0  0  0  0  0  0  0  0  0  0  0  0
   18.4049    0.3392    8.9260 C   0  0  0  0  0  0  0  0  0  0  0  0
 15 20  1  0  0  0
 15 17  1  0  0  0
 20 16  1  0  0  0
 17 19  1  0  0  0
 16 18  1  0  0  0
 19 18  1  0  0  0
 19  6  1  0  0  0
  6  4  2  0  0  0
  6  5  1  0  0  0
  4 10  1  0  0  0
  2 12  1  0  0  0
 21  5  1  0  0  0
 21 25  1  0  0  0
  5  3  2  0  0  0
 23 25  2  0  0  0
 10 12  1  0  0  0
 10  9  2  0  0  0
 12  8  1  0  0  0
 28 26  2  0  0  0
 28 31  1  0  0  0
 25 31  1  0  0  0
 25 24  2  0  0  0
  3  9  1  0  0  0
  9 11  1  0  0  0
 26 30  1  0  0  0
 31 29  2  0  0  0
  8 14  2  0  0  0
  8  7  1  0  0  0
 11  7  1  0  0  0
 11  1  1  0  0  0
 33 35  1  0  0  0
  7 13  2  0  0  0
 30 32  1  0  0  0
 30 27  2  0  0  0
 29 27  1  0  0  0
 32 35  1  0  0  0
 35 34  1  0  0  0
 21 22  1  0  0  0
M  END
> <minimizedAffinity>
-6.65934

$$$$
5MWH_UWX_A_801


 35 38  0  0  0  0  0  0  0  0999 V2000
   23.1703   -2.4998   11.5302 C   0  0  0  0  0  0  0  0  0  0  0  0
   28.7287   -1.5393   10.8032 C   0  0  0  0  0  0  0  0  0  0  0  0
   24.1049   -0.8006    9.4771 C   0  0  0  0  0  0  0  0  0  0  0  0
   26.8246   -0.3501    9.1449 C   0  0  0  0  0  0  0  0  0  0  0  0
   24.5586    0.0291    8.4520 C   0  0  0  0  0  0  0  0  0  0  0  0
   25.9203    0.2659    8.2921 C   0  0  0  0  0  0  0  0  0  0  0  0
   25.5190   -2.8204   12.1484 C   0  0  0  0  0  0  0  0  0  0  0  0
   26.8775   -2.5856   11.9663 C   0  0  0  0  0  0  0  0  0  0  0  0
   25.0229   -1.4217   10.3336 C   0  0  0  0  0  0  0  0  0  0  0  0
   26.3840   -1.1906   10.1628 C   0  0  0  0  0  0  0  0  0  0  0  0
   24.6177   -2.2398   11.3300 N   0  0  0  0  0  0  0  0  0  0  0  0
   27.2821   -1.7804   10.9790 N   0  0  0  0  0  0  0  0  0  0  0  0
   25.1419   -3.5639   13.0575 O   0  0  0  0  0  0  0  0  0  0  0  0
   27.7312   -3.0998   12.6994 O   0  0  0  0  0  0  0  0  0  0  0  0
   26.9652    3.2725    6.2935 C   0  0  0  0  0  0  0  0  0  0  0  0
   27.3486    1.4086    5.0230 C   0  0  0  0  0  0  0  0  0  0  0  0
   26.5940    2.4911    7.5579 C   0  0  0  0  0  0  0  0  0  0  0  0
   27.0778    0.4134    6.1574 C   0  0  0  0  0  0  0  0  0  0  0  0
   26.4251    1.0506    7.3150 N   0  0  0  0  0  0  0  0  0  0  0  0
   27.9762    2.5689    5.5531 O   0  0  0  0  0  0  0  0  0  0  0  0
   23.7665    0.6831    7.5944 N   0  0  0  0  0  0  0  0  0  0  0  0
   23.8987    1.6490    7.4572 H   0  0  0  0  0  0  0  0  0  0  0  0
   23.0180   -1.5432    6.5375 O   0  0  0  0  0  0  0  0  0  0  0  0
   22.2785    0.5500    5.4020 O   0  0  0  0  0  0  0  0  0  0  0  0
   22.5666   -0.0987    6.7574 S   0  0  0  0  0  0  0  0  0  0  0  0
   19.0294    0.8830    8.2691 C   0  0  0  0  0  0  0  0  0  0  0  0
   19.8114   -1.0552    9.4667 C   0  0  0  0  0  0  0  0  0  0  0  0
   20.1828    0.8831    7.4969 C   0  0  0  0  0  0  0  0  0  0  0  0
   20.9628   -1.0624    8.6832 C   0  0  0  0  0  0  0  0  0  0  0  0
   18.8356   -0.0813    9.2559 C   0  0  0  0  0  0  0  0  0  0  0  0
   21.1494   -0.0951    7.7066 C   0  0  0  0  0  0  0  0  0  0  0  0
   17.6795   -0.0610   10.0478 C   0  0  0  0  0  0  0  0  0  0  0  0
   15.6478   -0.8536    8.8177 C   0  0  0  0  0  0  0  0  0  0  0  0
   16.1598   -1.7454   11.0856 C   0  0  0  0  0  0  0  0  0  0  0  0
   16.7740   -1.2613    9.7714 C   0  0  0  0  0  0  0  0  0  0  0  0
 15 20  1  0  0  0
 15 17  1  0  0  0
 20 16  1  0  0  0
 17 19  1  0  0  0
 16 18  1  0  0  0
 19 18  1  0  0  0
 19  6  1  0  0  0
  6  4  2  0  0  0
  6  5  1  0  0  0
  4 10  1  0  0  0
  2 12  1  0  0  0
 21  5  1  0  0  0
 21 25  1  0  0  0
  5  3  2  0  0  0
 23 25  2  0  0  0
 10 12  1  0  0  0
 10  9  2  0  0  0
 12  8  1  0  0  0
 28 26  2  0  0  0
 28 31  1  0  0  0
 25 31  1  0  0  0
 25 24  2  0  0  0
  3  9  1  0  0  0
  9 11  1  0  0  0
 26 30  1  0  0  0
 31 29  2  0  0  0
  8 14  2  0  0  0
  8  7  1  0  0  0
 11  7  1  0  0  0
 11  1  1  0  0  0
 33 35  1  0  0  0
  7 13  2  0  0  0
 30 32  1  0  0  0
 30 27  2  0  0  0
 29 27  1  0  0  0
 32 35  1  0  0  0
 35 34  1  0  0  0
 21 22  1  0  0  0
M  END
> <minimizedAffinity>
-6.49593

$$$$
