4KNM_E1E_A_302
  RCSB PDB12061713243D
Coordinates from PDB:4KNM:A:302 Model:1 without hydrogens
 23 24  0  0  0  0            999 V2000
   11.0490   -4.4560    9.5910   C 0  0  0  0  0  0  0  0  0  0  0  0
   12.3570   -3.6650    7.6950   C 0  0  0  0  0  0  0  0  0  0  0  0
   13.0170   -4.9180    7.6180   C 0  0  0  0  0  0  0  0  0  0  0  0
   10.5470   -1.9080    8.7600  Cl 0  0  0  0  0  0  0  0  0  0  0  0
   11.3920   -3.4210    8.6820   C 0  0  0  0  0  0  0  0  0  0  0  0
   12.8400   -2.3510    6.5730   S 0  0  0  0  0  0  0  0  0  0  0  0
   13.4660   -1.3080    7.4800   O 0  0  0  0  0  0  0  0  0  0  0  0
   14.2340   -2.9820    5.5590   N 0  0  0  0  0  0  0  0  0  0  0  0
   11.5740   -1.7730    5.6610   O 0  0  0  0  0  0  0  0  0  0  0  0
   11.6930   -5.6720    9.5270   C 0  0  0  0  0  0  0  0  0  0  0  0
   12.6850   -5.9120    8.5320   C 0  0  0  0  0  0  0  0  0  0  0  0
   11.2820   -6.7050   10.5330   C 0  0  0  0  0  0  0  0  0  0  0  0
   11.0530   -6.3360   11.7110   O 0  0  0  0  0  0  0  0  0  0  0  0
   11.1480   -8.1430   10.1050   C 0  0  0  0  0  0  0  0  0  0  0  0
   10.8090   -9.1620   11.5730   S 0  0  0  0  0  0  0  0  0  0  0  0
    9.0210   -9.0990   11.4790   C 0  0  0  0  0  0  0  0  0  0  0  0
    8.2910   -8.4150   10.5220   N 0  0  0  0  0  0  0  0  0  0  0  0
    6.9200   -8.4750   10.5540   C 0  0  0  0  0  0  0  0  0  0  0  0
    6.1220   -7.7390    9.5320   C 0  0  0  0  0  0  0  0  0  0  0  0
    6.2670   -9.2400   11.5530   C 0  0  0  0  0  0  0  0  0  0  0  0
    7.0500   -9.9230   12.5030   C 0  0  0  0  0  0  0  0  0  0  0  0
    8.4000   -9.8210   12.4450   N 0  0  0  0  0  0  0  0  0  0  0  0
    6.4990  -10.7670   13.6070   C 0  0  0  0  0  0  0  0  0  0  0  0
 23 21  1  0  0  0  0
 21 22  2  0  0  0  0
 21 20  1  0  0  0  0
 22 16  1  0  0  0  0
 20 18  2  0  0  0  0
 16 15  1  0  0  0  0
 16 17  2  0  0  0  0
 15 14  1  0  0  0  0
 18 17  1  0  0  0  0
 18 19  1  0  0  0  0
 14 12  1  0  0  0  0
 12 13  2  0  0  0  0
 12 10  1  0  0  0  0
 11 10  2  0  0  0  0
 11  3  1  0  0  0  0
 10  1  1  0  0  0  0
  3  2  2  0  0  0  0
  1  5  2  0  0  0  0
  2  5  1  0  0  0  0
  2  6  1  0  0  0  0
  5  4  1  0  0  0  0
  8  6  1  0  0  0  0
  7  6  2  0  0  0  0
  6  9  2  0  0  0  0
A    1
C2
A    2
C4
A    3
C5
A    4
CL1
A    5
C3
A    6
S6
A    7
O8
A    8
N11
A    9
O7
A   10
C22
A   11
C1
A   12
C9
A   13
O12
A   14
C10
A   15
S13
A   16
C14
A   17
N17
A   18
C18
A   19
C21
A   20
C19
A   21
C16
A   22
N15
A   23
C20
M  END
>  <InstanceId>
4KNM_E1E_A_302

>  <ChemCompId>
E1E

>  <PdbId>
4KNM

>  <ChainId>
A

>  <ResidueNumber>
302

>  <InsertionCode>


>  <Model>
1

>  <AltIds>


>  <MissingHeavyAtoms>
0

>  <ObservedFormula>
C14 N3 O3 S2 Cl

>  <Name>
2-chloro-4-{[(4,6-dimethylpyrimidin-2-yl)sulfanyl]acetyl}benzenesulfonamide

>  <SystematicName>
2-chloranyl-4-[2-(4,6-dimethylpyrimidin-2-yl)sulfanylethanoyl]benzenesulfonamide

>  <Synonyms>


>  <Type>
NON-POLYMER

>  <Formula>
C14 H14 Cl N3 O3 S2

>  <MolecularWeight>
371.862

>  <ModifiedDate>
2013-11-01

>  <Parent>


>  <OneLetterCode>


>  <SubcomponentList>


>  <AmbiguousFlag>
N

>  <InChI>
InChI=1S/C14H14ClN3O3S2/c1-8-5-9(2)18-14(17-8)22-7-12(19)10-3-4-13(11(15)6-10)23(16,20)21/h3-6H,7H2,1-2H3,(H2,16,20,21)

>  <InChIKey>
XWPREILQIYDJMT-UHFFFAOYSA-N

>  <SMILES>
Cc1cc(nc(n1)SCC(=O)c2ccc(c(c2)Cl)S(=O)(=O)N)C

$$$$
