4IH7_1ER_A_602


 18 19  0  0  0  0  0  0  0  0999 V2000
   -9.5881    8.9344   10.4154 C   0  0  0  0  0  0  0  0  0  0  0  0
   -9.5264    9.0071    9.0235 C   0  0  0  0  0  0  0  0  0  0  0  0
   -8.4280    9.5788    8.3997 C   0  0  0  0  0  0  0  0  0  0  0  0
   -7.3848   10.0914    9.1581 C   0  0  0  0  0  0  0  0  0  0  0  0
   -8.5382    9.4644   11.1656 C   0  0  0  0  0  0  0  0  0  0  0  0
   -7.4261   10.0491   10.5512 C   0  0  0  0  0  0  0  0  0  0  0  0
  -10.5206    6.1726    9.9731 O   0  0  0  0  0  0  0  0  0  0  0  0
  -11.1067    6.9110   10.7704 C   0  0  0  0  0  0  0  0  0  0  0  0
  -12.2301    6.4362   11.4444 N   0  0  0  0  0  0  0  0  0  0  0  0
  -12.9594    7.1513   12.3460 C   0  0  0  0  0  0  0  0  0  0  0  0
  -12.6234    8.4291   12.6503 C   0  0  0  0  0  0  0  0  0  0  0  0
  -11.5050    9.0097   12.0109 C   0  0  0  0  0  0  0  0  0  0  0  0
  -10.7514    8.3051   11.0992 C   0  0  0  0  0  0  0  0  0  0  0  0
  -12.5186    5.5142   11.2546 H   0  0  0  0  0  0  0  0  0  0  0  0
   -6.2584   10.5961   11.3883 C   0  0  0  0  0  0  0  0  0  0  0  0
   -5.1321    9.5630   11.5289 C   0  0  0  0  0  0  0  0  0  0  0  0
   -6.7102   10.9589   12.8130 C   0  0  0  0  0  0  0  0  0  0  0  0
   -5.6668   11.8492   10.7124 C   0  0  0  0  0  0  0  0  0  0  0  0
  3  4  2  0  0  0
  3  2  1  0  0  0
  4  6  1  0  0  0
  2  1  2  0  0  0
  7  8  2  0  0  0
 17 15  1  0  0  0
  6  5  2  0  0  0
  6 15  1  0  0  0
  1  5  1  0  0  0
  1 13  1  0  0  0
  8 13  1  0  0  0
  8  9  1  0  0  0
 15 18  1  0  0  0
 15 16  1  0  0  0
 13 12  2  0  0  0
  9 10  1  0  0  0
 12 11  1  0  0  0
 10 11  2  0  0  0
  9 14  1  0  0  0
M  END
> <minimizedAffinity>
-7.94359

$$$$
4IH7_1ER_A_602


 18 19  0  0  0  0  0  0  0  0999 V2000
  -10.0831    9.1857   10.6317 C   0  0  0  0  0  0  0  0  0  0  0  0
   -9.8532    9.1619    9.2558 C   0  0  0  0  0  0  0  0  0  0  0  0
   -8.6044    9.4867    8.7484 C   0  0  0  0  0  0  0  0  0  0  0  0
   -7.5756    9.8470    9.6074 C   0  0  0  0  0  0  0  0  0  0  0  0
   -9.0436    9.5614   11.4827 C   0  0  0  0  0  0  0  0  0  0  0  0
   -7.7801    9.8971   10.9857 C   0  0  0  0  0  0  0  0  0  0  0  0
  -12.2795   11.0815   11.1550 O   0  0  0  0  0  0  0  0  0  0  0  0
  -12.4154    9.8809   11.4085 C   0  0  0  0  0  0  0  0  0  0  0  0
  -13.6094    9.4302   11.9678 N   0  0  0  0  0  0  0  0  0  0  0  0
  -13.8799    8.1344   12.2904 C   0  0  0  0  0  0  0  0  0  0  0  0
  -12.9578    7.1623   12.0827 C   0  0  0  0  0  0  0  0  0  0  0  0
  -11.7068    7.5175   11.5299 C   0  0  0  0  0  0  0  0  0  0  0  0
  -11.4127    8.8197   11.1931 C   0  0  0  0  0  0  0  0  0  0  0  0
  -14.3106   10.0986   12.1431 H   0  0  0  0  0  0  0  0  0  0  0  0
   -6.6321   10.2733   11.9366 C   0  0  0  0  0  0  0  0  0  0  0  0
   -5.4988    9.2394   11.8902 C   0  0  0  0  0  0  0  0  0  0  0  0
   -7.1118   10.3429   13.3963 C   0  0  0  0  0  0  0  0  0  0  0  0
   -6.0407   11.6392   11.5345 C   0  0  0  0  0  0  0  0  0  0  0  0
  3  4  2  0  0  0
  3  2  1  0  0  0
  4  6  1  0  0  0
  2  1  2  0  0  0
  7  8  2  0  0  0
 17 15  1  0  0  0
  6  5  2  0  0  0
  6 15  1  0  0  0
  1  5  1  0  0  0
  1 13  1  0  0  0
  8 13  1  0  0  0
  8  9  1  0  0  0
 15 18  1  0  0  0
 15 16  1  0  0  0
 13 12  2  0  0  0
  9 10  1  0  0  0
 12 11  1  0  0  0
 10 11  2  0  0  0
  9 14  1  0  0  0
M  END
> <minimizedAffinity>
-7.53519

$$$$
4IH7_1ER_A_602


 18 19  0  0  0  0  0  0  0  0999 V2000
   -9.0320    9.7502    9.0223 C   0  0  0  0  0  0  0  0  0  0  0  0
  -10.0286    9.1887    9.8210 C   0  0  0  0  0  0  0  0  0  0  0  0
   -9.8534    9.0881   11.1927 C   0  0  0  0  0  0  0  0  0  0  0  0
   -8.6792    9.5381   11.7800 C   0  0  0  0  0  0  0  0  0  0  0  0
   -7.8518   10.1873    9.6241 C   0  0  0  0  0  0  0  0  0  0  0  0
   -7.6580   10.0876   11.0056 C   0  0  0  0  0  0  0  0  0  0  0  0
  -10.9473   11.5683    7.7116 O   0  0  0  0  0  0  0  0  0  0  0  0
  -10.2198   10.8335    7.0370 C   0  0  0  0  0  0  0  0  0  0  0  0
  -10.3275   10.8521    5.6478 N   0  0  0  0  0  0  0  0  0  0  0  0
   -9.5828   10.0918    4.7971 C   0  0  0  0  0  0  0  0  0  0  0  0
   -8.6541    9.2269    5.2744 C   0  0  0  0  0  0  0  0  0  0  0  0
   -8.4751    9.1231    6.6722 C   0  0  0  0  0  0  0  0  0  0  0  0
   -9.2137    9.8838    7.5505 C   0  0  0  0  0  0  0  0  0  0  0  0
  -10.9919   11.4607    5.2510 H   0  0  0  0  0  0  0  0  0  0  0  0
   -6.3682   10.6071   11.6614 C   0  0  0  0  0  0  0  0  0  0  0  0
   -5.2838    9.5221   11.7114 C   0  0  0  0  0  0  0  0  0  0  0  0
   -6.6166   11.0554   13.1116 C   0  0  0  0  0  0  0  0  0  0  0  0
   -5.8086   11.7960   10.8550 C   0  0  0  0  0  0  0  0  0  0  0  0
  3  4  2  0  0  0
  3  2  1  0  0  0
  4  6  1  0  0  0
  2  1  2  0  0  0
  7  8  2  0  0  0
 17 15  1  0  0  0
  6  5  2  0  0  0
  6 15  1  0  0  0
  1  5  1  0  0  0
  1 13  1  0  0  0
  8 13  1  0  0  0
  8  9  1  0  0  0
 15 18  1  0  0  0
 15 16  1  0  0  0
 13 12  2  0  0  0
  9 10  1  0  0  0
 12 11  1  0  0  0
 10 11  2  0  0  0
  9 14  1  0  0  0
M  END
> <minimizedAffinity>
-7.19892

$$$$
4IH7_1ER_A_602


 18 19  0  0  0  0  0  0  0  0999 V2000
   -9.2992    9.1252    9.3904 C   0  0  0  0  0  0  0  0  0  0  0  0
  -10.3388    8.9922   10.3112 C   0  0  0  0  0  0  0  0  0  0  0  0
  -10.1355    9.3026   11.6472 C   0  0  0  0  0  0  0  0  0  0  0  0
   -8.8913    9.7402   12.0792 C   0  0  0  0  0  0  0  0  0  0  0  0
   -8.0505    9.5544    9.8404 C   0  0  0  0  0  0  0  0  0  0  0  0
   -7.8283    9.8661   11.1856 C   0  0  0  0  0  0  0  0  0  0  0  0
  -10.9098    6.8824    8.3569 O   0  0  0  0  0  0  0  0  0  0  0  0
  -10.3361    7.6513    7.5797 C   0  0  0  0  0  0  0  0  0  0  0  0
  -10.4358    7.4368    6.2065 N   0  0  0  0  0  0  0  0  0  0  0  0
   -9.8517    8.2127    5.2511 C   0  0  0  0  0  0  0  0  0  0  0  0
   -9.0983    9.2859    5.5961 C   0  0  0  0  0  0  0  0  0  0  0  0
   -8.9242    9.5833    6.9665 C   0  0  0  0  0  0  0  0  0  0  0  0
   -9.5076    8.8153    7.9491 C   0  0  0  0  0  0  0  0  0  0  0  0
  -10.9687    6.6663    5.9038 H   0  0  0  0  0  0  0  0  0  0  0  0
   -6.4577   10.3737   11.6624 C   0  0  0  0  0  0  0  0  0  0  0  0
   -5.8579   11.3876   10.6787 C   0  0  0  0  0  0  0  0  0  0  0  0
   -5.4452    9.2228   11.7882 C   0  0  0  0  0  0  0  0  0  0  0  0
   -6.6004   11.0715   13.0298 C   0  0  0  0  0  0  0  0  0  0  0  0
  3  4  2  0  0  0
  3  2  1  0  0  0
  4  6  1  0  0  0
  2  1  2  0  0  0
  7  8  2  0  0  0
 17 15  1  0  0  0
  6  5  2  0  0  0
  6 15  1  0  0  0
  1  5  1  0  0  0
  1 13  1  0  0  0
  8 13  1  0  0  0
  8  9  1  0  0  0
 15 18  1  0  0  0
 15 16  1  0  0  0
 13 12  2  0  0  0
  9 10  1  0  0  0
 12 11  1  0  0  0
 10 11  2  0  0  0
  9 14  1  0  0  0
M  END
> <minimizedAffinity>
-7.00216

$$$$
4IH7_1ER_A_602


 18 19  0  0  0  0  0  0  0  0999 V2000
   -9.0934    9.0372    8.4521 C   0  0  0  0  0  0  0  0  0  0  0  0
   -9.8041    8.1201    9.2269 C   0  0  0  0  0  0  0  0  0  0  0  0
  -10.7322    7.2753    8.6375 C   0  0  0  0  0  0  0  0  0  0  0  0
  -10.9669    7.3430    7.2713 C   0  0  0  0  0  0  0  0  0  0  0  0
   -9.3481    9.1030    7.0821 C   0  0  0  0  0  0  0  0  0  0  0  0
  -10.2850    8.2614    6.4738 C   0  0  0  0  0  0  0  0  0  0  0  0
   -9.6885   11.2065   10.3579 O   0  0  0  0  0  0  0  0  0  0  0  0
   -8.5267   10.9871   10.0022 C   0  0  0  0  0  0  0  0  0  0  0  0
   -7.4980   11.7899   10.4910 N   0  0  0  0  0  0  0  0  0  0  0  0
   -6.1803   11.6480   10.1752 C   0  0  0  0  0  0  0  0  0  0  0  0
   -5.7737   10.6759    9.3219 C   0  0  0  0  0  0  0  0  0  0  0  0
   -6.7424    9.8143    8.7600 C   0  0  0  0  0  0  0  0  0  0  0  0
   -8.0789    9.9368    9.0672 C   0  0  0  0  0  0  0  0  0  0  0  0
   -7.7418   12.5144   11.1114 H   0  0  0  0  0  0  0  0  0  0  0  0
  -10.5296    8.3180    4.9571 C   0  0  0  0  0  0  0  0  0  0  0  0
   -9.4507    9.1424    4.2417 C   0  0  0  0  0  0  0  0  0  0  0  0
  -11.8815    8.9749    4.6303 C   0  0  0  0  0  0  0  0  0  0  0  0
  -10.5046    6.8945    4.3655 C   0  0  0  0  0  0  0  0  0  0  0  0
  3  4  2  0  0  0
  3  2  1  0  0  0
  4  6  1  0  0  0
  2  1  2  0  0  0
  7  8  2  0  0  0
 17 15  1  0  0  0
  6  5  2  0  0  0
  6 15  1  0  0  0
  1  5  1  0  0  0
  1 13  1  0  0  0
  8 13  1  0  0  0
  8  9  1  0  0  0
 15 18  1  0  0  0
 15 16  1  0  0  0
 13 12  2  0  0  0
  9 10  1  0  0  0
 12 11  1  0  0  0
 10 11  2  0  0  0
  9 14  1  0  0  0
M  END
> <minimizedAffinity>
-6.84241

$$$$
4IH7_1ER_A_602


 18 19  0  0  0  0  0  0  0  0999 V2000
   -9.3755    9.2313   10.9048 C   0  0  0  0  0  0  0  0  0  0  0  0
   -9.0947    8.6049    9.6902 C   0  0  0  0  0  0  0  0  0  0  0  0
  -10.0850    7.9063    9.0167 C   0  0  0  0  0  0  0  0  0  0  0  0
  -11.3624    7.8180    9.5522 C   0  0  0  0  0  0  0  0  0  0  0  0
  -10.6603    9.1243   11.4375 C   0  0  0  0  0  0  0  0  0  0  0  0
  -11.6684    8.4185   10.7728 C   0  0  0  0  0  0  0  0  0  0  0  0
   -7.9544   11.5802    9.8300 O   0  0  0  0  0  0  0  0  0  0  0  0
   -7.6963   11.1556   10.9602 C   0  0  0  0  0  0  0  0  0  0  0  0
   -6.7084   11.7819   11.7176 N   0  0  0  0  0  0  0  0  0  0  0  0
   -6.3343   11.4092   12.9735 C   0  0  0  0  0  0  0  0  0  0  0  0
   -6.9243   10.3538   13.5870 C   0  0  0  0  0  0  0  0  0  0  0  0
   -7.9318    9.6418   12.8980 C   0  0  0  0  0  0  0  0  0  0  0  0
   -8.3282   10.0023   11.6298 C   0  0  0  0  0  0  0  0  0  0  0  0
   -6.2457   12.5518   11.3146 H   0  0  0  0  0  0  0  0  0  0  0  0
  -13.0903    8.3394   11.3521 C   0  0  0  0  0  0  0  0  0  0  0  0
  -13.0767    7.9055   12.8242 C   0  0  0  0  0  0  0  0  0  0  0  0
  -13.9495    7.3137   10.5936 C   0  0  0  0  0  0  0  0  0  0  0  0
  -13.7690    9.7215   11.2744 C   0  0  0  0  0  0  0  0  0  0  0  0
  3  4  2  0  0  0
  3  2  1  0  0  0
  4  6  1  0  0  0
  2  1  2  0  0  0
  7  8  2  0  0  0
 17 15  1  0  0  0
  6  5  2  0  0  0
  6 15  1  0  0  0
  1  5  1  0  0  0
  1 13  1  0  0  0
  8 13  1  0  0  0
  8  9  1  0  0  0
 15 18  1  0  0  0
 15 16  1  0  0  0
 13 12  2  0  0  0
  9 10  1  0  0  0
 12 11  1  0  0  0
 10 11  2  0  0  0
  9 14  1  0  0  0
M  END
> <minimizedAffinity>
-6.76960

$$$$
4IH7_1ER_A_602


 18 19  0  0  0  0  0  0  0  0999 V2000
   -8.8619    9.1015    8.3211 C   0  0  0  0  0  0  0  0  0  0  0  0
   -8.8595    8.8700    6.9453 C   0  0  0  0  0  0  0  0  0  0  0  0
   -9.8248    8.0578    6.3698 C   0  0  0  0  0  0  0  0  0  0  0  0
  -10.7963    7.4618    7.1617 C   0  0  0  0  0  0  0  0  0  0  0  0
   -9.8368    8.4864    9.1068 C   0  0  0  0  0  0  0  0  0  0  0  0
  -10.8137    7.6603    8.5418 C   0  0  0  0  0  0  0  0  0  0  0  0
   -9.4506   11.2459   10.2570 O   0  0  0  0  0  0  0  0  0  0  0  0
   -8.2892   11.0262    9.9003 C   0  0  0  0  0  0  0  0  0  0  0  0
   -7.2577   11.8170   10.4026 N   0  0  0  0  0  0  0  0  0  0  0  0
   -5.9400   11.6735   10.0873 C   0  0  0  0  0  0  0  0  0  0  0  0
   -5.5363   10.7120    9.2208 C   0  0  0  0  0  0  0  0  0  0  0  0
   -6.5080    9.8631    8.6447 C   0  0  0  0  0  0  0  0  0  0  0  0
   -7.8445    9.9874    8.9511 C   0  0  0  0  0  0  0  0  0  0  0  0
   -7.4993   12.5336   11.0329 H   0  0  0  0  0  0  0  0  0  0  0  0
  -11.9051    7.0181    9.4136 C   0  0  0  0  0  0  0  0  0  0  0  0
  -12.6966    5.9572    8.6366 C   0  0  0  0  0  0  0  0  0  0  0  0
  -12.9221    8.0639    9.9012 C   0  0  0  0  0  0  0  0  0  0  0  0
  -11.2660    6.3283   10.6354 C   0  0  0  0  0  0  0  0  0  0  0  0
  3  4  2  0  0  0
  3  2  1  0  0  0
  4  6  1  0  0  0
  2  1  2  0  0  0
  7  8  2  0  0  0
 17 15  1  0  0  0
  6  5  2  0  0  0
  6 15  1  0  0  0
  1  5  1  0  0  0
  1 13  1  0  0  0
  8 13  1  0  0  0
  8  9  1  0  0  0
 15 18  1  0  0  0
 15 16  1  0  0  0
 13 12  2  0  0  0
  9 10  1  0  0  0
 12 11  1  0  0  0
 10 11  2  0  0  0
  9 14  1  0  0  0
M  END
> <minimizedAffinity>
-6.74151

$$$$
4IH7_1ER_A_602


 18 19  0  0  0  0  0  0  0  0999 V2000
  -10.0174    8.7182    9.6698 C   0  0  0  0  0  0  0  0  0  0  0  0
   -8.7730    9.2521   10.0057 C   0  0  0  0  0  0  0  0  0  0  0  0
   -7.8992    9.6705    9.0138 C   0  0  0  0  0  0  0  0  0  0  0  0
   -8.2542    9.5524    7.6774 C   0  0  0  0  0  0  0  0  0  0  0  0
  -10.3564    8.5940    8.3223 C   0  0  0  0  0  0  0  0  0  0  0  0
   -9.4837    9.0065    7.3102 C   0  0  0  0  0  0  0  0  0  0  0  0
  -10.9229    5.9447   10.0941 O   0  0  0  0  0  0  0  0  0  0  0  0
  -11.3430    6.8570   10.8121 C   0  0  0  0  0  0  0  0  0  0  0  0
  -12.2695    6.5695   11.8125 N   0  0  0  0  0  0  0  0  0  0  0  0
  -12.8050    7.4857   12.6668 C   0  0  0  0  0  0  0  0  0  0  0  0
  -12.4568    8.7936   12.5864 C   0  0  0  0  0  0  0  0  0  0  0  0
  -11.5314    9.1921   11.5957 C   0  0  0  0  0  0  0  0  0  0  0  0
  -10.9748    8.2834   10.7239 C   0  0  0  0  0  0  0  0  0  0  0  0
  -12.5590    5.6335   11.9091 H   0  0  0  0  0  0  0  0  0  0  0  0
   -9.8842    8.8988    5.8299 C   0  0  0  0  0  0  0  0  0  0  0  0
   -8.7825    9.4366    4.9065 C   0  0  0  0  0  0  0  0  0  0  0  0
  -11.1534    9.7145    5.5307 C   0  0  0  0  0  0  0  0  0  0  0  0
  -10.1333    7.4237    5.4570 C   0  0  0  0  0  0  0  0  0  0  0  0
  3  4  2  0  0  0
  3  2  1  0  0  0
  4  6  1  0  0  0
  2  1  2  0  0  0
  7  8  2  0  0  0
 17 15  1  0  0  0
  6  5  2  0  0  0
  6 15  1  0  0  0
  1  5  1  0  0  0
  1 13  1  0  0  0
  8 13  1  0  0  0
  8  9  1  0  0  0
 15 18  1  0  0  0
 15 16  1  0  0  0
 13 12  2  0  0  0
  9 10  1  0  0  0
 12 11  1  0  0  0
 10 11  2  0  0  0
  9 14  1  0  0  0
M  END
> <minimizedAffinity>
-6.66111

$$$$
4IH7_1ER_A_602


 18 19  0  0  0  0  0  0  0  0999 V2000
   -9.0471    8.8428    9.3223 C   0  0  0  0  0  0  0  0  0  0  0  0
   -9.8634    7.9282    9.9883 C   0  0  0  0  0  0  0  0  0  0  0  0
  -10.7882    7.1722    9.2843 C   0  0  0  0  0  0  0  0  0  0  0  0
  -10.9141    7.3275    7.9109 C   0  0  0  0  0  0  0  0  0  0  0  0
   -9.1926    8.9975    7.9436 C   0  0  0  0  0  0  0  0  0  0  0  0
  -10.1246    8.2462    7.2203 C   0  0  0  0  0  0  0  0  0  0  0  0
   -9.3909   11.6529   10.1454 O   0  0  0  0  0  0  0  0  0  0  0  0
   -8.3446   11.0494   10.4010 C   0  0  0  0  0  0  0  0  0  0  0  0
   -7.3145   11.7152   11.0623 N   0  0  0  0  0  0  0  0  0  0  0  0
   -6.1170   11.1600   11.4002 C   0  0  0  0  0  0  0  0  0  0  0  0
   -5.8414    9.8686   11.0928 C   0  0  0  0  0  0  0  0  0  0  0  0
   -6.8171    9.1081   10.4097 C   0  0  0  0  0  0  0  0  0  0  0  0
   -8.0352    9.6470   10.0614 C   0  0  0  0  0  0  0  0  0  0  0  0
   -7.4632   12.6579   11.3037 H   0  0  0  0  0  0  0  0  0  0  0  0
  -10.2494    8.3991    5.6957 C   0  0  0  0  0  0  0  0  0  0  0  0
  -11.5153    9.1755    5.3080 C   0  0  0  0  0  0  0  0  0  0  0  0
  -10.3358    7.0305    4.9992 C   0  0  0  0  0  0  0  0  0  0  0  0
   -9.0351    9.1710    5.1420 C   0  0  0  0  0  0  0  0  0  0  0  0
  3  4  2  0  0  0
  3  2  1  0  0  0
  4  6  1  0  0  0
  2  1  2  0  0  0
  7  8  2  0  0  0
 17 15  1  0  0  0
  6  5  2  0  0  0
  6 15  1  0  0  0
  1  5  1  0  0  0
  1 13  1  0  0  0
  8 13  1  0  0  0
  8  9  1  0  0  0
 15 18  1  0  0  0
 15 16  1  0  0  0
 13 12  2  0  0  0
  9 10  1  0  0  0
 12 11  1  0  0  0
 10 11  2  0  0  0
  9 14  1  0  0  0
M  END
> <minimizedAffinity>
-6.61776

$$$$
4IH7_1ER_A_602


 18 19  0  0  0  0  0  0  0  0999 V2000
  -10.3027    8.9500   10.4806 C   0  0  0  0  0  0  0  0  0  0  0  0
   -9.1790    9.3916   11.1796 C   0  0  0  0  0  0  0  0  0  0  0  0
   -8.0202    9.7335   10.4993 C   0  0  0  0  0  0  0  0  0  0  0  0
   -7.9680    9.6299    9.1163 C   0  0  0  0  0  0  0  0  0  0  0  0
  -10.2325    8.8390    9.0918 C   0  0  0  0  0  0  0  0  0  0  0  0
   -9.0691    9.1749    8.3918 C   0  0  0  0  0  0  0  0  0  0  0  0
  -12.4033   10.8693   11.2527 O   0  0  0  0  0  0  0  0  0  0  0  0
  -12.5206    9.6705   11.5237 C   0  0  0  0  0  0  0  0  0  0  0  0
  -13.6452    9.2331   12.2206 N   0  0  0  0  0  0  0  0  0  0  0  0
  -13.8889    7.9408   12.5764 C   0  0  0  0  0  0  0  0  0  0  0  0
  -13.0074    6.9589   12.2646 C   0  0  0  0  0  0  0  0  0  0  0  0
  -11.8264    7.3002   11.5679 C   0  0  0  0  0  0  0  0  0  0  0  0
  -11.5608    8.5987   11.1952 C   0  0  0  0  0  0  0  0  0  0  0  0
  -14.3142    9.9090   12.4750 H   0  0  0  0  0  0  0  0  0  0  0  0
   -9.0165    9.0837    6.8581 C   0  0  0  0  0  0  0  0  0  0  0  0
   -7.5711    9.0274    6.3452 C   0  0  0  0  0  0  0  0  0  0  0  0
   -9.6751   10.3079    6.1997 C   0  0  0  0  0  0  0  0  0  0  0  0
   -9.7361    7.8064    6.3808 C   0  0  0  0  0  0  0  0  0  0  0  0
  3  4  2  0  0  0
  3  2  1  0  0  0
  4  6  1  0  0  0
  2  1  2  0  0  0
  7  8  2  0  0  0
 17 15  1  0  0  0
  6  5  2  0  0  0
  6 15  1  0  0  0
  1  5  1  0  0  0
  1 13  1  0  0  0
  8 13  1  0  0  0
  8  9  1  0  0  0
 15 18  1  0  0  0
 15 16  1  0  0  0
 13 12  2  0  0  0
  9 10  1  0  0  0
 12 11  1  0  0  0
 10 11  2  0  0  0
  9 14  1  0  0  0
M  END
> <minimizedAffinity>
-6.45651

$$$$
