3N7A_FA1_A_147


 16 16  0  0  0  0  0  0  0  0999 V2000
   44.2844    7.4360   26.8744 C   0  0  0  0  0  0  0  0  0  0  0  0
   43.2424    7.6975   25.7992 C   0  0  0  0  0  0  0  0  0  0  0  0
   42.7681    9.0692   25.8795 O   0  0  0  0  0  0  0  0  0  0  0  0
   43.8570    7.4178   24.4255 C   0  0  0  0  0  0  0  0  0  0  0  0
   42.8078    7.4795   23.4905 O   0  0  0  0  0  0  0  0  0  0  0  0
   44.5082    6.0471   24.4057 C   0  0  0  0  0  0  0  0  0  0  0  0
   44.9083    5.4234   25.5812 C   0  0  0  0  0  0  0  0  0  0  0  0
   43.7223    5.0767   27.5202 O   0  0  0  0  0  0  0  0  0  0  0  0
   44.7259    5.9492   26.8844 C   0  0  0  0  0  0  0  0  0  0  0  0
   43.5124    9.6770   25.7474 H   0  0  0  0  0  0  0  0  0  0  0  0
   42.1312    6.8234   23.7200 H   0  0  0  0  0  0  0  0  0  0  0  0
   42.8624    5.2063   27.0904 H   0  0  0  0  0  0  0  0  0  0  0  0
   46.1047    5.7655   27.5468 C   0  0  0  0  0  0  0  0  0  0  0  0
   46.3856    6.6182   28.6522 O   0  0  0  0  0  0  0  0  0  0  0  0
   46.3664    4.4013   27.7671 O   0  0  0  0  0  0  0  0  0  0  0  0
   46.2369    7.5407   28.5821 H   0  0  0  0  0  0  0  0  0  0  0  0
  1  2  1  0  0  0
  1  9  1  0  0  0
  2  3  1  0  0  0
  2  4  1  0  0  0
  4  5  1  0  0  0
  4  6  1  0  0  0
  6  7  2  0  0  0
  7  9  1  0  0  0
 13 14  1  0  0  0
 13 15  2  0  0  0
 13  9  1  0  0  0
  8  9  1  0  0  0
  3 10  1  0  0  0
  5 11  1  0  0  0
 14 16  1  0  0  0
  8 12  1  0  0  0
M  END
> <minimizedAffinity>
-8.21821

$$$$
3N7A_FA1_A_147


 16 16  0  0  0  0  0  0  0  0999 V2000
   44.1072    7.1974   27.0189 C   0  0  0  0  0  0  0  0  0  0  0  0
   43.2385    7.5660   25.8275 C   0  0  0  0  0  0  0  0  0  0  0  0
   42.8443    8.9631   25.9037 O   0  0  0  0  0  0  0  0  0  0  0  0
   44.0144    7.2931   24.5365 C   0  0  0  0  0  0  0  0  0  0  0  0
   43.1070    7.4581   23.4743 O   0  0  0  0  0  0  0  0  0  0  0  0
   44.5754    5.8829   24.5438 C   0  0  0  0  0  0  0  0  0  0  0  0
   44.7731    5.1931   25.7337 C   0  0  0  0  0  0  0  0  0  0  0  0
   43.3166    4.8605   27.4814 O   0  0  0  0  0  0  0  0  0  0  0  0
   44.4496    5.6846   27.0229 C   0  0  0  0  0  0  0  0  0  0  0  0
   43.6362    9.5232   25.8980 H   0  0  0  0  0  0  0  0  0  0  0  0
   42.3660    6.8418   23.5834 H   0  0  0  0  0  0  0  0  0  0  0  0
   42.5326    5.0630   26.9475 H   0  0  0  0  0  0  0  0  0  0  0  0
   45.7120    5.3851   27.8535 C   0  0  0  0  0  0  0  0  0  0  0  0
   46.5693    4.3688   27.3434 O   0  0  0  0  0  0  0  0  0  0  0  0
   46.3578    6.5811   28.2150 O   0  0  0  0  0  0  0  0  0  0  0  0
   46.2125    3.5431   27.0810 H   0  0  0  0  0  0  0  0  0  0  0  0
  1  2  1  0  0  0
  1  9  1  0  0  0
  2  3  1  0  0  0
  2  4  1  0  0  0
  4  5  1  0  0  0
  4  6  1  0  0  0
  6  7  2  0  0  0
  7  9  1  0  0  0
 13 14  1  0  0  0
 13 15  2  0  0  0
 13  9  1  0  0  0
  8  9  1  0  0  0
  3 10  1  0  0  0
  5 11  1  0  0  0
 14 16  1  0  0  0
  8 12  1  0  0  0
M  END
> <minimizedAffinity>
-7.78894

$$$$
3N7A_FA1_A_147


 16 16  0  0  0  0  0  0  0  0999 V2000
   43.6714    7.2447   25.8521 C   0  0  0  0  0  0  0  0  0  0  0  0
   43.0886    6.8986   24.4918 C   0  0  0  0  0  0  0  0  0  0  0  0
   42.4776    8.0729   23.8912 O   0  0  0  0  0  0  0  0  0  0  0  0
   44.2002    6.3492   23.5941 C   0  0  0  0  0  0  0  0  0  0  0  0
   43.5790    5.8624   22.4296 O   0  0  0  0  0  0  0  0  0  0  0  0
   44.9512    5.2365   24.3021 C   0  0  0  0  0  0  0  0  0  0  0  0
   44.9434    5.1311   25.6876 C   0  0  0  0  0  0  0  0  0  0  0  0
   43.1592    5.1507   27.1376 O   0  0  0  0  0  0  0  0  0  0  0  0
   44.2305    5.9856   26.5648 C   0  0  0  0  0  0  0  0  0  0  0  0
   43.1487    8.7639   23.7769 H   0  0  0  0  0  0  0  0  0  0  0  0
   42.9388    5.1739   22.6683 H   0  0  0  0  0  0  0  0  0  0  0  0
   42.5154    4.9314   26.4460 H   0  0  0  0  0  0  0  0  0  0  0  0
   45.2703    6.3509   27.6413 C   0  0  0  0  0  0  0  0  0  0  0  0
   46.2108    5.3341   27.9724 O   0  0  0  0  0  0  0  0  0  0  0  0
   45.8294    7.6140   27.3761 O   0  0  0  0  0  0  0  0  0  0  0  0
   45.9145    4.4657   28.1622 H   0  0  0  0  0  0  0  0  0  0  0  0
  1  2  1  0  0  0
  1  9  1  0  0  0
  2  3  1  0  0  0
  2  4  1  0  0  0
  4  5  1  0  0  0
  4  6  1  0  0  0
  6  7  2  0  0  0
  7  9  1  0  0  0
 13 14  1  0  0  0
 13 15  2  0  0  0
 13  9  1  0  0  0
  8  9  1  0  0  0
  3 10  1  0  0  0
  5 11  1  0  0  0
 14 16  1  0  0  0
  8 12  1  0  0  0
M  END
> <minimizedAffinity>
-7.52160

$$$$
3N7A_FA1_A_147


 16 16  0  0  0  0  0  0  0  0999 V2000
   44.6406    7.2518   27.3337 C   0  0  0  0  0  0  0  0  0  0  0  0
   45.8956    6.4066   27.4779 C   0  0  0  0  0  0  0  0  0  0  0  0
   46.4116    6.4971   28.8338 O   0  0  0  0  0  0  0  0  0  0  0  0
   45.5673    4.9548   27.1205 C   0  0  0  0  0  0  0  0  0  0  0  0
   46.7901    4.2608   27.0756 O   0  0  0  0  0  0  0  0  0  0  0  0
   44.8659    4.8859   25.7764 C   0  0  0  0  0  0  0  0  0  0  0  0
   44.1987    5.9878   25.2553 C   0  0  0  0  0  0  0  0  0  0  0  0
   44.9356    8.1518   25.0093 O   0  0  0  0  0  0  0  0  0  0  0  0
   44.1319    7.2636   25.8685 C   0  0  0  0  0  0  0  0  0  0  0  0
   45.7428    6.1720   29.4567 H   0  0  0  0  0  0  0  0  0  0  0  0
   47.3699    4.6697   26.4141 H   0  0  0  0  0  0  0  0  0  0  0  0
   45.8716    7.9060   25.0760 H   0  0  0  0  0  0  0  0  0  0  0  0
   42.6379    7.6300   25.7836 C   0  0  0  0  0  0  0  0  0  0  0  0
   41.8336    7.2342   26.8901 O   0  0  0  0  0  0  0  0  0  0  0  0
   42.4822    8.9697   25.3848 O   0  0  0  0  0  0  0  0  0  0  0  0
   41.8817    6.3563   27.2141 H   0  0  0  0  0  0  0  0  0  0  0  0
  1  2  1  0  0  0
  1  9  1  0  0  0
  2  3  1  0  0  0
  2  4  1  0  0  0
  4  5  1  0  0  0
  4  6  1  0  0  0
  6  7  2  0  0  0
  7  9  1  0  0  0
 13 14  1  0  0  0
 13 15  2  0  0  0
 13  9  1  0  0  0
  8  9  1  0  0  0
  3 10  1  0  0  0
  5 11  1  0  0  0
 14 16  1  0  0  0
  8 12  1  0  0  0
M  END
> <minimizedAffinity>
-7.20706

$$$$
3N7A_FA1_A_147


 16 16  0  0  0  0  0  0  0  0999 V2000
   44.3683    5.6659   25.8060 C   0  0  0  0  0  0  0  0  0  0  0  0
   45.1222    5.4194   27.1025 C   0  0  0  0  0  0  0  0  0  0  0  0
   45.9238    4.2112   26.9980 O   0  0  0  0  0  0  0  0  0  0  0  0
   46.0075    6.6305   27.4068 C   0  0  0  0  0  0  0  0  0  0  0  0
   46.5241    6.4414   28.7015 O   0  0  0  0  0  0  0  0  0  0  0  0
   45.1952    7.9107   27.3392 C   0  0  0  0  0  0  0  0  0  0  0  0
   44.0084    7.9728   26.6190 C   0  0  0  0  0  0  0  0  0  0  0  0
   42.1936    6.5625   26.6815 O   0  0  0  0  0  0  0  0  0  0  0  0
   43.4182    6.8858   25.9274 C   0  0  0  0  0  0  0  0  0  0  0  0
   46.5656    4.3104   26.2774 H   0  0  0  0  0  0  0  0  0  0  0  0
   45.7924    6.3652   29.3337 H   0  0  0  0  0  0  0  0  0  0  0  0
   42.4340    6.1911   27.5447 H   0  0  0  0  0  0  0  0  0  0  0  0
   43.0682    7.4788   24.5492 C   0  0  0  0  0  0  0  0  0  0  0  0
   41.8968    8.2868   24.4957 O   0  0  0  0  0  0  0  0  0  0  0  0
   44.2093    8.0463   23.9541 O   0  0  0  0  0  0  0  0  0  0  0  0
   41.0962    7.9768   24.8711 H   0  0  0  0  0  0  0  0  0  0  0  0
  1  2  1  0  0  0
  1  9  1  0  0  0
  2  3  1  0  0  0
  2  4  1  0  0  0
  4  5  1  0  0  0
  4  6  1  0  0  0
  6  7  2  0  0  0
  7  9  1  0  0  0
 13 14  1  0  0  0
 13 15  2  0  0  0
 13  9  1  0  0  0
  8  9  1  0  0  0
  3 10  1  0  0  0
  5 11  1  0  0  0
 14 16  1  0  0  0
  8 12  1  0  0  0
M  END
> <minimizedAffinity>
-6.95955

$$$$
3N7A_FA1_A_147


 16 16  0  0  0  0  0  0  0  0999 V2000
   44.7998    6.2741   25.2974 C   0  0  0  0  0  0  0  0  0  0  0  0
   43.9402    7.1898   24.4414 C   0  0  0  0  0  0  0  0  0  0  0  0
   43.7986    6.6424   23.1023 O   0  0  0  0  0  0  0  0  0  0  0  0
   42.5706    7.3573   25.1043 C   0  0  0  0  0  0  0  0  0  0  0  0
   41.8920    8.3597   24.3875 O   0  0  0  0  0  0  0  0  0  0  0  0
   42.7317    7.7590   26.5589 C   0  0  0  0  0  0  0  0  0  0  0  0
   43.9072    7.4968   27.2520 C   0  0  0  0  0  0  0  0  0  0  0  0
   46.0803    7.9525   26.6548 O   0  0  0  0  0  0  0  0  0  0  0  0
   45.0608    6.8887   26.6973 C   0  0  0  0  0  0  0  0  0  0  0  0
   43.3738    5.7718   23.1521 H   0  0  0  0  0  0  0  0  0  0  0  0
   42.4061    9.1817   24.4158 H   0  0  0  0  0  0  0  0  0  0  0  0
   45.8251    8.6189   25.9978 H   0  0  0  0  0  0  0  0  0  0  0  0
   45.4389    5.8134   27.7337 C   0  0  0  0  0  0  0  0  0  0  0  0
   45.6182    4.4941   27.2285 O   0  0  0  0  0  0  0  0  0  0  0  0
   46.4729    6.2762   28.5673 O   0  0  0  0  0  0  0  0  0  0  0  0
   44.9714    4.1159   26.6658 H   0  0  0  0  0  0  0  0  0  0  0  0
  1  2  1  0  0  0
  1  9  1  0  0  0
  2  3  1  0  0  0
  2  4  1  0  0  0
  4  5  1  0  0  0
  4  6  1  0  0  0
  6  7  2  0  0  0
  7  9  1  0  0  0
 13 14  1  0  0  0
 13 15  2  0  0  0
 13  9  1  0  0  0
  8  9  1  0  0  0
  3 10  1  0  0  0
  5 11  1  0  0  0
 14 16  1  0  0  0
  8 12  1  0  0  0
M  END
> <minimizedAffinity>
-6.80806

$$$$
3N7A_FA1_A_147


 16 16  0  0  0  0  0  0  0  0999 V2000
   43.3407    7.0949   23.8343 C   0  0  0  0  0  0  0  0  0  0  0  0
   43.8822    7.5202   25.1893 C   0  0  0  0  0  0  0  0  0  0  0  0
   42.9602    8.4402   25.8347 O   0  0  0  0  0  0  0  0  0  0  0  0
   44.1002    6.2772   26.0557 C   0  0  0  0  0  0  0  0  0  0  0  0
   44.7820    6.7014   27.2108 O   0  0  0  0  0  0  0  0  0  0  0  0
   44.9187    5.2441   25.3033 C   0  0  0  0  0  0  0  0  0  0  0  0
   44.9833    5.2489   23.9152 C   0  0  0  0  0  0  0  0  0  0  0  0
   45.4558    6.9879   22.4872 O   0  0  0  0  0  0  0  0  0  0  0  0
   44.3559    6.2017   23.0745 C   0  0  0  0  0  0  0  0  0  0  0  0
   42.1041    8.0027   25.9637 H   0  0  0  0  0  0  0  0  0  0  0  0
   45.6230    7.1128   26.9571 H   0  0  0  0  0  0  0  0  0  0  0  0
   45.8759    7.5229   23.1787 H   0  0  0  0  0  0  0  0  0  0  0  0
   43.6678    5.3399   21.9987 C   0  0  0  0  0  0  0  0  0  0  0  0
   42.6015    5.9612   21.2881 O   0  0  0  0  0  0  0  0  0  0  0  0
   44.6274    4.7021   21.1920 O   0  0  0  0  0  0  0  0  0  0  0  0
   41.9231    6.4066   21.7565 H   0  0  0  0  0  0  0  0  0  0  0  0
  1  2  1  0  0  0
  1  9  1  0  0  0
  2  3  1  0  0  0
  2  4  1  0  0  0
  4  5  1  0  0  0
  4  6  1  0  0  0
  6  7  2  0  0  0
  7  9  1  0  0  0
 13 14  1  0  0  0
 13 15  2  0  0  0
 13  9  1  0  0  0
  8  9  1  0  0  0
  3 10  1  0  0  0
  5 11  1  0  0  0
 14 16  1  0  0  0
  8 12  1  0  0  0
M  END
> <minimizedAffinity>
-6.61577

$$$$
3N7A_FA1_A_147


 16 16  0  0  0  0  0  0  0  0999 V2000
   45.7245    4.8042   24.4260 C   0  0  0  0  0  0  0  0  0  0  0  0
   44.8308    4.8982   25.6518 C   0  0  0  0  0  0  0  0  0  0  0  0
   45.5526    4.4649   26.8368 O   0  0  0  0  0  0  0  0  0  0  0  0
   44.3474    6.3419   25.8114 C   0  0  0  0  0  0  0  0  0  0  0  0
   43.3759    6.3351   26.8288 O   0  0  0  0  0  0  0  0  0  0  0  0
   43.7525    6.8481   24.5102 C   0  0  0  0  0  0  0  0  0  0  0  0
   44.0845    6.2665   23.2927 C   0  0  0  0  0  0  0  0  0  0  0  0
   44.0766    4.0475   22.6907 O   0  0  0  0  0  0  0  0  0  0  0  0
   44.9463    5.1533   23.1306 C   0  0  0  0  0  0  0  0  0  0  0  0
   46.3266    5.0341   26.9701 H   0  0  0  0  0  0  0  0  0  0  0  0
   42.6511    5.7405   26.5798 H   0  0  0  0  0  0  0  0  0  0  0  0
   43.4900    3.7884   23.4184 H   0  0  0  0  0  0  0  0  0  0  0  0
   45.8914    5.5878   21.9941 C   0  0  0  0  0  0  0  0  0  0  0  0
   45.9712    6.9883   21.7485 O   0  0  0  0  0  0  0  0  0  0  0  0
   47.1309    4.9329   22.1081 O   0  0  0  0  0  0  0  0  0  0  0  0
   45.1873    7.4939   21.6604 H   0  0  0  0  0  0  0  0  0  0  0  0
  1  2  1  0  0  0
  1  9  1  0  0  0
  2  3  1  0  0  0
  2  4  1  0  0  0
  4  5  1  0  0  0
  4  6  1  0  0  0
  6  7  2  0  0  0
  7  9  1  0  0  0
 13 14  1  0  0  0
 13 15  2  0  0  0
 13  9  1  0  0  0
  8  9  1  0  0  0
  3 10  1  0  0  0
  5 11  1  0  0  0
 14 16  1  0  0  0
  8 12  1  0  0  0
M  END
> <minimizedAffinity>
-6.41404

$$$$
3N7A_FA1_A_147


 16 16  0  0  0  0  0  0  0  0999 V2000
   46.1102    6.6027   21.2883 C   0  0  0  0  0  0  0  0  0  0  0  0
   47.0081    6.0891   20.1747 C   0  0  0  0  0  0  0  0  0  0  0  0
   47.7140    7.1935   19.5461 O   0  0  0  0  0  0  0  0  0  0  0  0
   47.9977    5.0754   20.7546 C   0  0  0  0  0  0  0  0  0  0  0  0
   48.6639    4.4880   19.6637 O   0  0  0  0  0  0  0  0  0  0  0  0
   47.2634    4.0203   21.5613 C   0  0  0  0  0  0  0  0  0  0  0  0
   46.0000    4.2650   22.0854 C   0  0  0  0  0  0  0  0  0  0  0  0
   44.1252    5.0871   21.0385 O   0  0  0  0  0  0  0  0  0  0  0  0
   45.2602    5.4597   21.9021 C   0  0  0  0  0  0  0  0  0  0  0  0
   48.2626    7.6444   20.2068 H   0  0  0  0  0  0  0  0  0  0  0  0
   48.0162    4.0623   19.0804 H   0  0  0  0  0  0  0  0  0  0  0  0
   44.4514    4.8723   20.1506 H   0  0  0  0  0  0  0  0  0  0  0  0
   44.7729    5.8070   23.3217 C   0  0  0  0  0  0  0  0  0  0  0  0
   45.3490    5.0516   24.3826 O   0  0  0  0  0  0  0  0  0  0  0  0
   44.7749    7.2002   23.5150 O   0  0  0  0  0  0  0  0  0  0  0  0
   45.3843    4.1169   24.3267 H   0  0  0  0  0  0  0  0  0  0  0  0
  1  2  1  0  0  0
  1  9  1  0  0  0
  2  3  1  0  0  0
  2  4  1  0  0  0
  4  5  1  0  0  0
  4  6  1  0  0  0
  6  7  2  0  0  0
  7  9  1  0  0  0
 13 14  1  0  0  0
 13 15  2  0  0  0
 13  9  1  0  0  0
  8  9  1  0  0  0
  3 10  1  0  0  0
  5 11  1  0  0  0
 14 16  1  0  0  0
  8 12  1  0  0  0
M  END
> <minimizedAffinity>
-6.26500

$$$$
3N7A_FA1_A_147


 16 16  0  0  0  0  0  0  0  0999 V2000
   44.2745    5.8544   26.3831 C   0  0  0  0  0  0  0  0  0  0  0  0
   45.3195    5.1108   25.5676 C   0  0  0  0  0  0  0  0  0  0  0  0
   45.5223    3.7754   26.1050 O   0  0  0  0  0  0  0  0  0  0  0  0
   44.8624    5.0422   24.1083 C   0  0  0  0  0  0  0  0  0  0  0  0
   45.9425    4.5283   23.3677 O   0  0  0  0  0  0  0  0  0  0  0  0
   44.4820    6.4232   23.6070 C   0  0  0  0  0  0  0  0  0  0  0  0
   44.1270    7.4365   24.4891 C   0  0  0  0  0  0  0  0  0  0  0  0
   45.2229    8.1781   26.3694 O   0  0  0  0  0  0  0  0  0  0  0  0
   44.1192    7.3205   25.9014 C   0  0  0  0  0  0  0  0  0  0  0  0
   44.6881    3.2819   26.0681 H   0  0  0  0  0  0  0  0  0  0  0  0
   46.7127    5.1082   23.4746 H   0  0  0  0  0  0  0  0  0  0  0  0
   46.0705    7.7875   26.1047 H   0  0  0  0  0  0  0  0  0  0  0  0
   42.7575    7.9157   26.3075 C   0  0  0  0  0  0  0  0  0  0  0  0
   41.9123    7.0713   27.0825 O   0  0  0  0  0  0  0  0  0  0  0  0
   42.9214    9.2179   26.8131 O   0  0  0  0  0  0  0  0  0  0  0  0
   41.7545    6.1889   26.8098 H   0  0  0  0  0  0  0  0  0  0  0  0
  1  2  1  0  0  0
  1  9  1  0  0  0
  2  3  1  0  0  0
  2  4  1  0  0  0
  4  5  1  0  0  0
  4  6  1  0  0  0
  6  7  2  0  0  0
  7  9  1  0  0  0
 13 14  1  0  0  0
 13 15  2  0  0  0
 13  9  1  0  0  0
  8  9  1  0  0  0
  3 10  1  0  0  0
  5 11  1  0  0  0
 14 16  1  0  0  0
  8 12  1  0  0  0
M  END
> <minimizedAffinity>
-6.26382

$$$$
