5IVY_6EO_A_601


 22 23  0  0  0  0  0  0  0  0999 V2000
  -23.4314   21.2917    2.5155 N   0  0  0  0  0  0  0  0  0  0  0  0
  -24.7450   21.0626    2.5761 C   0  0  0  0  0  0  0  0  0  0  0  0
  -25.4889   21.2451    1.6294 O   0  0  0  0  0  0  0  0  0  0  0  0
  -22.9452   21.1728    3.3633 H   0  0  0  0  0  0  0  0  0  0  0  0
  -22.8490   22.8726    0.7435 C   0  0  0  0  0  0  0  0  0  0  0  0
  -20.7706   21.2696   -0.0322 C   0  0  0  0  0  0  0  0  0  0  0  0
  -21.5699   20.8811    1.0501 C   0  0  0  0  0  0  0  0  0  0  0  0
  -22.6385   21.6783    1.4181 C   0  0  0  0  0  0  0  0  0  0  0  0
  -22.1032   23.2816   -0.3208 N   0  0  0  0  0  0  0  0  0  0  0  0
  -21.0677   22.4626   -0.6714 C   0  0  0  0  0  0  0  0  0  0  0  0
  -20.8992   19.5846    2.9466 O   0  0  0  0  0  0  0  0  0  0  0  0
  -21.2574   19.5826    1.7625 C   0  0  0  0  0  0  0  0  0  0  0  0
  -21.4297   18.5430    1.0927 O   0  0  0  0  0  0  0  0  0  0  0  0
  -21.7021   18.6019    0.1981 H   0  0  0  0  0  0  0  0  0  0  0  0
  -25.3410   20.6593    3.9032 C   0  0  0  0  0  0  0  0  0  0  0  0
  -24.0440   18.5104    4.2916 C   0  0  0  0  0  0  0  0  0  0  0  0
  -24.1180   20.2161    5.9832 C   0  0  0  0  0  0  0  0  0  0  0  0
  -24.5028   19.7880    4.7231 C   0  0  0  0  0  0  0  0  0  0  0  0
  -23.2613   17.7213    5.1183 C   0  0  0  0  0  0  0  0  0  0  0  0
  -22.9213   18.2100    6.3893 C   0  0  0  0  0  0  0  0  0  0  0  0
  -21.9388   17.2622    7.4760 Cl  0  0  0  0  0  0  0  0  0  0  0  0
  -23.3486   19.4456    6.8032 C   0  0  0  0  0  0  0  0  0  0  0  0
  9  5  2  0  0  0
  9 10  1  0  0  0
  3  2  2  0  0  0
  5  8  1  0  0  0
 22 17  2  0  0  0
 22 20  1  0  0  0
 17 18  1  0  0  0
 21 20  1  0  0  0
 10  6  2  0  0  0
 20 19  2  0  0  0
  2 15  1  0  0  0
  2  1  1  0  0  0
  8  1  1  0  0  0
  8  7  2  0  0  0
 18 15  1  0  0  0
 18 16  2  0  0  0
  6  7  1  0  0  0
 19 16  1  0  0  0
  7 12  1  0  0  0
 12 11  2  0  0  0
 12 13  1  0  0  0
 13 14  1  0  0  0
  1  4  1  0  0  0
M  END
> <minimizedAffinity>
-8.43412

$$$$
5IVY_6EO_A_601


 22 23  0  0  0  0  0  0  0  0999 V2000
  -26.1967   21.3269    3.3861 N   0  0  0  0  0  0  0  0  0  0  0  0
  -25.4233   22.0451    4.2032 C   0  0  0  0  0  0  0  0  0  0  0  0
  -24.7320   22.9683    3.8121 O   0  0  0  0  0  0  0  0  0  0  0  0
  -26.6563   20.5643    3.8061 H   0  0  0  0  0  0  0  0  0  0  0  0
  -25.4317   21.5235    1.0721 C   0  0  0  0  0  0  0  0  0  0  0  0
  -28.0218   21.7257    0.2110 C   0  0  0  0  0  0  0  0  0  0  0  0
  -27.7636   21.5686    1.5784 C   0  0  0  0  0  0  0  0  0  0  0  0
  -26.4522   21.4990    2.0123 C   0  0  0  0  0  0  0  0  0  0  0  0
  -25.6387   21.6866   -0.2646 N   0  0  0  0  0  0  0  0  0  0  0  0
  -26.9439   21.7717   -0.6584 C   0  0  0  0  0  0  0  0  0  0  0  0
  -29.5047   22.5491    2.8954 O   0  0  0  0  0  0  0  0  0  0  0  0
  -28.9294   21.5125    2.5423 C   0  0  0  0  0  0  0  0  0  0  0  0
  -29.2789   20.3692    2.9026 O   0  0  0  0  0  0  0  0  0  0  0  0
  -28.8050   19.6183    2.6033 H   0  0  0  0  0  0  0  0  0  0  0  0
  -25.3279   21.6266    5.6505 C   0  0  0  0  0  0  0  0  0  0  0  0
  -23.6058   19.9087    4.9195 C   0  0  0  0  0  0  0  0  0  0  0  0
  -24.1105   20.2187    7.2488 C   0  0  0  0  0  0  0  0  0  0  0  0
  -24.3481   20.5804    5.9328 C   0  0  0  0  0  0  0  0  0  0  0  0
  -22.6984   18.9144    5.2460 C   0  0  0  0  0  0  0  0  0  0  0  0
  -22.5181   18.5867    6.5988 C   0  0  0  0  0  0  0  0  0  0  0  0
  -21.3901   17.3427    7.0726 Cl  0  0  0  0  0  0  0  0  0  0  0  0
  -23.2198   19.2409    7.5786 C   0  0  0  0  0  0  0  0  0  0  0  0
  9  5  2  0  0  0
  9 10  1  0  0  0
  3  2  2  0  0  0
  5  8  1  0  0  0
 22 17  2  0  0  0
 22 20  1  0  0  0
 17 18  1  0  0  0
 21 20  1  0  0  0
 10  6  2  0  0  0
 20 19  2  0  0  0
  2 15  1  0  0  0
  2  1  1  0  0  0
  8  1  1  0  0  0
  8  7  2  0  0  0
 18 15  1  0  0  0
 18 16  2  0  0  0
  6  7  1  0  0  0
 19 16  1  0  0  0
  7 12  1  0  0  0
 12 11  2  0  0  0
 12 13  1  0  0  0
 13 14  1  0  0  0
  1  4  1  0  0  0
M  END
> <minimizedAffinity>
-8.37065

$$$$
5IVY_6EO_A_601


 22 23  0  0  0  0  0  0  0  0999 V2000
  -26.3183   21.4859    4.1008 N   0  0  0  0  0  0  0  0  0  0  0  0
  -25.0049   21.4997    3.8634 C   0  0  0  0  0  0  0  0  0  0  0  0
  -24.3665   22.5314    3.7569 O   0  0  0  0  0  0  0  0  0  0  0  0
  -26.7358   20.5942    4.0984 H   0  0  0  0  0  0  0  0  0  0  0  0
  -26.8479   23.6094    5.1912 C   0  0  0  0  0  0  0  0  0  0  0  0
  -29.2753   23.6763    3.9284 C   0  0  0  0  0  0  0  0  0  0  0  0
  -28.4069   22.6040    3.6894 C   0  0  0  0  0  0  0  0  0  0  0  0
  -27.1949   22.5581    4.3543 C   0  0  0  0  0  0  0  0  0  0  0  0
  -27.6672   24.6642    5.4600 N   0  0  0  0  0  0  0  0  0  0  0  0
  -28.8647   24.6699    4.8027 C   0  0  0  0  0  0  0  0  0  0  0  0
  -28.9674   21.7462    1.5267 O   0  0  0  0  0  0  0  0  0  0  0  0
  -28.8375   21.5115    2.7343 C   0  0  0  0  0  0  0  0  0  0  0  0
  -29.0003   20.3824    3.2419 O   0  0  0  0  0  0  0  0  0  0  0  0
  -28.8884   20.2630    4.1645 H   0  0  0  0  0  0  0  0  0  0  0  0
  -24.3079   20.1836    3.6165 C   0  0  0  0  0  0  0  0  0  0  0  0
  -23.8775   19.7425    6.0804 C   0  0  0  0  0  0  0  0  0  0  0  0
  -22.2232   19.1789    4.4306 C   0  0  0  0  0  0  0  0  0  0  0  0
  -23.4723   19.7059    4.7153 C   0  0  0  0  0  0  0  0  0  0  0  0
  -23.0367   19.2870    7.0825 C   0  0  0  0  0  0  0  0  0  0  0  0
  -21.7778   18.7798    6.7249 C   0  0  0  0  0  0  0  0  0  0  0  0
  -20.6743   18.1920    7.9421 Cl  0  0  0  0  0  0  0  0  0  0  0  0
  -21.3894   18.7292    5.4108 C   0  0  0  0  0  0  0  0  0  0  0  0
  9  5  2  0  0  0
  9 10  1  0  0  0
  3  2  2  0  0  0
  5  8  1  0  0  0
 22 17  2  0  0  0
 22 20  1  0  0  0
 17 18  1  0  0  0
 21 20  1  0  0  0
 10  6  2  0  0  0
 20 19  2  0  0  0
  2 15  1  0  0  0
  2  1  1  0  0  0
  8  1  1  0  0  0
  8  7  2  0  0  0
 18 15  1  0  0  0
 18 16  2  0  0  0
  6  7  1  0  0  0
 19 16  1  0  0  0
  7 12  1  0  0  0
 12 11  2  0  0  0
 12 13  1  0  0  0
 13 14  1  0  0  0
  1  4  1  0  0  0
M  END
> <minimizedAffinity>
-8.27053

$$$$
5IVY_6EO_A_601


 22 23  0  0  0  0  0  0  0  0999 V2000
  -26.0765   21.7504    4.0263 N   0  0  0  0  0  0  0  0  0  0  0  0
  -24.8418   21.2496    3.9470 C   0  0  0  0  0  0  0  0  0  0  0  0
  -23.8768   21.9245    3.6365 O   0  0  0  0  0  0  0  0  0  0  0  0
  -26.7840   21.0938    4.2200 H   0  0  0  0  0  0  0  0  0  0  0  0
  -26.7080   23.6512    2.6239 C   0  0  0  0  0  0  0  0  0  0  0  0
  -27.2925   25.1282    4.8527 C   0  0  0  0  0  0  0  0  0  0  0  0
  -26.8412   23.8109    5.0014 C   0  0  0  0  0  0  0  0  0  0  0  0
  -26.5165   23.0791    3.8736 C   0  0  0  0  0  0  0  0  0  0  0  0
  -27.1333   24.9317    2.4354 N   0  0  0  0  0  0  0  0  0  0  0  0
  -27.4268   25.6340    3.5696 C   0  0  0  0  0  0  0  0  0  0  0  0
  -25.5947   22.8328    6.7950 O   0  0  0  0  0  0  0  0  0  0  0  0
  -26.6921   23.2407    6.3957 C   0  0  0  0  0  0  0  0  0  0  0  0
  -27.7228   23.2583    7.1003 O   0  0  0  0  0  0  0  0  0  0  0  0
  -28.5282   23.5789    6.7445 H   0  0  0  0  0  0  0  0  0  0  0  0
  -24.6565   19.7655    4.1520 C   0  0  0  0  0  0  0  0  0  0  0  0
  -23.7949   19.4959    6.5261 C   0  0  0  0  0  0  0  0  0  0  0  0
  -22.4124   18.9082    4.6499 C   0  0  0  0  0  0  0  0  0  0  0  0
  -23.6231   19.3944    5.1157 C   0  0  0  0  0  0  0  0  0  0  0  0
  -22.7740   19.1412    7.3924 C   0  0  0  0  0  0  0  0  0  0  0  0
  -21.5669   18.6707    6.8523 C   0  0  0  0  0  0  0  0  0  0  0  0
  -20.2441   18.2093    7.8923 Cl  0  0  0  0  0  0  0  0  0  0  0  0
  -21.4025   18.5576    5.4956 C   0  0  0  0  0  0  0  0  0  0  0  0
  9  5  2  0  0  0
  9 10  1  0  0  0
  3  2  2  0  0  0
  5  8  1  0  0  0
 22 17  2  0  0  0
 22 20  1  0  0  0
 17 18  1  0  0  0
 21 20  1  0  0  0
 10  6  2  0  0  0
 20 19  2  0  0  0
  2 15  1  0  0  0
  2  1  1  0  0  0
  8  1  1  0  0  0
  8  7  2  0  0  0
 18 15  1  0  0  0
 18 16  2  0  0  0
  6  7  1  0  0  0
 19 16  1  0  0  0
  7 12  1  0  0  0
 12 11  2  0  0  0
 12 13  1  0  0  0
 13 14  1  0  0  0
  1  4  1  0  0  0
M  END
> <minimizedAffinity>
-8.18631

$$$$
5IVY_6EO_A_601


 22 23  0  0  0  0  0  0  0  0999 V2000
  -24.5176   20.0325    4.6578 N   0  0  0  0  0  0  0  0  0  0  0  0
  -24.4726   21.0855    3.8389 C   0  0  0  0  0  0  0  0  0  0  0  0
  -23.5958   21.9286    3.8989 O   0  0  0  0  0  0  0  0  0  0  0  0
  -25.3102   19.4570    4.5581 H   0  0  0  0  0  0  0  0  0  0  0  0
  -23.8644   19.7602    6.9982 C   0  0  0  0  0  0  0  0  0  0  0  0
  -21.5210   18.5745    6.2280 C   0  0  0  0  0  0  0  0  0  0  0  0
  -22.4307   18.9956    5.2502 C   0  0  0  0  0  0  0  0  0  0  0  0
  -23.5989   19.6231    5.6430 C   0  0  0  0  0  0  0  0  0  0  0  0
  -23.0023   19.3756    7.9805 N   0  0  0  0  0  0  0  0  0  0  0  0
  -21.8491   18.7769    7.5590 C   0  0  0  0  0  0  0  0  0  0  0  0
  -22.4822   17.7674    3.1967 O   0  0  0  0  0  0  0  0  0  0  0  0
  -22.0903   18.7790    3.7912 C   0  0  0  0  0  0  0  0  0  0  0  0
  -21.4428   19.6963    3.2449 O   0  0  0  0  0  0  0  0  0  0  0  0
  -21.1714   20.4406    3.7454 H   0  0  0  0  0  0  0  0  0  0  0  0
  -25.6123   21.2883    2.8698 C   0  0  0  0  0  0  0  0  0  0  0  0
  -26.9185   22.7107    4.5196 C   0  0  0  0  0  0  0  0  0  0  0  0
  -28.0624   21.2522    2.9895 C   0  0  0  0  0  0  0  0  0  0  0  0
  -26.8621   21.7526    3.4670 C   0  0  0  0  0  0  0  0  0  0  0  0
  -28.1333   23.1042    5.0563 C   0  0  0  0  0  0  0  0  0  0  0  0
  -29.3109   22.5453    4.5357 C   0  0  0  0  0  0  0  0  0  0  0  0
  -30.8710   23.0006    5.1708 Cl  0  0  0  0  0  0  0  0  0  0  0  0
  -29.2620   21.6337    3.5125 C   0  0  0  0  0  0  0  0  0  0  0  0
  9  5  2  0  0  0
  9 10  1  0  0  0
  3  2  2  0  0  0
  5  8  1  0  0  0
 22 17  2  0  0  0
 22 20  1  0  0  0
 17 18  1  0  0  0
 21 20  1  0  0  0
 10  6  2  0  0  0
 20 19  2  0  0  0
  2 15  1  0  0  0
  2  1  1  0  0  0
  8  1  1  0  0  0
  8  7  2  0  0  0
 18 15  1  0  0  0
 18 16  2  0  0  0
  6  7  1  0  0  0
 19 16  1  0  0  0
  7 12  1  0  0  0
 12 11  2  0  0  0
 12 13  1  0  0  0
 13 14  1  0  0  0
  1  4  1  0  0  0
M  END
> <minimizedAffinity>
-8.17661

$$$$
5IVY_6EO_A_601


 22 23  0  0  0  0  0  0  0  0999 V2000
  -27.0800   22.8298    5.8231 N   0  0  0  0  0  0  0  0  0  0  0  0
  -25.7469   22.8226    5.8897 C   0  0  0  0  0  0  0  0  0  0  0  0
  -25.0505   23.5606    5.2161 O   0  0  0  0  0  0  0  0  0  0  0  0
  -27.5308   22.1421    6.3644 H   0  0  0  0  0  0  0  0  0  0  0  0
  -28.1646   24.9923    5.4683 C   0  0  0  0  0  0  0  0  0  0  0  0
  -29.3483   24.0480    3.1883 C   0  0  0  0  0  0  0  0  0  0  0  0
  -28.5069   23.2046    3.9245 C   0  0  0  0  0  0  0  0  0  0  0  0
  -27.9365   23.6758    5.0931 C   0  0  0  0  0  0  0  0  0  0  0  0
  -28.9846   25.8414    4.7880 N   0  0  0  0  0  0  0  0  0  0  0  0
  -29.5478   25.3395    3.6492 C   0  0  0  0  0  0  0  0  0  0  0  0
  -29.1471   20.9257    3.5721 O   0  0  0  0  0  0  0  0  0  0  0  0
  -28.2746   21.7917    3.4337 C   0  0  0  0  0  0  0  0  0  0  0  0
  -27.1855   21.5917    2.8567 O   0  0  0  0  0  0  0  0  0  0  0  0
  -26.5609   22.2861    2.7811 H   0  0  0  0  0  0  0  0  0  0  0  0
  -25.0790   21.7862    6.7608 C   0  0  0  0  0  0  0  0  0  0  0  0
  -24.7743   20.3840    4.6651 C   0  0  0  0  0  0  0  0  0  0  0  0
  -23.7842   19.7025    6.7463 C   0  0  0  0  0  0  0  0  0  0  0  0
  -24.5510   20.6234    6.0514 C   0  0  0  0  0  0  0  0  0  0  0  0
  -24.2591   19.2561    4.0480 C   0  0  0  0  0  0  0  0  0  0  0  0
  -23.5038   18.3556    4.8153 C   0  0  0  0  0  0  0  0  0  0  0  0
  -22.8293   16.9167    4.0948 Cl  0  0  0  0  0  0  0  0  0  0  0  0
  -23.2741   18.5896    6.1468 C   0  0  0  0  0  0  0  0  0  0  0  0
  9  5  2  0  0  0
  9 10  1  0  0  0
  3  2  2  0  0  0
  5  8  1  0  0  0
 22 17  2  0  0  0
 22 20  1  0  0  0
 17 18  1  0  0  0
 21 20  1  0  0  0
 10  6  2  0  0  0
 20 19  2  0  0  0
  2 15  1  0  0  0
  2  1  1  0  0  0
  8  1  1  0  0  0
  8  7  2  0  0  0
 18 15  1  0  0  0
 18 16  2  0  0  0
  6  7  1  0  0  0
 19 16  1  0  0  0
  7 12  1  0  0  0
 12 11  2  0  0  0
 12 13  1  0  0  0
 13 14  1  0  0  0
  1  4  1  0  0  0
M  END
> <minimizedAffinity>
-8.05034

$$$$
5IVY_6EO_A_601


 22 23  0  0  0  0  0  0  0  0999 V2000
  -26.5283   21.7340    4.5737 N   0  0  0  0  0  0  0  0  0  0  0  0
  -25.2714   21.6960    4.1259 C   0  0  0  0  0  0  0  0  0  0  0  0
  -24.6073   22.7004    3.9437 O   0  0  0  0  0  0  0  0  0  0  0  0
  -26.9851   20.8629    4.6161 H   0  0  0  0  0  0  0  0  0  0  0  0
  -26.8381   23.7305    5.9509 C   0  0  0  0  0  0  0  0  0  0  0  0
  -29.2738   24.1811    4.7867 C   0  0  0  0  0  0  0  0  0  0  0  0
  -28.5128   23.0779    4.3806 C   0  0  0  0  0  0  0  0  0  0  0  0
  -27.2971   22.8360    4.9943 C   0  0  0  0  0  0  0  0  0  0  0  0
  -27.5512   24.8080    6.3826 N   0  0  0  0  0  0  0  0  0  0  0  0
  -28.7560   25.0080    5.7707 C   0  0  0  0  0  0  0  0  0  0  0  0
  -29.0949   20.9410    3.4737 O   0  0  0  0  0  0  0  0  0  0  0  0
  -29.0612   22.1659    3.3041 C   0  0  0  0  0  0  0  0  0  0  0  0
  -29.5037   22.7366    2.2855 O   0  0  0  0  0  0  0  0  0  0  0  0
  -29.4514   23.6692    2.2110 H   0  0  0  0  0  0  0  0  0  0  0  0
  -24.6908   20.3585    3.7346 C   0  0  0  0  0  0  0  0  0  0  0  0
  -22.4218   19.3275    4.2238 C   0  0  0  0  0  0  0  0  0  0  0  0
  -23.9603   19.7995    6.0089 C   0  0  0  0  0  0  0  0  0  0  0  0
  -23.6868   19.8235    4.6510 C   0  0  0  0  0  0  0  0  0  0  0  0
  -21.5135   18.8195    5.1378 C   0  0  0  0  0  0  0  0  0  0  0  0
  -21.8615   18.8107    6.4975 C   0  0  0  0  0  0  0  0  0  0  0  0
  -20.7598   18.1829    7.6963 Cl  0  0  0  0  0  0  0  0  0  0  0  0
  -23.0723   19.3007    6.9149 C   0  0  0  0  0  0  0  0  0  0  0  0
  9  5  2  0  0  0
  9 10  1  0  0  0
  3  2  2  0  0  0
  5  8  1  0  0  0
 22 17  2  0  0  0
 22 20  1  0  0  0
 17 18  1  0  0  0
 21 20  1  0  0  0
 10  6  2  0  0  0
 20 19  2  0  0  0
  2 15  1  0  0  0
  2  1  1  0  0  0
  8  1  1  0  0  0
  8  7  2  0  0  0
 18 15  1  0  0  0
 18 16  2  0  0  0
  6  7  1  0  0  0
 19 16  1  0  0  0
  7 12  1  0  0  0
 12 11  2  0  0  0
 12 13  1  0  0  0
 13 14  1  0  0  0
  1  4  1  0  0  0
M  END
> <minimizedAffinity>
-8.03779

$$$$
5IVY_6EO_A_601


 22 23  0  0  0  0  0  0  0  0999 V2000
  -26.9188   22.9886    4.1587 N   0  0  0  0  0  0  0  0  0  0  0  0
  -26.3338   21.8745    3.7134 C   0  0  0  0  0  0  0  0  0  0  0  0
  -26.9659   20.8927    3.3674 O   0  0  0  0  0  0  0  0  0  0  0  0
  -26.3026   23.6893    4.4727 H   0  0  0  0  0  0  0  0  0  0  0  0
  -29.1296   23.2405    3.1451 C   0  0  0  0  0  0  0  0  0  0  0  0
  -30.1864   23.9349    5.5725 C   0  0  0  0  0  0  0  0  0  0  0  0
  -28.8230   23.6287    5.4799 C   0  0  0  0  0  0  0  0  0  0  0  0
  -28.2869   23.3096    4.2455 C   0  0  0  0  0  0  0  0  0  0  0  0
  -30.4576   23.5417    3.1893 N   0  0  0  0  0  0  0  0  0  0  0  0
  -30.9520   23.8718    4.4192 C   0  0  0  0  0  0  0  0  0  0  0  0
  -28.0413   24.6605    7.4928 O   0  0  0  0  0  0  0  0  0  0  0  0
  -27.9722   23.6887    6.7305 C   0  0  0  0  0  0  0  0  0  0  0  0
  -27.2543   22.6898    6.9448 O   0  0  0  0  0  0  0  0  0  0  0  0
  -27.2416   21.9817    6.3313 H   0  0  0  0  0  0  0  0  0  0  0  0
  -24.8264   21.7981    3.7385 C   0  0  0  0  0  0  0  0  0  0  0  0
  -23.5927   19.5909    3.9785 C   0  0  0  0  0  0  0  0  0  0  0  0
  -24.3951   20.7599    5.9191 C   0  0  0  0  0  0  0  0  0  0  0  0
  -24.2714   20.7102    4.5402 C   0  0  0  0  0  0  0  0  0  0  0  0
  -23.0982   18.5817    4.7881 C   0  0  0  0  0  0  0  0  0  0  0  0
  -23.2721   18.6878    6.1768 C   0  0  0  0  0  0  0  0  0  0  0  0
  -22.6720   17.4482    7.2483 Cl  0  0  0  0  0  0  0  0  0  0  0  0
  -23.9119   19.7707    6.7229 C   0  0  0  0  0  0  0  0  0  0  0  0
  9  5  2  0  0  0
  9 10  1  0  0  0
  3  2  2  0  0  0
  5  8  1  0  0  0
 22 17  2  0  0  0
 22 20  1  0  0  0
 17 18  1  0  0  0
 21 20  1  0  0  0
 10  6  2  0  0  0
 20 19  2  0  0  0
  2 15  1  0  0  0
  2  1  1  0  0  0
  8  1  1  0  0  0
  8  7  2  0  0  0
 18 15  1  0  0  0
 18 16  2  0  0  0
  6  7  1  0  0  0
 19 16  1  0  0  0
  7 12  1  0  0  0
 12 11  2  0  0  0
 12 13  1  0  0  0
 13 14  1  0  0  0
  1  4  1  0  0  0
M  END
> <minimizedAffinity>
-7.60471

$$$$
5IVY_6EO_A_601


 22 23  0  0  0  0  0  0  0  0999 V2000
  -25.5570   22.4547    4.4268 N   0  0  0  0  0  0  0  0  0  0  0  0
  -25.6621   21.2474    3.8673 C   0  0  0  0  0  0  0  0  0  0  0  0
  -26.7197   20.6489    3.7879 O   0  0  0  0  0  0  0  0  0  0  0  0
  -24.6404   22.8078    4.4937 H   0  0  0  0  0  0  0  0  0  0  0  0
  -26.9436   23.2668    6.2697 C   0  0  0  0  0  0  0  0  0  0  0  0
  -28.1278   25.0874    4.6042 C   0  0  0  0  0  0  0  0  0  0  0  0
  -27.1362   24.2378    4.0981 C   0  0  0  0  0  0  0  0  0  0  0  0
  -26.5635   23.2977    4.9354 C   0  0  0  0  0  0  0  0  0  0  0  0
  -27.9113   24.0664    6.7992 N   0  0  0  0  0  0  0  0  0  0  0  0
  -28.4709   24.9704    5.9416 C   0  0  0  0  0  0  0  0  0  0  0  0
  -27.1108   23.5022    1.8208 O   0  0  0  0  0  0  0  0  0  0  0  0
  -26.7461   24.3542    2.6402 C   0  0  0  0  0  0  0  0  0  0  0  0
  -26.0874   25.3705    2.3360 O   0  0  0  0  0  0  0  0  0  0  0  0
  -25.8381   25.9832    2.9996 H   0  0  0  0  0  0  0  0  0  0  0  0
  -24.3996   20.5584    3.4086 C   0  0  0  0  0  0  0  0  0  0  0  0
  -24.0114   19.9098    5.8334 C   0  0  0  0  0  0  0  0  0  0  0  0
  -22.3772   19.3849    4.1511 C   0  0  0  0  0  0  0  0  0  0  0  0
  -23.5986   19.9550    4.4708 C   0  0  0  0  0  0  0  0  0  0  0  0
  -23.2034   19.3355    6.8008 C   0  0  0  0  0  0  0  0  0  0  0  0
  -21.9706   18.7901    6.4100 C   0  0  0  0  0  0  0  0  0  0  0  0
  -20.9088   18.0539    7.5826 Cl  0  0  0  0  0  0  0  0  0  0  0  0
  -21.5757   18.8184    5.0971 C   0  0  0  0  0  0  0  0  0  0  0  0
  9  5  2  0  0  0
  9 10  1  0  0  0
  3  2  2  0  0  0
  5  8  1  0  0  0
 22 17  2  0  0  0
 22 20  1  0  0  0
 17 18  1  0  0  0
 21 20  1  0  0  0
 10  6  2  0  0  0
 20 19  2  0  0  0
  2 15  1  0  0  0
  2  1  1  0  0  0
  8  1  1  0  0  0
  8  7  2  0  0  0
 18 15  1  0  0  0
 18 16  2  0  0  0
  6  7  1  0  0  0
 19 16  1  0  0  0
  7 12  1  0  0  0
 12 11  2  0  0  0
 12 13  1  0  0  0
 13 14  1  0  0  0
  1  4  1  0  0  0
M  END
> <minimizedAffinity>
-7.44346

$$$$
5IVY_6EO_A_601


 22 23  0  0  0  0  0  0  0  0999 V2000
  -25.5331   22.2649    2.9178 N   0  0  0  0  0  0  0  0  0  0  0  0
  -25.1111   22.0479    4.1653 C   0  0  0  0  0  0  0  0  0  0  0  0
  -24.4794   22.8739    4.7992 O   0  0  0  0  0  0  0  0  0  0  0  0
  -25.9739   21.4986    2.4846 H   0  0  0  0  0  0  0  0  0  0  0  0
  -26.4270   24.4044    2.1418 C   0  0  0  0  0  0  0  0  0  0  0  0
  -24.1967   24.8032    0.6063 C   0  0  0  0  0  0  0  0  0  0  0  0
  -24.2980   23.6406    1.3804 C   0  0  0  0  0  0  0  0  0  0  0  0
  -25.4408   23.4281    2.1298 C   0  0  0  0  0  0  0  0  0  0  0  0
  -26.3734   25.5429    1.3953 N   0  0  0  0  0  0  0  0  0  0  0  0
  -25.2405   25.7135    0.6514 C   0  0  0  0  0  0  0  0  0  0  0  0
  -23.3479   21.4964    0.9036 O   0  0  0  0  0  0  0  0  0  0  0  0
  -23.1653   22.6370    1.3463 C   0  0  0  0  0  0  0  0  0  0  0  0
  -22.0590   23.0562    1.7456 O   0  0  0  0  0  0  0  0  0  0  0  0
  -21.9793   23.9311    2.0714 H   0  0  0  0  0  0  0  0  0  0  0  0
  -25.3405   20.6847    4.7719 C   0  0  0  0  0  0  0  0  0  0  0  0
  -23.0855   19.5242    4.6330 C   0  0  0  0  0  0  0  0  0  0  0  0
  -24.0774   20.0165    6.7661 C   0  0  0  0  0  0  0  0  0  0  0  0
  -24.1653   20.0701    5.3846 C   0  0  0  0  0  0  0  0  0  0  0  0
  -22.0016   18.9415    5.2688 C   0  0  0  0  0  0  0  0  0  0  0  0
  -21.9842   18.9069    6.6719 C   0  0  0  0  0  0  0  0  0  0  0  0
  -20.6470   18.1857    7.5299 Cl  0  0  0  0  0  0  0  0  0  0  0  0
  -23.0147   19.4443    7.3996 C   0  0  0  0  0  0  0  0  0  0  0  0
  9  5  2  0  0  0
  9 10  1  0  0  0
  3  2  2  0  0  0
  5  8  1  0  0  0
 22 17  2  0  0  0
 22 20  1  0  0  0
 17 18  1  0  0  0
 21 20  1  0  0  0
 10  6  2  0  0  0
 20 19  2  0  0  0
  2 15  1  0  0  0
  2  1  1  0  0  0
  8  1  1  0  0  0
  8  7  2  0  0  0
 18 15  1  0  0  0
 18 16  2  0  0  0
  6  7  1  0  0  0
 19 16  1  0  0  0
  7 12  1  0  0  0
 12 11  2  0  0  0
 12 13  1  0  0  0
 13 14  1  0  0  0
  1  4  1  0  0  0
M  END
> <minimizedAffinity>
-7.30763

$$$$
