4NP9_I3P_A_601
  RCSB PDB12061713563D
Coordinates from PDB:4NP9:A:601 Model:1 without hydrogens
 24 24  0  0  0  0            999 V2000
   14.4520    1.6120   38.9690   C 0  0  0  0  0  0  0  0  0  0  0  0
   13.4470    1.0010   37.9960   C 0  0  0  0  0  0  0  0  0  0  0  0
   12.1280    0.6360   38.6610   C 0  0  0  0  0  0  0  0  0  0  0  0
   11.5700    1.7320   39.5800   C 0  0  0  0  0  0  0  0  0  0  0  0
   12.6610    2.2760   40.4720   C 0  0  0  0  0  0  0  0  0  0  0  0
   13.8180    2.8010   39.6740   C 0  0  0  0  0  0  0  0  0  0  0  0
   15.6650    2.0110   38.3270   O 0  0  0  0  0  0  0  0  0  0  0  0
   13.1870    1.9350   36.9330   O 0  0  0  0  0  0  0  0  0  0  0  0
   11.1620    0.3520   37.6660   O 0  0  0  0  0  0  0  0  0  0  0  0
   10.5530    1.2170   40.4180   O 0  0  0  0  0  0  0  0  0  0  0  0
   12.1610    3.3150   41.3260   O 0  0  0  0  0  0  0  0  0  0  0  0
   14.7220    3.4380   40.5710   O 0  0  0  0  0  0  0  0  0  0  0  0
   17.0270    1.7850   39.1470   P 0  0  0  0  0  0  0  0  0  0  0  0
   17.3950    0.3270   39.1440   O 0  0  0  0  0  0  0  0  0  0  0  0
   16.8120    2.2370   40.5870   O 0  0  0  0  0  0  0  0  0  0  0  0
   18.1460    2.5990   38.5290   O 0  0  0  0  0  0  0  0  0  0  0  0
    9.2440    2.1200   40.7850   P 0  0  0  0  0  0  0  0  0  0  0  0
    8.5720    2.5790   39.5110   O 0  0  0  0  0  0  0  0  0  0  0  0
    9.6010    3.3340   41.6090   O 0  0  0  0  0  0  0  0  0  0  0  0
    8.2730    1.2810   41.5850   O 0  0  0  0  0  0  0  0  0  0  0  0
   12.7230    3.3790   42.8100   P 0  0  0  0  0  0  0  0  0  0  0  0
   13.7350    4.5040   42.8920   O 0  0  0  0  0  0  0  0  0  0  0  0
   13.3970    2.0870   43.1900   O 0  0  0  0  0  0  0  0  0  0  0  0
   11.5850    3.6450   43.7750   O 0  0  0  0  0  0  0  0  0  0  0  0
  1  2  1  0  0  0  0
  1  6  1  0  0  0  0
  1  7  1  0  0  0  0
  2  3  1  0  0  0  0
  2  8  1  0  0  0  0
  3  4  1  0  0  0  0
  3  9  1  0  0  0  0
  4  5  1  0  0  0  0
  4 10  1  0  0  0  0
  5  6  1  0  0  0  0
  5 11  1  0  0  0  0
  6 12  1  0  0  0  0
  7 13  1  0  0  0  0
 10 17  1  0  0  0  0
 11 21  1  0  0  0  0
 13 14  2  0  0  0  0
 13 15  1  0  0  0  0
 13 16  1  0  0  0  0
 17 18  2  0  0  0  0
 17 19  1  0  0  0  0
 17 20  1  0  0  0  0
 21 22  2  0  0  0  0
 21 23  1  0  0  0  0
 21 24  1  0  0  0  0
A    1
C1
A    2
C2
A    3
C3
A    4
C4
A    5
C5
A    6
C6
A    7
O1
A    8
O2
A    9
O3
A   10
O4
A   11
O5
A   12
O6
A   13
P1
A   14
O11
A   15
O12
A   16
O13
A   17
P4
A   18
O41
A   19
O42
A   20
O43
A   21
P5
A   22
O51
A   23
O52
A   24
O53
M  END
>  <InstanceId>
4NP9_I3P_A_601

>  <ChemCompId>
I3P

>  <PdbId>
4NP9

>  <ChainId>
A

>  <ResidueNumber>
601

>  <InsertionCode>


>  <Model>
1

>  <AltIds>


>  <MissingHeavyAtoms>
0

>  <ObservedFormula>
C6 O15 P3

>  <Name>
D-MYO-INOSITOL-1,4,5-TRIPHOSPHATE

>  <SystematicName>
[(1R,2R,3S,4R,5R,6S)-2,3,6-trihydroxy-4,5-diphosphonooxy-cyclohexyl] dihydrogen phosphate

>  <Synonyms>


>  <Type>
NON-POLYMER

>  <Formula>
C6 H15 O15 P3

>  <MolecularWeight>
420.096

>  <ModifiedDate>
2011-06-04

>  <Parent>


>  <OneLetterCode>


>  <SubcomponentList>


>  <AmbiguousFlag>
N

>  <InChI>
InChI=1S/C6H15O15P3/c7-1-2(8)5(20-23(13,14)15)6(21-24(16,17)18)3(9)4(1)19-22(10,11)12/h1-9H,(H2,10,11,12)(H2,13,14,15)(H2,16,17,18)/t1-,2+,3+,4-,5-,6-/m1/s1

>  <InChIKey>
MMWCIQZXVOZEGG-XJTPDSDZSA-N

>  <SMILES>
[C@H]1([C@@H]([C@H]([C@@H]([C@H]([C@@H]1OP(=O)(O)O)O)OP(=O)(O)O)OP(=O)(O)O)O)O

$$$$
