4NP9_I3P_A_601


 33 33  0  0  0  0  0  0  0  0999 V2000
   12.9620    1.5618   39.5765 C   0  0  0  0  0  0  0  0  0  0  0  0
   12.0976    0.3289   39.8272 C   0  0  0  0  0  0  0  0  0  0  0  0
   12.0711   -0.0862   41.2908 C   0  0  0  0  0  0  0  0  0  0  0  0
   11.8505    1.0801   42.2646 C   0  0  0  0  0  0  0  0  0  0  0  0
   12.7378    2.2463   41.8979 C   0  0  0  0  0  0  0  0  0  0  0  0
   12.5075    2.6939   40.4845 C   0  0  0  0  0  0  0  0  0  0  0  0
   10.7511    0.5976   39.3974 O   0  0  0  0  0  0  0  0  0  0  0  0
   11.0422   -1.0373   41.4917 O   0  0  0  0  0  0  0  0  0  0  0  0
   13.2547    3.8870   40.2704 O   0  0  0  0  0  0  0  0  0  0  0  0
   10.3856    1.3300   39.9179 H   0  0  0  0  0  0  0  0  0  0  0  0
   10.1838   -0.6322   41.2919 H   0  0  0  0  0  0  0  0  0  0  0  0
   14.1928    3.7176   40.4498 H   0  0  0  0  0  0  0  0  0  0  0  0
   12.9326    1.9847   38.2115 O   0  0  0  0  0  0  0  0  0  0  0  0
   14.3338    1.9994   37.4273 P   0  0  0  0  0  0  0  0  0  0  0  0
   14.7507    0.5946   37.0898 O   0  0  0  0  0  0  0  0  0  0  0  0
   15.3923    2.6256   38.3282 O   0  0  0  0  0  0  0  0  0  0  0  0
   14.2095    2.8179   36.1579 O   0  0  0  0  0  0  0  0  0  0  0  0
   15.4742    2.1039   39.1418 H   0  0  0  0  0  0  0  0  0  0  0  0
   13.5365    2.4218   35.5824 H   0  0  0  0  0  0  0  0  0  0  0  0
   12.1745    0.6991   43.5881 O   0  0  0  0  0  0  0  0  0  0  0  0
   11.0735    0.8386   44.7847 P   0  0  0  0  0  0  0  0  0  0  0  0
   11.2983   -0.2499   45.8093 O   0  0  0  0  0  0  0  0  0  0  0  0
    9.6570    0.7359   44.2716 O   0  0  0  0  0  0  0  0  0  0  0  0
   11.2334    2.1876   45.4490 O   0  0  0  0  0  0  0  0  0  0  0  0
    9.5309   -0.1237   43.8403 H   0  0  0  0  0  0  0  0  0  0  0  0
   12.1382    2.2763   45.7872 H   0  0  0  0  0  0  0  0  0  0  0  0
   12.5317    3.3530   42.7875 O   0  0  0  0  0  0  0  0  0  0  0  0
   13.7744    3.8474   43.6439 P   0  0  0  0  0  0  0  0  0  0  0  0
   14.9676    3.9897   42.7206 O   0  0  0  0  0  0  0  0  0  0  0  0
   14.1116    2.8592   44.7291 O   0  0  0  0  0  0  0  0  0  0  0  0
   13.4564    5.1871   44.2772 O   0  0  0  0  0  0  0  0  0  0  0  0
   14.3163    1.9988   44.3307 H   0  0  0  0  0  0  0  0  0  0  0  0
   13.2381    5.8290   43.5835 H   0  0  0  0  0  0  0  0  0  0  0  0
  1  2  1  0  0  0
  1  6  1  0  0  0
  1 13  1  0  0  0
  2  3  1  0  0  0
  2  7  1  0  0  0
  3  4  1  0  0  0
  3  8  1  0  0  0
  4  5  1  0  0  0
  4 20  1  0  0  0
  5  6  1  0  0  0
  5 27  1  0  0  0
  6  9  1  0  0  0
 13 14  1  0  0  0
 20 21  1  0  0  0
 27 28  1  0  0  0
 14 15  2  0  0  0
 14 16  1  0  0  0
 14 17  1  0  0  0
 21 22  2  0  0  0
 21 23  1  0  0  0
 21 24  1  0  0  0
 28 29  2  0  0  0
 28 30  1  0  0  0
 28 31  1  0  0  0
  7 10  1  0  0  0
  8 11  1  0  0  0
  9 12  1  0  0  0
 16 18  1  0  0  0
 17 19  1  0  0  0
 23 25  1  0  0  0
 24 26  1  0  0  0
 30 32  1  0  0  0
 31 33  1  0  0  0
M  END
> <minimizedAffinity>
-5.57420

$$$$
4NP9_I3P_A_601


 33 33  0  0  0  0  0  0  0  0999 V2000
   15.7524    3.8563   43.3854 C   0  0  0  0  0  0  0  0  0  0  0  0
   14.5433    3.9005   44.3160 C   0  0  0  0  0  0  0  0  0  0  0  0
   13.2195    3.8519   43.5673 C   0  0  0  0  0  0  0  0  0  0  0  0
   13.1646    2.7804   42.4691 C   0  0  0  0  0  0  0  0  0  0  0  0
   14.4238    2.8169   41.6354 C   0  0  0  0  0  0  0  0  0  0  0  0
   15.6516    2.6391   42.4792 C   0  0  0  0  0  0  0  0  0  0  0  0
   14.6025    2.7868   45.2249 O   0  0  0  0  0  0  0  0  0  0  0  0
   12.1690    3.6070   44.4839 O   0  0  0  0  0  0  0  0  0  0  0  0
   16.7734    2.5224   41.6100 O   0  0  0  0  0  0  0  0  0  0  0  0
   14.5637    1.9576   44.7232 H   0  0  0  0  0  0  0  0  0  0  0  0
   12.2972    2.7395   44.8985 H   0  0  0  0  0  0  0  0  0  0  0  0
   16.8298    3.3105   41.0474 H   0  0  0  0  0  0  0  0  0  0  0  0
   16.9921    3.8382   44.0963 O   0  0  0  0  0  0  0  0  0  0  0  0
   17.9859    5.0756   43.8513 P   0  0  0  0  0  0  0  0  0  0  0  0
   19.2714    4.8611   44.6014 O   0  0  0  0  0  0  0  0  0  0  0  0
   17.3203    6.3470   44.3657 O   0  0  0  0  0  0  0  0  0  0  0  0
   18.2732    5.2252   42.3708 O   0  0  0  0  0  0  0  0  0  0  0  0
   17.1351    6.2544   45.3133 H   0  0  0  0  0  0  0  0  0  0  0  0
   18.6968    4.4175   42.0405 H   0  0  0  0  0  0  0  0  0  0  0  0
   12.0720    3.0065   41.5990 O   0  0  0  0  0  0  0  0  0  0  0  0
   10.8189    1.9620   41.5521 P   0  0  0  0  0  0  0  0  0  0  0  0
   10.6214    1.3462   42.9185 O   0  0  0  0  0  0  0  0  0  0  0  0
   11.0362    0.8548   40.5485 O   0  0  0  0  0  0  0  0  0  0  0  0
    9.5656    2.7107   41.1581 O   0  0  0  0  0  0  0  0  0  0  0  0
   11.8370    0.3596   40.7818 H   0  0  0  0  0  0  0  0  0  0  0  0
    9.4056    3.4287   41.7904 H   0  0  0  0  0  0  0  0  0  0  0  0
   14.3977    1.8092   40.6143 O   0  0  0  0  0  0  0  0  0  0  0  0
   14.1988    2.2900   39.1138 P   0  0  0  0  0  0  0  0  0  0  0  0
   13.1811    1.3842   38.4503 O   0  0  0  0  0  0  0  0  0  0  0  0
   15.4921    2.2168   38.3458 O   0  0  0  0  0  0  0  0  0  0  0  0
   13.6957    3.7196   39.0991 O   0  0  0  0  0  0  0  0  0  0  0  0
   15.8201    1.3040   38.3511 H   0  0  0  0  0  0  0  0  0  0  0  0
   12.8623    3.7742   39.5923 H   0  0  0  0  0  0  0  0  0  0  0  0
  1  2  1  0  0  0
  1  6  1  0  0  0
  1 13  1  0  0  0
  2  3  1  0  0  0
  2  7  1  0  0  0
  3  4  1  0  0  0
  3  8  1  0  0  0
  4  5  1  0  0  0
  4 20  1  0  0  0
  5  6  1  0  0  0
  5 27  1  0  0  0
  6  9  1  0  0  0
 13 14  1  0  0  0
 20 21  1  0  0  0
 27 28  1  0  0  0
 14 15  2  0  0  0
 14 16  1  0  0  0
 14 17  1  0  0  0
 21 22  2  0  0  0
 21 23  1  0  0  0
 21 24  1  0  0  0
 28 29  2  0  0  0
 28 30  1  0  0  0
 28 31  1  0  0  0
  7 10  1  0  0  0
  8 11  1  0  0  0
  9 12  1  0  0  0
 16 18  1  0  0  0
 17 19  1  0  0  0
 23 25  1  0  0  0
 24 26  1  0  0  0
 30 32  1  0  0  0
 31 33  1  0  0  0
M  END
> <minimizedAffinity>
-5.33209

$$$$
4NP9_I3P_A_601


 33 33  0  0  0  0  0  0  0  0999 V2000
   10.9588    0.9472   40.9440 C   0  0  0  0  0  0  0  0  0  0  0  0
   11.0819   -0.4559   41.5323 C   0  0  0  0  0  0  0  0  0  0  0  0
   12.2178   -0.5774   42.5375 C   0  0  0  0  0  0  0  0  0  0  0  0
   12.2724    0.5696   43.5566 C   0  0  0  0  0  0  0  0  0  0  0  0
   12.1118    1.9002   42.8598 C   0  0  0  0  0  0  0  0  0  0  0  0
   10.8372    1.9615   42.0707 C   0  0  0  0  0  0  0  0  0  0  0  0
    9.8480   -0.8080   42.1830 O   0  0  0  0  0  0  0  0  0  0  0  0
   12.0927   -1.7977   43.2438 O   0  0  0  0  0  0  0  0  0  0  0  0
   10.6818    3.2901   41.5827 O   0  0  0  0  0  0  0  0  0  0  0  0
    9.6797   -0.1914   42.9126 H   0  0  0  0  0  0  0  0  0  0  0  0
   11.2628   -1.7971   43.7460 H   0  0  0  0  0  0  0  0  0  0  0  0
   11.4535    3.5298   41.0461 H   0  0  0  0  0  0  0  0  0  0  0  0
    9.8517    1.0721   40.0488 O   0  0  0  0  0  0  0  0  0  0  0  0
   10.1749    0.9755   38.4789 P   0  0  0  0  0  0  0  0  0  0  0  0
    9.1714    1.7758   37.6955 O   0  0  0  0  0  0  0  0  0  0  0  0
   10.0854   -0.4846   38.0498 O   0  0  0  0  0  0  0  0  0  0  0  0
   11.5726    1.4929   38.2040 O   0  0  0  0  0  0  0  0  0  0  0  0
    9.1917   -0.8187   38.2245 H   0  0  0  0  0  0  0  0  0  0  0  0
   11.6328    2.4220   38.4761 H   0  0  0  0  0  0  0  0  0  0  0  0
   13.5180    0.5885   44.2273 O   0  0  0  0  0  0  0  0  0  0  0  0
   13.5860    0.4792   45.8542 P   0  0  0  0  0  0  0  0  0  0  0  0
   14.8769    1.0906   46.3494 O   0  0  0  0  0  0  0  0  0  0  0  0
   13.5118   -0.9507   46.3338 O   0  0  0  0  0  0  0  0  0  0  0  0
   12.4182    1.2332   46.4497 O   0  0  0  0  0  0  0  0  0  0  0  0
   14.2532   -1.4548   45.9634 H   0  0  0  0  0  0  0  0  0  0  0  0
   12.4453    2.1568   46.1546 H   0  0  0  0  0  0  0  0  0  0  0  0
   12.1423    2.9836   43.8001 O   0  0  0  0  0  0  0  0  0  0  0  0
   13.3590    4.0003   43.7088 P   0  0  0  0  0  0  0  0  0  0  0  0
   13.6533    4.2668   42.2463 O   0  0  0  0  0  0  0  0  0  0  0  0
   14.5916    3.4295   44.3590 O   0  0  0  0  0  0  0  0  0  0  0  0
   12.9917    5.2981   44.4001 O   0  0  0  0  0  0  0  0  0  0  0  0
   14.8325    2.5981   43.9213 H   0  0  0  0  0  0  0  0  0  0  0  0
   12.1980    5.6716   43.9861 H   0  0  0  0  0  0  0  0  0  0  0  0
  1  2  1  0  0  0
  1  6  1  0  0  0
  1 13  1  0  0  0
  2  3  1  0  0  0
  2  7  1  0  0  0
  3  4  1  0  0  0
  3  8  1  0  0  0
  4  5  1  0  0  0
  4 20  1  0  0  0
  5  6  1  0  0  0
  5 27  1  0  0  0
  6  9  1  0  0  0
 13 14  1  0  0  0
 20 21  1  0  0  0
 27 28  1  0  0  0
 14 15  2  0  0  0
 14 16  1  0  0  0
 14 17  1  0  0  0
 21 22  2  0  0  0
 21 23  1  0  0  0
 21 24  1  0  0  0
 28 29  2  0  0  0
 28 30  1  0  0  0
 28 31  1  0  0  0
  7 10  1  0  0  0
  8 11  1  0  0  0
  9 12  1  0  0  0
 16 18  1  0  0  0
 17 19  1  0  0  0
 23 25  1  0  0  0
 24 26  1  0  0  0
 30 32  1  0  0  0
 31 33  1  0  0  0
M  END
> <minimizedAffinity>
-5.23225

$$$$
4NP9_I3P_A_601


 33 33  0  0  0  0  0  0  0  0999 V2000
   14.3052    1.5264   37.7159 C   0  0  0  0  0  0  0  0  0  0  0  0
   12.9339    1.1650   37.1512 C   0  0  0  0  0  0  0  0  0  0  0  0
   11.9283    0.7969   38.2322 C   0  0  0  0  0  0  0  0  0  0  0  0
   11.9140    1.7642   39.4243 C   0  0  0  0  0  0  0  0  0  0  0  0
   13.3243    2.0666   39.8731 C   0  0  0  0  0  0  0  0  0  0  0  0
   14.1529    2.6266   38.7546 C   0  0  0  0  0  0  0  0  0  0  0  0
   12.4203    2.2801   36.4011 O   0  0  0  0  0  0  0  0  0  0  0  0
   10.6287    0.7576   37.6724 O   0  0  0  0  0  0  0  0  0  0  0  0
   15.4065    3.0340   39.2932 O   0  0  0  0  0  0  0  0  0  0  0  0
   12.3097    3.0427   36.9903 H   0  0  0  0  0  0  0  0  0  0  0  0
   10.3905    1.6394   37.3460 H   0  0  0  0  0  0  0  0  0  0  0  0
   15.8365    2.2766   39.7202 H   0  0  0  0  0  0  0  0  0  0  0  0
   15.2270    1.9323   36.7018 O   0  0  0  0  0  0  0  0  0  0  0  0
   16.5360    1.0229   36.5066 P   0  0  0  0  0  0  0  0  0  0  0  0
   16.1448   -0.4232   36.3765 O   0  0  0  0  0  0  0  0  0  0  0  0
   17.4308    1.1841   37.7304 O   0  0  0  0  0  0  0  0  0  0  0  0
   17.2945    1.4635   35.2708 O   0  0  0  0  0  0  0  0  0  0  0  0
   16.9480    0.9027   38.5232 H   0  0  0  0  0  0  0  0  0  0  0  0
   16.7277    1.3621   34.4903 H   0  0  0  0  0  0  0  0  0  0  0  0
   11.2300    1.1966   40.5252 O   0  0  0  0  0  0  0  0  0  0  0  0
    9.8853    1.9041   41.1207 P   0  0  0  0  0  0  0  0  0  0  0  0
    9.4281    1.1631   42.3565 O   0  0  0  0  0  0  0  0  0  0  0  0
    8.7560    1.9178   40.1184 O   0  0  0  0  0  0  0  0  0  0  0  0
   10.2015    3.3365   41.4883 O   0  0  0  0  0  0  0  0  0  0  0  0
    8.5354    1.0071   39.8674 H   0  0  0  0  0  0  0  0  0  0  0  0
   10.9262    3.3524   42.1330 H   0  0  0  0  0  0  0  0  0  0  0  0
   13.3307    2.9843   40.9761 O   0  0  0  0  0  0  0  0  0  0  0  0
   14.2597    2.6348   42.2159 P   0  0  0  0  0  0  0  0  0  0  0  0
   15.0180    1.3605   41.9035 O   0  0  0  0  0  0  0  0  0  0  0  0
   13.4420    2.4235   43.4627 O   0  0  0  0  0  0  0  0  0  0  0  0
   15.2395    3.7664   42.4536 O   0  0  0  0  0  0  0  0  0  0  0  0
   12.8122    1.7001   43.3177 H   0  0  0  0  0  0  0  0  0  0  0  0
   15.7700    3.9081   41.6539 H   0  0  0  0  0  0  0  0  0  0  0  0
  1  2  1  0  0  0
  1  6  1  0  0  0
  1 13  1  0  0  0
  2  3  1  0  0  0
  2  7  1  0  0  0
  3  4  1  0  0  0
  3  8  1  0  0  0
  4  5  1  0  0  0
  4 20  1  0  0  0
  5  6  1  0  0  0
  5 27  1  0  0  0
  6  9  1  0  0  0
 13 14  1  0  0  0
 20 21  1  0  0  0
 27 28  1  0  0  0
 14 15  2  0  0  0
 14 16  1  0  0  0
 14 17  1  0  0  0
 21 22  2  0  0  0
 21 23  1  0  0  0
 21 24  1  0  0  0
 28 29  2  0  0  0
 28 30  1  0  0  0
 28 31  1  0  0  0
  7 10  1  0  0  0
  8 11  1  0  0  0
  9 12  1  0  0  0
 16 18  1  0  0  0
 17 19  1  0  0  0
 23 25  1  0  0  0
 24 26  1  0  0  0
 30 32  1  0  0  0
 31 33  1  0  0  0
M  END
> <minimizedAffinity>
-5.12891

$$$$
4NP9_I3P_A_601


 33 33  0  0  0  0  0  0  0  0999 V2000
    9.4490    1.3259   40.9203 C   0  0  0  0  0  0  0  0  0  0  0  0
    9.8723    0.9648   39.4988 C   0  0  0  0  0  0  0  0  0  0  0  0
   11.1565    1.6596   39.0706 C   0  0  0  0  0  0  0  0  0  0  0  0
   12.2736    1.6063   40.1224 C   0  0  0  0  0  0  0  0  0  0  0  0
   11.7276    1.9537   41.4873 C   0  0  0  0  0  0  0  0  0  0  0  0
   10.5971    1.0480   41.8782 C   0  0  0  0  0  0  0  0  0  0  0  0
   10.0627   -0.4583   39.4070 O   0  0  0  0  0  0  0  0  0  0  0  0
   11.6367    1.0675   37.8778 O   0  0  0  0  0  0  0  0  0  0  0  0
   10.2494    1.3314   43.2296 O   0  0  0  0  0  0  0  0  0  0  0  0
   10.7737   -0.7289   40.0087 H   0  0  0  0  0  0  0  0  0  0  0  0
   11.8544    0.1369   38.0437 H   0  0  0  0  0  0  0  0  0  0  0  0
   10.0104    2.2679   43.3124 H   0  0  0  0  0  0  0  0  0  0  0  0
    8.2778    0.6223   41.3399 O   0  0  0  0  0  0  0  0  0  0  0  0
    7.0790    1.5050   41.9417 P   0  0  0  0  0  0  0  0  0  0  0  0
    5.7556    0.9627   41.4773 O   0  0  0  0  0  0  0  0  0  0  0  0
    7.2281    2.9378   41.4428 O   0  0  0  0  0  0  0  0  0  0  0  0
    7.1362    1.4942   43.4561 O   0  0  0  0  0  0  0  0  0  0  0  0
    7.1919    2.9481   40.4735 H   0  0  0  0  0  0  0  0  0  0  0  0
    7.0416    0.5836   43.7767 H   0  0  0  0  0  0  0  0  0  0  0  0
   13.2931    2.5402   39.8220 O   0  0  0  0  0  0  0  0  0  0  0  0
   14.8287    2.0431   39.5806 P   0  0  0  0  0  0  0  0  0  0  0  0
   15.2916    2.4767   38.2084 O   0  0  0  0  0  0  0  0  0  0  0  0
   14.9663    0.5430   39.6867 O   0  0  0  0  0  0  0  0  0  0  0  0
   15.7218    2.6697   40.6277 O   0  0  0  0  0  0  0  0  0  0  0  0
   14.4007    0.1187   39.0227 H   0  0  0  0  0  0  0  0  0  0  0  0
   15.6495    3.6357   40.5782 H   0  0  0  0  0  0  0  0  0  0  0  0
   12.7551    1.8913   42.4868 O   0  0  0  0  0  0  0  0  0  0  0  0
   13.1367    3.2408   43.2321 P   0  0  0  0  0  0  0  0  0  0  0  0
   14.2490    2.9466   44.2184 O   0  0  0  0  0  0  0  0  0  0  0  0
   11.9551    3.7989   43.9806 O   0  0  0  0  0  0  0  0  0  0  0  0
   13.6096    4.2656   42.2206 O   0  0  0  0  0  0  0  0  0  0  0  0
   11.6470    3.1478   44.6302 H   0  0  0  0  0  0  0  0  0  0  0  0
   14.3712    3.9126   41.7345 H   0  0  0  0  0  0  0  0  0  0  0  0
  1  2  1  0  0  0
  1  6  1  0  0  0
  1 13  1  0  0  0
  2  3  1  0  0  0
  2  7  1  0  0  0
  3  4  1  0  0  0
  3  8  1  0  0  0
  4  5  1  0  0  0
  4 20  1  0  0  0
  5  6  1  0  0  0
  5 27  1  0  0  0
  6  9  1  0  0  0
 13 14  1  0  0  0
 20 21  1  0  0  0
 27 28  1  0  0  0
 14 15  2  0  0  0
 14 16  1  0  0  0
 14 17  1  0  0  0
 21 22  2  0  0  0
 21 23  1  0  0  0
 21 24  1  0  0  0
 28 29  2  0  0  0
 28 30  1  0  0  0
 28 31  1  0  0  0
  7 10  1  0  0  0
  8 11  1  0  0  0
  9 12  1  0  0  0
 16 18  1  0  0  0
 17 19  1  0  0  0
 23 25  1  0  0  0
 24 26  1  0  0  0
 30 32  1  0  0  0
 31 33  1  0  0  0
M  END
> <minimizedAffinity>
-5.12860

$$$$
4NP9_I3P_A_601


 33 33  0  0  0  0  0  0  0  0999 V2000
   11.6250    1.4607   39.2944 C   0  0  0  0  0  0  0  0  0  0  0  0
   11.7661    1.4133   40.8136 C   0  0  0  0  0  0  0  0  0  0  0  0
   10.5366    1.9415   41.5377 C   0  0  0  0  0  0  0  0  0  0  0  0
    9.2093    1.4041   40.9840 C   0  0  0  0  0  0  0  0  0  0  0  0
    9.2012    1.4766   39.4752 C   0  0  0  0  0  0  0  0  0  0  0  0
   10.3578    0.7297   38.8789 C   0  0  0  0  0  0  0  0  0  0  0  0
   11.9992    0.0550   41.2267 O   0  0  0  0  0  0  0  0  0  0  0  0
   10.6177    1.6045   42.9102 O   0  0  0  0  0  0  0  0  0  0  0  0
   10.1895    0.7078   37.4652 O   0  0  0  0  0  0  0  0  0  0  0  0
   11.2380   -0.4932   40.9797 H   0  0  0  0  0  0  0  0  0  0  0  0
   10.6162    0.6394   43.0068 H   0  0  0  0  0  0  0  0  0  0  0  0
   10.1333    1.6171   37.1321 H   0  0  0  0  0  0  0  0  0  0  0  0
   12.7562    0.9052   38.6202 O   0  0  0  0  0  0  0  0  0  0  0  0
   13.4932    1.8448   37.5467 P   0  0  0  0  0  0  0  0  0  0  0  0
   12.5624    2.1542   36.4069 O   0  0  0  0  0  0  0  0  0  0  0  0
   14.7105    1.1052   37.0032 O   0  0  0  0  0  0  0  0  0  0  0  0
   13.9437    3.1324   38.2067 O   0  0  0  0  0  0  0  0  0  0  0  0
   14.4254    0.2803   36.5800 H   0  0  0  0  0  0  0  0  0  0  0  0
   13.1712    3.6054   38.5536 H   0  0  0  0  0  0  0  0  0  0  0  0
    8.1192    2.1748   41.4525 O   0  0  0  0  0  0  0  0  0  0  0  0
    6.9177    1.4776   42.3092 P   0  0  0  0  0  0  0  0  0  0  0  0
    7.5028    0.4802   43.2829 O   0  0  0  0  0  0  0  0  0  0  0  0
    5.9246    0.7644   41.4231 O   0  0  0  0  0  0  0  0  0  0  0  0
    6.1745    2.5465   43.0786 O   0  0  0  0  0  0  0  0  0  0  0  0
    6.3801    0.0724   40.9186 H   0  0  0  0  0  0  0  0  0  0  0  0
    6.7942    3.0191   43.6562 H   0  0  0  0  0  0  0  0  0  0  0  0
    7.9742    0.9612   38.9390 O   0  0  0  0  0  0  0  0  0  0  0  0
    7.0610    1.9586   38.1062 P   0  0  0  0  0  0  0  0  0  0  0  0
    7.9593    2.8432   37.2653 O   0  0  0  0  0  0  0  0  0  0  0  0
    6.2358    2.8272   39.0187 O   0  0  0  0  0  0  0  0  0  0  0  0
    6.1339    1.1686   37.2044 O   0  0  0  0  0  0  0  0  0  0  0  0
    6.8232    3.3361   39.5991 H   0  0  0  0  0  0  0  0  0  0  0  0
    6.6591    0.6065   36.6135 H   0  0  0  0  0  0  0  0  0  0  0  0
  1  2  1  0  0  0
  1  6  1  0  0  0
  1 13  1  0  0  0
  2  3  1  0  0  0
  2  7  1  0  0  0
  3  4  1  0  0  0
  3  8  1  0  0  0
  4  5  1  0  0  0
  4 20  1  0  0  0
  5  6  1  0  0  0
  5 27  1  0  0  0
  6  9  1  0  0  0
 13 14  1  0  0  0
 20 21  1  0  0  0
 27 28  1  0  0  0
 14 15  2  0  0  0
 14 16  1  0  0  0
 14 17  1  0  0  0
 21 22  2  0  0  0
 21 23  1  0  0  0
 21 24  1  0  0  0
 28 29  2  0  0  0
 28 30  1  0  0  0
 28 31  1  0  0  0
  7 10  1  0  0  0
  8 11  1  0  0  0
  9 12  1  0  0  0
 16 18  1  0  0  0
 17 19  1  0  0  0
 23 25  1  0  0  0
 24 26  1  0  0  0
 30 32  1  0  0  0
 31 33  1  0  0  0
M  END
> <minimizedAffinity>
-5.07205

$$$$
4NP9_I3P_A_601


 33 33  0  0  0  0  0  0  0  0999 V2000
   11.7953    1.4436   40.4693 C   0  0  0  0  0  0  0  0  0  0  0  0
   11.2263    2.0309   41.7583 C   0  0  0  0  0  0  0  0  0  0  0  0
   12.2799    2.2099   42.8414 C   0  0  0  0  0  0  0  0  0  0  0  0
   13.5810    2.8552   42.3435 C   0  0  0  0  0  0  0  0  0  0  0  0
   14.0268    2.2109   41.0520 C   0  0  0  0  0  0  0  0  0  0  0  0
   12.9639    2.2941   39.9963 C   0  0  0  0  0  0  0  0  0  0  0  0
   10.6311    3.3097   41.4752 O   0  0  0  0  0  0  0  0  0  0  0  0
   11.7531    3.0112   43.8826 O   0  0  0  0  0  0  0  0  0  0  0  0
   13.5157    1.8161   38.7737 O   0  0  0  0  0  0  0  0  0  0  0  0
   11.3114    3.9170   41.1446 H   0  0  0  0  0  0  0  0  0  0  0  0
   11.5427    3.8928   43.5372 H   0  0  0  0  0  0  0  0  0  0  0  0
   13.8361    0.9088   38.8964 H   0  0  0  0  0  0  0  0  0  0  0  0
   10.8149    1.3367   39.4349 O   0  0  0  0  0  0  0  0  0  0  0  0
   10.5212   -0.1353   38.8644 P   0  0  0  0  0  0  0  0  0  0  0  0
   11.8120   -0.8121   38.4942 O   0  0  0  0  0  0  0  0  0  0  0  0
    9.6528   -0.0125   37.6174 O   0  0  0  0  0  0  0  0  0  0  0  0
    9.7889   -0.9586   39.9049 O   0  0  0  0  0  0  0  0  0  0  0  0
   10.1189    0.5141   36.9493 H   0  0  0  0  0  0  0  0  0  0  0  0
   10.3391   -1.0385   40.6997 H   0  0  0  0  0  0  0  0  0  0  0  0
   14.6217    2.6824   43.2862 O   0  0  0  0  0  0  0  0  0  0  0  0
   15.2146    3.9599   44.1110 P   0  0  0  0  0  0  0  0  0  0  0  0
   14.1525    5.0302   44.2189 O   0  0  0  0  0  0  0  0  0  0  0  0
   16.4339    4.5525   43.4458 O   0  0  0  0  0  0  0  0  0  0  0  0
   15.6112    3.5111   45.4995 O   0  0  0  0  0  0  0  0  0  0  0  0
   16.2026    4.8481   42.5513 H   0  0  0  0  0  0  0  0  0  0  0  0
   14.8416    3.1260   45.9470 H   0  0  0  0  0  0  0  0  0  0  0  0
   15.2328    2.8145   40.5621 O   0  0  0  0  0  0  0  0  0  0  0  0
   16.5350    1.9074   40.5013 P   0  0  0  0  0  0  0  0  0  0  0  0
   17.4951    2.5125   39.4970 O   0  0  0  0  0  0  0  0  0  0  0  0
   16.1979    0.5042   40.0707 O   0  0  0  0  0  0  0  0  0  0  0  0
   17.1884    1.8613   41.8681 O   0  0  0  0  0  0  0  0  0  0  0  0
   15.7791    0.5262   39.1961 H   0  0  0  0  0  0  0  0  0  0  0  0
   17.4084    2.7623   42.1519 H   0  0  0  0  0  0  0  0  0  0  0  0
  1  2  1  0  0  0
  1  6  1  0  0  0
  1 13  1  0  0  0
  2  3  1  0  0  0
  2  7  1  0  0  0
  3  4  1  0  0  0
  3  8  1  0  0  0
  4  5  1  0  0  0
  4 20  1  0  0  0
  5  6  1  0  0  0
  5 27  1  0  0  0
  6  9  1  0  0  0
 13 14  1  0  0  0
 20 21  1  0  0  0
 27 28  1  0  0  0
 14 15  2  0  0  0
 14 16  1  0  0  0
 14 17  1  0  0  0
 21 22  2  0  0  0
 21 23  1  0  0  0
 21 24  1  0  0  0
 28 29  2  0  0  0
 28 30  1  0  0  0
 28 31  1  0  0  0
  7 10  1  0  0  0
  8 11  1  0  0  0
  9 12  1  0  0  0
 16 18  1  0  0  0
 17 19  1  0  0  0
 23 25  1  0  0  0
 24 26  1  0  0  0
 30 32  1  0  0  0
 31 33  1  0  0  0
M  END
> <minimizedAffinity>
-5.02646

$$$$
4NP9_I3P_A_601


 33 33  0  0  0  0  0  0  0  0999 V2000
   13.7466    1.6750   38.6742 C   0  0  0  0  0  0  0  0  0  0  0  0
   12.6302    1.0317   37.8558 C   0  0  0  0  0  0  0  0  0  0  0  0
   11.4980    0.4959   38.7197 C   0  0  0  0  0  0  0  0  0  0  0  0
   11.0344    1.4698   39.8123 C   0  0  0  0  0  0  0  0  0  0  0  0
   12.2252    2.0603   40.5301 C   0  0  0  0  0  0  0  0  0  0  0  0
   13.1599    2.7475   39.5788 C   0  0  0  0  0  0  0  0  0  0  0  0
   12.0939    2.0020   36.9389 O   0  0  0  0  0  0  0  0  0  0  0  0
   10.3877    0.1826   37.8994 O   0  0  0  0  0  0  0  0  0  0  0  0
   14.1609    3.4115   40.3434 O   0  0  0  0  0  0  0  0  0  0  0  0
   11.7116    2.7412   37.4373 H   0  0  0  0  0  0  0  0  0  0  0  0
   10.0648    0.9903   37.4701 H   0  0  0  0  0  0  0  0  0  0  0  0
   14.6210    2.7667   40.9032 H   0  0  0  0  0  0  0  0  0  0  0  0
   14.7766    2.2325   37.8551 O   0  0  0  0  0  0  0  0  0  0  0  0
   16.2687    1.6913   38.0987 P   0  0  0  0  0  0  0  0  0  0  0  0
   17.1893    2.2195   37.0335 O   0  0  0  0  0  0  0  0  0  0  0  0
   16.2545    0.1685   38.0284 O   0  0  0  0  0  0  0  0  0  0  0  0
   16.7612    2.1244   39.4650 O   0  0  0  0  0  0  0  0  0  0  0  0
   15.9396   -0.1119   37.1548 H   0  0  0  0  0  0  0  0  0  0  0  0
   16.7714    3.0931   39.5129 H   0  0  0  0  0  0  0  0  0  0  0  0
   10.2433    0.8038   40.7779 O   0  0  0  0  0  0  0  0  0  0  0  0
    8.6853    1.2303   41.0112 P   0  0  0  0  0  0  0  0  0  0  0  0
    7.9148    1.0589   39.7219 O   0  0  0  0  0  0  0  0  0  0  0  0
    8.5483    2.6621   41.4709 O   0  0  0  0  0  0  0  0  0  0  0  0
    8.0823    0.3385   42.0733 O   0  0  0  0  0  0  0  0  0  0  0  0
    8.9294    3.2538   40.8034 H   0  0  0  0  0  0  0  0  0  0  0  0
    8.1592   -0.5886   41.7988 H   0  0  0  0  0  0  0  0  0  0  0  0
   11.8107    2.9875   41.5437 O   0  0  0  0  0  0  0  0  0  0  0  0
   12.1930    2.6498   43.0477 P   0  0  0  0  0  0  0  0  0  0  0  0
   13.6195    2.1392   43.0773 O   0  0  0  0  0  0  0  0  0  0  0  0
   11.2834    1.5911   43.6130 O   0  0  0  0  0  0  0  0  0  0  0  0
   12.0813    3.9012   43.8953 O   0  0  0  0  0  0  0  0  0  0  0  0
   11.3499    0.7868   43.0750 H   0  0  0  0  0  0  0  0  0  0  0  0
   12.6650    4.5879   43.5366 H   0  0  0  0  0  0  0  0  0  0  0  0
  1  2  1  0  0  0
  1  6  1  0  0  0
  1 13  1  0  0  0
  2  3  1  0  0  0
  2  7  1  0  0  0
  3  4  1  0  0  0
  3  8  1  0  0  0
  4  5  1  0  0  0
  4 20  1  0  0  0
  5  6  1  0  0  0
  5 27  1  0  0  0
  6  9  1  0  0  0
 13 14  1  0  0  0
 20 21  1  0  0  0
 27 28  1  0  0  0
 14 15  2  0  0  0
 14 16  1  0  0  0
 14 17  1  0  0  0
 21 22  2  0  0  0
 21 23  1  0  0  0
 21 24  1  0  0  0
 28 29  2  0  0  0
 28 30  1  0  0  0
 28 31  1  0  0  0
  7 10  1  0  0  0
  8 11  1  0  0  0
  9 12  1  0  0  0
 16 18  1  0  0  0
 17 19  1  0  0  0
 23 25  1  0  0  0
 24 26  1  0  0  0
 30 32  1  0  0  0
 31 33  1  0  0  0
M  END
> <minimizedAffinity>
-5.01351

$$$$
4NP9_I3P_A_601


 33 33  0  0  0  0  0  0  0  0999 V2000
   13.8286    2.7039   43.0005 C   0  0  0  0  0  0  0  0  0  0  0  0
   12.3843    2.3216   43.3131 C   0  0  0  0  0  0  0  0  0  0  0  0
   11.5193    2.2116   42.0661 C   0  0  0  0  0  0  0  0  0  0  0  0
   12.1743    1.4252   40.9216 C   0  0  0  0  0  0  0  0  0  0  0  0
   13.6043    1.8717   40.7279 C   0  0  0  0  0  0  0  0  0  0  0  0
   14.4051    1.7263   41.9883 C   0  0  0  0  0  0  0  0  0  0  0  0
   12.3658    1.0589   44.0025 O   0  0  0  0  0  0  0  0  0  0  0  0
   10.2946    1.5835   42.3967 O   0  0  0  0  0  0  0  0  0  0  0  0
   15.7668    2.0098   41.6831 O   0  0  0  0  0  0  0  0  0  0  0  0
   12.7397    0.3718   43.4288 H   0  0  0  0  0  0  0  0  0  0  0  0
   10.4675    0.6811   42.7075 H   0  0  0  0  0  0  0  0  0  0  0  0
   15.8353    2.9025   41.3097 H   0  0  0  0  0  0  0  0  0  0  0  0
   14.6512    2.7438   44.1686 O   0  0  0  0  0  0  0  0  0  0  0  0
   15.2872    4.1657   44.5587 P   0  0  0  0  0  0  0  0  0  0  0  0
   16.3209    4.5647   43.5420 O   0  0  0  0  0  0  0  0  0  0  0  0
   15.9573    4.0445   45.9226 O   0  0  0  0  0  0  0  0  0  0  0  0
   14.2001    5.2193   44.6273 O   0  0  0  0  0  0  0  0  0  0  0  0
   16.6539    3.3707   45.8819 H   0  0  0  0  0  0  0  0  0  0  0  0
   13.7717    5.2988   43.7607 H   0  0  0  0  0  0  0  0  0  0  0  0
   11.4909    1.6468   39.7027 O   0  0  0  0  0  0  0  0  0  0  0  0
   10.7909    0.4059   38.9067 P   0  0  0  0  0  0  0  0  0  0  0  0
    9.9964   -0.4359   39.8791 O   0  0  0  0  0  0  0  0  0  0  0  0
   11.8056   -0.4760   38.2191 O   0  0  0  0  0  0  0  0  0  0  0  0
    9.8597    0.9581   37.8509 O   0  0  0  0  0  0  0  0  0  0  0  0
   12.4153   -0.8424   38.8786 H   0  0  0  0  0  0  0  0  0  0  0  0
    9.1974    1.5292   38.2706 H   0  0  0  0  0  0  0  0  0  0  0  0
   14.2382    1.1340   39.6730 O   0  0  0  0  0  0  0  0  0  0  0  0
   14.6450    1.9318   38.3614 P   0  0  0  0  0  0  0  0  0  0  0  0
   16.1163    2.2838   38.4506 O   0  0  0  0  0  0  0  0  0  0  0  0
   13.8460    3.2015   38.2302 O   0  0  0  0  0  0  0  0  0  0  0  0
   14.4005    1.0660   37.1418 O   0  0  0  0  0  0  0  0  0  0  0  0
   13.9978    3.7609   39.0080 H   0  0  0  0  0  0  0  0  0  0  0  0
   14.9125    0.2458   37.2196 H   0  0  0  0  0  0  0  0  0  0  0  0
  1  2  1  0  0  0
  1  6  1  0  0  0
  1 13  1  0  0  0
  2  3  1  0  0  0
  2  7  1  0  0  0
  3  4  1  0  0  0
  3  8  1  0  0  0
  4  5  1  0  0  0
  4 20  1  0  0  0
  5  6  1  0  0  0
  5 27  1  0  0  0
  6  9  1  0  0  0
 13 14  1  0  0  0
 20 21  1  0  0  0
 27 28  1  0  0  0
 14 15  2  0  0  0
 14 16  1  0  0  0
 14 17  1  0  0  0
 21 22  2  0  0  0
 21 23  1  0  0  0
 21 24  1  0  0  0
 28 29  2  0  0  0
 28 30  1  0  0  0
 28 31  1  0  0  0
  7 10  1  0  0  0
  8 11  1  0  0  0
  9 12  1  0  0  0
 16 18  1  0  0  0
 17 19  1  0  0  0
 23 25  1  0  0  0
 24 26  1  0  0  0
 30 32  1  0  0  0
 31 33  1  0  0  0
M  END
> <minimizedAffinity>
-4.90485

$$$$
4NP9_I3P_A_601


 33 33  0  0  0  0  0  0  0  0999 V2000
    9.0735    1.2689   38.7934 C   0  0  0  0  0  0  0  0  0  0  0  0
   10.5545    1.2476   38.4245 C   0  0  0  0  0  0  0  0  0  0  0  0
   11.4671    1.3413   39.6384 C   0  0  0  0  0  0  0  0  0  0  0  0
   11.0641    0.4132   40.7931 C   0  0  0  0  0  0  0  0  0  0  0  0
    9.5771    0.5010   41.0438 C   0  0  0  0  0  0  0  0  0  0  0  0
    8.7876    0.1749   39.8103 C   0  0  0  0  0  0  0  0  0  0  0  0
   10.8499    0.0309   37.7157 O   0  0  0  0  0  0  0  0  0  0  0  0
   12.7935    1.0287   39.2554 O   0  0  0  0  0  0  0  0  0  0  0  0
    7.4103    0.1203   40.1675 O   0  0  0  0  0  0  0  0  0  0  0  0
   10.6741   -0.7296   38.2916 H   0  0  0  0  0  0  0  0  0  0  0  0
   12.8309    0.1131   38.9372 H   0  0  0  0  0  0  0  0  0  0  0  0
    7.1433    0.9678   40.5566 H   0  0  0  0  0  0  0  0  0  0  0  0
    8.2219    1.1169   37.6557 O   0  0  0  0  0  0  0  0  0  0  0  0
    7.1291    2.2675   37.4099 P   0  0  0  0  0  0  0  0  0  0  0  0
    7.7781    3.4696   36.7816 O   0  0  0  0  0  0  0  0  0  0  0  0
    6.5348    2.6732   38.7539 O   0  0  0  0  0  0  0  0  0  0  0  0
    6.0246    1.7504   36.5101 O   0  0  0  0  0  0  0  0  0  0  0  0
    7.2394    3.0046   39.3322 H   0  0  0  0  0  0  0  0  0  0  0  0
    6.3997    1.4914   35.6539 H   0  0  0  0  0  0  0  0  0  0  0  0
   11.7198    0.7851   41.9904 O   0  0  0  0  0  0  0  0  0  0  0  0
   11.9873    2.3576   42.3358 P   0  0  0  0  0  0  0  0  0  0  0  0
   10.8933    3.2034   41.7252 O   0  0  0  0  0  0  0  0  0  0  0  0
   13.3200    2.8380   41.8130 O   0  0  0  0  0  0  0  0  0  0  0  0
   11.9797    2.5424   43.8367 O   0  0  0  0  0  0  0  0  0  0  0  0
   13.3478    2.7287   40.8496 H   0  0  0  0  0  0  0  0  0  0  0  0
   11.1308    2.2397   44.1954 H   0  0  0  0  0  0  0  0  0  0  0  0
    9.1794   -0.3743   42.1090 O   0  0  0  0  0  0  0  0  0  0  0  0
    8.4862    0.2822   43.3781 P   0  0  0  0  0  0  0  0  0  0  0  0
    7.6529   -0.7767   44.0715 O   0  0  0  0  0  0  0  0  0  0  0  0
    7.5897    1.4234   42.9758 O   0  0  0  0  0  0  0  0  0  0  0  0
    9.5477    0.7992   44.3283 O   0  0  0  0  0  0  0  0  0  0  0  0
    6.9074    1.0994   42.3671 H   0  0  0  0  0  0  0  0  0  0  0  0
   10.1292    0.0689   44.5918 H   0  0  0  0  0  0  0  0  0  0  0  0
  1  2  1  0  0  0
  1  6  1  0  0  0
  1 13  1  0  0  0
  2  3  1  0  0  0
  2  7  1  0  0  0
  3  4  1  0  0  0
  3  8  1  0  0  0
  4  5  1  0  0  0
  4 20  1  0  0  0
  5  6  1  0  0  0
  5 27  1  0  0  0
  6  9  1  0  0  0
 13 14  1  0  0  0
 20 21  1  0  0  0
 27 28  1  0  0  0
 14 15  2  0  0  0
 14 16  1  0  0  0
 14 17  1  0  0  0
 21 22  2  0  0  0
 21 23  1  0  0  0
 21 24  1  0  0  0
 28 29  2  0  0  0
 28 30  1  0  0  0
 28 31  1  0  0  0
  7 10  1  0  0  0
  8 11  1  0  0  0
  9 12  1  0  0  0
 16 18  1  0  0  0
 17 19  1  0  0  0
 23 25  1  0  0  0
 24 26  1  0  0  0
 30 32  1  0  0  0
 31 33  1  0  0  0
M  END
> <minimizedAffinity>
-4.88979

$$$$
