6DJ5_G52_B_201


 44 48  0  0  0  0  0  0  0  0999 V2000
   14.7414   22.3312   17.0651 C   0  0  0  0  0  0  0  0  0  0  0  0
   13.7893   21.4385   17.7513 N   0  0  0  0  0  0  0  0  0  0  0  0
   13.9660   20.1374   17.9767 C   0  0  0  0  0  0  0  0  0  0  0  0
   14.9783   19.5210   17.6435 O   0  0  0  0  0  0  0  0  0  0  0  0
   12.9489   21.8393   18.0712 H   0  0  0  0  0  0  0  0  0  0  0  0
   12.9442   19.4908   18.6069 O   0  0  0  0  0  0  0  0  0  0  0  0
   13.4042   18.4125   19.4243 C   0  0  0  0  0  0  0  0  0  0  0  0
   12.9581   18.7084   20.8597 C   0  0  0  0  0  0  0  0  0  0  0  0
   11.5424   18.4801   20.8526 O   0  0  0  0  0  0  0  0  0  0  0  0
   11.2519   17.4922   19.8690 C   0  0  0  0  0  0  0  0  0  0  0  0
   10.3059   17.9870   18.9366 O   0  0  0  0  0  0  0  0  0  0  0  0
   10.7883   17.8901   17.6046 C   0  0  0  0  0  0  0  0  0  0  0  0
   12.1019   17.1274   17.6415 C   0  0  0  0  0  0  0  0  0  0  0  0
   12.5300   17.1887   19.1107 C   0  0  0  0  0  0  0  0  0  0  0  0
    9.8916   17.0647   16.8439 O   0  0  0  0  0  0  0  0  0  0  0  0
   10.1706   15.7291   17.3038 C   0  0  0  0  0  0  0  0  0  0  0  0
   11.6974   15.6924   17.2743 C   0  0  0  0  0  0  0  0  0  0  0  0
   15.1225   23.4512   18.0363 C   0  0  0  0  0  0  0  0  0  0  0  0
   13.9976   24.2825   18.2916 O   0  0  0  0  0  0  0  0  0  0  0  0
   13.7147   24.7062   17.4662 H   0  0  0  0  0  0  0  0  0  0  0  0
   16.3474   24.2350   17.5867 C   0  0  0  0  0  0  0  0  0  0  0  0
   17.5228   23.3680   17.6079 N   0  0  0  0  0  0  0  0  0  0  0  0
   18.3592   23.4012   16.2034 S   0  0  0  0  0  0  0  0  0  0  0  0
   17.4182   23.1906   15.0631 O   0  0  0  0  0  0  0  0  0  0  0  0
   19.3965   22.3298   16.2854 O   0  0  0  0  0  0  0  0  0  0  0  0
   20.3674   27.4461   15.6109 C   0  0  0  0  0  0  0  0  0  0  0  0
   20.6973   26.6453   16.7079 C   0  0  0  0  0  0  0  0  0  0  0  0
   20.0764   25.4193   16.9197 C   0  0  0  0  0  0  0  0  0  0  0  0
   19.1440   24.9566   15.9882 C   0  0  0  0  0  0  0  0  0  0  0  0
   18.8146   25.7576   14.9026 C   0  0  0  0  0  0  0  0  0  0  0  0
   19.4147   26.9976   14.6997 C   0  0  0  0  0  0  0  0  0  0  0  0
   21.0057   28.6335   15.4163 O   0  0  0  0  0  0  0  0  0  0  0  0
   22.4042   28.5306   15.6546 C   0  0  0  0  0  0  0  0  0  0  0  0
   18.3754   23.5917   18.7709 C   0  0  0  0  0  0  0  0  0  0  0  0
   18.3573   22.3686   19.6965 C   0  0  0  0  0  0  0  0  0  0  0  0
   17.6482   21.1709   19.0626 C   0  0  0  0  0  0  0  0  0  0  0  0
   19.7688   21.9742   20.1435 C   0  0  0  0  0  0  0  0  0  0  0  0
   14.0143   22.8965   15.8330 C   0  0  0  0  0  0  0  0  0  0  0  0
   14.4686   20.9608   14.2775 C   0  0  0  0  0  0  0  0  0  0  0  0
   14.0523   19.9085   13.4754 C   0  0  0  0  0  0  0  0  0  0  0  0
   12.6946   19.6340   13.3325 C   0  0  0  0  0  0  0  0  0  0  0  0
   11.7572   20.4116   13.9993 C   0  0  0  0  0  0  0  0  0  0  0  0
   12.1769   21.4632   14.8134 C   0  0  0  0  0  0  0  0  0  0  0  0
   13.5303   21.7332   14.9543 C   0  0  0  0  0  0  0  0  0  0  0  0
 27 26  2  0  0  0
 32 26  1  0  0  0
 26 31  1  0  0  0
 27 28  1  0  0  0
 28 29  2  0  0  0
 29 30  1  0  0  0
 29 23  1  0  0  0
 31 30  2  0  0  0
 24 23  2  0  0  0
 23 25  2  0  0  0
 23 22  1  0  0  0
 22 21  1  0  0  0
 22 34  1  0  0  0
 34 35  1  0  0  0
 36 35  1  0  0  0
 35 37  1  0  0  0
 21 18  1  0  0  0
  1 18  1  0  0  0
 18 19  1  0  0  0
 38  1  1  0  0  0
  1  2  1  0  0  0
  2  3  1  0  0  0
  4  3  2  0  0  0
  3  6  1  0  0  0
  6  7  1  0  0  0
 14  7  1  0  0  0
  7  8  1  0  0  0
  9  8  1  0  0  0
 10  9  1  0  0  0
 14 10  1  0  0  0
 11 10  1  0  0  0
 12 11  1  0  0  0
 15 12  1  0  0  0
 13 12  1  0  0  0
 17 13  1  0  0  0
 13 14  1  0  0  0
 44 38  1  0  0  0
 40 39  2  0  0  0
 39 44  1  0  0  0
 41 40  1  0  0  0
 41 42  2  0  0  0
 42 43  1  0  0  0
 43 44  2  0  0  0
 32 33  1  0  0  0
 16 15  1  0  0  0
 17 16  1  0  0  0
 19 20  1  0  0  0
  2  5  1  0  0  0
M  END
> <minimizedAffinity>
-10.52106

$$$$
6DJ5_G52_B_201


 44 48  0  0  0  0  0  0  0  0999 V2000
   17.7432   24.0848   18.5054 C   0  0  0  0  0  0  0  0  0  0  0  0
   18.5009   25.1410   17.8093 N   0  0  0  0  0  0  0  0  0  0  0  0
   19.4077   24.9469   16.8529 C   0  0  0  0  0  0  0  0  0  0  0  0
   19.7111   23.8354   16.4190 O   0  0  0  0  0  0  0  0  0  0  0  0
   18.3208   26.0717   18.0748 H   0  0  0  0  0  0  0  0  0  0  0  0
   20.0127   26.0652   16.3601 O   0  0  0  0  0  0  0  0  0  0  0  0
   20.3166   25.9513   14.9683 C   0  0  0  0  0  0  0  0  0  0  0  0
   19.3614   26.8842   14.2171 C   0  0  0  0  0  0  0  0  0  0  0  0
   19.8408   28.2038   14.5090 O   0  0  0  0  0  0  0  0  0  0  0  0
   21.2458   28.1323   14.7300 C   0  0  0  0  0  0  0  0  0  0  0  0
   21.5734   28.6663   16.0014 O   0  0  0  0  0  0  0  0  0  0  0  0
   22.3037   27.7341   16.7850 C   0  0  0  0  0  0  0  0  0  0  0  0
   22.6201   26.5363   15.9053 C   0  0  0  0  0  0  0  0  0  0  0  0
   21.6521   26.6711   14.7261 C   0  0  0  0  0  0  0  0  0  0  0  0
   23.5785   28.3058   17.1201 O   0  0  0  0  0  0  0  0  0  0  0  0
   24.3273   28.2345   15.8925 C   0  0  0  0  0  0  0  0  0  0  0  0
   24.0573   26.8024   15.4349 C   0  0  0  0  0  0  0  0  0  0  0  0
   16.2656   24.2443   18.1392 C   0  0  0  0  0  0  0  0  0  0  0  0
   15.7296   25.4064   18.7587 O   0  0  0  0  0  0  0  0  0  0  0  0
   15.7745   25.3087   19.7228 H   0  0  0  0  0  0  0  0  0  0  0  0
   15.4463   22.9927   18.4203 C   0  0  0  0  0  0  0  0  0  0  0  0
   15.8088   21.9425   17.4720 N   0  0  0  0  0  0  0  0  0  0  0  0
   16.4422   20.6229   18.2005 S   0  0  0  0  0  0  0  0  0  0  0  0
   17.2516   21.0510   19.3803 O   0  0  0  0  0  0  0  0  0  0  0  0
   17.2661   19.9109   17.1784 O   0  0  0  0  0  0  0  0  0  0  0  0
   13.1485   17.8261   19.6406 C   0  0  0  0  0  0  0  0  0  0  0  0
   13.3554   19.0586   20.2666 C   0  0  0  0  0  0  0  0  0  0  0  0
   14.3722   19.9144   19.8580 C   0  0  0  0  0  0  0  0  0  0  0  0
   15.1671   19.5575   18.7662 C   0  0  0  0  0  0  0  0  0  0  0  0
   14.9623   18.3296   18.1505 C   0  0  0  0  0  0  0  0  0  0  0  0
   13.9620   17.4576   18.5722 C   0  0  0  0  0  0  0  0  0  0  0  0
   12.1322   17.0160   20.0479 O   0  0  0  0  0  0  0  0  0  0  0  0
   10.8791   17.4258   19.5141 C   0  0  0  0  0  0  0  0  0  0  0  0
   14.7271   21.6070   16.5518 C   0  0  0  0  0  0  0  0  0  0  0  0
   15.0974   22.0021   15.1166 C   0  0  0  0  0  0  0  0  0  0  0  0
   16.5501   22.4657   14.9983 C   0  0  0  0  0  0  0  0  0  0  0  0
   14.8202   20.8667   14.1259 C   0  0  0  0  0  0  0  0  0  0  0  0
   17.9615   24.2989   20.0130 C   0  0  0  0  0  0  0  0  0  0  0  0
   20.1047   22.9714   20.1431 C   0  0  0  0  0  0  0  0  0  0  0  0
   21.4577   22.8516   20.4246 C   0  0  0  0  0  0  0  0  0  0  0  0
   22.1702   23.9464   20.9070 C   0  0  0  0  0  0  0  0  0  0  0  0
   21.5259   25.1610   21.1006 C   0  0  0  0  0  0  0  0  0  0  0  0
   20.1679   25.2834   20.8081 C   0  0  0  0  0  0  0  0  0  0  0  0
   19.4614   24.1910   20.3265 C   0  0  0  0  0  0  0  0  0  0  0  0
 27 26  2  0  0  0
 32 26  1  0  0  0
 26 31  1  0  0  0
 27 28  1  0  0  0
 28 29  2  0  0  0
 29 30  1  0  0  0
 29 23  1  0  0  0
 31 30  2  0  0  0
 24 23  2  0  0  0
 23 25  2  0  0  0
 23 22  1  0  0  0
 22 21  1  0  0  0
 22 34  1  0  0  0
 34 35  1  0  0  0
 36 35  1  0  0  0
 35 37  1  0  0  0
 21 18  1  0  0  0
  1 18  1  0  0  0
 18 19  1  0  0  0
 38  1  1  0  0  0
  1  2  1  0  0  0
  2  3  1  0  0  0
  4  3  2  0  0  0
  3  6  1  0  0  0
  6  7  1  0  0  0
 14  7  1  0  0  0
  7  8  1  0  0  0
  9  8  1  0  0  0
 10  9  1  0  0  0
 14 10  1  0  0  0
 11 10  1  0  0  0
 12 11  1  0  0  0
 15 12  1  0  0  0
 13 12  1  0  0  0
 17 13  1  0  0  0
 13 14  1  0  0  0
 44 38  1  0  0  0
 40 39  2  0  0  0
 39 44  1  0  0  0
 41 40  1  0  0  0
 41 42  2  0  0  0
 42 43  1  0  0  0
 43 44  2  0  0  0
 32 33  1  0  0  0
 16 15  1  0  0  0
 17 16  1  0  0  0
 19 20  1  0  0  0
  2  5  1  0  0  0
M  END
> <minimizedAffinity>
-10.17809

$$$$
6DJ5_G52_B_201


 44 48  0  0  0  0  0  0  0  0999 V2000
   16.9808   24.6059   16.4982 C   0  0  0  0  0  0  0  0  0  0  0  0
   18.2085   25.4180   16.4119 N   0  0  0  0  0  0  0  0  0  0  0  0
   19.3757   25.0140   15.9126 C   0  0  0  0  0  0  0  0  0  0  0  0
   19.5611   23.8929   15.4390 O   0  0  0  0  0  0  0  0  0  0  0  0
   18.1616   26.3402   16.7534 H   0  0  0  0  0  0  0  0  0  0  0  0
   20.3944   25.9195   15.9535 O   0  0  0  0  0  0  0  0  0  0  0  0
   20.7471   26.4011   14.6550 C   0  0  0  0  0  0  0  0  0  0  0  0
   19.8262   27.5854   14.3444 C   0  0  0  0  0  0  0  0  0  0  0  0
   20.3044   28.6452   15.1838 O   0  0  0  0  0  0  0  0  0  0  0  0
   21.7000   28.4560   15.3944 C   0  0  0  0  0  0  0  0  0  0  0  0
   21.9858   28.3919   16.7812 O   0  0  0  0  0  0  0  0  0  0  0  0
   22.6809   27.1994   17.1148 C   0  0  0  0  0  0  0  0  0  0  0  0
   23.0197   26.4823   15.8188 C   0  0  0  0  0  0  0  0  0  0  0  0
   22.0955   27.1264   14.7811 C   0  0  0  0  0  0  0  0  0  0  0  0
   23.9469   27.5466   17.6984 O   0  0  0  0  0  0  0  0  0  0  0  0
   24.7386   27.9874   16.5796 C   0  0  0  0  0  0  0  0  0  0  0  0
   24.4748   26.8916   15.5486 C   0  0  0  0  0  0  0  0  0  0  0  0
   16.7473   24.2579   17.9704 C   0  0  0  0  0  0  0  0  0  0  0  0
   15.7096   25.0682   18.5070 O   0  0  0  0  0  0  0  0  0  0  0  0
   15.9772   26.0000   18.4742 H   0  0  0  0  0  0  0  0  0  0  0  0
   18.0226   24.3036   18.8002 C   0  0  0  0  0  0  0  0  0  0  0  0
   18.0003   23.2368   19.7978 N   0  0  0  0  0  0  0  0  0  0  0  0
   18.1210   21.7473   19.1345 S   0  0  0  0  0  0  0  0  0  0  0  0
   18.7865   20.8272   20.1044 O   0  0  0  0  0  0  0  0  0  0  0  0
   18.8997   21.8930   17.8684 O   0  0  0  0  0  0  0  0  0  0  0  0
   14.0110   20.0435   18.1597 C   0  0  0  0  0  0  0  0  0  0  0  0
   14.1520   21.0462   19.1234 C   0  0  0  0  0  0  0  0  0  0  0  0
   15.4011   21.5604   19.4530 C   0  0  0  0  0  0  0  0  0  0  0  0
   16.5297   21.1029   18.7688 C   0  0  0  0  0  0  0  0  0  0  0  0
   16.3864   20.1025   17.8161 C   0  0  0  0  0  0  0  0  0  0  0  0
   15.1408   19.5660   17.5006 C   0  0  0  0  0  0  0  0  0  0  0  0
   12.7735   19.5720   17.8417 O   0  0  0  0  0  0  0  0  0  0  0  0
   12.1662   18.8932   18.9343 C   0  0  0  0  0  0  0  0  0  0  0  0
   18.9588   23.4463   20.8780 C   0  0  0  0  0  0  0  0  0  0  0  0
   20.2426   24.0930   20.3424 C   0  0  0  0  0  0  0  0  0  0  0  0
   20.5948   25.3843   21.0823 C   0  0  0  0  0  0  0  0  0  0  0  0
   21.4260   23.1205   20.3791 C   0  0  0  0  0  0  0  0  0  0  0  0
   17.2266   23.3358   15.6660 C   0  0  0  0  0  0  0  0  0  0  0  0
   14.7113   23.2274   15.8504 C   0  0  0  0  0  0  0  0  0  0  0  0
   13.4816   22.6677   15.5358 C   0  0  0  0  0  0  0  0  0  0  0  0
   13.4120   21.5699   14.6821 C   0  0  0  0  0  0  0  0  0  0  0  0
   14.5752   21.0391   14.1406 C   0  0  0  0  0  0  0  0  0  0  0  0
   15.8102   21.6085   14.4495 C   0  0  0  0  0  0  0  0  0  0  0  0
   15.8758   22.7028   15.2995 C   0  0  0  0  0  0  0  0  0  0  0  0
 27 26  2  0  0  0
 32 26  1  0  0  0
 26 31  1  0  0  0
 27 28  1  0  0  0
 28 29  2  0  0  0
 29 30  1  0  0  0
 29 23  1  0  0  0
 31 30  2  0  0  0
 24 23  2  0  0  0
 23 25  2  0  0  0
 23 22  1  0  0  0
 22 21  1  0  0  0
 22 34  1  0  0  0
 34 35  1  0  0  0
 36 35  1  0  0  0
 35 37  1  0  0  0
 21 18  1  0  0  0
  1 18  1  0  0  0
 18 19  1  0  0  0
 38  1  1  0  0  0
  1  2  1  0  0  0
  2  3  1  0  0  0
  4  3  2  0  0  0
  3  6  1  0  0  0
  6  7  1  0  0  0
 14  7  1  0  0  0
  7  8  1  0  0  0
  9  8  1  0  0  0
 10  9  1  0  0  0
 14 10  1  0  0  0
 11 10  1  0  0  0
 12 11  1  0  0  0
 15 12  1  0  0  0
 13 12  1  0  0  0
 17 13  1  0  0  0
 13 14  1  0  0  0
 44 38  1  0  0  0
 40 39  2  0  0  0
 39 44  1  0  0  0
 41 40  1  0  0  0
 41 42  2  0  0  0
 42 43  1  0  0  0
 43 44  2  0  0  0
 32 33  1  0  0  0
 16 15  1  0  0  0
 17 16  1  0  0  0
 19 20  1  0  0  0
  2  5  1  0  0  0
M  END
> <minimizedAffinity>
-9.94587

$$$$
6DJ5_G52_B_201


 44 48  0  0  0  0  0  0  0  0999 V2000
   13.8522   21.2392   18.6345 C   0  0  0  0  0  0  0  0  0  0  0  0
   13.6172   20.6561   17.3007 N   0  0  0  0  0  0  0  0  0  0  0  0
   12.4673   20.1414   16.8676 C   0  0  0  0  0  0  0  0  0  0  0  0
   11.4393   20.1091   17.5442 O   0  0  0  0  0  0  0  0  0  0  0  0
   14.3773   20.6462   16.6750 H   0  0  0  0  0  0  0  0  0  0  0  0
   12.4747   19.6282   15.6043 O   0  0  0  0  0  0  0  0  0  0  0  0
   12.7317   20.6252   14.6132 C   0  0  0  0  0  0  0  0  0  0  0  0
   14.0227   20.2258   13.8915 C   0  0  0  0  0  0  0  0  0  0  0  0
   13.6510   19.1032   13.0804 O   0  0  0  0  0  0  0  0  0  0  0  0
   12.2772   19.2374   12.7304 C   0  0  0  0  0  0  0  0  0  0  0  0
   11.5506   18.0889   13.1330 O   0  0  0  0  0  0  0  0  0  0  0  0
   10.4513   18.4331   13.9634 C   0  0  0  0  0  0  0  0  0  0  0  0
   10.3480   19.9488   13.9913 C   0  0  0  0  0  0  0  0  0  0  0  0
   11.7110   20.4269   13.4821 C   0  0  0  0  0  0  0  0  0  0  0  0
    9.2382   17.9816   13.3402 O   0  0  0  0  0  0  0  0  0  0  0  0
    9.0318   18.9125   12.2614 C   0  0  0  0  0  0  0  0  0  0  0  0
    9.2632   20.2567   12.9491 C   0  0  0  0  0  0  0  0  0  0  0  0
   14.6736   22.5179   18.4528 C   0  0  0  0  0  0  0  0  0  0  0  0
   13.8570   23.6606   18.6735 O   0  0  0  0  0  0  0  0  0  0  0  0
   13.1468   23.6829   18.0131 H   0  0  0  0  0  0  0  0  0  0  0  0
   15.4105   22.5655   17.1218 C   0  0  0  0  0  0  0  0  0  0  0  0
   16.8488   22.4510   17.3500 N   0  0  0  0  0  0  0  0  0  0  0  0
   17.6964   22.2625   15.9646 S   0  0  0  0  0  0  0  0  0  0  0  0
   16.7573   21.9269   14.8529 O   0  0  0  0  0  0  0  0  0  0  0  0
   18.6960   21.1795   16.2061 O   0  0  0  0  0  0  0  0  0  0  0  0
   19.8326   26.1350   14.8759 C   0  0  0  0  0  0  0  0  0  0  0  0
   20.5611   25.0160   15.2894 C   0  0  0  0  0  0  0  0  0  0  0  0
   19.9252   23.8334   15.6505 C   0  0  0  0  0  0  0  0  0  0  0  0
   18.5349   23.7468   15.5464 C   0  0  0  0  0  0  0  0  0  0  0  0
   17.8141   24.8625   15.1407 C   0  0  0  0  0  0  0  0  0  0  0  0
   18.4442   26.0572   14.8025 C   0  0  0  0  0  0  0  0  0  0  0  0
   20.4820   27.2744   14.5085 O   0  0  0  0  0  0  0  0  0  0  0  0
   21.8789   27.1966   14.7651 C   0  0  0  0  0  0  0  0  0  0  0  0
   17.3800   23.5208   18.1883 C   0  0  0  0  0  0  0  0  0  0  0  0
   18.3622   22.9580   19.2234 C   0  0  0  0  0  0  0  0  0  0  0  0
   18.3569   23.7603   20.5255 C   0  0  0  0  0  0  0  0  0  0  0  0
   18.0962   21.4768   19.5115 C   0  0  0  0  0  0  0  0  0  0  0  0
   14.6357   20.1939   19.4467 C   0  0  0  0  0  0  0  0  0  0  0  0
   13.9849   17.8464   18.7848 C   0  0  0  0  0  0  0  0  0  0  0  0
   13.2110   16.7034   18.9226 C   0  0  0  0  0  0  0  0  0  0  0  0
   12.2071   16.6518   19.8861 C   0  0  0  0  0  0  0  0  0  0  0  0
   11.9851   17.7444   20.7138 C   0  0  0  0  0  0  0  0  0  0  0  0
   12.7700   18.8895   20.5812 C   0  0  0  0  0  0  0  0  0  0  0  0
   13.7700   18.9370   19.6210 C   0  0  0  0  0  0  0  0  0  0  0  0
 27 26  2  0  0  0
 32 26  1  0  0  0
 26 31  1  0  0  0
 27 28  1  0  0  0
 28 29  2  0  0  0
 29 30  1  0  0  0
 29 23  1  0  0  0
 31 30  2  0  0  0
 24 23  2  0  0  0
 23 25  2  0  0  0
 23 22  1  0  0  0
 22 21  1  0  0  0
 22 34  1  0  0  0
 34 35  1  0  0  0
 36 35  1  0  0  0
 35 37  1  0  0  0
 21 18  1  0  0  0
  1 18  1  0  0  0
 18 19  1  0  0  0
 38  1  1  0  0  0
  1  2  1  0  0  0
  2  3  1  0  0  0
  4  3  2  0  0  0
  3  6  1  0  0  0
  6  7  1  0  0  0
 14  7  1  0  0  0
  7  8  1  0  0  0
  9  8  1  0  0  0
 10  9  1  0  0  0
 14 10  1  0  0  0
 11 10  1  0  0  0
 12 11  1  0  0  0
 15 12  1  0  0  0
 13 12  1  0  0  0
 17 13  1  0  0  0
 13 14  1  0  0  0
 44 38  1  0  0  0
 40 39  2  0  0  0
 39 44  1  0  0  0
 41 40  1  0  0  0
 41 42  2  0  0  0
 42 43  1  0  0  0
 43 44  2  0  0  0
 32 33  1  0  0  0
 16 15  1  0  0  0
 17 16  1  0  0  0
 19 20  1  0  0  0
  2  5  1  0  0  0
M  END
> <minimizedAffinity>
-9.81001

$$$$
6DJ5_G52_B_201


 44 48  0  0  0  0  0  0  0  0999 V2000
   18.4111   23.1813   18.7939 C   0  0  0  0  0  0  0  0  0  0  0  0
   18.7334   24.3945   18.0203 N   0  0  0  0  0  0  0  0  0  0  0  0
   19.2787   24.4210   16.8051 C   0  0  0  0  0  0  0  0  0  0  0  0
   19.5671   23.4083   16.1671 O   0  0  0  0  0  0  0  0  0  0  0  0
   18.5275   25.2615   18.4387 H   0  0  0  0  0  0  0  0  0  0  0  0
   19.5194   25.6558   16.2793 O   0  0  0  0  0  0  0  0  0  0  0  0
   19.8240   25.6035   14.8840 C   0  0  0  0  0  0  0  0  0  0  0  0
   18.7939   26.4774   14.1613 C   0  0  0  0  0  0  0  0  0  0  0  0
   19.1688   27.8227   14.4872 O   0  0  0  0  0  0  0  0  0  0  0  0
   20.5762   27.8570   14.7016 C   0  0  0  0  0  0  0  0  0  0  0  0
   20.8673   28.3812   15.9859 O   0  0  0  0  0  0  0  0  0  0  0  0
   21.6733   27.4893   16.7417 C   0  0  0  0  0  0  0  0  0  0  0  0
   22.0788   26.3442   15.8290 C   0  0  0  0  0  0  0  0  0  0  0  0
   21.0969   26.4331   14.6570 C   0  0  0  0  0  0  0  0  0  0  0  0
   22.9006   28.1511   17.0881 O   0  0  0  0  0  0  0  0  0  0  0  0
   23.6461   28.1722   15.8566 C   0  0  0  0  0  0  0  0  0  0  0  0
   23.4880   26.7358   15.3614 C   0  0  0  0  0  0  0  0  0  0  0  0
   16.9516   22.8158   18.5126 C   0  0  0  0  0  0  0  0  0  0  0  0
   16.2256   22.7237   19.7316 O   0  0  0  0  0  0  0  0  0  0  0  0
   16.5970   22.0119   20.2761 H   0  0  0  0  0  0  0  0  0  0  0  0
   16.8079   21.5747   17.6432 C   0  0  0  0  0  0  0  0  0  0  0  0
   15.4395   21.4800   17.1410 N   0  0  0  0  0  0  0  0  0  0  0  0
   15.3042   21.9486   15.5804 S   0  0  0  0  0  0  0  0  0  0  0  0
   16.5134   21.5044   14.8248 O   0  0  0  0  0  0  0  0  0  0  0  0
   15.1521   23.4343   15.5804 O   0  0  0  0  0  0  0  0  0  0  0  0
   11.6150   20.0878   13.6642 C   0  0  0  0  0  0  0  0  0  0  0  0
   12.8835   19.5503   13.4280 C   0  0  0  0  0  0  0  0  0  0  0  0
   14.0239   20.1200   13.9832 C   0  0  0  0  0  0  0  0  0  0  0  0
   13.8922   21.2183   14.8361 C   0  0  0  0  0  0  0  0  0  0  0  0
   12.6308   21.7530   15.0638 C   0  0  0  0  0  0  0  0  0  0  0  0
   11.4882   21.2020   14.4898 C   0  0  0  0  0  0  0  0  0  0  0  0
   10.5126   19.4978   13.1242 O   0  0  0  0  0  0  0  0  0  0  0  0
    9.5182   20.4517   12.7711 C   0  0  0  0  0  0  0  0  0  0  0  0
   14.8306   20.1770   17.3875 C   0  0  0  0  0  0  0  0  0  0  0  0
   13.7447   20.2841   18.4657 C   0  0  0  0  0  0  0  0  0  0  0  0
   12.4417   19.6010   18.0476 C   0  0  0  0  0  0  0  0  0  0  0  0
   14.2252   19.7321   19.8118 C   0  0  0  0  0  0  0  0  0  0  0  0
   18.6132   23.5317   20.2780 C   0  0  0  0  0  0  0  0  0  0  0  0
   21.0949   23.0754   20.2046 C   0  0  0  0  0  0  0  0  0  0  0  0
   22.4165   23.4475   20.4024 C   0  0  0  0  0  0  0  0  0  0  0  0
   22.7183   24.7072   20.9131 C   0  0  0  0  0  0  0  0  0  0  0  0
   21.6944   25.5939   21.2189 C   0  0  0  0  0  0  0  0  0  0  0  0
   20.3664   25.2227   21.0105 C   0  0  0  0  0  0  0  0  0  0  0  0
   20.0694   23.9673   20.5004 C   0  0  0  0  0  0  0  0  0  0  0  0
 27 26  2  0  0  0
 32 26  1  0  0  0
 26 31  1  0  0  0
 27 28  1  0  0  0
 28 29  2  0  0  0
 29 30  1  0  0  0
 29 23  1  0  0  0
 31 30  2  0  0  0
 24 23  2  0  0  0
 23 25  2  0  0  0
 23 22  1  0  0  0
 22 21  1  0  0  0
 22 34  1  0  0  0
 34 35  1  0  0  0
 36 35  1  0  0  0
 35 37  1  0  0  0
 21 18  1  0  0  0
  1 18  1  0  0  0
 18 19  1  0  0  0
 38  1  1  0  0  0
  1  2  1  0  0  0
  2  3  1  0  0  0
  4  3  2  0  0  0
  3  6  1  0  0  0
  6  7  1  0  0  0
 14  7  1  0  0  0
  7  8  1  0  0  0
  9  8  1  0  0  0
 10  9  1  0  0  0
 14 10  1  0  0  0
 11 10  1  0  0  0
 12 11  1  0  0  0
 15 12  1  0  0  0
 13 12  1  0  0  0
 17 13  1  0  0  0
 13 14  1  0  0  0
 44 38  1  0  0  0
 40 39  2  0  0  0
 39 44  1  0  0  0
 41 40  1  0  0  0
 41 42  2  0  0  0
 42 43  1  0  0  0
 43 44  2  0  0  0
 32 33  1  0  0  0
 16 15  1  0  0  0
 17 16  1  0  0  0
 19 20  1  0  0  0
  2  5  1  0  0  0
M  END
> <minimizedAffinity>
-9.80539

$$$$
6DJ5_G52_B_201


 44 48  0  0  0  0  0  0  0  0999 V2000
   15.1844   21.6089   16.2652 C   0  0  0  0  0  0  0  0  0  0  0  0
   14.1666   21.0366   17.1656 N   0  0  0  0  0  0  0  0  0  0  0  0
   14.3217   19.9560   17.9291 C   0  0  0  0  0  0  0  0  0  0  0  0
   15.3659   19.3059   17.9831 O   0  0  0  0  0  0  0  0  0  0  0  0
   13.2954   21.4935   17.2062 H   0  0  0  0  0  0  0  0  0  0  0  0
   13.2399   19.5809   18.6695 O   0  0  0  0  0  0  0  0  0  0  0  0
   13.4493   18.3419   19.3503 C   0  0  0  0  0  0  0  0  0  0  0  0
   12.9385   18.5194   20.7837 C   0  0  0  0  0  0  0  0  0  0  0  0
   11.5101   18.5407   20.6584 O   0  0  0  0  0  0  0  0  0  0  0  0
   11.1468   17.7550   19.5276 C   0  0  0  0  0  0  0  0  0  0  0  0
   10.3748   18.5230   18.6203 O   0  0  0  0  0  0  0  0  0  0  0  0
   10.9449   18.5201   17.3197 C   0  0  0  0  0  0  0  0  0  0  0  0
   12.1099   17.5447   17.3263 C   0  0  0  0  0  0  0  0  0  0  0  0
   12.4178   17.3384   18.8124 C   0  0  0  0  0  0  0  0  0  0  0  0
    9.9931   17.9680   16.3959 O   0  0  0  0  0  0  0  0  0  0  0  0
   10.0129   16.5558   16.6757 C   0  0  0  0  0  0  0  0  0  0  0  0
   11.5106   16.2613   16.7335 C   0  0  0  0  0  0  0  0  0  0  0  0
   15.9811   22.6506   17.0545 C   0  0  0  0  0  0  0  0  0  0  0  0
   15.6949   23.9565   16.5704 O   0  0  0  0  0  0  0  0  0  0  0  0
   15.9749   24.0266   15.6444 H   0  0  0  0  0  0  0  0  0  0  0  0
   17.4724   22.3492   17.0974 C   0  0  0  0  0  0  0  0  0  0  0  0
   18.1545   23.3496   17.9145 N   0  0  0  0  0  0  0  0  0  0  0  0
   18.4804   22.8173   19.4257 S   0  0  0  0  0  0  0  0  0  0  0  0
   18.7522   21.3494   19.3843 O   0  0  0  0  0  0  0  0  0  0  0  0
   17.2956   23.1488   20.2723 O   0  0  0  0  0  0  0  0  0  0  0  0
   22.1925   24.8702   21.0842 C   0  0  0  0  0  0  0  0  0  0  0  0
   20.9512   25.5116   21.1229 C   0  0  0  0  0  0  0  0  0  0  0  0
   19.8118   24.9117   20.5982 C   0  0  0  0  0  0  0  0  0  0  0  0
   19.9010   23.6212   20.0711 C   0  0  0  0  0  0  0  0  0  0  0  0
   21.1372   22.9895   20.0292 C   0  0  0  0  0  0  0  0  0  0  0  0
   22.2861   23.5962   20.5300 C   0  0  0  0  0  0  0  0  0  0  0  0
   23.2887   25.4722   21.6236 O   0  0  0  0  0  0  0  0  0  0  0  0
   22.9782   26.1604   22.8291 C   0  0  0  0  0  0  0  0  0  0  0  0
   19.3270   23.9188   17.2581 C   0  0  0  0  0  0  0  0  0  0  0  0
   19.0629   25.3730   16.8476 C   0  0  0  0  0  0  0  0  0  0  0  0
   20.2353   26.2945   17.1873 C   0  0  0  0  0  0  0  0  0  0  0  0
   18.7107   25.4880   15.3609 C   0  0  0  0  0  0  0  0  0  0  0  0
   14.4285   22.2651   15.0972 C   0  0  0  0  0  0  0  0  0  0  0  0
   13.9307   20.1664   13.7857 C   0  0  0  0  0  0  0  0  0  0  0  0
   13.0536   19.2421   13.2373 C   0  0  0  0  0  0  0  0  0  0  0  0
   11.6795   19.4080   13.3893 C   0  0  0  0  0  0  0  0  0  0  0  0
   11.1875   20.4972   14.0961 C   0  0  0  0  0  0  0  0  0  0  0  0
   12.0702   21.4206   14.6556 C   0  0  0  0  0  0  0  0  0  0  0  0
   13.4387   21.2517   14.5032 C   0  0  0  0  0  0  0  0  0  0  0  0
 27 26  2  0  0  0
 32 26  1  0  0  0
 26 31  1  0  0  0
 27 28  1  0  0  0
 28 29  2  0  0  0
 29 30  1  0  0  0
 29 23  1  0  0  0
 31 30  2  0  0  0
 24 23  2  0  0  0
 23 25  2  0  0  0
 23 22  1  0  0  0
 22 21  1  0  0  0
 22 34  1  0  0  0
 34 35  1  0  0  0
 36 35  1  0  0  0
 35 37  1  0  0  0
 21 18  1  0  0  0
  1 18  1  0  0  0
 18 19  1  0  0  0
 38  1  1  0  0  0
  1  2  1  0  0  0
  2  3  1  0  0  0
  4  3  2  0  0  0
  3  6  1  0  0  0
  6  7  1  0  0  0
 14  7  1  0  0  0
  7  8  1  0  0  0
  9  8  1  0  0  0
 10  9  1  0  0  0
 14 10  1  0  0  0
 11 10  1  0  0  0
 12 11  1  0  0  0
 15 12  1  0  0  0
 13 12  1  0  0  0
 17 13  1  0  0  0
 13 14  1  0  0  0
 44 38  1  0  0  0
 40 39  2  0  0  0
 39 44  1  0  0  0
 41 40  1  0  0  0
 41 42  2  0  0  0
 42 43  1  0  0  0
 43 44  2  0  0  0
 32 33  1  0  0  0
 16 15  1  0  0  0
 17 16  1  0  0  0
 19 20  1  0  0  0
  2  5  1  0  0  0
M  END
> <minimizedAffinity>
-9.72821

$$$$
6DJ5_G52_B_201


 44 48  0  0  0  0  0  0  0  0999 V2000
   19.0657   24.0029   19.4261 C   0  0  0  0  0  0  0  0  0  0  0  0
   19.2401   25.1053   18.4625 N   0  0  0  0  0  0  0  0  0  0  0  0
   19.7497   24.9945   17.2366 C   0  0  0  0  0  0  0  0  0  0  0  0
   20.1269   23.9279   16.7510 O   0  0  0  0  0  0  0  0  0  0  0  0
   18.9547   26.0025   18.7504 H   0  0  0  0  0  0  0  0  0  0  0  0
   19.8467   26.1490   16.5177 O   0  0  0  0  0  0  0  0  0  0  0  0
   20.1031   25.9079   15.1325 C   0  0  0  0  0  0  0  0  0  0  0  0
   19.1482   26.7993   14.3321 C   0  0  0  0  0  0  0  0  0  0  0  0
   19.6697   28.1252   14.4944 O   0  0  0  0  0  0  0  0  0  0  0  0
   21.0788   28.0338   14.6790 C   0  0  0  0  0  0  0  0  0  0  0  0
   21.4602   28.6654   15.8893 O   0  0  0  0  0  0  0  0  0  0  0  0
   22.1914   27.7838   16.7285 C   0  0  0  0  0  0  0  0  0  0  0  0
   22.4493   26.5067   15.9467 C   0  0  0  0  0  0  0  0  0  0  0  0
   21.4479   26.5668   14.7895 C   0  0  0  0  0  0  0  0  0  0  0  0
   23.4902   28.3464   16.9751 O   0  0  0  0  0  0  0  0  0  0  0  0
   24.1975   28.1493   15.7365 C   0  0  0  0  0  0  0  0  0  0  0  0
   23.8770   26.6913   15.4128 C   0  0  0  0  0  0  0  0  0  0  0  0
   17.5921   23.5891   19.4085 C   0  0  0  0  0  0  0  0  0  0  0  0
   17.4809   22.1780   19.2747 O   0  0  0  0  0  0  0  0  0  0  0  0
   17.8636   21.9024   18.4270 H   0  0  0  0  0  0  0  0  0  0  0  0
   16.7752   24.3478   18.3723 C   0  0  0  0  0  0  0  0  0  0  0  0
   16.2487   23.4146   17.3795 N   0  0  0  0  0  0  0  0  0  0  0  0
   14.6440   23.1504   17.5475 S   0  0  0  0  0  0  0  0  0  0  0  0
   13.9671   23.3708   16.2347 O   0  0  0  0  0  0  0  0  0  0  0  0
   14.1532   24.0886   18.6008 O   0  0  0  0  0  0  0  0  0  0  0  0
   13.8599   18.8724   18.8998 C   0  0  0  0  0  0  0  0  0  0  0  0
   13.6610   19.2417   17.5665 C   0  0  0  0  0  0  0  0  0  0  0  0
   13.8701   20.5487   17.1403 C   0  0  0  0  0  0  0  0  0  0  0  0
   14.3394   21.4970   18.0521 C   0  0  0  0  0  0  0  0  0  0  0  0
   14.5304   21.1277   19.3773 C   0  0  0  0  0  0  0  0  0  0  0  0
   14.2979   19.8264   19.8147 C   0  0  0  0  0  0  0  0  0  0  0  0
   13.6671   17.5807   19.2861 O   0  0  0  0  0  0  0  0  0  0  0  0
   12.7898   17.4846   20.4016 C   0  0  0  0  0  0  0  0  0  0  0  0
   16.6160   23.7694   16.0125 C   0  0  0  0  0  0  0  0  0  0  0  0
   17.1670   22.5470   15.2673 C   0  0  0  0  0  0  0  0  0  0  0  0
   17.6326   21.4462   16.2216 C   0  0  0  0  0  0  0  0  0  0  0  0
   16.1510   21.9870   14.2664 C   0  0  0  0  0  0  0  0  0  0  0  0
   19.4660   24.5498   20.8070 C   0  0  0  0  0  0  0  0  0  0  0  0
   21.5670   25.7839   21.4669 C   0  0  0  0  0  0  0  0  0  0  0  0
   22.9471   25.9027   21.5418 C   0  0  0  0  0  0  0  0  0  0  0  0
   23.7634   24.9036   21.0181 C   0  0  0  0  0  0  0  0  0  0  0  0
   23.1943   23.7842   20.4256 C   0  0  0  0  0  0  0  0  0  0  0  0
   21.8068   23.6608   20.3595 C   0  0  0  0  0  0  0  0  0  0  0  0
   20.9965   24.6575   20.8833 C   0  0  0  0  0  0  0  0  0  0  0  0
 27 26  2  0  0  0
 32 26  1  0  0  0
 26 31  1  0  0  0
 27 28  1  0  0  0
 28 29  2  0  0  0
 29 30  1  0  0  0
 29 23  1  0  0  0
 31 30  2  0  0  0
 24 23  2  0  0  0
 23 25  2  0  0  0
 23 22  1  0  0  0
 22 21  1  0  0  0
 22 34  1  0  0  0
 34 35  1  0  0  0
 36 35  1  0  0  0
 35 37  1  0  0  0
 21 18  1  0  0  0
  1 18  1  0  0  0
 18 19  1  0  0  0
 38  1  1  0  0  0
  1  2  1  0  0  0
  2  3  1  0  0  0
  4  3  2  0  0  0
  3  6  1  0  0  0
  6  7  1  0  0  0
 14  7  1  0  0  0
  7  8  1  0  0  0
  9  8  1  0  0  0
 10  9  1  0  0  0
 14 10  1  0  0  0
 11 10  1  0  0  0
 12 11  1  0  0  0
 15 12  1  0  0  0
 13 12  1  0  0  0
 17 13  1  0  0  0
 13 14  1  0  0  0
 44 38  1  0  0  0
 40 39  2  0  0  0
 39 44  1  0  0  0
 41 40  1  0  0  0
 41 42  2  0  0  0
 42 43  1  0  0  0
 43 44  2  0  0  0
 32 33  1  0  0  0
 16 15  1  0  0  0
 17 16  1  0  0  0
 19 20  1  0  0  0
  2  5  1  0  0  0
M  END
> <minimizedAffinity>
-9.72406

$$$$
6DJ5_G52_B_201


 44 48  0  0  0  0  0  0  0  0999 V2000
   18.2231   25.6040   17.0001 C   0  0  0  0  0  0  0  0  0  0  0  0
   19.3055   25.2233   17.9262 N   0  0  0  0  0  0  0  0  0  0  0  0
   20.2645   26.0308   18.3769 C   0  0  0  0  0  0  0  0  0  0  0  0
   20.3475   27.2218   18.0762 O   0  0  0  0  0  0  0  0  0  0  0  0
   19.3209   24.2900   18.2392 H   0  0  0  0  0  0  0  0  0  0  0  0
   21.1864   25.4663   19.2079 O   0  0  0  0  0  0  0  0  0  0  0  0
   20.5838   24.6563   20.2195 C   0  0  0  0  0  0  0  0  0  0  0  0
   20.8920   23.1957   19.8751 C   0  0  0  0  0  0  0  0  0  0  0  0
   22.2857   23.0399   20.1745 O   0  0  0  0  0  0  0  0  0  0  0  0
   22.6229   23.9418   21.2238 C   0  0  0  0  0  0  0  0  0  0  0  0
   23.6878   24.7878   20.8245 O   0  0  0  0  0  0  0  0  0  0  0  0
   23.3437   26.1584   20.9634 C   0  0  0  0  0  0  0  0  0  0  0  0
   21.9933   26.2296   21.6561 C   0  0  0  0  0  0  0  0  0  0  0  0
   21.4170   24.8192   21.4999 C   0  0  0  0  0  0  0  0  0  0  0  0
   24.2684   26.7807   21.8700 O   0  0  0  0  0  0  0  0  0  0  0  0
   23.8688   26.2948   23.1651 C   0  0  0  0  0  0  0  0  0  0  0  0
   22.3540   26.4871   23.1263 C   0  0  0  0  0  0  0  0  0  0  0  0
   16.9449   24.8920   17.4495 C   0  0  0  0  0  0  0  0  0  0  0  0
   16.1441   25.7691   18.2311 O   0  0  0  0  0  0  0  0  0  0  0  0
   16.6274   26.0190   19.0341 H   0  0  0  0  0  0  0  0  0  0  0  0
   17.2176   23.5645   18.1425 C   0  0  0  0  0  0  0  0  0  0  0  0
   16.7821   22.4631   17.2875 N   0  0  0  0  0  0  0  0  0  0  0  0
   17.1948   20.9977   17.8837 S   0  0  0  0  0  0  0  0  0  0  0  0
   18.2248   21.1710   18.9511 O   0  0  0  0  0  0  0  0  0  0  0  0
   17.7004   20.1846   16.7374 O   0  0  0  0  0  0  0  0  0  0  0  0
   13.5734   18.9044   19.6859 C   0  0  0  0  0  0  0  0  0  0  0  0
   14.2011   19.9492   20.3702 C   0  0  0  0  0  0  0  0  0  0  0  0
   15.3232   20.5830   19.8481 C   0  0  0  0  0  0  0  0  0  0  0  0
   15.7988   20.2028   18.5910 C   0  0  0  0  0  0  0  0  0  0  0  0
   15.1759   19.1605   17.9167 C   0  0  0  0  0  0  0  0  0  0  0  0
   14.0675   18.5054   18.4467 C   0  0  0  0  0  0  0  0  0  0  0  0
   12.4636   18.3146   20.2108 O   0  0  0  0  0  0  0  0  0  0  0  0
   11.5040   18.0007   19.2088 C   0  0  0  0  0  0  0  0  0  0  0  0
   15.3695   22.5428   16.9303 C   0  0  0  0  0  0  0  0  0  0  0  0
   15.2068   22.9489   15.4600 C   0  0  0  0  0  0  0  0  0  0  0  0
   15.8739   21.9566   14.5062 C   0  0  0  0  0  0  0  0  0  0  0  0
   13.7339   23.1389   15.0833 C   0  0  0  0  0  0  0  0  0  0  0  0
   18.6494   25.1348   15.5986 C   0  0  0  0  0  0  0  0  0  0  0  0
   21.0927   25.5229   15.0965 C   0  0  0  0  0  0  0  0  0  0  0  0
   22.1425   26.3120   14.6497 C   0  0  0  0  0  0  0  0  0  0  0  0
   21.9024   27.6128   14.2150 C   0  0  0  0  0  0  0  0  0  0  0  0
   20.6091   28.1180   14.2233 C   0  0  0  0  0  0  0  0  0  0  0  0
   19.5528   27.3208   14.6634 C   0  0  0  0  0  0  0  0  0  0  0  0
   19.7954   26.0249   15.0947 C   0  0  0  0  0  0  0  0  0  0  0  0
 27 26  2  0  0  0
 32 26  1  0  0  0
 26 31  1  0  0  0
 27 28  1  0  0  0
 28 29  2  0  0  0
 29 30  1  0  0  0
 29 23  1  0  0  0
 31 30  2  0  0  0
 24 23  2  0  0  0
 23 25  2  0  0  0
 23 22  1  0  0  0
 22 21  1  0  0  0
 22 34  1  0  0  0
 34 35  1  0  0  0
 36 35  1  0  0  0
 35 37  1  0  0  0
 21 18  1  0  0  0
  1 18  1  0  0  0
 18 19  1  0  0  0
 38  1  1  0  0  0
  1  2  1  0  0  0
  2  3  1  0  0  0
  4  3  2  0  0  0
  3  6  1  0  0  0
  6  7  1  0  0  0
 14  7  1  0  0  0
  7  8  1  0  0  0
  9  8  1  0  0  0
 10  9  1  0  0  0
 14 10  1  0  0  0
 11 10  1  0  0  0
 12 11  1  0  0  0
 15 12  1  0  0  0
 13 12  1  0  0  0
 17 13  1  0  0  0
 13 14  1  0  0  0
 44 38  1  0  0  0
 40 39  2  0  0  0
 39 44  1  0  0  0
 41 40  1  0  0  0
 41 42  2  0  0  0
 42 43  1  0  0  0
 43 44  2  0  0  0
 32 33  1  0  0  0
 16 15  1  0  0  0
 17 16  1  0  0  0
 19 20  1  0  0  0
  2  5  1  0  0  0
M  END
> <minimizedAffinity>
-9.60752

$$$$
6DJ5_G52_B_201


 44 48  0  0  0  0  0  0  0  0999 V2000
   13.2019   19.9643   18.6456 C   0  0  0  0  0  0  0  0  0  0  0  0
   12.7485   20.0650   17.2461 N   0  0  0  0  0  0  0  0  0  0  0  0
   11.4805   20.0826   16.8380 C   0  0  0  0  0  0  0  0  0  0  0  0
   10.5186   20.0324   17.6048 O   0  0  0  0  0  0  0  0  0  0  0  0
   13.4442   20.1244   16.5521 H   0  0  0  0  0  0  0  0  0  0  0  0
   11.2820   20.1544   15.4908 O   0  0  0  0  0  0  0  0  0  0  0  0
    9.9357   19.8483   15.1219 C   0  0  0  0  0  0  0  0  0  0  0  0
    9.3612   21.0888   14.4302 C   0  0  0  0  0  0  0  0  0  0  0  0
   10.0092   21.1224   13.1514 O   0  0  0  0  0  0  0  0  0  0  0  0
   10.3223   19.7862   12.7716 C   0  0  0  0  0  0  0  0  0  0  0  0
   11.7091   19.6602   12.5069 O   0  0  0  0  0  0  0  0  0  0  0  0
   12.2961   18.6287   13.2866 C   0  0  0  0  0  0  0  0  0  0  0  0
   11.1773   17.9072   14.0189 C   0  0  0  0  0  0  0  0  0  0  0  0
    9.9913   18.8728   13.9363 C   0  0  0  0  0  0  0  0  0  0  0  0
   12.8675   17.6478   12.4061 O   0  0  0  0  0  0  0  0  0  0  0  0
   11.7274   16.9413   11.8828 C   0  0  0  0  0  0  0  0  0  0  0  0
   10.9092   16.6738   13.1446 C   0  0  0  0  0  0  0  0  0  0  0  0
   14.3562   20.9506   18.8401 C   0  0  0  0  0  0  0  0  0  0  0  0
   13.9141   22.2783   18.5883 O   0  0  0  0  0  0  0  0  0  0  0  0
   13.6282   22.3541   17.6645 H   0  0  0  0  0  0  0  0  0  0  0  0
   15.5961   20.5780   18.0397 C   0  0  0  0  0  0  0  0  0  0  0  0
   16.0550   21.7345   17.2744 N   0  0  0  0  0  0  0  0  0  0  0  0
   17.2968   22.5175   17.9943 S   0  0  0  0  0  0  0  0  0  0  0  0
   18.3310   21.5244   18.4121 O   0  0  0  0  0  0  0  0  0  0  0  0
   16.7293   23.2649   19.1560 O   0  0  0  0  0  0  0  0  0  0  0  0
   19.1953   25.4866   15.1089 C   0  0  0  0  0  0  0  0  0  0  0  0
   19.8961   24.3479   15.5168 C   0  0  0  0  0  0  0  0  0  0  0  0
   19.3433   23.4437   16.4169 C   0  0  0  0  0  0  0  0  0  0  0  0
   18.0418   23.6508   16.8800 C   0  0  0  0  0  0  0  0  0  0  0  0
   17.3509   24.7862   16.4770 C   0  0  0  0  0  0  0  0  0  0  0  0
   17.9097   25.7082   15.5958 C   0  0  0  0  0  0  0  0  0  0  0  0
   19.7525   26.3454   14.2106 O   0  0  0  0  0  0  0  0  0  0  0  0
   20.9230   26.9681   14.7258 C   0  0  0  0  0  0  0  0  0  0  0  0
   16.3287   21.4206   15.8758 C   0  0  0  0  0  0  0  0  0  0  0  0
   15.0569   21.5683   15.0309 C   0  0  0  0  0  0  0  0  0  0  0  0
   14.3380   22.8931   15.2901 C   0  0  0  0  0  0  0  0  0  0  0  0
   15.3472   21.4057   13.5352 C   0  0  0  0  0  0  0  0  0  0  0  0
   13.6753   18.5162   18.8582 C   0  0  0  0  0  0  0  0  0  0  0  0
   12.4564   16.6375   17.6930 C   0  0  0  0  0  0  0  0  0  0  0  0
   11.3790   15.7748   17.5543 C   0  0  0  0  0  0  0  0  0  0  0  0
   10.3062   15.8496   18.4388 C   0  0  0  0  0  0  0  0  0  0  0  0
   10.3185   16.7853   19.4646 C   0  0  0  0  0  0  0  0  0  0  0  0
   11.4064   17.6457   19.6094 C   0  0  0  0  0  0  0  0  0  0  0  0
   12.4741   17.5677   18.7270 C   0  0  0  0  0  0  0  0  0  0  0  0
 27 26  2  0  0  0
 32 26  1  0  0  0
 26 31  1  0  0  0
 27 28  1  0  0  0
 28 29  2  0  0  0
 29 30  1  0  0  0
 29 23  1  0  0  0
 31 30  2  0  0  0
 24 23  2  0  0  0
 23 25  2  0  0  0
 23 22  1  0  0  0
 22 21  1  0  0  0
 22 34  1  0  0  0
 34 35  1  0  0  0
 36 35  1  0  0  0
 35 37  1  0  0  0
 21 18  1  0  0  0
  1 18  1  0  0  0
 18 19  1  0  0  0
 38  1  1  0  0  0
  1  2  1  0  0  0
  2  3  1  0  0  0
  4  3  2  0  0  0
  3  6  1  0  0  0
  6  7  1  0  0  0
 14  7  1  0  0  0
  7  8  1  0  0  0
  9  8  1  0  0  0
 10  9  1  0  0  0
 14 10  1  0  0  0
 11 10  1  0  0  0
 12 11  1  0  0  0
 15 12  1  0  0  0
 13 12  1  0  0  0
 17 13  1  0  0  0
 13 14  1  0  0  0
 44 38  1  0  0  0
 40 39  2  0  0  0
 39 44  1  0  0  0
 41 40  1  0  0  0
 41 42  2  0  0  0
 42 43  1  0  0  0
 43 44  2  0  0  0
 32 33  1  0  0  0
 16 15  1  0  0  0
 17 16  1  0  0  0
 19 20  1  0  0  0
  2  5  1  0  0  0
M  END
> <minimizedAffinity>
-9.45006

$$$$
6DJ5_G52_B_201


 44 48  0  0  0  0  0  0  0  0999 V2000
   15.8769   21.8149   18.7656 C   0  0  0  0  0  0  0  0  0  0  0  0
   17.0002   22.6949   19.1372 N   0  0  0  0  0  0  0  0  0  0  0  0
   18.2689   22.5383   18.7622 C   0  0  0  0  0  0  0  0  0  0  0  0
   18.6539   21.6265   18.0300 O   0  0  0  0  0  0  0  0  0  0  0  0
   16.7944   23.4664   19.7132 H   0  0  0  0  0  0  0  0  0  0  0  0
   19.1567   23.4551   19.2425 O   0  0  0  0  0  0  0  0  0  0  0  0
   19.2891   23.3919   20.6641 C   0  0  0  0  0  0  0  0  0  0  0  0
   19.9687   22.0602   20.9981 C   0  0  0  0  0  0  0  0  0  0  0  0
   21.3320   22.2376   20.5901 O   0  0  0  0  0  0  0  0  0  0  0  0
   21.6606   23.6180   20.7106 C   0  0  0  0  0  0  0  0  0  0  0  0
   22.1283   24.1241   19.4720 O   0  0  0  0  0  0  0  0  0  0  0  0
   21.3786   25.2560   19.0558 C   0  0  0  0  0  0  0  0  0  0  0  0
   20.4319   25.6259   20.1852 C   0  0  0  0  0  0  0  0  0  0  0  0
   20.3969   24.3760   21.0697 C   0  0  0  0  0  0  0  0  0  0  0  0
   22.2658   26.3780   18.9216 O   0  0  0  0  0  0  0  0  0  0  0  0
   22.5539   26.7602   20.2795 C   0  0  0  0  0  0  0  0  0  0  0  0
   21.1644   26.7617   20.9139 C   0  0  0  0  0  0  0  0  0  0  0  0
   14.8589   22.6518   17.9871 C   0  0  0  0  0  0  0  0  0  0  0  0
   13.8713   23.1682   18.8700 O   0  0  0  0  0  0  0  0  0  0  0  0
   13.3845   22.4338   19.2758 H   0  0  0  0  0  0  0  0  0  0  0  0
   14.2613   21.9071   16.8017 C   0  0  0  0  0  0  0  0  0  0  0  0
   14.5781   22.6152   15.5639 N   0  0  0  0  0  0  0  0  0  0  0  0
   16.0818   22.2856   15.0132 S   0  0  0  0  0  0  0  0  0  0  0  0
   16.0536   22.1977   13.5226 O   0  0  0  0  0  0  0  0  0  0  0  0
   16.5093   21.0025   15.6468 O   0  0  0  0  0  0  0  0  0  0  0  0
   18.9488   25.6149   16.2137 C   0  0  0  0  0  0  0  0  0  0  0  0
   19.4255   24.4632   15.5812 C   0  0  0  0  0  0  0  0  0  0  0  0
   18.5695   23.4251   15.2305 C   0  0  0  0  0  0  0  0  0  0  0  0
   17.1995   23.5605   15.4674 C   0  0  0  0  0  0  0  0  0  0  0  0
   16.7304   24.7038   16.1013 C   0  0  0  0  0  0  0  0  0  0  0  0
   17.5869   25.7352   16.4777 C   0  0  0  0  0  0  0  0  0  0  0  0
   19.8063   26.6253   16.5280 O   0  0  0  0  0  0  0  0  0  0  0  0
   20.1458   27.4079   15.3898 C   0  0  0  0  0  0  0  0  0  0  0  0
   13.5574   22.4484   14.5344 C   0  0  0  0  0  0  0  0  0  0  0  0
   12.7865   21.1392   14.7461 C   0  0  0  0  0  0  0  0  0  0  0  0
   11.2812   21.3113   14.5372 C   0  0  0  0  0  0  0  0  0  0  0  0
   13.3212   20.0149   13.8529 C   0  0  0  0  0  0  0  0  0  0  0  0
   15.2683   21.2903   20.0774 C   0  0  0  0  0  0  0  0  0  0  0  0
   14.9444   19.2339   18.6495 C   0  0  0  0  0  0  0  0  0  0  0  0
   14.3872   17.9878   18.4025 C   0  0  0  0  0  0  0  0  0  0  0  0
   13.5128   17.4187   19.3248 C   0  0  0  0  0  0  0  0  0  0  0  0
   13.2036   18.0976   20.4959 C   0  0  0  0  0  0  0  0  0  0  0  0
   13.7719   19.3459   20.7480 C   0  0  0  0  0  0  0  0  0  0  0  0
   14.6434   19.9095   19.8275 C   0  0  0  0  0  0  0  0  0  0  0  0
 27 26  2  0  0  0
 32 26  1  0  0  0
 26 31  1  0  0  0
 27 28  1  0  0  0
 28 29  2  0  0  0
 29 30  1  0  0  0
 29 23  1  0  0  0
 31 30  2  0  0  0
 24 23  2  0  0  0
 23 25  2  0  0  0
 23 22  1  0  0  0
 22 21  1  0  0  0
 22 34  1  0  0  0
 34 35  1  0  0  0
 36 35  1  0  0  0
 35 37  1  0  0  0
 21 18  1  0  0  0
  1 18  1  0  0  0
 18 19  1  0  0  0
 38  1  1  0  0  0
  1  2  1  0  0  0
  2  3  1  0  0  0
  4  3  2  0  0  0
  3  6  1  0  0  0
  6  7  1  0  0  0
 14  7  1  0  0  0
  7  8  1  0  0  0
  9  8  1  0  0  0
 10  9  1  0  0  0
 14 10  1  0  0  0
 11 10  1  0  0  0
 12 11  1  0  0  0
 15 12  1  0  0  0
 13 12  1  0  0  0
 17 13  1  0  0  0
 13 14  1  0  0  0
 44 38  1  0  0  0
 40 39  2  0  0  0
 39 44  1  0  0  0
 41 40  1  0  0  0
 41 42  2  0  0  0
 42 43  1  0  0  0
 43 44  2  0  0  0
 32 33  1  0  0  0
 16 15  1  0  0  0
 17 16  1  0  0  0
 19 20  1  0  0  0
  2  5  1  0  0  0
M  END
> <minimizedAffinity>
-9.38950

$$$$
