5N0E_8F3_A_302
  RCSB PDB12061719073D
Coordinates from PDB:5N0E:A:302 Model:1 without hydrogens
 30 33  0  0  0  0            999 V2000
   -4.2260    2.9740   13.7820   C 0  0  0  0  0  0  0  0  0  0  0  0
   -4.6650    1.9290   14.5890   C 0  0  0  0  0  0  0  0  0  0  0  0
   -5.5060    2.2200   15.6580   C 0  0  0  0  0  0  0  0  0  0  0  0
   -6.0280    0.9590   16.7910   S 0  0  0  0  0  0  0  0  0  0  0  0
   -7.4590    0.9570   16.7330   O 0  0  0  0  0  0  0  0  0  0  0  0
   -5.4370    1.2020   18.0720   O 0  0  0  0  0  0  0  0  0  0  0  0
   -5.5270   -0.4440   16.2250   N 0  0  0  0  0  0  0  0  0  0  0  0
   -5.9610    3.5120   15.8890   C 0  0  0  0  0  0  0  0  0  0  0  0
   -5.5440    4.5460   15.0600   C 0  0  0  0  0  0  0  0  0  0  0  0
   -4.6320    4.2770   14.0490   C 0  0  0  0  0  0  0  0  0  0  0  0
   -4.0350    5.3870   13.2330   C 0  0  0  0  0  0  0  0  0  0  0  0
   -4.9160    6.1620   12.8960   O 0  0  0  0  0  0  0  0  0  0  0  0
   -2.7270    5.5000   12.9870   N 0  0  0  0  0  0  0  0  0  0  0  0
   -1.6510    4.6160   13.4630   C 0  0  0  0  0  0  0  0  0  0  0  0
   -1.0190    3.8980   12.2790   C 0  0  0  0  0  0  0  0  0  0  0  0
   -0.7990    4.8010   11.0980   C 0  0  0  0  0  0  0  0  0  0  0  0
   -0.0570    4.3670   10.0060   C 0  0  0  0  0  0  0  0  0  0  0  0
    0.0820    5.1370    8.8540   C 0  0  0  0  0  0  0  0  0  0  0  0
    0.7220    4.6910    7.7280   O 0  0  0  0  0  0  0  0  0  0  0  0
   -0.5380    6.3810    8.7950   C 0  0  0  0  0  0  0  0  0  0  0  0
   -0.5530    7.0290    7.5880   O 0  0  0  0  0  0  0  0  0  0  0  0
   -1.2630    6.8410    9.8860   C 0  0  0  0  0  0  0  0  0  0  0  0
   -1.3850    6.0650   11.0350   C 0  0  0  0  0  0  0  0  0  0  0  0
   -2.2710    6.6430   12.1510   C 0  0  0  0  0  0  0  0  0  0  0  0
   -1.5220    7.6090   13.0770   C 0  0  0  0  0  0  0  0  0  0  0  0
   -0.2570    8.1110   12.7070   C 0  0  0  0  0  0  0  0  0  0  0  0
    0.4540    8.9440   13.5670   C 0  0  0  0  0  0  0  0  0  0  0  0
   -0.0750    9.2980   14.7920   C 0  0  0  0  0  0  0  0  0  0  0  0
   -1.3000    8.7960   15.1810   C 0  0  0  0  0  0  0  0  0  0  0  0
   -2.0190    7.9430   14.3310   C 0  0  0  0  0  0  0  0  0  0  0  0
 21 20  1  0  0  0  0
 19 18  1  0  0  0  0
 20 18  2  0  0  0  0
 20 22  1  0  0  0  0
 18 17  1  0  0  0  0
 22 23  2  0  0  0  0
 17 16  2  0  0  0  0
 23 16  1  0  0  0  0
 23 24  1  0  0  0  0
 16 15  1  0  0  0  0
 24 13  1  0  0  0  0
 24 25  1  0  0  0  0
 15 14  1  0  0  0  0
 26 25  2  0  0  0  0
 26 27  1  0  0  0  0
 12 11  2  0  0  0  0
 13 11  1  0  0  0  0
 13 14  1  0  0  0  0
 25 30  1  0  0  0  0
 11 10  1  0  0  0  0
 27 28  2  0  0  0  0
  1 10  2  0  0  0  0
  1  2  1  0  0  0  0
 10  9  1  0  0  0  0
 30 29  2  0  0  0  0
  2  3  2  0  0  0  0
 28 29  1  0  0  0  0
  9  8  2  0  0  0  0
  3  8  1  0  0  0  0
  3  4  1  0  0  0  0
  7  4  1  0  0  0  0
  5  4  2  0  0  0  0
  4  6  2  0  0  0  0
A    1
C12
A    2
C11
A    3
C10
A    4
S1
A    5
O1
A    6
O2
A    7
N2
A    8
C15
A    9
C14
A   10
C13
A   11
C16
A   12
O3
A   13
N1
A   14
C8
A   15
C9
A   16
C5
A   17
C4
A   18
C3
A   19
O5
A   20
C2
A   21
O4
A   22
C1
A   23
C6
A   24
C7
A   25
C18
A   26
C17
A   27
C22
A   28
C21
A   29
C20
A   30
C19
M  END
>  <InstanceId>
5N0E_8F3_A_302

>  <ChemCompId>
8F3

>  <PdbId>
5N0E

>  <ChainId>
A

>  <ResidueNumber>
302

>  <InsertionCode>


>  <Model>
1

>  <AltIds>


>  <MissingHeavyAtoms>
0

>  <ObservedFormula>
C22 N2 O5 S

>  <Name>
4-[[(1~{S})-6,7-bis(oxidanyl)-1-phenyl-3,4-dihydro-1~{H}-isoquinolin-2-yl]carbonyl]benzenesulfonamide

>  <SystematicName>
4-[[(1~{S})-6,7-bis(oxidanyl)-1-phenyl-3,4-dihydro-1~{H}-isoquinolin-2-yl]carbonyl]benzenesulfonamide

>  <Synonyms>


>  <Type>
NON-POLYMER

>  <Formula>
C22 H20 N2 O5 S

>  <MolecularWeight>
424.47

>  <ModifiedDate>
2017-05-05

>  <Parent>


>  <OneLetterCode>


>  <SubcomponentList>


>  <AmbiguousFlag>
N

>  <InChI>
InChI=1S/C22H20N2O5S/c23-30(28,29)17-8-6-15(7-9-17)22(27)24-11-10-16-12-19(25)20(26)13-18(16)21(24)14-4-2-1-3-5-14/h1-9,12-13,21,25-26H,10-11H2,(H2,23,28,29)/t21-/m0/s1

>  <InChIKey>
UBKCMPKCMMEDIG-NRFANRHFSA-N

>  <SMILES>
c1ccc(cc1)[C@H]2c3cc(c(cc3CCN2C(=O)c4ccc(cc4)S(=O)(=O)N)O)O

$$$$
