5N0E_8F3_A_302


 34 37  0  0  0  0  0  0  0  0999 V2000
   -4.4387    4.3994   12.5459 C   0  0  0  0  0  0  0  0  0  0  0  0
   -4.7880    3.7471   11.5749 O   0  0  0  0  0  0  0  0  0  0  0  0
   -3.8379    5.5924   12.5394 N   0  0  0  0  0  0  0  0  0  0  0  0
   -3.4920    6.4223   13.7045 C   0  0  0  0  0  0  0  0  0  0  0  0
   -1.9783    6.5297   13.8234 C   0  0  0  0  0  0  0  0  0  0  0  0
   -1.3029    6.7526   12.4995 C   0  0  0  0  0  0  0  0  0  0  0  0
    0.0491    7.0690   12.4412 C   0  0  0  0  0  0  0  0  0  0  0  0
    0.7300    7.1825   11.2317 C   0  0  0  0  0  0  0  0  0  0  0  0
    2.0810    7.3933   11.1499 O   0  0  0  0  0  0  0  0  0  0  0  0
    0.0350    6.9763   10.0443 C   0  0  0  0  0  0  0  0  0  0  0  0
    0.7621    6.8978    8.8857 O   0  0  0  0  0  0  0  0  0  0  0  0
   -1.3215    6.6835   10.0828 C   0  0  0  0  0  0  0  0  0  0  0  0
   -1.9915    6.5832   11.2986 C   0  0  0  0  0  0  0  0  0  0  0  0
   -3.4742    6.1828   11.2232 C   0  0  0  0  0  0  0  0  0  0  0  0
    2.4944    7.4628   10.3119 H   0  0  0  0  0  0  0  0  0  0  0  0
    1.6766    7.1018    8.8918 H   0  0  0  0  0  0  0  0  0  0  0  0
   -5.8486    4.2500   14.5831 C   0  0  0  0  0  0  0  0  0  0  0  0
   -6.3382    3.5643   15.6904 C   0  0  0  0  0  0  0  0  0  0  0  0
   -5.8092    2.3125   15.9869 C   0  0  0  0  0  0  0  0  0  0  0  0
   -4.7674    1.7732   15.2429 C   0  0  0  0  0  0  0  0  0  0  0  0
   -4.2615    2.4776   14.1575 C   0  0  0  0  0  0  0  0  0  0  0  0
   -4.8476    3.6841   13.8010 C   0  0  0  0  0  0  0  0  0  0  0  0
   -6.4484    1.3332   17.3206 S   0  0  0  0  0  0  0  0  0  0  0  0
   -7.8014    1.0300   16.9621 O   0  0  0  0  0  0  0  0  0  0  0  0
   -6.2515    2.0313   18.5548 O   0  0  0  0  0  0  0  0  0  0  0  0
   -5.6435   -0.0420   17.3462 N   0  0  0  0  0  0  0  0  0  0  0  0
   -5.7864   -0.5361   16.4654 H   0  0  0  0  0  0  0  0  0  0  0  0
   -5.9795   -0.6183   18.1178 H   0  0  0  0  0  0  0  0  0  0  0  0
   -4.4102    7.3747   10.9891 C   0  0  0  0  0  0  0  0  0  0  0  0
   -5.8086    7.1914   10.9913 C   0  0  0  0  0  0  0  0  0  0  0  0
   -6.6635    8.2575   10.7241 C   0  0  0  0  0  0  0  0  0  0  0  0
   -6.1530    9.5131   10.4621 C   0  0  0  0  0  0  0  0  0  0  0  0
   -4.7869    9.7053   10.4310 C   0  0  0  0  0  0  0  0  0  0  0  0
   -3.9146    8.6362   10.6823 C   0  0  0  0  0  0  0  0  0  0  0  0
 11 10  1  0  0  0
  9  8  1  0  0  0
 10  8  2  0  0  0
 10 12  1  0  0  0
  8  7  1  0  0  0
 12 13  2  0  0  0
  7  6  2  0  0  0
 13  6  1  0  0  0
 13 14  1  0  0  0
  6  5  1  0  0  0
 14  3  1  0  0  0
 14 29  1  0  0  0
  5  4  1  0  0  0
 30 29  2  0  0  0
 30 31  1  0  0  0
  2  1  2  0  0  0
  3  1  1  0  0  0
  3  4  1  0  0  0
 29 34  1  0  0  0
  1 22  1  0  0  0
 31 32  2  0  0  0
 17 22  2  0  0  0
 17 18  1  0  0  0
 22 21  1  0  0  0
 34 33  2  0  0  0
 18 19  2  0  0  0
 32 33  1  0  0  0
 21 20  2  0  0  0
 19 20  1  0  0  0
 19 23  1  0  0  0
 26 23  1  0  0  0
 24 23  2  0  0  0
 23 25  2  0  0  0
 26 27  1  0  0  0
 26 28  1  0  0  0
  9 15  1  0  0  0
 11 16  1  0  0  0
M  END
> <minimizedAffinity>
-9.24088

$$$$
5N0E_8F3_A_302


 34 37  0  0  0  0  0  0  0  0999 V2000
   -2.2612    4.9946   14.4931 C   0  0  0  0  0  0  0  0  0  0  0  0
   -1.4014    4.4267   15.1478 O   0  0  0  0  0  0  0  0  0  0  0  0
   -3.4490    4.5045   14.1283 N   0  0  0  0  0  0  0  0  0  0  0  0
   -4.5236    5.2120   13.4138 C   0  0  0  0  0  0  0  0  0  0  0  0
   -4.7174    4.5901   12.0381 C   0  0  0  0  0  0  0  0  0  0  0  0
   -4.6789    3.0880   12.0655 C   0  0  0  0  0  0  0  0  0  0  0  0
   -5.0318    2.3521   10.9407 C   0  0  0  0  0  0  0  0  0  0  0  0
   -4.9112    0.9654   10.8971 C   0  0  0  0  0  0  0  0  0  0  0  0
   -5.1560    0.2276    9.7692 O   0  0  0  0  0  0  0  0  0  0  0  0
   -4.4258    0.2948   12.0152 C   0  0  0  0  0  0  0  0  0  0  0  0
   -4.1307   -1.0364   11.8817 O   0  0  0  0  0  0  0  0  0  0  0  0
   -4.0914    1.0117   13.1562 C   0  0  0  0  0  0  0  0  0  0  0  0
   -4.2267    2.3965   13.1891 C   0  0  0  0  0  0  0  0  0  0  0  0
   -3.7576    3.0918   14.4779 C   0  0  0  0  0  0  0  0  0  0  0  0
   -5.0612   -0.7043    9.7892 H   0  0  0  0  0  0  0  0  0  0  0  0
   -4.3695   -1.4930   11.0991 H   0  0  0  0  0  0  0  0  0  0  0  0
   -2.3027    7.4254   14.9929 C   0  0  0  0  0  0  0  0  0  0  0  0
   -1.8272    8.7222   14.8248 C   0  0  0  0  0  0  0  0  0  0  0  0
   -0.8615    8.9574   13.8517 C   0  0  0  0  0  0  0  0  0  0  0  0
   -0.4192    7.9430   13.0121 C   0  0  0  0  0  0  0  0  0  0  0  0
   -0.9217    6.6567   13.1644 C   0  0  0  0  0  0  0  0  0  0  0  0
   -1.8157    6.3968   14.1936 C   0  0  0  0  0  0  0  0  0  0  0  0
   -0.1333   10.5613   13.6433 S   0  0  0  0  0  0  0  0  0  0  0  0
   -1.2309   11.4803   13.6001 O   0  0  0  0  0  0  0  0  0  0  0  0
    0.7335   10.5413   12.5043 O   0  0  0  0  0  0  0  0  0  0  0  0
    0.7101   10.8890   14.9553 N   0  0  0  0  0  0  0  0  0  0  0  0
    0.0890   10.9023   15.7642 H   0  0  0  0  0  0  0  0  0  0  0  0
    1.1559   11.8008   14.8539 H   0  0  0  0  0  0  0  0  0  0  0  0
   -4.8311    3.1219   15.5726 C   0  0  0  0  0  0  0  0  0  0  0  0
   -4.8570    2.1251   16.5701 C   0  0  0  0  0  0  0  0  0  0  0  0
   -5.8615    2.1137   17.5344 C   0  0  0  0  0  0  0  0  0  0  0  0
   -6.8422    3.0852   17.5327 C   0  0  0  0  0  0  0  0  0  0  0  0
   -6.8469    4.0533   16.5494 C   0  0  0  0  0  0  0  0  0  0  0  0
   -5.8502    4.0665   15.5627 C   0  0  0  0  0  0  0  0  0  0  0  0
 11 10  1  0  0  0
  9  8  1  0  0  0
 10  8  2  0  0  0
 10 12  1  0  0  0
  8  7  1  0  0  0
 12 13  2  0  0  0
  7  6  2  0  0  0
 13  6  1  0  0  0
 13 14  1  0  0  0
  6  5  1  0  0  0
 14  3  1  0  0  0
 14 29  1  0  0  0
  5  4  1  0  0  0
 30 29  2  0  0  0
 30 31  1  0  0  0
  2  1  2  0  0  0
  3  1  1  0  0  0
  3  4  1  0  0  0
 29 34  1  0  0  0
  1 22  1  0  0  0
 31 32  2  0  0  0
 17 22  2  0  0  0
 17 18  1  0  0  0
 22 21  1  0  0  0
 34 33  2  0  0  0
 18 19  2  0  0  0
 32 33  1  0  0  0
 21 20  2  0  0  0
 19 20  1  0  0  0
 19 23  1  0  0  0
 26 23  1  0  0  0
 24 23  2  0  0  0
 23 25  2  0  0  0
 26 27  1  0  0  0
 26 28  1  0  0  0
  9 15  1  0  0  0
 11 16  1  0  0  0
M  END
> <minimizedAffinity>
-9.17148

$$$$
5N0E_8F3_A_302


 34 37  0  0  0  0  0  0  0  0999 V2000
   -3.7012    6.1214   14.1819 C   0  0  0  0  0  0  0  0  0  0  0  0
   -3.2281    6.8510   15.0388 O   0  0  0  0  0  0  0  0  0  0  0  0
   -3.5950    6.2620   12.8578 N   0  0  0  0  0  0  0  0  0  0  0  0
   -4.0887    5.3412   11.8214 C   0  0  0  0  0  0  0  0  0  0  0  0
   -5.1931    6.0177   11.0217 C   0  0  0  0  0  0  0  0  0  0  0  0
   -4.8780    7.4480   10.6849 C   0  0  0  0  0  0  0  0  0  0  0  0
   -5.6783    8.1571    9.7972 C   0  0  0  0  0  0  0  0  0  0  0  0
   -5.4768    9.5108    9.5400 C   0  0  0  0  0  0  0  0  0  0  0  0
   -6.3113   10.2549    8.7487 O   0  0  0  0  0  0  0  0  0  0  0  0
   -4.4401   10.1739   10.1888 C   0  0  0  0  0  0  0  0  0  0  0  0
   -4.3850   11.5379   10.0733 O   0  0  0  0  0  0  0  0  0  0  0  0
   -3.6154    9.4755   11.0605 C   0  0  0  0  0  0  0  0  0  0  0  0
   -3.8222    8.1202   11.3002 C   0  0  0  0  0  0  0  0  0  0  0  0
   -2.8947    7.4675   12.3386 C   0  0  0  0  0  0  0  0  0  0  0  0
   -6.1338   11.1637    8.6050 H   0  0  0  0  0  0  0  0  0  0  0  0
   -4.9549   11.9809    9.4758 H   0  0  0  0  0  0  0  0  0  0  0  0
   -3.6465    3.8206   15.1113 C   0  0  0  0  0  0  0  0  0  0  0  0
   -4.2167    2.7694   15.8225 C   0  0  0  0  0  0  0  0  0  0  0  0
   -5.5339    2.8920   16.2521 C   0  0  0  0  0  0  0  0  0  0  0  0
   -6.2992    4.0053   15.9288 C   0  0  0  0  0  0  0  0  0  0  0  0
   -5.7332    5.0375   15.1909 C   0  0  0  0  0  0  0  0  0  0  0  0
   -4.3927    4.9623   14.8395 C   0  0  0  0  0  0  0  0  0  0  0  0
   -6.2996    1.6401   17.2486 S   0  0  0  0  0  0  0  0  0  0  0  0
   -7.6156    1.4700   16.7099 O   0  0  0  0  0  0  0  0  0  0  0  0
   -6.2130    2.0163   18.6271 O   0  0  0  0  0  0  0  0  0  0  0  0
   -5.5090    0.2766   17.0125 N   0  0  0  0  0  0  0  0  0  0  0  0
   -5.5732    0.0122   16.0295 H   0  0  0  0  0  0  0  0  0  0  0  0
   -5.9185   -0.4580   17.5896 H   0  0  0  0  0  0  0  0  0  0  0  0
   -1.5621    6.9947   11.7449 C   0  0  0  0  0  0  0  0  0  0  0  0
   -0.5081    6.5957   12.5928 C   0  0  0  0  0  0  0  0  0  0  0  0
    0.7233    6.2185   12.0633 C   0  0  0  0  0  0  0  0  0  0  0  0
    0.9264    6.2211   10.6978 C   0  0  0  0  0  0  0  0  0  0  0  0
   -0.0854    6.6325    9.8546 C   0  0  0  0  0  0  0  0  0  0  0  0
   -1.3251    7.0304   10.3761 C   0  0  0  0  0  0  0  0  0  0  0  0
 11 10  1  0  0  0
  9  8  1  0  0  0
 10  8  2  0  0  0
 10 12  1  0  0  0
  8  7  1  0  0  0
 12 13  2  0  0  0
  7  6  2  0  0  0
 13  6  1  0  0  0
 13 14  1  0  0  0
  6  5  1  0  0  0
 14  3  1  0  0  0
 14 29  1  0  0  0
  5  4  1  0  0  0
 30 29  2  0  0  0
 30 31  1  0  0  0
  2  1  2  0  0  0
  3  1  1  0  0  0
  3  4  1  0  0  0
 29 34  1  0  0  0
  1 22  1  0  0  0
 31 32  2  0  0  0
 17 22  2  0  0  0
 17 18  1  0  0  0
 22 21  1  0  0  0
 34 33  2  0  0  0
 18 19  2  0  0  0
 32 33  1  0  0  0
 21 20  2  0  0  0
 19 20  1  0  0  0
 19 23  1  0  0  0
 26 23  1  0  0  0
 24 23  2  0  0  0
 23 25  2  0  0  0
 26 27  1  0  0  0
 26 28  1  0  0  0
  9 15  1  0  0  0
 11 16  1  0  0  0
M  END
> <minimizedAffinity>
-8.94695

$$$$
5N0E_8F3_A_302


 34 37  0  0  0  0  0  0  0  0999 V2000
   -4.6131    5.5459   13.2116 C   0  0  0  0  0  0  0  0  0  0  0  0
   -5.5302    6.0641   12.5946 O   0  0  0  0  0  0  0  0  0  0  0  0
   -3.3139    5.8427   13.1211 N   0  0  0  0  0  0  0  0  0  0  0  0
   -2.2139    5.2830   13.9227 C   0  0  0  0  0  0  0  0  0  0  0  0
   -1.2922    4.4683   13.0263 C   0  0  0  0  0  0  0  0  0  0  0  0
   -1.0136    5.1398   11.7109 C   0  0  0  0  0  0  0  0  0  0  0  0
   -0.0424    4.6370   10.8534 C   0  0  0  0  0  0  0  0  0  0  0  0
    0.1722    5.1715    9.5855 C   0  0  0  0  0  0  0  0  0  0  0  0
    1.0515    4.6318    8.6844 O   0  0  0  0  0  0  0  0  0  0  0  0
   -0.6070    6.2445    9.1648 C   0  0  0  0  0  0  0  0  0  0  0  0
   -0.5151    6.6225    7.8512 O   0  0  0  0  0  0  0  0  0  0  0  0
   -1.5653    6.7752   10.0178 C   0  0  0  0  0  0  0  0  0  0  0  0
   -1.7620    6.2373   11.2864 C   0  0  0  0  0  0  0  0  0  0  0  0
   -2.8989    6.8574   12.1154 C   0  0  0  0  0  0  0  0  0  0  0  0
    1.1616    5.0278    7.8424 H   0  0  0  0  0  0  0  0  0  0  0  0
    0.1428    6.2461    7.3003 H   0  0  0  0  0  0  0  0  0  0  0  0
   -4.8376    3.1961   13.9787 C   0  0  0  0  0  0  0  0  0  0  0  0
   -5.2328    2.2404   14.9096 C   0  0  0  0  0  0  0  0  0  0  0  0
   -5.9528    2.6542   16.0254 C   0  0  0  0  0  0  0  0  0  0  0  0
   -6.3349    3.9797   16.1885 C   0  0  0  0  0  0  0  0  0  0  0  0
   -5.9641    4.9237   15.2389 C   0  0  0  0  0  0  0  0  0  0  0  0
   -5.1670    4.5333   14.1719 C   0  0  0  0  0  0  0  0  0  0  0  0
   -6.4064    1.5135   17.3058 S   0  0  0  0  0  0  0  0  0  0  0  0
   -7.6872    0.9972   16.9261 O   0  0  0  0  0  0  0  0  0  0  0  0
   -6.3294    2.1730   18.5740 O   0  0  0  0  0  0  0  0  0  0  0  0
   -5.3739    0.3001   17.2671 N   0  0  0  0  0  0  0  0  0  0  0  0
   -5.4320   -0.1670   16.3622 H   0  0  0  0  0  0  0  0  0  0  0  0
   -5.6014   -0.3636   18.0075 H   0  0  0  0  0  0  0  0  0  0  0  0
   -2.4683    8.1097   12.8888 C   0  0  0  0  0  0  0  0  0  0  0  0
   -2.2362    9.3218   12.2062 C   0  0  0  0  0  0  0  0  0  0  0  0
   -1.7911   10.4481   12.8934 C   0  0  0  0  0  0  0  0  0  0  0  0
   -1.5796   10.3959   14.2566 C   0  0  0  0  0  0  0  0  0  0  0  0
   -1.7774    9.2117   14.9366 C   0  0  0  0  0  0  0  0  0  0  0  0
   -2.2100    8.0656   14.2535 C   0  0  0  0  0  0  0  0  0  0  0  0
 11 10  1  0  0  0
  9  8  1  0  0  0
 10  8  2  0  0  0
 10 12  1  0  0  0
  8  7  1  0  0  0
 12 13  2  0  0  0
  7  6  2  0  0  0
 13  6  1  0  0  0
 13 14  1  0  0  0
  6  5  1  0  0  0
 14  3  1  0  0  0
 14 29  1  0  0  0
  5  4  1  0  0  0
 30 29  2  0  0  0
 30 31  1  0  0  0
  2  1  2  0  0  0
  3  1  1  0  0  0
  3  4  1  0  0  0
 29 34  1  0  0  0
  1 22  1  0  0  0
 31 32  2  0  0  0
 17 22  2  0  0  0
 17 18  1  0  0  0
 22 21  1  0  0  0
 34 33  2  0  0  0
 18 19  2  0  0  0
 32 33  1  0  0  0
 21 20  2  0  0  0
 19 20  1  0  0  0
 19 23  1  0  0  0
 26 23  1  0  0  0
 24 23  2  0  0  0
 23 25  2  0  0  0
 26 27  1  0  0  0
 26 28  1  0  0  0
  9 15  1  0  0  0
 11 16  1  0  0  0
M  END
> <minimizedAffinity>
-8.94061

$$$$
5N0E_8F3_A_302


 34 37  0  0  0  0  0  0  0  0999 V2000
   -4.3486    3.9100   12.1686 C   0  0  0  0  0  0  0  0  0  0  0  0
   -5.0535    3.4450   11.2870 O   0  0  0  0  0  0  0  0  0  0  0  0
   -3.4196    4.8608   12.0381 N   0  0  0  0  0  0  0  0  0  0  0  0
   -2.6276    5.4860   13.1093 C   0  0  0  0  0  0  0  0  0  0  0  0
   -1.1601    5.1193   12.9395 C   0  0  0  0  0  0  0  0  0  0  0  0
   -0.7018    5.1908   11.5101 C   0  0  0  0  0  0  0  0  0  0  0  0
    0.6472    5.0811   11.1948 C   0  0  0  0  0  0  0  0  0  0  0  0
    1.0975    5.0412    9.8776 C   0  0  0  0  0  0  0  0  0  0  0  0
    2.4086    4.8325    9.5405 O   0  0  0  0  0  0  0  0  0  0  0  0
    0.1688    5.1169    8.8445 C   0  0  0  0  0  0  0  0  0  0  0  0
    0.6119    4.8777    7.5704 O   0  0  0  0  0  0  0  0  0  0  0  0
   -1.1809    5.2514    9.1409 C   0  0  0  0  0  0  0  0  0  0  0  0
   -1.6157    5.3003   10.4622 C   0  0  0  0  0  0  0  0  0  0  0  0
   -3.1372    5.3767   10.6715 C   0  0  0  0  0  0  0  0  0  0  0  0
    2.6634    4.8141    8.6390 H   0  0  0  0  0  0  0  0  0  0  0  0
    1.5296    4.7918    7.4020 H   0  0  0  0  0  0  0  0  0  0  0  0
   -5.4592    4.0569   14.3834 C   0  0  0  0  0  0  0  0  0  0  0  0
   -5.9259    3.4865   15.5636 C   0  0  0  0  0  0  0  0  0  0  0  0
   -5.6436    2.1478   15.8144 C   0  0  0  0  0  0  0  0  0  0  0  0
   -4.8570    1.4001   14.9473 C   0  0  0  0  0  0  0  0  0  0  0  0
   -4.3675    1.9849   13.7860 C   0  0  0  0  0  0  0  0  0  0  0  0
   -4.7231    3.2922   13.4848 C   0  0  0  0  0  0  0  0  0  0  0  0
   -6.2867    1.3219   17.2464 S   0  0  0  0  0  0  0  0  0  0  0  0
   -5.3363    0.2973   17.5598 O   0  0  0  0  0  0  0  0  0  0  0  0
   -7.6276    0.8957   16.9825 O   0  0  0  0  0  0  0  0  0  0  0  0
   -6.2807    2.3618   18.4539 N   0  0  0  0  0  0  0  0  0  0  0  0
   -5.3238    2.6628   18.6387 H   0  0  0  0  0  0  0  0  0  0  0  0
   -6.6641    1.9168   19.2878 H   0  0  0  0  0  0  0  0  0  0  0  0
   -3.6841    6.8079   10.6073 C   0  0  0  0  0  0  0  0  0  0  0  0
   -5.0735    7.0413   10.6730 C   0  0  0  0  0  0  0  0  0  0  0  0
   -5.5812    8.3329   10.5591 C   0  0  0  0  0  0  0  0  0  0  0  0
   -4.7290    9.4057   10.3895 C   0  0  0  0  0  0  0  0  0  0  0  0
   -3.3687    9.1932   10.2979 C   0  0  0  0  0  0  0  0  0  0  0  0
   -2.8457    7.8955   10.3947 C   0  0  0  0  0  0  0  0  0  0  0  0
 11 10  1  0  0  0
  9  8  1  0  0  0
 10  8  2  0  0  0
 10 12  1  0  0  0
  8  7  1  0  0  0
 12 13  2  0  0  0
  7  6  2  0  0  0
 13  6  1  0  0  0
 13 14  1  0  0  0
  6  5  1  0  0  0
 14  3  1  0  0  0
 14 29  1  0  0  0
  5  4  1  0  0  0
 30 29  2  0  0  0
 30 31  1  0  0  0
  2  1  2  0  0  0
  3  1  1  0  0  0
  3  4  1  0  0  0
 29 34  1  0  0  0
  1 22  1  0  0  0
 31 32  2  0  0  0
 17 22  2  0  0  0
 17 18  1  0  0  0
 22 21  1  0  0  0
 34 33  2  0  0  0
 18 19  2  0  0  0
 32 33  1  0  0  0
 21 20  2  0  0  0
 19 20  1  0  0  0
 19 23  1  0  0  0
 26 23  1  0  0  0
 24 23  2  0  0  0
 23 25  2  0  0  0
 26 27  1  0  0  0
 26 28  1  0  0  0
  9 15  1  0  0  0
 11 16  1  0  0  0
M  END
> <minimizedAffinity>
-8.85863

$$$$
5N0E_8F3_A_302


 34 37  0  0  0  0  0  0  0  0999 V2000
   -3.4964    4.0381   10.6797 C   0  0  0  0  0  0  0  0  0  0  0  0
   -4.3378    3.8676    9.8117 O   0  0  0  0  0  0  0  0  0  0  0  0
   -2.4051    4.8044   10.6026 N   0  0  0  0  0  0  0  0  0  0  0  0
   -1.4336    5.0821   11.6726 C   0  0  0  0  0  0  0  0  0  0  0  0
   -0.0852    4.4780   11.3071 C   0  0  0  0  0  0  0  0  0  0  0  0
    0.2820    4.6978    9.8664 C   0  0  0  0  0  0  0  0  0  0  0  0
    1.5571    4.3889    9.4079 C   0  0  0  0  0  0  0  0  0  0  0  0
    1.9013    4.4837    8.0618 C   0  0  0  0  0  0  0  0  0  0  0  0
    3.1179    4.0898    7.5706 O   0  0  0  0  0  0  0  0  0  0  0  0
    0.9406    4.9039    7.1476 C   0  0  0  0  0  0  0  0  0  0  0  0
    1.2406    4.8000    5.8149 O   0  0  0  0  0  0  0  0  0  0  0  0
   -0.3313    5.2399    7.5914 C   0  0  0  0  0  0  0  0  0  0  0  0
   -0.6584    5.1502    8.9413 C   0  0  0  0  0  0  0  0  0  0  0  0
   -2.1157    5.4770    9.3075 C   0  0  0  0  0  0  0  0  0  0  0  0
    3.3031    4.1734    6.6559 H   0  0  0  0  0  0  0  0  0  0  0  0
    2.1087    4.5713    5.5465 H   0  0  0  0  0  0  0  0  0  0  0  0
   -3.9297    1.9032   11.8692 C   0  0  0  0  0  0  0  0  0  0  0  0
   -4.1846    1.1706   13.0244 C   0  0  0  0  0  0  0  0  0  0  0  0
   -4.4014    1.8566   14.2148 C   0  0  0  0  0  0  0  0  0  0  0  0
   -4.4323    3.2449   14.2539 C   0  0  0  0  0  0  0  0  0  0  0  0
   -4.2085    3.9703   13.0903 C   0  0  0  0  0  0  0  0  0  0  0  0
   -3.8998    3.2926   11.9191 C   0  0  0  0  0  0  0  0  0  0  0  0
   -4.6336    0.9944   15.7474 S   0  0  0  0  0  0  0  0  0  0  0  0
   -3.5008    1.3328   16.5556 O   0  0  0  0  0  0  0  0  0  0  0  0
   -4.8393   -0.3967   15.4793 O   0  0  0  0  0  0  0  0  0  0  0  0
   -5.9240    1.6015   16.4588 N   0  0  0  0  0  0  0  0  0  0  0  0
   -5.7734    2.5924   16.6479 H   0  0  0  0  0  0  0  0  0  0  0  0
   -6.0916    1.1095   17.3364 H   0  0  0  0  0  0  0  0  0  0  0  0
   -2.3650    6.9763    9.5119 C   0  0  0  0  0  0  0  0  0  0  0  0
   -1.2871    7.8855    9.4893 C   0  0  0  0  0  0  0  0  0  0  0  0
   -1.4981    9.2408    9.7296 C   0  0  0  0  0  0  0  0  0  0  0  0
   -2.7693    9.7151    9.9845 C   0  0  0  0  0  0  0  0  0  0  0  0
   -3.8318    8.8362   10.0354 C   0  0  0  0  0  0  0  0  0  0  0  0
   -3.6304    7.4665    9.8113 C   0  0  0  0  0  0  0  0  0  0  0  0
 11 10  1  0  0  0
  9  8  1  0  0  0
 10  8  2  0  0  0
 10 12  1  0  0  0
  8  7  1  0  0  0
 12 13  2  0  0  0
  7  6  2  0  0  0
 13  6  1  0  0  0
 13 14  1  0  0  0
  6  5  1  0  0  0
 14  3  1  0  0  0
 14 29  1  0  0  0
  5  4  1  0  0  0
 30 29  2  0  0  0
 30 31  1  0  0  0
  2  1  2  0  0  0
  3  1  1  0  0  0
  3  4  1  0  0  0
 29 34  1  0  0  0
  1 22  1  0  0  0
 31 32  2  0  0  0
 17 22  2  0  0  0
 17 18  1  0  0  0
 22 21  1  0  0  0
 34 33  2  0  0  0
 18 19  2  0  0  0
 32 33  1  0  0  0
 21 20  2  0  0  0
 19 20  1  0  0  0
 19 23  1  0  0  0
 26 23  1  0  0  0
 24 23  2  0  0  0
 23 25  2  0  0  0
 26 27  1  0  0  0
 26 28  1  0  0  0
  9 15  1  0  0  0
 11 16  1  0  0  0
M  END
> <minimizedAffinity>
-8.05670

$$$$
5N0E_8F3_A_302


 34 37  0  0  0  0  0  0  0  0999 V2000
   -5.5759    6.6964    7.8152 C   0  0  0  0  0  0  0  0  0  0  0  0
   -5.4196    5.8855    6.9161 O   0  0  0  0  0  0  0  0  0  0  0  0
   -4.7919    6.8757    8.8817 N   0  0  0  0  0  0  0  0  0  0  0  0
   -4.9262    7.9067    9.9233 C   0  0  0  0  0  0  0  0  0  0  0  0
   -5.2625    7.2477   11.2534 C   0  0  0  0  0  0  0  0  0  0  0  0
   -4.4581    6.0043   11.5091 C   0  0  0  0  0  0  0  0  0  0  0  0
   -4.4908    5.3856   12.7531 C   0  0  0  0  0  0  0  0  0  0  0  0
   -3.8400    4.1785   12.9955 C   0  0  0  0  0  0  0  0  0  0  0  0
   -3.9398    3.4988   14.1806 O   0  0  0  0  0  0  0  0  0  0  0  0
   -3.1319    3.5743   11.9616 C   0  0  0  0  0  0  0  0  0  0  0  0
   -2.6699    2.3006   12.1649 O   0  0  0  0  0  0  0  0  0  0  0  0
   -3.0682    4.1904   10.7191 C   0  0  0  0  0  0  0  0  0  0  0  0
   -3.7151    5.4021   10.4940 C   0  0  0  0  0  0  0  0  0  0  0  0
   -3.6374    5.9547    9.0611 C   0  0  0  0  0  0  0  0  0  0  0  0
   -3.4825    2.6892   14.2963 H   0  0  0  0  0  0  0  0  0  0  0  0
   -2.7268    1.9118   13.0155 H   0  0  0  0  0  0  0  0  0  0  0  0
   -7.9481    7.2957    8.2321 C   0  0  0  0  0  0  0  0  0  0  0  0
   -9.0502    8.1301    8.0736 C   0  0  0  0  0  0  0  0  0  0  0  0
   -8.9512    9.2065    7.1982 C   0  0  0  0  0  0  0  0  0  0  0  0
   -7.8065    9.4193    6.4407 C   0  0  0  0  0  0  0  0  0  0  0  0
   -6.7209    8.5636    6.5804 C   0  0  0  0  0  0  0  0  0  0  0  0
   -6.7798    7.5435    7.5197 C   0  0  0  0  0  0  0  0  0  0  0  0
  -10.2756   10.3723    7.0161 S   0  0  0  0  0  0  0  0  0  0  0  0
  -10.3987   10.5989    5.6073 O   0  0  0  0  0  0  0  0  0  0  0  0
  -10.0097   11.5191    7.8307 O   0  0  0  0  0  0  0  0  0  0  0  0
  -11.6185    9.6661    7.5035 N   0  0  0  0  0  0  0  0  0  0  0  0
  -11.8042    8.8498    6.9207 H   0  0  0  0  0  0  0  0  0  0  0  0
  -12.3953   10.3226    7.4264 H   0  0  0  0  0  0  0  0  0  0  0  0
   -2.3651    6.7688    8.7964 C   0  0  0  0  0  0  0  0  0  0  0  0
   -1.4994    7.1002    9.8593 C   0  0  0  0  0  0  0  0  0  0  0  0
   -0.3720    7.8864    9.6362 C   0  0  0  0  0  0  0  0  0  0  0  0
   -0.0806    8.3451    8.3671 C   0  0  0  0  0  0  0  0  0  0  0  0
   -0.9300    8.0516    7.3200 C   0  0  0  0  0  0  0  0  0  0  0  0
   -2.0776    7.2744    7.5343 C   0  0  0  0  0  0  0  0  0  0  0  0
 11 10  1  0  0  0
  9  8  1  0  0  0
 10  8  2  0  0  0
 10 12  1  0  0  0
  8  7  1  0  0  0
 12 13  2  0  0  0
  7  6  2  0  0  0
 13  6  1  0  0  0
 13 14  1  0  0  0
  6  5  1  0  0  0
 14  3  1  0  0  0
 14 29  1  0  0  0
  5  4  1  0  0  0
 30 29  2  0  0  0
 30 31  1  0  0  0
  2  1  2  0  0  0
  3  1  1  0  0  0
  3  4  1  0  0  0
 29 34  1  0  0  0
  1 22  1  0  0  0
 31 32  2  0  0  0
 17 22  2  0  0  0
 17 18  1  0  0  0
 22 21  1  0  0  0
 34 33  2  0  0  0
 18 19  2  0  0  0
 32 33  1  0  0  0
 21 20  2  0  0  0
 19 20  1  0  0  0
 19 23  1  0  0  0
 26 23  1  0  0  0
 24 23  2  0  0  0
 23 25  2  0  0  0
 26 27  1  0  0  0
 26 28  1  0  0  0
  9 15  1  0  0  0
 11 16  1  0  0  0
M  END
> <minimizedAffinity>
-8.04119

$$$$
5N0E_8F3_A_302


 34 37  0  0  0  0  0  0  0  0999 V2000
   -3.2014    5.9798   11.8741 C   0  0  0  0  0  0  0  0  0  0  0  0
   -2.0298    6.2452   12.0913 O   0  0  0  0  0  0  0  0  0  0  0  0
   -3.9802    6.4985   10.9209 N   0  0  0  0  0  0  0  0  0  0  0  0
   -5.3659    6.1215   10.5990 C   0  0  0  0  0  0  0  0  0  0  0  0
   -6.2962    7.2866   10.9054 C   0  0  0  0  0  0  0  0  0  0  0  0
   -5.7415    8.6100   10.4587 C   0  0  0  0  0  0  0  0  0  0  0  0
   -6.5346    9.7510   10.4790 C   0  0  0  0  0  0  0  0  0  0  0  0
   -6.0262   11.0100   10.1694 C   0  0  0  0  0  0  0  0  0  0  0  0
   -6.7598   12.1615   10.2795 O   0  0  0  0  0  0  0  0  0  0  0  0
   -4.6835   11.1295    9.8255 C   0  0  0  0  0  0  0  0  0  0  0  0
   -4.1628   12.3923    9.7196 O   0  0  0  0  0  0  0  0  0  0  0  0
   -3.8822    9.9968    9.7764 C   0  0  0  0  0  0  0  0  0  0  0  0
   -4.4063    8.7433   10.0784 C   0  0  0  0  0  0  0  0  0  0  0  0
   -3.4105    7.5717   10.0625 C   0  0  0  0  0  0  0  0  0  0  0  0
   -6.3733   12.9861   10.0592 H   0  0  0  0  0  0  0  0  0  0  0  0
   -4.7297   13.1375    9.7564 H   0  0  0  0  0  0  0  0  0  0  0  0
   -3.7750    3.6076   12.3257 C   0  0  0  0  0  0  0  0  0  0  0  0
   -4.0772    2.5602   13.1904 C   0  0  0  0  0  0  0  0  0  0  0  0
   -4.2466    2.8394   14.5424 C   0  0  0  0  0  0  0  0  0  0  0  0
   -4.1849    4.1405   15.0252 C   0  0  0  0  0  0  0  0  0  0  0  0
   -3.9142    5.1858   14.1509 C   0  0  0  0  0  0  0  0  0  0  0  0
   -3.6524    4.9025   12.8177 C   0  0  0  0  0  0  0  0  0  0  0  0
   -4.5344    1.5468   15.7225 S   0  0  0  0  0  0  0  0  0  0  0  0
   -5.7410    1.9085   16.4040 O   0  0  0  0  0  0  0  0  0  0  0  0
   -3.3654    1.3777   16.5312 O   0  0  0  0  0  0  0  0  0  0  0  0
   -4.8283    0.2047   14.9148 N   0  0  0  0  0  0  0  0  0  0  0  0
   -5.6617    0.3293   14.3401 H   0  0  0  0  0  0  0  0  0  0  0  0
   -4.9795   -0.5611   15.5714 H   0  0  0  0  0  0  0  0  0  0  0  0
   -3.2063    6.9720    8.6659 C   0  0  0  0  0  0  0  0  0  0  0  0
   -4.0237    7.3793    7.5912 C   0  0  0  0  0  0  0  0  0  0  0  0
   -3.8817    6.7990    6.3334 C   0  0  0  0  0  0  0  0  0  0  0  0
   -2.9305    5.8217    6.1187 C   0  0  0  0  0  0  0  0  0  0  0  0
   -2.1393    5.3931    7.1647 C   0  0  0  0  0  0  0  0  0  0  0  0
   -2.2833    5.9580    8.4404 C   0  0  0  0  0  0  0  0  0  0  0  0
 11 10  1  0  0  0
  9  8  1  0  0  0
 10  8  2  0  0  0
 10 12  1  0  0  0
  8  7  1  0  0  0
 12 13  2  0  0  0
  7  6  2  0  0  0
 13  6  1  0  0  0
 13 14  1  0  0  0
  6  5  1  0  0  0
 14  3  1  0  0  0
 14 29  1  0  0  0
  5  4  1  0  0  0
 30 29  2  0  0  0
 30 31  1  0  0  0
  2  1  2  0  0  0
  3  1  1  0  0  0
  3  4  1  0  0  0
 29 34  1  0  0  0
  1 22  1  0  0  0
 31 32  2  0  0  0
 17 22  2  0  0  0
 17 18  1  0  0  0
 22 21  1  0  0  0
 34 33  2  0  0  0
 18 19  2  0  0  0
 32 33  1  0  0  0
 21 20  2  0  0  0
 19 20  1  0  0  0
 19 23  1  0  0  0
 26 23  1  0  0  0
 24 23  2  0  0  0
 23 25  2  0  0  0
 26 27  1  0  0  0
 26 28  1  0  0  0
  9 15  1  0  0  0
 11 16  1  0  0  0
M  END
> <minimizedAffinity>
-7.97068

$$$$
5N0E_8F3_A_302


 34 37  0  0  0  0  0  0  0  0999 V2000
   -1.5799    6.1889   11.9541 C   0  0  0  0  0  0  0  0  0  0  0  0
   -1.2189    7.1118   12.6670 O   0  0  0  0  0  0  0  0  0  0  0  0
   -2.8185    5.7041   11.8315 N   0  0  0  0  0  0  0  0  0  0  0  0
   -3.2761    4.6502   10.9119 C   0  0  0  0  0  0  0  0  0  0  0  0
   -3.7150    3.4311   11.7105 C   0  0  0  0  0  0  0  0  0  0  0  0
   -4.5246    3.7890   12.9251 C   0  0  0  0  0  0  0  0  0  0  0  0
   -5.1715    2.8016   13.6584 C   0  0  0  0  0  0  0  0  0  0  0  0
   -5.8451    3.0835   14.8442 C   0  0  0  0  0  0  0  0  0  0  0  0
   -6.4035    2.1156   15.6365 O   0  0  0  0  0  0  0  0  0  0  0  0
   -5.8747    4.3948   15.3080 C   0  0  0  0  0  0  0  0  0  0  0  0
   -6.3683    4.6145   16.5670 O   0  0  0  0  0  0  0  0  0  0  0  0
   -5.2545    5.3980   14.5756 C   0  0  0  0  0  0  0  0  0  0  0  0
   -4.5936    5.1033   13.3866 C   0  0  0  0  0  0  0  0  0  0  0  0
   -3.8815    6.2797   12.6987 C   0  0  0  0  0  0  0  0  0  0  0  0
   -6.8472    2.3551   16.4263 H   0  0  0  0  0  0  0  0  0  0  0  0
   -6.7819    3.9169   17.0364 H   0  0  0  0  0  0  0  0  0  0  0  0
    0.0931    6.5116   10.1493 C   0  0  0  0  0  0  0  0  0  0  0  0
    1.2441    6.1410    9.4609 C   0  0  0  0  0  0  0  0  0  0  0  0
    1.8695    4.9463    9.8018 C   0  0  0  0  0  0  0  0  0  0  0  0
    1.3321    4.0970   10.7609 C   0  0  0  0  0  0  0  0  0  0  0  0
    0.1649    4.4582   11.4221 C   0  0  0  0  0  0  0  0  0  0  0  0
   -0.4120    5.6914   11.1523 C   0  0  0  0  0  0  0  0  0  0  0  0
    3.3940    4.4531    9.0411 S   0  0  0  0  0  0  0  0  0  0  0  0
    4.3928    4.5834   10.0592 O   0  0  0  0  0  0  0  0  0  0  0  0
    3.5922    5.2145    7.8451 O   0  0  0  0  0  0  0  0  0  0  0  0
    3.2815    2.9048    8.6804 N   0  0  0  0  0  0  0  0  0  0  0  0
    3.1404    2.3661    9.5350 H   0  0  0  0  0  0  0  0  0  0  0  0
    4.1406    2.5989    8.2235 H   0  0  0  0  0  0  0  0  0  0  0  0
   -4.8080    7.0999   11.7928 C   0  0  0  0  0  0  0  0  0  0  0  0
   -4.2902    8.1598   11.0198 C   0  0  0  0  0  0  0  0  0  0  0  0
   -5.1339    8.9446   10.2380 C   0  0  0  0  0  0  0  0  0  0  0  0
   -6.4901    8.6893   10.2016 C   0  0  0  0  0  0  0  0  0  0  0  0
   -7.0175    7.6724   10.9709 C   0  0  0  0  0  0  0  0  0  0  0  0
   -6.1808    6.8849   11.7753 C   0  0  0  0  0  0  0  0  0  0  0  0
 11 10  1  0  0  0
  9  8  1  0  0  0
 10  8  2  0  0  0
 10 12  1  0  0  0
  8  7  1  0  0  0
 12 13  2  0  0  0
  7  6  2  0  0  0
 13  6  1  0  0  0
 13 14  1  0  0  0
  6  5  1  0  0  0
 14  3  1  0  0  0
 14 29  1  0  0  0
  5  4  1  0  0  0
 30 29  2  0  0  0
 30 31  1  0  0  0
  2  1  2  0  0  0
  3  1  1  0  0  0
  3  4  1  0  0  0
 29 34  1  0  0  0
  1 22  1  0  0  0
 31 32  2  0  0  0
 17 22  2  0  0  0
 17 18  1  0  0  0
 22 21  1  0  0  0
 34 33  2  0  0  0
 18 19  2  0  0  0
 32 33  1  0  0  0
 21 20  2  0  0  0
 19 20  1  0  0  0
 19 23  1  0  0  0
 26 23  1  0  0  0
 24 23  2  0  0  0
 23 25  2  0  0  0
 26 27  1  0  0  0
 26 28  1  0  0  0
  9 15  1  0  0  0
 11 16  1  0  0  0
M  END
> <minimizedAffinity>
-7.96445

$$$$
5N0E_8F3_A_302


 34 37  0  0  0  0  0  0  0  0999 V2000
   -2.3159    6.3311   10.4253 C   0  0  0  0  0  0  0  0  0  0  0  0
   -1.2625    5.7317   10.2790 O   0  0  0  0  0  0  0  0  0  0  0  0
   -2.9294    6.6096   11.5786 N   0  0  0  0  0  0  0  0  0  0  0  0
   -4.1532    7.4049   11.7678 C   0  0  0  0  0  0  0  0  0  0  0  0
   -5.2681    6.5097   12.2898 C   0  0  0  0  0  0  0  0  0  0  0  0
   -4.8027    5.5591   13.3567 C   0  0  0  0  0  0  0  0  0  0  0  0
   -5.7198    4.8080   14.0820 C   0  0  0  0  0  0  0  0  0  0  0  0
   -5.3207    3.8452   15.0056 C   0  0  0  0  0  0  0  0  0  0  0  0
   -6.2010    3.0232   15.6581 O   0  0  0  0  0  0  0  0  0  0  0  0
   -3.9617    3.6303   15.2117 C   0  0  0  0  0  0  0  0  0  0  0  0
   -3.5952    2.5506   15.9712 O   0  0  0  0  0  0  0  0  0  0  0  0
   -3.0315    4.3885   14.5136 C   0  0  0  0  0  0  0  0  0  0  0  0
   -3.4449    5.3547   13.6010 C   0  0  0  0  0  0  0  0  0  0  0  0
   -2.3286    6.0818   12.8331 C   0  0  0  0  0  0  0  0  0  0  0  0
   -5.8839    2.3899   16.2716 H   0  0  0  0  0  0  0  0  0  0  0  0
   -4.2466    2.0584   16.4310 H   0  0  0  0  0  0  0  0  0  0  0  0
   -3.7042    5.9635    8.4009 C   0  0  0  0  0  0  0  0  0  0  0  0
   -4.2848    6.3994    7.2140 C   0  0  0  0  0  0  0  0  0  0  0  0
   -3.9640    7.6676    6.7412 C   0  0  0  0  0  0  0  0  0  0  0  0
   -3.0344    8.4683    7.3928 C   0  0  0  0  0  0  0  0  0  0  0  0
   -2.4344    8.0138    8.5606 C   0  0  0  0  0  0  0  0  0  0  0  0
   -2.8198    6.7887    9.0869 C   0  0  0  0  0  0  0  0  0  0  0  0
   -4.7372    8.3344    5.2908 S   0  0  0  0  0  0  0  0  0  0  0  0
   -4.8552    9.7417    5.5292 O   0  0  0  0  0  0  0  0  0  0  0  0
   -5.9521    7.6219    5.0342 O   0  0  0  0  0  0  0  0  0  0  0  0
   -3.7323    8.1415    4.0690 N   0  0  0  0  0  0  0  0  0  0  0  0
   -2.8684    8.6505    4.2558 H   0  0  0  0  0  0  0  0  0  0  0  0
   -4.1611    8.5008    3.2161 H   0  0  0  0  0  0  0  0  0  0  0  0
   -1.7525    7.2804   13.5967 C   0  0  0  0  0  0  0  0  0  0  0  0
   -0.5523    7.8852   13.1691 C   0  0  0  0  0  0  0  0  0  0  0  0
    0.0065    8.9379   13.8893 C   0  0  0  0  0  0  0  0  0  0  0  0
   -0.6129    9.4107   15.0288 C   0  0  0  0  0  0  0  0  0  0  0  0
   -1.7742    8.8145   15.4758 C   0  0  0  0  0  0  0  0  0  0  0  0
   -2.3387    7.7429   14.7687 C   0  0  0  0  0  0  0  0  0  0  0  0
 11 10  1  0  0  0
  9  8  1  0  0  0
 10  8  2  0  0  0
 10 12  1  0  0  0
  8  7  1  0  0  0
 12 13  2  0  0  0
  7  6  2  0  0  0
 13  6  1  0  0  0
 13 14  1  0  0  0
  6  5  1  0  0  0
 14  3  1  0  0  0
 14 29  1  0  0  0
  5  4  1  0  0  0
 30 29  2  0  0  0
 30 31  1  0  0  0
  2  1  2  0  0  0
  3  1  1  0  0  0
  3  4  1  0  0  0
 29 34  1  0  0  0
  1 22  1  0  0  0
 31 32  2  0  0  0
 17 22  2  0  0  0
 17 18  1  0  0  0
 22 21  1  0  0  0
 34 33  2  0  0  0
 18 19  2  0  0  0
 32 33  1  0  0  0
 21 20  2  0  0  0
 19 20  1  0  0  0
 19 23  1  0  0  0
 26 23  1  0  0  0
 24 23  2  0  0  0
 23 25  2  0  0  0
 26 27  1  0  0  0
 26 28  1  0  0  0
  9 15  1  0  0  0
 11 16  1  0  0  0
M  END
> <minimizedAffinity>
-7.95869

$$$$
