1NW5_SAM_A_401


 33 35  0  0  0  0  0  0  0  0999 V2000
   28.4145   22.4241   -3.4745 C   0  0  0  0  0  0  0  0  0  0  0  0
   28.0480   23.7889   -3.4559 O   0  0  0  0  0  0  0  0  0  0  0  0
   29.0036   22.1486   -4.8733 C   0  0  0  0  0  0  0  0  0  0  0  0
   28.3186   21.1080   -5.5593 O   0  0  0  0  0  0  0  0  0  0  0  0
   29.0540   23.5296   -5.5230 C   0  0  0  0  0  0  0  0  0  0  0  0
   28.6452   23.4988   -6.8913 O   0  0  0  0  0  0  0  0  0  0  0  0
   27.9518   24.2787   -4.7701 C   0  0  0  0  0  0  0  0  0  0  0  0
   27.3808   21.3401   -5.6452 H   0  0  0  0  0  0  0  0  0  0  0  0
   27.7517   23.1264   -6.9536 H   0  0  0  0  0  0  0  0  0  0  0  0
   28.1038   25.7405   -4.6568 N   0  0  0  0  0  0  0  0  0  0  0  0
   29.1865   26.5504   -4.5894 C   0  0  0  0  0  0  0  0  0  0  0  0
   28.8774   27.8485   -4.4743 N   0  0  0  0  0  0  0  0  0  0  0  0
   27.4809   27.9074   -4.4624 C   0  0  0  0  0  0  0  0  0  0  0  0
   26.4878   28.8756   -4.3648 C   0  0  0  0  0  0  0  0  0  0  0  0
   26.7873   30.1955   -4.2397 N   0  0  0  0  0  0  0  0  0  0  0  0
   25.1533   28.5303   -4.3891 N   0  0  0  0  0  0  0  0  0  0  0  0
   24.8025   27.2306   -4.5122 C   0  0  0  0  0  0  0  0  0  0  0  0
   25.7016   26.2321   -4.6110 N   0  0  0  0  0  0  0  0  0  0  0  0
   27.0133   26.5841   -4.5819 C   0  0  0  0  0  0  0  0  0  0  0  0
   27.7274   30.4870   -4.2180 H   0  0  0  0  0  0  0  0  0  0  0  0
   26.0641   30.8600   -4.1708 H   0  0  0  0  0  0  0  0  0  0  0  0
   29.3257   22.0789   -2.2864 C   0  0  0  0  0  0  0  0  0  0  0  0
   29.7589   20.3318   -2.1523 S   0  0  0  0  0  0  0  0  0  0  0  0
   30.6746   20.1209   -0.5922 C   0  0  0  0  0  0  0  0  0  0  0  0
   28.1677   19.4563   -1.8625 C   0  0  0  0  0  0  0  0  0  0  0  0
   28.2694   17.9027   -1.8822 C   0  0  0  0  0  0  0  0  0  0  0  0
   26.4332   17.1566   -0.3548 N   0  0  0  0  0  0  0  0  0  0  0  0
   26.8952   17.1943   -1.7475 C   0  0  0  0  0  0  0  0  0  0  0  0
   25.5301   16.6847   -0.3088 H   0  0  0  0  0  0  0  0  0  0  0  0
   26.3375   18.1090   -0.0024 H   0  0  0  0  0  0  0  0  0  0  0  0
   27.0415   15.7936   -2.3650 C   0  0  0  0  0  0  0  0  0  0  0  0
   26.5496   14.8312   -1.7682 O   0  0  0  0  0  0  0  0  0  0  0  0
   27.6592   15.7041   -3.4321 O   0  0  0  0  0  0  0  0  0  0  0  0
 27 28  1  0  0  0
 28 31  1  0  0  0
 28 26  1  0  0  0
 31 32  2  0  0  0
 31 33  1  0  0  0
 26 25  1  0  0  0
 25 23  1  0  0  0
 23 24  1  0  0  0
 23 22  1  0  0  0
 22  1  1  0  0  0
  1  2  1  0  0  0
  1  3  1  0  0  0
  2  7  1  0  0  0
  3  4  1  0  0  0
  3  5  1  0  0  0
  5  6  1  0  0  0
  5  7  1  0  0  0
  7 10  1  0  0  0
 10 11  1  0  0  0
 10 19  1  0  0  0
 11 12  2  0  0  0
 12 13  1  0  0  0
 13 14  1  0  0  0
 13 19  2  0  0  0
 14 15  1  0  0  0
 14 16  2  0  0  0
 16 17  1  0  0  0
 17 18  2  0  0  0
 18 19  1  0  0  0
 27 29  1  0  0  0
 27 30  1  0  0  0
  4  8  1  0  0  0
  6  9  1  0  0  0
 15 20  1  0  0  0
 15 21  1  0  0  0
M  CHG 1  23   1
M  CHG 1  33  -1
M  END
> <minimizedAffinity>
-9.40415

$$$$
1NW5_SAM_A_401


 33 35  0  0  0  0  0  0  0  0999 V2000
   28.7879   22.2408   -4.3130 C   0  0  0  0  0  0  0  0  0  0  0  0
   28.3408   23.5424   -3.9917 O   0  0  0  0  0  0  0  0  0  0  0  0
   29.1668   22.2652   -5.8081 C   0  0  0  0  0  0  0  0  0  0  0  0
   28.4519   21.2993   -6.5688 O   0  0  0  0  0  0  0  0  0  0  0  0
   29.0246   23.7360   -6.1934 C   0  0  0  0  0  0  0  0  0  0  0  0
   28.4089   23.9033   -7.4714 O   0  0  0  0  0  0  0  0  0  0  0  0
   28.0077   24.2398   -5.1661 C   0  0  0  0  0  0  0  0  0  0  0  0
   27.4990   21.4553   -6.4758 H   0  0  0  0  0  0  0  0  0  0  0  0
   27.5429   23.4663   -7.4728 H   0  0  0  0  0  0  0  0  0  0  0  0
   28.0802   25.6680   -4.8090 N   0  0  0  0  0  0  0  0  0  0  0  0
   29.1164   26.5021   -4.5575 C   0  0  0  0  0  0  0  0  0  0  0  0
   28.7370   27.7487   -4.2479 N   0  0  0  0  0  0  0  0  0  0  0  0
   27.3400   27.7439   -4.2950 C   0  0  0  0  0  0  0  0  0  0  0  0
   26.2956   28.6385   -4.0899 C   0  0  0  0  0  0  0  0  0  0  0  0
   26.5219   29.9315   -3.7370 N   0  0  0  0  0  0  0  0  0  0  0  0
   24.9825   28.2441   -4.2355 N   0  0  0  0  0  0  0  0  0  0  0  0
   24.7039   26.9685   -4.5857 C   0  0  0  0  0  0  0  0  0  0  0  0
   25.6561   26.0402   -4.8016 N   0  0  0  0  0  0  0  0  0  0  0  0
   26.9459   26.4394   -4.6513 C   0  0  0  0  0  0  0  0  0  0  0  0
   27.4442   30.2561   -3.6220 H   0  0  0  0  0  0  0  0  0  0  0  0
   25.7635   30.5433   -3.5964 H   0  0  0  0  0  0  0  0  0  0  0  0
   29.8948   21.7820   -3.3511 C   0  0  0  0  0  0  0  0  0  0  0  0
   31.5524   21.7621   -4.0650 S   0  0  0  0  0  0  0  0  0  0  0  0
   32.1897   23.4669   -3.9979 C   0  0  0  0  0  0  0  0  0  0  0  0
   32.5921   20.8447   -2.8568 C   0  0  0  0  0  0  0  0  0  0  0  0
   32.5011   21.3687   -1.3934 C   0  0  0  0  0  0  0  0  0  0  0  0
   30.5766   20.7204    0.0686 N   0  0  0  0  0  0  0  0  0  0  0  0
   31.9105   20.3299   -0.4033 C   0  0  0  0  0  0  0  0  0  0  0  0
   30.2244   20.0142    0.7149 H   0  0  0  0  0  0  0  0  0  0  0  0
   29.9438   20.7986   -0.7275 H   0  0  0  0  0  0  0  0  0  0  0  0
   32.9231   20.1643    0.7421 C   0  0  0  0  0  0  0  0  0  0  0  0
   32.5252   19.7153    1.8212 O   0  0  0  0  0  0  0  0  0  0  0  0
   34.0914   20.5028    0.5218 O   0  0  0  0  0  0  0  0  0  0  0  0
 27 28  1  0  0  0
 28 31  1  0  0  0
 28 26  1  0  0  0
 31 32  2  0  0  0
 31 33  1  0  0  0
 26 25  1  0  0  0
 25 23  1  0  0  0
 23 24  1  0  0  0
 23 22  1  0  0  0
 22  1  1  0  0  0
  1  2  1  0  0  0
  1  3  1  0  0  0
  2  7  1  0  0  0
  3  4  1  0  0  0
  3  5  1  0  0  0
  5  6  1  0  0  0
  5  7  1  0  0  0
  7 10  1  0  0  0
 10 11  1  0  0  0
 10 19  1  0  0  0
 11 12  2  0  0  0
 12 13  1  0  0  0
 13 14  1  0  0  0
 13 19  2  0  0  0
 14 15  1  0  0  0
 14 16  2  0  0  0
 16 17  1  0  0  0
 17 18  2  0  0  0
 18 19  1  0  0  0
 27 29  1  0  0  0
 27 30  1  0  0  0
  4  8  1  0  0  0
  6  9  1  0  0  0
 15 20  1  0  0  0
 15 21  1  0  0  0
M  CHG 1  23   1
M  CHG 1  33  -1
M  END
> <minimizedAffinity>
-8.29340

$$$$
1NW5_SAM_A_401


 33 35  0  0  0  0  0  0  0  0999 V2000
   30.2551   23.3261   -5.1701 C   0  0  0  0  0  0  0  0  0  0  0  0
   29.7699   24.4857   -4.5240 O   0  0  0  0  0  0  0  0  0  0  0  0
   29.7325   23.3825   -6.6203 C   0  0  0  0  0  0  0  0  0  0  0  0
   28.9655   22.2369   -6.9697 O   0  0  0  0  0  0  0  0  0  0  0  0
   29.0647   24.7529   -6.7112 C   0  0  0  0  0  0  0  0  0  0  0  0
   27.8298   24.7063   -7.4276 O   0  0  0  0  0  0  0  0  0  0  0  0
   28.6955   25.0271   -5.2512 C   0  0  0  0  0  0  0  0  0  0  0  0
   28.2155   22.1519   -6.3605 H   0  0  0  0  0  0  0  0  0  0  0  0
   27.2355   24.0659   -7.0062 H   0  0  0  0  0  0  0  0  0  0  0  0
   28.6176   26.4413   -4.8429 N   0  0  0  0  0  0  0  0  0  0  0  0
   29.5605   27.3791   -4.5899 C   0  0  0  0  0  0  0  0  0  0  0  0
   29.0529   28.5630   -4.2230 N   0  0  0  0  0  0  0  0  0  0  0  0
   27.6646   28.4005   -4.2306 C   0  0  0  0  0  0  0  0  0  0  0  0
   26.5330   29.1625   -3.9626 C   0  0  0  0  0  0  0  0  0  0  0  0
   26.6231   30.4601   -3.5679 N   0  0  0  0  0  0  0  0  0  0  0  0
   25.2689   28.6260   -4.0855 N   0  0  0  0  0  0  0  0  0  0  0  0
   25.1250   27.3397   -4.4752 C   0  0  0  0  0  0  0  0  0  0  0  0
   26.1686   26.5339   -4.7528 N   0  0  0  0  0  0  0  0  0  0  0  0
   27.4091   27.0724   -4.6243 C   0  0  0  0  0  0  0  0  0  0  0  0
   27.5060   30.8837   -3.4671 H   0  0  0  0  0  0  0  0  0  0  0  0
   25.8054   30.9762   -3.3830 H   0  0  0  0  0  0  0  0  0  0  0  0
   31.7785   23.2011   -5.0136 C   0  0  0  0  0  0  0  0  0  0  0  0
   32.3115   22.0894   -3.6953 S   0  0  0  0  0  0  0  0  0  0  0  0
   33.6654   22.9194   -2.8036 C   0  0  0  0  0  0  0  0  0  0  0  0
   30.9247   22.0659   -2.4876 C   0  0  0  0  0  0  0  0  0  0  0  0
   30.1339   20.7257   -2.4341 C   0  0  0  0  0  0  0  0  0  0  0  0
   27.9868   19.6944   -1.6675 N   0  0  0  0  0  0  0  0  0  0  0  0
   28.6146   20.9173   -2.1823 C   0  0  0  0  0  0  0  0  0  0  0  0
   26.9920   19.8610   -1.5157 H   0  0  0  0  0  0  0  0  0  0  0  0
   28.4262   19.4322   -0.7852 H   0  0  0  0  0  0  0  0  0  0  0  0
   27.9902   21.3972   -3.5031 C   0  0  0  0  0  0  0  0  0  0  0  0
   28.2018   20.7424   -4.5282 O   0  0  0  0  0  0  0  0  0  0  0  0
   27.3110   22.4296   -3.4690 O   0  0  0  0  0  0  0  0  0  0  0  0
 27 28  1  0  0  0
 28 31  1  0  0  0
 28 26  1  0  0  0
 31 32  2  0  0  0
 31 33  1  0  0  0
 26 25  1  0  0  0
 25 23  1  0  0  0
 23 24  1  0  0  0
 23 22  1  0  0  0
 22  1  1  0  0  0
  1  2  1  0  0  0
  1  3  1  0  0  0
  2  7  1  0  0  0
  3  4  1  0  0  0
  3  5  1  0  0  0
  5  6  1  0  0  0
  5  7  1  0  0  0
  7 10  1  0  0  0
 10 11  1  0  0  0
 10 19  1  0  0  0
 11 12  2  0  0  0
 12 13  1  0  0  0
 13 14  1  0  0  0
 13 19  2  0  0  0
 14 15  1  0  0  0
 14 16  2  0  0  0
 16 17  1  0  0  0
 17 18  2  0  0  0
 18 19  1  0  0  0
 27 29  1  0  0  0
 27 30  1  0  0  0
  4  8  1  0  0  0
  6  9  1  0  0  0
 15 20  1  0  0  0
 15 21  1  0  0  0
M  CHG 1  23   1
M  CHG 1  33  -1
M  END
> <minimizedAffinity>
-8.07227

$$$$
1NW5_SAM_A_401


 33 35  0  0  0  0  0  0  0  0999 V2000
   30.6752   25.8673   -5.1809 C   0  0  0  0  0  0  0  0  0  0  0  0
   30.0337   24.9276   -4.3426 O   0  0  0  0  0  0  0  0  0  0  0  0
   31.5752   25.0578   -6.1369 C   0  0  0  0  0  0  0  0  0  0  0  0
   32.9407   25.4486   -6.0639 O   0  0  0  0  0  0  0  0  0  0  0  0
   31.2227   23.6055   -5.8227 C   0  0  0  0  0  0  0  0  0  0  0  0
   32.3771   22.7652   -5.7832 O   0  0  0  0  0  0  0  0  0  0  0  0
   30.7217   23.7022   -4.3796 C   0  0  0  0  0  0  0  0  0  0  0  0
   33.2595   25.3415   -5.1541 H   0  0  0  0  0  0  0  0  0  0  0  0
   33.0066   23.1109   -5.1312 H   0  0  0  0  0  0  0  0  0  0  0  0
   29.7418   22.6883   -3.9502 N   0  0  0  0  0  0  0  0  0  0  0  0
   28.4775   22.4061   -4.3433 C   0  0  0  0  0  0  0  0  0  0  0  0
   27.9214   21.3909   -3.6695 N   0  0  0  0  0  0  0  0  0  0  0  0
   28.8898   20.9651   -2.7558 C   0  0  0  0  0  0  0  0  0  0  0  0
   29.0200   20.0031   -1.7604 C   0  0  0  0  0  0  0  0  0  0  0  0
   28.0091   19.1458   -1.4595 N   0  0  0  0  0  0  0  0  0  0  0  0
   30.1863   19.8839   -1.0350 N   0  0  0  0  0  0  0  0  0  0  0  0
   31.2219   20.7126   -1.2957 C   0  0  0  0  0  0  0  0  0  0  0  0
   31.1772   21.6711   -2.2415 N   0  0  0  0  0  0  0  0  0  0  0  0
   30.0215   21.7817   -2.9470 C   0  0  0  0  0  0  0  0  0  0  0  0
   27.1584   19.1954   -1.9525 H   0  0  0  0  0  0  0  0  0  0  0  0
   28.1276   18.4751   -0.7486 H   0  0  0  0  0  0  0  0  0  0  0  0
   29.6539   26.7980   -5.8531 C   0  0  0  0  0  0  0  0  0  0  0  0
   29.8174   28.5403   -5.4108 S   0  0  0  0  0  0  0  0  0  0  0  0
   29.0502   29.5109   -6.7474 C   0  0  0  0  0  0  0  0  0  0  0  0
   28.6949   28.7857   -3.9748 C   0  0  0  0  0  0  0  0  0  0  0  0
   27.5493   27.7374   -3.8605 C   0  0  0  0  0  0  0  0  0  0  0  0
   25.5768   29.2757   -3.9265 N   0  0  0  0  0  0  0  0  0  0  0  0
   26.2523   28.1602   -4.6002 C   0  0  0  0  0  0  0  0  0  0  0  0
   24.7319   29.5228   -4.4418 H   0  0  0  0  0  0  0  0  0  0  0  0
   26.2019   30.0810   -3.8923 H   0  0  0  0  0  0  0  0  0  0  0  0
   25.3653   26.9095   -4.7170 C   0  0  0  0  0  0  0  0  0  0  0  0
   25.9107   25.8054   -4.8059 O   0  0  0  0  0  0  0  0  0  0  0  0
   24.1408   27.0794   -4.7260 O   0  0  0  0  0  0  0  0  0  0  0  0
 27 28  1  0  0  0
 28 31  1  0  0  0
 28 26  1  0  0  0
 31 32  2  0  0  0
 31 33  1  0  0  0
 26 25  1  0  0  0
 25 23  1  0  0  0
 23 24  1  0  0  0
 23 22  1  0  0  0
 22  1  1  0  0  0
  1  2  1  0  0  0
  1  3  1  0  0  0
  2  7  1  0  0  0
  3  4  1  0  0  0
  3  5  1  0  0  0
  5  6  1  0  0  0
  5  7  1  0  0  0
  7 10  1  0  0  0
 10 11  1  0  0  0
 10 19  1  0  0  0
 11 12  2  0  0  0
 12 13  1  0  0  0
 13 14  1  0  0  0
 13 19  2  0  0  0
 14 15  1  0  0  0
 14 16  2  0  0  0
 16 17  1  0  0  0
 17 18  2  0  0  0
 18 19  1  0  0  0
 27 29  1  0  0  0
 27 30  1  0  0  0
  4  8  1  0  0  0
  6  9  1  0  0  0
 15 20  1  0  0  0
 15 21  1  0  0  0
M  CHG 1  23   1
M  CHG 1  33  -1
M  END
> <minimizedAffinity>
-7.52945

$$$$
1NW5_SAM_A_401


 33 35  0  0  0  0  0  0  0  0999 V2000
   30.5374   24.8195   -6.4979 C   0  0  0  0  0  0  0  0  0  0  0  0
   30.7399   24.2129   -5.2376 O   0  0  0  0  0  0  0  0  0  0  0  0
   29.4241   24.0130   -7.1976 C   0  0  0  0  0  0  0  0  0  0  0  0
   29.8362   23.4890   -8.4539 O   0  0  0  0  0  0  0  0  0  0  0  0
   28.9592   23.0314   -6.1240 C   0  0  0  0  0  0  0  0  0  0  0  0
   28.7267   21.7241   -6.6506 O   0  0  0  0  0  0  0  0  0  0  0  0
   30.2013   22.9143   -5.2371 C   0  0  0  0  0  0  0  0  0  0  0  0
   30.6136   22.9225   -8.3287 H   0  0  0  0  0  0  0  0  0  0  0  0
   29.5338   21.4005   -7.0806 H   0  0  0  0  0  0  0  0  0  0  0  0
   29.9727   22.5842   -3.8189 N   0  0  0  0  0  0  0  0  0  0  0  0
   28.9569   22.8502   -2.9645 C   0  0  0  0  0  0  0  0  0  0  0  0
   29.1567   22.3711   -1.7298 N   0  0  0  0  0  0  0  0  0  0  0  0
   30.4028   21.7387   -1.7642 C   0  0  0  0  0  0  0  0  0  0  0  0
   31.2377   21.0512   -0.8905 C   0  0  0  0  0  0  0  0  0  0  0  0
   30.8966   20.8444    0.4089 N   0  0  0  0  0  0  0  0  0  0  0  0
   32.4521   20.5525   -1.3118 N   0  0  0  0  0  0  0  0  0  0  0  0
   32.8379   20.7313   -2.5949 C   0  0  0  0  0  0  0  0  0  0  0  0
   32.0893   21.3861   -3.5038 N   0  0  0  0  0  0  0  0  0  0  0  0
   30.8967   21.8764   -3.0761 C   0  0  0  0  0  0  0  0  0  0  0  0
   30.0385   21.1834    0.7525 H   0  0  0  0  0  0  0  0  0  0  0  0
   31.5076   20.3557    1.0064 H   0  0  0  0  0  0  0  0  0  0  0  0
   30.2787   26.3270   -6.3520 C   0  0  0  0  0  0  0  0  0  0  0  0
   30.1015   26.8994   -4.6493 S   0  0  0  0  0  0  0  0  0  0  0  0
   31.5815   27.8845   -4.2541 C   0  0  0  0  0  0  0  0  0  0  0  0
   28.7374   28.1323   -4.6894 C   0  0  0  0  0  0  0  0  0  0  0  0
   27.4480   27.6977   -3.9326 C   0  0  0  0  0  0  0  0  0  0  0  0
   25.4975   29.2642   -3.9875 N   0  0  0  0  0  0  0  0  0  0  0  0
   26.1399   28.1232   -4.6509 C   0  0  0  0  0  0  0  0  0  0  0  0
   24.6442   29.5123   -4.4882 H   0  0  0  0  0  0  0  0  0  0  0  0
   26.1352   30.0603   -3.9870 H   0  0  0  0  0  0  0  0  0  0  0  0
   25.2319   26.8840   -4.7172 C   0  0  0  0  0  0  0  0  0  0  0  0
   24.0084   27.0462   -4.6824 O   0  0  0  0  0  0  0  0  0  0  0  0
   25.7817   25.7793   -4.7922 O   0  0  0  0  0  0  0  0  0  0  0  0
 27 28  1  0  0  0
 28 31  1  0  0  0
 28 26  1  0  0  0
 31 32  2  0  0  0
 31 33  1  0  0  0
 26 25  1  0  0  0
 25 23  1  0  0  0
 23 24  1  0  0  0
 23 22  1  0  0  0
 22  1  1  0  0  0
  1  2  1  0  0  0
  1  3  1  0  0  0
  2  7  1  0  0  0
  3  4  1  0  0  0
  3  5  1  0  0  0
  5  6  1  0  0  0
  5  7  1  0  0  0
  7 10  1  0  0  0
 10 11  1  0  0  0
 10 19  1  0  0  0
 11 12  2  0  0  0
 12 13  1  0  0  0
 13 14  1  0  0  0
 13 19  2  0  0  0
 14 15  1  0  0  0
 14 16  2  0  0  0
 16 17  1  0  0  0
 17 18  2  0  0  0
 18 19  1  0  0  0
 27 29  1  0  0  0
 27 30  1  0  0  0
  4  8  1  0  0  0
  6  9  1  0  0  0
 15 20  1  0  0  0
 15 21  1  0  0  0
M  CHG 1  23   1
M  CHG 1  33  -1
M  END
> <minimizedAffinity>
-7.38329

$$$$
1NW5_SAM_A_401


 33 35  0  0  0  0  0  0  0  0999 V2000
   29.0656   23.9158   -5.0458 C   0  0  0  0  0  0  0  0  0  0  0  0
   30.2605   23.2592   -4.6736 O   0  0  0  0  0  0  0  0  0  0  0  0
   28.1855   23.9728   -3.7803 C   0  0  0  0  0  0  0  0  0  0  0  0
   26.9170   23.3579   -3.9687 O   0  0  0  0  0  0  0  0  0  0  0  0
   29.0955   23.4274   -2.6819 C   0  0  0  0  0  0  0  0  0  0  0  0
   28.4042   22.5474   -1.7942 O   0  0  0  0  0  0  0  0  0  0  0  0
   30.0657   22.5493   -3.4759 C   0  0  0  0  0  0  0  0  0  0  0  0
   27.0421   22.4328   -4.2321 H   0  0  0  0  0  0  0  0  0  0  0  0
   28.0104   21.8204   -2.3014 H   0  0  0  0  0  0  0  0  0  0  0  0
   31.4120   22.3665   -2.9041 N   0  0  0  0  0  0  0  0  0  0  0  0
   32.6275   22.8612   -3.2361 C   0  0  0  0  0  0  0  0  0  0  0  0
   33.6178   22.4207   -2.4493 N   0  0  0  0  0  0  0  0  0  0  0  0
   33.0153   21.5649   -1.5227 C   0  0  0  0  0  0  0  0  0  0  0  0
   33.3984   20.7690   -0.4490 C   0  0  0  0  0  0  0  0  0  0  0  0
   34.6952   20.6833   -0.0507 N   0  0  0  0  0  0  0  0  0  0  0  0
   32.4714   20.0302    0.2549 N   0  0  0  0  0  0  0  0  0  0  0  0
   31.1683   20.0809   -0.1011 C   0  0  0  0  0  0  0  0  0  0  0  0
   30.7148   20.8252   -1.1285 N   0  0  0  0  0  0  0  0  0  0  0  0
   31.6380   21.5457   -1.8170 C   0  0  0  0  0  0  0  0  0  0  0  0
   35.3905   21.1940   -0.5250 H   0  0  0  0  0  0  0  0  0  0  0  0
   34.9391   20.1106    0.7120 H   0  0  0  0  0  0  0  0  0  0  0  0
   29.3613   25.2670   -5.7150 C   0  0  0  0  0  0  0  0  0  0  0  0
   30.5519   26.2990   -4.8343 S   0  0  0  0  0  0  0  0  0  0  0  0
   31.8890   26.6992   -6.0044 C   0  0  0  0  0  0  0  0  0  0  0  0
   29.6969   27.9042   -4.5613 C   0  0  0  0  0  0  0  0  0  0  0  0
   28.3194   27.7917   -3.8442 C   0  0  0  0  0  0  0  0  0  0  0  0
   26.8760   29.8013   -4.2173 N   0  0  0  0  0  0  0  0  0  0  0  0
   27.1535   28.4259   -4.6483 C   0  0  0  0  0  0  0  0  0  0  0  0
   26.1061   30.1814   -4.7679 H   0  0  0  0  0  0  0  0  0  0  0  0
   27.7080   30.3751   -4.3548 H   0  0  0  0  0  0  0  0  0  0  0  0
   25.9371   27.4973   -4.4974 C   0  0  0  0  0  0  0  0  0  0  0  0
   24.8523   27.9928   -4.1778 O   0  0  0  0  0  0  0  0  0  0  0  0
   26.1149   26.2902   -4.6964 O   0  0  0  0  0  0  0  0  0  0  0  0
 27 28  1  0  0  0
 28 31  1  0  0  0
 28 26  1  0  0  0
 31 32  2  0  0  0
 31 33  1  0  0  0
 26 25  1  0  0  0
 25 23  1  0  0  0
 23 24  1  0  0  0
 23 22  1  0  0  0
 22  1  1  0  0  0
  1  2  1  0  0  0
  1  3  1  0  0  0
  2  7  1  0  0  0
  3  4  1  0  0  0
  3  5  1  0  0  0
  5  6  1  0  0  0
  5  7  1  0  0  0
  7 10  1  0  0  0
 10 11  1  0  0  0
 10 19  1  0  0  0
 11 12  2  0  0  0
 12 13  1  0  0  0
 13 14  1  0  0  0
 13 19  2  0  0  0
 14 15  1  0  0  0
 14 16  2  0  0  0
 16 17  1  0  0  0
 17 18  2  0  0  0
 18 19  1  0  0  0
 27 29  1  0  0  0
 27 30  1  0  0  0
  4  8  1  0  0  0
  6  9  1  0  0  0
 15 20  1  0  0  0
 15 21  1  0  0  0
M  CHG 1  23   1
M  CHG 1  33  -1
M  END
> <minimizedAffinity>
-7.32932

$$$$
1NW5_SAM_A_401


 33 35  0  0  0  0  0  0  0  0999 V2000
   28.8153   22.1121   -4.6090 C   0  0  0  0  0  0  0  0  0  0  0  0
   28.3901   23.3884   -4.1759 O   0  0  0  0  0  0  0  0  0  0  0  0
   29.1241   22.2417   -6.1148 C   0  0  0  0  0  0  0  0  0  0  0  0
   28.3697   21.3332   -6.9074 O   0  0  0  0  0  0  0  0  0  0  0  0
   28.9713   23.7363   -6.3881 C   0  0  0  0  0  0  0  0  0  0  0  0
   28.2975   23.9946   -7.6208 O   0  0  0  0  0  0  0  0  0  0  0  0
   28.0060   24.1676   -5.2812 C   0  0  0  0  0  0  0  0  0  0  0  0
   27.4230   21.4837   -6.7591 H   0  0  0  0  0  0  0  0  0  0  0  0
   27.4302   23.5602   -7.6125 H   0  0  0  0  0  0  0  0  0  0  0  0
   28.1021   25.5669   -4.8278 N   0  0  0  0  0  0  0  0  0  0  0  0
   29.1491   26.3522   -4.4819 C   0  0  0  0  0  0  0  0  0  0  0  0
   28.7909   27.5866   -4.1054 N   0  0  0  0  0  0  0  0  0  0  0  0
   27.3973   27.6258   -4.2067 C   0  0  0  0  0  0  0  0  0  0  0  0
   26.3698   28.5354   -3.9834 C   0  0  0  0  0  0  0  0  0  0  0  0
   26.6160   29.7954   -3.5372 N   0  0  0  0  0  0  0  0  0  0  0  0
   25.0536   28.1899   -4.2053 N   0  0  0  0  0  0  0  0  0  0  0  0
   24.7555   26.9485   -4.6496 C   0  0  0  0  0  0  0  0  0  0  0  0
   25.6905   26.0086   -4.8895 N   0  0  0  0  0  0  0  0  0  0  0  0
   26.9833   26.3593   -4.6634 C   0  0  0  0  0  0  0  0  0  0  0  0
   27.5413   30.0848   -3.3655 H   0  0  0  0  0  0  0  0  0  0  0  0
   25.8692   30.4188   -3.3858 H   0  0  0  0  0  0  0  0  0  0  0  0
   29.9637   21.5846   -3.7349 C   0  0  0  0  0  0  0  0  0  0  0  0
   31.3408   22.7328   -3.5273 S   0  0  0  0  0  0  0  0  0  0  0  0
   32.3264   22.1437   -2.1136 C   0  0  0  0  0  0  0  0  0  0  0  0
   32.4302   22.4549   -4.9828 C   0  0  0  0  0  0  0  0  0  0  0  0
   32.2605   21.0652   -5.6641 C   0  0  0  0  0  0  0  0  0  0  0  0
   33.3806   22.3084   -7.5244 N   0  0  0  0  0  0  0  0  0  0  0  0
   32.8116   21.0191   -7.1140 C   0  0  0  0  0  0  0  0  0  0  0  0
   33.7307   22.2369   -8.4798 H   0  0  0  0  0  0  0  0  0  0  0  0
   34.1474   22.5561   -6.8990 H   0  0  0  0  0  0  0  0  0  0  0  0
   31.6615   20.5584   -8.0249 C   0  0  0  0  0  0  0  0  0  0  0  0
   31.0855   21.4006   -8.7200 O   0  0  0  0  0  0  0  0  0  0  0  0
   31.3655   19.3583   -8.0042 O   0  0  0  0  0  0  0  0  0  0  0  0
 27 28  1  0  0  0
 28 31  1  0  0  0
 28 26  1  0  0  0
 31 32  2  0  0  0
 31 33  1  0  0  0
 26 25  1  0  0  0
 25 23  1  0  0  0
 23 24  1  0  0  0
 23 22  1  0  0  0
 22  1  1  0  0  0
  1  2  1  0  0  0
  1  3  1  0  0  0
  2  7  1  0  0  0
  3  4  1  0  0  0
  3  5  1  0  0  0
  5  6  1  0  0  0
  5  7  1  0  0  0
  7 10  1  0  0  0
 10 11  1  0  0  0
 10 19  1  0  0  0
 11 12  2  0  0  0
 12 13  1  0  0  0
 13 14  1  0  0  0
 13 19  2  0  0  0
 14 15  1  0  0  0
 14 16  2  0  0  0
 16 17  1  0  0  0
 17 18  2  0  0  0
 18 19  1  0  0  0
 27 29  1  0  0  0
 27 30  1  0  0  0
  4  8  1  0  0  0
  6  9  1  0  0  0
 15 20  1  0  0  0
 15 21  1  0  0  0
M  CHG 1  23   1
M  CHG 1  33  -1
M  END
> <minimizedAffinity>
-7.26924

$$$$
1NW5_SAM_A_401


 33 35  0  0  0  0  0  0  0  0999 V2000
   30.4379   23.1380   -4.4912 C   0  0  0  0  0  0  0  0  0  0  0  0
   30.4544   24.4923   -4.0879 O   0  0  0  0  0  0  0  0  0  0  0  0
   29.3866   23.0290   -5.6147 C   0  0  0  0  0  0  0  0  0  0  0  0
   28.3683   22.0808   -5.3200 O   0  0  0  0  0  0  0  0  0  0  0  0
   28.9729   24.4775   -5.8648 C   0  0  0  0  0  0  0  0  0  0  0  0
   27.5638   24.6123   -6.0560 O   0  0  0  0  0  0  0  0  0  0  0  0
   29.2809   25.1361   -4.5178 C   0  0  0  0  0  0  0  0  0  0  0  0
   27.9287   22.3257   -4.4907 H   0  0  0  0  0  0  0  0  0  0  0  0
   27.0971   24.2539   -5.2848 H   0  0  0  0  0  0  0  0  0  0  0  0
   29.6078   26.5732   -4.5434 N   0  0  0  0  0  0  0  0  0  0  0  0
   30.7743   27.2494   -4.6652 C   0  0  0  0  0  0  0  0  0  0  0  0
   30.6284   28.5801   -4.6236 N   0  0  0  0  0  0  0  0  0  0  0  0
   29.2590   28.8077   -4.4596 C   0  0  0  0  0  0  0  0  0  0  0  0
   28.3995   29.8929   -4.3313 C   0  0  0  0  0  0  0  0  0  0  0  0
   28.8574   31.1725   -4.3500 N   0  0  0  0  0  0  0  0  0  0  0  0
   27.0417   29.7102   -4.1767 N   0  0  0  0  0  0  0  0  0  0  0  0
   26.5356   28.4570   -4.1518 C   0  0  0  0  0  0  0  0  0  0  0  0
   27.2989   27.3529   -4.2684 N   0  0  0  0  0  0  0  0  0  0  0  0
   28.6356   27.5453   -4.4162 C   0  0  0  0  0  0  0  0  0  0  0  0
   29.8198   31.3494   -4.4583 H   0  0  0  0  0  0  0  0  0  0  0  0
   28.2267   31.9225   -4.2553 H   0  0  0  0  0  0  0  0  0  0  0  0
   31.8502   22.6492   -4.8486 C   0  0  0  0  0  0  0  0  0  0  0  0
   32.6996   21.7668   -3.5228 S   0  0  0  0  0  0  0  0  0  0  0  0
   34.1511   22.7625   -3.0551 C   0  0  0  0  0  0  0  0  0  0  0  0
   31.5837   21.8854   -2.0657 C   0  0  0  0  0  0  0  0  0  0  0  0
   32.2350   21.4686   -0.7143 C   0  0  0  0  0  0  0  0  0  0  0  0
   30.4359   19.7654   -0.3627 N   0  0  0  0  0  0  0  0  0  0  0  0
   31.8788   20.0221   -0.2797 C   0  0  0  0  0  0  0  0  0  0  0  0
   30.2436   18.8074   -0.0698 H   0  0  0  0  0  0  0  0  0  0  0  0
   30.1220   19.8965   -1.3243 H   0  0  0  0  0  0  0  0  0  0  0  0
   32.4394   19.8204    1.1379 C   0  0  0  0  0  0  0  0  0  0  0  0
   32.2749   18.7271    1.6876 O   0  0  0  0  0  0  0  0  0  0  0  0
   33.0219   20.7773    1.6606 O   0  0  0  0  0  0  0  0  0  0  0  0
 27 28  1  0  0  0
 28 31  1  0  0  0
 28 26  1  0  0  0
 31 32  2  0  0  0
 31 33  1  0  0  0
 26 25  1  0  0  0
 25 23  1  0  0  0
 23 24  1  0  0  0
 23 22  1  0  0  0
 22  1  1  0  0  0
  1  2  1  0  0  0
  1  3  1  0  0  0
  2  7  1  0  0  0
  3  4  1  0  0  0
  3  5  1  0  0  0
  5  6  1  0  0  0
  5  7  1  0  0  0
  7 10  1  0  0  0
 10 11  1  0  0  0
 10 19  1  0  0  0
 11 12  2  0  0  0
 12 13  1  0  0  0
 13 14  1  0  0  0
 13 19  2  0  0  0
 14 15  1  0  0  0
 14 16  2  0  0  0
 16 17  1  0  0  0
 17 18  2  0  0  0
 18 19  1  0  0  0
 27 29  1  0  0  0
 27 30  1  0  0  0
  4  8  1  0  0  0
  6  9  1  0  0  0
 15 20  1  0  0  0
 15 21  1  0  0  0
M  CHG 1  23   1
M  CHG 1  33  -1
M  END
> <minimizedAffinity>
-7.16586

$$$$
1NW5_SAM_A_401


 33 35  0  0  0  0  0  0  0  0999 V2000
   29.3042   22.6040   -4.0413 C   0  0  0  0  0  0  0  0  0  0  0  0
   28.8135   23.8899   -3.7204 O   0  0  0  0  0  0  0  0  0  0  0  0
   29.4246   22.5530   -5.5783 C   0  0  0  0  0  0  0  0  0  0  0  0
   28.6730   21.4896   -6.1502 O   0  0  0  0  0  0  0  0  0  0  0  0
   29.1017   23.9805   -6.0141 C   0  0  0  0  0  0  0  0  0  0  0  0
   28.2696   24.0166   -7.1746 O   0  0  0  0  0  0  0  0  0  0  0  0
   28.2336   24.4805   -4.8567 C   0  0  0  0  0  0  0  0  0  0  0  0
   27.7396   21.5843   -5.9036 H   0  0  0  0  0  0  0  0  0  0  0  0
   27.4537   23.5208   -7.0030 H   0  0  0  0  0  0  0  0  0  0  0  0
   28.2492   25.9313   -4.5969 N   0  0  0  0  0  0  0  0  0  0  0  0
   29.2500   26.8160   -4.3773 C   0  0  0  0  0  0  0  0  0  0  0  0
   28.8214   28.0668   -4.1637 N   0  0  0  0  0  0  0  0  0  0  0  0
   27.4272   28.0104   -4.2456 C   0  0  0  0  0  0  0  0  0  0  0  0
   26.3487   28.8800   -4.1289 C   0  0  0  0  0  0  0  0  0  0  0  0
   26.5225   30.2010   -3.8600 N   0  0  0  0  0  0  0  0  0  0  0  0
   25.0538   28.4312   -4.2801 N   0  0  0  0  0  0  0  0  0  0  0  0
   24.8271   27.1260   -4.5487 C   0  0  0  0  0  0  0  0  0  0  0  0
   25.8149   26.2187   -4.6762 N   0  0  0  0  0  0  0  0  0  0  0  0
   27.0862   26.6718   -4.5212 C   0  0  0  0  0  0  0  0  0  0  0  0
   27.4301   30.5645   -3.7444 H   0  0  0  0  0  0  0  0  0  0  0  0
   25.7408   30.7942   -3.7809 H   0  0  0  0  0  0  0  0  0  0  0  0
   30.5897   22.2907   -3.2600 C   0  0  0  0  0  0  0  0  0  0  0  0
   30.3215   21.6695   -1.5867 S   0  0  0  0  0  0  0  0  0  0  0  0
   29.6035   20.0027   -1.7382 C   0  0  0  0  0  0  0  0  0  0  0  0
   32.0025   21.3751   -0.9012 C   0  0  0  0  0  0  0  0  0  0  0  0
   33.0119   20.7464   -1.9063 C   0  0  0  0  0  0  0  0  0  0  0  0
   34.2450   22.8495   -1.3430 N   0  0  0  0  0  0  0  0  0  0  0  0
   34.2464   21.6452   -2.1821 C   0  0  0  0  0  0  0  0  0  0  0  0
   35.0696   23.4117   -1.5537 H   0  0  0  0  0  0  0  0  0  0  0  0
   34.2603   22.5788   -0.3597 H   0  0  0  0  0  0  0  0  0  0  0  0
   34.2500   21.9667   -3.6859 C   0  0  0  0  0  0  0  0  0  0  0  0
   33.8348   21.1112   -4.4733 O   0  0  0  0  0  0  0  0  0  0  0  0
   34.6825   23.0725   -4.0301 O   0  0  0  0  0  0  0  0  0  0  0  0
 27 28  1  0  0  0
 28 31  1  0  0  0
 28 26  1  0  0  0
 31 32  2  0  0  0
 31 33  1  0  0  0
 26 25  1  0  0  0
 25 23  1  0  0  0
 23 24  1  0  0  0
 23 22  1  0  0  0
 22  1  1  0  0  0
  1  2  1  0  0  0
  1  3  1  0  0  0
  2  7  1  0  0  0
  3  4  1  0  0  0
  3  5  1  0  0  0
  5  6  1  0  0  0
  5  7  1  0  0  0
  7 10  1  0  0  0
 10 11  1  0  0  0
 10 19  1  0  0  0
 11 12  2  0  0  0
 12 13  1  0  0  0
 13 14  1  0  0  0
 13 19  2  0  0  0
 14 15  1  0  0  0
 14 16  2  0  0  0
 16 17  1  0  0  0
 17 18  2  0  0  0
 18 19  1  0  0  0
 27 29  1  0  0  0
 27 30  1  0  0  0
  4  8  1  0  0  0
  6  9  1  0  0  0
 15 20  1  0  0  0
 15 21  1  0  0  0
M  CHG 1  23   1
M  CHG 1  33  -1
M  END
> <minimizedAffinity>
-7.07226

$$$$
1NW5_SAM_A_401


 33 35  0  0  0  0  0  0  0  0999 V2000
   28.4120   21.5122   -3.3297 C   0  0  0  0  0  0  0  0  0  0  0  0
   27.7315   20.2835   -3.1723 O   0  0  0  0  0  0  0  0  0  0  0  0
   29.6471   21.4492   -2.4077 C   0  0  0  0  0  0  0  0  0  0  0  0
   29.6800   22.5138   -1.4652 O   0  0  0  0  0  0  0  0  0  0  0  0
   29.6305   20.0170   -1.8781 C   0  0  0  0  0  0  0  0  0  0  0  0
   29.9507   19.9509   -0.4876 O   0  0  0  0  0  0  0  0  0  0  0  0
   28.1481   19.6517   -1.9876 C   0  0  0  0  0  0  0  0  0  0  0  0
   28.8743   22.4929   -0.9255 H   0  0  0  0  0  0  0  0  0  0  0  0
   29.3324   20.5056    0.0133 H   0  0  0  0  0  0  0  0  0  0  0  0
   27.8303   18.2241   -2.1709 N   0  0  0  0  0  0  0  0  0  0  0  0
   28.3107   17.2747   -3.0078 C   0  0  0  0  0  0  0  0  0  0  0  0
   27.7248   16.0801   -2.8548 N   0  0  0  0  0  0  0  0  0  0  0  0
   26.7797   16.2474   -1.8385 C   0  0  0  0  0  0  0  0  0  0  0  0
   25.8304   15.4800   -1.1730 C   0  0  0  0  0  0  0  0  0  0  0  0
   25.6343   14.1689   -1.4730 N   0  0  0  0  0  0  0  0  0  0  0  0
   25.0454   16.0247   -0.1790 N   0  0  0  0  0  0  0  0  0  0  0  0
   25.2014   17.3247    0.1573 C   0  0  0  0  0  0  0  0  0  0  0  0
   26.0966   18.1364   -0.4385 N   0  0  0  0  0  0  0  0  0  0  0  0
   26.8615   17.5896   -1.4190 C   0  0  0  0  0  0  0  0  0  0  0  0
   26.1728   13.7389   -2.1762 H   0  0  0  0  0  0  0  0  0  0  0  0
   24.9539   13.6491   -0.9871 H   0  0  0  0  0  0  0  0  0  0  0  0
   28.6988   21.8007   -4.8114 C   0  0  0  0  0  0  0  0  0  0  0  0
   29.2098   23.4957   -5.1634 S   0  0  0  0  0  0  0  0  0  0  0  0
   28.7375   23.8555   -6.8852 C   0  0  0  0  0  0  0  0  0  0  0  0
   28.0948   24.5590   -4.1590 C   0  0  0  0  0  0  0  0  0  0  0  0
   26.9637   25.2591   -4.9683 C   0  0  0  0  0  0  0  0  0  0  0  0
   27.8388   27.2366   -3.7092 N   0  0  0  0  0  0  0  0  0  0  0  0
   26.9351   26.7992   -4.7800 C   0  0  0  0  0  0  0  0  0  0  0  0
   27.7911   28.2513   -3.6173 H   0  0  0  0  0  0  0  0  0  0  0  0
   28.7940   26.9603   -3.9365 H   0  0  0  0  0  0  0  0  0  0  0  0
   25.4725   27.2008   -4.5265 C   0  0  0  0  0  0  0  0  0  0  0  0
   24.5848   26.3753   -4.7608 O   0  0  0  0  0  0  0  0  0  0  0  0
   25.2612   28.3443   -4.1070 O   0  0  0  0  0  0  0  0  0  0  0  0
 27 28  1  0  0  0
 28 31  1  0  0  0
 28 26  1  0  0  0
 31 32  2  0  0  0
 31 33  1  0  0  0
 26 25  1  0  0  0
 25 23  1  0  0  0
 23 24  1  0  0  0
 23 22  1  0  0  0
 22  1  1  0  0  0
  1  2  1  0  0  0
  1  3  1  0  0  0
  2  7  1  0  0  0
  3  4  1  0  0  0
  3  5  1  0  0  0
  5  6  1  0  0  0
  5  7  1  0  0  0
  7 10  1  0  0  0
 10 11  1  0  0  0
 10 19  1  0  0  0
 11 12  2  0  0  0
 12 13  1  0  0  0
 13 14  1  0  0  0
 13 19  2  0  0  0
 14 15  1  0  0  0
 14 16  2  0  0  0
 16 17  1  0  0  0
 17 18  2  0  0  0
 18 19  1  0  0  0
 27 29  1  0  0  0
 27 30  1  0  0  0
  4  8  1  0  0  0
  6  9  1  0  0  0
 15 20  1  0  0  0
 15 21  1  0  0  0
M  CHG 1  23   1
M  CHG 1  33  -1
M  END
> <minimizedAffinity>
-7.06996

$$$$
