1NW5_SAM_A_401
  RCSB PDB12061703283D
Coordinates from PDB:1NW5:A:401 Model:1 without hydrogens
 27 29  0  0  0  0            999 V2000
   26.5530   16.9510    0.1820   N 0  0  0  0  0  0  0  0  0  0  0  0
   26.6910   16.9820   -1.2790   C 0  0  0  0  0  0  0  0  0  0  0  0
   26.7070   15.5780   -1.9060   C 0  0  0  0  0  0  0  0  0  0  0  0
   26.8530   15.4790   -3.1280   O 0  0  0  0  0  0  0  0  0  0  0  0
   26.5610   14.6140   -1.1460   O 0  5  0  0  0  0  0  0  0  0  0  0
   27.9940   17.6990   -1.7220   C 0  0  0  0  0  0  0  0  0  0  0  0
   27.9200   19.2490   -1.5940   C 0  0  0  0  0  0  0  0  0  0  0  0
   29.4590   20.1320   -2.0780   S 0  3  0  0  0  0  0  0  0  0  0  0
   30.5550   19.9410   -0.6360   C 0  0  0  0  0  0  0  0  0  0  0  0
   29.0000   21.8750   -2.1740   C 0  0  0  0  0  0  0  0  0  0  0  0
   28.1210   22.2410   -3.3800   C 0  0  0  0  0  0  0  0  0  0  0  0
   27.7670   23.6090   -3.3560   O 0  0  0  0  0  0  0  0  0  0  0  0
   28.7410   21.9740   -4.7670   C 0  0  0  0  0  0  0  0  0  0  0  0
   28.0630   20.9470   -5.4800   O 0  0  0  0  0  0  0  0  0  0  0  0
   28.8200   23.3610   -5.4010   C 0  0  0  0  0  0  0  0  0  0  0  0
   28.4440   23.3480   -6.7790   O 0  0  0  0  0  0  0  0  0  0  0  0
   27.7070   24.1130   -4.6670   C 0  0  0  0  0  0  0  0  0  0  0  0
   27.8700   25.5720   -4.5350   N 0  0  0  0  0  0  0  0  0  0  0  0
   28.9550   26.3660   -4.3770   C 0  0  0  0  0  0  0  0  0  0  0  0
   28.6560   27.6680   -4.2810   N 0  0  0  0  0  0  0  0  0  0  0  0
   27.2640   27.7470   -4.3810   C 0  0  0  0  0  0  0  0  0  0  0  0
   26.2800   28.7290   -4.3590   C 0  0  0  0  0  0  0  0  0  0  0  0
   26.5870   30.0440   -4.2040   N 0  0  0  0  0  0  0  0  0  0  0  0
   24.9470   28.4030   -4.4920   N 0  0  0  0  0  0  0  0  0  0  0  0
   24.5890   27.1090   -4.6490   C 0  0  0  0  0  0  0  0  0  0  0  0
   25.4790   26.0980   -4.6800   N 0  0  0  0  0  0  0  0  0  0  0  0
   26.7890   26.4310   -4.5440   C 0  0  0  0  0  0  0  0  0  0  0  0
  1  2  1  0  0  0  0
  2  3  1  0  0  0  0
  2  6  1  0  0  0  0
  3  4  2  0  0  0  0
  3  5  1  0  0  0  0
  6  7  1  0  0  0  0
  7  8  1  0  0  0  0
  8  9  1  0  0  0  0
  8 10  1  0  0  0  0
 10 11  1  0  0  0  0
 11 12  1  0  0  0  0
 11 13  1  0  0  0  0
 12 17  1  0  0  0  0
 13 14  1  0  0  0  0
 13 15  1  0  0  0  0
 15 16  1  0  0  0  0
 15 17  1  0  0  0  0
 17 18  1  0  0  0  0
 18 19  1  0  0  0  0
 18 27  1  0  0  0  0
 19 20  2  0  0  0  0
 20 21  1  0  0  0  0
 21 22  1  0  0  0  0
 21 27  2  0  0  0  0
 22 23  1  0  0  0  0
 22 24  2  0  0  0  0
 24 25  1  0  0  0  0
 25 26  2  0  0  0  0
 26 27  1  0  0  0  0
M  CHG  2   5  -1   8   1
A    1
N
A    2
CA
A    3
C
A    4
O
A    5
OXT
A    6
CB
A    7
CG
A    8
SD
A    9
CE
A   10
C5'
A   11
C4'
A   12
O4'
A   13
C3'
A   14
O3'
A   15
C2'
A   16
O2'
A   17
C1'
A   18
N9
A   19
C8
A   20
N7
A   21
C5
A   22
C6
A   23
N6
A   24
N1
A   25
C2
A   26
N3
A   27
C4
M  END
>  <InstanceId>
1NW5_SAM_A_401

>  <ChemCompId>
SAM

>  <PdbId>
1NW5

>  <ChainId>
A

>  <ResidueNumber>
401

>  <InsertionCode>


>  <Model>
1

>  <AltIds>


>  <MissingHeavyAtoms>
0

>  <ObservedFormula>
C15 N6 O5 S

>  <Name>
S-ADENOSYLMETHIONINE

>  <SystematicName>
(2S)-2-amino-4-[[(2S,3S,4R,5R)-5-(6-aminopurin-9-yl)-3,4-dihydroxy-oxolan-2-yl]methyl-methyl-sulfonio]butanoate

>  <Synonyms>


>  <Type>
NON-POLYMER

>  <Formula>
C15 H22 N6 O5 S

>  <MolecularWeight>
398.437

>  <ModifiedDate>
2011-06-04

>  <Parent>


>  <OneLetterCode>


>  <SubcomponentList>


>  <AmbiguousFlag>
N

>  <InChI>
InChI=1S/C15H22N6O5S/c1-27(3-2-7(16)15(24)25)4-8-10(22)11(23)14(26-8)21-6-20-9-12(17)18-5-19-13(9)21/h5-8,10-11,14,22-23H,2-4,16H2,1H3,(H2-,17,18,19,24,25)/t7-,8+,10+,11+,14+,27-/m0/s1

>  <InChIKey>
MEFKEPWMEQBLKI-FCKMPRQPSA-N

>  <SMILES>
C[S@@+](CC[C@@H](C(=O)[O-])N)C[C@@H]1[C@H]([C@H]([C@@H](O1)n2cnc3c2ncnc3N)O)O

$$$$
