4U0F_3A8_A_302
  RCSB PDB12061714523D
Coordinates from PDB:4U0F:A:302 Model:1 without hydrogens
 22 25  0  0  0  0            999 V2000
  -13.2910   84.1700    4.9020   C 0  0  0  0  0  0  0  0  0  0  0  0
  -12.0820   84.5410    4.3090   C 0  0  0  0  0  0  0  0  0  0  0  0
  -11.2820   83.5780    3.6980   C 0  0  0  0  0  0  0  0  0  0  0  0
  -10.1020   83.9290    3.1220   O 0  0  0  0  0  0  0  0  0  0  0  0
  -11.6880   82.2480    3.6800   C 0  0  0  0  0  0  0  0  0  0  0  0
  -12.8960   81.8740    4.2700   C 0  0  0  0  0  0  0  0  0  0  0  0
  -13.7180   82.8340    4.8740   C 0  0  0  0  0  0  0  0  0  0  0  0
  -14.9260   82.4700    5.5070   C 0  0  0  0  0  0  0  0  0  0  0  0
  -15.8270   81.6870    4.7540   C 0  0  0  0  0  0  0  0  0  0  0  0
  -14.5550   81.5800    6.6310   N 0  0  0  0  0  0  0  0  0  0  0  0
  -15.2060   80.4440    6.4430   C 0  0  0  0  0  0  0  0  0  0  0  0
  -15.1170   79.4590    7.1770   O 0  0  0  0  0  0  0  0  0  0  0  0
  -15.9720   80.5000    5.3580   C 0  0  0  0  0  0  0  0  0  0  0  0
  -16.8420   79.7910    4.6460   N 0  0  0  0  0  0  0  0  0  0  0  0
  -17.2310   80.4260    3.6990   N 0  0  0  0  0  0  0  0  0  0  0  0
  -16.6520   81.6300    3.6980   C 0  0  0  0  0  0  0  0  0  0  0  0
  -16.8700   82.5730    2.7530   C 0  0  0  0  0  0  0  0  0  0  0  0
  -16.6450   83.9330    2.9940   C 0  0  0  0  0  0  0  0  0  0  0  0
  -16.8710   84.8740    1.9900   C 0  0  0  0  0  0  0  0  0  0  0  0
  -17.3250   84.4820    0.7320   C 0  0  0  0  0  0  0  0  0  0  0  0
  -17.5520   83.1370    0.4760   C 0  0  0  0  0  0  0  0  0  0  0  0
  -17.3230   82.1980    1.4810   C 0  0  0  0  0  0  0  0  0  0  0  0
 21 20  2  0  0  0  0
 21 22  1  0  0  0  0
 20 19  1  0  0  0  0
 22 17  2  0  0  0  0
 19 18  2  0  0  0  0
 17 18  1  0  0  0  0
 17 16  1  0  0  0  0
  4  3  1  0  0  0  0
  5  3  2  0  0  0  0
  5  6  1  0  0  0  0
  3  2  1  0  0  0  0
 16 15  2  0  0  0  0
 16  9  1  0  0  0  0
 15 14  1  0  0  0  0
  6  7  2  0  0  0  0
  2  1  2  0  0  0  0
 14 13  1  0  0  0  0
  9 13  2  0  0  0  0
  9  8  1  0  0  0  0
  7  1  1  0  0  0  0
  7  8  1  0  0  0  0
 13 11  1  0  0  0  0
  8 10  1  0  0  0  0
 11 10  1  0  0  0  0
 11 12  2  0  0  0  0
A    1
CAJ
A    2
CAH
A    3
CAP
A    4
OAB
A    5
CAI
A    6
CAK
A    7
CAR
A    8
CAV
A    9
CAU
A   10
NAM
A   11
CAO
A   12
OAA
A   13
CAT
A   14
NAN
A   15
NAL
A   16
CAS
A   17
CAQ
A   18
CAF
A   19
CAD
A   20
CAC
A   21
CAE
A   22
CAG
M  END
>  <InstanceId>
4U0F_3A8_A_302

>  <ChemCompId>
3A8

>  <PdbId>
4U0F

>  <ChainId>
A

>  <ResidueNumber>
302

>  <InsertionCode>


>  <Model>
1

>  <AltIds>


>  <MissingHeavyAtoms>
0

>  <ObservedFormula>
C17 N3 O2

>  <Name>
(4S)-4-(4-hydroxyphenyl)-3-phenyl-4,5-dihydropyrrolo[3,4-c]pyrazol-6(1H)-one

>  <SystematicName>
(4S)-4-(4-hydroxyphenyl)-3-phenyl-4,5-dihydro-1H-pyrrolo[3,4-c]pyrazol-6-one

>  <Synonyms>


>  <Type>
NON-POLYMER

>  <Formula>
C17 H13 N3 O2

>  <MolecularWeight>
291.304

>  <ModifiedDate>
2014-11-07

>  <Parent>


>  <OneLetterCode>


>  <SubcomponentList>


>  <AmbiguousFlag>
N

>  <InChI>
InChI=1S/C17H13N3O2/c21-12-8-6-11(7-9-12)14-13-15(10-4-2-1-3-5-10)19-20-16(13)17(22)18-14/h1-9,14,21H,(H,18,22)(H,19,20)/t14-/m0/s1

>  <InChIKey>
RPZICXOAOIBXJT-AWEZNQCLSA-N

>  <SMILES>
c1ccc(cc1)c2c3c([nH]n2)C(=O)N[C@H]3c4ccc(cc4)O

$$$$
