4U0F_3A8_A_302


 25 28  0  0  0  0  0  0  0  0999 V2000
  -14.8313   82.8198    5.4733 C   0  0  0  0  0  0  0  0  0  0  0  0
  -15.7369   82.0034    4.7623 C   0  0  0  0  0  0  0  0  0  0  0  0
  -14.4686   81.9898    6.6449 N   0  0  0  0  0  0  0  0  0  0  0  0
  -15.1276   80.8500    6.5178 C   0  0  0  0  0  0  0  0  0  0  0  0
  -15.0469   79.9058    7.3046 O   0  0  0  0  0  0  0  0  0  0  0  0
  -15.8915   80.8522    5.4299 C   0  0  0  0  0  0  0  0  0  0  0  0
  -16.7655   80.1117    4.7559 N   0  0  0  0  0  0  0  0  0  0  0  0
  -17.1484   80.6969    3.7749 N   0  0  0  0  0  0  0  0  0  0  0  0
  -16.5606   81.8949    3.7094 C   0  0  0  0  0  0  0  0  0  0  0  0
  -13.8568   82.2378    7.3753 H   0  0  0  0  0  0  0  0  0  0  0  0
  -17.0592   79.2103    5.0214 H   0  0  0  0  0  0  0  0  0  0  0  0
  -13.1252   84.4518    4.8774 C   0  0  0  0  0  0  0  0  0  0  0  0
  -11.9114   84.7779    4.2680 C   0  0  0  0  0  0  0  0  0  0  0  0
  -11.1739   83.7931    3.6146 C   0  0  0  0  0  0  0  0  0  0  0  0
   -9.9897   84.1002    3.0224 O   0  0  0  0  0  0  0  0  0  0  0  0
  -11.6469   82.4860    3.5707 C   0  0  0  0  0  0  0  0  0  0  0  0
  -12.8599   82.1570    4.1770 C   0  0  0  0  0  0  0  0  0  0  0  0
  -13.6197   83.1401    4.8238 C   0  0  0  0  0  0  0  0  0  0  0  0
   -9.4981   83.4335    2.5844 H   0  0  0  0  0  0  0  0  0  0  0  0
  -16.7702   82.7865    2.7140 C   0  0  0  0  0  0  0  0  0  0  0  0
  -16.4883   84.1489    2.8646 C   0  0  0  0  0  0  0  0  0  0  0  0
  -16.7076   85.0352    1.8106 C   0  0  0  0  0  0  0  0  0  0  0  0
  -17.2113   84.5854    0.5915 C   0  0  0  0  0  0  0  0  0  0  0  0
  -17.4951   83.2372    0.4250 C   0  0  0  0  0  0  0  0  0  0  0  0
  -17.2727   82.3528    1.4798 C   0  0  0  0  0  0  0  0  0  0  0  0
 24 23  2  0  0  0
 24 25  1  0  0  0
 23 22  1  0  0  0
 25 20  2  0  0  0
 22 21  2  0  0  0
 20 21  1  0  0  0
 20  9  1  0  0  0
 15 14  1  0  0  0
 16 14  2  0  0  0
 16 17  1  0  0  0
 14 13  1  0  0  0
  9  8  2  0  0  0
  9  2  1  0  0  0
  8  7  1  0  0  0
 17 18  2  0  0  0
 13 12  2  0  0  0
  7  6  1  0  0  0
  2  6  2  0  0  0
  2  1  1  0  0  0
 18 12  1  0  0  0
 18  1  1  0  0  0
  6  4  1  0  0  0
  1  3  1  0  0  0
  4  3  1  0  0  0
  4  5  2  0  0  0
 15 19  1  0  0  0
  3 10  1  0  0  0
  7 11  1  0  0  0
M  END
> <minimizedAffinity>
-9.19825

$$$$
4U0F_3A8_A_302


 25 28  0  0  0  0  0  0  0  0999 V2000
  -13.9137   81.6618    3.6434 C   0  0  0  0  0  0  0  0  0  0  0  0
  -14.6074   82.8663    3.8878 C   0  0  0  0  0  0  0  0  0  0  0  0
  -12.8967   81.6276    4.7194 N   0  0  0  0  0  0  0  0  0  0  0  0
  -13.0805   82.7172    5.4465 C   0  0  0  0  0  0  0  0  0  0  0  0
  -12.4243   83.0069    6.4477 O   0  0  0  0  0  0  0  0  0  0  0  0
  -14.0663   83.4633    4.9581 C   0  0  0  0  0  0  0  0  0  0  0  0
  -14.7182   84.6050    5.1533 N   0  0  0  0  0  0  0  0  0  0  0  0
  -15.5736   84.7520    4.3178 N   0  0  0  0  0  0  0  0  0  0  0  0
  -15.5648   83.7121    3.4791 C   0  0  0  0  0  0  0  0  0  0  0  0
  -12.2169   80.9305    4.8650 H   0  0  0  0  0  0  0  0  0  0  0  0
  -14.5285   85.2419    5.8796 H   0  0  0  0  0  0  0  0  0  0  0  0
  -15.5117   80.2816    4.8561 C   0  0  0  0  0  0  0  0  0  0  0  0
  -16.2772   79.1189    4.9699 C   0  0  0  0  0  0  0  0  0  0  0  0
  -16.2060   78.1391    3.9822 C   0  0  0  0  0  0  0  0  0  0  0  0
  -16.9503   77.0063    4.0824 O   0  0  0  0  0  0  0  0  0  0  0  0
  -15.3731   78.3205    2.8834 C   0  0  0  0  0  0  0  0  0  0  0  0
  -14.6056   79.4801    2.7672 C   0  0  0  0  0  0  0  0  0  0  0  0
  -14.6552   80.4664    3.7606 C   0  0  0  0  0  0  0  0  0  0  0  0
  -16.8982   76.3508    3.4148 H   0  0  0  0  0  0  0  0  0  0  0  0
  -16.4183   83.5724    2.4390 C   0  0  0  0  0  0  0  0  0  0  0  0
  -17.0484   82.3562    2.1526 C   0  0  0  0  0  0  0  0  0  0  0  0
  -17.9309   82.2551    1.0776 C   0  0  0  0  0  0  0  0  0  0  0  0
  -18.2014   83.3573    0.2687 C   0  0  0  0  0  0  0  0  0  0  0  0
  -17.5858   84.5713    0.5398 C   0  0  0  0  0  0  0  0  0  0  0  0
  -16.7056   84.6701    1.6167 C   0  0  0  0  0  0  0  0  0  0  0  0
 24 23  2  0  0  0
 24 25  1  0  0  0
 23 22  1  0  0  0
 25 20  2  0  0  0
 22 21  2  0  0  0
 20 21  1  0  0  0
 20  9  1  0  0  0
 15 14  1  0  0  0
 16 14  2  0  0  0
 16 17  1  0  0  0
 14 13  1  0  0  0
  9  8  2  0  0  0
  9  2  1  0  0  0
  8  7  1  0  0  0
 17 18  2  0  0  0
 13 12  2  0  0  0
  7  6  1  0  0  0
  2  6  2  0  0  0
  2  1  1  0  0  0
 18 12  1  0  0  0
 18  1  1  0  0  0
  6  4  1  0  0  0
  1  3  1  0  0  0
  4  3  1  0  0  0
  4  5  2  0  0  0
 15 19  1  0  0  0
  3 10  1  0  0  0
  7 11  1  0  0  0
M  END
> <minimizedAffinity>
-7.63823

$$$$
4U0F_3A8_A_302


 25 28  0  0  0  0  0  0  0  0999 V2000
  -12.1896   83.8974    4.2762 C   0  0  0  0  0  0  0  0  0  0  0  0
  -13.3815   83.6317    4.9838 C   0  0  0  0  0  0  0  0  0  0  0  0
  -11.2064   84.1679    5.3502 N   0  0  0  0  0  0  0  0  0  0  0  0
  -11.8531   84.0325    6.4961 C   0  0  0  0  0  0  0  0  0  0  0  0
  -11.3381   84.1614    7.6074 O   0  0  0  0  0  0  0  0  0  0  0  0
  -13.1341   83.7391    6.2961 C   0  0  0  0  0  0  0  0  0  0  0  0
  -14.2743   83.5097    6.9395 N   0  0  0  0  0  0  0  0  0  0  0  0
  -15.1640   83.2882    6.1581 N   0  0  0  0  0  0  0  0  0  0  0  0
  -14.6919   83.3556    4.9101 C   0  0  0  0  0  0  0  0  0  0  0  0
  -10.2573   84.4025    5.2340 H   0  0  0  0  0  0  0  0  0  0  0  0
  -14.3774   83.5195    7.9186 H   0  0  0  0  0  0  0  0  0  0  0  0
  -10.4563   83.0225    2.8067 C   0  0  0  0  0  0  0  0  0  0  0  0
   -9.8989   81.9756    2.0689 C   0  0  0  0  0  0  0  0  0  0  0  0
  -10.5277   80.7328    2.0397 C   0  0  0  0  0  0  0  0  0  0  0  0
   -9.9906   79.7070    1.3279 O   0  0  0  0  0  0  0  0  0  0  0  0
  -11.7094   80.5359    2.7460 C   0  0  0  0  0  0  0  0  0  0  0  0
  -12.2699   81.5801    3.4828 C   0  0  0  0  0  0  0  0  0  0  0  0
  -11.6572   82.8394    3.5084 C   0  0  0  0  0  0  0  0  0  0  0  0
  -10.4181   78.8734    1.3120 H   0  0  0  0  0  0  0  0  0  0  0  0
  -15.4419   83.1391    3.8053 C   0  0  0  0  0  0  0  0  0  0  0  0
  -15.7751   81.8503    3.3738 C   0  0  0  0  0  0  0  0  0  0  0  0
  -16.5600   81.6685    2.2356 C   0  0  0  0  0  0  0  0  0  0  0  0
  -17.0256   82.7612    1.5065 C   0  0  0  0  0  0  0  0  0  0  0  0
  -16.7053   84.0462    1.9215 C   0  0  0  0  0  0  0  0  0  0  0  0
  -15.9222   84.2251    3.0612 C   0  0  0  0  0  0  0  0  0  0  0  0
 24 23  2  0  0  0
 24 25  1  0  0  0
 23 22  1  0  0  0
 25 20  2  0  0  0
 22 21  2  0  0  0
 20 21  1  0  0  0
 20  9  1  0  0  0
 15 14  1  0  0  0
 16 14  2  0  0  0
 16 17  1  0  0  0
 14 13  1  0  0  0
  9  8  2  0  0  0
  9  2  1  0  0  0
  8  7  1  0  0  0
 17 18  2  0  0  0
 13 12  2  0  0  0
  7  6  1  0  0  0
  2  6  2  0  0  0
  2  1  1  0  0  0
 18 12  1  0  0  0
 18  1  1  0  0  0
  6  4  1  0  0  0
  1  3  1  0  0  0
  4  3  1  0  0  0
  4  5  2  0  0  0
 15 19  1  0  0  0
  3 10  1  0  0  0
  7 11  1  0  0  0
M  END
> <minimizedAffinity>
-7.56471

$$$$
4U0F_3A8_A_302


 25 28  0  0  0  0  0  0  0  0999 V2000
  -15.6076   80.6982    3.2237 C   0  0  0  0  0  0  0  0  0  0  0  0
  -15.0390   80.9755    4.4853 C   0  0  0  0  0  0  0  0  0  0  0  0
  -16.6854   79.7325    3.5383 N   0  0  0  0  0  0  0  0  0  0  0  0
  -16.6635   79.5570    4.8492 C   0  0  0  0  0  0  0  0  0  0  0  0
  -17.4431   78.8328    5.4694 O   0  0  0  0  0  0  0  0  0  0  0  0
  -15.6897   80.2632    5.4149 C   0  0  0  0  0  0  0  0  0  0  0  0
  -15.1217   80.5212    6.5885 N   0  0  0  0  0  0  0  0  0  0  0  0
  -14.2084   81.2955    6.4556 N   0  0  0  0  0  0  0  0  0  0  0  0
  -14.0818   81.6226    5.1665 C   0  0  0  0  0  0  0  0  0  0  0  0
  -17.2982   79.3049    2.8973 H   0  0  0  0  0  0  0  0  0  0  0  0
  -15.4077   80.1334    7.4471 H   0  0  0  0  0  0  0  0  0  0  0  0
  -16.0670   83.0825    3.0417 C   0  0  0  0  0  0  0  0  0  0  0  0
  -16.6434   84.1644    2.3721 C   0  0  0  0  0  0  0  0  0  0  0  0
  -17.3675   83.9524    1.2010 C   0  0  0  0  0  0  0  0  0  0  0  0
  -17.9285   84.9995    0.5404 O   0  0  0  0  0  0  0  0  0  0  0  0
  -17.5148   82.6637    0.6996 C   0  0  0  0  0  0  0  0  0  0  0  0
  -16.9417   81.5803    1.3668 C   0  0  0  0  0  0  0  0  0  0  0  0
  -16.2245   81.7767    2.5538 C   0  0  0  0  0  0  0  0  0  0  0  0
  -18.4144   84.8507   -0.2468 H   0  0  0  0  0  0  0  0  0  0  0  0
  -13.1554   82.4874    4.6934 C   0  0  0  0  0  0  0  0  0  0  0  0
  -13.2172   83.8604    4.9564 C   0  0  0  0  0  0  0  0  0  0  0  0
  -12.2365   84.7184    4.4599 C   0  0  0  0  0  0  0  0  0  0  0  0
  -11.1800   84.2292    3.6938 C   0  0  0  0  0  0  0  0  0  0  0  0
  -11.1031   82.8699    3.4247 C   0  0  0  0  0  0  0  0  0  0  0  0
  -12.0839   82.0140    3.9243 C   0  0  0  0  0  0  0  0  0  0  0  0
 24 23  2  0  0  0
 24 25  1  0  0  0
 23 22  1  0  0  0
 25 20  2  0  0  0
 22 21  2  0  0  0
 20 21  1  0  0  0
 20  9  1  0  0  0
 15 14  1  0  0  0
 16 14  2  0  0  0
 16 17  1  0  0  0
 14 13  1  0  0  0
  9  8  2  0  0  0
  9  2  1  0  0  0
  8  7  1  0  0  0
 17 18  2  0  0  0
 13 12  2  0  0  0
  7  6  1  0  0  0
  2  6  2  0  0  0
  2  1  1  0  0  0
 18 12  1  0  0  0
 18  1  1  0  0  0
  6  4  1  0  0  0
  1  3  1  0  0  0
  4  3  1  0  0  0
  4  5  2  0  0  0
 15 19  1  0  0  0
  3 10  1  0  0  0
  7 11  1  0  0  0
M  END
> <minimizedAffinity>
-7.40951

$$$$
4U0F_3A8_A_302


 25 28  0  0  0  0  0  0  0  0999 V2000
  -15.8507   82.1479    4.7971 C   0  0  0  0  0  0  0  0  0  0  0  0
  -14.7516   81.2627    4.7796 C   0  0  0  0  0  0  0  0  0  0  0  0
  -15.3855   83.2548    5.6640 N   0  0  0  0  0  0  0  0  0  0  0  0
  -14.1522   82.9514    6.0335 C   0  0  0  0  0  0  0  0  0  0  0  0
  -13.4416   83.6634    6.7441 O   0  0  0  0  0  0  0  0  0  0  0  0
  -13.7752   81.7762    5.5397 C   0  0  0  0  0  0  0  0  0  0  0  0
  -12.7627   80.9153    5.5281 N   0  0  0  0  0  0  0  0  0  0  0  0
  -13.0335   79.9524    4.8566 N   0  0  0  0  0  0  0  0  0  0  0  0
  -14.2663   80.0852    4.3590 C   0  0  0  0  0  0  0  0  0  0  0  0
  -15.8945   84.0590    5.9159 H   0  0  0  0  0  0  0  0  0  0  0  0
  -11.9099   81.0462    6.0024 H   0  0  0  0  0  0  0  0  0  0  0  0
  -16.8742   81.9662    2.5952 C   0  0  0  0  0  0  0  0  0  0  0  0
  -17.2698   82.5399    1.3846 C   0  0  0  0  0  0  0  0  0  0  0  0
  -17.0238   83.8892    1.1405 C   0  0  0  0  0  0  0  0  0  0  0  0
  -17.4087   84.4571   -0.0328 O   0  0  0  0  0  0  0  0  0  0  0  0
  -16.3853   84.6636    2.1031 C   0  0  0  0  0  0  0  0  0  0  0  0
  -15.9872   84.0934    3.3130 C   0  0  0  0  0  0  0  0  0  0  0  0
  -16.2139   82.7344    3.5656 C   0  0  0  0  0  0  0  0  0  0  0  0
  -17.2405   85.3651   -0.1912 H   0  0  0  0  0  0  0  0  0  0  0  0
  -14.8568   79.1763    3.5497 C   0  0  0  0  0  0  0  0  0  0  0  0
  -15.7856   78.2460    4.0295 C   0  0  0  0  0  0  0  0  0  0  0  0
  -16.3814   77.3319    3.1611 C   0  0  0  0  0  0  0  0  0  0  0  0
  -16.0648   77.3246    1.8038 C   0  0  0  0  0  0  0  0  0  0  0  0
  -15.1466   78.2414    1.3114 C   0  0  0  0  0  0  0  0  0  0  0  0
  -14.5541   79.1557    2.1815 C   0  0  0  0  0  0  0  0  0  0  0  0
 24 23  2  0  0  0
 24 25  1  0  0  0
 23 22  1  0  0  0
 25 20  2  0  0  0
 22 21  2  0  0  0
 20 21  1  0  0  0
 20  9  1  0  0  0
 15 14  1  0  0  0
 16 14  2  0  0  0
 16 17  1  0  0  0
 14 13  1  0  0  0
  9  8  2  0  0  0
  9  2  1  0  0  0
  8  7  1  0  0  0
 17 18  2  0  0  0
 13 12  2  0  0  0
  7  6  1  0  0  0
  2  6  2  0  0  0
  2  1  1  0  0  0
 18 12  1  0  0  0
 18  1  1  0  0  0
  6  4  1  0  0  0
  1  3  1  0  0  0
  4  3  1  0  0  0
  4  5  2  0  0  0
 15 19  1  0  0  0
  3 10  1  0  0  0
  7 11  1  0  0  0
M  END
> <minimizedAffinity>
-7.06247

$$$$
4U0F_3A8_A_302


 25 28  0  0  0  0  0  0  0  0999 V2000
  -13.3122   81.9973    3.7357 C   0  0  0  0  0  0  0  0  0  0  0  0
  -14.1479   83.0609    4.1385 C   0  0  0  0  0  0  0  0  0  0  0  0
  -12.2577   81.9772    4.7753 N   0  0  0  0  0  0  0  0  0  0  0  0
  -12.5541   82.9410    5.6315 C   0  0  0  0  0  0  0  0  0  0  0  0
  -11.9024   83.1995    6.6441 O   0  0  0  0  0  0  0  0  0  0  0  0
  -13.6478   83.5984    5.2592 C   0  0  0  0  0  0  0  0  0  0  0  0
  -14.4358   84.6114    5.6048 N   0  0  0  0  0  0  0  0  0  0  0  0
  -15.3355   84.7367    4.8134 N   0  0  0  0  0  0  0  0  0  0  0  0
  -15.2235   83.8110    3.8567 C   0  0  0  0  0  0  0  0  0  0  0  0
  -11.4871   81.3662    4.8204 H   0  0  0  0  0  0  0  0  0  0  0  0
  -14.3028   85.1802    6.3972 H   0  0  0  0  0  0  0  0  0  0  0  0
  -13.5059   79.7824    2.7427 C   0  0  0  0  0  0  0  0  0  0  0  0
  -14.0386   78.4912    2.7395 C   0  0  0  0  0  0  0  0  0  0  0  0
  -14.9414   78.1083    3.7290 C   0  0  0  0  0  0  0  0  0  0  0  0
  -15.4618   76.8527    3.7363 O   0  0  0  0  0  0  0  0  0  0  0  0
  -15.3106   79.0122    4.7193 C   0  0  0  0  0  0  0  0  0  0  0  0
  -14.7816   80.3035    4.7246 C   0  0  0  0  0  0  0  0  0  0  0  0
  -13.8851   80.7073    3.7270 C   0  0  0  0  0  0  0  0  0  0  0  0
  -16.0686   76.6010    4.4044 H   0  0  0  0  0  0  0  0  0  0  0  0
  -16.0917   83.6779    2.8280 C   0  0  0  0  0  0  0  0  0  0  0  0
  -16.4161   84.7474    1.9858 C   0  0  0  0  0  0  0  0  0  0  0  0
  -17.3076   84.5673    0.9287 C   0  0  0  0  0  0  0  0  0  0  0  0
  -17.8926   83.3250    0.6907 C   0  0  0  0  0  0  0  0  0  0  0  0
  -17.5807   82.2535    1.5158 C   0  0  0  0  0  0  0  0  0  0  0  0
  -16.6873   82.4358    2.5707 C   0  0  0  0  0  0  0  0  0  0  0  0
 24 23  2  0  0  0
 24 25  1  0  0  0
 23 22  1  0  0  0
 25 20  2  0  0  0
 22 21  2  0  0  0
 20 21  1  0  0  0
 20  9  1  0  0  0
 15 14  1  0  0  0
 16 14  2  0  0  0
 16 17  1  0  0  0
 14 13  1  0  0  0
  9  8  2  0  0  0
  9  2  1  0  0  0
  8  7  1  0  0  0
 17 18  2  0  0  0
 13 12  2  0  0  0
  7  6  1  0  0  0
  2  6  2  0  0  0
  2  1  1  0  0  0
 18 12  1  0  0  0
 18  1  1  0  0  0
  6  4  1  0  0  0
  1  3  1  0  0  0
  4  3  1  0  0  0
  4  5  2  0  0  0
 15 19  1  0  0  0
  3 10  1  0  0  0
  7 11  1  0  0  0
M  END
> <minimizedAffinity>
-6.98412

$$$$
4U0F_3A8_A_302


 25 28  0  0  0  0  0  0  0  0999 V2000
  -15.3113   83.0788    5.1178 C   0  0  0  0  0  0  0  0  0  0  0  0
  -14.3123   82.0931    5.2670 C   0  0  0  0  0  0  0  0  0  0  0  0
  -14.5769   84.3466    5.3336 N   0  0  0  0  0  0  0  0  0  0  0  0
  -13.3150   84.0181    5.5561 C   0  0  0  0  0  0  0  0  0  0  0  0
  -12.4076   84.8272    5.7529 O   0  0  0  0  0  0  0  0  0  0  0  0
  -13.1493   82.6992    5.5411 C   0  0  0  0  0  0  0  0  0  0  0  0
  -12.2311   81.7518    5.7016 N   0  0  0  0  0  0  0  0  0  0  0  0
  -12.7206   80.6599    5.5618 N   0  0  0  0  0  0  0  0  0  0  0  0
  -14.0243   80.7835    5.2974 C   0  0  0  0  0  0  0  0  0  0  0  0
  -14.9540   85.2558    5.3150 H   0  0  0  0  0  0  0  0  0  0  0  0
  -11.2827   81.9191    5.9062 H   0  0  0  0  0  0  0  0  0  0  0  0
  -16.5694   82.0714    3.2926 C   0  0  0  0  0  0  0  0  0  0  0  0
  -17.2019   82.1668    2.0509 C   0  0  0  0  0  0  0  0  0  0  0  0
  -17.2020   83.3769    1.3608 C   0  0  0  0  0  0  0  0  0  0  0  0
  -17.8184   83.4802    0.1539 O   0  0  0  0  0  0  0  0  0  0  0  0
  -16.5727   84.4890    1.9097 C   0  0  0  0  0  0  0  0  0  0  0  0
  -15.9384   84.3970    3.1493 C   0  0  0  0  0  0  0  0  0  0  0  0
  -15.9168   83.1826    3.8470 C   0  0  0  0  0  0  0  0  0  0  0  0
  -17.8151   84.2968   -0.3055 H   0  0  0  0  0  0  0  0  0  0  0  0
  -14.8527   79.7379    5.0731 C   0  0  0  0  0  0  0  0  0  0  0  0
  -14.6819   78.8740    3.9855 C   0  0  0  0  0  0  0  0  0  0  0  0
  -15.5507   77.8001    3.7945 C   0  0  0  0  0  0  0  0  0  0  0  0
  -16.6033   77.5665    4.6776 C   0  0  0  0  0  0  0  0  0  0  0  0
  -16.7861   78.4131    5.7621 C   0  0  0  0  0  0  0  0  0  0  0  0
  -15.9145   79.4847    5.9519 C   0  0  0  0  0  0  0  0  0  0  0  0
 24 23  2  0  0  0
 24 25  1  0  0  0
 23 22  1  0  0  0
 25 20  2  0  0  0
 22 21  2  0  0  0
 20 21  1  0  0  0
 20  9  1  0  0  0
 15 14  1  0  0  0
 16 14  2  0  0  0
 16 17  1  0  0  0
 14 13  1  0  0  0
  9  8  2  0  0  0
  9  2  1  0  0  0
  8  7  1  0  0  0
 17 18  2  0  0  0
 13 12  2  0  0  0
  7  6  1  0  0  0
  2  6  2  0  0  0
  2  1  1  0  0  0
 18 12  1  0  0  0
 18  1  1  0  0  0
  6  4  1  0  0  0
  1  3  1  0  0  0
  4  3  1  0  0  0
  4  5  2  0  0  0
 15 19  1  0  0  0
  3 10  1  0  0  0
  7 11  1  0  0  0
M  END
> <minimizedAffinity>
-6.87654

$$$$
4U0F_3A8_A_302


 25 28  0  0  0  0  0  0  0  0999 V2000
  -14.6240   82.5501    6.0099 C   0  0  0  0  0  0  0  0  0  0  0  0
  -13.7308   83.4856    5.4450 C   0  0  0  0  0  0  0  0  0  0  0  0
  -15.8555   82.7234    5.2059 N   0  0  0  0  0  0  0  0  0  0  0  0
  -15.5904   83.6566    4.3067 C   0  0  0  0  0  0  0  0  0  0  0  0
  -16.3835   84.0427    3.4471 O   0  0  0  0  0  0  0  0  0  0  0  0
  -14.3554   84.1274    4.4487 C   0  0  0  0  0  0  0  0  0  0  0  0
  -13.5048   85.0184    3.9497 N   0  0  0  0  0  0  0  0  0  0  0  0
  -12.4563   84.9804    4.5419 N   0  0  0  0  0  0  0  0  0  0  0  0
  -12.5170   84.0535    5.5022 C   0  0  0  0  0  0  0  0  0  0  0  0
  -16.7051   82.2389    5.3186 H   0  0  0  0  0  0  0  0  0  0  0  0
  -13.7037   85.6251    3.2003 H   0  0  0  0  0  0  0  0  0  0  0  0
  -14.8664   80.2433    6.7507 C   0  0  0  0  0  0  0  0  0  0  0  0
  -14.5508   78.8874    6.6360 C   0  0  0  0  0  0  0  0  0  0  0  0
  -13.6489   78.4626    5.6630 C   0  0  0  0  0  0  0  0  0  0  0  0
  -13.3389   77.1449    5.5412 O   0  0  0  0  0  0  0  0  0  0  0  0
  -13.0644   79.3892    4.8064 C   0  0  0  0  0  0  0  0  0  0  0  0
  -13.3760   80.7447    4.9192 C   0  0  0  0  0  0  0  0  0  0  0  0
  -14.2690   81.1881    5.9031 C   0  0  0  0  0  0  0  0  0  0  0  0
  -12.7315   76.8652    4.8848 H   0  0  0  0  0  0  0  0  0  0  0  0
  -11.4917   83.7577    6.3334 C   0  0  0  0  0  0  0  0  0  0  0  0
  -10.6111   82.6999    6.0806 C   0  0  0  0  0  0  0  0  0  0  0  0
   -9.5590   82.4335    6.9561 C   0  0  0  0  0  0  0  0  0  0  0  0
   -9.3639   83.2104    8.0966 C   0  0  0  0  0  0  0  0  0  0  0  0
  -10.2274   84.2641    8.3615 C   0  0  0  0  0  0  0  0  0  0  0  0
  -11.2773   84.5297    7.4831 C   0  0  0  0  0  0  0  0  0  0  0  0
 24 23  2  0  0  0
 24 25  1  0  0  0
 23 22  1  0  0  0
 25 20  2  0  0  0
 22 21  2  0  0  0
 20 21  1  0  0  0
 20  9  1  0  0  0
 15 14  1  0  0  0
 16 14  2  0  0  0
 16 17  1  0  0  0
 14 13  1  0  0  0
  9  8  2  0  0  0
  9  2  1  0  0  0
  8  7  1  0  0  0
 17 18  2  0  0  0
 13 12  2  0  0  0
  7  6  1  0  0  0
  2  6  2  0  0  0
  2  1  1  0  0  0
 18 12  1  0  0  0
 18  1  1  0  0  0
  6  4  1  0  0  0
  1  3  1  0  0  0
  4  3  1  0  0  0
  4  5  2  0  0  0
 15 19  1  0  0  0
  3 10  1  0  0  0
  7 11  1  0  0  0
M  END
> <minimizedAffinity>
-6.73250

$$$$
4U0F_3A8_A_302


 25 28  0  0  0  0  0  0  0  0999 V2000
  -14.3259   80.2809    3.2716 C   0  0  0  0  0  0  0  0  0  0  0  0
  -15.0748   81.3192    3.8657 C   0  0  0  0  0  0  0  0  0  0  0  0
  -13.5690   79.7099    4.4092 N   0  0  0  0  0  0  0  0  0  0  0  0
  -13.9245   80.3978    5.4817 C   0  0  0  0  0  0  0  0  0  0  0  0
  -13.5082   80.1799    6.6201 O   0  0  0  0  0  0  0  0  0  0  0  0
  -14.7906   81.3582    5.1744 C   0  0  0  0  0  0  0  0  0  0  0  0
  -15.4870   82.3574    5.7066 N   0  0  0  0  0  0  0  0  0  0  0  0
  -16.1407   82.9147    4.8619 N   0  0  0  0  0  0  0  0  0  0  0  0
  -15.9323   82.3332    3.6774 C   0  0  0  0  0  0  0  0  0  0  0  0
  -12.9271   78.9643    4.3742 H   0  0  0  0  0  0  0  0  0  0  0  0
  -15.4710   82.6072    6.6587 H   0  0  0  0  0  0  0  0  0  0  0  0
  -15.6951   78.2855    3.5417 C   0  0  0  0  0  0  0  0  0  0  0  0
  -16.4493   77.2429    2.9983 C   0  0  0  0  0  0  0  0  0  0  0  0
  -16.5855   77.1291    1.6166 C   0  0  0  0  0  0  0  0  0  0  0  0
  -17.3209   76.1203    1.0789 O   0  0  0  0  0  0  0  0  0  0  0  0
  -15.9708   78.0543    0.7799 C   0  0  0  0  0  0  0  0  0  0  0  0
  -15.2152   79.0962    1.3192 C   0  0  0  0  0  0  0  0  0  0  0  0
  -15.0566   79.2138    2.7059 C   0  0  0  0  0  0  0  0  0  0  0  0
  -17.4088   76.0489    0.1488 H   0  0  0  0  0  0  0  0  0  0  0  0
  -16.5348   82.7189    2.5293 C   0  0  0  0  0  0  0  0  0  0  0  0
  -17.2593   81.8248    1.7331 C   0  0  0  0  0  0  0  0  0  0  0  0
  -17.8758   82.2635    0.5618 C   0  0  0  0  0  0  0  0  0  0  0  0
  -17.7826   83.5949    0.1605 C   0  0  0  0  0  0  0  0  0  0  0  0
  -17.0688   84.4950    0.9392 C   0  0  0  0  0  0  0  0  0  0  0  0
  -16.4553   84.0541    2.1112 C   0  0  0  0  0  0  0  0  0  0  0  0
 24 23  2  0  0  0
 24 25  1  0  0  0
 23 22  1  0  0  0
 25 20  2  0  0  0
 22 21  2  0  0  0
 20 21  1  0  0  0
 20  9  1  0  0  0
 15 14  1  0  0  0
 16 14  2  0  0  0
 16 17  1  0  0  0
 14 13  1  0  0  0
  9  8  2  0  0  0
  9  2  1  0  0  0
  8  7  1  0  0  0
 17 18  2  0  0  0
 13 12  2  0  0  0
  7  6  1  0  0  0
  2  6  2  0  0  0
  2  1  1  0  0  0
 18 12  1  0  0  0
 18  1  1  0  0  0
  6  4  1  0  0  0
  1  3  1  0  0  0
  4  3  1  0  0  0
  4  5  2  0  0  0
 15 19  1  0  0  0
  3 10  1  0  0  0
  7 11  1  0  0  0
M  END
> <minimizedAffinity>
-6.40286

$$$$
