1O1S_1NH_B_2001


 38 39  0  0  0  0  0  0  0  0999 V2000
  185.8392  126.7314   32.7921 C   0  0  0  0  0  0  0  0  0  0  0  0
  186.7006  127.6408   33.3039 C   0  0  0  0  0  0  0  0  0  0  0  0
  186.2060  128.9420   33.8774 C   0  0  0  0  0  0  0  0  0  0  0  0
  184.3253  126.9479   32.7622 C   0  0  0  0  0  0  0  0  0  0  0  0
  183.7777  126.4914   31.3838 C   0  0  0  0  0  0  0  0  0  0  0  0
  183.6393  129.0036   30.6520 C   0  0  0  0  0  0  0  0  0  0  0  0
  183.9242  127.5524   30.2641 C   0  0  0  0  0  0  0  0  0  0  0  0
  184.2799  127.2477   28.9898 C   0  0  0  0  0  0  0  0  0  0  0  0
  184.4137  128.2995   27.8945 C   0  0  0  0  0  0  0  0  0  0  0  0
  183.2711  128.2717   26.9789 O   0  0  0  0  0  0  0  0  0  0  0  0
  183.5362  128.1798   25.4302 P   0  0  0  0  0  0  0  0  0  0  0  0
  184.2718  129.4849   25.0630 O   0  0  0  0  0  0  0  0  0  0  0  0
  182.2946  127.9892   24.6119 O   0  0  0  0  0  0  0  0  0  0  0  0
  181.6762  128.7153   24.7887 H   0  0  0  0  0  0  0  0  0  0  0  0
  184.5846  127.0509   25.2031 O   0  0  0  0  0  0  0  0  0  0  0  0
  185.8426  126.9240   24.2886 P   0  0  0  0  0  0  0  0  0  0  0  0
  186.4657  125.5642   24.7004 O   0  0  0  0  0  0  0  0  0  0  0  0
  185.2824  126.8121   22.8538 O   0  0  0  0  0  0  0  0  0  0  0  0
  186.7874  128.0634   24.4555 O   0  0  0  0  0  0  0  0  0  0  0  0
  184.6757  126.0572   22.8015 H   0  0  0  0  0  0  0  0  0  0  0  0
  187.1073  128.0867   25.3709 H   0  0  0  0  0  0  0  0  0  0  0  0
  188.1967  127.3851   33.3170 C   0  0  0  0  0  0  0  0  0  0  0  0
  188.5052  126.2169   34.0912 O   0  0  0  0  0  0  0  0  0  0  0  0
  189.2965  125.2507   33.3562 C   0  0  0  0  0  0  0  0  0  0  0  0
  188.5656  123.9260   33.2902 C   0  0  0  0  0  0  0  0  0  0  0  0
  189.2248  122.7090   33.5324 C   0  0  0  0  0  0  0  0  0  0  0  0
  188.4932  121.5120   33.4520 C   0  0  0  0  0  0  0  0  0  0  0  0
  187.1111  121.5313   33.1341 C   0  0  0  0  0  0  0  0  0  0  0  0
  186.4561  122.7558   32.8961 C   0  0  0  0  0  0  0  0  0  0  0  0
  187.2015  123.9332   32.9844 C   0  0  0  0  0  0  0  0  0  0  0  0
  185.0098  122.9128   32.5630 C   0  0  0  0  0  0  0  0  0  0  0  0
  184.2624  123.4990   33.3523 O   0  0  0  0  0  0  0  0  0  0  0  0
  184.4634  122.3868   31.2953 C   0  0  0  0  0  0  0  0  0  0  0  0
  184.3914  123.1519   30.1209 C   0  0  0  0  0  0  0  0  0  0  0  0
  183.7382  122.6432   28.9885 C   0  0  0  0  0  0  0  0  0  0  0  0
  183.1681  121.3636   29.0162 C   0  0  0  0  0  0  0  0  0  0  0  0
  183.2915  120.5686   30.1636 C   0  0  0  0  0  0  0  0  0  0  0  0
  183.9434  121.0776   31.2946 C   0  0  0  0  0  0  0  0  0  0  0  0
  6  7  1  0  0  0
  7  5  1  0  0  0
  7  8  2  0  0  0
  5  4  1  0  0  0
  4  1  1  0  0  0
  1  2  2  0  0  0
  2  3  1  0  0  0
  2 22  1  0  0  0
 22 23  1  0  0  0
 23 24  1  0  0  0
 24 25  1  0  0  0
 25 26  2  0  0  0
 25 30  1  0  0  0
 26 27  1  0  0  0
 27 28  2  0  0  0
 28 29  1  0  0  0
 29 30  2  0  0  0
 29 31  1  0  0  0
 31 32  2  0  0  0
 31 33  1  0  0  0
 33 34  2  0  0  0
 33 38  1  0  0  0
 34 35  1  0  0  0
 35 36  2  0  0  0
 36 37  1  0  0  0
 37 38  2  0  0  0
  8  9  1  0  0  0
  9 10  1  0  0  0
 10 11  1  0  0  0
 11 12  2  0  0  0
 11 13  1  0  0  0
 11 15  1  0  0  0
 15 16  1  0  0  0
 16 17  2  0  0  0
 16 18  1  0  0  0
 16 19  1  0  0  0
 13 14  1  0  0  0
 18 20  1  0  0  0
 19 21  1  0  0  0
M  END
> <minimizedAffinity>
-9.30319

$$$$
1O1S_1NH_B_2001


 38 39  0  0  0  0  0  0  0  0999 V2000
  189.0196  127.5647   30.5189 C   0  0  0  0  0  0  0  0  0  0  0  0
  188.4195  126.3902   30.2167 C   0  0  0  0  0  0  0  0  0  0  0  0
  187.0070  126.3510   29.6971 C   0  0  0  0  0  0  0  0  0  0  0  0
  188.3253  128.9176   30.3542 C   0  0  0  0  0  0  0  0  0  0  0  0
  188.8555  129.6032   29.0669 C   0  0  0  0  0  0  0  0  0  0  0  0
  188.3897  129.8697   26.5022 C   0  0  0  0  0  0  0  0  0  0  0  0
  187.8290  129.6467   27.9070 C   0  0  0  0  0  0  0  0  0  0  0  0
  186.4912  129.5039   28.0892 C   0  0  0  0  0  0  0  0  0  0  0  0
  185.4900  129.5559   26.9409 C   0  0  0  0  0  0  0  0  0  0  0  0
  184.9491  128.2292   26.6376 O   0  0  0  0  0  0  0  0  0  0  0  0
  183.8436  128.0916   25.5259 P   0  0  0  0  0  0  0  0  0  0  0  0
  183.8324  129.4473   24.7902 O   0  0  0  0  0  0  0  0  0  0  0  0
  182.4885  127.7337   26.0581 O   0  0  0  0  0  0  0  0  0  0  0  0
  182.2098  128.3989   26.7067 H   0  0  0  0  0  0  0  0  0  0  0  0
  184.3652  127.0687   24.4740 O   0  0  0  0  0  0  0  0  0  0  0  0
  185.7803  126.7494   23.8987 P   0  0  0  0  0  0  0  0  0  0  0  0
  185.5220  126.5117   22.3876 O   0  0  0  0  0  0  0  0  0  0  0  0
  186.5864  128.0546   24.0769 O   0  0  0  0  0  0  0  0  0  0  0  0
  186.4167  125.5788   24.5644 O   0  0  0  0  0  0  0  0  0  0  0  0
  186.1290  128.7813   23.6258 H   0  0  0  0  0  0  0  0  0  0  0  0
  185.8713  124.7895   24.4215 H   0  0  0  0  0  0  0  0  0  0  0  0
  189.1458  125.0690   30.3920 C   0  0  0  0  0  0  0  0  0  0  0  0
  188.2538  123.9664   30.1724 O   0  0  0  0  0  0  0  0  0  0  0  0
  188.1845  123.0675   31.3069 C   0  0  0  0  0  0  0  0  0  0  0  0
  186.7423  122.8742   31.7266 C   0  0  0  0  0  0  0  0  0  0  0  0
  186.1056  121.6262   31.6192 C   0  0  0  0  0  0  0  0  0  0  0  0
  184.7641  121.5108   32.0210 C   0  0  0  0  0  0  0  0  0  0  0  0
  184.0641  122.6347   32.5292 C   0  0  0  0  0  0  0  0  0  0  0  0
  184.7102  123.8820   32.6375 C   0  0  0  0  0  0  0  0  0  0  0  0
  186.0443  123.9734   32.2354 C   0  0  0  0  0  0  0  0  0  0  0  0
  184.0910  125.1345   33.1622 C   0  0  0  0  0  0  0  0  0  0  0  0
  183.2915  125.0723   34.1014 O   0  0  0  0  0  0  0  0  0  0  0  0
  184.4319  126.4489   32.5805 C   0  0  0  0  0  0  0  0  0  0  0  0
  185.3822  127.3107   33.1497 C   0  0  0  0  0  0  0  0  0  0  0  0
  185.5630  128.6009   32.6297 C   0  0  0  0  0  0  0  0  0  0  0  0
  184.8091  129.0322   31.5302 C   0  0  0  0  0  0  0  0  0  0  0  0
  183.9042  128.1556   30.9166 C   0  0  0  0  0  0  0  0  0  0  0  0
  183.7236  126.8673   31.4370 C   0  0  0  0  0  0  0  0  0  0  0  0
  6  7  1  0  0  0
  7  5  1  0  0  0
  7  8  2  0  0  0
  5  4  1  0  0  0
  4  1  1  0  0  0
  1  2  2  0  0  0
  2  3  1  0  0  0
  2 22  1  0  0  0
 22 23  1  0  0  0
 23 24  1  0  0  0
 24 25  1  0  0  0
 25 26  2  0  0  0
 25 30  1  0  0  0
 26 27  1  0  0  0
 27 28  2  0  0  0
 28 29  1  0  0  0
 29 30  2  0  0  0
 29 31  1  0  0  0
 31 32  2  0  0  0
 31 33  1  0  0  0
 33 34  2  0  0  0
 33 38  1  0  0  0
 34 35  1  0  0  0
 35 36  2  0  0  0
 36 37  1  0  0  0
 37 38  2  0  0  0
  8  9  1  0  0  0
  9 10  1  0  0  0
 10 11  1  0  0  0
 11 12  2  0  0  0
 11 13  1  0  0  0
 11 15  1  0  0  0
 15 16  1  0  0  0
 16 17  2  0  0  0
 16 18  1  0  0  0
 16 19  1  0  0  0
 13 14  1  0  0  0
 18 20  1  0  0  0
 19 21  1  0  0  0
M  END
> <minimizedAffinity>
-9.20985

$$$$
1O1S_1NH_B_2001


 38 39  0  0  0  0  0  0  0  0999 V2000
  186.0844  125.1597   32.8117 C   0  0  0  0  0  0  0  0  0  0  0  0
  187.1097  125.9977   33.0898 C   0  0  0  0  0  0  0  0  0  0  0  0
  186.8610  127.4433   33.4289 C   0  0  0  0  0  0  0  0  0  0  0  0
  184.6213  125.6057   32.8255 C   0  0  0  0  0  0  0  0  0  0  0  0
  184.0135  125.3850   31.4148 C   0  0  0  0  0  0  0  0  0  0  0  0
  185.4724  126.0678   29.3482 C   0  0  0  0  0  0  0  0  0  0  0  0
  184.4153  126.4649   30.3788 C   0  0  0  0  0  0  0  0  0  0  0  0
  183.8827  127.7136   30.3584 C   0  0  0  0  0  0  0  0  0  0  0  0
  184.2914  128.7704   29.3387 C   0  0  0  0  0  0  0  0  0  0  0  0
  183.4515  128.7155   28.1402 O   0  0  0  0  0  0  0  0  0  0  0  0
  184.0495  129.1972   26.7664 P   0  0  0  0  0  0  0  0  0  0  0  0
  185.3116  130.0058   27.1308 O   0  0  0  0  0  0  0  0  0  0  0  0
  183.0932  129.9988   25.9355 O   0  0  0  0  0  0  0  0  0  0  0  0
  182.7923  130.7694   26.4419 H   0  0  0  0  0  0  0  0  0  0  0  0
  184.5815  127.9369   26.0223 O   0  0  0  0  0  0  0  0  0  0  0  0
  184.9722  127.6530   24.5384 P   0  0  0  0  0  0  0  0  0  0  0  0
  183.8180  128.2912   23.7217 O   0  0  0  0  0  0  0  0  0  0  0  0
  186.2670  128.4620   24.3056 O   0  0  0  0  0  0  0  0  0  0  0  0
  185.1384  126.1992   24.2597 O   0  0  0  0  0  0  0  0  0  0  0  0
  186.1030  129.3979   24.5010 H   0  0  0  0  0  0  0  0  0  0  0  0
  184.2988  125.7410   24.4212 H   0  0  0  0  0  0  0  0  0  0  0  0
  188.5480  125.5133   33.0681 C   0  0  0  0  0  0  0  0  0  0  0  0
  188.7472  124.4707   34.0339 O   0  0  0  0  0  0  0  0  0  0  0  0
  189.9051  123.6501   33.7415 C   0  0  0  0  0  0  0  0  0  0  0  0
  189.5267  122.5461   32.7763 C   0  0  0  0  0  0  0  0  0  0  0  0
  190.3846  122.1529   31.7352 C   0  0  0  0  0  0  0  0  0  0  0  0
  189.9754  121.1249   30.8690 C   0  0  0  0  0  0  0  0  0  0  0  0
  188.7181  120.4923   31.0436 C   0  0  0  0  0  0  0  0  0  0  0  0
  187.8648  120.8895   32.0921 C   0  0  0  0  0  0  0  0  0  0  0  0
  188.2927  121.9107   32.9428 C   0  0  0  0  0  0  0  0  0  0  0  0
  186.5260  120.3002   32.3883 C   0  0  0  0  0  0  0  0  0  0  0  0
  186.4265  119.4086   33.2369 O   0  0  0  0  0  0  0  0  0  0  0  0
  185.3165  120.7788   31.6880 C   0  0  0  0  0  0  0  0  0  0  0  0
  184.0754  120.1302   31.7808 C   0  0  0  0  0  0  0  0  0  0  0  0
  182.9995  120.5523   30.9857 C   0  0  0  0  0  0  0  0  0  0  0  0
  183.1511  121.6327   30.1066 C   0  0  0  0  0  0  0  0  0  0  0  0
  184.3679  122.3258   30.0549 C   0  0  0  0  0  0  0  0  0  0  0  0
  185.4423  121.9033   30.8488 C   0  0  0  0  0  0  0  0  0  0  0  0
  6  7  1  0  0  0
  7  5  1  0  0  0
  7  8  2  0  0  0
  5  4  1  0  0  0
  4  1  1  0  0  0
  1  2  2  0  0  0
  2  3  1  0  0  0
  2 22  1  0  0  0
 22 23  1  0  0  0
 23 24  1  0  0  0
 24 25  1  0  0  0
 25 26  2  0  0  0
 25 30  1  0  0  0
 26 27  1  0  0  0
 27 28  2  0  0  0
 28 29  1  0  0  0
 29 30  2  0  0  0
 29 31  1  0  0  0
 31 32  2  0  0  0
 31 33  1  0  0  0
 33 34  2  0  0  0
 33 38  1  0  0  0
 34 35  1  0  0  0
 35 36  2  0  0  0
 36 37  1  0  0  0
 37 38  2  0  0  0
  8  9  1  0  0  0
  9 10  1  0  0  0
 10 11  1  0  0  0
 11 12  2  0  0  0
 11 13  1  0  0  0
 11 15  1  0  0  0
 15 16  1  0  0  0
 16 17  2  0  0  0
 16 18  1  0  0  0
 16 19  1  0  0  0
 13 14  1  0  0  0
 18 20  1  0  0  0
 19 21  1  0  0  0
M  END
> <minimizedAffinity>
-9.15302

$$$$
1O1S_1NH_B_2001


 38 39  0  0  0  0  0  0  0  0999 V2000
  187.3647  127.5582   28.6838 C   0  0  0  0  0  0  0  0  0  0  0  0
  186.8311  128.4158   27.7834 C   0  0  0  0  0  0  0  0  0  0  0  0
  187.1810  129.8800   27.8036 C   0  0  0  0  0  0  0  0  0  0  0  0
  188.3499  128.0000   29.7674 C   0  0  0  0  0  0  0  0  0  0  0  0
  187.5651  128.2917   31.0739 C   0  0  0  0  0  0  0  0  0  0  0  0
  187.2165  127.5327   33.5575 C   0  0  0  0  0  0  0  0  0  0  0  0
  187.6934  127.1821   32.1479 C   0  0  0  0  0  0  0  0  0  0  0  0
  188.2034  125.9504   31.8905 C   0  0  0  0  0  0  0  0  0  0  0  0
  188.3316  124.8690   32.9572 C   0  0  0  0  0  0  0  0  0  0  0  0
  189.6302  124.1956   32.8878 O   0  0  0  0  0  0  0  0  0  0  0  0
  189.8699  122.9082   33.7609 P   0  0  0  0  0  0  0  0  0  0  0  0
  188.5320  122.6493   34.4837 O   0  0  0  0  0  0  0  0  0  0  0  0
  191.0110  123.0324   34.7254 O   0  0  0  0  0  0  0  0  0  0  0  0
  190.8596  123.7920   35.3092 H   0  0  0  0  0  0  0  0  0  0  0  0
  190.0370  121.7070   32.7840 O   0  0  0  0  0  0  0  0  0  0  0  0
  189.3203  121.2930   31.4611 P   0  0  0  0  0  0  0  0  0  0  0  0
  190.0751  120.0135   31.0143 O   0  0  0  0  0  0  0  0  0  0  0  0
  187.8853  120.9134   31.8875 O   0  0  0  0  0  0  0  0  0  0  0  0
  189.3542  122.3694   30.4321 O   0  0  0  0  0  0  0  0  0  0  0  0
  187.9217  120.2114   32.5560 H   0  0  0  0  0  0  0  0  0  0  0  0
  190.2753  122.5677   30.2018 H   0  0  0  0  0  0  0  0  0  0  0  0
  185.8588  127.9352   26.7215 C   0  0  0  0  0  0  0  0  0  0  0  0
  184.5037  128.1765   27.1275 O   0  0  0  0  0  0  0  0  0  0  0  0
  183.7802  126.9551   27.4182 C   0  0  0  0  0  0  0  0  0  0  0  0
  183.9999  126.5545   28.8621 C   0  0  0  0  0  0  0  0  0  0  0  0
  183.7447  127.4440   29.9194 C   0  0  0  0  0  0  0  0  0  0  0  0
  183.9722  127.0153   31.2381 C   0  0  0  0  0  0  0  0  0  0  0  0
  184.4492  125.7054   31.4986 C   0  0  0  0  0  0  0  0  0  0  0  0
  184.6993  124.8177   30.4334 C   0  0  0  0  0  0  0  0  0  0  0  0
  184.4634  125.2634   29.1313 C   0  0  0  0  0  0  0  0  0  0  0  0
  185.1918  123.4158   30.5729 C   0  0  0  0  0  0  0  0  0  0  0  0
  186.4066  123.1938   30.5761 O   0  0  0  0  0  0  0  0  0  0  0  0
  184.2446  122.2917   30.7198 C   0  0  0  0  0  0  0  0  0  0  0  0
  183.4901  121.7863   29.6498 C   0  0  0  0  0  0  0  0  0  0  0  0
  182.5087  120.8105   29.8796 C   0  0  0  0  0  0  0  0  0  0  0  0
  182.2862  120.3227   31.1741 C   0  0  0  0  0  0  0  0  0  0  0  0
  183.0788  120.7756   32.2372 C   0  0  0  0  0  0  0  0  0  0  0  0
  184.0583  121.7507   32.0071 C   0  0  0  0  0  0  0  0  0  0  0  0
  6  7  1  0  0  0
  7  5  1  0  0  0
  7  8  2  0  0  0
  5  4  1  0  0  0
  4  1  1  0  0  0
  1  2  2  0  0  0
  2  3  1  0  0  0
  2 22  1  0  0  0
 22 23  1  0  0  0
 23 24  1  0  0  0
 24 25  1  0  0  0
 25 26  2  0  0  0
 25 30  1  0  0  0
 26 27  1  0  0  0
 27 28  2  0  0  0
 28 29  1  0  0  0
 29 30  2  0  0  0
 29 31  1  0  0  0
 31 32  2  0  0  0
 31 33  1  0  0  0
 33 34  2  0  0  0
 33 38  1  0  0  0
 34 35  1  0  0  0
 35 36  2  0  0  0
 36 37  1  0  0  0
 37 38  2  0  0  0
  8  9  1  0  0  0
  9 10  1  0  0  0
 10 11  1  0  0  0
 11 12  2  0  0  0
 11 13  1  0  0  0
 11 15  1  0  0  0
 15 16  1  0  0  0
 16 17  2  0  0  0
 16 18  1  0  0  0
 16 19  1  0  0  0
 13 14  1  0  0  0
 18 20  1  0  0  0
 19 21  1  0  0  0
M  END
> <minimizedAffinity>
-9.06952

$$$$
1O1S_1NH_B_2001


 38 39  0  0  0  0  0  0  0  0999 V2000
  188.8141  125.7900   30.8434 C   0  0  0  0  0  0  0  0  0  0  0  0
  188.6474  125.5012   32.1548 C   0  0  0  0  0  0  0  0  0  0  0  0
  187.5242  126.1140   32.9482 C   0  0  0  0  0  0  0  0  0  0  0  0
  187.8892  126.7384   30.0787 C   0  0  0  0  0  0  0  0  0  0  0  0
  188.6910  128.0015   29.6667 C   0  0  0  0  0  0  0  0  0  0  0  0
  189.2212  129.6012   27.6603 C   0  0  0  0  0  0  0  0  0  0  0  0
  188.2546  128.6111   28.3106 C   0  0  0  0  0  0  0  0  0  0  0  0
  187.0789  128.3107   27.7017 C   0  0  0  0  0  0  0  0  0  0  0  0
  186.6568  128.9225   26.3709 C   0  0  0  0  0  0  0  0  0  0  0  0
  186.4038  127.8926   25.3609 O   0  0  0  0  0  0  0  0  0  0  0  0
  184.9217  127.6111   24.9126 P   0  0  0  0  0  0  0  0  0  0  0  0
  184.5419  126.2706   25.5744 O   0  0  0  0  0  0  0  0  0  0  0  0
  184.7338  127.5731   23.4257 O   0  0  0  0  0  0  0  0  0  0  0  0
  185.3178  126.8996   23.0432 H   0  0  0  0  0  0  0  0  0  0  0  0
  184.0158  128.6714   25.6056 O   0  0  0  0  0  0  0  0  0  0  0  0
  182.4710  128.8204   25.7681 P   0  0  0  0  0  0  0  0  0  0  0  0
  182.2190  128.4733   27.2589 O   0  0  0  0  0  0  0  0  0  0  0  0
  182.1896  130.3219   25.5416 O   0  0  0  0  0  0  0  0  0  0  0  0
  181.7112  127.9407   24.8366 O   0  0  0  0  0  0  0  0  0  0  0  0
  182.7077  130.8466   26.1719 H   0  0  0  0  0  0  0  0  0  0  0  0
  181.9245  127.0128   25.0219 H   0  0  0  0  0  0  0  0  0  0  0  0
  189.5868  124.5515   32.8756 C   0  0  0  0  0  0  0  0  0  0  0  0
  188.8614  123.4461   33.4335 O   0  0  0  0  0  0  0  0  0  0  0  0
  188.9200  122.2608   32.6020 C   0  0  0  0  0  0  0  0  0  0  0  0
  187.5188  121.7912   32.2707 C   0  0  0  0  0  0  0  0  0  0  0  0
  187.0100  120.5816   32.7733 C   0  0  0  0  0  0  0  0  0  0  0  0
  185.7036  120.1976   32.4266 C   0  0  0  0  0  0  0  0  0  0  0  0
  184.9098  121.0182   31.5852 C   0  0  0  0  0  0  0  0  0  0  0  0
  185.4255  122.2315   31.0880 C   0  0  0  0  0  0  0  0  0  0  0  0
  186.7248  122.5952   31.4477 C   0  0  0  0  0  0  0  0  0  0  0  0
  184.6926  123.1858   30.2051 C   0  0  0  0  0  0  0  0  0  0  0  0
  184.2599  122.7987   29.1151 O   0  0  0  0  0  0  0  0  0  0  0  0
  184.4674  124.5844   30.6240 C   0  0  0  0  0  0  0  0  0  0  0  0
  184.1960  124.9477   31.9522 C   0  0  0  0  0  0  0  0  0  0  0  0
  183.8562  126.2725   32.2641 C   0  0  0  0  0  0  0  0  0  0  0  0
  183.8012  127.2443   31.2563 C   0  0  0  0  0  0  0  0  0  0  0  0
  184.1331  126.9034   29.9383 C   0  0  0  0  0  0  0  0  0  0  0  0
  184.4717  125.5799   29.6273 C   0  0  0  0  0  0  0  0  0  0  0  0
  6  7  1  0  0  0
  7  5  1  0  0  0
  7  8  2  0  0  0
  5  4  1  0  0  0
  4  1  1  0  0  0
  1  2  2  0  0  0
  2  3  1  0  0  0
  2 22  1  0  0  0
 22 23  1  0  0  0
 23 24  1  0  0  0
 24 25  1  0  0  0
 25 26  2  0  0  0
 25 30  1  0  0  0
 26 27  1  0  0  0
 27 28  2  0  0  0
 28 29  1  0  0  0
 29 30  2  0  0  0
 29 31  1  0  0  0
 31 32  2  0  0  0
 31 33  1  0  0  0
 33 34  2  0  0  0
 33 38  1  0  0  0
 34 35  1  0  0  0
 35 36  2  0  0  0
 36 37  1  0  0  0
 37 38  2  0  0  0
  8  9  1  0  0  0
  9 10  1  0  0  0
 10 11  1  0  0  0
 11 12  2  0  0  0
 11 13  1  0  0  0
 11 15  1  0  0  0
 15 16  1  0  0  0
 16 17  2  0  0  0
 16 18  1  0  0  0
 16 19  1  0  0  0
 13 14  1  0  0  0
 18 20  1  0  0  0
 19 21  1  0  0  0
M  END
> <minimizedAffinity>
-8.99603

$$$$
1O1S_1NH_B_2001


 38 39  0  0  0  0  0  0  0  0999 V2000
  186.3233  129.3982   31.7649 C   0  0  0  0  0  0  0  0  0  0  0  0
  185.4686  129.7449   30.7749 C   0  0  0  0  0  0  0  0  0  0  0  0
  184.0013  129.4206   30.8668 C   0  0  0  0  0  0  0  0  0  0  0  0
  185.8733  128.6691   33.0320 C   0  0  0  0  0  0  0  0  0  0  0  0
  187.0722  128.5751   34.0127 C   0  0  0  0  0  0  0  0  0  0  0  0
  189.4046  127.4176   34.3057 C   0  0  0  0  0  0  0  0  0  0  0  0
  187.9646  127.3264   33.8001 C   0  0  0  0  0  0  0  0  0  0  0  0
  187.5282  126.1921   33.1949 C   0  0  0  0  0  0  0  0  0  0  0  0
  188.4177  124.9722   32.9846 C   0  0  0  0  0  0  0  0  0  0  0  0
  188.0240  123.8622   33.8551 O   0  0  0  0  0  0  0  0  0  0  0  0
  188.8393  122.5174   33.7930 P   0  0  0  0  0  0  0  0  0  0  0  0
  187.8143  121.4358   33.3943 O   0  0  0  0  0  0  0  0  0  0  0  0
  189.5441  122.1750   35.0711 O   0  0  0  0  0  0  0  0  0  0  0  0
  188.8982  122.1253   35.7932 H   0  0  0  0  0  0  0  0  0  0  0  0
  189.8102  122.6167   32.5795 O   0  0  0  0  0  0  0  0  0  0  0  0
  189.7652  122.0613   31.1219 P   0  0  0  0  0  0  0  0  0  0  0  0
  190.0894  120.5535   31.2886 O   0  0  0  0  0  0  0  0  0  0  0  0
  188.2934  122.2187   30.6811 O   0  0  0  0  0  0  0  0  0  0  0  0
  190.7200  122.7580   30.2155 O   0  0  0  0  0  0  0  0  0  0  0  0
  187.7174  121.7478   31.3034 H   0  0  0  0  0  0  0  0  0  0  0  0
  191.6256  122.6271   30.5375 H   0  0  0  0  0  0  0  0  0  0  0  0
  185.9564  130.4711   29.5345 C   0  0  0  0  0  0  0  0  0  0  0  0
  187.0337  129.7524   28.9162 O   0  0  0  0  0  0  0  0  0  0  0  0
  186.6949  129.2624   27.5953 C   0  0  0  0  0  0  0  0  0  0  0  0
  185.7143  128.1136   27.7051 C   0  0  0  0  0  0  0  0  0  0  0  0
  184.5332  128.0790   26.9448 C   0  0  0  0  0  0  0  0  0  0  0  0
  183.6604  126.9879   27.0941 C   0  0  0  0  0  0  0  0  0  0  0  0
  183.9673  125.9368   27.9956 C   0  0  0  0  0  0  0  0  0  0  0  0
  185.1554  125.9766   28.7519 C   0  0  0  0  0  0  0  0  0  0  0  0
  186.0096  127.0686   28.5855 C   0  0  0  0  0  0  0  0  0  0  0  0
  185.5973  124.9340   29.7241 C   0  0  0  0  0  0  0  0  0  0  0  0
  186.5485  124.1994   29.4399 O   0  0  0  0  0  0  0  0  0  0  0  0
  184.9193  124.7781   31.0272 C   0  0  0  0  0  0  0  0  0  0  0  0
  184.1645  125.8016   31.6208 C   0  0  0  0  0  0  0  0  0  0  0  0
  183.6597  125.6412   32.9197 C   0  0  0  0  0  0  0  0  0  0  0  0
  183.8911  124.4537   33.6265 C   0  0  0  0  0  0  0  0  0  0  0  0
  184.5889  123.4026   33.0169 C   0  0  0  0  0  0  0  0  0  0  0  0
  185.0936  123.5638   31.7198 C   0  0  0  0  0  0  0  0  0  0  0  0
  6  7  1  0  0  0
  7  5  1  0  0  0
  7  8  2  0  0  0
  5  4  1  0  0  0
  4  1  1  0  0  0
  1  2  2  0  0  0
  2  3  1  0  0  0
  2 22  1  0  0  0
 22 23  1  0  0  0
 23 24  1  0  0  0
 24 25  1  0  0  0
 25 26  2  0  0  0
 25 30  1  0  0  0
 26 27  1  0  0  0
 27 28  2  0  0  0
 28 29  1  0  0  0
 29 30  2  0  0  0
 29 31  1  0  0  0
 31 32  2  0  0  0
 31 33  1  0  0  0
 33 34  2  0  0  0
 33 38  1  0  0  0
 34 35  1  0  0  0
 35 36  2  0  0  0
 36 37  1  0  0  0
 37 38  2  0  0  0
  8  9  1  0  0  0
  9 10  1  0  0  0
 10 11  1  0  0  0
 11 12  2  0  0  0
 11 13  1  0  0  0
 11 15  1  0  0  0
 15 16  1  0  0  0
 16 17  2  0  0  0
 16 18  1  0  0  0
 16 19  1  0  0  0
 13 14  1  0  0  0
 18 20  1  0  0  0
 19 21  1  0  0  0
M  END
> <minimizedAffinity>
-8.88449

$$$$
1O1S_1NH_B_2001


 38 39  0  0  0  0  0  0  0  0999 V2000
  186.7835  128.4027   33.7028 C   0  0  0  0  0  0  0  0  0  0  0  0
  188.0732  128.4083   34.1122 C   0  0  0  0  0  0  0  0  0  0  0  0
  188.6246  129.5485   34.9262 C   0  0  0  0  0  0  0  0  0  0  0  0
  185.8033  129.5294   34.0334 C   0  0  0  0  0  0  0  0  0  0  0  0
  185.9222  130.6351   32.9511 C   0  0  0  0  0  0  0  0  0  0  0  0
  187.1656  130.2535   30.6764 C   0  0  0  0  0  0  0  0  0  0  0  0
  185.8847  130.1010   31.4970 C   0  0  0  0  0  0  0  0  0  0  0  0
  184.7873  129.5258   30.9418 C   0  0  0  0  0  0  0  0  0  0  0  0
  184.7598  129.0106   29.5074 C   0  0  0  0  0  0  0  0  0  0  0  0
  183.3957  128.9690   28.9762 O   0  0  0  0  0  0  0  0  0  0  0  0
  183.1094  128.1350   27.6726 P   0  0  0  0  0  0  0  0  0  0  0  0
  181.6510  128.4610   27.2905 O   0  0  0  0  0  0  0  0  0  0  0  0
  183.3282  126.6607   27.8347 O   0  0  0  0  0  0  0  0  0  0  0  0
  182.7716  126.3287   28.5563 H   0  0  0  0  0  0  0  0  0  0  0  0
  183.9704  128.7479   26.5288 O   0  0  0  0  0  0  0  0  0  0  0  0
  183.6278  129.3229   25.1192 P   0  0  0  0  0  0  0  0  0  0  0  0
  183.0671  128.1008   24.3456 O   0  0  0  0  0  0  0  0  0  0  0  0
  182.4869  130.3337   25.3678 O   0  0  0  0  0  0  0  0  0  0  0  0
  184.8093  129.9347   24.4493 O   0  0  0  0  0  0  0  0  0  0  0  0
  181.7462  129.8843   25.8041 H   0  0  0  0  0  0  0  0  0  0  0  0
  185.4925  129.2588   24.3180 H   0  0  0  0  0  0  0  0  0  0  0  0
  189.0126  127.2678   33.7649 C   0  0  0  0  0  0  0  0  0  0  0  0
  188.3430  126.0042   33.8847 O   0  0  0  0  0  0  0  0  0  0  0  0
  189.2266  124.8783   33.6581 C   0  0  0  0  0  0  0  0  0  0  0  0
  188.4142  123.6260   33.4031 C   0  0  0  0  0  0  0  0  0  0  0  0
  188.9561  122.3445   33.5998 C   0  0  0  0  0  0  0  0  0  0  0  0
  188.1536  121.2203   33.3417 C   0  0  0  0  0  0  0  0  0  0  0  0
  186.8174  121.3756   32.8924 C   0  0  0  0  0  0  0  0  0  0  0  0
  186.2797  122.6638   32.7009 C   0  0  0  0  0  0  0  0  0  0  0  0
  187.0937  123.7669   32.9664 C   0  0  0  0  0  0  0  0  0  0  0  0
  184.8912  122.9623   32.2425 C   0  0  0  0  0  0  0  0  0  0  0  0
  184.4588  124.1166   32.3186 O   0  0  0  0  0  0  0  0  0  0  0  0
  184.0318  121.8967   31.6871 C   0  0  0  0  0  0  0  0  0  0  0  0
  183.9885  121.5885   30.3186 C   0  0  0  0  0  0  0  0  0  0  0  0
  183.0534  120.6612   29.8353 C   0  0  0  0  0  0  0  0  0  0  0  0
  182.1684  120.0251   30.7158 C   0  0  0  0  0  0  0  0  0  0  0  0
  182.2481  120.2797   32.0915 C   0  0  0  0  0  0  0  0  0  0  0  0
  183.1818  121.2065   32.5735 C   0  0  0  0  0  0  0  0  0  0  0  0
  6  7  1  0  0  0
  7  5  1  0  0  0
  7  8  2  0  0  0
  5  4  1  0  0  0
  4  1  1  0  0  0
  1  2  2  0  0  0
  2  3  1  0  0  0
  2 22  1  0  0  0
 22 23  1  0  0  0
 23 24  1  0  0  0
 24 25  1  0  0  0
 25 26  2  0  0  0
 25 30  1  0  0  0
 26 27  1  0  0  0
 27 28  2  0  0  0
 28 29  1  0  0  0
 29 30  2  0  0  0
 29 31  1  0  0  0
 31 32  2  0  0  0
 31 33  1  0  0  0
 33 34  2  0  0  0
 33 38  1  0  0  0
 34 35  1  0  0  0
 35 36  2  0  0  0
 36 37  1  0  0  0
 37 38  2  0  0  0
  8  9  1  0  0  0
  9 10  1  0  0  0
 10 11  1  0  0  0
 11 12  2  0  0  0
 11 13  1  0  0  0
 11 15  1  0  0  0
 15 16  1  0  0  0
 16 17  2  0  0  0
 16 18  1  0  0  0
 16 19  1  0  0  0
 13 14  1  0  0  0
 18 20  1  0  0  0
 19 21  1  0  0  0
M  END
> <minimizedAffinity>
-8.82850

$$$$
1O1S_1NH_B_2001


 38 39  0  0  0  0  0  0  0  0999 V2000
  187.0138  127.4064   33.3267 C   0  0  0  0  0  0  0  0  0  0  0  0
  188.2269  127.6909   33.8544 C   0  0  0  0  0  0  0  0  0  0  0  0
  188.4550  128.9550   34.6397 C   0  0  0  0  0  0  0  0  0  0  0  0
  185.8023  128.3261   33.4886 C   0  0  0  0  0  0  0  0  0  0  0  0
  185.9771  129.5583   32.5616 C   0  0  0  0  0  0  0  0  0  0  0  0
  183.9133  129.4051   30.9545 C   0  0  0  0  0  0  0  0  0  0  0  0
  185.4314  129.3503   31.1264 C   0  0  0  0  0  0  0  0  0  0  0  0
  186.2286  129.1228   30.0511 C   0  0  0  0  0  0  0  0  0  0  0  0
  185.6798  128.9122   28.6446 C   0  0  0  0  0  0  0  0  0  0  0  0
  185.0233  127.6098   28.5122 O   0  0  0  0  0  0  0  0  0  0  0  0
  184.2670  127.2690   27.1747 P   0  0  0  0  0  0  0  0  0  0  0  0
  182.7684  127.2714   27.5403 O   0  0  0  0  0  0  0  0  0  0  0  0
  184.6880  125.9716   26.5526 O   0  0  0  0  0  0  0  0  0  0  0  0
  184.5564  125.2506   27.1880 H   0  0  0  0  0  0  0  0  0  0  0  0
  184.4477  128.4820   26.2150 O   0  0  0  0  0  0  0  0  0  0  0  0
  183.5606  129.1010   25.0903 P   0  0  0  0  0  0  0  0  0  0  0  0
  182.8629  130.2999   25.7851 O   0  0  0  0  0  0  0  0  0  0  0  0
  184.5612  129.6339   24.0416 O   0  0  0  0  0  0  0  0  0  0  0  0
  182.5918  128.1220   24.5230 O   0  0  0  0  0  0  0  0  0  0  0  0
  185.1659  130.2646   24.4629 H   0  0  0  0  0  0  0  0  0  0  0  0
  181.9897  127.8211   25.2215 H   0  0  0  0  0  0  0  0  0  0  0  0
  189.4030  126.7488   33.6729 C   0  0  0  0  0  0  0  0  0  0  0  0
  189.4258  126.2162   32.3405 O   0  0  0  0  0  0  0  0  0  0  0  0
  190.2372  125.0207   32.2290 C   0  0  0  0  0  0  0  0  0  0  0  0
  189.4539  123.8169   32.7093 C   0  0  0  0  0  0  0  0  0  0  0  0
  190.0096  122.8865   33.6036 C   0  0  0  0  0  0  0  0  0  0  0  0
  189.2342  121.7871   34.0094 C   0  0  0  0  0  0  0  0  0  0  0  0
  187.9112  121.6200   33.5266 C   0  0  0  0  0  0  0  0  0  0  0  0
  187.3594  122.5591   32.6329 C   0  0  0  0  0  0  0  0  0  0  0  0
  188.1464  123.6456   32.2453 C   0  0  0  0  0  0  0  0  0  0  0  0
  185.9820  122.5035   32.0610 C   0  0  0  0  0  0  0  0  0  0  0  0
  185.5750  121.4545   31.5521 O   0  0  0  0  0  0  0  0  0  0  0  0
  185.0949  123.6838   32.1072 C   0  0  0  0  0  0  0  0  0  0  0  0
  184.9229  124.5509   31.0171 C   0  0  0  0  0  0  0  0  0  0  0  0
  184.1755  125.7287   31.1658 C   0  0  0  0  0  0  0  0  0  0  0  0
  183.5829  126.0394   32.3968 C   0  0  0  0  0  0  0  0  0  0  0  0
  183.6964  125.1476   33.4716 C   0  0  0  0  0  0  0  0  0  0  0  0
  184.4437  123.9717   33.3227 C   0  0  0  0  0  0  0  0  0  0  0  0
  6  7  1  0  0  0
  7  5  1  0  0  0
  7  8  2  0  0  0
  5  4  1  0  0  0
  4  1  1  0  0  0
  1  2  2  0  0  0
  2  3  1  0  0  0
  2 22  1  0  0  0
 22 23  1  0  0  0
 23 24  1  0  0  0
 24 25  1  0  0  0
 25 26  2  0  0  0
 25 30  1  0  0  0
 26 27  1  0  0  0
 27 28  2  0  0  0
 28 29  1  0  0  0
 29 30  2  0  0  0
 29 31  1  0  0  0
 31 32  2  0  0  0
 31 33  1  0  0  0
 33 34  2  0  0  0
 33 38  1  0  0  0
 34 35  1  0  0  0
 35 36  2  0  0  0
 36 37  1  0  0  0
 37 38  2  0  0  0
  8  9  1  0  0  0
  9 10  1  0  0  0
 10 11  1  0  0  0
 11 12  2  0  0  0
 11 13  1  0  0  0
 11 15  1  0  0  0
 15 16  1  0  0  0
 16 17  2  0  0  0
 16 18  1  0  0  0
 16 19  1  0  0  0
 13 14  1  0  0  0
 18 20  1  0  0  0
 19 21  1  0  0  0
M  END
> <minimizedAffinity>
-8.77638

$$$$
1O1S_1NH_B_2001


 38 39  0  0  0  0  0  0  0  0999 V2000
  184.4100  123.3070   32.9898 C   0  0  0  0  0  0  0  0  0  0  0  0
  184.5042  122.5363   31.8816 C   0  0  0  0  0  0  0  0  0  0  0  0
  184.0714  123.0548   30.5361 C   0  0  0  0  0  0  0  0  0  0  0  0
  183.8724  124.7387   32.9614 C   0  0  0  0  0  0  0  0  0  0  0  0
  185.0609  125.7203   32.7821 C   0  0  0  0  0  0  0  0  0  0  0  0
  185.4744  128.1825   31.9870 C   0  0  0  0  0  0  0  0  0  0  0  0
  184.8092  126.8301   31.7304 C   0  0  0  0  0  0  0  0  0  0  0  0
  184.0387  126.6510   30.6270 C   0  0  0  0  0  0  0  0  0  0  0  0
  183.7922  127.7528   29.6028 C   0  0  0  0  0  0  0  0  0  0  0  0
  183.3903  127.2027   28.3064 O   0  0  0  0  0  0  0  0  0  0  0  0
  182.9211  128.1875   27.1719 P   0  0  0  0  0  0  0  0  0  0  0  0
  183.7601  129.4669   27.3681 O   0  0  0  0  0  0  0  0  0  0  0  0
  181.4501  128.4762   27.1884 O   0  0  0  0  0  0  0  0  0  0  0  0
  181.2018  128.8409   28.0523 H   0  0  0  0  0  0  0  0  0  0  0  0
  183.4021  127.5967   25.8137 O   0  0  0  0  0  0  0  0  0  0  0  0
  184.8111  127.3608   25.1858 P   0  0  0  0  0  0  0  0  0  0  0  0
  184.5942  127.6317   23.6739 O   0  0  0  0  0  0  0  0  0  0  0  0
  185.7027  128.4739   25.7785 O   0  0  0  0  0  0  0  0  0  0  0  0
  185.3349  125.9927   25.4555 O   0  0  0  0  0  0  0  0  0  0  0  0
  185.3169  129.3401   25.5744 H   0  0  0  0  0  0  0  0  0  0  0  0
  184.7393  125.3353   25.0630 H   0  0  0  0  0  0  0  0  0  0  0  0
  185.0468  121.1206   31.9532 C   0  0  0  0  0  0  0  0  0  0  0  0
  186.3075  121.0941   32.6383 O   0  0  0  0  0  0  0  0  0  0  0  0
  187.3108  120.3200   31.9355 C   0  0  0  0  0  0  0  0  0  0  0  0
  188.4999  121.1961   31.6010 C   0  0  0  0  0  0  0  0  0  0  0  0
  189.7119  120.6494   31.1462 C   0  0  0  0  0  0  0  0  0  0  0  0
  190.7810  121.5140   30.8562 C   0  0  0  0  0  0  0  0  0  0  0  0
  190.6390  122.9159   31.0172 C   0  0  0  0  0  0  0  0  0  0  0  0
  189.4195  123.4570   31.4701 C   0  0  0  0  0  0  0  0  0  0  0  0
  188.3695  122.5800   31.7493 C   0  0  0  0  0  0  0  0  0  0  0  0
  189.1392  124.9090   31.6718 C   0  0  0  0  0  0  0  0  0  0  0  0
  189.5333  125.4690   32.6995 O   0  0  0  0  0  0  0  0  0  0  0  0
  188.4071  125.6875   30.6518 C   0  0  0  0  0  0  0  0  0  0  0  0
  187.4519  125.1156   29.7974 C   0  0  0  0  0  0  0  0  0  0  0  0
  186.8912  125.8753   28.7598 C   0  0  0  0  0  0  0  0  0  0  0  0
  187.2680  127.2126   28.5794 C   0  0  0  0  0  0  0  0  0  0  0  0
  188.1730  127.8093   29.4674 C   0  0  0  0  0  0  0  0  0  0  0  0
  188.7333  127.0498   30.5030 C   0  0  0  0  0  0  0  0  0  0  0  0
  6  7  1  0  0  0
  7  5  1  0  0  0
  7  8  2  0  0  0
  5  4  1  0  0  0
  4  1  1  0  0  0
  1  2  2  0  0  0
  2  3  1  0  0  0
  2 22  1  0  0  0
 22 23  1  0  0  0
 23 24  1  0  0  0
 24 25  1  0  0  0
 25 26  2  0  0  0
 25 30  1  0  0  0
 26 27  1  0  0  0
 27 28  2  0  0  0
 28 29  1  0  0  0
 29 30  2  0  0  0
 29 31  1  0  0  0
 31 32  2  0  0  0
 31 33  1  0  0  0
 33 34  2  0  0  0
 33 38  1  0  0  0
 34 35  1  0  0  0
 35 36  2  0  0  0
 36 37  1  0  0  0
 37 38  2  0  0  0
  8  9  1  0  0  0
  9 10  1  0  0  0
 10 11  1  0  0  0
 11 12  2  0  0  0
 11 13  1  0  0  0
 11 15  1  0  0  0
 15 16  1  0  0  0
 16 17  2  0  0  0
 16 18  1  0  0  0
 16 19  1  0  0  0
 13 14  1  0  0  0
 18 20  1  0  0  0
 19 21  1  0  0  0
M  END
> <minimizedAffinity>
-8.76108

$$$$
1O1S_1NH_B_2001


 38 39  0  0  0  0  0  0  0  0999 V2000
  187.1880  127.5496   32.3194 C   0  0  0  0  0  0  0  0  0  0  0  0
  186.1859  128.4501   32.4450 C   0  0  0  0  0  0  0  0  0  0  0  0
  185.8579  129.0657   33.7792 C   0  0  0  0  0  0  0  0  0  0  0  0
  188.0520  127.0999   33.4988 C   0  0  0  0  0  0  0  0  0  0  0  0
  188.6099  125.6823   33.2037 C   0  0  0  0  0  0  0  0  0  0  0  0
  191.2143  125.6575   33.4905 C   0  0  0  0  0  0  0  0  0  0  0  0
  190.0127  125.6809   32.5455 C   0  0  0  0  0  0  0  0  0  0  0  0
  190.2062  125.7047   31.2019 C   0  0  0  0  0  0  0  0  0  0  0  0
  191.5915  125.7105   30.5658 C   0  0  0  0  0  0  0  0  0  0  0  0
  192.1455  124.3584   30.4696 O   0  0  0  0  0  0  0  0  0  0  0  0
  193.2859  124.0735   29.4229 P   0  0  0  0  0  0  0  0  0  0  0  0
  193.7262  125.4601   28.9103 O   0  0  0  0  0  0  0  0  0  0  0  0
  192.8691  123.1699   28.3016 O   0  0  0  0  0  0  0  0  0  0  0  0
  192.1035  123.5529   27.8453 H   0  0  0  0  0  0  0  0  0  0  0  0
  194.5144  123.5279   30.2091 O   0  0  0  0  0  0  0  0  0  0  0  0
  195.4461  124.1393   31.3015 P   0  0  0  0  0  0  0  0  0  0  0  0
  196.5379  124.8807   30.4861 O   0  0  0  0  0  0  0  0  0  0  0  0
  194.5698  125.1764   32.0375 O   0  0  0  0  0  0  0  0  0  0  0  0
  196.0117  123.1061   32.2133 O   0  0  0  0  0  0  0  0  0  0  0  0
  194.2288  125.8225   31.3994 H   0  0  0  0  0  0  0  0  0  0  0  0
  196.5510  122.4833   31.7013 H   0  0  0  0  0  0  0  0  0  0  0  0
  185.3540  128.8717   31.2475 C   0  0  0  0  0  0  0  0  0  0  0  0
  184.0953  128.1826   31.2360 O   0  0  0  0  0  0  0  0  0  0  0  0
  184.1700  126.8905   30.5842 C   0  0  0  0  0  0  0  0  0  0  0  0
  184.1892  125.7877   31.6220 C   0  0  0  0  0  0  0  0  0  0  0  0
  183.5453  125.9333   32.8624 C   0  0  0  0  0  0  0  0  0  0  0  0
  183.6023  124.8758   33.7860 C   0  0  0  0  0  0  0  0  0  0  0  0
  184.2961  123.6796   33.4710 C   0  0  0  0  0  0  0  0  0  0  0  0
  184.9362  123.5395   32.2238 C   0  0  0  0  0  0  0  0  0  0  0  0
  184.8643  124.6014   31.3199 C   0  0  0  0  0  0  0  0  0  0  0  0
  185.6885  122.3337   31.7680 C   0  0  0  0  0  0  0  0  0  0  0  0
  185.1144  121.4782   31.0871 O   0  0  0  0  0  0  0  0  0  0  0  0
  187.1145  122.1568   32.1108 C   0  0  0  0  0  0  0  0  0  0  0  0
  187.5665  121.9911   33.4291 C   0  0  0  0  0  0  0  0  0  0  0  0
  188.9419  121.9653   33.7036 C   0  0  0  0  0  0  0  0  0  0  0  0
  189.8728  122.0882   32.6636 C   0  0  0  0  0  0  0  0  0  0  0  0
  189.4300  122.1896   31.3380 C   0  0  0  0  0  0  0  0  0  0  0  0
  188.0561  122.2162   31.0647 C   0  0  0  0  0  0  0  0  0  0  0  0
  6  7  1  0  0  0
  7  5  1  0  0  0
  7  8  2  0  0  0
  5  4  1  0  0  0
  4  1  1  0  0  0
  1  2  2  0  0  0
  2  3  1  0  0  0
  2 22  1  0  0  0
 22 23  1  0  0  0
 23 24  1  0  0  0
 24 25  1  0  0  0
 25 26  2  0  0  0
 25 30  1  0  0  0
 26 27  1  0  0  0
 27 28  2  0  0  0
 28 29  1  0  0  0
 29 30  2  0  0  0
 29 31  1  0  0  0
 31 32  2  0  0  0
 31 33  1  0  0  0
 33 34  2  0  0  0
 33 38  1  0  0  0
 34 35  1  0  0  0
 35 36  2  0  0  0
 36 37  1  0  0  0
 37 38  2  0  0  0
  8  9  1  0  0  0
  9 10  1  0  0  0
 10 11  1  0  0  0
 11 12  2  0  0  0
 11 13  1  0  0  0
 11 15  1  0  0  0
 15 16  1  0  0  0
 16 17  2  0  0  0
 16 18  1  0  0  0
 16 19  1  0  0  0
 13 14  1  0  0  0
 18 20  1  0  0  0
 19 21  1  0  0  0
M  END
> <minimizedAffinity>
-8.72424

$$$$
