5MA7_7K0_E_412


 37 37  0  0  0  0  0  0  0  0999 V2000
   11.1228   38.9044   -3.8082 N   0  0  0  0  0  0  0  0  0  0  0  0
   11.5278   39.7548   -3.4168 H   0  0  0  0  0  0  0  0  0  0  0  0
   10.7769   39.2032   -5.4880 P   0  0  0  0  0  0  0  0  0  0  0  0
    9.7224   38.2760   -6.0063 O   0  0  0  0  0  0  0  0  0  0  0  0
   10.3588   40.6788   -5.6903 O   0  0  0  0  0  0  0  0  0  0  0  0
    9.5541   38.4685   -6.9419 H   0  0  0  0  0  0  0  0  0  0  0  0
   12.4131   38.8590   -6.2175 C   0  0  0  0  0  0  0  0  0  0  0  0
   13.0475   38.2030   -8.5320 C   0  0  0  0  0  0  0  0  0  0  0  0
   12.2097   38.8420   -7.6768 N   0  0  0  0  0  0  0  0  0  0  0  0
   14.0696   37.6221   -8.2084 O   0  0  0  0  0  0  0  0  0  0  0  0
   11.4307   39.3158   -8.0482 H   0  0  0  0  0  0  0  0  0  0  0  0
   12.7002   38.1970   -9.8366 O   0  0  0  0  0  0  0  0  0  0  0  0
   13.5579   38.7707  -10.8550 C   0  0  0  0  0  0  0  0  0  0  0  0
   13.6107   37.7916  -11.9964 C   0  0  0  0  0  0  0  0  0  0  0  0
   13.2684   36.4293  -11.8204 C   0  0  0  0  0  0  0  0  0  0  0  0
   13.3354   35.5339  -12.8976 C   0  0  0  0  0  0  0  0  0  0  0  0
   13.6915   35.9832  -14.1684 C   0  0  0  0  0  0  0  0  0  0  0  0
   14.0308   37.3288  -14.3401 C   0  0  0  0  0  0  0  0  0  0  0  0
   13.9891   38.2339  -13.2717 C   0  0  0  0  0  0  0  0  0  0  0  0
    9.9467   38.5174   -2.9510 C   0  0  0  0  0  0  0  0  0  0  0  0
   11.8334   39.2969   -1.5746 N   0  0  0  0  0  0  0  0  0  0  0  0
   10.5699   38.5449   -1.5488 C   0  0  0  0  0  0  0  0  0  0  0  0
   12.2403   39.3102   -0.6394 H   0  0  0  0  0  0  0  0  0  0  0  0
   11.6536   40.2532   -1.8808 H   0  0  0  0  0  0  0  0  0  0  0  0
    8.8128   39.5200   -3.0450 C   0  0  0  0  0  0  0  0  0  0  0  0
    8.9988   40.7638   -2.5291 N   0  0  0  0  0  0  0  0  0  0  0  0
    7.7560   39.1905   -3.5628 O   0  0  0  0  0  0  0  0  0  0  0  0
    9.8466   40.9935   -2.0845 H   0  0  0  0  0  0  0  0  0  0  0  0
    7.9240   41.7670   -2.6390 C   0  0  0  0  0  0  0  0  0  0  0  0
    8.1752   42.6291   -3.9092 C   0  0  0  0  0  0  0  0  0  0  0  0
    7.8443   42.1443   -5.0237 O   0  0  0  0  0  0  0  0  0  0  0  0
    8.6260   43.7749   -3.6668 O   0  0  0  0  0  0  0  0  0  0  0  0
    7.5180   41.2674   -5.0749 H   0  0  0  0  0  0  0  0  0  0  0  0
    7.7292   42.5508   -1.3338 C   0  0  0  0  0  0  0  0  0  0  0  0
    6.5166   43.4541   -1.2783 C   0  0  0  0  0  0  0  0  0  0  0  0
    5.1809   42.7056   -1.3597 C   0  0  0  0  0  0  0  0  0  0  0  0
    6.5381   44.2702    0.0049 C   0  0  0  0  0  0  0  0  0  0  0  0
 18 19  2  0  0  0
 18 17  1  0  0  0
 19 14  1  0  0  0
 17 16  2  0  0  0
 14 13  1  0  0  0
 14 15  2  0  0  0
 16 15  1  0  0  0
 13 12  1  0  0  0
 12  8  1  0  0  0
 10  8  2  0  0  0
  8  9  1  0  0  0
  9  7  1  0  0  0
  7  3  1  0  0  0
  5  3  2  0  0  0
  4  3  1  0  0  0
  3  1  1  0  0  0
 32 30  2  0  0  0
 31 30  1  0  0  0
 30 29  1  0  0  0
 29 26  1  0  0  0
 29 34  1  0  0  0
  1 20  1  0  0  0
 26 25  1  0  0  0
 25 27  2  0  0  0
 25 20  1  0  0  0
 20 22  1  0  0  0
 34 35  1  0  0  0
 35 36  1  0  0  0
 35 37  1  0  0  0
 22 21  1  0  0  0
 21 23  1  0  0  0
 21 24  1  0  0  0
  4  6  1  0  0  0
  1  2  1  0  0  0
 26 28  1  0  0  0
 31 33  1  0  0  0
  9 11  1  0  0  0
M  END
> <minimizedAffinity>
-9.08671

$$$$
5MA7_7K0_E_412


 37 37  0  0  0  0  0  0  0  0999 V2000
   11.0652   39.1041   -4.3024 N   0  0  0  0  0  0  0  0  0  0  0  0
   11.0705   40.0932   -4.0534 H   0  0  0  0  0  0  0  0  0  0  0  0
   11.5538   38.9714   -5.9681 P   0  0  0  0  0  0  0  0  0  0  0  0
   12.7658   38.1063   -6.1190 O   0  0  0  0  0  0  0  0  0  0  0  0
   10.3835   38.4320   -6.8240 O   0  0  0  0  0  0  0  0  0  0  0  0
   13.0107   38.0535   -7.0561 H   0  0  0  0  0  0  0  0  0  0  0  0
   11.9093   40.7222   -6.3373 C   0  0  0  0  0  0  0  0  0  0  0  0
   12.0240   41.1054   -8.7929 C   0  0  0  0  0  0  0  0  0  0  0  0
   12.6146   40.7274   -7.6311 N   0  0  0  0  0  0  0  0  0  0  0  0
   10.8548   41.4313   -8.9108 O   0  0  0  0  0  0  0  0  0  0  0  0
   13.5571   40.4437   -7.6537 H   0  0  0  0  0  0  0  0  0  0  0  0
   12.8068   41.1418   -9.8923 O   0  0  0  0  0  0  0  0  0  0  0  0
   14.0729   40.4379   -9.9484 C   0  0  0  0  0  0  0  0  0  0  0  0
   13.8545   39.1923  -10.7638 C   0  0  0  0  0  0  0  0  0  0  0  0
   13.4002   37.9894  -10.1717 C   0  0  0  0  0  0  0  0  0  0  0  0
   13.2139   36.8386  -10.9511 C   0  0  0  0  0  0  0  0  0  0  0  0
   13.4251   36.8768  -12.3286 C   0  0  0  0  0  0  0  0  0  0  0  0
   13.8753   38.0654  -12.9116 C   0  0  0  0  0  0  0  0  0  0  0  0
   14.0862   39.2194  -12.1461 C   0  0  0  0  0  0  0  0  0  0  0  0
    9.7047   38.5519   -3.9679 C   0  0  0  0  0  0  0  0  0  0  0  0
    8.8501   36.9204   -2.3340 N   0  0  0  0  0  0  0  0  0  0  0  0
   10.0036   37.7617   -2.6867 C   0  0  0  0  0  0  0  0  0  0  0  0
    9.0572   36.3992   -1.4820 H   0  0  0  0  0  0  0  0  0  0  0  0
    8.6603   36.2676   -3.0943 H   0  0  0  0  0  0  0  0  0  0  0  0
    8.6930   39.6468   -3.6895 C   0  0  0  0  0  0  0  0  0  0  0  0
    9.0192   40.9294   -4.0003 N   0  0  0  0  0  0  0  0  0  0  0  0
    7.6192   39.3622   -3.1802 O   0  0  0  0  0  0  0  0  0  0  0  0
    9.9049   41.1375   -4.3764 H   0  0  0  0  0  0  0  0  0  0  0  0
    8.0394   42.0069   -3.7712 C   0  0  0  0  0  0  0  0  0  0  0  0
    7.9272   42.8617   -5.0660 C   0  0  0  0  0  0  0  0  0  0  0  0
    6.7933   42.9674   -5.6043 O   0  0  0  0  0  0  0  0  0  0  0  0
    8.9973   43.4267   -5.3983 O   0  0  0  0  0  0  0  0  0  0  0  0
    6.0648   42.4893   -5.2599 H   0  0  0  0  0  0  0  0  0  0  0  0
    8.3312   42.7894   -2.4835 C   0  0  0  0  0  0  0  0  0  0  0  0
    7.3106   42.6464   -1.3758 C   0  0  0  0  0  0  0  0  0  0  0  0
    7.1139   43.9199   -0.5448 C   0  0  0  0  0  0  0  0  0  0  0  0
    5.9675   42.2361   -1.9600 C   0  0  0  0  0  0  0  0  0  0  0  0
 18 19  2  0  0  0
 18 17  1  0  0  0
 19 14  1  0  0  0
 17 16  2  0  0  0
 14 13  1  0  0  0
 14 15  2  0  0  0
 16 15  1  0  0  0
 13 12  1  0  0  0
 12  8  1  0  0  0
 10  8  2  0  0  0
  8  9  1  0  0  0
  9  7  1  0  0  0
  7  3  1  0  0  0
  5  3  2  0  0  0
  4  3  1  0  0  0
  3  1  1  0  0  0
 32 30  2  0  0  0
 31 30  1  0  0  0
 30 29  1  0  0  0
 29 26  1  0  0  0
 29 34  1  0  0  0
  1 20  1  0  0  0
 26 25  1  0  0  0
 25 27  2  0  0  0
 25 20  1  0  0  0
 20 22  1  0  0  0
 34 35  1  0  0  0
 35 36  1  0  0  0
 35 37  1  0  0  0
 22 21  1  0  0  0
 21 23  1  0  0  0
 21 24  1  0  0  0
  4  6  1  0  0  0
  1  2  1  0  0  0
 26 28  1  0  0  0
 31 33  1  0  0  0
  9 11  1  0  0  0
M  END
> <minimizedAffinity>
-8.68129

$$$$
5MA7_7K0_E_412


 37 37  0  0  0  0  0  0  0  0999 V2000
   12.3098   40.6874   -6.5764 N   0  0  0  0  0  0  0  0  0  0  0  0
   12.1133   41.0287   -5.6355 H   0  0  0  0  0  0  0  0  0  0  0  0
   12.0320   41.9985   -7.6875 P   0  0  0  0  0  0  0  0  0  0  0  0
   10.9564   41.6658   -8.6736 O   0  0  0  0  0  0  0  0  0  0  0  0
   11.6841   43.2897   -6.9097 O   0  0  0  0  0  0  0  0  0  0  0  0
   10.8270   42.4150   -9.2760 H   0  0  0  0  0  0  0  0  0  0  0  0
   13.6749   42.1055   -8.4730 C   0  0  0  0  0  0  0  0  0  0  0  0
   14.8720   40.5230   -9.9740 C   0  0  0  0  0  0  0  0  0  0  0  0
   13.7144   41.0269   -9.4762 N   0  0  0  0  0  0  0  0  0  0  0  0
   15.9887   40.9253   -9.6943 O   0  0  0  0  0  0  0  0  0  0  0  0
   12.8623   40.6550   -9.8001 H   0  0  0  0  0  0  0  0  0  0  0  0
   14.7678   39.4812  -10.8262 O   0  0  0  0  0  0  0  0  0  0  0  0
   14.2292   39.6421  -12.1625 C   0  0  0  0  0  0  0  0  0  0  0  0
   13.9434   38.2648  -12.6966 C   0  0  0  0  0  0  0  0  0  0  0  0
   14.1680   37.9355  -14.0550 C   0  0  0  0  0  0  0  0  0  0  0  0
   13.8842   36.6475  -14.5313 C   0  0  0  0  0  0  0  0  0  0  0  0
   13.4244   35.6587  -13.6627 C   0  0  0  0  0  0  0  0  0  0  0  0
   13.2016   35.9860  -12.3216 C   0  0  0  0  0  0  0  0  0  0  0  0
   13.4604   37.2727  -11.8319 C   0  0  0  0  0  0  0  0  0  0  0  0
   11.4841   39.4479   -6.7987 C   0  0  0  0  0  0  0  0  0  0  0  0
   12.5088   38.2614   -8.6971 N   0  0  0  0  0  0  0  0  0  0  0  0
   12.5569   38.4424   -7.2385 C   0  0  0  0  0  0  0  0  0  0  0  0
   13.2245   37.5922   -8.9805 H   0  0  0  0  0  0  0  0  0  0  0  0
   12.6789   39.1561   -9.1565 H   0  0  0  0  0  0  0  0  0  0  0  0
   10.8053   38.9742   -5.5280 C   0  0  0  0  0  0  0  0  0  0  0  0
   10.0271   39.8509   -4.8396 N   0  0  0  0  0  0  0  0  0  0  0  0
   10.9812   37.8290   -5.1396 O   0  0  0  0  0  0  0  0  0  0  0  0
    9.9303   40.7789   -5.1536 H   0  0  0  0  0  0  0  0  0  0  0  0
    9.3290   39.4044   -3.6203 C   0  0  0  0  0  0  0  0  0  0  0  0
    8.3758   40.5393   -3.1482 C   0  0  0  0  0  0  0  0  0  0  0  0
    8.8955   41.5898   -2.6867 O   0  0  0  0  0  0  0  0  0  0  0  0
    7.1605   40.3030   -3.3538 O   0  0  0  0  0  0  0  0  0  0  0  0
    9.8247   41.6445   -2.5790 H   0  0  0  0  0  0  0  0  0  0  0  0
   10.3019   38.8716   -2.5594 C   0  0  0  0  0  0  0  0  0  0  0  0
    9.6784   38.1003   -1.4167 C   0  0  0  0  0  0  0  0  0  0  0  0
    9.8810   36.5832   -1.5084 C   0  0  0  0  0  0  0  0  0  0  0  0
   10.2480   38.5868   -0.0930 C   0  0  0  0  0  0  0  0  0  0  0  0
 18 19  2  0  0  0
 18 17  1  0  0  0
 19 14  1  0  0  0
 17 16  2  0  0  0
 14 13  1  0  0  0
 14 15  2  0  0  0
 16 15  1  0  0  0
 13 12  1  0  0  0
 12  8  1  0  0  0
 10  8  2  0  0  0
  8  9  1  0  0  0
  9  7  1  0  0  0
  7  3  1  0  0  0
  5  3  2  0  0  0
  4  3  1  0  0  0
  3  1  1  0  0  0
 32 30  2  0  0  0
 31 30  1  0  0  0
 30 29  1  0  0  0
 29 26  1  0  0  0
 29 34  1  0  0  0
  1 20  1  0  0  0
 26 25  1  0  0  0
 25 27  2  0  0  0
 25 20  1  0  0  0
 20 22  1  0  0  0
 34 35  1  0  0  0
 35 36  1  0  0  0
 35 37  1  0  0  0
 22 21  1  0  0  0
 21 23  1  0  0  0
 21 24  1  0  0  0
  4  6  1  0  0  0
  1  2  1  0  0  0
 26 28  1  0  0  0
 31 33  1  0  0  0
  9 11  1  0  0  0
M  END
> <minimizedAffinity>
-8.12225

$$$$
5MA7_7K0_E_412


 37 37  0  0  0  0  0  0  0  0999 V2000
   11.6614   39.0867   -7.7475 N   0  0  0  0  0  0  0  0  0  0  0  0
   10.9460   38.3615   -7.6962 H   0  0  0  0  0  0  0  0  0  0  0  0
   12.9999   38.4510   -8.6614 P   0  0  0  0  0  0  0  0  0  0  0  0
   13.9444   37.6819   -7.7917 O   0  0  0  0  0  0  0  0  0  0  0  0
   12.4803   37.5700   -9.8220 O   0  0  0  0  0  0  0  0  0  0  0  0
   14.6763   37.3425   -8.3302 H   0  0  0  0  0  0  0  0  0  0  0  0
   13.7373   40.0043   -9.2708 C   0  0  0  0  0  0  0  0  0  0  0  0
   14.6141   40.0425  -11.5988 C   0  0  0  0  0  0  0  0  0  0  0  0
   13.5694   39.9846  -10.7346 N   0  0  0  0  0  0  0  0  0  0  0  0
   15.7839   40.1637  -11.2766 O   0  0  0  0  0  0  0  0  0  0  0  0
   12.6580   39.9268  -11.1023 H   0  0  0  0  0  0  0  0  0  0  0  0
   14.3259   39.9334  -12.9132 O   0  0  0  0  0  0  0  0  0  0  0  0
   15.2164   39.2538  -13.8335 C   0  0  0  0  0  0  0  0  0  0  0  0
   14.5270   37.9892  -14.2688 C   0  0  0  0  0  0  0  0  0  0  0  0
   13.9657   37.0905  -13.3301 C   0  0  0  0  0  0  0  0  0  0  0  0
   13.3370   35.9131  -13.7601 C   0  0  0  0  0  0  0  0  0  0  0  0
   13.2114   35.6359  -15.1206 C   0  0  0  0  0  0  0  0  0  0  0  0
   13.7677   36.5239  -16.0464 C   0  0  0  0  0  0  0  0  0  0  0  0
   14.4169   37.6950  -15.6351 C   0  0  0  0  0  0  0  0  0  0  0  0
   11.9725   39.5272   -6.3414 C   0  0  0  0  0  0  0  0  0  0  0  0
   10.4144   41.3975   -5.9727 N   0  0  0  0  0  0  0  0  0  0  0  0
   11.7617   41.0439   -6.4441 C   0  0  0  0  0  0  0  0  0  0  0  0
   10.2830   42.4065   -6.0443 H   0  0  0  0  0  0  0  0  0  0  0  0
   10.3078   41.1090   -5.0001 H   0  0  0  0  0  0  0  0  0  0  0  0
   11.0171   38.9285   -5.3272 C   0  0  0  0  0  0  0  0  0  0  0  0
   11.0940   39.3445   -4.0353 N   0  0  0  0  0  0  0  0  0  0  0  0
   10.2137   38.0788   -5.6820 O   0  0  0  0  0  0  0  0  0  0  0  0
   11.7743   40.0038   -3.7673 H   0  0  0  0  0  0  0  0  0  0  0  0
   10.1533   38.8029   -3.0377 C   0  0  0  0  0  0  0  0  0  0  0  0
    8.9019   39.7250   -2.9810 C   0  0  0  0  0  0  0  0  0  0  0  0
    9.0516   40.8925   -2.5328 O   0  0  0  0  0  0  0  0  0  0  0  0
    7.8671   39.2109   -3.4709 O   0  0  0  0  0  0  0  0  0  0  0  0
    9.8817   41.1598   -2.1899 H   0  0  0  0  0  0  0  0  0  0  0  0
   10.8350   38.5268   -1.6905 C   0  0  0  0  0  0  0  0  0  0  0  0
   10.1751   37.4834   -0.8158 C   0  0  0  0  0  0  0  0  0  0  0  0
    9.2913   38.0704    0.2912 C   0  0  0  0  0  0  0  0  0  0  0  0
    9.3285   36.5526   -1.6703 C   0  0  0  0  0  0  0  0  0  0  0  0
 18 19  2  0  0  0
 18 17  1  0  0  0
 19 14  1  0  0  0
 17 16  2  0  0  0
 14 13  1  0  0  0
 14 15  2  0  0  0
 16 15  1  0  0  0
 13 12  1  0  0  0
 12  8  1  0  0  0
 10  8  2  0  0  0
  8  9  1  0  0  0
  9  7  1  0  0  0
  7  3  1  0  0  0
  5  3  2  0  0  0
  4  3  1  0  0  0
  3  1  1  0  0  0
 32 30  2  0  0  0
 31 30  1  0  0  0
 30 29  1  0  0  0
 29 26  1  0  0  0
 29 34  1  0  0  0
  1 20  1  0  0  0
 26 25  1  0  0  0
 25 27  2  0  0  0
 25 20  1  0  0  0
 20 22  1  0  0  0
 34 35  1  0  0  0
 35 36  1  0  0  0
 35 37  1  0  0  0
 22 21  1  0  0  0
 21 23  1  0  0  0
 21 24  1  0  0  0
  4  6  1  0  0  0
  1  2  1  0  0  0
 26 28  1  0  0  0
 31 33  1  0  0  0
  9 11  1  0  0  0
M  END
> <minimizedAffinity>
-7.80075

$$$$
5MA7_7K0_E_412


 37 37  0  0  0  0  0  0  0  0999 V2000
   13.6645   37.4440  -12.7969 N   0  0  0  0  0  0  0  0  0  0  0  0
   13.0874   37.1871  -13.5978 H   0  0  0  0  0  0  0  0  0  0  0  0
   15.3299   37.1940  -13.2383 P   0  0  0  0  0  0  0  0  0  0  0  0
   16.1613   36.8096  -12.0547 O   0  0  0  0  0  0  0  0  0  0  0  0
   15.4299   36.1240  -14.3511 O   0  0  0  0  0  0  0  0  0  0  0  0
   17.0808   36.6782  -12.3344 H   0  0  0  0  0  0  0  0  0  0  0  0
   15.7486   38.8568  -13.8610 C   0  0  0  0  0  0  0  0  0  0  0  0
   15.6385   40.2580  -11.8081 C   0  0  0  0  0  0  0  0  0  0  0  0
   16.3624   39.5704  -12.7273 N   0  0  0  0  0  0  0  0  0  0  0  0
   14.4283   40.4049  -11.8367 O   0  0  0  0  0  0  0  0  0  0  0  0
   17.3420   39.5472  -12.6323 H   0  0  0  0  0  0  0  0  0  0  0  0
   16.3189   40.7974  -10.7744 O   0  0  0  0  0  0  0  0  0  0  0  0
   17.3791   41.7639  -10.9828 C   0  0  0  0  0  0  0  0  0  0  0  0
   17.2310   42.8231   -9.9243 C   0  0  0  0  0  0  0  0  0  0  0  0
   16.1014   42.8662   -9.0723 C   0  0  0  0  0  0  0  0  0  0  0  0
   15.9813   43.8696   -8.1000 C   0  0  0  0  0  0  0  0  0  0  0  0
   16.9968   44.8086   -7.9250 C   0  0  0  0  0  0  0  0  0  0  0  0
   18.1112   44.7655   -8.7685 C   0  0  0  0  0  0  0  0  0  0  0  0
   18.2393   43.7829   -9.7586 C   0  0  0  0  0  0  0  0  0  0  0  0
   13.1733   36.6642  -11.6059 C   0  0  0  0  0  0  0  0  0  0  0  0
   12.9780   34.3340  -12.3764 N   0  0  0  0  0  0  0  0  0  0  0  0
   13.8981   35.3252  -11.7989 C   0  0  0  0  0  0  0  0  0  0  0  0
   13.4676   33.4479  -12.5012 H   0  0  0  0  0  0  0  0  0  0  0  0
   12.6427   34.6673  -13.2802 H   0  0  0  0  0  0  0  0  0  0  0  0
   13.5833   37.3024  -10.2927 C   0  0  0  0  0  0  0  0  0  0  0  0
   12.9087   38.4021   -9.8645 N   0  0  0  0  0  0  0  0  0  0  0  0
   14.5145   36.8316   -9.6566 O   0  0  0  0  0  0  0  0  0  0  0  0
   12.1857   38.7840  -10.4129 H   0  0  0  0  0  0  0  0  0  0  0  0
   13.2656   39.0199   -8.5743 C   0  0  0  0  0  0  0  0  0  0  0  0
   12.3651   38.4085   -7.4631 C   0  0  0  0  0  0  0  0  0  0  0  0
   12.9049   38.1168   -6.3631 O   0  0  0  0  0  0  0  0  0  0  0  0
   11.1505   38.3400   -7.7714 O   0  0  0  0  0  0  0  0  0  0  0  0
   13.8309   38.2118   -6.2558 H   0  0  0  0  0  0  0  0  0  0  0  0
   13.2757   40.5529   -8.6506 C   0  0  0  0  0  0  0  0  0  0  0  0
   12.3725   41.2708   -7.6719 C   0  0  0  0  0  0  0  0  0  0  0  0
   13.1258   42.1066   -6.6302 C   0  0  0  0  0  0  0  0  0  0  0  0
   11.4149   42.1818   -8.4245 C   0  0  0  0  0  0  0  0  0  0  0  0
 18 19  2  0  0  0
 18 17  1  0  0  0
 19 14  1  0  0  0
 17 16  2  0  0  0
 14 13  1  0  0  0
 14 15  2  0  0  0
 16 15  1  0  0  0
 13 12  1  0  0  0
 12  8  1  0  0  0
 10  8  2  0  0  0
  8  9  1  0  0  0
  9  7  1  0  0  0
  7  3  1  0  0  0
  5  3  2  0  0  0
  4  3  1  0  0  0
  3  1  1  0  0  0
 32 30  2  0  0  0
 31 30  1  0  0  0
 30 29  1  0  0  0
 29 26  1  0  0  0
 29 34  1  0  0  0
  1 20  1  0  0  0
 26 25  1  0  0  0
 25 27  2  0  0  0
 25 20  1  0  0  0
 20 22  1  0  0  0
 34 35  1  0  0  0
 35 36  1  0  0  0
 35 37  1  0  0  0
 22 21  1  0  0  0
 21 23  1  0  0  0
 21 24  1  0  0  0
  4  6  1  0  0  0
  1  2  1  0  0  0
 26 28  1  0  0  0
 31 33  1  0  0  0
  9 11  1  0  0  0
M  END
> <minimizedAffinity>
-7.71195

$$$$
5MA7_7K0_E_412


 37 37  0  0  0  0  0  0  0  0999 V2000
   11.9566   40.6217   -8.1091 N   0  0  0  0  0  0  0  0  0  0  0  0
   12.2556   40.7827   -9.0710 H   0  0  0  0  0  0  0  0  0  0  0  0
   12.2015   42.0988   -7.2209 P   0  0  0  0  0  0  0  0  0  0  0  0
   12.9564   41.8588   -5.9510 O   0  0  0  0  0  0  0  0  0  0  0  0
   12.9312   43.1366   -8.1062 O   0  0  0  0  0  0  0  0  0  0  0  0
   13.0754   42.6993   -5.4817 H   0  0  0  0  0  0  0  0  0  0  0  0
   10.4685   42.5761   -6.9101 C   0  0  0  0  0  0  0  0  0  0  0  0
    9.0426   41.9377   -4.9738 C   0  0  0  0  0  0  0  0  0  0  0  0
    9.9533   41.6091   -5.9247 N   0  0  0  0  0  0  0  0  0  0  0  0
    8.5894   43.0554   -4.7942 O   0  0  0  0  0  0  0  0  0  0  0  0
   10.2848   40.6827   -5.9577 H   0  0  0  0  0  0  0  0  0  0  0  0
    8.5939   40.9370   -4.1865 O   0  0  0  0  0  0  0  0  0  0  0  0
    8.5890   41.0498   -2.7412 C   0  0  0  0  0  0  0  0  0  0  0  0
    9.1330   39.7590   -2.1916 C   0  0  0  0  0  0  0  0  0  0  0  0
    9.9036   39.7254   -1.0046 C   0  0  0  0  0  0  0  0  0  0  0  0
   10.4083   38.5109   -0.5179 C   0  0  0  0  0  0  0  0  0  0  0  0
   10.1156   37.3131   -1.1685 C   0  0  0  0  0  0  0  0  0  0  0  0
    9.3555   37.3482   -2.3416 C   0  0  0  0  0  0  0  0  0  0  0  0
    8.8597   38.5540   -2.8540 C   0  0  0  0  0  0  0  0  0  0  0  0
   12.6917   39.4125   -7.5942 C   0  0  0  0  0  0  0  0  0  0  0  0
   11.8892   37.7539   -5.9613 N   0  0  0  0  0  0  0  0  0  0  0  0
   11.5277   38.5055   -7.1724 C   0  0  0  0  0  0  0  0  0  0  0  0
   11.1105   37.1542   -5.6883 H   0  0  0  0  0  0  0  0  0  0  0  0
   12.0969   38.4065   -5.2054 H   0  0  0  0  0  0  0  0  0  0  0  0
   13.5202   38.7416   -8.6728 C   0  0  0  0  0  0  0  0  0  0  0  0
   13.5733   39.3147   -9.9043 N   0  0  0  0  0  0  0  0  0  0  0  0
   14.1067   37.6989   -8.4234 O   0  0  0  0  0  0  0  0  0  0  0  0
   13.0627   40.1356  -10.0906 H   0  0  0  0  0  0  0  0  0  0  0  0
   14.3997   38.7004  -10.9594 C   0  0  0  0  0  0  0  0  0  0  0  0
   15.2931   39.8025  -11.5973 C   0  0  0  0  0  0  0  0  0  0  0  0
   16.4003   40.0513  -11.0506 O   0  0  0  0  0  0  0  0  0  0  0  0
   14.8290   40.2836  -12.6594 O   0  0  0  0  0  0  0  0  0  0  0  0
   16.6346   39.6230  -10.2508 H   0  0  0  0  0  0  0  0  0  0  0  0
   13.5601   37.8752  -11.9443 C   0  0  0  0  0  0  0  0  0  0  0  0
   14.2166   36.6257  -12.4892 C   0  0  0  0  0  0  0  0  0  0  0  0
   14.8330   35.7275  -11.4101 C   0  0  0  0  0  0  0  0  0  0  0  0
   13.2029   35.8109  -13.2778 C   0  0  0  0  0  0  0  0  0  0  0  0
 18 19  2  0  0  0
 18 17  1  0  0  0
 19 14  1  0  0  0
 17 16  2  0  0  0
 14 13  1  0  0  0
 14 15  2  0  0  0
 16 15  1  0  0  0
 13 12  1  0  0  0
 12  8  1  0  0  0
 10  8  2  0  0  0
  8  9  1  0  0  0
  9  7  1  0  0  0
  7  3  1  0  0  0
  5  3  2  0  0  0
  4  3  1  0  0  0
  3  1  1  0  0  0
 32 30  2  0  0  0
 31 30  1  0  0  0
 30 29  1  0  0  0
 29 26  1  0  0  0
 29 34  1  0  0  0
  1 20  1  0  0  0
 26 25  1  0  0  0
 25 27  2  0  0  0
 25 20  1  0  0  0
 20 22  1  0  0  0
 34 35  1  0  0  0
 35 36  1  0  0  0
 35 37  1  0  0  0
 22 21  1  0  0  0
 21 23  1  0  0  0
 21 24  1  0  0  0
  4  6  1  0  0  0
  1  2  1  0  0  0
 26 28  1  0  0  0
 31 33  1  0  0  0
  9 11  1  0  0  0
M  END
> <minimizedAffinity>
-7.63432

$$$$
5MA7_7K0_E_412


 37 37  0  0  0  0  0  0  0  0999 V2000
   11.4541   40.1421   -8.1157 N   0  0  0  0  0  0  0  0  0  0  0  0
   11.2060   39.6838   -8.9926 H   0  0  0  0  0  0  0  0  0  0  0  0
   11.7523   41.8226   -8.4586 P   0  0  0  0  0  0  0  0  0  0  0  0
   12.6070   41.9929   -9.6755 O   0  0  0  0  0  0  0  0  0  0  0  0
   10.4121   42.5785   -8.6182 O   0  0  0  0  0  0  0  0  0  0  0  0
   12.7535   42.9379   -9.8380 H   0  0  0  0  0  0  0  0  0  0  0  0
   12.6250   42.3103   -6.9327 C   0  0  0  0  0  0  0  0  0  0  0  0
   14.5860   43.8216   -6.6872 C   0  0  0  0  0  0  0  0  0  0  0  0
   13.9264   42.8489   -7.3657 N   0  0  0  0  0  0  0  0  0  0  0  0
   14.1688   44.3865   -5.6902 O   0  0  0  0  0  0  0  0  0  0  0  0
   14.3360   42.4867   -8.1844 H   0  0  0  0  0  0  0  0  0  0  0  0
   15.8075   44.1662   -7.1474 O   0  0  0  0  0  0  0  0  0  0  0  0
   15.9862   44.7701   -8.4532 C   0  0  0  0  0  0  0  0  0  0  0  0
   17.4178   44.5433   -8.8570 C   0  0  0  0  0  0  0  0  0  0  0  0
   18.4735   45.3073   -8.3039 C   0  0  0  0  0  0  0  0  0  0  0  0
   19.7989   45.0840   -8.7040 C   0  0  0  0  0  0  0  0  0  0  0  0
   20.1009   44.0723   -9.6143 C   0  0  0  0  0  0  0  0  0  0  0  0
   19.0568   43.3196  -10.1607 C   0  0  0  0  0  0  0  0  0  0  0  0
   17.7247   43.5416   -9.7884 C   0  0  0  0  0  0  0  0  0  0  0  0
   12.6005   39.3796   -7.5056 C   0  0  0  0  0  0  0  0  0  0  0  0
   10.4045   38.5199   -6.7985 N   0  0  0  0  0  0  0  0  0  0  0  0
   11.8570   38.3515   -6.6421 C   0  0  0  0  0  0  0  0  0  0  0  0
    9.9185   37.8332   -6.2217 H   0  0  0  0  0  0  0  0  0  0  0  0
   10.1497   38.3834   -7.7767 H   0  0  0  0  0  0  0  0  0  0  0  0
   13.4456   38.6785   -8.5517 C   0  0  0  0  0  0  0  0  0  0  0  0
   13.4518   39.1690   -9.8195 N   0  0  0  0  0  0  0  0  0  0  0  0
   14.0869   37.6849   -8.2439 O   0  0  0  0  0  0  0  0  0  0  0  0
   12.8982   39.9494  -10.0510 H   0  0  0  0  0  0  0  0  0  0  0  0
   14.2922   38.5258  -10.8459 C   0  0  0  0  0  0  0  0  0  0  0  0
   15.3537   39.5521  -11.3354 C   0  0  0  0  0  0  0  0  0  0  0  0
   16.2362   39.1477  -12.1381 O   0  0  0  0  0  0  0  0  0  0  0  0
   15.1626   40.7207  -10.9198 O   0  0  0  0  0  0  0  0  0  0  0  0
   16.2761   38.2414  -12.3728 H   0  0  0  0  0  0  0  0  0  0  0  0
   13.4536   37.8630  -11.9474 C   0  0  0  0  0  0  0  0  0  0  0  0
   13.4825   36.3507  -11.9823 C   0  0  0  0  0  0  0  0  0  0  0  0
   13.3657   35.7601  -13.3926 C   0  0  0  0  0  0  0  0  0  0  0  0
   14.7689   35.8433  -11.3489 C   0  0  0  0  0  0  0  0  0  0  0  0
 18 19  2  0  0  0
 18 17  1  0  0  0
 19 14  1  0  0  0
 17 16  2  0  0  0
 14 13  1  0  0  0
 14 15  2  0  0  0
 16 15  1  0  0  0
 13 12  1  0  0  0
 12  8  1  0  0  0
 10  8  2  0  0  0
  8  9  1  0  0  0
  9  7  1  0  0  0
  7  3  1  0  0  0
  5  3  2  0  0  0
  4  3  1  0  0  0
  3  1  1  0  0  0
 32 30  2  0  0  0
 31 30  1  0  0  0
 30 29  1  0  0  0
 29 26  1  0  0  0
 29 34  1  0  0  0
  1 20  1  0  0  0
 26 25  1  0  0  0
 25 27  2  0  0  0
 25 20  1  0  0  0
 20 22  1  0  0  0
 34 35  1  0  0  0
 35 36  1  0  0  0
 35 37  1  0  0  0
 22 21  1  0  0  0
 21 23  1  0  0  0
 21 24  1  0  0  0
  4  6  1  0  0  0
  1  2  1  0  0  0
 26 28  1  0  0  0
 31 33  1  0  0  0
  9 11  1  0  0  0
M  END
> <minimizedAffinity>
-7.59411

$$$$
5MA7_7K0_E_412


 37 37  0  0  0  0  0  0  0  0999 V2000
   13.8188   40.2005   -8.8915 N   0  0  0  0  0  0  0  0  0  0  0  0
   14.2209   39.3003   -8.6301 H   0  0  0  0  0  0  0  0  0  0  0  0
   12.2009   40.2671   -8.2521 P   0  0  0  0  0  0  0  0  0  0  0  0
   11.3165   41.1439   -9.0823 O   0  0  0  0  0  0  0  0  0  0  0  0
   11.6135   38.8401   -8.1427 O   0  0  0  0  0  0  0  0  0  0  0  0
   10.4252   41.1590   -8.6999 H   0  0  0  0  0  0  0  0  0  0  0  0
   12.5355   40.9871   -6.6098 C   0  0  0  0  0  0  0  0  0  0  0  0
   10.4173   40.7109   -5.3344 C   0  0  0  0  0  0  0  0  0  0  0  0
   11.6571   40.2713   -5.6678 N   0  0  0  0  0  0  0  0  0  0  0  0
    9.9133   41.7498   -5.7265 O   0  0  0  0  0  0  0  0  0  0  0  0
   11.9845   39.4362   -5.2620 H   0  0  0  0  0  0  0  0  0  0  0  0
    9.6856   39.9173   -4.5235 O   0  0  0  0  0  0  0  0  0  0  0  0
   10.0379   38.5295   -4.2970 C   0  0  0  0  0  0  0  0  0  0  0  0
    9.8996   38.2696   -2.8214 C   0  0  0  0  0  0  0  0  0  0  0  0
   10.4371   39.1579   -1.8591 C   0  0  0  0  0  0  0  0  0  0  0  0
   10.3040   38.8887   -0.4893 C   0  0  0  0  0  0  0  0  0  0  0  0
    9.5966   37.7685   -0.0553 C   0  0  0  0  0  0  0  0  0  0  0  0
    9.0677   36.8913   -1.0071 C   0  0  0  0  0  0  0  0  0  0  0  0
    9.2078   37.1331   -2.3797 C   0  0  0  0  0  0  0  0  0  0  0  0
   13.9445   40.3451  -10.3851 C   0  0  0  0  0  0  0  0  0  0  0  0
   16.3957   40.4219  -10.1676 N   0  0  0  0  0  0  0  0  0  0  0  0
   15.2033   41.2151  -10.5018 C   0  0  0  0  0  0  0  0  0  0  0  0
   17.2270   41.0075  -10.2477 H   0  0  0  0  0  0  0  0  0  0  0  0
   16.4714   39.6342  -10.8112 H   0  0  0  0  0  0  0  0  0  0  0  0
   14.1579   39.0117  -11.0754 C   0  0  0  0  0  0  0  0  0  0  0  0
   14.9104   38.9772  -12.2070 N   0  0  0  0  0  0  0  0  0  0  0  0
   13.6412   38.0040  -10.6163 O   0  0  0  0  0  0  0  0  0  0  0  0
   15.2859   39.8086  -12.5772 H   0  0  0  0  0  0  0  0  0  0  0  0
   15.1611   37.6881  -12.8769 C   0  0  0  0  0  0  0  0  0  0  0  0
   16.6884   37.3958  -12.8392 C   0  0  0  0  0  0  0  0  0  0  0  0
   17.4485   38.2962  -12.3940 O   0  0  0  0  0  0  0  0  0  0  0  0
   16.9941   36.2333  -13.1996 O   0  0  0  0  0  0  0  0  0  0  0  0
   17.0965   39.1316  -12.1571 H   0  0  0  0  0  0  0  0  0  0  0  0
   14.5071   37.6205  -14.2638 C   0  0  0  0  0  0  0  0  0  0  0  0
   13.5054   36.5056  -14.4702 C   0  0  0  0  0  0  0  0  0  0  0  0
   13.8546   35.5641  -15.6289 C   0  0  0  0  0  0  0  0  0  0  0  0
   13.3783   35.6824  -13.1976 C   0  0  0  0  0  0  0  0  0  0  0  0
 18 19  2  0  0  0
 18 17  1  0  0  0
 19 14  1  0  0  0
 17 16  2  0  0  0
 14 13  1  0  0  0
 14 15  2  0  0  0
 16 15  1  0  0  0
 13 12  1  0  0  0
 12  8  1  0  0  0
 10  8  2  0  0  0
  8  9  1  0  0  0
  9  7  1  0  0  0
  7  3  1  0  0  0
  5  3  2  0  0  0
  4  3  1  0  0  0
  3  1  1  0  0  0
 32 30  2  0  0  0
 31 30  1  0  0  0
 30 29  1  0  0  0
 29 26  1  0  0  0
 29 34  1  0  0  0
  1 20  1  0  0  0
 26 25  1  0  0  0
 25 27  2  0  0  0
 25 20  1  0  0  0
 20 22  1  0  0  0
 34 35  1  0  0  0
 35 36  1  0  0  0
 35 37  1  0  0  0
 22 21  1  0  0  0
 21 23  1  0  0  0
 21 24  1  0  0  0
  4  6  1  0  0  0
  1  2  1  0  0  0
 26 28  1  0  0  0
 31 33  1  0  0  0
  9 11  1  0  0  0
M  END
> <minimizedAffinity>
-7.38930

$$$$
5MA7_7K0_E_412


 37 37  0  0  0  0  0  0  0  0999 V2000
   12.3604   39.2884   -8.9669 N   0  0  0  0  0  0  0  0  0  0  0  0
   11.7048   39.1052   -9.7265 H   0  0  0  0  0  0  0  0  0  0  0  0
   12.2666   40.9830   -8.5792 P   0  0  0  0  0  0  0  0  0  0  0  0
   13.1875   41.7953   -9.4350 O   0  0  0  0  0  0  0  0  0  0  0  0
   10.8079   41.4797   -8.7164 O   0  0  0  0  0  0  0  0  0  0  0  0
   13.1109   42.7317   -9.1941 H   0  0  0  0  0  0  0  0  0  0  0  0
   12.8049   40.9426   -6.8367 C   0  0  0  0  0  0  0  0  0  0  0  0
   11.0217   39.6811   -5.6458 C   0  0  0  0  0  0  0  0  0  0  0  0
   11.5718   40.8592   -6.0344 N   0  0  0  0  0  0  0  0  0  0  0  0
   11.4439   38.5774   -5.9473 O   0  0  0  0  0  0  0  0  0  0  0  0
   11.1268   41.6960   -5.7682 H   0  0  0  0  0  0  0  0  0  0  0  0
    9.9370   39.7484   -4.8449 O   0  0  0  0  0  0  0  0  0  0  0  0
    9.2470   38.5549   -4.3964 C   0  0  0  0  0  0  0  0  0  0  0  0
    9.4979   38.4238   -2.9186 C   0  0  0  0  0  0  0  0  0  0  0  0
    9.3243   37.1915   -2.2440 C   0  0  0  0  0  0  0  0  0  0  0  0
    9.5547   37.0970   -0.8640 C   0  0  0  0  0  0  0  0  0  0  0  0
   10.0068   38.2032   -0.1461 C   0  0  0  0  0  0  0  0  0  0  0  0
   10.1763   39.4201   -0.8136 C   0  0  0  0  0  0  0  0  0  0  0  0
    9.9319   39.5387   -2.1878 C   0  0  0  0  0  0  0  0  0  0  0  0
   13.7132   38.7831   -9.3939 C   0  0  0  0  0  0  0  0  0  0  0  0
   13.7671   37.6567   -7.2053 N   0  0  0  0  0  0  0  0  0  0  0  0
   13.7812   37.4373   -8.6593 C   0  0  0  0  0  0  0  0  0  0  0  0
   13.8125   36.7578   -6.7254 H   0  0  0  0  0  0  0  0  0  0  0  0
   12.9078   38.1394   -6.9426 H   0  0  0  0  0  0  0  0  0  0  0  0
   13.8005   38.5717  -10.8931 C   0  0  0  0  0  0  0  0  0  0  0  0
   14.0338   37.3171  -11.3614 N   0  0  0  0  0  0  0  0  0  0  0  0
   13.6774   39.5262  -11.6462 O   0  0  0  0  0  0  0  0  0  0  0  0
   14.1655   36.5707  -10.7330 H   0  0  0  0  0  0  0  0  0  0  0  0
   14.0884   37.0800  -12.8155 C   0  0  0  0  0  0  0  0  0  0  0  0
   13.4718   35.6840  -13.1162 C   0  0  0  0  0  0  0  0  0  0  0  0
   13.6679   34.7622  -12.2803 O   0  0  0  0  0  0  0  0  0  0  0  0
   12.7657   35.6511  -14.1531 O   0  0  0  0  0  0  0  0  0  0  0  0
   14.2219   34.9116  -11.5396 H   0  0  0  0  0  0  0  0  0  0  0  0
   15.4917   37.3223  -13.3883 C   0  0  0  0  0  0  0  0  0  0  0  0
   15.5536   38.1116  -14.6777 C   0  0  0  0  0  0  0  0  0  0  0  0
   15.8568   37.2573  -15.9144 C   0  0  0  0  0  0  0  0  0  0  0  0
   14.2372   38.8397  -14.9019 C   0  0  0  0  0  0  0  0  0  0  0  0
 18 19  2  0  0  0
 18 17  1  0  0  0
 19 14  1  0  0  0
 17 16  2  0  0  0
 14 13  1  0  0  0
 14 15  2  0  0  0
 16 15  1  0  0  0
 13 12  1  0  0  0
 12  8  1  0  0  0
 10  8  2  0  0  0
  8  9  1  0  0  0
  9  7  1  0  0  0
  7  3  1  0  0  0
  5  3  2  0  0  0
  4  3  1  0  0  0
  3  1  1  0  0  0
 32 30  2  0  0  0
 31 30  1  0  0  0
 30 29  1  0  0  0
 29 26  1  0  0  0
 29 34  1  0  0  0
  1 20  1  0  0  0
 26 25  1  0  0  0
 25 27  2  0  0  0
 25 20  1  0  0  0
 20 22  1  0  0  0
 34 35  1  0  0  0
 35 36  1  0  0  0
 35 37  1  0  0  0
 22 21  1  0  0  0
 21 23  1  0  0  0
 21 24  1  0  0  0
  4  6  1  0  0  0
  1  2  1  0  0  0
 26 28  1  0  0  0
 31 33  1  0  0  0
  9 11  1  0  0  0
M  END
> <minimizedAffinity>
-7.36172

$$$$
5MA7_7K0_E_412


 37 37  0  0  0  0  0  0  0  0999 V2000
   12.5770   40.8110   -6.7464 N   0  0  0  0  0  0  0  0  0  0  0  0
   12.8058   40.9576   -5.7632 H   0  0  0  0  0  0  0  0  0  0  0  0
   12.8005   42.3248   -7.5767 P   0  0  0  0  0  0  0  0  0  0  0  0
   12.1212   43.4504   -6.8615 O   0  0  0  0  0  0  0  0  0  0  0  0
   14.3095   42.6166   -7.7529 O   0  0  0  0  0  0  0  0  0  0  0  0
   12.2649   44.2767   -7.3489 H   0  0  0  0  0  0  0  0  0  0  0  0
   11.9973   41.9380   -9.1683 C   0  0  0  0  0  0  0  0  0  0  0  0
   13.5263   41.2728  -11.0148 C   0  0  0  0  0  0  0  0  0  0  0  0
   12.8905   40.9853   -9.8509 N   0  0  0  0  0  0  0  0  0  0  0  0
   13.4000   42.3093  -11.6446 O   0  0  0  0  0  0  0  0  0  0  0  0
   13.0323   40.1000   -9.4442 H   0  0  0  0  0  0  0  0  0  0  0  0
   14.3796   40.3411  -11.4907 O   0  0  0  0  0  0  0  0  0  0  0  0
   14.2704   39.8290  -12.8425 C   0  0  0  0  0  0  0  0  0  0  0  0
   13.9253   38.3681  -12.7392 C   0  0  0  0  0  0  0  0  0  0  0  0
   13.4818   37.7958  -11.5227 C   0  0  0  0  0  0  0  0  0  0  0  0
   13.1759   36.4293  -11.4490 C   0  0  0  0  0  0  0  0  0  0  0  0
   13.2559   35.6254  -12.5852 C   0  0  0  0  0  0  0  0  0  0  0  0
   13.6956   36.1919  -13.7856 C   0  0  0  0  0  0  0  0  0  0  0  0
   14.0248   37.5506  -13.8737 C   0  0  0  0  0  0  0  0  0  0  0  0
   11.1940   40.2190   -6.8144 C   0  0  0  0  0  0  0  0  0  0  0  0
   12.6056   38.3312   -6.1037 N   0  0  0  0  0  0  0  0  0  0  0  0
   11.5097   38.7287   -7.0001 C   0  0  0  0  0  0  0  0  0  0  0  0
   12.8087   37.3401   -6.2336 H   0  0  0  0  0  0  0  0  0  0  0  0
   12.3306   38.4979   -5.1357 H   0  0  0  0  0  0  0  0  0  0  0  0
   10.4119   40.4378   -5.5337 C   0  0  0  0  0  0  0  0  0  0  0  0
   10.2129   39.3801   -4.7033 N   0  0  0  0  0  0  0  0  0  0  0  0
    9.9643   41.5465   -5.2808 O   0  0  0  0  0  0  0  0  0  0  0  0
   10.5526   38.4888   -4.9470 H   0  0  0  0  0  0  0  0  0  0  0  0
    9.4857   39.5750   -3.4357 C   0  0  0  0  0  0  0  0  0  0  0  0
    9.7853   38.3697   -2.4991 C   0  0  0  0  0  0  0  0  0  0  0  0
    8.9410   37.4361   -2.4539 O   0  0  0  0  0  0  0  0  0  0  0  0
   10.9030   38.4305   -1.9318 O   0  0  0  0  0  0  0  0  0  0  0  0
    8.1350   37.5101   -2.9259 H   0  0  0  0  0  0  0  0  0  0  0  0
    7.9996   39.8841   -3.6636 C   0  0  0  0  0  0  0  0  0  0  0  0
    7.4422   41.0609   -2.8932 C   0  0  0  0  0  0  0  0  0  0  0  0
    8.4946   41.8268   -2.0827 C   0  0  0  0  0  0  0  0  0  0  0  0
    6.7655   42.0311   -3.8492 C   0  0  0  0  0  0  0  0  0  0  0  0
 18 19  2  0  0  0
 18 17  1  0  0  0
 19 14  1  0  0  0
 17 16  2  0  0  0
 14 13  1  0  0  0
 14 15  2  0  0  0
 16 15  1  0  0  0
 13 12  1  0  0  0
 12  8  1  0  0  0
 10  8  2  0  0  0
  8  9  1  0  0  0
  9  7  1  0  0  0
  7  3  1  0  0  0
  5  3  2  0  0  0
  4  3  1  0  0  0
  3  1  1  0  0  0
 32 30  2  0  0  0
 31 30  1  0  0  0
 30 29  1  0  0  0
 29 26  1  0  0  0
 29 34  1  0  0  0
  1 20  1  0  0  0
 26 25  1  0  0  0
 25 27  2  0  0  0
 25 20  1  0  0  0
 20 22  1  0  0  0
 34 35  1  0  0  0
 35 36  1  0  0  0
 35 37  1  0  0  0
 22 21  1  0  0  0
 21 23  1  0  0  0
 21 24  1  0  0  0
  4  6  1  0  0  0
  1  2  1  0  0  0
 26 28  1  0  0  0
 31 33  1  0  0  0
  9 11  1  0  0  0
M  END
> <minimizedAffinity>
-7.34322

$$$$
