4LXD_1XV_A_301


 50 55  0  0  0  0  0  0  0  0999 V2000
   22.6841   31.4486   12.8516 C   0  0  0  0  0  0  0  0  0  0  0  0
   23.6602   33.5083   12.0907 C   0  0  0  0  0  0  0  0  0  0  0  0
   23.6831   30.7358   12.2016 C   0  0  0  0  0  0  0  0  0  0  0  0
   24.6424   32.7784   11.4424 C   0  0  0  0  0  0  0  0  0  0  0  0
   22.6844   32.8278   12.7920 C   0  0  0  0  0  0  0  0  0  0  0  0
   24.6774   31.3871   11.4848 C   0  0  0  0  0  0  0  0  0  0  0  0
   25.4472   29.2259   10.5446 C   0  0  0  0  0  0  0  0  0  0  0  0
   27.0746   31.0518   11.0893 C   0  0  0  0  0  0  0  0  0  0  0  0
   26.3554   28.7694    9.4120 C   0  0  0  0  0  0  0  0  0  0  0  0
   28.0393   30.5221   10.0258 C   0  0  0  0  0  0  0  0  0  0  0  0
   25.6983   30.6534   10.7830 N   0  0  0  0  0  0  0  0  0  0  0  0
   27.7796   29.0683    9.7728 N   0  0  0  0  0  0  0  0  0  0  0  0
   28.8006   28.4968    8.8216 C   0  0  0  0  0  0  0  0  0  0  0  0
   28.1967   26.8285    7.0102 C   0  0  0  0  0  0  0  0  0  0  0  0
   28.5300   27.1213    8.2898 C   0  0  0  0  0  0  0  0  0  0  0  0
   27.9168   25.4282    6.5549 C   0  0  0  0  0  0  0  0  0  0  0  0
   28.6757   26.0120    9.2893 C   0  0  0  0  0  0  0  0  0  0  0  0
   28.2581   24.3891    7.6126 C   0  0  0  0  0  0  0  0  0  0  0  0
   27.9097   24.8545    8.9174 O   0  0  0  0  0  0  0  0  0  0  0  0
   29.2479   28.2604    5.3067 C   0  0  0  0  0  0  0  0  0  0  0  0
   26.8506   28.2101    5.4585 C   0  0  0  0  0  0  0  0  0  0  0  0
   27.8231   30.6475    2.4775 Cl  0  0  0  0  0  0  0  0  0  0  0  0
   29.1670   29.1435    4.2502 C   0  0  0  0  0  0  0  0  0  0  0  0
   26.7694   29.1055    4.4150 C   0  0  0  0  0  0  0  0  0  0  0  0
   28.0922   27.8020    5.9207 C   0  0  0  0  0  0  0  0  0  0  0  0
   27.9231   29.5572    3.8113 C   0  0  0  0  0  0  0  0  0  0  0  0
   21.6050   33.6056   13.4402 C   0  0  0  0  0  0  0  0  0  0  0  0
   21.2271   34.7352   12.7041 N   0  0  0  0  0  0  0  0  0  0  0  0
   21.1329   33.3450   14.5349 O   0  0  0  0  0  0  0  0  0  0  0  0
   21.5543   34.8307   11.7805 H   0  0  0  0  0  0  0  0  0  0  0  0
   18.8699   35.4310   13.3735 O   0  0  0  0  0  0  0  0  0  0  0  0
   20.8097   36.4131   14.5921 O   0  0  0  0  0  0  0  0  0  0  0  0
   20.2325   35.9375   13.3414 S   0  0  0  0  0  0  0  0  0  0  0  0
   19.8529   39.5138   11.4931 C   0  0  0  0  0  0  0  0  0  0  0  0
   19.7562   38.5003   12.4323 C   0  0  0  0  0  0  0  0  0  0  0  0
   20.9794   37.0394   10.9784 C   0  0  0  0  0  0  0  0  0  0  0  0
   20.5314   39.3220   10.2938 C   0  0  0  0  0  0  0  0  0  0  0  0
   21.0827   38.0657   10.0648 C   0  0  0  0  0  0  0  0  0  0  0  0
   20.3385   37.2748   12.1740 C   0  0  0  0  0  0  0  0  0  0  0  0
   21.7999   37.7238    8.8446 N   0  0  0  0  0  0  0  0  0  0  0  0
   22.6444   38.5198    8.4377 O   0  0  0  0  0  0  0  0  0  0  0  0
   21.5434   36.6688    8.2763 O   0  0  0  0  0  0  0  0  0  0  0  0
   20.6646   40.3212    9.2994 N   0  0  0  0  0  0  0  0  0  0  0  0
   21.5560   40.5553    8.9532 H   0  0  0  0  0  0  0  0  0  0  0  0
   18.5757   40.0183    8.0642 C   0  0  0  0  0  0  0  0  0  0  0  0
   19.9419   42.0659    7.7791 C   0  0  0  0  0  0  0  0  0  0  0  0
   17.4187   40.7660    7.4179 C   0  0  0  0  0  0  0  0  0  0  0  0
   18.7766   42.6597    6.9888 C   0  0  0  0  0  0  0  0  0  0  0  0
   19.4754   41.0071    8.7852 C   0  0  0  0  0  0  0  0  0  0  0  0
   17.9369   41.6364    6.4171 O   0  0  0  0  0  0  0  0  0  0  0  0
 23 20  2  0  0  0
 20 25  1  0  0  0
 24 21  1  0  0  0
 21 25  2  0  0  0
  3  1  2  0  0  0
  1  5  1  0  0  0
  4  2  1  0  0  0
  2  5  2  0  0  0
 22 26  1  0  0  0
  6  3  1  0  0  0
  6  4  2  0  0  0
 37 34  2  0  0  0
 34 35  1  0  0  0
 39 35  2  0  0  0
 26 23  1  0  0  0
 26 24  2  0  0  0
 38 36  2  0  0  0
 36 39  1  0  0  0
 25 14  1  0  0  0
  5 27  1  0  0  0
 11  6  1  0  0  0
 43 37  1  0  0  0
 38 37  1  0  0  0
 40 38  1  0  0  0
 39 33  1  0  0  0
 16 14  1  0  0  0
 14 15  2  0  0  0
 15 13  1  0  0  0
 15 17  1  0  0  0
 28 27  1  0  0  0
 27 29  2  0  0  0
 16 18  1  0  0  0
 19 17  1  0  0  0
 49 45  1  0  0  0
 45 47  1  0  0  0
 46 48  1  0  0  0
 46 49  1  0  0  0
  9  7  1  0  0  0
  7 11  1  0  0  0
 10  8  1  0  0  0
 11  8  1  0  0  0
  9 12  1  0  0  0
 12 10  1  0  0  0
 18 19  1  0  0  0
 50 47  1  0  0  0
 48 50  1  0  0  0
 43 49  1  0  0  0
 13 12  1  0  0  0
 28 33  1  0  0  0
 42 40  1  0  0  0
 41 40  2  0  0  0
 31 33  2  0  0  0
 33 32  2  0  0  0
 43 44  1  0  0  0
 28 30  1  0  0  0
M  CHG 1  40   1
M  CHG 1  42  -1
M  END
> <minimizedAffinity>
-10.67853

$$$$
4LXD_1XV_A_301


 50 55  0  0  0  0  0  0  0  0999 V2000
   24.1507   33.2260   11.6371 C   0  0  0  0  0  0  0  0  0  0  0  0
   23.7640   33.3640   14.0047 C   0  0  0  0  0  0  0  0  0  0  0  0
   23.4751   34.4259   11.4575 C   0  0  0  0  0  0  0  0  0  0  0  0
   23.0863   34.5547   13.8029 C   0  0  0  0  0  0  0  0  0  0  0  0
   24.2910   32.7086   12.9093 C   0  0  0  0  0  0  0  0  0  0  0  0
   22.9298   35.1095   12.5355 C   0  0  0  0  0  0  0  0  0  0  0  0
   20.7355   36.2464   12.3360 C   0  0  0  0  0  0  0  0  0  0  0  0
   22.8252   37.3037   11.4446 C   0  0  0  0  0  0  0  0  0  0  0  0
   20.1725   37.6301   12.6266 C   0  0  0  0  0  0  0  0  0  0  0  0
   22.2126   38.6938   11.6310 C   0  0  0  0  0  0  0  0  0  0  0  0
   22.2014   36.3380   12.3530 N   0  0  0  0  0  0  0  0  0  0  0  0
   20.7171   38.6029   11.6241 N   0  0  0  0  0  0  0  0  0  0  0  0
   20.0944   39.9752   11.6797 C   0  0  0  0  0  0  0  0  0  0  0  0
   19.0738   39.6530    9.3811 C   0  0  0  0  0  0  0  0  0  0  0  0
   19.2351   40.3726   10.5171 C   0  0  0  0  0  0  0  0  0  0  0  0
   18.2147   40.1259    8.2476 C   0  0  0  0  0  0  0  0  0  0  0  0
   18.4975   41.6683   10.6837 C   0  0  0  0  0  0  0  0  0  0  0  0
   17.3993   41.3594    8.6057 C   0  0  0  0  0  0  0  0  0  0  0  0
   18.1592   42.2566    9.4171 O   0  0  0  0  0  0  0  0  0  0  0  0
   20.9545   38.2761    8.5911 C   0  0  0  0  0  0  0  0  0  0  0  0
   19.0005   37.1796    9.4583 C   0  0  0  0  0  0  0  0  0  0  0  0
   21.6200   34.3682    8.4549 Cl  0  0  0  0  0  0  0  0  0  0  0  0
   21.5528   37.0515    8.3786 C   0  0  0  0  0  0  0  0  0  0  0  0
   19.5902   35.9560    9.2301 C   0  0  0  0  0  0  0  0  0  0  0  0
   19.6740   38.3427    9.1188 C   0  0  0  0  0  0  0  0  0  0  0  0
   20.8628   35.8987    8.7039 C   0  0  0  0  0  0  0  0  0  0  0  0
   24.9688   31.4099   13.1189 C   0  0  0  0  0  0  0  0  0  0  0  0
   25.7233   31.0018   12.0122 N   0  0  0  0  0  0  0  0  0  0  0  0
   24.8369   30.7194   14.1165 O   0  0  0  0  0  0  0  0  0  0  0  0
   25.8890   31.6471   11.2873 H   0  0  0  0  0  0  0  0  0  0  0  0
   27.2856   29.2355   12.9755 O   0  0  0  0  0  0  0  0  0  0  0  0
   25.2603   28.5008   11.7222 O   0  0  0  0  0  0  0  0  0  0  0  0
   26.3583   29.4465   11.8756 S   0  0  0  0  0  0  0  0  0  0  0  0
   28.6765   30.5329    8.7457 C   0  0  0  0  0  0  0  0  0  0  0  0
   27.9993   30.5578    9.9539 C   0  0  0  0  0  0  0  0  0  0  0  0
   27.1500   28.3589    9.5205 C   0  0  0  0  0  0  0  0  0  0  0  0
   28.6258   29.4184    7.9146 C   0  0  0  0  0  0  0  0  0  0  0  0
   27.8467   28.3444    8.3318 C   0  0  0  0  0  0  0  0  0  0  0  0
   27.2557   29.4601   10.3403 C   0  0  0  0  0  0  0  0  0  0  0  0
   27.6897   27.1262    7.5498 N   0  0  0  0  0  0  0  0  0  0  0  0
   26.7198   27.0530    6.7973 O   0  0  0  0  0  0  0  0  0  0  0  0
   28.5191   26.2314    7.6643 O   0  0  0  0  0  0  0  0  0  0  0  0
   29.2989   29.3356    6.6716 N   0  0  0  0  0  0  0  0  0  0  0  0
   30.2601   29.1240    6.6455 H   0  0  0  0  0  0  0  0  0  0  0  0
   28.8263   28.4283    4.4503 C   0  0  0  0  0  0  0  0  0  0  0  0
   29.0860   30.8670    4.8043 C   0  0  0  0  0  0  0  0  0  0  0  0
   28.1726   28.7469    3.1137 C   0  0  0  0  0  0  0  0  0  0  0  0
   28.5799   31.0663    3.3762 C   0  0  0  0  0  0  0  0  0  0  0  0
   28.5649   29.5647    5.4235 C   0  0  0  0  0  0  0  0  0  0  0  0
   28.8000   29.8988    2.5592 O   0  0  0  0  0  0  0  0  0  0  0  0
 23 20  2  0  0  0
 20 25  1  0  0  0
 24 21  1  0  0  0
 21 25  2  0  0  0
  3  1  2  0  0  0
  1  5  1  0  0  0
  4  2  1  0  0  0
  2  5  2  0  0  0
 22 26  1  0  0  0
  6  3  1  0  0  0
  6  4  2  0  0  0
 37 34  2  0  0  0
 34 35  1  0  0  0
 39 35  2  0  0  0
 26 23  1  0  0  0
 26 24  2  0  0  0
 38 36  2  0  0  0
 36 39  1  0  0  0
 25 14  1  0  0  0
  5 27  1  0  0  0
 11  6  1  0  0  0
 43 37  1  0  0  0
 38 37  1  0  0  0
 40 38  1  0  0  0
 39 33  1  0  0  0
 16 14  1  0  0  0
 14 15  2  0  0  0
 15 13  1  0  0  0
 15 17  1  0  0  0
 28 27  1  0  0  0
 27 29  2  0  0  0
 16 18  1  0  0  0
 19 17  1  0  0  0
 49 45  1  0  0  0
 45 47  1  0  0  0
 46 48  1  0  0  0
 46 49  1  0  0  0
  9  7  1  0  0  0
  7 11  1  0  0  0
 10  8  1  0  0  0
 11  8  1  0  0  0
  9 12  1  0  0  0
 12 10  1  0  0  0
 18 19  1  0  0  0
 50 47  1  0  0  0
 48 50  1  0  0  0
 43 49  1  0  0  0
 13 12  1  0  0  0
 28 33  1  0  0  0
 42 40  1  0  0  0
 41 40  2  0  0  0
 31 33  2  0  0  0
 33 32  2  0  0  0
 43 44  1  0  0  0
 28 30  1  0  0  0
M  CHG 1  40   1
M  CHG 1  42  -1
M  END
> <minimizedAffinity>
-9.18857

$$$$
4LXD_1XV_A_301


 50 55  0  0  0  0  0  0  0  0999 V2000
   26.4802   31.8403   14.1358 C   0  0  0  0  0  0  0  0  0  0  0  0
   24.9722   32.3008   12.3225 C   0  0  0  0  0  0  0  0  0  0  0  0
   27.2781   31.0911   13.2810 C   0  0  0  0  0  0  0  0  0  0  0  0
   25.7770   31.5424   11.4889 C   0  0  0  0  0  0  0  0  0  0  0  0
   25.3368   32.4401   13.6472 C   0  0  0  0  0  0  0  0  0  0  0  0
   26.9399   30.9273   11.9449 C   0  0  0  0  0  0  0  0  0  0  0  0
   29.2012   30.3107   11.1362 C   0  0  0  0  0  0  0  0  0  0  0  0
   27.1670   29.8850    9.7363 C   0  0  0  0  0  0  0  0  0  0  0  0
   29.8649   29.0852   10.5250 C   0  0  0  0  0  0  0  0  0  0  0  0
   27.8779   28.7221    9.0402 C   0  0  0  0  0  0  0  0  0  0  0  0
   27.7459   30.1265   11.0605 N   0  0  0  0  0  0  0  0  0  0  0  0
   29.3630   28.9016    9.1241 N   0  0  0  0  0  0  0  0  0  0  0  0
   30.0795   27.8340    8.3363 C   0  0  0  0  0  0  0  0  0  0  0  0
   28.5033   26.5538    6.8178 C   0  0  0  0  0  0  0  0  0  0  0  0
   29.2702   26.6387    7.9309 C   0  0  0  0  0  0  0  0  0  0  0  0
   27.7008   25.3315    6.4884 C   0  0  0  0  0  0  0  0  0  0  0  0
   29.3697   25.4596    8.8531 C   0  0  0  0  0  0  0  0  0  0  0  0
   28.0159   24.1591    7.4055 C   0  0  0  0  0  0  0  0  0  0  0  0
   28.2219   24.6015    8.7481 O   0  0  0  0  0  0  0  0  0  0  0  0
   27.1105   28.0169    5.4119 C   0  0  0  0  0  0  0  0  0  0  0  0
   29.5012   28.2141    5.2763 C   0  0  0  0  0  0  0  0  0  0  0  0
   27.9243   30.9024    2.8148 Cl  0  0  0  0  0  0  0  0  0  0  0  0
   26.9700   29.0300    4.4863 C   0  0  0  0  0  0  0  0  0  0  0  0
   29.3620   29.2136    4.3389 C   0  0  0  0  0  0  0  0  0  0  0  0
   28.3745   27.5985    5.7991 C   0  0  0  0  0  0  0  0  0  0  0  0
   28.1019   29.6226    3.9586 C   0  0  0  0  0  0  0  0  0  0  0  0
   24.4489   33.2063   14.5498 C   0  0  0  0  0  0  0  0  0  0  0  0
   23.2892   33.6670   13.9147 N   0  0  0  0  0  0  0  0  0  0  0  0
   24.7175   33.4791   15.7086 O   0  0  0  0  0  0  0  0  0  0  0  0
   23.0689   33.3202   13.0200 H   0  0  0  0  0  0  0  0  0  0  0  0
   21.3852   34.0903   15.5530 O   0  0  0  0  0  0  0  0  0  0  0  0
   23.0512   35.8988   15.1460 O   0  0  0  0  0  0  0  0  0  0  0  0
   22.2567   34.7936   14.6257 S   0  0  0  0  0  0  0  0  0  0  0  0
   19.2985   36.4214   12.4008 C   0  0  0  0  0  0  0  0  0  0  0  0
   20.0228   35.9413   13.4796 C   0  0  0  0  0  0  0  0  0  0  0  0
   21.8254   35.3639   12.0094 C   0  0  0  0  0  0  0  0  0  0  0  0
   19.8273   36.4060   11.1141 C   0  0  0  0  0  0  0  0  0  0  0  0
   21.0981   35.8645   10.9515 C   0  0  0  0  0  0  0  0  0  0  0  0
   21.2908   35.4331   13.2764 C   0  0  0  0  0  0  0  0  0  0  0  0
   21.7605   35.7678    9.6584 N   0  0  0  0  0  0  0  0  0  0  0  0
   22.7722   36.4449    9.4841 O   0  0  0  0  0  0  0  0  0  0  0  0
   21.2958   35.0234    8.8030 O   0  0  0  0  0  0  0  0  0  0  0  0
   19.1350   36.8852    9.9757 N   0  0  0  0  0  0  0  0  0  0  0  0
   18.6395   36.2580    9.4010 H   0  0  0  0  0  0  0  0  0  0  0  0
   19.9725   38.5518    8.3939 C   0  0  0  0  0  0  0  0  0  0  0  0
   19.8304   39.0499   10.8171 C   0  0  0  0  0  0  0  0  0  0  0  0
   20.1017   40.0480    8.1494 C   0  0  0  0  0  0  0  0  0  0  0  0
   20.1415   40.5061   10.4737 C   0  0  0  0  0  0  0  0  0  0  0  0
   19.1560   38.3149    9.6526 C   0  0  0  0  0  0  0  0  0  0  0  0
   20.8427   40.6254    9.2196 O   0  0  0  0  0  0  0  0  0  0  0  0
 23 20  2  0  0  0
 20 25  1  0  0  0
 24 21  1  0  0  0
 21 25  2  0  0  0
  3  1  2  0  0  0
  1  5  1  0  0  0
  4  2  1  0  0  0
  2  5  2  0  0  0
 22 26  1  0  0  0
  6  3  1  0  0  0
  6  4  2  0  0  0
 37 34  2  0  0  0
 34 35  1  0  0  0
 39 35  2  0  0  0
 26 23  1  0  0  0
 26 24  2  0  0  0
 38 36  2  0  0  0
 36 39  1  0  0  0
 25 14  1  0  0  0
  5 27  1  0  0  0
 11  6  1  0  0  0
 43 37  1  0  0  0
 38 37  1  0  0  0
 40 38  1  0  0  0
 39 33  1  0  0  0
 16 14  1  0  0  0
 14 15  2  0  0  0
 15 13  1  0  0  0
 15 17  1  0  0  0
 28 27  1  0  0  0
 27 29  2  0  0  0
 16 18  1  0  0  0
 19 17  1  0  0  0
 49 45  1  0  0  0
 45 47  1  0  0  0
 46 48  1  0  0  0
 46 49  1  0  0  0
  9  7  1  0  0  0
  7 11  1  0  0  0
 10  8  1  0  0  0
 11  8  1  0  0  0
  9 12  1  0  0  0
 12 10  1  0  0  0
 18 19  1  0  0  0
 50 47  1  0  0  0
 48 50  1  0  0  0
 43 49  1  0  0  0
 13 12  1  0  0  0
 28 33  1  0  0  0
 42 40  1  0  0  0
 41 40  2  0  0  0
 31 33  2  0  0  0
 33 32  2  0  0  0
 43 44  1  0  0  0
 28 30  1  0  0  0
M  CHG 1  40   1
M  CHG 1  42  -1
M  END
> <minimizedAffinity>
-9.13548

$$$$
4LXD_1XV_A_301


 50 55  0  0  0  0  0  0  0  0999 V2000
   24.4414   33.1941   13.5795 C   0  0  0  0  0  0  0  0  0  0  0  0
   24.0125   32.3387   11.3752 C   0  0  0  0  0  0  0  0  0  0  0  0
   23.7712   34.3661   13.2543 C   0  0  0  0  0  0  0  0  0  0  0  0
   23.3557   33.5187   11.0684 C   0  0  0  0  0  0  0  0  0  0  0  0
   24.5528   32.1909   12.6376 C   0  0  0  0  0  0  0  0  0  0  0  0
   23.2191   34.5497   11.9941 C   0  0  0  0  0  0  0  0  0  0  0  0
   22.9396   36.9832   12.3784 C   0  0  0  0  0  0  0  0  0  0  0  0
   21.1362   35.6318   11.2827 C   0  0  0  0  0  0  0  0  0  0  0  0
   22.5142   38.1939   11.5603 C   0  0  0  0  0  0  0  0  0  0  0  0
   20.6372   36.8774   10.5465 C   0  0  0  0  0  0  0  0  0  0  0  0
   22.5500   35.7745   11.6403 N   0  0  0  0  0  0  0  0  0  0  0  0
   21.0415   38.1128   11.2915 N   0  0  0  0  0  0  0  0  0  0  0  0
   20.4522   39.3444   10.6512 C   0  0  0  0  0  0  0  0  0  0  0  0
   18.8151   41.2340   11.0736 C   0  0  0  0  0  0  0  0  0  0  0  0
   19.5512   40.1830   11.5072 C   0  0  0  0  0  0  0  0  0  0  0  0
   17.9525   42.0430   11.9944 C   0  0  0  0  0  0  0  0  0  0  0  0
   19.4756   39.7703   12.9476 C   0  0  0  0  0  0  0  0  0  0  0  0
   17.8349   41.4258   13.3800 C   0  0  0  0  0  0  0  0  0  0  0  0
   19.0795   40.8609   13.7953 O   0  0  0  0  0  0  0  0  0  0  0  0
   19.7411   42.5155    9.1875 C   0  0  0  0  0  0  0  0  0  0  0  0
   17.7158   41.2662    8.8557 C   0  0  0  0  0  0  0  0  0  0  0  0
   18.6451   43.0021    5.4066 Cl  0  0  0  0  0  0  0  0  0  0  0  0
   19.7095   42.9251    7.8707 C   0  0  0  0  0  0  0  0  0  0  0  0
   17.6739   41.6891    7.5455 C   0  0  0  0  0  0  0  0  0  0  0  0
   18.7391   41.6966    9.6858 C   0  0  0  0  0  0  0  0  0  0  0  0
   18.6731   42.5040    7.0586 C   0  0  0  0  0  0  0  0  0  0  0  0
   25.3004   30.9520   12.9479 C   0  0  0  0  0  0  0  0  0  0  0  0
   26.1589   30.5579   11.9143 N   0  0  0  0  0  0  0  0  0  0  0  0
   25.1440   30.2912   13.9619 O   0  0  0  0  0  0  0  0  0  0  0  0
   26.3323   31.1861   11.1764 H   0  0  0  0  0  0  0  0  0  0  0  0
   27.9846   29.0559   12.8627 O   0  0  0  0  0  0  0  0  0  0  0  0
   25.8861   28.0143   12.0119 O   0  0  0  0  0  0  0  0  0  0  0  0
   26.9063   29.0474   11.8874 S   0  0  0  0  0  0  0  0  0  0  0  0
   28.5740   29.8782    8.2986 C   0  0  0  0  0  0  0  0  0  0  0  0
   28.0572   30.0233    9.5756 C   0  0  0  0  0  0  0  0  0  0  0  0
   27.5981   27.6723    9.6543 C   0  0  0  0  0  0  0  0  0  0  0  0
   28.6365   28.6316    7.6843 C   0  0  0  0  0  0  0  0  0  0  0  0
   28.1343   27.5443    8.3915 C   0  0  0  0  0  0  0  0  0  0  0  0
   27.5903   28.9130   10.2513 C   0  0  0  0  0  0  0  0  0  0  0  0
   28.1191   26.1892    7.8589 N   0  0  0  0  0  0  0  0  0  0  0  0
   28.6197   25.3009    8.5463 O   0  0  0  0  0  0  0  0  0  0  0  0
   27.6121   25.9837    6.7623 O   0  0  0  0  0  0  0  0  0  0  0  0
   29.1562   28.4232    6.3838 N   0  0  0  0  0  0  0  0  0  0  0  0
   29.9610   27.8701    6.2581 H   0  0  0  0  0  0  0  0  0  0  0  0
   28.5824   28.0978    4.0288 C   0  0  0  0  0  0  0  0  0  0  0  0
   29.2409   30.3275    4.8859 C   0  0  0  0  0  0  0  0  0  0  0  0
   28.0183   28.7967    2.8006 C   0  0  0  0  0  0  0  0  0  0  0  0
   28.8042   30.9059    3.5405 C   0  0  0  0  0  0  0  0  0  0  0  0
   28.4962   29.0307    5.2243 C   0  0  0  0  0  0  0  0  0  0  0  0
   28.8413   29.9171    2.4919 O   0  0  0  0  0  0  0  0  0  0  0  0
 23 20  2  0  0  0
 20 25  1  0  0  0
 24 21  1  0  0  0
 21 25  2  0  0  0
  3  1  2  0  0  0
  1  5  1  0  0  0
  4  2  1  0  0  0
  2  5  2  0  0  0
 22 26  1  0  0  0
  6  3  1  0  0  0
  6  4  2  0  0  0
 37 34  2  0  0  0
 34 35  1  0  0  0
 39 35  2  0  0  0
 26 23  1  0  0  0
 26 24  2  0  0  0
 38 36  2  0  0  0
 36 39  1  0  0  0
 25 14  1  0  0  0
  5 27  1  0  0  0
 11  6  1  0  0  0
 43 37  1  0  0  0
 38 37  1  0  0  0
 40 38  1  0  0  0
 39 33  1  0  0  0
 16 14  1  0  0  0
 14 15  2  0  0  0
 15 13  1  0  0  0
 15 17  1  0  0  0
 28 27  1  0  0  0
 27 29  2  0  0  0
 16 18  1  0  0  0
 19 17  1  0  0  0
 49 45  1  0  0  0
 45 47  1  0  0  0
 46 48  1  0  0  0
 46 49  1  0  0  0
  9  7  1  0  0  0
  7 11  1  0  0  0
 10  8  1  0  0  0
 11  8  1  0  0  0
  9 12  1  0  0  0
 12 10  1  0  0  0
 18 19  1  0  0  0
 50 47  1  0  0  0
 48 50  1  0  0  0
 43 49  1  0  0  0
 13 12  1  0  0  0
 28 33  1  0  0  0
 42 40  1  0  0  0
 41 40  2  0  0  0
 31 33  2  0  0  0
 33 32  2  0  0  0
 43 44  1  0  0  0
 28 30  1  0  0  0
M  CHG 1  40   1
M  CHG 1  42  -1
M  END
> <minimizedAffinity>
-9.04159

$$$$
4LXD_1XV_A_301


 50 55  0  0  0  0  0  0  0  0999 V2000
   24.1742   33.2906   11.4206 C   0  0  0  0  0  0  0  0  0  0  0  0
   22.9011   32.9252   13.4256 C   0  0  0  0  0  0  0  0  0  0  0  0
   23.4181   34.4230   11.1478 C   0  0  0  0  0  0  0  0  0  0  0  0
   22.1532   34.0528   13.1306 C   0  0  0  0  0  0  0  0  0  0  0  0
   23.9100   32.5547   12.5584 C   0  0  0  0  0  0  0  0  0  0  0  0
   22.3943   34.8224   11.9956 C   0  0  0  0  0  0  0  0  0  0  0  0
   20.5058   35.8032   10.7231 C   0  0  0  0  0  0  0  0  0  0  0  0
   22.3051   37.2544   11.6904 C   0  0  0  0  0  0  0  0  0  0  0  0
   19.5051   36.9331   10.9174 C   0  0  0  0  0  0  0  0  0  0  0  0
   21.3250   38.4265   11.7792 C   0  0  0  0  0  0  0  0  0  0  0  0
   21.5863   35.9776   11.7027 N   0  0  0  0  0  0  0  0  0  0  0  0
   20.2159   38.2469   10.7880 N   0  0  0  0  0  0  0  0  0  0  0  0
   19.3089   39.4515   10.7713 C   0  0  0  0  0  0  0  0  0  0  0  0
   18.5410   41.3724    9.3052 C   0  0  0  0  0  0  0  0  0  0  0  0
   19.2786   40.2543    9.5054 C   0  0  0  0  0  0  0  0  0  0  0  0
   18.5431   42.1115    8.0012 C   0  0  0  0  0  0  0  0  0  0  0  0
   20.1718   39.7507    8.4103 C   0  0  0  0  0  0  0  0  0  0  0  0
   19.6056   41.6002    7.0397 C   0  0  0  0  0  0  0  0  0  0  0  0
   19.7209   40.1783    7.1146 O   0  0  0  0  0  0  0  0  0  0  0  0
   18.1839   42.2286   11.5847 C   0  0  0  0  0  0  0  0  0  0  0  0
   16.4189   42.4595    9.9710 C   0  0  0  0  0  0  0  0  0  0  0  0
   15.1795   44.1106   13.3638 Cl  0  0  0  0  0  0  0  0  0  0  0  0
   17.4095   42.8686   12.5300 C   0  0  0  0  0  0  0  0  0  0  0  0
   15.6383   43.0829   10.9193 C   0  0  0  0  0  0  0  0  0  0  0  0
   17.6865   42.0116   10.3087 C   0  0  0  0  0  0  0  0  0  0  0  0
   16.1399   43.2935   12.1857 C   0  0  0  0  0  0  0  0  0  0  0  0
   24.6740   31.3203   12.8460 C   0  0  0  0  0  0  0  0  0  0  0  0
   25.5219   30.9450   11.7968 N   0  0  0  0  0  0  0  0  0  0  0  0
   24.5383   30.6480   13.8554 O   0  0  0  0  0  0  0  0  0  0  0  0
   25.6789   31.5821   11.0628 H   0  0  0  0  0  0  0  0  0  0  0  0
   27.2134   29.3645   12.8596 O   0  0  0  0  0  0  0  0  0  0  0  0
   25.2686   28.4028   11.6326 O   0  0  0  0  0  0  0  0  0  0  0  0
   26.2837   29.4424   11.7443 S   0  0  0  0  0  0  0  0  0  0  0  0
   28.6567   30.5066    8.6480 C   0  0  0  0  0  0  0  0  0  0  0  0
   27.9709   30.5337    9.8513 C   0  0  0  0  0  0  0  0  0  0  0  0
   27.0631   28.3662    9.3799 C   0  0  0  0  0  0  0  0  0  0  0  0
   28.5811   29.4059    7.8006 C   0  0  0  0  0  0  0  0  0  0  0  0
   27.7685   28.3487    8.1964 C   0  0  0  0  0  0  0  0  0  0  0  0
   27.1933   29.4522   10.2162 C   0  0  0  0  0  0  0  0  0  0  0  0
   27.5832   27.1467    7.3958 N   0  0  0  0  0  0  0  0  0  0  0  0
   28.3958   26.2350    7.5399 O   0  0  0  0  0  0  0  0  0  0  0  0
   26.6360   27.0850    6.6206 O   0  0  0  0  0  0  0  0  0  0  0  0
   29.2615   29.3216    6.5617 N   0  0  0  0  0  0  0  0  0  0  0  0
   30.2193   29.0949    6.5406 H   0  0  0  0  0  0  0  0  0  0  0  0
   28.8101   28.4510    4.3213 C   0  0  0  0  0  0  0  0  0  0  0  0
   29.0680   30.8834    4.7176 C   0  0  0  0  0  0  0  0  0  0  0  0
   28.1698   28.7920    2.9838 C   0  0  0  0  0  0  0  0  0  0  0  0
   28.5761   31.1064    3.2880 C   0  0  0  0  0  0  0  0  0  0  0  0
   28.5399   29.5716    5.3103 C   0  0  0  0  0  0  0  0  0  0  0  0
   28.8034   29.9521    2.4543 O   0  0  0  0  0  0  0  0  0  0  0  0
 23 20  2  0  0  0
 20 25  1  0  0  0
 24 21  1  0  0  0
 21 25  2  0  0  0
  3  1  2  0  0  0
  1  5  1  0  0  0
  4  2  1  0  0  0
  2  5  2  0  0  0
 22 26  1  0  0  0
  6  3  1  0  0  0
  6  4  2  0  0  0
 37 34  2  0  0  0
 34 35  1  0  0  0
 39 35  2  0  0  0
 26 23  1  0  0  0
 26 24  2  0  0  0
 38 36  2  0  0  0
 36 39  1  0  0  0
 25 14  1  0  0  0
  5 27  1  0  0  0
 11  6  1  0  0  0
 43 37  1  0  0  0
 38 37  1  0  0  0
 40 38  1  0  0  0
 39 33  1  0  0  0
 16 14  1  0  0  0
 14 15  2  0  0  0
 15 13  1  0  0  0
 15 17  1  0  0  0
 28 27  1  0  0  0
 27 29  2  0  0  0
 16 18  1  0  0  0
 19 17  1  0  0  0
 49 45  1  0  0  0
 45 47  1  0  0  0
 46 48  1  0  0  0
 46 49  1  0  0  0
  9  7  1  0  0  0
  7 11  1  0  0  0
 10  8  1  0  0  0
 11  8  1  0  0  0
  9 12  1  0  0  0
 12 10  1  0  0  0
 18 19  1  0  0  0
 50 47  1  0  0  0
 48 50  1  0  0  0
 43 49  1  0  0  0
 13 12  1  0  0  0
 28 33  1  0  0  0
 42 40  1  0  0  0
 41 40  2  0  0  0
 31 33  2  0  0  0
 33 32  2  0  0  0
 43 44  1  0  0  0
 28 30  1  0  0  0
M  CHG 1  40   1
M  CHG 1  42  -1
M  END
> <minimizedAffinity>
-8.92598

$$$$
4LXD_1XV_A_301


 50 55  0  0  0  0  0  0  0  0999 V2000
   25.6457   31.5738   11.5291 C   0  0  0  0  0  0  0  0  0  0  0  0
   23.7482   30.2949   12.2623 C   0  0  0  0  0  0  0  0  0  0  0  0
   24.8752   32.7289   11.5522 C   0  0  0  0  0  0  0  0  0  0  0  0
   22.9950   31.4570   12.2703 C   0  0  0  0  0  0  0  0  0  0  0  0
   25.0752   30.3688   11.8872 C   0  0  0  0  0  0  0  0  0  0  0  0
   23.5376   32.6907   11.9206 C   0  0  0  0  0  0  0  0  0  0  0  0
   22.9728   34.8519   10.8446 C   0  0  0  0  0  0  0  0  0  0  0  0
   22.3901   34.4096   13.2413 C   0  0  0  0  0  0  0  0  0  0  0  0
   21.7451   35.7427   10.7218 C   0  0  0  0  0  0  0  0  0  0  0  0
   21.2222   35.3945   13.1487 C   0  0  0  0  0  0  0  0  0  0  0  0
   22.7249   33.8793   11.9170 N   0  0  0  0  0  0  0  0  0  0  0  0
   21.4670   36.3822   12.0491 N   0  0  0  0  0  0  0  0  0  0  0  0
   20.3896   37.4370   12.0234 C   0  0  0  0  0  0  0  0  0  0  0  0
   21.0675   39.1706   10.3017 C   0  0  0  0  0  0  0  0  0  0  0  0
   20.2286   38.2043   10.7454 C   0  0  0  0  0  0  0  0  0  0  0  0
   20.8293   39.9136    9.0220 C   0  0  0  0  0  0  0  0  0  0  0  0
   19.0398   37.8178    9.9159 C   0  0  0  0  0  0  0  0  0  0  0  0
   19.6947   39.3183    8.2014 C   0  0  0  0  0  0  0  0  0  0  0  0
   18.6271   38.8839    9.0453 O   0  0  0  0  0  0  0  0  0  0  0  0
   22.2419   40.6005   11.9243 C   0  0  0  0  0  0  0  0  0  0  0  0
   23.4986   38.9489   10.7136 C   0  0  0  0  0  0  0  0  0  0  0  0
   26.0007   40.8088   13.1740 Cl  0  0  0  0  0  0  0  0  0  0  0  0
   23.3836   40.9817   12.5982 C   0  0  0  0  0  0  0  0  0  0  0  0
   24.6424   39.3409   11.3733 C   0  0  0  0  0  0  0  0  0  0  0  0
   22.2990   39.5935   10.9728 C   0  0  0  0  0  0  0  0  0  0  0  0
   24.5771   40.3436   12.3167 C   0  0  0  0  0  0  0  0  0  0  0  0
   25.8655   29.1190   11.8276 C   0  0  0  0  0  0  0  0  0  0  0  0
   27.2474   29.3449   11.8361 N   0  0  0  0  0  0  0  0  0  0  0  0
   25.3813   28.0051   11.7100 O   0  0  0  0  0  0  0  0  0  0  0  0
   27.5792   30.2467   12.0502 H   0  0  0  0  0  0  0  0  0  0  0  0
   29.6660   28.5581   11.9769 O   0  0  0  0  0  0  0  0  0  0  0  0
   27.8423   26.8592   11.9817 O   0  0  0  0  0  0  0  0  0  0  0  0
   28.3635   28.1293   11.4933 S   0  0  0  0  0  0  0  0  0  0  0  0
   27.6029   28.7010    7.5632 C   0  0  0  0  0  0  0  0  0  0  0  0
   27.5551   28.8112    8.9433 C   0  0  0  0  0  0  0  0  0  0  0  0
   29.2486   27.1260    9.1340 C   0  0  0  0  0  0  0  0  0  0  0  0
   28.4858   27.8244    6.9409 C   0  0  0  0  0  0  0  0  0  0  0  0
   29.2963   27.0448    7.7594 C   0  0  0  0  0  0  0  0  0  0  0  0
   28.3943   28.0344    9.7177 C   0  0  0  0  0  0  0  0  0  0  0  0
   30.2487   26.0734    7.2403 N   0  0  0  0  0  0  0  0  0  0  0  0
   29.9384   24.8847    7.2966 O   0  0  0  0  0  0  0  0  0  0  0  0
   31.3087   26.4685    6.7690 O   0  0  0  0  0  0  0  0  0  0  0  0
   28.5803   27.6719    5.5363 N   0  0  0  0  0  0  0  0  0  0  0  0
   28.9323   26.8354    5.1547 H   0  0  0  0  0  0  0  0  0  0  0  0
   28.1547   28.2850    3.2074 C   0  0  0  0  0  0  0  0  0  0  0  0
   29.1670   29.9022    4.7886 C   0  0  0  0  0  0  0  0  0  0  0  0
   27.8463   29.4587    2.2895 C   0  0  0  0  0  0  0  0  0  0  0  0
   28.9689   30.9771    3.7206 C   0  0  0  0  0  0  0  0  0  0  0  0
   28.1543   28.7593    4.6503 C   0  0  0  0  0  0  0  0  0  0  0  0
   28.8980   30.4129    2.3957 O   0  0  0  0  0  0  0  0  0  0  0  0
 23 20  2  0  0  0
 20 25  1  0  0  0
 24 21  1  0  0  0
 21 25  2  0  0  0
  3  1  2  0  0  0
  1  5  1  0  0  0
  4  2  1  0  0  0
  2  5  2  0  0  0
 22 26  1  0  0  0
  6  3  1  0  0  0
  6  4  2  0  0  0
 37 34  2  0  0  0
 34 35  1  0  0  0
 39 35  2  0  0  0
 26 23  1  0  0  0
 26 24  2  0  0  0
 38 36  2  0  0  0
 36 39  1  0  0  0
 25 14  1  0  0  0
  5 27  1  0  0  0
 11  6  1  0  0  0
 43 37  1  0  0  0
 38 37  1  0  0  0
 40 38  1  0  0  0
 39 33  1  0  0  0
 16 14  1  0  0  0
 14 15  2  0  0  0
 15 13  1  0  0  0
 15 17  1  0  0  0
 28 27  1  0  0  0
 27 29  2  0  0  0
 16 18  1  0  0  0
 19 17  1  0  0  0
 49 45  1  0  0  0
 45 47  1  0  0  0
 46 48  1  0  0  0
 46 49  1  0  0  0
  9  7  1  0  0  0
  7 11  1  0  0  0
 10  8  1  0  0  0
 11  8  1  0  0  0
  9 12  1  0  0  0
 12 10  1  0  0  0
 18 19  1  0  0  0
 50 47  1  0  0  0
 48 50  1  0  0  0
 43 49  1  0  0  0
 13 12  1  0  0  0
 28 33  1  0  0  0
 42 40  1  0  0  0
 41 40  2  0  0  0
 31 33  2  0  0  0
 33 32  2  0  0  0
 43 44  1  0  0  0
 28 30  1  0  0  0
M  CHG 1  40   1
M  CHG 1  42  -1
M  END
> <minimizedAffinity>
-8.79375

$$$$
4LXD_1XV_A_301


 50 55  0  0  0  0  0  0  0  0999 V2000
   23.5369   34.7695   11.9147 C   0  0  0  0  0  0  0  0  0  0  0  0
   24.1792   34.0322   14.1097 C   0  0  0  0  0  0  0  0  0  0  0  0
   24.0246   33.5863   11.3753 C   0  0  0  0  0  0  0  0  0  0  0  0
   24.6675   32.8630   13.5507 C   0  0  0  0  0  0  0  0  0  0  0  0
   23.6165   34.9792   13.2769 C   0  0  0  0  0  0  0  0  0  0  0  0
   24.5996   32.6144   12.1824 C   0  0  0  0  0  0  0  0  0  0  0  0
   26.5603   31.4012   11.2705 C   0  0  0  0  0  0  0  0  0  0  0  0
   24.2241   30.6611   10.7474 C   0  0  0  0  0  0  0  0  0  0  0  0
   27.0267   29.9555   11.1805 C   0  0  0  0  0  0  0  0  0  0  0  0
   24.7143   29.2255   10.5448 C   0  0  0  0  0  0  0  0  0  0  0  0
   25.1351   31.3991   11.6262 N   0  0  0  0  0  0  0  0  0  0  0  0
   26.1703   29.2232   10.1914 N   0  0  0  0  0  0  0  0  0  0  0  0
   26.6425   27.8290    9.8643 C   0  0  0  0  0  0  0  0  0  0  0  0
   28.8729   27.7982    8.6588 C   0  0  0  0  0  0  0  0  0  0  0  0
   28.1250   27.6237    9.7743 C   0  0  0  0  0  0  0  0  0  0  0  0
   30.3510   27.5506    8.6376 C   0  0  0  0  0  0  0  0  0  0  0  0
   28.7903   27.2147   11.0553 C   0  0  0  0  0  0  0  0  0  0  0  0
   30.9237   27.3045   10.0256 C   0  0  0  0  0  0  0  0  0  0  0  0
   30.0272   26.5232   10.8171 O   0  0  0  0  0  0  0  0  0  0  0  0
   28.9729   29.3462    6.7480 C   0  0  0  0  0  0  0  0  0  0  0  0
   27.3348   27.5887    6.7303 C   0  0  0  0  0  0  0  0  0  0  0  0
   26.9644   29.6218    3.3388 Cl  0  0  0  0  0  0  0  0  0  0  0  0
   28.5372   29.7710    5.5101 C   0  0  0  0  0  0  0  0  0  0  0  0
   26.8874   28.0230    5.5022 C   0  0  0  0  0  0  0  0  0  0  0  0
   28.3655   28.2636    7.3659 C   0  0  0  0  0  0  0  0  0  0  0  0
   27.4960   29.1007    4.8957 C   0  0  0  0  0  0  0  0  0  0  0  0
   23.1432   36.2509   13.8676 C   0  0  0  0  0  0  0  0  0  0  0  0
   22.3574   37.0040   12.9867 N   0  0  0  0  0  0  0  0  0  0  0  0
   23.4548   36.6505   14.9777 O   0  0  0  0  0  0  0  0  0  0  0  0
   22.0424   36.5834   12.1542 H   0  0  0  0  0  0  0  0  0  0  0  0
   21.1431   38.6349   14.5211 O   0  0  0  0  0  0  0  0  0  0  0  0
   23.1297   39.4312   13.2437 O   0  0  0  0  0  0  0  0  0  0  0  0
   21.9310   38.6044   13.2994 S   0  0  0  0  0  0  0  0  0  0  0  0
   19.7539   40.7175   10.6263 C   0  0  0  0  0  0  0  0  0  0  0  0
   20.5618   40.3934   11.7039 C   0  0  0  0  0  0  0  0  0  0  0  0
   20.4249   38.0764   11.1065 C   0  0  0  0  0  0  0  0  0  0  0  0
   19.2864   39.7378    9.7563 C   0  0  0  0  0  0  0  0  0  0  0  0
   19.6390   38.4201   10.0282 C   0  0  0  0  0  0  0  0  0  0  0  0
   20.9067   39.0743   11.9237 C   0  0  0  0  0  0  0  0  0  0  0  0
   19.2016   37.2965    9.2119 N   0  0  0  0  0  0  0  0  0  0  0  0
   19.9398   36.9350    8.2972 O   0  0  0  0  0  0  0  0  0  0  0  0
   18.1309   36.7560    9.4634 O   0  0  0  0  0  0  0  0  0  0  0  0
   18.4611   40.0104    8.6385 N   0  0  0  0  0  0  0  0  0  0  0  0
   17.9422   39.2852    8.2214 H   0  0  0  0  0  0  0  0  0  0  0  0
   17.0022   41.9546    8.3694 C   0  0  0  0  0  0  0  0  0  0  0  0
   18.5897   41.2933    6.5854 C   0  0  0  0  0  0  0  0  0  0  0  0
   16.8857   43.3101    7.6880 C   0  0  0  0  0  0  0  0  0  0  0  0
   18.2654   42.6155    5.8913 C   0  0  0  0  0  0  0  0  0  0  0  0
   18.3793   41.3722    8.1021 C   0  0  0  0  0  0  0  0  0  0  0  0
   16.9731   43.1242    6.2788 O   0  0  0  0  0  0  0  0  0  0  0  0
 23 20  2  0  0  0
 20 25  1  0  0  0
 24 21  1  0  0  0
 21 25  2  0  0  0
  3  1  2  0  0  0
  1  5  1  0  0  0
  4  2  1  0  0  0
  2  5  2  0  0  0
 22 26  1  0  0  0
  6  3  1  0  0  0
  6  4  2  0  0  0
 37 34  2  0  0  0
 34 35  1  0  0  0
 39 35  2  0  0  0
 26 23  1  0  0  0
 26 24  2  0  0  0
 38 36  2  0  0  0
 36 39  1  0  0  0
 25 14  1  0  0  0
  5 27  1  0  0  0
 11  6  1  0  0  0
 43 37  1  0  0  0
 38 37  1  0  0  0
 40 38  1  0  0  0
 39 33  1  0  0  0
 16 14  1  0  0  0
 14 15  2  0  0  0
 15 13  1  0  0  0
 15 17  1  0  0  0
 28 27  1  0  0  0
 27 29  2  0  0  0
 16 18  1  0  0  0
 19 17  1  0  0  0
 49 45  1  0  0  0
 45 47  1  0  0  0
 46 48  1  0  0  0
 46 49  1  0  0  0
  9  7  1  0  0  0
  7 11  1  0  0  0
 10  8  1  0  0  0
 11  8  1  0  0  0
  9 12  1  0  0  0
 12 10  1  0  0  0
 18 19  1  0  0  0
 50 47  1  0  0  0
 48 50  1  0  0  0
 43 49  1  0  0  0
 13 12  1  0  0  0
 28 33  1  0  0  0
 42 40  1  0  0  0
 41 40  2  0  0  0
 31 33  2  0  0  0
 33 32  2  0  0  0
 43 44  1  0  0  0
 28 30  1  0  0  0
M  CHG 1  40   1
M  CHG 1  42  -1
M  END
> <minimizedAffinity>
-8.39120

$$$$
4LXD_1XV_A_301


 50 55  0  0  0  0  0  0  0  0999 V2000
   23.7153   30.8257   11.4373 C   0  0  0  0  0  0  0  0  0  0  0  0
   25.1904   30.4257   13.2916 C   0  0  0  0  0  0  0  0  0  0  0  0
   24.4995   30.0049   10.6374 C   0  0  0  0  0  0  0  0  0  0  0  0
   25.9636   29.6179   12.4746 C   0  0  0  0  0  0  0  0  0  0  0  0
   24.0671   31.0255   12.7573 C   0  0  0  0  0  0  0  0  0  0  0  0
   25.6371   29.3891   11.1406 C   0  0  0  0  0  0  0  0  0  0  0  0
   27.4991   27.7593   10.9852 C   0  0  0  0  0  0  0  0  0  0  0  0
   26.8171   29.1357    9.0054 C   0  0  0  0  0  0  0  0  0  0  0  0
   27.9143   26.6353   10.0469 C   0  0  0  0  0  0  0  0  0  0  0  0
   27.3404   28.0520    8.0599 C   0  0  0  0  0  0  0  0  0  0  0  0
   26.4716   28.5618   10.3086 N   0  0  0  0  0  0  0  0  0  0  0  0
   28.3817   27.2249    8.7501 N   0  0  0  0  0  0  0  0  0  0  0  0
   29.0000   26.2331    7.7972 C   0  0  0  0  0  0  0  0  0  0  0  0
   30.7666   27.3137    6.3341 C   0  0  0  0  0  0  0  0  0  0  0  0
   30.4081   26.5062    7.3606 C   0  0  0  0  0  0  0  0  0  0  0  0
   32.1975   27.5211    5.9391 C   0  0  0  0  0  0  0  0  0  0  0  0
   31.4700   25.8249    8.1724 C   0  0  0  0  0  0  0  0  0  0  0  0
   33.1741   26.9133    6.9350 C   0  0  0  0  0  0  0  0  0  0  0  0
   32.6890   25.6637    7.4288 O   0  0  0  0  0  0  0  0  0  0  0  0
   29.8204   29.4744    5.6318 C   0  0  0  0  0  0  0  0  0  0  0  0
   29.0408   27.4672    4.5659 C   0  0  0  0  0  0  0  0  0  0  0  0
   27.1513   30.5356    2.8964 Cl  0  0  0  0  0  0  0  0  0  0  0  0
   28.9864   30.2281    4.8324 C   0  0  0  0  0  0  0  0  0  0  0  0
   28.1949   28.2177    3.7795 C   0  0  0  0  0  0  0  0  0  0  0  0
   29.8403   28.0933    5.5095 C   0  0  0  0  0  0  0  0  0  0  0  0
   28.1803   29.5898    3.9085 C   0  0  0  0  0  0  0  0  0  0  0  0
   23.2709   31.9307   13.6157 C   0  0  0  0  0  0  0  0  0  0  0  0
   24.0036   33.0305   14.0784 N   0  0  0  0  0  0  0  0  0  0  0  0
   22.1177   31.7186   13.9538 O   0  0  0  0  0  0  0  0  0  0  0  0
   24.8861   33.2131   13.6820 H   0  0  0  0  0  0  0  0  0  0  0  0
   22.6030   33.2698   16.1925 O   0  0  0  0  0  0  0  0  0  0  0  0
   24.5537   34.7851   15.8596 O   0  0  0  0  0  0  0  0  0  0  0  0
   23.4301   34.0533   15.2891 S   0  0  0  0  0  0  0  0  0  0  0  0
   20.2924   36.2244   13.9502 C   0  0  0  0  0  0  0  0  0  0  0  0
   21.0503   35.2943   14.6426 C   0  0  0  0  0  0  0  0  0  0  0  0
   23.0212   36.0674   13.5191 C   0  0  0  0  0  0  0  0  0  0  0  0
   20.8814   37.1073   13.0508 C   0  0  0  0  0  0  0  0  0  0  0  0
   22.2541   36.9994   12.8546 C   0  0  0  0  0  0  0  0  0  0  0  0
   22.4144   35.2369   14.4345 C   0  0  0  0  0  0  0  0  0  0  0  0
   22.9927   37.8457   11.9282 N   0  0  0  0  0  0  0  0  0  0  0  0
   23.4931   37.3092   10.9411 O   0  0  0  0  0  0  0  0  0  0  0  0
   23.0854   39.0457   12.1589 O   0  0  0  0  0  0  0  0  0  0  0  0
   20.1580   38.0794   12.3181 N   0  0  0  0  0  0  0  0  0  0  0  0
   19.7794   38.8623   12.7795 H   0  0  0  0  0  0  0  0  0  0  0  0
   19.3328   39.1681   10.2897 C   0  0  0  0  0  0  0  0  0  0  0  0
   19.0258   36.7355   10.6479 C   0  0  0  0  0  0  0  0  0  0  0  0
   19.0200   38.9358    8.8189 C   0  0  0  0  0  0  0  0  0  0  0  0
   18.5564   36.6431    9.1966 C   0  0  0  0  0  0  0  0  0  0  0  0
   19.9729   37.9202   10.8727 C   0  0  0  0  0  0  0  0  0  0  0  0
   18.0457   37.9024    8.7147 O   0  0  0  0  0  0  0  0  0  0  0  0
 23 20  2  0  0  0
 20 25  1  0  0  0
 24 21  1  0  0  0
 21 25  2  0  0  0
  3  1  2  0  0  0
  1  5  1  0  0  0
  4  2  1  0  0  0
  2  5  2  0  0  0
 22 26  1  0  0  0
  6  3  1  0  0  0
  6  4  2  0  0  0
 37 34  2  0  0  0
 34 35  1  0  0  0
 39 35  2  0  0  0
 26 23  1  0  0  0
 26 24  2  0  0  0
 38 36  2  0  0  0
 36 39  1  0  0  0
 25 14  1  0  0  0
  5 27  1  0  0  0
 11  6  1  0  0  0
 43 37  1  0  0  0
 38 37  1  0  0  0
 40 38  1  0  0  0
 39 33  1  0  0  0
 16 14  1  0  0  0
 14 15  2  0  0  0
 15 13  1  0  0  0
 15 17  1  0  0  0
 28 27  1  0  0  0
 27 29  2  0  0  0
 16 18  1  0  0  0
 19 17  1  0  0  0
 49 45  1  0  0  0
 45 47  1  0  0  0
 46 48  1  0  0  0
 46 49  1  0  0  0
  9  7  1  0  0  0
  7 11  1  0  0  0
 10  8  1  0  0  0
 11  8  1  0  0  0
  9 12  1  0  0  0
 12 10  1  0  0  0
 18 19  1  0  0  0
 50 47  1  0  0  0
 48 50  1  0  0  0
 43 49  1  0  0  0
 13 12  1  0  0  0
 28 33  1  0  0  0
 42 40  1  0  0  0
 41 40  2  0  0  0
 31 33  2  0  0  0
 33 32  2  0  0  0
 43 44  1  0  0  0
 28 30  1  0  0  0
M  CHG 1  40   1
M  CHG 1  42  -1
M  END
> <minimizedAffinity>
-8.37364

$$$$
4LXD_1XV_A_301


 50 55  0  0  0  0  0  0  0  0999 V2000
   23.7967   34.6749   13.7144 C   0  0  0  0  0  0  0  0  0  0  0  0
   23.1557   34.9262   11.4122 C   0  0  0  0  0  0  0  0  0  0  0  0
   24.4169   33.4704   13.4095 C   0  0  0  0  0  0  0  0  0  0  0  0
   23.7726   33.7186   11.1309 C   0  0  0  0  0  0  0  0  0  0  0  0
   23.1748   35.3921   12.7120 C   0  0  0  0  0  0  0  0  0  0  0  0
   24.4140   32.9706   12.1146 C   0  0  0  0  0  0  0  0  0  0  0  0
   26.4594   31.7277   11.4670 C   0  0  0  0  0  0  0  0  0  0  0  0
   24.1803   30.7706   11.0557 C   0  0  0  0  0  0  0  0  0  0  0  0
   27.0060   30.3192   11.6491 C   0  0  0  0  0  0  0  0  0  0  0  0
   24.7528   29.3530   11.1257 C   0  0  0  0  0  0  0  0  0  0  0  0
   25.0283   31.7076   11.7974 N   0  0  0  0  0  0  0  0  0  0  0  0
   26.2149   29.3710   10.7989 N   0  0  0  0  0  0  0  0  0  0  0  0
   26.7702   27.9703   10.7386 C   0  0  0  0  0  0  0  0  0  0  0  0
   28.3991   26.5825    9.3785 C   0  0  0  0  0  0  0  0  0  0  0  0
   27.4971   27.5873    9.4845 C   0  0  0  0  0  0  0  0  0  0  0  0
   29.1058   26.2717    8.0939 C   0  0  0  0  0  0  0  0  0  0  0  0
   27.1451   28.3972    8.2717 C   0  0  0  0  0  0  0  0  0  0  0  0
   28.5430   27.0484    6.9129 C   0  0  0  0  0  0  0  0  0  0  0  0
   28.1990   28.3812    7.2950 O   0  0  0  0  0  0  0  0  0  0  0  0
   29.9883   25.8587   11.1128 C   0  0  0  0  0  0  0  0  0  0  0  0
   27.9115   24.6738   10.8777 C   0  0  0  0  0  0  0  0  0  0  0  0
   29.9140   23.0204   13.8826 Cl  0  0  0  0  0  0  0  0  0  0  0  0
   30.3431   25.0376   12.1629 C   0  0  0  0  0  0  0  0  0  0  0  0
   28.2727   23.8423   11.9146 C   0  0  0  0  0  0  0  0  0  0  0  0
   28.7792   25.6711   10.4604 C   0  0  0  0  0  0  0  0  0  0  0  0
   29.4770   24.0348   12.5567 C   0  0  0  0  0  0  0  0  0  0  0  0
   22.4700   36.6559   13.0223 C   0  0  0  0  0  0  0  0  0  0  0  0
   21.2225   36.4527   13.6248 N   0  0  0  0  0  0  0  0  0  0  0  0
   22.8851   37.7645   12.7256 O   0  0  0  0  0  0  0  0  0  0  0  0
   20.9922   35.5510   13.9460 H   0  0  0  0  0  0  0  0  0  0  0  0
   18.8876   37.1280   14.3867 O   0  0  0  0  0  0  0  0  0  0  0  0
   20.7348   38.7946   14.5367 O   0  0  0  0  0  0  0  0  0  0  0  0
   20.1007   37.6953   13.8204 S   0  0  0  0  0  0  0  0  0  0  0  0
   19.4945   40.0207   10.5683 C   0  0  0  0  0  0  0  0  0  0  0  0
   19.7655   39.6147   11.8647 C   0  0  0  0  0  0  0  0  0  0  0  0
   19.4718   37.3286   11.2077 C   0  0  0  0  0  0  0  0  0  0  0  0
   19.2318   39.0948    9.5638 C   0  0  0  0  0  0  0  0  0  0  0  0
   19.2244   37.7501    9.9195 C   0  0  0  0  0  0  0  0  0  0  0  0
   19.7707   38.2676   12.1693 C   0  0  0  0  0  0  0  0  0  0  0  0
   18.9440   36.6800    8.9728 N   0  0  0  0  0  0  0  0  0  0  0  0
   17.7703   36.3454    8.8218 O   0  0  0  0  0  0  0  0  0  0  0  0
   19.8732   36.1604    8.3657 O   0  0  0  0  0  0  0  0  0  0  0  0
   18.9513   39.4511    8.2224 N   0  0  0  0  0  0  0  0  0  0  0  0
   19.0504   38.7841    7.5050 H   0  0  0  0  0  0  0  0  0  0  0  0
   17.3692   40.7698    6.9038 C   0  0  0  0  0  0  0  0  0  0  0  0
   19.6955   41.5468    7.2572 C   0  0  0  0  0  0  0  0  0  0  0  0
   17.0187   42.1871    6.4752 C   0  0  0  0  0  0  0  0  0  0  0  0
   19.2770   42.8835    6.6461 C   0  0  0  0  0  0  0  0  0  0  0  0
   18.5135   40.8129    7.9016 C   0  0  0  0  0  0  0  0  0  0  0  0
   18.1307   42.7452    5.7825 O   0  0  0  0  0  0  0  0  0  0  0  0
 23 20  2  0  0  0
 20 25  1  0  0  0
 24 21  1  0  0  0
 21 25  2  0  0  0
  3  1  2  0  0  0
  1  5  1  0  0  0
  4  2  1  0  0  0
  2  5  2  0  0  0
 22 26  1  0  0  0
  6  3  1  0  0  0
  6  4  2  0  0  0
 37 34  2  0  0  0
 34 35  1  0  0  0
 39 35  2  0  0  0
 26 23  1  0  0  0
 26 24  2  0  0  0
 38 36  2  0  0  0
 36 39  1  0  0  0
 25 14  1  0  0  0
  5 27  1  0  0  0
 11  6  1  0  0  0
 43 37  1  0  0  0
 38 37  1  0  0  0
 40 38  1  0  0  0
 39 33  1  0  0  0
 16 14  1  0  0  0
 14 15  2  0  0  0
 15 13  1  0  0  0
 15 17  1  0  0  0
 28 27  1  0  0  0
 27 29  2  0  0  0
 16 18  1  0  0  0
 19 17  1  0  0  0
 49 45  1  0  0  0
 45 47  1  0  0  0
 46 48  1  0  0  0
 46 49  1  0  0  0
  9  7  1  0  0  0
  7 11  1  0  0  0
 10  8  1  0  0  0
 11  8  1  0  0  0
  9 12  1  0  0  0
 12 10  1  0  0  0
 18 19  1  0  0  0
 50 47  1  0  0  0
 48 50  1  0  0  0
 43 49  1  0  0  0
 13 12  1  0  0  0
 28 33  1  0  0  0
 42 40  1  0  0  0
 41 40  2  0  0  0
 31 33  2  0  0  0
 33 32  2  0  0  0
 43 44  1  0  0  0
 28 30  1  0  0  0
M  CHG 1  40   1
M  CHG 1  42  -1
M  END
> <minimizedAffinity>
-8.27283

$$$$
4LXD_1XV_A_301


 50 55  0  0  0  0  0  0  0  0999 V2000
   24.9709   32.3099   13.6378 C   0  0  0  0  0  0  0  0  0  0  0  0
   23.4456   32.0309   11.8021 C   0  0  0  0  0  0  0  0  0  0  0  0
   25.9419   31.6067   12.9369 C   0  0  0  0  0  0  0  0  0  0  0  0
   24.4248   31.3248   11.1237 C   0  0  0  0  0  0  0  0  0  0  0  0
   23.7334   32.5175   13.0621 C   0  0  0  0  0  0  0  0  0  0  0  0
   25.6857   31.1006   11.6701 C   0  0  0  0  0  0  0  0  0  0  0  0
   27.9207   31.0420   10.5984 C   0  0  0  0  0  0  0  0  0  0  0  0
   26.1457   29.3856    9.9781 C   0  0  0  0  0  0  0  0  0  0  0  0
   28.9850   29.9936   10.3086 C   0  0  0  0  0  0  0  0  0  0  0  0
   27.2193   28.3708    9.5783 C   0  0  0  0  0  0  0  0  0  0  0  0
   26.6772   30.3441   10.9507 N   0  0  0  0  0  0  0  0  0  0  0  0
   28.4924   29.0787    9.2278 N   0  0  0  0  0  0  0  0  0  0  0  0
   29.5234   28.1074    8.7103 C   0  0  0  0  0  0  0  0  0  0  0  0
   28.4679   26.6111    6.9565 C   0  0  0  0  0  0  0  0  0  0  0  0
   29.0123   26.8006    8.1820 C   0  0  0  0  0  0  0  0  0  0  0  0
   27.9554   25.2771    6.5044 C   0  0  0  0  0  0  0  0  0  0  0  0
   29.1593   25.6351    9.1152 C   0  0  0  0  0  0  0  0  0  0  0  0
   28.3114   24.1553    7.4687 C   0  0  0  0  0  0  0  0  0  0  0  0
   28.2111   24.5954    8.8240 O   0  0  0  0  0  0  0  0  0  0  0  0
   27.0732   28.1408    5.6253 C   0  0  0  0  0  0  0  0  0  0  0  0
   29.4536   28.1644    5.2999 C   0  0  0  0  0  0  0  0  0  0  0  0
   27.8773   30.9077    2.8995 Cl  0  0  0  0  0  0  0  0  0  0  0  0
   26.9306   29.1423    4.6876 C   0  0  0  0  0  0  0  0  0  0  0  0
   29.3104   29.1521    4.3507 C   0  0  0  0  0  0  0  0  0  0  0  0
   28.3318   27.6414    5.9241 C   0  0  0  0  0  0  0  0  0  0  0  0
   28.0556   29.6420    4.0587 C   0  0  0  0  0  0  0  0  0  0  0  0
   22.6697   33.2259   13.8083 C   0  0  0  0  0  0  0  0  0  0  0  0
   23.0370   34.5237   14.1844 N   0  0  0  0  0  0  0  0  0  0  0  0
   21.6067   32.7223   14.1333 O   0  0  0  0  0  0  0  0  0  0  0  0
   23.8522   34.9170   13.7970 H   0  0  0  0  0  0  0  0  0  0  0  0
   21.1129   34.5784   15.8527 O   0  0  0  0  0  0  0  0  0  0  0  0
   23.0456   36.1159   16.1891 O   0  0  0  0  0  0  0  0  0  0  0  0
   22.1347   35.4373   15.2762 S   0  0  0  0  0  0  0  0  0  0  0  0
   19.6230   37.4398   12.8202 C   0  0  0  0  0  0  0  0  0  0  0  0
   20.1902   36.4392   13.5922 C   0  0  0  0  0  0  0  0  0  0  0  0
   21.9872   37.9128   14.1779 C   0  0  0  0  0  0  0  0  0  0  0  0
   20.2082   38.6987   12.7298 C   0  0  0  0  0  0  0  0  0  0  0  0
   21.3977   38.9021   13.4214 C   0  0  0  0  0  0  0  0  0  0  0  0
   21.3601   36.6914   14.2813 C   0  0  0  0  0  0  0  0  0  0  0  0
   22.1250   40.1632   13.3963 N   0  0  0  0  0  0  0  0  0  0  0  0
   22.1529   40.8259   14.4319 O   0  0  0  0  0  0  0  0  0  0  0  0
   22.6790   40.5133   12.3607 O   0  0  0  0  0  0  0  0  0  0  0  0
   19.6727   39.7592   11.9594 N   0  0  0  0  0  0  0  0  0  0  0  0
   19.4906   40.6302   12.3805 H   0  0  0  0  0  0  0  0  0  0  0  0
   20.6846   39.3410    9.7726 C   0  0  0  0  0  0  0  0  0  0  0  0
   18.7220   40.8356   10.0062 C   0  0  0  0  0  0  0  0  0  0  0  0
   20.3886   39.2752    8.2815 C   0  0  0  0  0  0  0  0  0  0  0  0
   18.6216   40.8410    8.4814 C   0  0  0  0  0  0  0  0  0  0  0  0
   19.3893   39.5604   10.5349 C   0  0  0  0  0  0  0  0  0  0  0  0
   19.8857   40.5382    7.8575 O   0  0  0  0  0  0  0  0  0  0  0  0
 23 20  2  0  0  0
 20 25  1  0  0  0
 24 21  1  0  0  0
 21 25  2  0  0  0
  3  1  2  0  0  0
  1  5  1  0  0  0
  4  2  1  0  0  0
  2  5  2  0  0  0
 22 26  1  0  0  0
  6  3  1  0  0  0
  6  4  2  0  0  0
 37 34  2  0  0  0
 34 35  1  0  0  0
 39 35  2  0  0  0
 26 23  1  0  0  0
 26 24  2  0  0  0
 38 36  2  0  0  0
 36 39  1  0  0  0
 25 14  1  0  0  0
  5 27  1  0  0  0
 11  6  1  0  0  0
 43 37  1  0  0  0
 38 37  1  0  0  0
 40 38  1  0  0  0
 39 33  1  0  0  0
 16 14  1  0  0  0
 14 15  2  0  0  0
 15 13  1  0  0  0
 15 17  1  0  0  0
 28 27  1  0  0  0
 27 29  2  0  0  0
 16 18  1  0  0  0
 19 17  1  0  0  0
 49 45  1  0  0  0
 45 47  1  0  0  0
 46 48  1  0  0  0
 46 49  1  0  0  0
  9  7  1  0  0  0
  7 11  1  0  0  0
 10  8  1  0  0  0
 11  8  1  0  0  0
  9 12  1  0  0  0
 12 10  1  0  0  0
 18 19  1  0  0  0
 50 47  1  0  0  0
 48 50  1  0  0  0
 43 49  1  0  0  0
 13 12  1  0  0  0
 28 33  1  0  0  0
 42 40  1  0  0  0
 41 40  2  0  0  0
 31 33  2  0  0  0
 33 32  2  0  0  0
 43 44  1  0  0  0
 28 30  1  0  0  0
M  CHG 1  40   1
M  CHG 1  42  -1
M  END
> <minimizedAffinity>
-8.10379

$$$$
