6G37_FTU_A_801
  RCSB PDB04141810343D
Coordinates from PDB:6G37:A:801 Model:1 without hydrogens
 20 22  0  0  0  0            999 V2000
   10.6680   12.2440   10.6040   F 0  0  0  0  0  0  0  0  0  0  0  0
   11.5030   11.8990   11.6120   C 0  0  0  0  0  0  0  0  0  0  0  0
   12.4250   10.8970   11.5930   C 0  0  0  0  0  0  0  0  0  0  0  0
   11.5640   12.5350   12.8760   C 0  0  0  0  0  0  0  0  0  0  0  0
   12.5770   11.8640   13.5900   C 0  0  0  0  0  0  0  0  0  0  0  0
   12.9440   12.1610   14.8440   N 0  0  0  0  0  0  0  0  0  0  0  0
   12.2630   13.1890   15.3630   C 0  0  0  0  0  0  0  0  0  0  0  0
   11.2920   13.9140   14.8020   N 0  0  0  0  0  0  0  0  0  0  0  0
   10.9060   13.5930   13.5530   C 0  0  0  0  0  0  0  0  0  0  0  0
    9.9300   14.3030   12.9990   N 0  0  0  0  0  0  0  0  0  0  0  0
   13.0940   10.8750   12.7960   N 0  0  0  0  0  0  0  0  0  0  0  0
   14.1650    9.9630   13.1900   C 0  0  0  0  0  0  0  0  0  0  0  0
   13.6750    8.7470   13.9780   C 0  0  0  0  0  0  0  0  0  0  0  0
   14.6930    8.3370   14.8920   O 0  0  0  0  0  0  0  0  0  0  0  0
   13.4320    7.7450   12.8500   C 0  0  0  0  0  0  0  0  0  0  0  0
   13.4640    6.3850   13.2970   O 0  0  0  0  0  0  0  0  0  0  0  0
   14.7830    9.4660   12.0180   O 0  0  0  0  0  0  0  0  0  0  0  0
   14.5910    8.0390   11.9060   C 0  0  0  0  0  0  0  0  0  0  0  0
   14.3940    7.6520   10.4610   C 0  0  0  0  0  0  0  0  0  0  0  0
   13.1890    8.1740    9.8970   O 0  0  0  0  0  0  0  0  0  0  0  0
 20 19  1  0  0  0  0
 19 18  1  0  0  0  0
  1  2  1  0  0  0  0
  3  2  2  0  0  0  0
  3 11  1  0  0  0  0
  2  4  1  0  0  0  0
 18 17  1  0  0  0  0
 18 15  1  0  0  0  0
 17 12  1  0  0  0  0
 11 12  1  0  0  0  0
 11  5  1  0  0  0  0
 15 16  1  0  0  0  0
 15 13  1  0  0  0  0
  4  9  2  0  0  0  0
  4  5  1  0  0  0  0
 10  9  1  0  0  0  0
 12 13  1  0  0  0  0
  9  8  1  0  0  0  0
  5  6  2  0  0  0  0
 13 14  1  0  0  0  0
  8  7  2  0  0  0  0
  6  7  1  0  0  0  0
A    1
F
A    2
C6
A    3
C5
A    4
C7
A    5
C10
A    6
N3
A    7
C9
A    8
N2
A    9
C8
A   10
N1
A   11
N
A   12
C4
A   13
C3
A   14
O1
A   15
C2
A   16
O2
A   17
O
A   18
C1
A   19
C
A   20
O3
M  END
>  <InstanceId>
6G37_FTU_A_801

>  <ChemCompId>
FTU

>  <PdbId>
6G37

>  <ChainId>
A

>  <ResidueNumber>
801

>  <InsertionCode>


>  <Model>
1

>  <AltIds>


>  <MissingHeavyAtoms>
0

>  <ObservedFormula>
C11 N4 O4 F

>  <Name>
5-fluorotubercidin

>  <SystematicName>
(2~{R},3~{R},4~{S},5~{R})-2-(4-azanyl-5-fluoranyl-pyrrolo[2,3-d]pyrimidin-7-yl)-5-(hydroxymethyl)oxolane-3,4-diol

>  <Synonyms>


>  <Type>
NON-POLYMER

>  <Formula>
C11 H13 F N4 O4

>  <MolecularWeight>
284.244

>  <ModifiedDate>
2018-04-13

>  <Parent>


>  <OneLetterCode>


>  <SubcomponentList>


>  <AmbiguousFlag>
N

>  <InChI>
InChI=1S/C11H13FN4O4/c12-4-1-16(10-6(4)9(13)14-3-15-10)11-8(19)7(18)5(2-17)20-11/h1,3,5,7-8,11,17-19H,2H2,(H2,13,14,15)/t5-,7-,8-,11-/m1/s1

>  <InChIKey>
KRRZKBNCONNKPI-IOSLPCCCSA-N

>  <SMILES>
c1c(c2c(ncnc2n1[C@H]3[C@@H]([C@@H]([C@H](O3)CO)O)O)N)F

$$$$
