6G37_FTU_A_801


 25 27  0  0  0  0  0  0  0  0999 V2000
   10.7624   12.1090   10.4754 F   0  0  0  0  0  0  0  0  0  0  0  0
   11.6018   11.8478   11.5047 C   0  0  0  0  0  0  0  0  0  0  0  0
   12.5914   10.9125   11.5256 C   0  0  0  0  0  0  0  0  0  0  0  0
   11.5966   12.5171   12.7529 C   0  0  0  0  0  0  0  0  0  0  0  0
   12.6412   11.9360   13.4995 C   0  0  0  0  0  0  0  0  0  0  0  0
   12.9649   12.2883   14.7511 N   0  0  0  0  0  0  0  0  0  0  0  0
   12.2052   13.2786   15.2331 C   0  0  0  0  0  0  0  0  0  0  0  0
   11.1961   13.9201   14.6387 N   0  0  0  0  0  0  0  0  0  0  0  0
   10.8550   13.5426   13.3924 C   0  0  0  0  0  0  0  0  0  0  0  0
    9.8418   14.1690   12.8054 N   0  0  0  0  0  0  0  0  0  0  0  0
   13.2393   10.9666   12.7391 N   0  0  0  0  0  0  0  0  0  0  0  0
    9.5681   13.9160   11.8942 H   0  0  0  0  0  0  0  0  0  0  0  0
    9.3644   14.8865   13.2814 H   0  0  0  0  0  0  0  0  0  0  0  0
   14.3641   10.1415   13.1728 C   0  0  0  0  0  0  0  0  0  0  0  0
   13.9743    9.0511   14.1722 C   0  0  0  0  0  0  0  0  0  0  0  0
   15.0744    8.8000   15.0477 O   0  0  0  0  0  0  0  0  0  0  0  0
   13.6687    7.8864   13.2312 C   0  0  0  0  0  0  0  0  0  0  0  0
   13.7752    6.6103   13.8720 O   0  0  0  0  0  0  0  0  0  0  0  0
   14.8985    9.4827   12.0401 O   0  0  0  0  0  0  0  0  0  0  0  0
   14.7383    8.0523   12.1592 C   0  0  0  0  0  0  0  0  0  0  0  0
   15.8626    8.5878   14.5238 H   0  0  0  0  0  0  0  0  0  0  0  0
   14.6666    6.5069   14.2404 H   0  0  0  0  0  0  0  0  0  0  0  0
   14.4355    7.4483   10.8101 C   0  0  0  0  0  0  0  0  0  0  0  0
   15.3129    7.9048    9.7784 O   0  0  0  0  0  0  0  0  0  0  0  0
   16.2234    7.6464    9.9906 H   0  0  0  0  0  0  0  0  0  0  0  0
 24 23  1  0  0  0
 23 20  1  0  0  0
  1  2  1  0  0  0
  3  2  2  0  0  0
  3 11  1  0  0  0
  2  4  1  0  0  0
 20 19  1  0  0  0
 20 17  1  0  0  0
 19 14  1  0  0  0
 11 14  1  0  0  0
 11  5  1  0  0  0
 17 18  1  0  0  0
 17 15  1  0  0  0
  4  9  2  0  0  0
  4  5  1  0  0  0
 10  9  1  0  0  0
 14 15  1  0  0  0
  9  8  1  0  0  0
  5  6  2  0  0  0
 15 16  1  0  0  0
  8  7  2  0  0  0
  6  7  1  0  0  0
 10 12  1  0  0  0
 10 13  1  0  0  0
 16 21  1  0  0  0
 18 22  1  0  0  0
 24 25  1  0  0  0
M  END
> <minimizedAffinity>
-9.16101

$$$$
6G37_FTU_A_801


 25 27  0  0  0  0  0  0  0  0999 V2000
   13.7743    5.4947   12.0610 F   0  0  0  0  0  0  0  0  0  0  0  0
   13.6421    6.8278   11.8673 C   0  0  0  0  0  0  0  0  0  0  0  0
   14.1359    7.8150   12.6648 C   0  0  0  0  0  0  0  0  0  0  0  0
   12.9612    7.4320   10.7823 C   0  0  0  0  0  0  0  0  0  0  0  0
   13.0933    8.8215   10.9777 C   0  0  0  0  0  0  0  0  0  0  0  0
   12.5776    9.7534   10.1647 N   0  0  0  0  0  0  0  0  0  0  0  0
   11.9295    9.2364    9.1146 C   0  0  0  0  0  0  0  0  0  0  0  0
   11.7357    7.9521    8.8043 N   0  0  0  0  0  0  0  0  0  0  0  0
   12.2299    7.0195    9.6396 C   0  0  0  0  0  0  0  0  0  0  0  0
   12.0251    5.7418    9.3408 N   0  0  0  0  0  0  0  0  0  0  0  0
   13.8134    9.0386   12.1223 N   0  0  0  0  0  0  0  0  0  0  0  0
   12.3740    5.0360    9.9319 H   0  0  0  0  0  0  0  0  0  0  0  0
   11.5243    5.5005    8.5283 H   0  0  0  0  0  0  0  0  0  0  0  0
   14.1563   10.3547   12.6555 C   0  0  0  0  0  0  0  0  0  0  0  0
   13.0231   11.0086   13.4479 C   0  0  0  0  0  0  0  0  0  0  0  0
   13.1105   12.4275   13.3107 O   0  0  0  0  0  0  0  0  0  0  0  0
   13.3306   10.5150   14.8611 C   0  0  0  0  0  0  0  0  0  0  0  0
   12.7682   11.3519   15.8778 O   0  0  0  0  0  0  0  0  0  0  0  0
   15.2439   10.2061   13.5485 O   0  0  0  0  0  0  0  0  0  0  0  0
   14.8530   10.5626   14.8923 C   0  0  0  0  0  0  0  0  0  0  0  0
   13.9955   12.7240   13.5749 H   0  0  0  0  0  0  0  0  0  0  0  0
   13.0976   12.2578   15.7698 H   0  0  0  0  0  0  0  0  0  0  0  0
   15.5322    9.6570   15.8897 C   0  0  0  0  0  0  0  0  0  0  0  0
   14.6282    9.0810   16.8350 O   0  0  0  0  0  0  0  0  0  0  0  0
   13.9805    8.5298   16.3686 H   0  0  0  0  0  0  0  0  0  0  0  0
 24 23  1  0  0  0
 23 20  1  0  0  0
  1  2  1  0  0  0
  3  2  2  0  0  0
  3 11  1  0  0  0
  2  4  1  0  0  0
 20 19  1  0  0  0
 20 17  1  0  0  0
 19 14  1  0  0  0
 11 14  1  0  0  0
 11  5  1  0  0  0
 17 18  1  0  0  0
 17 15  1  0  0  0
  4  9  2  0  0  0
  4  5  1  0  0  0
 10  9  1  0  0  0
 14 15  1  0  0  0
  9  8  1  0  0  0
  5  6  2  0  0  0
 15 16  1  0  0  0
  8  7  2  0  0  0
  6  7  1  0  0  0
 10 12  1  0  0  0
 10 13  1  0  0  0
 16 21  1  0  0  0
 18 22  1  0  0  0
 24 25  1  0  0  0
M  END
> <minimizedAffinity>
-8.61470

$$$$
6G37_FTU_A_801


 25 27  0  0  0  0  0  0  0  0999 V2000
   11.8042   13.3490   15.3037 F   0  0  0  0  0  0  0  0  0  0  0  0
   12.2886   12.5504   14.3239 C   0  0  0  0  0  0  0  0  0  0  0  0
   13.3424   11.6937   14.4241 C   0  0  0  0  0  0  0  0  0  0  0  0
   11.7703   12.4652   13.0086 C   0  0  0  0  0  0  0  0  0  0  0  0
   12.5647   11.5059   12.3491 C   0  0  0  0  0  0  0  0  0  0  0  0
   12.4021   11.1367   11.0713 N   0  0  0  0  0  0  0  0  0  0  0  0
   11.3815   11.7576   10.4690 C   0  0  0  0  0  0  0  0  0  0  0  0
   10.5495   12.6735   10.9712 N   0  0  0  0  0  0  0  0  0  0  0  0
   10.7351   13.0632   12.2462 C   0  0  0  0  0  0  0  0  0  0  0  0
    9.9182   13.9851   12.7427 N   0  0  0  0  0  0  0  0  0  0  0  0
   13.5120   11.0428   13.2230 N   0  0  0  0  0  0  0  0  0  0  0  0
   10.0281   14.2911   13.6720 H   0  0  0  0  0  0  0  0  0  0  0  0
    9.2027   14.3625   12.1816 H   0  0  0  0  0  0  0  0  0  0  0  0
   14.5219   10.0369   12.9029 C   0  0  0  0  0  0  0  0  0  0  0  0
   14.6142    8.9117   13.9349 C   0  0  0  0  0  0  0  0  0  0  0  0
   15.9578    8.4302   13.9874 O   0  0  0  0  0  0  0  0  0  0  0  0
   13.6283    7.8990   13.3536 C   0  0  0  0  0  0  0  0  0  0  0  0
   13.8749    6.5616   13.8019 O   0  0  0  0  0  0  0  0  0  0  0  0
   14.1758    9.4318   11.6714 O   0  0  0  0  0  0  0  0  0  0  0  0
   13.8801    8.0304   11.8569 C   0  0  0  0  0  0  0  0  0  0  0  0
   16.2431    8.1703   13.0975 H   0  0  0  0  0  0  0  0  0  0  0  0
   14.7811    6.3048   13.5702 H   0  0  0  0  0  0  0  0  0  0  0  0
   12.7514    7.6116   10.9474 C   0  0  0  0  0  0  0  0  0  0  0  0
   12.1233    6.3936   11.3529 O   0  0  0  0  0  0  0  0  0  0  0  0
   11.7311    6.5093   12.2325 H   0  0  0  0  0  0  0  0  0  0  0  0
 24 23  1  0  0  0
 23 20  1  0  0  0
  1  2  1  0  0  0
  3  2  2  0  0  0
  3 11  1  0  0  0
  2  4  1  0  0  0
 20 19  1  0  0  0
 20 17  1  0  0  0
 19 14  1  0  0  0
 11 14  1  0  0  0
 11  5  1  0  0  0
 17 18  1  0  0  0
 17 15  1  0  0  0
  4  9  2  0  0  0
  4  5  1  0  0  0
 10  9  1  0  0  0
 14 15  1  0  0  0
  9  8  1  0  0  0
  5  6  2  0  0  0
 15 16  1  0  0  0
  8  7  2  0  0  0
  6  7  1  0  0  0
 10 12  1  0  0  0
 10 13  1  0  0  0
 16 21  1  0  0  0
 18 22  1  0  0  0
 24 25  1  0  0  0
M  END
> <minimizedAffinity>
-8.45966

$$$$
6G37_FTU_A_801


 25 27  0  0  0  0  0  0  0  0999 V2000
   13.8000    9.8526   16.4549 F   0  0  0  0  0  0  0  0  0  0  0  0
   13.6316    9.7483   15.1158 C   0  0  0  0  0  0  0  0  0  0  0  0
   13.9075    8.6585   14.3472 C   0  0  0  0  0  0  0  0  0  0  0  0
   13.1271   10.7695   14.2741 C   0  0  0  0  0  0  0  0  0  0  0  0
   13.1087   10.2178   12.9773 C   0  0  0  0  0  0  0  0  0  0  0  0
   12.7008   10.8720   11.8813 N   0  0  0  0  0  0  0  0  0  0  0  0
   12.2822   12.1169   12.1358 C   0  0  0  0  0  0  0  0  0  0  0  0
   12.2381   12.7588   13.3060 N   0  0  0  0  0  0  0  0  0  0  0  0
   12.6767   12.1081   14.3997 C   0  0  0  0  0  0  0  0  0  0  0  0
   12.6478   12.7501   15.5619 N   0  0  0  0  0  0  0  0  0  0  0  0
   13.5808    8.9336   13.0385 N   0  0  0  0  0  0  0  0  0  0  0  0
   12.9618   12.3013   16.3800 H   0  0  0  0  0  0  0  0  0  0  0  0
   12.3125   13.6747   15.6053 H   0  0  0  0  0  0  0  0  0  0  0  0
   13.7123    8.0374   11.8923 C   0  0  0  0  0  0  0  0  0  0  0  0
   15.1411    7.9346   11.3561 C   0  0  0  0  0  0  0  0  0  0  0  0
   15.0996    7.6921    9.9492 O   0  0  0  0  0  0  0  0  0  0  0  0
   15.6721    6.7493   12.1613 C   0  0  0  0  0  0  0  0  0  0  0  0
   16.7816    6.1000   11.5305 O   0  0  0  0  0  0  0  0  0  0  0  0
   13.3353    6.7350   12.2974 O   0  0  0  0  0  0  0  0  0  0  0  0
   14.4582    5.8304   12.2159 C   0  0  0  0  0  0  0  0  0  0  0  0
   14.5571    6.9077    9.7722 H   0  0  0  0  0  0  0  0  0  0  0  0
   16.5211    5.8023   10.6449 H   0  0  0  0  0  0  0  0  0  0  0  0
   14.4150    4.8430   13.3560 C   0  0  0  0  0  0  0  0  0  0  0  0
   15.6389    4.7769   14.0910 O   0  0  0  0  0  0  0  0  0  0  0  0
   15.8231    5.6413   14.4907 H   0  0  0  0  0  0  0  0  0  0  0  0
 24 23  1  0  0  0
 23 20  1  0  0  0
  1  2  1  0  0  0
  3  2  2  0  0  0
  3 11  1  0  0  0
  2  4  1  0  0  0
 20 19  1  0  0  0
 20 17  1  0  0  0
 19 14  1  0  0  0
 11 14  1  0  0  0
 11  5  1  0  0  0
 17 18  1  0  0  0
 17 15  1  0  0  0
  4  9  2  0  0  0
  4  5  1  0  0  0
 10  9  1  0  0  0
 14 15  1  0  0  0
  9  8  1  0  0  0
  5  6  2  0  0  0
 15 16  1  0  0  0
  8  7  2  0  0  0
  6  7  1  0  0  0
 10 12  1  0  0  0
 10 13  1  0  0  0
 16 21  1  0  0  0
 18 22  1  0  0  0
 24 25  1  0  0  0
M  END
> <minimizedAffinity>
-8.35996

$$$$
6G37_FTU_A_801


 25 27  0  0  0  0  0  0  0  0999 V2000
   13.2579    8.9575   15.2918 F   0  0  0  0  0  0  0  0  0  0  0  0
   13.1450    9.3955   14.0160 C   0  0  0  0  0  0  0  0  0  0  0  0
   12.7989   10.6510   13.6183 C   0  0  0  0  0  0  0  0  0  0  0  0
   13.3763    8.6110   12.8597 C   0  0  0  0  0  0  0  0  0  0  0  0
   13.1617    9.4741   11.7664 C   0  0  0  0  0  0  0  0  0  0  0  0
   13.2738    9.1114   10.4814 N   0  0  0  0  0  0  0  0  0  0  0  0
   13.6371    7.8335   10.3242 C   0  0  0  0  0  0  0  0  0  0  0  0
   13.8785    6.9140   11.2619 N   0  0  0  0  0  0  0  0  0  0  0  0
   13.7358    7.2746   12.5510 C   0  0  0  0  0  0  0  0  0  0  0  0
   13.9605    6.3574   13.4847 N   0  0  0  0  0  0  0  0  0  0  0  0
   12.8165   10.7109   12.2430 N   0  0  0  0  0  0  0  0  0  0  0  0
   13.8645    6.5900   14.4365 H   0  0  0  0  0  0  0  0  0  0  0  0
   14.2232    5.4448   13.2251 H   0  0  0  0  0  0  0  0  0  0  0  0
   12.5153   11.8721   11.4094 C   0  0  0  0  0  0  0  0  0  0  0  0
   11.4574   11.5996   10.3388 C   0  0  0  0  0  0  0  0  0  0  0  0
   11.7183   12.4205    9.1996 O   0  0  0  0  0  0  0  0  0  0  0  0
   10.1799   11.9836   11.0845 C   0  0  0  0  0  0  0  0  0  0  0  0
    9.1020   12.3216   10.2045 O   0  0  0  0  0  0  0  0  0  0  0  0
   12.0002   12.8965   12.2388 O   0  0  0  0  0  0  0  0  0  0  0  0
   10.6313   13.1959   11.8890 C   0  0  0  0  0  0  0  0  0  0  0  0
   11.7672   13.3494    9.4748 H   0  0  0  0  0  0  0  0  0  0  0  0
    9.3737   13.0510    9.6257 H   0  0  0  0  0  0  0  0  0  0  0  0
    9.8340   13.5121   13.1303 C   0  0  0  0  0  0  0  0  0  0  0  0
   10.5633   14.2833   14.0873 O   0  0  0  0  0  0  0  0  0  0  0  0
   10.8045   15.1381   13.6976 H   0  0  0  0  0  0  0  0  0  0  0  0
 24 23  1  0  0  0
 23 20  1  0  0  0
  1  2  1  0  0  0
  3  2  2  0  0  0
  3 11  1  0  0  0
  2  4  1  0  0  0
 20 19  1  0  0  0
 20 17  1  0  0  0
 19 14  1  0  0  0
 11 14  1  0  0  0
 11  5  1  0  0  0
 17 18  1  0  0  0
 17 15  1  0  0  0
  4  9  2  0  0  0
  4  5  1  0  0  0
 10  9  1  0  0  0
 14 15  1  0  0  0
  9  8  1  0  0  0
  5  6  2  0  0  0
 15 16  1  0  0  0
  8  7  2  0  0  0
  6  7  1  0  0  0
 10 12  1  0  0  0
 10 13  1  0  0  0
 16 21  1  0  0  0
 18 22  1  0  0  0
 24 25  1  0  0  0
M  END
> <minimizedAffinity>
-8.11020

$$$$
6G37_FTU_A_801


 25 27  0  0  0  0  0  0  0  0999 V2000
   11.7474   12.1424   12.5392 F   0  0  0  0  0  0  0  0  0  0  0  0
   12.7004   11.1855   12.6315 C   0  0  0  0  0  0  0  0  0  0  0  0
   13.1205   10.3617   11.6319 C   0  0  0  0  0  0  0  0  0  0  0  0
   13.4377   10.8772   13.8008 C   0  0  0  0  0  0  0  0  0  0  0  0
   14.3194    9.8417   13.4314 C   0  0  0  0  0  0  0  0  0  0  0  0
   15.1925    9.2572   14.2630 N   0  0  0  0  0  0  0  0  0  0  0  0
   15.1682    9.7704   15.4983 C   0  0  0  0  0  0  0  0  0  0  0  0
   14.3972   10.7486   15.9798 N   0  0  0  0  0  0  0  0  0  0  0  0
   13.5008   11.3125   15.1488 C   0  0  0  0  0  0  0  0  0  0  0  0
   12.7224   12.2750   15.6298 N   0  0  0  0  0  0  0  0  0  0  0  0
   14.1185    9.5428   12.1100 N   0  0  0  0  0  0  0  0  0  0  0  0
   12.0569   12.7072   15.0472 H   0  0  0  0  0  0  0  0  0  0  0  0
   12.8110   12.5563   16.5691 H   0  0  0  0  0  0  0  0  0  0  0  0
   14.8474    8.5185   11.3659 C   0  0  0  0  0  0  0  0  0  0  0  0
   14.9268    7.1744   12.0916 C   0  0  0  0  0  0  0  0  0  0  0  0
   16.1446    6.5185   11.7356 O   0  0  0  0  0  0  0  0  0  0  0  0
   13.6799    6.4753   11.5513 C   0  0  0  0  0  0  0  0  0  0  0  0
   13.7582    5.0484   11.6424 O   0  0  0  0  0  0  0  0  0  0  0  0
   14.1685    8.2830   10.1469 O   0  0  0  0  0  0  0  0  0  0  0  0
   13.6621    6.9314   10.0979 C   0  0  0  0  0  0  0  0  0  0  0  0
   16.2029    6.4467   10.7700 H   0  0  0  0  0  0  0  0  0  0  0  0
   14.5412    4.7362   11.1624 H   0  0  0  0  0  0  0  0  0  0  0  0
   12.3237    6.9018    9.4018 C   0  0  0  0  0  0  0  0  0  0  0  0
   11.7941    5.5825    9.2548 O   0  0  0  0  0  0  0  0  0  0  0  0
   11.6502    5.1923   10.1311 H   0  0  0  0  0  0  0  0  0  0  0  0
 24 23  1  0  0  0
 23 20  1  0  0  0
  1  2  1  0  0  0
  3  2  2  0  0  0
  3 11  1  0  0  0
  2  4  1  0  0  0
 20 19  1  0  0  0
 20 17  1  0  0  0
 19 14  1  0  0  0
 11 14  1  0  0  0
 11  5  1  0  0  0
 17 18  1  0  0  0
 17 15  1  0  0  0
  4  9  2  0  0  0
  4  5  1  0  0  0
 10  9  1  0  0  0
 14 15  1  0  0  0
  9  8  1  0  0  0
  5  6  2  0  0  0
 15 16  1  0  0  0
  8  7  2  0  0  0
  6  7  1  0  0  0
 10 12  1  0  0  0
 10 13  1  0  0  0
 16 21  1  0  0  0
 18 22  1  0  0  0
 24 25  1  0  0  0
M  END
> <minimizedAffinity>
-8.02497

$$$$
6G37_FTU_A_801


 25 27  0  0  0  0  0  0  0  0999 V2000
    9.4691   13.1071   11.3243 F   0  0  0  0  0  0  0  0  0  0  0  0
   10.5306   12.2692   11.2669 C   0  0  0  0  0  0  0  0  0  0  0  0
   11.5886   12.2423   12.1238 C   0  0  0  0  0  0  0  0  0  0  0  0
   10.7218   11.2586   10.2932 C   0  0  0  0  0  0  0  0  0  0  0  0
   11.9372   10.6305   10.6316 C   0  0  0  0  0  0  0  0  0  0  0  0
   12.4826    9.6165    9.9463 N   0  0  0  0  0  0  0  0  0  0  0  0
   11.7435    9.2293    8.9005 C   0  0  0  0  0  0  0  0  0  0  0  0
   10.5798    9.7252    8.4728 N   0  0  0  0  0  0  0  0  0  0  0  0
   10.0503   10.7633    9.1467 C   0  0  0  0  0  0  0  0  0  0  0  0
    8.9006   11.2679    8.7139 N   0  0  0  0  0  0  0  0  0  0  0  0
   12.4494   11.2356   11.7484 N   0  0  0  0  0  0  0  0  0  0  0  0
    8.4879   12.0273    9.1852 H   0  0  0  0  0  0  0  0  0  0  0  0
    8.4612   10.8825    7.9217 H   0  0  0  0  0  0  0  0  0  0  0  0
   13.7016   10.8607   12.4006 C   0  0  0  0  0  0  0  0  0  0  0  0
   13.5820   10.7154   13.9186 C   0  0  0  0  0  0  0  0  0  0  0  0
   14.8276   11.0636   14.5244 O   0  0  0  0  0  0  0  0  0  0  0  0
   13.2389    9.2316   14.0451 C   0  0  0  0  0  0  0  0  0  0  0  0
   13.5664    8.6920   15.3304 O   0  0  0  0  0  0  0  0  0  0  0  0
   14.1054    9.5994   11.9019 O   0  0  0  0  0  0  0  0  0  0  0  0
   14.1011    8.6098   12.9538 C   0  0  0  0  0  0  0  0  0  0  0  0
   15.5374   10.5297   14.1342 H   0  0  0  0  0  0  0  0  0  0  0  0
   14.5112    8.8245   15.5054 H   0  0  0  0  0  0  0  0  0  0  0  0
   13.6423    7.2778   12.4137 C   0  0  0  0  0  0  0  0  0  0  0  0
   13.6693    6.2342   13.3898 O   0  0  0  0  0  0  0  0  0  0  0  0
   13.0633    6.4538   14.1147 H   0  0  0  0  0  0  0  0  0  0  0  0
 24 23  1  0  0  0
 23 20  1  0  0  0
  1  2  1  0  0  0
  3  2  2  0  0  0
  3 11  1  0  0  0
  2  4  1  0  0  0
 20 19  1  0  0  0
 20 17  1  0  0  0
 19 14  1  0  0  0
 11 14  1  0  0  0
 11  5  1  0  0  0
 17 18  1  0  0  0
 17 15  1  0  0  0
  4  9  2  0  0  0
  4  5  1  0  0  0
 10  9  1  0  0  0
 14 15  1  0  0  0
  9  8  1  0  0  0
  5  6  2  0  0  0
 15 16  1  0  0  0
  8  7  2  0  0  0
  6  7  1  0  0  0
 10 12  1  0  0  0
 10 13  1  0  0  0
 16 21  1  0  0  0
 18 22  1  0  0  0
 24 25  1  0  0  0
M  END
> <minimizedAffinity>
-7.97547

$$$$
6G37_FTU_A_801


 25 27  0  0  0  0  0  0  0  0999 V2000
   10.4488   13.2558   13.3457 F   0  0  0  0  0  0  0  0  0  0  0  0
   11.2219   12.3712   12.6733 C   0  0  0  0  0  0  0  0  0  0  0  0
   12.3903   11.8229   13.1076 C   0  0  0  0  0  0  0  0  0  0  0  0
   10.9399   11.8537   11.3855 C   0  0  0  0  0  0  0  0  0  0  0  0
   11.9942   10.9650   11.0943 C   0  0  0  0  0  0  0  0  0  0  0  0
   12.1051   10.2682    9.9552 N   0  0  0  0  0  0  0  0  0  0  0  0
   11.0916   10.4789    9.1077 C   0  0  0  0  0  0  0  0  0  0  0  0
   10.0334   11.2797    9.2561 N   0  0  0  0  0  0  0  0  0  0  0  0
    9.9414   12.0004   10.3894 C   0  0  0  0  0  0  0  0  0  0  0  0
    8.8977   12.8090   10.5323 N   0  0  0  0  0  0  0  0  0  0  0  0
   12.8647   10.9531   12.1517 N   0  0  0  0  0  0  0  0  0  0  0  0
    8.8019   13.3493   11.3497 H   0  0  0  0  0  0  0  0  0  0  0  0
    8.2198   12.8682    9.8209 H   0  0  0  0  0  0  0  0  0  0  0  0
   14.0840   10.1515   12.2198 C   0  0  0  0  0  0  0  0  0  0  0  0
   14.2153    9.3450   13.5129 C   0  0  0  0  0  0  0  0  0  0  0  0
   15.5983    9.2005   13.8391 O   0  0  0  0  0  0  0  0  0  0  0  0
   13.5461    8.0319   13.1088 C   0  0  0  0  0  0  0  0  0  0  0  0
   13.9624    6.9239   13.9147 O   0  0  0  0  0  0  0  0  0  0  0  0
   14.0645    9.2166   11.1577 O   0  0  0  0  0  0  0  0  0  0  0  0
   14.0109    7.8664   11.6675 C   0  0  0  0  0  0  0  0  0  0  0  0
   16.0694    8.8121   13.0854 H   0  0  0  0  0  0  0  0  0  0  0  0
   14.9262    6.8290   13.8608 H   0  0  0  0  0  0  0  0  0  0  0  0
   13.1457    7.0080   10.7780 C   0  0  0  0  0  0  0  0  0  0  0  0
   12.1035    6.3337   11.4864 O   0  0  0  0  0  0  0  0  0  0  0  0
   11.5105    6.9876   11.8886 H   0  0  0  0  0  0  0  0  0  0  0  0
 24 23  1  0  0  0
 23 20  1  0  0  0
  1  2  1  0  0  0
  3  2  2  0  0  0
  3 11  1  0  0  0
  2  4  1  0  0  0
 20 19  1  0  0  0
 20 17  1  0  0  0
 19 14  1  0  0  0
 11 14  1  0  0  0
 11  5  1  0  0  0
 17 18  1  0  0  0
 17 15  1  0  0  0
  4  9  2  0  0  0
  4  5  1  0  0  0
 10  9  1  0  0  0
 14 15  1  0  0  0
  9  8  1  0  0  0
  5  6  2  0  0  0
 15 16  1  0  0  0
  8  7  2  0  0  0
  6  7  1  0  0  0
 10 12  1  0  0  0
 10 13  1  0  0  0
 16 21  1  0  0  0
 18 22  1  0  0  0
 24 25  1  0  0  0
M  END
> <minimizedAffinity>
-7.97089

$$$$
6G37_FTU_A_801


 25 27  0  0  0  0  0  0  0  0999 V2000
   11.2096   10.1580    8.9507 F   0  0  0  0  0  0  0  0  0  0  0  0
   12.0850   10.0632    9.9788 C   0  0  0  0  0  0  0  0  0  0  0  0
   13.0247    9.0935   10.1557 C   0  0  0  0  0  0  0  0  0  0  0  0
   12.1772   10.9736   11.0598 C   0  0  0  0  0  0  0  0  0  0  0  0
   13.2266   10.4958   11.8701 C   0  0  0  0  0  0  0  0  0  0  0  0
   13.6305   11.0773   13.0076 N   0  0  0  0  0  0  0  0  0  0  0  0
   12.9483   12.1899   13.3020 C   0  0  0  0  0  0  0  0  0  0  0  0
   11.9451   12.7560   12.6264 N   0  0  0  0  0  0  0  0  0  0  0  0
   11.5228   12.1520   11.5000 C   0  0  0  0  0  0  0  0  0  0  0  0
   10.5151   12.7051   10.8349 N   0  0  0  0  0  0  0  0  0  0  0  0
   13.7348    9.3561   11.3055 N   0  0  0  0  0  0  0  0  0  0  0  0
   10.1833   12.2874   10.0075 H   0  0  0  0  0  0  0  0  0  0  0  0
   10.0999   13.5328   11.1693 H   0  0  0  0  0  0  0  0  0  0  0  0
   14.8357    8.5707   11.8578 C   0  0  0  0  0  0  0  0  0  0  0  0
   14.4974    7.8912   13.1858 C   0  0  0  0  0  0  0  0  0  0  0  0
   15.6826    7.7852   13.9757 O   0  0  0  0  0  0  0  0  0  0  0  0
   13.9693    6.5423   12.6989 C   0  0  0  0  0  0  0  0  0  0  0  0
   14.0562    5.5178   13.6956 O   0  0  0  0  0  0  0  0  0  0  0  0
   15.1525    7.5392   10.9423 O   0  0  0  0  0  0  0  0  0  0  0  0
   14.8915    6.2432   11.5238 C   0  0  0  0  0  0  0  0  0  0  0  0
   16.3709    7.3295   13.4663 H   0  0  0  0  0  0  0  0  0  0  0  0
   14.9779    5.4231   13.9824 H   0  0  0  0  0  0  0  0  0  0  0  0
   14.3568    5.2999   10.4745 C   0  0  0  0  0  0  0  0  0  0  0  0
   13.1135    4.6971   10.8397 O   0  0  0  0  0  0  0  0  0  0  0  0
   12.4400    5.3864   10.9501 H   0  0  0  0  0  0  0  0  0  0  0  0
 24 23  1  0  0  0
 23 20  1  0  0  0
  1  2  1  0  0  0
  3  2  2  0  0  0
  3 11  1  0  0  0
  2  4  1  0  0  0
 20 19  1  0  0  0
 20 17  1  0  0  0
 19 14  1  0  0  0
 11 14  1  0  0  0
 11  5  1  0  0  0
 17 18  1  0  0  0
 17 15  1  0  0  0
  4  9  2  0  0  0
  4  5  1  0  0  0
 10  9  1  0  0  0
 14 15  1  0  0  0
  9  8  1  0  0  0
  5  6  2  0  0  0
 15 16  1  0  0  0
  8  7  2  0  0  0
  6  7  1  0  0  0
 10 12  1  0  0  0
 10 13  1  0  0  0
 16 21  1  0  0  0
 18 22  1  0  0  0
 24 25  1  0  0  0
M  END
> <minimizedAffinity>
-7.94432

$$$$
6G37_FTU_A_801


 25 27  0  0  0  0  0  0  0  0999 V2000
   13.7379    6.8835   13.5075 F   0  0  0  0  0  0  0  0  0  0  0  0
   13.4122    7.9193   12.6992 C   0  0  0  0  0  0  0  0  0  0  0  0
   13.5047    9.2436   13.0027 C   0  0  0  0  0  0  0  0  0  0  0  0
   12.9168    7.7998   11.3778 C   0  0  0  0  0  0  0  0  0  0  0  0
   12.7374    9.1202   10.9188 C   0  0  0  0  0  0  0  0  0  0  0  0
   12.2722    9.4437    9.7046 N   0  0  0  0  0  0  0  0  0  0  0  0
   12.0073    8.3779    8.9406 C   0  0  0  0  0  0  0  0  0  0  0  0
   12.1365    7.0834    9.2417 N   0  0  0  0  0  0  0  0  0  0  0  0
   12.5760    6.7626   10.4729 C   0  0  0  0  0  0  0  0  0  0  0  0
   12.6908    5.4756   10.7796 N   0  0  0  0  0  0  0  0  0  0  0  0
   13.1034    9.9860   11.9150 N   0  0  0  0  0  0  0  0  0  0  0  0
   13.0095    5.2087   11.6720 H   0  0  0  0  0  0  0  0  0  0  0  0
   12.4571    4.7884   10.1144 H   0  0  0  0  0  0  0  0  0  0  0  0
   13.0557   11.4425   11.8138 C   0  0  0  0  0  0  0  0  0  0  0  0
   11.6414   11.9983   11.6384 C   0  0  0  0  0  0  0  0  0  0  0  0
   11.6998   13.1991   10.8674 O   0  0  0  0  0  0  0  0  0  0  0  0
   11.2347   12.2297   13.0932 C   0  0  0  0  0  0  0  0  0  0  0  0
   10.1920   13.2012   13.2320 O   0  0  0  0  0  0  0  0  0  0  0  0
   13.5621   11.9912   13.0159 O   0  0  0  0  0  0  0  0  0  0  0  0
   12.5341   12.7281   13.7131 C   0  0  0  0  0  0  0  0  0  0  0  0
   12.3166   13.8212   11.2841 H   0  0  0  0  0  0  0  0  0  0  0  0
   10.4762   14.0395   12.8354 H   0  0  0  0  0  0  0  0  0  0  0  0
   12.6807   12.5430   15.2033 C   0  0  0  0  0  0  0  0  0  0  0  0
   11.8054   13.3785   15.9638 O   0  0  0  0  0  0  0  0  0  0  0  0
   10.8844   13.1572   15.7546 H   0  0  0  0  0  0  0  0  0  0  0  0
 24 23  1  0  0  0
 23 20  1  0  0  0
  1  2  1  0  0  0
  3  2  2  0  0  0
  3 11  1  0  0  0
  2  4  1  0  0  0
 20 19  1  0  0  0
 20 17  1  0  0  0
 19 14  1  0  0  0
 11 14  1  0  0  0
 11  5  1  0  0  0
 17 18  1  0  0  0
 17 15  1  0  0  0
  4  9  2  0  0  0
  4  5  1  0  0  0
 10  9  1  0  0  0
 14 15  1  0  0  0
  9  8  1  0  0  0
  5  6  2  0  0  0
 15 16  1  0  0  0
  8  7  2  0  0  0
  6  7  1  0  0  0
 10 12  1  0  0  0
 10 13  1  0  0  0
 16 21  1  0  0  0
 18 22  1  0  0  0
 24 25  1  0  0  0
M  END
> <minimizedAffinity>
-7.76345

$$$$
