4AYP_SMD_A_503
  RCSB PDB12061711453D
Coordinates from PDB:4AYP:A:503 Model:1 without hydrogens
 24 25  0  0  0  0            999 V2000
  -27.3730  -14.8440  -14.3440   O 0  0  0  0  0  0  0  0  0  0  0  0
  -27.6430  -13.5110  -13.9120   C 0  0  0  0  0  0  0  0  0  0  0  0
  -27.5580  -12.6200  -15.1350   C 0  0  0  0  0  0  0  0  0  0  0  0
  -28.3010  -13.2160  -16.2050   O 0  0  0  0  0  0  0  0  0  0  0  0
  -28.0890  -11.2290  -14.8100   C 0  0  0  0  0  0  0  0  0  0  0  0
  -27.2980  -10.6220  -13.7860   O 0  0  0  0  0  0  0  0  0  0  0  0
  -29.5510  -11.2920  -14.3450   C 0  0  0  0  0  0  0  0  0  0  0  0
  -30.4720  -10.9430  -15.5130   C 0  0  0  0  0  0  0  0  0  0  0  0
  -31.8530  -11.0800  -15.2030   O 0  0  0  0  0  0  0  0  0  0  0  0
  -29.9660  -12.6030  -13.9100   O 0  0  0  0  0  0  0  0  0  0  0  0
  -29.0200  -13.4110  -13.2050   C 0  0  0  0  0  0  0  0  0  0  0  0
  -28.7020  -12.9060  -11.4820   S 0  0  0  0  0  0  0  0  0  0  0  0
  -30.2590  -13.3220  -10.6560   C 0  0  0  0  0  0  0  0  0  0  0  0
  -30.3310  -12.5080   -9.3640   C 0  0  0  0  0  0  0  0  0  0  0  0
  -31.6460  -12.6030   -8.8510   O 0  0  0  0  0  0  0  0  0  0  0  0
  -31.8040  -11.8930   -7.6140   C 0  0  0  0  0  0  0  0  0  0  0  0
  -29.3740  -12.9780   -8.4150   O 0  0  0  0  0  0  0  0  0  0  0  0
  -30.4140  -14.8120  -10.3120   C 0  0  0  0  0  0  0  0  0  0  0  0
  -30.2340  -15.6000  -11.4880   O 0  0  0  0  0  0  0  0  0  0  0  0
  -29.4390  -15.2590   -9.2280   C 0  0  0  0  0  0  0  0  0  0  0  0
  -29.7360  -16.5900   -8.8100   O 0  0  0  0  0  0  0  0  0  0  0  0
  -29.5590  -14.3430   -8.0150   C 0  0  0  0  0  0  0  0  0  0  0  0
  -28.5190  -14.6210   -6.9550   C 0  0  0  0  0  0  0  0  0  0  0  0
  -28.7580  -13.7340   -5.8600   O 0  0  0  0  0  0  0  0  0  0  0  0
  1  2  1  0  0  0  0
  2  3  1  0  0  0  0
  2 11  1  0  0  0  0
  3  4  1  0  0  0  0
  3  5  1  0  0  0  0
  5  6  1  0  0  0  0
  5  7  1  0  0  0  0
  7  8  1  0  0  0  0
  7 10  1  0  0  0  0
  8  9  1  0  0  0  0
 10 11  1  0  0  0  0
 11 12  1  0  0  0  0
 12 13  1  0  0  0  0
 13 14  1  0  0  0  0
 13 18  1  0  0  0  0
 14 15  1  0  0  0  0
 14 17  1  0  0  0  0
 15 16  1  0  0  0  0
 17 22  1  0  0  0  0
 18 19  1  0  0  0  0
 18 20  1  0  0  0  0
 20 21  1  0  0  0  0
 20 22  1  0  0  0  0
 22 23  1  0  0  0  0
 23 24  1  0  0  0  0
A    1
O12
A    2
C12
A    3
C13
A    4
O13
A    5
C14
A    6
O14
A    7
C15
A    8
C16
A    9
O16
A   10
O15
A   11
C11
A   12
S22
A   13
C22
A   14
C21
A   15
O21
A   16
C27
A   17
O25
A   18
C23
A   19
O23
A   20
C24
A   21
O24
A   22
C25
A   23
C26
A   24
O26
M  END
>  <InstanceId>
4AYP_SMD_A_503

>  <ChemCompId>
SMD

>  <PdbId>
4AYP

>  <ChainId>
A

>  <ResidueNumber>
503

>  <InsertionCode>


>  <Model>
1

>  <AltIds>


>  <MissingHeavyAtoms>
0

>  <ObservedFormula>
C13 O10 S

>  <Name>
METHYL-2-S-(ALPHA-D-MANNOPYRANOSYL)-2-THIO-ALPHA-D-MANNOPYRANOSIDE

>  <SystematicName>
(2R,3S,4S,5S,6R)-2-[(2S,3S,4S,5S,6R)-4,5-dihydroxy-6-(hydroxymethyl)-2-methoxy-oxan-3-yl]sulfanyl-6-(hydroxymethyl)oxane-3,4,5-triol

>  <Synonyms>


>  <Type>
NON-POLYMER

>  <Formula>
C13 H24 O10 S

>  <MolecularWeight>
372.389

>  <ModifiedDate>
2011-06-04

>  <Parent>


>  <OneLetterCode>


>  <SubcomponentList>


>  <AmbiguousFlag>
N

>  <InChI>
InChI=1S/C13H24O10S/c1-21-12-11(9(19)7(17)4(2-14)22-12)24-13-10(20)8(18)6(16)5(3-15)23-13/h4-20H,2-3H2,1H3/t4-,5-,6-,7-,8+,9+,10+,11+,12+,13-/m1/s1

>  <InChIKey>
WAYOKHSZGNFKSX-ZEEOCKJESA-N

>  <SMILES>
CO[C@@H]1[C@H]([C@H]([C@@H]([C@H](O1)CO)O)O)S[C@@H]2[C@H]([C@H]([C@@H]([C@H](O2)CO)O)O)O

$$$$
