4QGD_PZZ_A_201
  RCSB PDB12061714253D
Coordinates from PDB:4QGD:A:201 Model:1 without hydrogens
 17 18  0  0  0  0            999 V2000
  -21.9300    6.6380    8.1490   C 0  0  0  0  0  0  0  0  0  0  0  0
  -21.7210    7.7050    7.2110   C 0  0  0  0  0  0  0  0  0  0  0  0
  -21.7500    5.4150    7.4890   N 0  0  0  0  0  0  0  0  0  0  0  0
  -21.1020    7.6690    4.7110   C 0  0  0  0  0  0  0  0  0  0  0  0
  -20.8130    6.8040    3.6610   C 0  0  0  0  0  0  0  0  0  0  0  0
  -20.8440    5.4100    3.7720   C 0  0  0  0  0  0  0  0  0  0  0  0
  -21.1360    4.7640    4.9550   C 0  0  0  0  0  0  0  0  0  0  0  0
  -21.4030    7.0700    5.9250   C 0  0  0  0  0  0  0  0  0  0  0  0
  -21.4500    5.6110    6.1420   C 0  0  0  0  0  0  0  0  0  0  0  0
  -21.7790    9.2270    7.2710   C 0  0  0  0  0  0  0  0  0  0  0  0
  -21.4800    9.9160    8.5330   N 0  0  0  0  0  0  0  0  0  0  0  0
  -21.5830   11.3490    8.2010   C 0  0  0  0  0  0  0  0  0  0  0  0
  -22.3880    9.6390    9.6770   C 0  0  0  0  0  0  0  0  0  0  0  0
  -21.0930    3.2340    5.0400   C 0  0  0  0  0  0  0  0  0  0  0  0
  -20.9820    2.5180    3.6780   C 0  0  0  0  0  0  0  0  0  0  0  0
  -19.6100    1.8560    3.4440   C 0  0  0  0  0  0  0  0  0  0  0  0
  -19.1270    0.9240    4.4870   O 0  0  0  0  0  0  0  0  0  0  0  0
  1  3  1  0  0  0  0
  1  2  2  0  0  0  0
  2  8  1  0  0  0  0
  2 10  1  0  0  0  0
  3  9  1  0  0  0  0
  4  5  2  0  0  0  0
  4  8  1  0  0  0  0
  5  6  1  0  0  0  0
  6  7  2  0  0  0  0
  7 14  1  0  0  0  0
  7  9  1  0  0  0  0
  8  9  2  0  0  0  0
 10 11  1  0  0  0  0
 11 12  1  0  0  0  0
 11 13  1  0  0  0  0
 14 15  1  0  0  0  0
 15 16  1  0  0  0  0
 16 17  1  0  0  0  0
A    1
C2
A    2
C3
A    3
N1
A    4
C4
A    5
C5
A    6
C6
A    7
C7
A    8
C8
A    9
C9
A   10
C10
A   11
N11
A   12
C12
A   13
C13
A   14
C14
A   15
C15
A   16
C16
A   17
O17
M  END
>  <InstanceId>
4QGD_PZZ_A_201

>  <ChemCompId>
PZZ

>  <PdbId>
4QGD

>  <ChainId>
A

>  <ResidueNumber>
201

>  <InsertionCode>


>  <Model>
1

>  <AltIds>


>  <MissingHeavyAtoms>
0

>  <ObservedFormula>
C14 N2 O

>  <Name>
3-{3-[(DIMETHYLAMINO)METHYL]-1H-INDOL-7-YL}PROPAN-1-OL

>  <SystematicName>
3-[3-(dimethylaminomethyl)-1H-indol-7-yl]propan-1-ol

>  <Synonyms>


>  <Type>
NON-POLYMER

>  <Formula>
C14 H20 N2 O

>  <MolecularWeight>
232.321

>  <ModifiedDate>
2011-06-04

>  <Parent>


>  <OneLetterCode>


>  <SubcomponentList>


>  <AmbiguousFlag>


>  <InChI>
InChI=1S/C14H20N2O/c1-16(2)10-12-9-15-14-11(6-4-8-17)5-3-7-13(12)14/h3,5,7,9,15,17H,4,6,8,10H2,1-2H3

>  <InChIKey>
KKQDXWHOFSMCSA-UHFFFAOYSA-N

>  <SMILES>
CN(C)Cc1c[nH]c2c1cccc2CCCO

$$$$
