3F68_91U_H_901
  RCSB PDB12061708333D
Coordinates from PDB:3F68:H:901 Model:1 without hydrogens
 30 32  0  0  0  0            999 V2000
   17.2460  -17.0620   23.7640   C 0  0  0  0  0  0  0  0  0  0  0  0
   18.0830  -17.7930   23.2470   O 0  0  0  0  0  0  0  0  0  0  0  0
   16.6730  -17.5100   25.0830   C 0  0  0  0  0  0  0  0  0  0  0  0
   19.5960  -14.3690   25.0120   C 0  0  0  0  0  0  0  0  0  0  0  0
   20.4340  -14.4730   23.7030   C 0  0  0  0  0  0  0  0  0  0  0  0
   21.9310  -14.6710   24.0480   C 0  0  0  0  0  0  0  0  0  0  0  0
   22.4320  -13.5320   24.9550   C 0  0  0  0  0  0  0  0  0  0  0  0
   21.5350  -13.2610   26.1780   C 0  0  0  0  0  0  0  0  0  0  0  0
   20.0410  -13.0960   25.7820   C 0  0  0  0  0  0  0  0  0  0  0  0
   16.8970  -15.8960   23.1390   N 0  0  0  0  0  0  0  0  0  0  0  0
   17.8040  -14.7420   23.1940   C 0  0  0  0  0  0  0  0  0  0  0  0
   18.0660  -14.4250   24.7040   C 0  0  0  0  0  0  0  0  0  0  0  0
   17.2690  -13.5320   22.4620   C 0  0  0  0  0  0  0  0  0  0  0  0
   16.2220  -13.0730   22.9020   O 0  0  0  0  0  0  0  0  0  0  0  0
   17.9290  -12.9930   21.3930   N 0  0  0  0  0  0  0  0  0  0  0  0
   17.4840  -11.7760   20.7390   C 0  0  0  0  0  0  0  0  0  0  0  0
   15.9990  -11.7370   20.4600   C 0  0  0  0  0  0  0  0  0  0  0  0
   15.4200  -12.7430   20.0720   O 0  0  0  0  0  0  0  0  0  0  0  0
   18.2600  -11.9090   19.3920   C 0  0  0  0  0  0  0  0  0  0  0  0
   19.5780  -12.6040   19.7990   C 0  0  0  0  0  0  0  0  0  0  0  0
   19.0900  -13.6780   20.8010   C 0  0  0  0  0  0  0  0  0  0  0  0
   15.3080  -10.5830   20.6460   N 0  0  0  0  0  0  0  0  0  0  0  0
   13.8730  -10.5960   20.3560   C 0  0  0  0  0  0  0  0  0  0  0  0
   13.0160  -10.4950   21.6230   C 0  0  0  0  0  0  0  0  0  0  0  0
   12.1440  -11.5250   21.9710   C 0  0  0  0  0  0  0  0  0  0  0  0
   11.3700  -11.4470   23.1350   C 0  0  0  0  0  0  0  0  0  0  0  0
   11.4280  -10.2920   23.9420   C 0  0  0  0  0  0  0  0  0  0  0  0
   12.3220   -9.2710   23.6070   C 0  0  0  0  0  0  0  0  0  0  0  0
   13.0730   -9.3430   22.4230   C 0  0  0  0  0  0  0  0  0  0  0  0
   12.4570   -7.8540   24.6340  Cl 0  0  0  0  0  0  0  0  0  0  0  0
 12 11  1  0  0  0  0
 12  4  1  0  0  0  0
 10  1  1  0  0  0  0
 10 11  1  0  0  0  0
  1  3  1  0  0  0  0
  1  2  2  0  0  0  0
 11 13  1  0  0  0  0
 13 14  2  0  0  0  0
 13 15  1  0  0  0  0
 15 21  1  0  0  0  0
 15 16  1  0  0  0  0
 21 20  1  0  0  0  0
 20 19  1  0  0  0  0
 19 16  1  0  0  0  0
 16 17  1  0  0  0  0
 17 22  1  0  0  0  0
 17 18  2  0  0  0  0
 22 23  1  0  0  0  0
 23 24  1  0  0  0  0
 24 29  2  0  0  0  0
 24 25  1  0  0  0  0
 29 28  1  0  0  0  0
 28 27  2  0  0  0  0
 28 30  1  0  0  0  0
 27 26  1  0  0  0  0
 26 25  2  0  0  0  0
  4  5  1  0  0  0  0
  4  9  1  0  0  0  0
  5  6  1  0  0  0  0
  6  7  1  0  0  0  0
  7  8  1  0  0  0  0
  8  9  1  0  0  0  0
A    1
C47
A    2
O48
A    3
C49
A    4
C1
A    5
C6
A    6
C5
A    7
C4
A    8
C3
A    9
C2
A   10
N
A   11
C15
A   12
C31
A   13
C14
A   14
O32
A   15
N1
A   16
C32
A   17
C7
A   18
O22
A   19
C35
A   20
C34
A   21
C33
A   22
N23
A   23
C24
A   24
C25
A   25
C26
A   26
C27
A   27
C28
A   28
C29
A   29
C30
A   30
CL21
M  END
>  <InstanceId>
3F68_91U_H_901

>  <ChemCompId>
91U

>  <PdbId>
3F68

>  <ChainId>
H

>  <ResidueNumber>
901

>  <InsertionCode>


>  <Model>
1

>  <AltIds>


>  <MissingHeavyAtoms>
0

>  <ObservedFormula>
C23 N3 O3 Cl

>  <Name>
N-acetyl-3-cyclohexyl-D-alanyl-N-(3-chlorobenzyl)-L-prolinamide

>  <SystematicName>
(2S)-1-[(2R)-2-acetamido-3-cyclohexyl-propanoyl]-N-[(3-chlorophenyl)methyl]pyrrolidine-2-carboxamide

>  <Synonyms>


>  <Type>
peptide-like

>  <Formula>
C23 H32 Cl N3 O3

>  <MolecularWeight>
433.971

>  <ModifiedDate>
2011-06-04

>  <Parent>


>  <OneLetterCode>


>  <SubcomponentList>
ACE ZAL PRO C2A

>  <AmbiguousFlag>
N

>  <InChI>
InChI=1S/C23H32ClN3O3/c1-16(28)26-20(14-17-7-3-2-4-8-17)23(30)27-12-6-11-21(27)22(29)25-15-18-9-5-10-19(24)13-18/h5,9-10,13,17,20-21H,2-4,6-8,11-12,14-15H2,1H3,(H,25,29)(H,26,28)/t20-,21+/m1/s1

>  <InChIKey>
NEBILTDHZWSWJN-RTWAWAEBSA-N

>  <SMILES>
CC(=O)N[C@H](CC1CCCCC1)C(=O)N2CCC[C@H]2C(=O)NCc3cccc(c3)Cl

$$$$
