3F68_91U_H_901


 32 34  0  0  0  0  0  0  0  0999 V2000
   17.2888  -13.5148   22.1932 C   0  0  0  0  0  0  0  0  0  0  0  0
   16.2578  -12.9856   22.5899 O   0  0  0  0  0  0  0  0  0  0  0  0
   18.0080  -13.0439   21.1303 N   0  0  0  0  0  0  0  0  0  0  0  0
   17.6514  -11.8227   20.4315 C   0  0  0  0  0  0  0  0  0  0  0  0
   18.4559  -12.0368   19.1119 C   0  0  0  0  0  0  0  0  0  0  0  0
   19.7203  -12.7929   19.5758 C   0  0  0  0  0  0  0  0  0  0  0  0
   19.1442  -13.8093   20.5910 C   0  0  0  0  0  0  0  0  0  0  0  0
   16.1794  -11.7083   20.1080 C   0  0  0  0  0  0  0  0  0  0  0  0
   15.6773  -12.4378   19.2633 O   0  0  0  0  0  0  0  0  0  0  0  0
   15.4142  -10.7964   20.7613 N   0  0  0  0  0  0  0  0  0  0  0  0
   15.7998  -10.2066   21.4488 H   0  0  0  0  0  0  0  0  0  0  0  0
   13.9956  -10.7212   20.4072 C   0  0  0  0  0  0  0  0  0  0  0  0
   13.0880  -10.6018   21.6368 C   0  0  0  0  0  0  0  0  0  0  0  0
   12.2749  -11.6663   22.0217 C   0  0  0  0  0  0  0  0  0  0  0  0
   11.4554  -11.5704   23.1528 C   0  0  0  0  0  0  0  0  0  0  0  0
   11.4063  -10.3666   23.8856 C   0  0  0  0  0  0  0  0  0  0  0  0
   12.2415   -9.3088   23.5150 C   0  0  0  0  0  0  0  0  0  0  0  0
   13.0384   -9.4015   22.3629 C   0  0  0  0  0  0  0  0  0  0  0  0
   12.2437   -7.8252   24.4530 Cl  0  0  0  0  0  0  0  0  0  0  0  0
   17.7335  -14.7319   22.9724 C   0  0  0  0  0  0  0  0  0  0  0  0
   17.0769  -17.0539   23.4153 C   0  0  0  0  0  0  0  0  0  0  0  0
   17.7136  -17.7802   22.6607 O   0  0  0  0  0  0  0  0  0  0  0  0
   16.7447  -17.6097   24.7752 C   0  0  0  0  0  0  0  0  0  0  0  0
   16.7246  -15.7991   22.9988 N   0  0  0  0  0  0  0  0  0  0  0  0
   15.7996  -15.6125   22.7181 H   0  0  0  0  0  0  0  0  0  0  0  0
   18.0673  -14.3675   24.4574 C   0  0  0  0  0  0  0  0  0  0  0  0
   19.4785  -13.7089   24.5736 C   0  0  0  0  0  0  0  0  0  0  0  0
   19.9637  -13.6842   26.0536 C   0  0  0  0  0  0  0  0  0  0  0  0
   21.2350  -12.8081   26.1786 C   0  0  0  0  0  0  0  0  0  0  0  0
   22.3355  -13.3135   25.2277 C   0  0  0  0  0  0  0  0  0  0  0  0
   21.8623  -13.5325   23.7779 C   0  0  0  0  0  0  0  0  0  0  0  0
   20.5707  -14.3945   23.7085 C   0  0  0  0  0  0  0  0  0  0  0  0
 26 20  1  0  0  0
 26 27  1  0  0  0
 24 21  1  0  0  0
 24 20  1  0  0  0
 21 23  1  0  0  0
 21 22  2  0  0  0
 20  1  1  0  0  0
  1  2  2  0  0  0
  1  3  1  0  0  0
  3  7  1  0  0  0
  3  4  1  0  0  0
  7  6  1  0  0  0
  6  5  1  0  0  0
  5  4  1  0  0  0
  4  8  1  0  0  0
  8 10  1  0  0  0
  8  9  2  0  0  0
 10 12  1  0  0  0
 12 13  1  0  0  0
 13 18  2  0  0  0
 13 14  1  0  0  0
 18 17  1  0  0  0
 17 16  2  0  0  0
 17 19  1  0  0  0
 16 15  1  0  0  0
 15 14  2  0  0  0
 27 28  1  0  0  0
 27 32  1  0  0  0
 28 29  1  0  0  0
 29 30  1  0  0  0
 30 31  1  0  0  0
 31 32  1  0  0  0
 24 25  1  0  0  0
 10 11  1  0  0  0
M  END
> <minimizedAffinity>
-9.84740

$$$$
3F68_91U_H_901


 32 34  0  0  0  0  0  0  0  0999 V2000
   17.2315  -13.5479   22.1384 C   0  0  0  0  0  0  0  0  0  0  0  0
   16.2072  -13.0069   22.5366 O   0  0  0  0  0  0  0  0  0  0  0  0
   17.9840  -13.0548   21.1091 N   0  0  0  0  0  0  0  0  0  0  0  0
   17.6740  -11.7973   20.4536 C   0  0  0  0  0  0  0  0  0  0  0  0
   18.4987  -11.9805   19.1419 C   0  0  0  0  0  0  0  0  0  0  0  0
   19.7331  -12.7889   19.5986 C   0  0  0  0  0  0  0  0  0  0  0  0
   19.1100  -13.8289   20.5608 C   0  0  0  0  0  0  0  0  0  0  0  0
   16.2123  -11.6298   20.1073 C   0  0  0  0  0  0  0  0  0  0  0  0
   15.7229  -12.2661   19.1835 O   0  0  0  0  0  0  0  0  0  0  0  0
   15.4424  -10.7743   20.8277 N   0  0  0  0  0  0  0  0  0  0  0  0
   15.8177  -10.2600   21.5786 H   0  0  0  0  0  0  0  0  0  0  0  0
   14.0343  -10.6437   20.4484 C   0  0  0  0  0  0  0  0  0  0  0  0
   13.1041  -10.5511   21.6633 C   0  0  0  0  0  0  0  0  0  0  0  0
   12.2918  -11.6275   22.0157 C   0  0  0  0  0  0  0  0  0  0  0  0
   11.4516  -11.5562   23.1333 C   0  0  0  0  0  0  0  0  0  0  0  0
   11.3808  -10.3652   23.8851 C   0  0  0  0  0  0  0  0  0  0  0  0
   12.2149   -9.2956   23.5472 C   0  0  0  0  0  0  0  0  0  0  0  0
   13.0329   -9.3636   22.4082 C   0  0  0  0  0  0  0  0  0  0  0  0
   12.1896   -7.8280   24.5097 Cl  0  0  0  0  0  0  0  0  0  0  0  0
   17.6280  -14.8068   22.8759 C   0  0  0  0  0  0  0  0  0  0  0  0
   16.5992  -16.8992   22.1127 C   0  0  0  0  0  0  0  0  0  0  0  0
   16.3163  -16.7740   20.9268 O   0  0  0  0  0  0  0  0  0  0  0  0
   17.0028  -18.2749   22.5745 C   0  0  0  0  0  0  0  0  0  0  0  0
   16.5515  -15.8045   22.9322 N   0  0  0  0  0  0  0  0  0  0  0  0
   15.7995  -15.6862   23.5564 H   0  0  0  0  0  0  0  0  0  0  0  0
   18.0532  -14.4944   24.3493 C   0  0  0  0  0  0  0  0  0  0  0  0
   18.3626  -15.8063   25.1380 C   0  0  0  0  0  0  0  0  0  0  0  0
   19.6667  -16.4787   24.6149 C   0  0  0  0  0  0  0  0  0  0  0  0
   19.8152  -17.8930   25.2288 C   0  0  0  0  0  0  0  0  0  0  0  0
   19.7902  -17.8202   26.7667 C   0  0  0  0  0  0  0  0  0  0  0  0
   18.6138  -17.0063   27.3388 C   0  0  0  0  0  0  0  0  0  0  0  0
   18.4923  -15.6072   26.6726 C   0  0  0  0  0  0  0  0  0  0  0  0
 26 20  1  0  0  0
 26 27  1  0  0  0
 24 21  1  0  0  0
 24 20  1  0  0  0
 21 23  1  0  0  0
 21 22  2  0  0  0
 20  1  1  0  0  0
  1  2  2  0  0  0
  1  3  1  0  0  0
  3  7  1  0  0  0
  3  4  1  0  0  0
  7  6  1  0  0  0
  6  5  1  0  0  0
  5  4  1  0  0  0
  4  8  1  0  0  0
  8 10  1  0  0  0
  8  9  2  0  0  0
 10 12  1  0  0  0
 12 13  1  0  0  0
 13 18  2  0  0  0
 13 14  1  0  0  0
 18 17  1  0  0  0
 17 16  2  0  0  0
 17 19  1  0  0  0
 16 15  1  0  0  0
 15 14  2  0  0  0
 27 28  1  0  0  0
 27 32  1  0  0  0
 28 29  1  0  0  0
 29 30  1  0  0  0
 30 31  1  0  0  0
 31 32  1  0  0  0
 24 25  1  0  0  0
 10 11  1  0  0  0
M  END
> <minimizedAffinity>
-8.61550

$$$$
3F68_91U_H_901


 32 34  0  0  0  0  0  0  0  0999 V2000
   17.3893  -13.4879   22.1607 C   0  0  0  0  0  0  0  0  0  0  0  0
   16.2969  -13.0573   22.5096 O   0  0  0  0  0  0  0  0  0  0  0  0
   18.0475  -13.0402   21.0493 N   0  0  0  0  0  0  0  0  0  0  0  0
   17.5407  -11.9528   20.2322 C   0  0  0  0  0  0  0  0  0  0  0  0
   18.3726  -12.1962   18.9349 C   0  0  0  0  0  0  0  0  0  0  0  0
   19.7213  -12.7327   19.4633 C   0  0  0  0  0  0  0  0  0  0  0  0
   19.2752  -13.7050   20.5819 C   0  0  0  0  0  0  0  0  0  0  0  0
   16.0678  -12.0617   19.9107 C   0  0  0  0  0  0  0  0  0  0  0  0
   15.3454  -11.0776   19.9981 O   0  0  0  0  0  0  0  0  0  0  0  0
   15.5493  -13.2541   19.5196 N   0  0  0  0  0  0  0  0  0  0  0  0
   16.1171  -14.0541   19.4367 H   0  0  0  0  0  0  0  0  0  0  0  0
   14.1161  -13.3082   19.2255 C   0  0  0  0  0  0  0  0  0  0  0  0
   13.4509  -14.5765   19.7722 C   0  0  0  0  0  0  0  0  0  0  0  0
   12.1469  -14.9051   19.4064 C   0  0  0  0  0  0  0  0  0  0  0  0
   11.5385  -16.0700   19.8890 C   0  0  0  0  0  0  0  0  0  0  0  0
   12.2276  -16.8981   20.7989 C   0  0  0  0  0  0  0  0  0  0  0  0
   13.5447  -16.5824   21.1447 C   0  0  0  0  0  0  0  0  0  0  0  0
   14.1377  -15.3976   20.6803 C   0  0  0  0  0  0  0  0  0  0  0  0
   14.4426  -17.6354   22.2244 Cl  0  0  0  0  0  0  0  0  0  0  0  0
   17.9824  -14.5517   23.0566 C   0  0  0  0  0  0  0  0  0  0  0  0
   17.6510  -16.8740   23.7748 C   0  0  0  0  0  0  0  0  0  0  0  0
   18.5304  -17.5593   23.2655 O   0  0  0  0  0  0  0  0  0  0  0  0
   17.1664  -17.2921   25.1383 C   0  0  0  0  0  0  0  0  0  0  0  0
   17.1791  -15.7806   23.1014 N   0  0  0  0  0  0  0  0  0  0  0  0
   16.3054  -15.8172   22.6491 H   0  0  0  0  0  0  0  0  0  0  0  0
   18.1342  -14.0387   24.5273 C   0  0  0  0  0  0  0  0  0  0  0  0
   19.5950  -13.5659   24.8125 C   0  0  0  0  0  0  0  0  0  0  0  0
   20.0215  -13.9154   26.2693 C   0  0  0  0  0  0  0  0  0  0  0  0
   21.3630  -13.2195   26.6088 C   0  0  0  0  0  0  0  0  0  0  0  0
   22.4484  -13.6109   25.5891 C   0  0  0  0  0  0  0  0  0  0  0  0
   22.0145  -13.4576   24.1187 C   0  0  0  0  0  0  0  0  0  0  0  0
   20.6519  -14.1501   23.8361 C   0  0  0  0  0  0  0  0  0  0  0  0
 26 20  1  0  0  0
 26 27  1  0  0  0
 24 21  1  0  0  0
 24 20  1  0  0  0
 21 23  1  0  0  0
 21 22  2  0  0  0
 20  1  1  0  0  0
  1  2  2  0  0  0
  1  3  1  0  0  0
  3  7  1  0  0  0
  3  4  1  0  0  0
  7  6  1  0  0  0
  6  5  1  0  0  0
  5  4  1  0  0  0
  4  8  1  0  0  0
  8 10  1  0  0  0
  8  9  2  0  0  0
 10 12  1  0  0  0
 12 13  1  0  0  0
 13 18  2  0  0  0
 13 14  1  0  0  0
 18 17  1  0  0  0
 17 16  2  0  0  0
 17 19  1  0  0  0
 16 15  1  0  0  0
 15 14  2  0  0  0
 27 28  1  0  0  0
 27 32  1  0  0  0
 28 29  1  0  0  0
 29 30  1  0  0  0
 30 31  1  0  0  0
 31 32  1  0  0  0
 24 25  1  0  0  0
 10 11  1  0  0  0
M  END
> <minimizedAffinity>
-8.31067

$$$$
3F68_91U_H_901


 32 34  0  0  0  0  0  0  0  0999 V2000
   17.4916  -13.4762   21.9894 C   0  0  0  0  0  0  0  0  0  0  0  0
   16.4580  -12.8912   22.2891 O   0  0  0  0  0  0  0  0  0  0  0  0
   18.3361  -13.0423   21.0058 N   0  0  0  0  0  0  0  0  0  0  0  0
   18.1181  -11.8001   20.2874 C   0  0  0  0  0  0  0  0  0  0  0  0
   19.0342  -12.0539   19.0502 C   0  0  0  0  0  0  0  0  0  0  0  0
   20.2032  -12.8822   19.6274 C   0  0  0  0  0  0  0  0  0  0  0  0
   19.4750  -13.8685   20.5722 C   0  0  0  0  0  0  0  0  0  0  0  0
   16.6933  -11.6013   19.8236 C   0  0  0  0  0  0  0  0  0  0  0  0
   16.0426  -10.6473   20.2288 O   0  0  0  0  0  0  0  0  0  0  0  0
   16.1389  -12.4823   18.9517 N   0  0  0  0  0  0  0  0  0  0  0  0
   16.6501  -13.2511   18.6098 H   0  0  0  0  0  0  0  0  0  0  0  0
   14.7541  -12.2486   18.5379 C   0  0  0  0  0  0  0  0  0  0  0  0
   13.7421  -12.9642   19.4399 C   0  0  0  0  0  0  0  0  0  0  0  0
   13.5199  -14.3335   19.3062 C   0  0  0  0  0  0  0  0  0  0  0  0
   12.6090  -14.9968   20.1371 C   0  0  0  0  0  0  0  0  0  0  0  0
   11.8640  -14.2681   21.0871 C   0  0  0  0  0  0  0  0  0  0  0  0
   12.1063  -12.8998   21.2388 C   0  0  0  0  0  0  0  0  0  0  0  0
   12.9993  -12.2362   20.3826 C   0  0  0  0  0  0  0  0  0  0  0  0
   11.2368  -11.9871   22.4602 Cl  0  0  0  0  0  0  0  0  0  0  0  0
   17.7895  -14.7196   22.7964 C   0  0  0  0  0  0  0  0  0  0  0  0
   16.6900  -16.6892   21.8319 C   0  0  0  0  0  0  0  0  0  0  0  0
   16.3716  -16.4213   20.6791 O   0  0  0  0  0  0  0  0  0  0  0  0
   17.0775  -18.1167   22.1165 C   0  0  0  0  0  0  0  0  0  0  0  0
   16.6934  -15.6971   22.7740 N   0  0  0  0  0  0  0  0  0  0  0  0
   15.9649  -15.6386   23.4336 H   0  0  0  0  0  0  0  0  0  0  0  0
   18.0749  -14.3716   24.2953 C   0  0  0  0  0  0  0  0  0  0  0  0
   19.4824  -13.7164   24.4648 C   0  0  0  0  0  0  0  0  0  0  0  0
   19.8847  -13.6366   25.9675 C   0  0  0  0  0  0  0  0  0  0  0  0
   21.1534  -12.7630   26.1295 C   0  0  0  0  0  0  0  0  0  0  0  0
   22.3014  -13.3109   25.2617 C   0  0  0  0  0  0  0  0  0  0  0  0
   21.9080  -13.5836   23.7973 C   0  0  0  0  0  0  0  0  0  0  0  0
   20.6159  -14.4408   23.6891 C   0  0  0  0  0  0  0  0  0  0  0  0
 26 20  1  0  0  0
 26 27  1  0  0  0
 24 21  1  0  0  0
 24 20  1  0  0  0
 21 23  1  0  0  0
 21 22  2  0  0  0
 20  1  1  0  0  0
  1  2  2  0  0  0
  1  3  1  0  0  0
  3  7  1  0  0  0
  3  4  1  0  0  0
  7  6  1  0  0  0
  6  5  1  0  0  0
  5  4  1  0  0  0
  4  8  1  0  0  0
  8 10  1  0  0  0
  8  9  2  0  0  0
 10 12  1  0  0  0
 12 13  1  0  0  0
 13 18  2  0  0  0
 13 14  1  0  0  0
 18 17  1  0  0  0
 17 16  2  0  0  0
 17 19  1  0  0  0
 16 15  1  0  0  0
 15 14  2  0  0  0
 27 28  1  0  0  0
 27 32  1  0  0  0
 28 29  1  0  0  0
 29 30  1  0  0  0
 30 31  1  0  0  0
 31 32  1  0  0  0
 24 25  1  0  0  0
 10 11  1  0  0  0
M  END
> <minimizedAffinity>
-8.29109

$$$$
3F68_91U_H_901


 32 34  0  0  0  0  0  0  0  0999 V2000
   16.2100  -12.6080   20.7179 C   0  0  0  0  0  0  0  0  0  0  0  0
   17.0252  -12.0213   21.4192 O   0  0  0  0  0  0  0  0  0  0  0  0
   16.0548  -13.9661   20.7313 N   0  0  0  0  0  0  0  0  0  0  0  0
   16.7906  -14.8227   21.6432 C   0  0  0  0  0  0  0  0  0  0  0  0
   16.5989  -16.1925   20.9211 C   0  0  0  0  0  0  0  0  0  0  0  0
   15.1890  -16.0817   20.3002 C   0  0  0  0  0  0  0  0  0  0  0  0
   15.1815  -14.6342   19.7522 C   0  0  0  0  0  0  0  0  0  0  0  0
   18.2655  -14.5039   21.7295 C   0  0  0  0  0  0  0  0  0  0  0  0
   19.0086  -14.7753   20.7956 O   0  0  0  0  0  0  0  0  0  0  0  0
   18.7631  -13.9106   22.8450 N   0  0  0  0  0  0  0  0  0  0  0  0
   18.1787  -13.6786   23.6026 H   0  0  0  0  0  0  0  0  0  0  0  0
   20.1992  -13.6281   22.8813 C   0  0  0  0  0  0  0  0  0  0  0  0
   20.7854  -13.7419   24.2931 C   0  0  0  0  0  0  0  0  0  0  0  0
   20.5309  -12.7573   25.2461 C   0  0  0  0  0  0  0  0  0  0  0  0
   21.0497  -12.8625   26.5422 C   0  0  0  0  0  0  0  0  0  0  0  0
   21.8848  -13.9475   26.8796 C   0  0  0  0  0  0  0  0  0  0  0  0
   22.1181  -14.9481   25.9318 C   0  0  0  0  0  0  0  0  0  0  0  0
   21.6191  -14.8212   24.6257 C   0  0  0  0  0  0  0  0  0  0  0  0
   23.1013  -16.3400   26.3523 Cl  0  0  0  0  0  0  0  0  0  0  0  0
   15.3615  -11.7233   19.8328 C   0  0  0  0  0  0  0  0  0  0  0  0
   15.7648  -11.6916   17.4131 C   0  0  0  0  0  0  0  0  0  0  0  0
   16.1471  -12.8062   17.0761 O   0  0  0  0  0  0  0  0  0  0  0  0
   14.9402  -10.9239   16.4133 C   0  0  0  0  0  0  0  0  0  0  0  0
   16.0849  -11.2211   18.6573 N   0  0  0  0  0  0  0  0  0  0  0  0
   16.7966  -10.5493   18.7642 H   0  0  0  0  0  0  0  0  0  0  0  0
   14.8237  -10.4803   20.6169 C   0  0  0  0  0  0  0  0  0  0  0  0
   13.7455  -10.8980   21.6667 C   0  0  0  0  0  0  0  0  0  0  0  0
   12.9390   -9.6609   22.1624 C   0  0  0  0  0  0  0  0  0  0  0  0
   12.0601  -10.0545   23.3756 C   0  0  0  0  0  0  0  0  0  0  0  0
   11.1333  -11.2295   23.0132 C   0  0  0  0  0  0  0  0  0  0  0  0
   11.8544  -12.4171   22.3471 C   0  0  0  0  0  0  0  0  0  0  0  0
   12.7424  -11.9667   21.1536 C   0  0  0  0  0  0  0  0  0  0  0  0
 26 20  1  0  0  0
 26 27  1  0  0  0
 24 21  1  0  0  0
 24 20  1  0  0  0
 21 23  1  0  0  0
 21 22  2  0  0  0
 20  1  1  0  0  0
  1  2  2  0  0  0
  1  3  1  0  0  0
  3  7  1  0  0  0
  3  4  1  0  0  0
  7  6  1  0  0  0
  6  5  1  0  0  0
  5  4  1  0  0  0
  4  8  1  0  0  0
  8 10  1  0  0  0
  8  9  2  0  0  0
 10 12  1  0  0  0
 12 13  1  0  0  0
 13 18  2  0  0  0
 13 14  1  0  0  0
 18 17  1  0  0  0
 17 16  2  0  0  0
 17 19  1  0  0  0
 16 15  1  0  0  0
 15 14  2  0  0  0
 27 28  1  0  0  0
 27 32  1  0  0  0
 28 29  1  0  0  0
 29 30  1  0  0  0
 30 31  1  0  0  0
 31 32  1  0  0  0
 24 25  1  0  0  0
 10 11  1  0  0  0
M  END
> <minimizedAffinity>
-8.21640

$$$$
3F68_91U_H_901


 32 34  0  0  0  0  0  0  0  0999 V2000
   17.3219  -13.8305   20.7716 C   0  0  0  0  0  0  0  0  0  0  0  0
   17.6964  -12.6798   20.5817 O   0  0  0  0  0  0  0  0  0  0  0  0
   16.2354  -14.3745   20.1452 N   0  0  0  0  0  0  0  0  0  0  0  0
   15.4807  -13.6553   19.1352 C   0  0  0  0  0  0  0  0  0  0  0  0
   14.1701  -14.5018   19.1417 C   0  0  0  0  0  0  0  0  0  0  0  0
   14.6651  -15.9358   19.4324 C   0  0  0  0  0  0  0  0  0  0  0  0
   15.7292  -15.7020   20.5317 C   0  0  0  0  0  0  0  0  0  0  0  0
   15.1570  -12.2277   19.5117 C   0  0  0  0  0  0  0  0  0  0  0  0
   15.4902  -11.3077   18.7766 O   0  0  0  0  0  0  0  0  0  0  0  0
   14.4906  -11.9694   20.6662 N   0  0  0  0  0  0  0  0  0  0  0  0
   14.2085  -12.6976   21.2657 H   0  0  0  0  0  0  0  0  0  0  0  0
   14.2065  -10.5697   20.9882 C   0  0  0  0  0  0  0  0  0  0  0  0
   13.1408  -10.4220   22.0802 C   0  0  0  0  0  0  0  0  0  0  0  0
   12.2902  -11.4827   22.3864 C   0  0  0  0  0  0  0  0  0  0  0  0
   11.3253  -11.3606   23.3934 C   0  0  0  0  0  0  0  0  0  0  0  0
   11.1701  -10.1353   24.0739 C   0  0  0  0  0  0  0  0  0  0  0  0
   12.0407   -9.0805   23.7849 C   0  0  0  0  0  0  0  0  0  0  0  0
   12.9861   -9.2003   22.7540 C   0  0  0  0  0  0  0  0  0  0  0  0
   11.9068   -7.5686   24.6664 Cl  0  0  0  0  0  0  0  0  0  0  0  0
   18.1563  -14.6309   21.7459 C   0  0  0  0  0  0  0  0  0  0  0  0
   19.6636  -16.5560   21.5445 C   0  0  0  0  0  0  0  0  0  0  0  0
   20.6458  -16.2049   20.9008 O   0  0  0  0  0  0  0  0  0  0  0  0
   19.8868  -17.5900   22.6168 C   0  0  0  0  0  0  0  0  0  0  0  0
   18.4476  -15.9907   21.2732 N   0  0  0  0  0  0  0  0  0  0  0  0
   17.7711  -16.4929   20.7638 H   0  0  0  0  0  0  0  0  0  0  0  0
   17.4445  -14.7608   23.1336 C   0  0  0  0  0  0  0  0  0  0  0  0
   18.3556  -14.2337   24.2872 C   0  0  0  0  0  0  0  0  0  0  0  0
   18.6829  -15.3677   25.3038 C   0  0  0  0  0  0  0  0  0  0  0  0
   19.3665  -14.7712   26.5592 C   0  0  0  0  0  0  0  0  0  0  0  0
   20.6272  -13.9805   26.1640 C   0  0  0  0  0  0  0  0  0  0  0  0
   20.4021  -12.9647   25.0277 C   0  0  0  0  0  0  0  0  0  0  0  0
   19.6908  -13.6056   23.8032 C   0  0  0  0  0  0  0  0  0  0  0  0
 26 20  1  0  0  0
 26 27  1  0  0  0
 24 21  1  0  0  0
 24 20  1  0  0  0
 21 23  1  0  0  0
 21 22  2  0  0  0
 20  1  1  0  0  0
  1  2  2  0  0  0
  1  3  1  0  0  0
  3  7  1  0  0  0
  3  4  1  0  0  0
  7  6  1  0  0  0
  6  5  1  0  0  0
  5  4  1  0  0  0
  4  8  1  0  0  0
  8 10  1  0  0  0
  8  9  2  0  0  0
 10 12  1  0  0  0
 12 13  1  0  0  0
 13 18  2  0  0  0
 13 14  1  0  0  0
 18 17  1  0  0  0
 17 16  2  0  0  0
 17 19  1  0  0  0
 16 15  1  0  0  0
 15 14  2  0  0  0
 27 28  1  0  0  0
 27 32  1  0  0  0
 28 29  1  0  0  0
 29 30  1  0  0  0
 30 31  1  0  0  0
 31 32  1  0  0  0
 24 25  1  0  0  0
 10 11  1  0  0  0
M  END
> <minimizedAffinity>
-8.19271

$$$$
3F68_91U_H_901


 32 34  0  0  0  0  0  0  0  0999 V2000
   16.9944  -14.4994   22.0932 C   0  0  0  0  0  0  0  0  0  0  0  0
   16.3372  -13.4717   21.9811 O   0  0  0  0  0  0  0  0  0  0  0  0
   16.8206  -15.5881   21.2848 N   0  0  0  0  0  0  0  0  0  0  0  0
   15.8942  -15.5854   20.1674 C   0  0  0  0  0  0  0  0  0  0  0  0
   15.7590  -17.1232   19.9414 C   0  0  0  0  0  0  0  0  0  0  0  0
   17.1596  -17.6676   20.2989 C   0  0  0  0  0  0  0  0  0  0  0  0
   17.5170  -16.8543   21.5663 C   0  0  0  0  0  0  0  0  0  0  0  0
   14.5374  -15.0062   20.4965 C   0  0  0  0  0  0  0  0  0  0  0  0
   13.8054  -15.5723   21.2975 O   0  0  0  0  0  0  0  0  0  0  0  0
   14.1350  -13.8526   19.9041 N   0  0  0  0  0  0  0  0  0  0  0  0
   14.7138  -13.3800   19.2632 H   0  0  0  0  0  0  0  0  0  0  0  0
   12.8099  -13.3362   20.2523 C   0  0  0  0  0  0  0  0  0  0  0  0
   12.8778  -12.0059   21.0109 C   0  0  0  0  0  0  0  0  0  0  0  0
   13.7461  -10.9982   20.5952 C   0  0  0  0  0  0  0  0  0  0  0  0
   13.8021   -9.7746   21.2734 C   0  0  0  0  0  0  0  0  0  0  0  0
   13.0124   -9.5716   22.4239 C   0  0  0  0  0  0  0  0  0  0  0  0
   12.1225  -10.5722   22.8248 C   0  0  0  0  0  0  0  0  0  0  0  0
   12.0932  -11.8072   22.1578 C   0  0  0  0  0  0  0  0  0  0  0  0
   11.0835  -10.3136   24.2156 Cl  0  0  0  0  0  0  0  0  0  0  0  0
   18.0369  -14.4854   23.1883 C   0  0  0  0  0  0  0  0  0  0  0  0
   17.6044  -15.5400   25.3607 C   0  0  0  0  0  0  0  0  0  0  0  0
   16.9201  -16.5387   25.1697 O   0  0  0  0  0  0  0  0  0  0  0  0
   18.5872  -15.5963   26.5007 C   0  0  0  0  0  0  0  0  0  0  0  0
   17.4553  -14.4579   24.5367 N   0  0  0  0  0  0  0  0  0  0  0  0
   16.9607  -13.6649   24.8461 H   0  0  0  0  0  0  0  0  0  0  0  0
   18.9808  -13.2437   23.0609 C   0  0  0  0  0  0  0  0  0  0  0  0
   20.4083  -13.5610   23.6091 C   0  0  0  0  0  0  0  0  0  0  0  0
   20.5960  -12.9871   25.0451 C   0  0  0  0  0  0  0  0  0  0  0  0
   22.0837  -13.0882   25.4645 C   0  0  0  0  0  0  0  0  0  0  0  0
   22.5758  -14.5438   25.3649 C   0  0  0  0  0  0  0  0  0  0  0  0
   22.2529  -15.2265   24.0220 C   0  0  0  0  0  0  0  0  0  0  0  0
   20.7554  -15.0744   23.6341 C   0  0  0  0  0  0  0  0  0  0  0  0
 26 20  1  0  0  0
 26 27  1  0  0  0
 24 21  1  0  0  0
 24 20  1  0  0  0
 21 23  1  0  0  0
 21 22  2  0  0  0
 20  1  1  0  0  0
  1  2  2  0  0  0
  1  3  1  0  0  0
  3  7  1  0  0  0
  3  4  1  0  0  0
  7  6  1  0  0  0
  6  5  1  0  0  0
  5  4  1  0  0  0
  4  8  1  0  0  0
  8 10  1  0  0  0
  8  9  2  0  0  0
 10 12  1  0  0  0
 12 13  1  0  0  0
 13 18  2  0  0  0
 13 14  1  0  0  0
 18 17  1  0  0  0
 17 16  2  0  0  0
 17 19  1  0  0  0
 16 15  1  0  0  0
 15 14  2  0  0  0
 27 28  1  0  0  0
 27 32  1  0  0  0
 28 29  1  0  0  0
 29 30  1  0  0  0
 30 31  1  0  0  0
 31 32  1  0  0  0
 24 25  1  0  0  0
 10 11  1  0  0  0
M  END
> <minimizedAffinity>
-8.15580

$$$$
3F68_91U_H_901


 32 34  0  0  0  0  0  0  0  0999 V2000
   15.2560  -12.4524   21.3282 C   0  0  0  0  0  0  0  0  0  0  0  0
   15.2471  -13.6773   21.3331 O   0  0  0  0  0  0  0  0  0  0  0  0
   14.1648  -11.6970   21.6559 N   0  0  0  0  0  0  0  0  0  0  0  0
   12.9224  -12.2875   22.1192 C   0  0  0  0  0  0  0  0  0  0  0  0
   11.9591  -11.0844   21.8762 C   0  0  0  0  0  0  0  0  0  0  0  0
   12.8431   -9.8490   22.1554 C   0  0  0  0  0  0  0  0  0  0  0  0
   14.1776  -10.2361   21.4735 C   0  0  0  0  0  0  0  0  0  0  0  0
   12.4624  -13.4712   21.2994 C   0  0  0  0  0  0  0  0  0  0  0  0
   11.9572  -13.2970   20.1984 O   0  0  0  0  0  0  0  0  0  0  0  0
   12.6160  -14.7293   21.7866 N   0  0  0  0  0  0  0  0  0  0  0  0
   13.0270  -14.8883   22.6669 H   0  0  0  0  0  0  0  0  0  0  0  0
   12.1488  -15.8411   20.9564 C   0  0  0  0  0  0  0  0  0  0  0  0
   13.2334  -16.3620   20.0064 C   0  0  0  0  0  0  0  0  0  0  0  0
   12.9963  -16.4358   18.6350 C   0  0  0  0  0  0  0  0  0  0  0  0
   13.9875  -16.8953   17.7595 C   0  0  0  0  0  0  0  0  0  0  0  0
   15.2244  -17.3411   18.2693 C   0  0  0  0  0  0  0  0  0  0  0  0
   15.4713  -17.2421   19.6416 C   0  0  0  0  0  0  0  0  0  0  0  0
   14.4626  -16.8082   20.5165 C   0  0  0  0  0  0  0  0  0  0  0  0
   17.0282  -17.7305   20.2883 Cl  0  0  0  0  0  0  0  0  0  0  0  0
   16.5731  -11.8158   20.9457 C   0  0  0  0  0  0  0  0  0  0  0  0
   16.3949  -11.6650   18.5036 C   0  0  0  0  0  0  0  0  0  0  0  0
   17.3920  -12.1851   18.0162 O   0  0  0  0  0  0  0  0  0  0  0  0
   15.1118  -11.7918   17.7250 C   0  0  0  0  0  0  0  0  0  0  0  0
   16.4938  -11.0265   19.7096 N   0  0  0  0  0  0  0  0  0  0  0  0
   16.5117  -10.0429   19.7486 H   0  0  0  0  0  0  0  0  0  0  0  0
   17.6891  -12.8937   20.7412 C   0  0  0  0  0  0  0  0  0  0  0  0
   18.6108  -12.9976   21.9977 C   0  0  0  0  0  0  0  0  0  0  0  0
   18.0525  -14.0354   23.0164 C   0  0  0  0  0  0  0  0  0  0  0  0
   18.8320  -13.9378   24.3513 C   0  0  0  0  0  0  0  0  0  0  0  0
   20.3407  -14.1310   24.1118 C   0  0  0  0  0  0  0  0  0  0  0  0
   20.9155  -13.2550   22.9822 C   0  0  0  0  0  0  0  0  0  0  0  0
   20.0837  -13.3682   21.6740 C   0  0  0  0  0  0  0  0  0  0  0  0
 26 20  1  0  0  0
 26 27  1  0  0  0
 24 21  1  0  0  0
 24 20  1  0  0  0
 21 23  1  0  0  0
 21 22  2  0  0  0
 20  1  1  0  0  0
  1  2  2  0  0  0
  1  3  1  0  0  0
  3  7  1  0  0  0
  3  4  1  0  0  0
  7  6  1  0  0  0
  6  5  1  0  0  0
  5  4  1  0  0  0
  4  8  1  0  0  0
  8 10  1  0  0  0
  8  9  2  0  0  0
 10 12  1  0  0  0
 12 13  1  0  0  0
 13 18  2  0  0  0
 13 14  1  0  0  0
 18 17  1  0  0  0
 17 16  2  0  0  0
 17 19  1  0  0  0
 16 15  1  0  0  0
 15 14  2  0  0  0
 27 28  1  0  0  0
 27 32  1  0  0  0
 28 29  1  0  0  0
 29 30  1  0  0  0
 30 31  1  0  0  0
 31 32  1  0  0  0
 24 25  1  0  0  0
 10 11  1  0  0  0
M  END
> <minimizedAffinity>
-8.15219

$$$$
3F68_91U_H_901


 32 34  0  0  0  0  0  0  0  0999 V2000
   14.3468  -13.9095   20.6229 C   0  0  0  0  0  0  0  0  0  0  0  0
   15.4425  -13.7250   21.1384 O   0  0  0  0  0  0  0  0  0  0  0  0
   13.6168  -15.0501   20.8097 N   0  0  0  0  0  0  0  0  0  0  0  0
   14.0457  -16.1083   21.7059 C   0  0  0  0  0  0  0  0  0  0  0  0
   13.1536  -17.2729   21.1748 C   0  0  0  0  0  0  0  0  0  0  0  0
   11.8521  -16.5642   20.7391 C   0  0  0  0  0  0  0  0  0  0  0  0
   12.3869  -15.2924   20.0375 C   0  0  0  0  0  0  0  0  0  0  0  0
   15.5019  -16.4851   21.5580 C   0  0  0  0  0  0  0  0  0  0  0  0
   15.8839  -17.0823   20.5604 O   0  0  0  0  0  0  0  0  0  0  0  0
   16.3865  -16.1545   22.5338 N   0  0  0  0  0  0  0  0  0  0  0  0
   16.0981  -15.6677   23.3395 H   0  0  0  0  0  0  0  0  0  0  0  0
   17.7842  -16.5473   22.3454 C   0  0  0  0  0  0  0  0  0  0  0  0
   18.7182  -15.3417   22.1904 C   0  0  0  0  0  0  0  0  0  0  0  0
   19.4587  -14.8766   23.2756 C   0  0  0  0  0  0  0  0  0  0  0  0
   20.3259  -13.7861   23.1377 C   0  0  0  0  0  0  0  0  0  0  0  0
   20.4164  -13.1115   21.9027 C   0  0  0  0  0  0  0  0  0  0  0  0
   19.6939  -13.5945   20.8079 C   0  0  0  0  0  0  0  0  0  0  0  0
   18.8043  -14.6698   20.9610 C   0  0  0  0  0  0  0  0  0  0  0  0
   19.8429  -12.8088   19.2455 Cl  0  0  0  0  0  0  0  0  0  0  0  0
   13.8352  -12.7744   19.7650 C   0  0  0  0  0  0  0  0  0  0  0  0
   14.8871  -11.7314   17.8094 C   0  0  0  0  0  0  0  0  0  0  0  0
   14.1690  -10.8110   17.4363 O   0  0  0  0  0  0  0  0  0  0  0  0
   16.3713  -11.5555   17.6222 C   0  0  0  0  0  0  0  0  0  0  0  0
   14.3174  -12.8373   18.3790 N   0  0  0  0  0  0  0  0  0  0  0  0
   14.2312  -13.6710   17.8626 H   0  0  0  0  0  0  0  0  0  0  0  0
   14.2608  -11.3846   20.3453 C   0  0  0  0  0  0  0  0  0  0  0  0
   13.4557  -11.0424   21.6390 C   0  0  0  0  0  0  0  0  0  0  0  0
   13.2899   -9.5023   21.8033 C   0  0  0  0  0  0  0  0  0  0  0  0
   12.7186   -9.1788   23.2063 C   0  0  0  0  0  0  0  0  0  0  0  0
   11.3889   -9.9214   23.4330 C   0  0  0  0  0  0  0  0  0  0  0  0
   11.4457  -11.4264   23.1085 C   0  0  0  0  0  0  0  0  0  0  0  0
   12.0498  -11.6988   21.7024 C   0  0  0  0  0  0  0  0  0  0  0  0
 26 20  1  0  0  0
 26 27  1  0  0  0
 24 21  1  0  0  0
 24 20  1  0  0  0
 21 23  1  0  0  0
 21 22  2  0  0  0
 20  1  1  0  0  0
  1  2  2  0  0  0
  1  3  1  0  0  0
  3  7  1  0  0  0
  3  4  1  0  0  0
  7  6  1  0  0  0
  6  5  1  0  0  0
  5  4  1  0  0  0
  4  8  1  0  0  0
  8 10  1  0  0  0
  8  9  2  0  0  0
 10 12  1  0  0  0
 12 13  1  0  0  0
 13 18  2  0  0  0
 13 14  1  0  0  0
 18 17  1  0  0  0
 17 16  2  0  0  0
 17 19  1  0  0  0
 16 15  1  0  0  0
 15 14  2  0  0  0
 27 28  1  0  0  0
 27 32  1  0  0  0
 28 29  1  0  0  0
 29 30  1  0  0  0
 30 31  1  0  0  0
 31 32  1  0  0  0
 24 25  1  0  0  0
 10 11  1  0  0  0
M  END
> <minimizedAffinity>
-7.88625

$$$$
3F68_91U_H_901


 32 34  0  0  0  0  0  0  0  0999 V2000
   16.4369  -12.3117   21.2491 C   0  0  0  0  0  0  0  0  0  0  0  0
   15.9422  -12.8064   22.2546 O   0  0  0  0  0  0  0  0  0  0  0  0
   17.6397  -12.7103   20.7359 N   0  0  0  0  0  0  0  0  0  0  0  0
   18.3951  -13.8156   21.2965 C   0  0  0  0  0  0  0  0  0  0  0  0
   19.7941  -13.5125   20.6758 C   0  0  0  0  0  0  0  0  0  0  0  0
   19.4558  -12.9071   19.2956 C   0  0  0  0  0  0  0  0  0  0  0  0
   18.2668  -11.9730   19.6265 C   0  0  0  0  0  0  0  0  0  0  0  0
   18.4988  -13.7860   22.8041 C   0  0  0  0  0  0  0  0  0  0  0  0
   19.3036  -13.0431   23.3502 O   0  0  0  0  0  0  0  0  0  0  0  0
   17.6924  -14.5830   23.5514 N   0  0  0  0  0  0  0  0  0  0  0  0
   17.0343  -15.1812   23.1291 H   0  0  0  0  0  0  0  0  0  0  0  0
   17.8362  -14.5213   25.0070 C   0  0  0  0  0  0  0  0  0  0  0  0
   17.8349  -15.9094   25.6575 C   0  0  0  0  0  0  0  0  0  0  0  0
   18.5929  -16.1553   26.8009 C   0  0  0  0  0  0  0  0  0  0  0  0
   18.5843  -17.4160   27.4097 C   0  0  0  0  0  0  0  0  0  0  0  0
   17.8444  -18.4697   26.8345 C   0  0  0  0  0  0  0  0  0  0  0  0
   17.0636  -18.2157   25.7033 C   0  0  0  0  0  0  0  0  0  0  0  0
   17.1003  -16.9575   25.0813 C   0  0  0  0  0  0  0  0  0  0  0  0
   16.0841  -19.4967   25.0102 Cl  0  0  0  0  0  0  0  0  0  0  0  0
   15.6164  -11.2259   20.5905 C   0  0  0  0  0  0  0  0  0  0  0  0
   13.5214  -10.0723   21.1371 C   0  0  0  0  0  0  0  0  0  0  0  0
   13.4299   -9.0863   20.4148 O   0  0  0  0  0  0  0  0  0  0  0  0
   12.2357  -10.7580   21.5186 C   0  0  0  0  0  0  0  0  0  0  0  0
   14.7589  -10.4986   21.5355 N   0  0  0  0  0  0  0  0  0  0  0  0
   15.0731  -10.3188   22.4511 H   0  0  0  0  0  0  0  0  0  0  0  0
   14.6896  -11.8103   19.4730 C   0  0  0  0  0  0  0  0  0  0  0  0
   14.5474  -13.3595   19.6102 C   0  0  0  0  0  0  0  0  0  0  0  0
   13.0493  -13.7786   19.6901 C   0  0  0  0  0  0  0  0  0  0  0  0
   12.9386  -15.2739   20.0785 C   0  0  0  0  0  0  0  0  0  0  0  0
   13.7220  -16.1502   19.0839 C   0  0  0  0  0  0  0  0  0  0  0  0
   15.1637  -15.6725   18.8247 C   0  0  0  0  0  0  0  0  0  0  0  0
   15.2230  -14.1615   18.4649 C   0  0  0  0  0  0  0  0  0  0  0  0
 26 20  1  0  0  0
 26 27  1  0  0  0
 24 21  1  0  0  0
 24 20  1  0  0  0
 21 23  1  0  0  0
 21 22  2  0  0  0
 20  1  1  0  0  0
  1  2  2  0  0  0
  1  3  1  0  0  0
  3  7  1  0  0  0
  3  4  1  0  0  0
  7  6  1  0  0  0
  6  5  1  0  0  0
  5  4  1  0  0  0
  4  8  1  0  0  0
  8 10  1  0  0  0
  8  9  2  0  0  0
 10 12  1  0  0  0
 12 13  1  0  0  0
 13 18  2  0  0  0
 13 14  1  0  0  0
 18 17  1  0  0  0
 17 16  2  0  0  0
 17 19  1  0  0  0
 16 15  1  0  0  0
 15 14  2  0  0  0
 27 28  1  0  0  0
 27 32  1  0  0  0
 28 29  1  0  0  0
 29 30  1  0  0  0
 30 31  1  0  0  0
 31 32  1  0  0  0
 24 25  1  0  0  0
 10 11  1  0  0  0
M  END
> <minimizedAffinity>
-7.67674

$$$$
