4LLK_MEW_A_900


 13 14  0  0  0  0  0  0  0  0999 V2000
    7.0788    9.1622   46.0803 C   0  0  0  0  0  0  0  0  0  0  0  0
    6.1807   10.3696   45.9654 C   0  0  0  0  0  0  0  0  0  0  0  0
    6.0203   10.9735   44.7682 N   0  0  0  0  0  0  0  0  0  0  0  0
    5.2063   12.0634   44.6688 C   0  0  0  0  0  0  0  0  0  0  0  0
    5.0133   12.6731   43.4346 C   0  0  0  0  0  0  0  0  0  0  0  0
    4.1705   13.7931   43.3584 C   0  0  0  0  0  0  0  0  0  0  0  0
    3.5061   14.2932   44.4865 C   0  0  0  0  0  0  0  0  0  0  0  0
    3.6935   13.6796   45.7247 C   0  0  0  0  0  0  0  0  0  0  0  0
    4.5422   12.5619   45.7984 C   0  0  0  0  0  0  0  0  0  0  0  0
    4.7478   11.9131   47.0163 C   0  0  0  0  0  0  0  0  0  0  0  0
    4.1963   12.3102   48.0289 O   0  0  0  0  0  0  0  0  0  0  0  0
    5.5590   10.8305   47.0664 N   0  0  0  0  0  0  0  0  0  0  0  0
    5.6971   10.3709   47.9260 H   0  0  0  0  0  0  0  0  0  0  0  0
  5  6  2  0  0  0
  5  4  1  0  0  0
  6  7  1  0  0  0
  3  4  1  0  0  0
  3  2  2  0  0  0
  4  9  2  0  0  0
  1  2  1  0  0  0
  2 12  1  0  0  0
  7  8  2  0  0  0
  9  8  1  0  0  0
  9 10  1  0  0  0
 12 10  1  0  0  0
 10 11  2  0  0  0
 12 13  1  0  0  0
M  END
> <minimizedAffinity>
-6.98141

$$$$
4LLK_MEW_A_900


 13 14  0  0  0  0  0  0  0  0999 V2000
    4.5835   11.9634   47.4018 C   0  0  0  0  0  0  0  0  0  0  0  0
    4.4440   12.3626   45.9531 C   0  0  0  0  0  0  0  0  0  0  0  0
    4.8637   11.5217   44.9833 N   0  0  0  0  0  0  0  0  0  0  0  0
    4.7341   11.8859   43.6753 C   0  0  0  0  0  0  0  0  0  0  0  0
    5.1371   11.0139   42.6706 C   0  0  0  0  0  0  0  0  0  0  0  0
    4.9929   11.4119   41.3322 C   0  0  0  0  0  0  0  0  0  0  0  0
    4.4350   12.6506   40.9880 C   0  0  0  0  0  0  0  0  0  0  0  0
    4.0245   13.5246   41.9941 C   0  0  0  0  0  0  0  0  0  0  0  0
    4.1752   13.1253   43.3330 C   0  0  0  0  0  0  0  0  0  0  0  0
    3.7672   13.9662   44.3687 C   0  0  0  0  0  0  0  0  0  0  0  0
    3.2788   15.0564   44.1236 O   0  0  0  0  0  0  0  0  0  0  0  0
    3.9087   13.5601   45.6523 N   0  0  0  0  0  0  0  0  0  0  0  0
    3.6139   14.1530   46.3809 H   0  0  0  0  0  0  0  0  0  0  0  0
  5  6  2  0  0  0
  5  4  1  0  0  0
  6  7  1  0  0  0
  3  4  1  0  0  0
  3  2  2  0  0  0
  4  9  2  0  0  0
  1  2  1  0  0  0
  2 12  1  0  0  0
  7  8  2  0  0  0
  9  8  1  0  0  0
  9 10  1  0  0  0
 12 10  1  0  0  0
 10 11  2  0  0  0
 12 13  1  0  0  0
M  END
> <minimizedAffinity>
-6.59093

$$$$
4LLK_MEW_A_900


 13 14  0  0  0  0  0  0  0  0999 V2000
    3.0339   15.4343   46.1656 C   0  0  0  0  0  0  0  0  0  0  0  0
    3.5386   14.4159   45.1729 C   0  0  0  0  0  0  0  0  0  0  0  0
    3.3908   14.6403   43.8494 N   0  0  0  0  0  0  0  0  0  0  0  0
    3.8500   13.7179   42.9557 C   0  0  0  0  0  0  0  0  0  0  0  0
    3.7275   13.9548   41.5916 C   0  0  0  0  0  0  0  0  0  0  0  0
    4.2083   12.9903   40.6921 C   0  0  0  0  0  0  0  0  0  0  0  0
    4.8250   11.8124   41.1353 C   0  0  0  0  0  0  0  0  0  0  0  0
    4.9542   11.5752   42.5034 C   0  0  0  0  0  0  0  0  0  0  0  0
    4.4670   12.5404   43.4011 C   0  0  0  0  0  0  0  0  0  0  0  0
    4.5866   12.3458   44.7774 C   0  0  0  0  0  0  0  0  0  0  0  0
    5.1118   11.3362   45.2154 O   0  0  0  0  0  0  0  0  0  0  0  0
    4.1226   13.2918   45.6273 N   0  0  0  0  0  0  0  0  0  0  0  0
    4.2142   13.1546   46.5979 H   0  0  0  0  0  0  0  0  0  0  0  0
  5  6  2  0  0  0
  5  4  1  0  0  0
  6  7  1  0  0  0
  3  4  1  0  0  0
  3  2  2  0  0  0
  4  9  2  0  0  0
  1  2  1  0  0  0
  2 12  1  0  0  0
  7  8  2  0  0  0
  9  8  1  0  0  0
  9 10  1  0  0  0
 12 10  1  0  0  0
 10 11  2  0  0  0
 12 13  1  0  0  0
M  END
> <minimizedAffinity>
-6.57886

$$$$
4LLK_MEW_A_900


 13 14  0  0  0  0  0  0  0  0999 V2000
    2.9065   16.3932   46.9741 C   0  0  0  0  0  0  0  0  0  0  0  0
    3.4011   15.1732   46.2362 C   0  0  0  0  0  0  0  0  0  0  0  0
    3.5014   15.1997   44.8898 N   0  0  0  0  0  0  0  0  0  0  0  0
    3.9506   14.0954   44.2272 C   0  0  0  0  0  0  0  0  0  0  0  0
    4.0841   14.1244   42.8439 C   0  0  0  0  0  0  0  0  0  0  0  0
    4.5488   12.9751   42.1854 C   0  0  0  0  0  0  0  0  0  0  0  0
    4.9002   11.8147   42.8883 C   0  0  0  0  0  0  0  0  0  0  0  0
    4.7727   11.7852   44.2767 C   0  0  0  0  0  0  0  0  0  0  0  0
    4.3021   12.9356   44.9322 C   0  0  0  0  0  0  0  0  0  0  0  0
    4.1704   12.9503   46.3211 C   0  0  0  0  0  0  0  0  0  0  0  0
    4.4591   11.9655   46.9797 O   0  0  0  0  0  0  0  0  0  0  0  0
    3.7270   14.0714   46.9369 N   0  0  0  0  0  0  0  0  0  0  0  0
    3.6413   14.0809   47.9176 H   0  0  0  0  0  0  0  0  0  0  0  0
  5  6  2  0  0  0
  5  4  1  0  0  0
  6  7  1  0  0  0
  3  4  1  0  0  0
  3  2  2  0  0  0
  4  9  2  0  0  0
  1  2  1  0  0  0
  2 12  1  0  0  0
  7  8  2  0  0  0
  9  8  1  0  0  0
  9 10  1  0  0  0
 12 10  1  0  0  0
 10 11  2  0  0  0
 12 13  1  0  0  0
M  END
> <minimizedAffinity>
-6.57042

$$$$
4LLK_MEW_A_900


 13 14  0  0  0  0  0  0  0  0999 V2000
    7.3397    8.5922   44.8574 C   0  0  0  0  0  0  0  0  0  0  0  0
    6.5277    9.8643   44.8491 C   0  0  0  0  0  0  0  0  0  0  0  0
    6.1065   10.3823   43.6752 N   0  0  0  0  0  0  0  0  0  0  0  0
    5.3715   11.5312   43.6726 C   0  0  0  0  0  0  0  0  0  0  0  0
    4.9098   12.0550   42.4706 C   0  0  0  0  0  0  0  0  0  0  0  0
    4.1550   13.2383   42.4946 C   0  0  0  0  0  0  0  0  0  0  0  0
    3.8396   13.8867   43.6963 C   0  0  0  0  0  0  0  0  0  0  0  0
    4.2967   13.3600   44.9039 C   0  0  0  0  0  0  0  0  0  0  0  0
    5.0566   12.1782   44.8759 C   0  0  0  0  0  0  0  0  0  0  0  0
    5.5237   11.6132   46.0629 C   0  0  0  0  0  0  0  0  0  0  0  0
    5.2803   12.1396   47.1356 O   0  0  0  0  0  0  0  0  0  0  0  0
    6.2438   10.4678   46.0180 N   0  0  0  0  0  0  0  0  0  0  0  0
    6.5665   10.0679   46.8578 H   0  0  0  0  0  0  0  0  0  0  0  0
  5  6  2  0  0  0
  5  4  1  0  0  0
  6  7  1  0  0  0
  3  4  1  0  0  0
  3  2  2  0  0  0
  4  9  2  0  0  0
  1  2  1  0  0  0
  2 12  1  0  0  0
  7  8  2  0  0  0
  9  8  1  0  0  0
  9 10  1  0  0  0
 12 10  1  0  0  0
 10 11  2  0  0  0
 12 13  1  0  0  0
M  END
> <minimizedAffinity>
-6.46823

$$$$
4LLK_MEW_A_900


 13 14  0  0  0  0  0  0  0  0999 V2000
    5.8999   10.2672   41.7420 C   0  0  0  0  0  0  0  0  0  0  0  0
    5.2216   11.4052   42.4647 C   0  0  0  0  0  0  0  0  0  0  0  0
    5.1029   11.3686   43.8094 N   0  0  0  0  0  0  0  0  0  0  0  0
    4.4906   12.4002   44.4586 C   0  0  0  0  0  0  0  0  0  0  0  0
    4.3902   12.3836   45.8449 C   0  0  0  0  0  0  0  0  0  0  0  0
    3.7559   13.4573   46.4895 C   0  0  0  0  0  0  0  0  0  0  0  0
    3.2453   14.5485   45.7737 C   0  0  0  0  0  0  0  0  0  0  0  0
    3.3502   14.5702   44.3832 C   0  0  0  0  0  0  0  0  0  0  0  0
    3.9809   13.4912   43.7407 C   0  0  0  0  0  0  0  0  0  0  0  0
    4.1155   13.4798   42.3521 C   0  0  0  0  0  0  0  0  0  0  0  0
    3.6852   14.4032   41.6819 O   0  0  0  0  0  0  0  0  0  0  0  0
    4.7367   12.4380   41.7510 N   0  0  0  0  0  0  0  0  0  0  0  0
    4.8359   12.4359   40.7715 H   0  0  0  0  0  0  0  0  0  0  0  0
  5  6  2  0  0  0
  5  4  1  0  0  0
  6  7  1  0  0  0
  3  4  1  0  0  0
  3  2  2  0  0  0
  4  9  2  0  0  0
  1  2  1  0  0  0
  2 12  1  0  0  0
  7  8  2  0  0  0
  9  8  1  0  0  0
  9 10  1  0  0  0
 12 10  1  0  0  0
 10 11  2  0  0  0
 12 13  1  0  0  0
M  END
> <minimizedAffinity>
-6.32283

$$$$
4LLK_MEW_A_900


 13 14  0  0  0  0  0  0  0  0999 V2000
    3.9384   14.0552   41.2784 C   0  0  0  0  0  0  0  0  0  0  0  0
    3.9647   13.7422   42.7545 C   0  0  0  0  0  0  0  0  0  0  0  0
    4.6687   12.6798   43.2013 N   0  0  0  0  0  0  0  0  0  0  0  0
    4.6910   12.4017   44.5365 C   0  0  0  0  0  0  0  0  0  0  0  0
    5.4366   11.3272   45.0074 C   0  0  0  0  0  0  0  0  0  0  0  0
    5.4437   11.0620   46.3859 C   0  0  0  0  0  0  0  0  0  0  0  0
    4.7392   11.8638   47.2940 C   0  0  0  0  0  0  0  0  0  0  0  0
    3.9953   12.9459   46.8245 C   0  0  0  0  0  0  0  0  0  0  0  0
    3.9860   13.2054   45.4434 C   0  0  0  0  0  0  0  0  0  0  0  0
    3.2628   14.2846   44.9347 C   0  0  0  0  0  0  0  0  0  0  0  0
    2.6297   15.0113   45.6816 O   0  0  0  0  0  0  0  0  0  0  0  0
    3.2751   14.5269   43.6028 N   0  0  0  0  0  0  0  0  0  0  0  0
    2.7691   15.2930   43.2475 H   0  0  0  0  0  0  0  0  0  0  0  0
  5  6  2  0  0  0
  5  4  1  0  0  0
  6  7  1  0  0  0
  3  4  1  0  0  0
  3  2  2  0  0  0
  4  9  2  0  0  0
  1  2  1  0  0  0
  2 12  1  0  0  0
  7  8  2  0  0  0
  9  8  1  0  0  0
  9 10  1  0  0  0
 12 10  1  0  0  0
 10 11  2  0  0  0
 12 13  1  0  0  0
M  END
> <minimizedAffinity>
-6.27533

$$$$
4LLK_MEW_A_900


 13 14  0  0  0  0  0  0  0  0999 V2000
    3.4224   14.5651   40.6521 C   0  0  0  0  0  0  0  0  0  0  0  0
    3.8201   13.8395   41.9142 C   0  0  0  0  0  0  0  0  0  0  0  0
    3.4468   14.3312   43.1153 N   0  0  0  0  0  0  0  0  0  0  0  0
    3.8070   13.6712   44.2533 C   0  0  0  0  0  0  0  0  0  0  0  0
    3.4022   14.1551   45.4919 C   0  0  0  0  0  0  0  0  0  0  0  0
    3.7855   13.4575   46.6482 C   0  0  0  0  0  0  0  0  0  0  0  0
    4.5427   12.2801   46.5812 C   0  0  0  0  0  0  0  0  0  0  0  0
    4.9450   11.7895   45.3394 C   0  0  0  0  0  0  0  0  0  0  0  0
    4.5641   12.4932   44.1841 C   0  0  0  0  0  0  0  0  0  0  0  0
    4.9374   12.0297   42.9223 C   0  0  0  0  0  0  0  0  0  0  0  0
    5.5995   11.0120   42.8087 O   0  0  0  0  0  0  0  0  0  0  0  0
    4.5512   12.7137   41.8197 N   0  0  0  0  0  0  0  0  0  0  0  0
    4.8107   12.3806   40.9303 H   0  0  0  0  0  0  0  0  0  0  0  0
  5  6  2  0  0  0
  5  4  1  0  0  0
  6  7  1  0  0  0
  3  4  1  0  0  0
  3  2  2  0  0  0
  4  9  2  0  0  0
  1  2  1  0  0  0
  2 12  1  0  0  0
  7  8  2  0  0  0
  9  8  1  0  0  0
  9 10  1  0  0  0
 12 10  1  0  0  0
 10 11  2  0  0  0
 12 13  1  0  0  0
M  END
> <minimizedAffinity>
-6.24772

$$$$
4LLK_MEW_A_900


 13 14  0  0  0  0  0  0  0  0999 V2000
    4.5571   12.3193   47.4030 C   0  0  0  0  0  0  0  0  0  0  0  0
    4.6403   12.2008   45.9008 C   0  0  0  0  0  0  0  0  0  0  0  0
    4.1326   13.1809   45.1226 N   0  0  0  0  0  0  0  0  0  0  0  0
    4.2115   13.0705   43.7654 C   0  0  0  0  0  0  0  0  0  0  0  0
    3.7173   14.0884   42.9581 C   0  0  0  0  0  0  0  0  0  0  0  0
    3.8108   13.9512   41.5642 C   0  0  0  0  0  0  0  0  0  0  0  0
    4.4072   12.8293   40.9727 C   0  0  0  0  0  0  0  0  0  0  0  0
    4.9090   11.8096   41.7808 C   0  0  0  0  0  0  0  0  0  0  0  0
    4.8090   11.9476   43.1757 C   0  0  0  0  0  0  0  0  0  0  0  0
    5.3084   10.9548   44.0191 C   0  0  0  0  0  0  0  0  0  0  0  0
    5.8336    9.9567   43.5554 O   0  0  0  0  0  0  0  0  0  0  0  0
    5.2144   11.1102   45.3606 N   0  0  0  0  0  0  0  0  0  0  0  0
    5.5736   10.4109   45.9532 H   0  0  0  0  0  0  0  0  0  0  0  0
  5  6  2  0  0  0
  5  4  1  0  0  0
  6  7  1  0  0  0
  3  4  1  0  0  0
  3  2  2  0  0  0
  4  9  2  0  0  0
  1  2  1  0  0  0
  2 12  1  0  0  0
  7  8  2  0  0  0
  9  8  1  0  0  0
  9 10  1  0  0  0
 12 10  1  0  0  0
 10 11  2  0  0  0
 12 13  1  0  0  0
M  END
> <minimizedAffinity>
-6.24001

$$$$
4LLK_MEW_A_900


 13 14  0  0  0  0  0  0  0  0999 V2000
    6.7840    9.3252   46.6364 C   0  0  0  0  0  0  0  0  0  0  0  0
    6.1050   10.4376   45.8755 C   0  0  0  0  0  0  0  0  0  0  0  0
    5.3049   11.3061   46.5307 N   0  0  0  0  0  0  0  0  0  0  0  0
    4.6946   12.3110   45.8392 C   0  0  0  0  0  0  0  0  0  0  0  0
    3.8927   13.2261   46.5112 C   0  0  0  0  0  0  0  0  0  0  0  0
    3.2760   14.2514   45.7770 C   0  0  0  0  0  0  0  0  0  0  0  0
    3.4673   14.3857   44.3952 C   0  0  0  0  0  0  0  0  0  0  0  0
    4.2762   13.4722   43.7198 C   0  0  0  0  0  0  0  0  0  0  0  0
    4.8877   12.4438   44.4570 C   0  0  0  0  0  0  0  0  0  0  0  0
    5.7128   11.5161   43.8205 C   0  0  0  0  0  0  0  0  0  0  0  0
    5.9095   11.5860   42.6190 O   0  0  0  0  0  0  0  0  0  0  0  0
    6.3034   10.5394   44.5483 N   0  0  0  0  0  0  0  0  0  0  0  0
    6.8903    9.8901   44.0974 H   0  0  0  0  0  0  0  0  0  0  0  0
  5  6  2  0  0  0
  5  4  1  0  0  0
  6  7  1  0  0  0
  3  4  1  0  0  0
  3  2  2  0  0  0
  4  9  2  0  0  0
  1  2  1  0  0  0
  2 12  1  0  0  0
  7  8  2  0  0  0
  9  8  1  0  0  0
  9 10  1  0  0  0
 12 10  1  0  0  0
 10 11  2  0  0  0
 12 13  1  0  0  0
M  END
> <minimizedAffinity>
-6.23764

$$$$
