5EXN_5SU_A_302


 44 48  0  0  0  0  0  0  0  0999 V2000
   -0.7928    8.7089  -17.7678 C   0  0  0  0  0  0  0  0  0  0  0  0
    0.3898    9.4363  -17.2151 C   0  0  0  0  0  0  0  0  0  0  0  0
    1.3397    9.7885  -18.0964 N   0  0  0  0  0  0  0  0  0  0  0  0
    2.4258   10.4089  -17.6078 C   0  0  0  0  0  0  0  0  0  0  0  0
    2.6207   10.6696  -16.2645 C   0  0  0  0  0  0  0  0  0  0  0  0
    1.6236   10.3034  -15.3525 C   0  0  0  0  0  0  0  0  0  0  0  0
    0.4876    9.6812  -15.8739 C   0  0  0  0  0  0  0  0  0  0  0  0
    2.0552   11.0531  -11.1242 C   0  0  0  0  0  0  0  0  0  0  0  0
    2.5458   11.9715  -12.0641 C   0  0  0  0  0  0  0  0  0  0  0  0
    1.7383   10.5879  -13.8939 C   0  0  0  0  0  0  0  0  0  0  0  0
    2.3676   11.7474  -13.4212 C   0  0  0  0  0  0  0  0  0  0  0  0
    1.3863    9.9148  -11.5816 C   0  0  0  0  0  0  0  0  0  0  0  0
    1.2534    9.6814  -12.9412 C   0  0  0  0  0  0  0  0  0  0  0  0
    2.1985   11.1577   -9.7195 N   0  0  0  0  0  0  0  0  0  0  0  0
    3.3204   11.5208   -9.0438 C   0  0  0  0  0  0  0  0  0  0  0  0
    4.3611   11.9141   -9.5432 O   0  0  0  0  0  0  0  0  0  0  0  0
    1.4047   10.9458   -9.1770 H   0  0  0  0  0  0  0  0  0  0  0  0
    3.0965   11.4050   -7.7293 O   0  0  0  0  0  0  0  0  0  0  0  0
    1.7970   11.9240   -7.2506 C   0  0  0  0  0  0  0  0  0  0  0  0
   -2.7541   10.1185  -18.1797 C   0  0  0  0  0  0  0  0  0  0  0  0
   -1.6006    9.5201  -18.6772 N   0  0  0  0  0  0  0  0  0  0  0  0
   -3.0408   10.1127  -16.9702 O   0  0  0  0  0  0  0  0  0  0  0  0
   -1.3352    9.6398  -19.6177 H   0  0  0  0  0  0  0  0  0  0  0  0
   -3.5629   10.8955  -19.1137 C   0  0  0  0  0  0  0  0  0  0  0  0
   -3.9697   10.5295  -20.3002 C   0  0  0  0  0  0  0  0  0  0  0  0
   -6.4805   12.9689  -22.7300 C   0  0  0  0  0  0  0  0  0  0  0  0
   -5.1155   13.2145  -22.7212 C   0  0  0  0  0  0  0  0  0  0  0  0
   -4.7816   11.3752  -21.1711 C   0  0  0  0  0  0  0  0  0  0  0  0
   -4.2559   12.4181  -21.9542 C   0  0  0  0  0  0  0  0  0  0  0  0
   -6.9817   11.9356  -21.9725 C   0  0  0  0  0  0  0  0  0  0  0  0
   -6.1657   11.1462  -21.1938 C   0  0  0  0  0  0  0  0  0  0  0  0
   -8.6877   11.6048  -22.0211 Cl  0  0  0  0  0  0  0  0  0  0  0  0
   -2.8400   12.6389  -22.0355 N   0  0  0  0  0  0  0  0  0  0  0  0
   -1.9197   12.2243  -22.9106 C   0  0  0  0  0  0  0  0  0  0  0  0
   -0.7428   12.6643  -22.5574 N   0  0  0  0  0  0  0  0  0  0  0  0
   -0.9471   13.3760  -21.4228 N   0  0  0  0  0  0  0  0  0  0  0  0
   -2.2046   13.3821  -21.0937 N   0  0  0  0  0  0  0  0  0  0  0  0
   -0.3798    7.3873  -18.4259 C   0  0  0  0  0  0  0  0  0  0  0  0
    0.1619    6.3299  -17.4801 C   0  0  0  0  0  0  0  0  0  0  0  0
   -0.4404    6.1475  -16.2157 C   0  0  0  0  0  0  0  0  0  0  0  0
    0.0479    5.1836  -15.3209 C   0  0  0  0  0  0  0  0  0  0  0  0
    1.1346    4.3721  -15.6916 C   0  0  0  0  0  0  0  0  0  0  0  0
    1.7209    4.5356  -16.9347 C   0  0  0  0  0  0  0  0  0  0  0  0
    1.2581    5.5165  -17.8137 C   0  0  0  0  0  0  0  0  0  0  0  0
 34 35  2  0  0  0
 34 33  1  0  0  0
 27 26  2  0  0  0
 27 29  1  0  0  0
 26 30  1  0  0  0
 35 36  1  0  0  0
 33 29  1  0  0  0
 33 37  1  0  0  0
 32 30  1  0  0  0
 29 28  2  0  0  0
 30 31  2  0  0  0
 36 37  2  0  0  0
 31 28  1  0  0  0
 28 25  1  0  0  0
 25 24  2  0  0  0
 24 20  1  0  0  0
 21 20  1  0  0  0
 21  1  1  0  0  0
 38  1  1  0  0  0
 38 39  1  0  0  0
 20 22  2  0  0  0
  3  4  2  0  0  0
  3  2  1  0  0  0
 40 39  2  0  0  0
 40 41  1  0  0  0
  1  2  1  0  0  0
  4  5  1  0  0  0
 39 44  1  0  0  0
  2  7  2  0  0  0
 41 42  2  0  0  0
  5  6  2  0  0  0
 44 43  2  0  0  0
  7  6  1  0  0  0
 42 43  1  0  0  0
  6 10  1  0  0  0
 10 11  2  0  0  0
 10 13  1  0  0  0
 11  9  1  0  0  0
 13 12  2  0  0  0
  9  8  2  0  0  0
 12  8  1  0  0  0
  8 14  1  0  0  0
 14 15  1  0  0  0
 16 15  2  0  0  0
 15 18  1  0  0  0
 18 19  1  0  0  0
 14 17  1  0  0  0
 21 23  1  0  0  0
M  END
> <minimizedAffinity>
-10.51181

$$$$
5EXN_5SU_A_302


 44 48  0  0  0  0  0  0  0  0999 V2000
   -0.7099    8.6217  -18.1688 C   0  0  0  0  0  0  0  0  0  0  0  0
    0.4247    9.3715  -17.5491 C   0  0  0  0  0  0  0  0  0  0  0  0
    1.4046    9.7645  -18.3787 N   0  0  0  0  0  0  0  0  0  0  0  0
    2.4488   10.4058  -17.8294 C   0  0  0  0  0  0  0  0  0  0  0  0
    2.5731   10.6485  -16.4744 C   0  0  0  0  0  0  0  0  0  0  0  0
    1.5449   10.2397  -15.6166 C   0  0  0  0  0  0  0  0  0  0  0  0
    0.4525    9.5958  -16.2011 C   0  0  0  0  0  0  0  0  0  0  0  0
    1.7463   10.9158  -11.3588 C   0  0  0  0  0  0  0  0  0  0  0  0
    2.3906   11.7870  -12.2495 C   0  0  0  0  0  0  0  0  0  0  0  0
    1.5830   10.5021  -14.1499 C   0  0  0  0  0  0  0  0  0  0  0  0
    2.2883   11.5903  -13.6187 C   0  0  0  0  0  0  0  0  0  0  0  0
    1.0027    9.8526  -11.8772 C   0  0  0  0  0  0  0  0  0  0  0  0
    0.9445    9.6421  -13.2458 C   0  0  0  0  0  0  0  0  0  0  0  0
    1.7989   10.9967   -9.9462 N   0  0  0  0  0  0  0  0  0  0  0  0
    2.8781   11.3361   -9.1932 C   0  0  0  0  0  0  0  0  0  0  0  0
    3.9533   11.7250   -9.6174 O   0  0  0  0  0  0  0  0  0  0  0  0
    0.9692   10.7856   -9.4600 H   0  0  0  0  0  0  0  0  0  0  0  0
    2.5678   11.2023   -7.8981 O   0  0  0  0  0  0  0  0  0  0  0  0
    2.9056   12.3541   -7.0341 C   0  0  0  0  0  0  0  0  0  0  0  0
   -2.6723   10.0631  -18.4417 C   0  0  0  0  0  0  0  0  0  0  0  0
   -1.5615    9.4540  -19.0171 N   0  0  0  0  0  0  0  0  0  0  0  0
   -2.8821   10.0482  -17.2166 O   0  0  0  0  0  0  0  0  0  0  0  0
   -1.3542    9.5802  -19.9713 H   0  0  0  0  0  0  0  0  0  0  0  0
   -3.5270   10.8614  -19.3148 C   0  0  0  0  0  0  0  0  0  0  0  0
   -3.9251   10.5589  -20.5220 C   0  0  0  0  0  0  0  0  0  0  0  0
   -6.5716   13.0440  -22.7534 C   0  0  0  0  0  0  0  0  0  0  0  0
   -5.2085   13.2917  -22.8173 C   0  0  0  0  0  0  0  0  0  0  0  0
   -4.7858   11.4212  -21.3275 C   0  0  0  0  0  0  0  0  0  0  0  0
   -4.3062   12.4810  -22.1173 C   0  0  0  0  0  0  0  0  0  0  0  0
   -7.0283   11.9943  -21.9904 C   0  0  0  0  0  0  0  0  0  0  0  0
   -6.1688   11.1903  -21.2760 C   0  0  0  0  0  0  0  0  0  0  0  0
   -8.7341   11.6617  -21.9486 Cl  0  0  0  0  0  0  0  0  0  0  0  0
   -2.8973   12.7059  -22.2744 N   0  0  0  0  0  0  0  0  0  0  0  0
   -2.0417   13.5017  -21.6269 C   0  0  0  0  0  0  0  0  0  0  0  0
   -0.8491   13.3837  -22.1440 N   0  0  0  0  0  0  0  0  0  0  0  0
   -0.9762   12.4817  -23.1468 N   0  0  0  0  0  0  0  0  0  0  0  0
   -2.1998   12.0527  -23.2388 N   0  0  0  0  0  0  0  0  0  0  0  0
   -0.2155    7.3846  -18.9273 C   0  0  0  0  0  0  0  0  0  0  0  0
   -0.4512    7.4030  -20.4274 C   0  0  0  0  0  0  0  0  0  0  0  0
   -1.5340    6.6798  -20.9745 C   0  0  0  0  0  0  0  0  0  0  0  0
   -1.7666    6.6739  -22.3579 C   0  0  0  0  0  0  0  0  0  0  0  0
   -0.9286    7.4130  -23.2112 C   0  0  0  0  0  0  0  0  0  0  0  0
    0.1261    8.1355  -22.6807 C   0  0  0  0  0  0  0  0  0  0  0  0
    0.3796    8.1163  -21.3081 C   0  0  0  0  0  0  0  0  0  0  0  0
 34 35  2  0  0  0
 34 33  1  0  0  0
 27 26  2  0  0  0
 27 29  1  0  0  0
 26 30  1  0  0  0
 35 36  1  0  0  0
 33 29  1  0  0  0
 33 37  1  0  0  0
 32 30  1  0  0  0
 29 28  2  0  0  0
 30 31  2  0  0  0
 36 37  2  0  0  0
 31 28  1  0  0  0
 28 25  1  0  0  0
 25 24  2  0  0  0
 24 20  1  0  0  0
 21 20  1  0  0  0
 21  1  1  0  0  0
 38  1  1  0  0  0
 38 39  1  0  0  0
 20 22  2  0  0  0
  3  4  2  0  0  0
  3  2  1  0  0  0
 40 39  2  0  0  0
 40 41  1  0  0  0
  1  2  1  0  0  0
  4  5  1  0  0  0
 39 44  1  0  0  0
  2  7  2  0  0  0
 41 42  2  0  0  0
  5  6  2  0  0  0
 44 43  2  0  0  0
  7  6  1  0  0  0
 42 43  1  0  0  0
  6 10  1  0  0  0
 10 11  2  0  0  0
 10 13  1  0  0  0
 11  9  1  0  0  0
 13 12  2  0  0  0
  9  8  2  0  0  0
 12  8  1  0  0  0
  8 14  1  0  0  0
 14 15  1  0  0  0
 16 15  2  0  0  0
 15 18  1  0  0  0
 18 19  1  0  0  0
 14 17  1  0  0  0
 21 23  1  0  0  0
M  END
> <minimizedAffinity>
-10.27363

$$$$
5EXN_5SU_A_302


 44 48  0  0  0  0  0  0  0  0999 V2000
    2.0867    4.8659  -18.7900 C   0  0  0  0  0  0  0  0  0  0  0  0
    1.0430    5.0139  -19.8493 C   0  0  0  0  0  0  0  0  0  0  0  0
    0.9132    3.9891  -20.7071 N   0  0  0  0  0  0  0  0  0  0  0  0
    0.0054    4.1248  -21.6873 C   0  0  0  0  0  0  0  0  0  0  0  0
   -0.7642    5.2585  -21.8681 C   0  0  0  0  0  0  0  0  0  0  0  0
   -0.6263    6.3209  -20.9667 C   0  0  0  0  0  0  0  0  0  0  0  0
    0.3026    6.1595  -19.9368 C   0  0  0  0  0  0  0  0  0  0  0  0
   -2.9120    9.9731  -21.2179 C   0  0  0  0  0  0  0  0  0  0  0  0
   -2.3182    9.4244  -22.3641 C   0  0  0  0  0  0  0  0  0  0  0  0
   -1.4494    7.5595  -21.0672 C   0  0  0  0  0  0  0  0  0  0  0  0
   -1.6201    8.2284  -22.2867 C   0  0  0  0  0  0  0  0  0  0  0  0
   -2.7870    9.2926  -20.0040 C   0  0  0  0  0  0  0  0  0  0  0  0
   -2.0501    8.1211  -19.9322 C   0  0  0  0  0  0  0  0  0  0  0  0
   -3.6236   11.1961  -21.1654 N   0  0  0  0  0  0  0  0  0  0  0  0
   -4.9731   11.3472  -21.1106 C   0  0  0  0  0  0  0  0  0  0  0  0
   -5.7900   10.4491  -20.9961 O   0  0  0  0  0  0  0  0  0  0  0  0
   -3.0861   12.0209  -21.1689 H   0  0  0  0  0  0  0  0  0  0  0  0
   -5.2706   12.6507  -21.1751 O   0  0  0  0  0  0  0  0  0  0  0  0
   -6.1644   13.0517  -22.2830 C   0  0  0  0  0  0  0  0  0  0  0  0
    3.0286    6.7167  -17.4897 C   0  0  0  0  0  0  0  0  0  0  0  0
    1.9650    5.8479  -17.7137 N   0  0  0  0  0  0  0  0  0  0  0  0
    4.0049    6.7882  -18.2557 O   0  0  0  0  0  0  0  0  0  0  0  0
    1.1513    5.8933  -17.1614 H   0  0  0  0  0  0  0  0  0  0  0  0
    2.8991    7.6656  -16.3883 C   0  0  0  0  0  0  0  0  0  0  0  0
    2.8953    8.9699  -16.4658 C   0  0  0  0  0  0  0  0  0  0  0  0
    2.6527   11.6078  -13.1279 C   0  0  0  0  0  0  0  0  0  0  0  0
    1.4792   11.1043  -13.6689 C   0  0  0  0  0  0  0  0  0  0  0  0
    2.7583    9.8466  -15.3058 C   0  0  0  0  0  0  0  0  0  0  0  0
    1.5202   10.2155  -14.7505 C   0  0  0  0  0  0  0  0  0  0  0  0
    3.8590   11.2272  -13.6690 C   0  0  0  0  0  0  0  0  0  0  0  0
    3.9325   10.3697  -14.7436 C   0  0  0  0  0  0  0  0  0  0  0  0
    5.3283   11.8270  -12.9594 Cl  0  0  0  0  0  0  0  0  0  0  0  0
    0.2953    9.6417  -15.2305 N   0  0  0  0  0  0  0  0  0  0  0  0
   -0.5140    8.7084  -14.7218 C   0  0  0  0  0  0  0  0  0  0  0  0
   -1.5100    8.4936  -15.5374 N   0  0  0  0  0  0  0  0  0  0  0  0
   -1.3056    9.3259  -16.5867 N   0  0  0  0  0  0  0  0  0  0  0  0
   -0.2284   10.0340  -16.4201 N   0  0  0  0  0  0  0  0  0  0  0  0
    2.1209    3.4380  -18.2333 C   0  0  0  0  0  0  0  0  0  0  0  0
    2.8281    3.2757  -16.8992 C   0  0  0  0  0  0  0  0  0  0  0  0
    4.2393    3.3031  -16.8475 C   0  0  0  0  0  0  0  0  0  0  0  0
    4.9155    3.1460  -15.6284 C   0  0  0  0  0  0  0  0  0  0  0  0
    4.1840    2.9821  -14.4389 C   0  0  0  0  0  0  0  0  0  0  0  0
    2.8006    2.9685  -14.4801 C   0  0  0  0  0  0  0  0  0  0  0  0
    2.1260    3.0912  -15.6961 C   0  0  0  0  0  0  0  0  0  0  0  0
 34 35  2  0  0  0
 34 33  1  0  0  0
 27 26  2  0  0  0
 27 29  1  0  0  0
 26 30  1  0  0  0
 35 36  1  0  0  0
 33 29  1  0  0  0
 33 37  1  0  0  0
 32 30  1  0  0  0
 29 28  2  0  0  0
 30 31  2  0  0  0
 36 37  2  0  0  0
 31 28  1  0  0  0
 28 25  1  0  0  0
 25 24  2  0  0  0
 24 20  1  0  0  0
 21 20  1  0  0  0
 21  1  1  0  0  0
 38  1  1  0  0  0
 38 39  1  0  0  0
 20 22  2  0  0  0
  3  4  2  0  0  0
  3  2  1  0  0  0
 40 39  2  0  0  0
 40 41  1  0  0  0
  1  2  1  0  0  0
  4  5  1  0  0  0
 39 44  1  0  0  0
  2  7  2  0  0  0
 41 42  2  0  0  0
  5  6  2  0  0  0
 44 43  2  0  0  0
  7  6  1  0  0  0
 42 43  1  0  0  0
  6 10  1  0  0  0
 10 11  2  0  0  0
 10 13  1  0  0  0
 11  9  1  0  0  0
 13 12  2  0  0  0
  9  8  2  0  0  0
 12  8  1  0  0  0
  8 14  1  0  0  0
 14 15  1  0  0  0
 16 15  2  0  0  0
 15 18  1  0  0  0
 18 19  1  0  0  0
 14 17  1  0  0  0
 21 23  1  0  0  0
M  END
> <minimizedAffinity>
-9.36304

$$$$
5EXN_5SU_A_302


 44 48  0  0  0  0  0  0  0  0999 V2000
    2.7034    9.3525  -20.6784 C   0  0  0  0  0  0  0  0  0  0  0  0
    1.9352   10.3242  -21.5145 C   0  0  0  0  0  0  0  0  0  0  0  0
    2.6445   11.0393  -22.4024 N   0  0  0  0  0  0  0  0  0  0  0  0
    1.9729   11.9435  -23.1336 C   0  0  0  0  0  0  0  0  0  0  0  0
    0.6195   12.1881  -22.9965 C   0  0  0  0  0  0  0  0  0  0  0  0
   -0.1139   11.4350  -22.0717 C   0  0  0  0  0  0  0  0  0  0  0  0
    0.5894   10.4805  -21.3342 C   0  0  0  0  0  0  0  0  0  0  0  0
   -4.3833   11.9312  -21.6819 C   0  0  0  0  0  0  0  0  0  0  0  0
   -3.7946   10.6694  -21.5125 C   0  0  0  0  0  0  0  0  0  0  0  0
   -1.5837   11.6078  -21.8945 C   0  0  0  0  0  0  0  0  0  0  0  0
   -2.4181   10.5219  -21.5969 C   0  0  0  0  0  0  0  0  0  0  0  0
   -3.5583   13.0301  -21.9348 C   0  0  0  0  0  0  0  0  0  0  0  0
   -2.1884   12.8614  -22.0597 C   0  0  0  0  0  0  0  0  0  0  0  0
   -5.7726   12.2023  -21.6458 N   0  0  0  0  0  0  0  0  0  0  0  0
   -6.4856   12.9051  -22.5649 C   0  0  0  0  0  0  0  0  0  0  0  0
   -6.0617   13.3327  -23.6253 O   0  0  0  0  0  0  0  0  0  0  0  0
   -6.2729   11.8454  -20.8767 H   0  0  0  0  0  0  0  0  0  0  0  0
   -7.7466   13.0343  -22.1351 O   0  0  0  0  0  0  0  0  0  0  0  0
   -8.5373   11.7858  -22.0781 C   0  0  0  0  0  0  0  0  0  0  0  0
    3.3023   10.0942  -18.4213 C   0  0  0  0  0  0  0  0  0  0  0  0
    2.3955    9.4432  -19.2520 N   0  0  0  0  0  0  0  0  0  0  0  0
    4.2790   10.7237  -18.8626 O   0  0  0  0  0  0  0  0  0  0  0  0
    1.5676    9.0537  -18.8886 H   0  0  0  0  0  0  0  0  0  0  0  0
    2.9910   10.1430  -16.9962 C   0  0  0  0  0  0  0  0  0  0  0  0
    1.8512   10.4701  -16.4475 C   0  0  0  0  0  0  0  0  0  0  0  0
    1.2384   10.7064  -12.2371 C   0  0  0  0  0  0  0  0  0  0  0  0
    0.5472    9.7460  -12.9605 C   0  0  0  0  0  0  0  0  0  0  0  0
    1.6269   10.4902  -15.0044 C   0  0  0  0  0  0  0  0  0  0  0  0
    0.7411    9.6220  -14.3420 C   0  0  0  0  0  0  0  0  0  0  0  0
    2.1146   11.5397  -12.8931 C   0  0  0  0  0  0  0  0  0  0  0  0
    2.3139   11.4554  -14.2529 C   0  0  0  0  0  0  0  0  0  0  0  0
    3.0107   12.7126  -11.9749 Cl  0  0  0  0  0  0  0  0  0  0  0  0
    0.0805    8.5613  -15.0481 N   0  0  0  0  0  0  0  0  0  0  0  0
   -1.0229    8.5403  -15.8009 C   0  0  0  0  0  0  0  0  0  0  0  0
   -1.2493    7.3256  -16.2211 N   0  0  0  0  0  0  0  0  0  0  0  0
   -0.2478    6.5715  -15.7076 N   0  0  0  0  0  0  0  0  0  0  0  0
    0.5708    7.2960  -15.0043 N   0  0  0  0  0  0  0  0  0  0  0  0
    2.5335    7.9172  -21.1896 C   0  0  0  0  0  0  0  0  0  0  0  0
    1.1000    7.4763  -21.4287 C   0  0  0  0  0  0  0  0  0  0  0  0
    0.6138    7.3636  -22.7500 C   0  0  0  0  0  0  0  0  0  0  0  0
   -0.7093    6.9673  -22.9960 C   0  0  0  0  0  0  0  0  0  0  0  0
   -1.5578    6.6558  -21.9191 C   0  0  0  0  0  0  0  0  0  0  0  0
   -1.0839    6.7503  -20.6221 C   0  0  0  0  0  0  0  0  0  0  0  0
    0.2220    7.1764  -20.3734 C   0  0  0  0  0  0  0  0  0  0  0  0
 34 35  2  0  0  0
 34 33  1  0  0  0
 27 26  2  0  0  0
 27 29  1  0  0  0
 26 30  1  0  0  0
 35 36  1  0  0  0
 33 29  1  0  0  0
 33 37  1  0  0  0
 32 30  1  0  0  0
 29 28  2  0  0  0
 30 31  2  0  0  0
 36 37  2  0  0  0
 31 28  1  0  0  0
 28 25  1  0  0  0
 25 24  2  0  0  0
 24 20  1  0  0  0
 21 20  1  0  0  0
 21  1  1  0  0  0
 38  1  1  0  0  0
 38 39  1  0  0  0
 20 22  2  0  0  0
  3  4  2  0  0  0
  3  2  1  0  0  0
 40 39  2  0  0  0
 40 41  1  0  0  0
  1  2  1  0  0  0
  4  5  1  0  0  0
 39 44  1  0  0  0
  2  7  2  0  0  0
 41 42  2  0  0  0
  5  6  2  0  0  0
 44 43  2  0  0  0
  7  6  1  0  0  0
 42 43  1  0  0  0
  6 10  1  0  0  0
 10 11  2  0  0  0
 10 13  1  0  0  0
 11  9  1  0  0  0
 13 12  2  0  0  0
  9  8  2  0  0  0
 12  8  1  0  0  0
  8 14  1  0  0  0
 14 15  1  0  0  0
 16 15  2  0  0  0
 15 18  1  0  0  0
 18 19  1  0  0  0
 14 17  1  0  0  0
 21 23  1  0  0  0
M  END
> <minimizedAffinity>
-9.01194

$$$$
5EXN_5SU_A_302


 44 48  0  0  0  0  0  0  0  0999 V2000
    0.9805    9.5178  -16.3579 C   0  0  0  0  0  0  0  0  0  0  0  0
    0.7426    9.6827  -17.8240 C   0  0  0  0  0  0  0  0  0  0  0  0
    1.7849    9.4263  -18.6307 N   0  0  0  0  0  0  0  0  0  0  0  0
    1.5963    9.6074  -19.9479 C   0  0  0  0  0  0  0  0  0  0  0  0
    0.4134   10.0646  -20.4975 C   0  0  0  0  0  0  0  0  0  0  0  0
   -0.6702   10.3253  -19.6501 C   0  0  0  0  0  0  0  0  0  0  0  0
   -0.4712   10.1101  -18.2849 C   0  0  0  0  0  0  0  0  0  0  0  0
   -4.5369   11.6530  -21.0329 C   0  0  0  0  0  0  0  0  0  0  0  0
   -3.4559   12.5450  -20.9766 C   0  0  0  0  0  0  0  0  0  0  0  0
   -1.9921   10.7792  -20.1681 C   0  0  0  0  0  0  0  0  0  0  0  0
   -2.2047   12.1041  -20.5718 C   0  0  0  0  0  0  0  0  0  0  0  0
   -4.3274   10.3186  -20.6756 C   0  0  0  0  0  0  0  0  0  0  0  0
   -3.0828    9.9012  -20.2314 C   0  0  0  0  0  0  0  0  0  0  0  0
   -5.8620   11.9886  -21.4022 N   0  0  0  0  0  0  0  0  0  0  0  0
   -6.2372   12.8078  -22.4196 C   0  0  0  0  0  0  0  0  0  0  0  0
   -5.4940   13.3097  -23.2459 O   0  0  0  0  0  0  0  0  0  0  0  0
   -6.5850   11.5877  -20.8677 H   0  0  0  0  0  0  0  0  0  0  0  0
   -7.5668   12.9597  -22.3918 O   0  0  0  0  0  0  0  0  0  0  0  0
   -8.3452   11.7469  -22.0596 C   0  0  0  0  0  0  0  0  0  0  0  0
    1.6586    7.3484  -15.4430 C   0  0  0  0  0  0  0  0  0  0  0  0
    2.0281    8.5470  -16.0453 N   0  0  0  0  0  0  0  0  0  0  0  0
    0.4707    7.0123  -15.2984 O   0  0  0  0  0  0  0  0  0  0  0  0
    2.9710    8.7366  -16.2555 H   0  0  0  0  0  0  0  0  0  0  0  0
    2.7245    6.4090  -15.1089 C   0  0  0  0  0  0  0  0  0  0  0  0
    2.7732    5.1351  -15.3952 C   0  0  0  0  0  0  0  0  0  0  0  0
    5.9248    2.5484  -14.1564 C   0  0  0  0  0  0  0  0  0  0  0  0
    5.7779    2.8237  -15.5076 C   0  0  0  0  0  0  0  0  0  0  0  0
    3.8858    4.2660  -15.0212 C   0  0  0  0  0  0  0  0  0  0  0  0
    4.7692    3.6885  -15.9503 C   0  0  0  0  0  0  0  0  0  0  0  0
    5.0649    3.1319  -13.2548 C   0  0  0  0  0  0  0  0  0  0  0  0
    4.0519    3.9719  -13.6594 C   0  0  0  0  0  0  0  0  0  0  0  0
    5.2808    2.8177  -11.5587 Cl  0  0  0  0  0  0  0  0  0  0  0  0
    4.6984    4.0247  -17.3439 N   0  0  0  0  0  0  0  0  0  0  0  0
    5.2977    4.9762  -18.0652 C   0  0  0  0  0  0  0  0  0  0  0  0
    4.9014    4.9064  -19.3068 N   0  0  0  0  0  0  0  0  0  0  0  0
    4.0259    3.8734  -19.3506 N   0  0  0  0  0  0  0  0  0  0  0  0
    3.8941    3.3211  -18.1813 N   0  0  0  0  0  0  0  0  0  0  0  0
    1.2563   10.8651  -15.6804 C   0  0  0  0  0  0  0  0  0  0  0  0
    1.4023   10.8166  -14.1696 C   0  0  0  0  0  0  0  0  0  0  0  0
    2.3929   11.5997  -13.5370 C   0  0  0  0  0  0  0  0  0  0  0  0
    2.5534   11.5648  -12.1437 C   0  0  0  0  0  0  0  0  0  0  0  0
    1.7059   10.7601  -11.3621 C   0  0  0  0  0  0  0  0  0  0  0  0
    0.7236   10.0008  -11.9739 C   0  0  0  0  0  0  0  0  0  0  0  0
    0.5836   10.0083  -13.3628 C   0  0  0  0  0  0  0  0  0  0  0  0
 34 35  2  0  0  0
 34 33  1  0  0  0
 27 26  2  0  0  0
 27 29  1  0  0  0
 26 30  1  0  0  0
 35 36  1  0  0  0
 33 29  1  0  0  0
 33 37  1  0  0  0
 32 30  1  0  0  0
 29 28  2  0  0  0
 30 31  2  0  0  0
 36 37  2  0  0  0
 31 28  1  0  0  0
 28 25  1  0  0  0
 25 24  2  0  0  0
 24 20  1  0  0  0
 21 20  1  0  0  0
 21  1  1  0  0  0
 38  1  1  0  0  0
 38 39  1  0  0  0
 20 22  2  0  0  0
  3  4  2  0  0  0
  3  2  1  0  0  0
 40 39  2  0  0  0
 40 41  1  0  0  0
  1  2  1  0  0  0
  4  5  1  0  0  0
 39 44  1  0  0  0
  2  7  2  0  0  0
 41 42  2  0  0  0
  5  6  2  0  0  0
 44 43  2  0  0  0
  7  6  1  0  0  0
 42 43  1  0  0  0
  6 10  1  0  0  0
 10 11  2  0  0  0
 10 13  1  0  0  0
 11  9  1  0  0  0
 13 12  2  0  0  0
  9  8  2  0  0  0
 12  8  1  0  0  0
  8 14  1  0  0  0
 14 15  1  0  0  0
 16 15  2  0  0  0
 15 18  1  0  0  0
 18 19  1  0  0  0
 14 17  1  0  0  0
 21 23  1  0  0  0
M  END
> <minimizedAffinity>
-8.86535

$$$$
5EXN_5SU_A_302


 44 48  0  0  0  0  0  0  0  0999 V2000
    0.2243    8.4405  -16.0355 C   0  0  0  0  0  0  0  0  0  0  0  0
    0.3802    6.9659  -16.2211 C   0  0  0  0  0  0  0  0  0  0  0  0
    0.2838    6.2112  -15.1148 N   0  0  0  0  0  0  0  0  0  0  0  0
    0.4599    4.8880  -15.2612 C   0  0  0  0  0  0  0  0  0  0  0  0
    0.7592    4.2831  -16.4674 C   0  0  0  0  0  0  0  0  0  0  0  0
    0.8536    5.0763  -17.6172 C   0  0  0  0  0  0  0  0  0  0  0  0
    0.6443    6.4477  -17.4580 C   0  0  0  0  0  0  0  0  0  0  0  0
    1.5637    3.3126  -21.4916 C   0  0  0  0  0  0  0  0  0  0  0  0
    0.7866    4.4739  -21.3694 C   0  0  0  0  0  0  0  0  0  0  0  0
    1.1301    4.4959  -18.9619 C   0  0  0  0  0  0  0  0  0  0  0  0
    0.5958    5.0613  -20.1275 C   0  0  0  0  0  0  0  0  0  0  0  0
    2.1390    2.7641  -20.3426 C   0  0  0  0  0  0  0  0  0  0  0  0
    1.9047    3.3362  -19.1023 C   0  0  0  0  0  0  0  0  0  0  0  0
    1.8072    2.6087  -22.6958 N   0  0  0  0  0  0  0  0  0  0  0  0
    0.9016    1.8945  -23.4147 C   0  0  0  0  0  0  0  0  0  0  0  0
   -0.2955    1.8263  -23.1923 O   0  0  0  0  0  0  0  0  0  0  0  0
    2.7260    2.6398  -23.0481 H   0  0  0  0  0  0  0  0  0  0  0  0
    1.5279    1.2917  -24.4325 O   0  0  0  0  0  0  0  0  0  0  0  0
    2.6695    0.4271  -24.0630 C   0  0  0  0  0  0  0  0  0  0  0  0
   -0.2084    9.8938  -17.9600 C   0  0  0  0  0  0  0  0  0  0  0  0
   -0.7142    9.0484  -16.9774 N   0  0  0  0  0  0  0  0  0  0  0  0
    1.0108   10.0327  -18.1583 O   0  0  0  0  0  0  0  0  0  0  0  0
   -1.6795    8.8642  -16.9180 H   0  0  0  0  0  0  0  0  0  0  0  0
   -1.1670   10.5161  -18.8678 C   0  0  0  0  0  0  0  0  0  0  0  0
   -0.9649   10.8683  -20.1097 C   0  0  0  0  0  0  0  0  0  0  0  0
   -4.0427   12.7121  -22.4090 C   0  0  0  0  0  0  0  0  0  0  0  0
   -2.7511   12.6930  -22.9139 C   0  0  0  0  0  0  0  0  0  0  0  0
   -1.9872   11.4869  -20.9495 C   0  0  0  0  0  0  0  0  0  0  0  0
   -1.7182   12.0746  -22.1983 C   0  0  0  0  0  0  0  0  0  0  0  0
   -4.2974   12.1197  -21.1937 C   0  0  0  0  0  0  0  0  0  0  0  0
   -3.3007   11.5198  -20.4573 C   0  0  0  0  0  0  0  0  0  0  0  0
   -5.9260   12.1084  -20.5859 Cl  0  0  0  0  0  0  0  0  0  0  0  0
   -0.4119   11.9920  -22.7872 N   0  0  0  0  0  0  0  0  0  0  0  0
    0.5910   12.8712  -22.8639 C   0  0  0  0  0  0  0  0  0  0  0  0
    1.5884   12.3487  -23.5240 N   0  0  0  0  0  0  0  0  0  0  0  0
    1.1837   11.1017  -23.8658 N   0  0  0  0  0  0  0  0  0  0  0  0
   -0.0152   10.8611  -23.4251 N   0  0  0  0  0  0  0  0  0  0  0  0
   -0.1441    8.7867  -14.5882 C   0  0  0  0  0  0  0  0  0  0  0  0
    0.7350    9.8323  -13.9245 C   0  0  0  0  0  0  0  0  0  0  0  0
    1.3868   10.8031  -14.7165 C   0  0  0  0  0  0  0  0  0  0  0  0
    2.2114   11.7734  -14.1275 C   0  0  0  0  0  0  0  0  0  0  0  0
    2.3756   11.7975  -12.7314 C   0  0  0  0  0  0  0  0  0  0  0  0
    1.7286   10.8579  -11.9477 C   0  0  0  0  0  0  0  0  0  0  0  0
    0.9342    9.8711  -12.5341 C   0  0  0  0  0  0  0  0  0  0  0  0
 34 35  2  0  0  0
 34 33  1  0  0  0
 27 26  2  0  0  0
 27 29  1  0  0  0
 26 30  1  0  0  0
 35 36  1  0  0  0
 33 29  1  0  0  0
 33 37  1  0  0  0
 32 30  1  0  0  0
 29 28  2  0  0  0
 30 31  2  0  0  0
 36 37  2  0  0  0
 31 28  1  0  0  0
 28 25  1  0  0  0
 25 24  2  0  0  0
 24 20  1  0  0  0
 21 20  1  0  0  0
 21  1  1  0  0  0
 38  1  1  0  0  0
 38 39  1  0  0  0
 20 22  2  0  0  0
  3  4  2  0  0  0
  3  2  1  0  0  0
 40 39  2  0  0  0
 40 41  1  0  0  0
  1  2  1  0  0  0
  4  5  1  0  0  0
 39 44  1  0  0  0
  2  7  2  0  0  0
 41 42  2  0  0  0
  5  6  2  0  0  0
 44 43  2  0  0  0
  7  6  1  0  0  0
 42 43  1  0  0  0
  6 10  1  0  0  0
 10 11  2  0  0  0
 10 13  1  0  0  0
 11  9  1  0  0  0
 13 12  2  0  0  0
  9  8  2  0  0  0
 12  8  1  0  0  0
  8 14  1  0  0  0
 14 15  1  0  0  0
 16 15  2  0  0  0
 15 18  1  0  0  0
 18 19  1  0  0  0
 14 17  1  0  0  0
 21 23  1  0  0  0
M  END
> <minimizedAffinity>
-8.76108

$$$$
5EXN_5SU_A_302


 44 48  0  0  0  0  0  0  0  0999 V2000
    2.4646    5.1789  -19.4413 C   0  0  0  0  0  0  0  0  0  0  0  0
    1.2333    5.2720  -20.2829 C   0  0  0  0  0  0  0  0  0  0  0  0
    0.9316    4.1919  -21.0214 N   0  0  0  0  0  0  0  0  0  0  0  0
   -0.1510    4.2758  -21.8115 C   0  0  0  0  0  0  0  0  0  0  0  0
   -0.9353    5.4087  -21.9200 C   0  0  0  0  0  0  0  0  0  0  0  0
   -0.6168    6.5291  -21.1433 C   0  0  0  0  0  0  0  0  0  0  0  0
    0.4962    6.4228  -20.3069 C   0  0  0  0  0  0  0  0  0  0  0  0
   -3.0852   10.0671  -21.2719 C   0  0  0  0  0  0  0  0  0  0  0  0
   -2.9565    9.3313  -20.0847 C   0  0  0  0  0  0  0  0  0  0  0  0
   -1.4371    7.7734  -21.1704 C   0  0  0  0  0  0  0  0  0  0  0  0
   -2.1290    8.2192  -20.0363 C   0  0  0  0  0  0  0  0  0  0  0  0
   -2.3655    9.6589  -22.3978 C   0  0  0  0  0  0  0  0  0  0  0  0
   -1.5763    8.5208  -22.3479 C   0  0  0  0  0  0  0  0  0  0  0  0
   -3.9162   11.1992  -21.4520 N   0  0  0  0  0  0  0  0  0  0  0  0
   -3.6148   12.4853  -21.1322 C   0  0  0  0  0  0  0  0  0  0  0  0
   -2.5370   12.8890  -20.7290 O   0  0  0  0  0  0  0  0  0  0  0  0
   -4.8025   11.0385  -21.8494 H   0  0  0  0  0  0  0  0  0  0  0  0
   -4.6869   13.2547  -21.3557 O   0  0  0  0  0  0  0  0  0  0  0  0
   -5.1042   13.3806  -22.7690 C   0  0  0  0  0  0  0  0  0  0  0  0
    3.0611    7.1792  -18.1582 C   0  0  0  0  0  0  0  0  0  0  0  0
    2.3870    5.9630  -18.2097 N   0  0  0  0  0  0  0  0  0  0  0  0
    3.5967    7.6884  -19.1575 O   0  0  0  0  0  0  0  0  0  0  0  0
    1.8709    5.6387  -17.4366 H   0  0  0  0  0  0  0  0  0  0  0  0
    2.9978    7.9286  -16.9074 C   0  0  0  0  0  0  0  0  0  0  0  0
    2.9505    9.2267  -16.7659 C   0  0  0  0  0  0  0  0  0  0  0  0
    2.9092   11.2767  -13.0303 C   0  0  0  0  0  0  0  0  0  0  0  0
    1.7197   10.7618  -13.5236 C   0  0  0  0  0  0  0  0  0  0  0  0
    2.8868    9.8950  -15.4688 C   0  0  0  0  0  0  0  0  0  0  0  0
    1.6983   10.0608  -14.7359 C   0  0  0  0  0  0  0  0  0  0  0  0
    4.0686   11.0944  -13.7479 C   0  0  0  0  0  0  0  0  0  0  0  0
    4.0780   10.4260  -14.9516 C   0  0  0  0  0  0  0  0  0  0  0  0
    5.5638   11.7040  -13.1037 Cl  0  0  0  0  0  0  0  0  0  0  0  0
    0.4700    9.4626  -15.1758 N   0  0  0  0  0  0  0  0  0  0  0  0
   -0.2317    8.4221  -14.7176 C   0  0  0  0  0  0  0  0  0  0  0  0
   -1.2851    8.2347  -15.4650 N   0  0  0  0  0  0  0  0  0  0  0  0
   -1.2291    9.1958  -16.4184 N   0  0  0  0  0  0  0  0  0  0  0  0
   -0.1847    9.9532  -16.2592 N   0  0  0  0  0  0  0  0  0  0  0  0
    2.8311    3.7201  -19.1448 C   0  0  0  0  0  0  0  0  0  0  0  0
    3.9860    3.1606  -19.9568 C   0  0  0  0  0  0  0  0  0  0  0  0
    5.3098    3.5419  -19.6453 C   0  0  0  0  0  0  0  0  0  0  0  0
    6.3924    3.0458  -20.3869 C   0  0  0  0  0  0  0  0  0  0  0  0
    6.1638    2.1409  -21.4384 C   0  0  0  0  0  0  0  0  0  0  0  0
    4.8703    1.7518  -21.7403 C   0  0  0  0  0  0  0  0  0  0  0  0
    3.7888    2.2696  -21.0254 C   0  0  0  0  0  0  0  0  0  0  0  0
 34 35  2  0  0  0
 34 33  1  0  0  0
 27 26  2  0  0  0
 27 29  1  0  0  0
 26 30  1  0  0  0
 35 36  1  0  0  0
 33 29  1  0  0  0
 33 37  1  0  0  0
 32 30  1  0  0  0
 29 28  2  0  0  0
 30 31  2  0  0  0
 36 37  2  0  0  0
 31 28  1  0  0  0
 28 25  1  0  0  0
 25 24  2  0  0  0
 24 20  1  0  0  0
 21 20  1  0  0  0
 21  1  1  0  0  0
 38  1  1  0  0  0
 38 39  1  0  0  0
 20 22  2  0  0  0
  3  4  2  0  0  0
  3  2  1  0  0  0
 40 39  2  0  0  0
 40 41  1  0  0  0
  1  2  1  0  0  0
  4  5  1  0  0  0
 39 44  1  0  0  0
  2  7  2  0  0  0
 41 42  2  0  0  0
  5  6  2  0  0  0
 44 43  2  0  0  0
  7  6  1  0  0  0
 42 43  1  0  0  0
  6 10  1  0  0  0
 10 11  2  0  0  0
 10 13  1  0  0  0
 11  9  1  0  0  0
 13 12  2  0  0  0
  9  8  2  0  0  0
 12  8  1  0  0  0
  8 14  1  0  0  0
 14 15  1  0  0  0
 16 15  2  0  0  0
 15 18  1  0  0  0
 18 19  1  0  0  0
 14 17  1  0  0  0
 21 23  1  0  0  0
M  END
> <minimizedAffinity>
-8.51298

$$$$
5EXN_5SU_A_302


 44 48  0  0  0  0  0  0  0  0999 V2000
   -0.9480    9.1780  -18.5462 C   0  0  0  0  0  0  0  0  0  0  0  0
   -0.5158    8.8605  -17.1513 C   0  0  0  0  0  0  0  0  0  0  0  0
   -1.0538    7.7634  -16.5946 N   0  0  0  0  0  0  0  0  0  0  0  0
   -0.7036    7.4874  -15.3280 C   0  0  0  0  0  0  0  0  0  0  0  0
    0.1437    8.2799  -14.5766 C   0  0  0  0  0  0  0  0  0  0  0  0
    0.7041    9.4196  -15.1657 C   0  0  0  0  0  0  0  0  0  0  0  0
    0.3527    9.6838  -16.4910 C   0  0  0  0  0  0  0  0  0  0  0  0
    3.4651   11.8968  -12.9596 C   0  0  0  0  0  0  0  0  0  0  0  0
    3.9356   10.9731  -13.9046 C   0  0  0  0  0  0  0  0  0  0  0  0
    1.6597   10.3016  -14.4374 C   0  0  0  0  0  0  0  0  0  0  0  0
    3.0430   10.2091  -14.6416 C   0  0  0  0  0  0  0  0  0  0  0  0
    2.0861   12.0306  -12.7784 C   0  0  0  0  0  0  0  0  0  0  0  0
    1.2068   11.2301  -13.4902 C   0  0  0  0  0  0  0  0  0  0  0  0
    4.2748   12.7105  -12.1307 N   0  0  0  0  0  0  0  0  0  0  0  0
    4.3655   12.6508  -10.7760 C   0  0  0  0  0  0  0  0  0  0  0  0
    3.8382   11.8170  -10.0592 O   0  0  0  0  0  0  0  0  0  0  0  0
    4.8283   13.3884  -12.5816 H   0  0  0  0  0  0  0  0  0  0  0  0
    5.1538   13.6434  -10.3460 O   0  0  0  0  0  0  0  0  0  0  0  0
    4.5970   15.0076  -10.4737 C   0  0  0  0  0  0  0  0  0  0  0  0
    0.1904    7.5336  -19.9617 C   0  0  0  0  0  0  0  0  0  0  0  0
   -1.0006    8.0061  -19.4189 N   0  0  0  0  0  0  0  0  0  0  0  0
    1.3012    7.9732  -19.6185 O   0  0  0  0  0  0  0  0  0  0  0  0
   -1.8568    7.5625  -19.6173 H   0  0  0  0  0  0  0  0  0  0  0  0
    0.1098    6.3837  -20.8569 C   0  0  0  0  0  0  0  0  0  0  0  0
    0.9942    5.4331  -21.0032 C   0  0  0  0  0  0  0  0  0  0  0  0
    0.4801    2.0580  -23.5534 C   0  0  0  0  0  0  0  0  0  0  0  0
    0.2154    3.3228  -24.0567 C   0  0  0  0  0  0  0  0  0  0  0  0
    0.8297    4.3133  -21.9263 C   0  0  0  0  0  0  0  0  0  0  0  0
    0.3964    4.4577  -23.2562 C   0  0  0  0  0  0  0  0  0  0  0  0
    0.9191    1.9300  -22.2558 C   0  0  0  0  0  0  0  0  0  0  0  0
    1.0896    3.0241  -21.4376 C   0  0  0  0  0  0  0  0  0  0  0  0
    1.2910    0.3459  -21.6438 Cl  0  0  0  0  0  0  0  0  0  0  0  0
    0.2010    5.7578  -23.8321 N   0  0  0  0  0  0  0  0  0  0  0  0
    1.0591    6.6536  -24.3280 C   0  0  0  0  0  0  0  0  0  0  0  0
    0.4113    7.7155  -24.7234 N   0  0  0  0  0  0  0  0  0  0  0  0
   -0.8936    7.4632  -24.4608 N   0  0  0  0  0  0  0  0  0  0  0  0
   -1.0458    6.2857  -23.9315 N   0  0  0  0  0  0  0  0  0  0  0  0
   -2.2798    9.9372  -18.5606 C   0  0  0  0  0  0  0  0  0  0  0  0
   -2.4355   10.9583  -19.6739 C   0  0  0  0  0  0  0  0  0  0  0  0
   -1.2959   11.4032  -20.3797 C   0  0  0  0  0  0  0  0  0  0  0  0
   -1.4131   12.3527  -21.4057 C   0  0  0  0  0  0  0  0  0  0  0  0
   -2.6801   12.8529  -21.7543 C   0  0  0  0  0  0  0  0  0  0  0  0
   -3.8029   12.4109  -21.0765 C   0  0  0  0  0  0  0  0  0  0  0  0
   -3.6852   11.4911  -20.0330 C   0  0  0  0  0  0  0  0  0  0  0  0
 34 35  2  0  0  0
 34 33  1  0  0  0
 27 26  2  0  0  0
 27 29  1  0  0  0
 26 30  1  0  0  0
 35 36  1  0  0  0
 33 29  1  0  0  0
 33 37  1  0  0  0
 32 30  1  0  0  0
 29 28  2  0  0  0
 30 31  2  0  0  0
 36 37  2  0  0  0
 31 28  1  0  0  0
 28 25  1  0  0  0
 25 24  2  0  0  0
 24 20  1  0  0  0
 21 20  1  0  0  0
 21  1  1  0  0  0
 38  1  1  0  0  0
 38 39  1  0  0  0
 20 22  2  0  0  0
  3  4  2  0  0  0
  3  2  1  0  0  0
 40 39  2  0  0  0
 40 41  1  0  0  0
  1  2  1  0  0  0
  4  5  1  0  0  0
 39 44  1  0  0  0
  2  7  2  0  0  0
 41 42  2  0  0  0
  5  6  2  0  0  0
 44 43  2  0  0  0
  7  6  1  0  0  0
 42 43  1  0  0  0
  6 10  1  0  0  0
 10 11  2  0  0  0
 10 13  1  0  0  0
 11  9  1  0  0  0
 13 12  2  0  0  0
  9  8  2  0  0  0
 12  8  1  0  0  0
  8 14  1  0  0  0
 14 15  1  0  0  0
 16 15  2  0  0  0
 15 18  1  0  0  0
 18 19  1  0  0  0
 14 17  1  0  0  0
 21 23  1  0  0  0
M  END
> <minimizedAffinity>
-8.38035

$$$$
5EXN_5SU_A_302


 44 48  0  0  0  0  0  0  0  0999 V2000
    0.8465    8.7979  -15.9435 C   0  0  0  0  0  0  0  0  0  0  0  0
   -0.0847    8.7922  -17.1123 C   0  0  0  0  0  0  0  0  0  0  0  0
   -1.1540    9.5999  -17.0280 N   0  0  0  0  0  0  0  0  0  0  0  0
   -2.0192    9.5763  -18.0546 C   0  0  0  0  0  0  0  0  0  0  0  0
   -1.8788    8.7546  -19.1571 C   0  0  0  0  0  0  0  0  0  0  0  0
   -0.7588    7.9186  -19.2397 C   0  0  0  0  0  0  0  0  0  0  0  0
    0.1473    7.9690  -18.1786 C   0  0  0  0  0  0  0  0  0  0  0  0
   -0.0571    5.2614  -22.5674 C   0  0  0  0  0  0  0  0  0  0  0  0
   -1.3278    5.8159  -22.3545 C   0  0  0  0  0  0  0  0  0  0  0  0
   -0.5123    7.0351  -20.4146 C   0  0  0  0  0  0  0  0  0  0  0  0
   -1.5387    6.7024  -21.3088 C   0  0  0  0  0  0  0  0  0  0  0  0
    0.9857    5.6199  -21.7094 C   0  0  0  0  0  0  0  0  0  0  0  0
    0.7511    6.4728  -20.6425 C   0  0  0  0  0  0  0  0  0  0  0  0
    0.2742    4.3284  -23.5796 N   0  0  0  0  0  0  0  0  0  0  0  0
   -0.0146    3.0004  -23.5841 C   0  0  0  0  0  0  0  0  0  0  0  0
   -0.6964    2.4132  -22.7610 O   0  0  0  0  0  0  0  0  0  0  0  0
    0.7636    4.6772  -24.3594 H   0  0  0  0  0  0  0  0  0  0  0  0
    0.5482    2.4337  -24.6582 O   0  0  0  0  0  0  0  0  0  0  0  0
    1.4839    3.2889  -25.4199 C   0  0  0  0  0  0  0  0  0  0  0  0
    2.1047    6.8140  -15.2475 C   0  0  0  0  0  0  0  0  0  0  0  0
    1.9900    7.9018  -16.1076 N   0  0  0  0  0  0  0  0  0  0  0  0
    1.2049    6.4943  -14.4518 O   0  0  0  0  0  0  0  0  0  0  0  0
    2.6618    8.0639  -16.8088 H   0  0  0  0  0  0  0  0  0  0  0  0
    3.2720    5.9526  -15.4076 C   0  0  0  0  0  0  0  0  0  0  0  0
    3.4297    4.7417  -14.9428 C   0  0  0  0  0  0  0  0  0  0  0  0
    6.9989    2.5379  -15.6931 C   0  0  0  0  0  0  0  0  0  0  0  0
    6.4611    2.5245  -14.4149 C   0  0  0  0  0  0  0  0  0  0  0  0
    4.6372    3.9476  -15.1535 C   0  0  0  0  0  0  0  0  0  0  0  0
    5.2759    3.2166  -14.1361 C   0  0  0  0  0  0  0  0  0  0  0  0
    6.3567    3.2431  -16.6845 C   0  0  0  0  0  0  0  0  0  0  0  0
    5.2003    3.9487  -16.4386 C   0  0  0  0  0  0  0  0  0  0  0  0
    7.0115    3.2209  -18.2947 Cl  0  0  0  0  0  0  0  0  0  0  0  0
    4.6956    3.1105  -12.8276 N   0  0  0  0  0  0  0  0  0  0  0  0
    3.8208    2.2463  -12.3054 C   0  0  0  0  0  0  0  0  0  0  0  0
    3.5686    2.5663  -11.0655 N   0  0  0  0  0  0  0  0  0  0  0  0
    4.3162    3.6683  -10.8160 N   0  0  0  0  0  0  0  0  0  0  0  0
    5.0105    4.0098  -11.8605 N   0  0  0  0  0  0  0  0  0  0  0  0
    1.3044   10.2199  -15.5994 C   0  0  0  0  0  0  0  0  0  0  0  0
    1.5163   10.4963  -14.1212 C   0  0  0  0  0  0  0  0  0  0  0  0
    0.7770    9.7710  -13.1608 C   0  0  0  0  0  0  0  0  0  0  0  0
    0.9484   10.0148  -11.7900 C   0  0  0  0  0  0  0  0  0  0  0  0
    1.8818   10.9751  -11.3617 C   0  0  0  0  0  0  0  0  0  0  0  0
    2.6200   11.6797  -12.2968 C   0  0  0  0  0  0  0  0  0  0  0  0
    2.4275   11.4624  -13.6623 C   0  0  0  0  0  0  0  0  0  0  0  0
 34 35  2  0  0  0
 34 33  1  0  0  0
 27 26  2  0  0  0
 27 29  1  0  0  0
 26 30  1  0  0  0
 35 36  1  0  0  0
 33 29  1  0  0  0
 33 37  1  0  0  0
 32 30  1  0  0  0
 29 28  2  0  0  0
 30 31  2  0  0  0
 36 37  2  0  0  0
 31 28  1  0  0  0
 28 25  1  0  0  0
 25 24  2  0  0  0
 24 20  1  0  0  0
 21 20  1  0  0  0
 21  1  1  0  0  0
 38  1  1  0  0  0
 38 39  1  0  0  0
 20 22  2  0  0  0
  3  4  2  0  0  0
  3  2  1  0  0  0
 40 39  2  0  0  0
 40 41  1  0  0  0
  1  2  1  0  0  0
  4  5  1  0  0  0
 39 44  1  0  0  0
  2  7  2  0  0  0
 41 42  2  0  0  0
  5  6  2  0  0  0
 44 43  2  0  0  0
  7  6  1  0  0  0
 42 43  1  0  0  0
  6 10  1  0  0  0
 10 11  2  0  0  0
 10 13  1  0  0  0
 11  9  1  0  0  0
 13 12  2  0  0  0
  9  8  2  0  0  0
 12  8  1  0  0  0
  8 14  1  0  0  0
 14 15  1  0  0  0
 16 15  2  0  0  0
 15 18  1  0  0  0
 18 19  1  0  0  0
 14 17  1  0  0  0
 21 23  1  0  0  0
M  END
> <minimizedAffinity>
-8.36869

$$$$
5EXN_5SU_A_302


 44 48  0  0  0  0  0  0  0  0999 V2000
    2.0565    8.7374  -15.0106 C   0  0  0  0  0  0  0  0  0  0  0  0
    2.3983    7.2941  -15.1926 C   0  0  0  0  0  0  0  0  0  0  0  0
    2.9857    6.6835  -14.1510 N   0  0  0  0  0  0  0  0  0  0  0  0
    3.3331    5.3967  -14.3143 C   0  0  0  0  0  0  0  0  0  0  0  0
    3.1451    4.6950  -15.4902 C   0  0  0  0  0  0  0  0  0  0  0  0
    2.5279    5.3373  -16.5702 C   0  0  0  0  0  0  0  0  0  0  0  0
    2.1484    6.6677  -16.3815 C   0  0  0  0  0  0  0  0  0  0  0  0
    1.6806    3.2155  -20.2318 C   0  0  0  0  0  0  0  0  0  0  0  0
    0.7889    4.1836  -19.7470 C   0  0  0  0  0  0  0  0  0  0  0  0
    2.2503    4.6380  -17.8569 C   0  0  0  0  0  0  0  0  0  0  0  0
    1.0852    4.8931  -18.5926 C   0  0  0  0  0  0  0  0  0  0  0  0
    2.8673    2.9833  -19.5317 C   0  0  0  0  0  0  0  0  0  0  0  0
    3.1307    3.6682  -18.3560 C   0  0  0  0  0  0  0  0  0  0  0  0
    1.4774    2.4108  -21.3789 N   0  0  0  0  0  0  0  0  0  0  0  0
    1.0244    1.1297  -21.4006 C   0  0  0  0  0  0  0  0  0  0  0  0
    0.6226    0.4960  -20.4393 O   0  0  0  0  0  0  0  0  0  0  0  0
    1.6853    2.8211  -22.2493 H   0  0  0  0  0  0  0  0  0  0  0  0
    1.0619    0.6733  -22.6583 O   0  0  0  0  0  0  0  0  0  0  0  0
    0.8573    1.6867  -23.7160 C   0  0  0  0  0  0  0  0  0  0  0  0
    1.7744   10.3559  -13.1929 C   0  0  0  0  0  0  0  0  0  0  0  0
    2.4762    9.2749  -13.7173 N   0  0  0  0  0  0  0  0  0  0  0  0
    0.7246   10.7817  -13.7042 O   0  0  0  0  0  0  0  0  0  0  0  0
    3.2360    8.8820  -13.2299 H   0  0  0  0  0  0  0  0  0  0  0  0
    2.2322   10.8976  -11.9172 C   0  0  0  0  0  0  0  0  0  0  0  0
    3.0883   11.8673  -11.7324 C   0  0  0  0  0  0  0  0  0  0  0  0
    4.1804   13.1246   -7.8100 C   0  0  0  0  0  0  0  0  0  0  0  0
    4.9631   13.5248   -8.8827 C   0  0  0  0  0  0  0  0  0  0  0  0
    3.4896   12.3487  -10.4133 C   0  0  0  0  0  0  0  0  0  0  0  0
    4.6219   13.1517  -10.1887 C   0  0  0  0  0  0  0  0  0  0  0  0
    3.0658   12.3526   -8.0432 C   0  0  0  0  0  0  0  0  0  0  0  0
    2.7135   11.9540   -9.3131 C   0  0  0  0  0  0  0  0  0  0  0  0
    2.0640   11.8903   -6.6998 Cl  0  0  0  0  0  0  0  0  0  0  0  0
    5.3991   13.6553  -11.2853 N   0  0  0  0  0  0  0  0  0  0  0  0
    6.2246   13.0536  -12.1462 C   0  0  0  0  0  0  0  0  0  0  0  0
    6.7281   13.9351  -12.9666 N   0  0  0  0  0  0  0  0  0  0  0  0
    6.1923   15.1230  -12.5962 N   0  0  0  0  0  0  0  0  0  0  0  0
    5.3815   14.9780  -11.5907 N   0  0  0  0  0  0  0  0  0  0  0  0
    2.5963    9.5905  -16.1644 C   0  0  0  0  0  0  0  0  0  0  0  0
    1.6408    9.7927  -17.3274 C   0  0  0  0  0  0  0  0  0  0  0  0
    2.1510    9.9165  -18.6385 C   0  0  0  0  0  0  0  0  0  0  0  0
    1.2891   10.1133  -19.7279 C   0  0  0  0  0  0  0  0  0  0  0  0
   -0.1004   10.1656  -19.5197 C   0  0  0  0  0  0  0  0  0  0  0  0
   -0.6083   10.0309  -18.2393 C   0  0  0  0  0  0  0  0  0  0  0  0
    0.2490    9.8683  -17.1497 C   0  0  0  0  0  0  0  0  0  0  0  0
 34 35  2  0  0  0
 34 33  1  0  0  0
 27 26  2  0  0  0
 27 29  1  0  0  0
 26 30  1  0  0  0
 35 36  1  0  0  0
 33 29  1  0  0  0
 33 37  1  0  0  0
 32 30  1  0  0  0
 29 28  2  0  0  0
 30 31  2  0  0  0
 36 37  2  0  0  0
 31 28  1  0  0  0
 28 25  1  0  0  0
 25 24  2  0  0  0
 24 20  1  0  0  0
 21 20  1  0  0  0
 21  1  1  0  0  0
 38  1  1  0  0  0
 38 39  1  0  0  0
 20 22  2  0  0  0
  3  4  2  0  0  0
  3  2  1  0  0  0
 40 39  2  0  0  0
 40 41  1  0  0  0
  1  2  1  0  0  0
  4  5  1  0  0  0
 39 44  1  0  0  0
  2  7  2  0  0  0
 41 42  2  0  0  0
  5  6  2  0  0  0
 44 43  2  0  0  0
  7  6  1  0  0  0
 42 43  1  0  0  0
  6 10  1  0  0  0
 10 11  2  0  0  0
 10 13  1  0  0  0
 11  9  1  0  0  0
 13 12  2  0  0  0
  9  8  2  0  0  0
 12  8  1  0  0  0
  8 14  1  0  0  0
 14 15  1  0  0  0
 16 15  2  0  0  0
 15 18  1  0  0  0
 18 19  1  0  0  0
 14 17  1  0  0  0
 21 23  1  0  0  0
M  END
> <minimizedAffinity>
-8.00985

$$$$
