2P53_NNG_A_411


 27 27  0  0  0  0  0  0  0  0999 V2000
  -35.4454   15.2359  -11.8281 C   0  0  0  0  0  0  0  0  0  0  0  0
  -35.0192   15.3502  -10.3442 C   0  0  0  0  0  0  0  0  0  0  0  0
  -34.6519   16.8264  -10.0130 C   0  0  0  0  0  0  0  0  0  0  0  0
  -33.6111   17.3632  -11.0179 C   0  0  0  0  0  0  0  0  0  0  0  0
  -34.1348   17.1450  -12.4668 C   0  0  0  0  0  0  0  0  0  0  0  0
  -36.6575   15.9679  -12.0579 O   0  0  0  0  0  0  0  0  0  0  0  0
  -34.0999   16.8983   -8.6945 O   0  0  0  0  0  0  0  0  0  0  0  0
  -33.4227   18.7700  -10.7904 O   0  0  0  0  0  0  0  0  0  0  0  0
  -34.3957   15.7341  -12.6969 O   0  0  0  0  0  0  0  0  0  0  0  0
  -36.5113   16.9060  -11.8589 H   0  0  0  0  0  0  0  0  0  0  0  0
  -33.2958   16.3576   -8.6507 H   0  0  0  0  0  0  0  0  0  0  0  0
  -34.2672   19.2326  -10.9083 H   0  0  0  0  0  0  0  0  0  0  0  0
  -36.1476   14.9421   -9.5217 N   0  0  0  0  0  0  0  0  0  0  0  0
  -36.9141   14.7501  -10.1667 H   0  0  0  0  0  0  0  0  0  0  0  0
  -36.0751   13.6688   -8.5137 P   0  0  0  0  0  0  0  0  0  0  0  0
  -35.8799   14.1680   -6.8147 C   0  0  0  0  0  0  0  0  0  0  0  0
  -37.3801   12.9443   -8.6163 O   0  0  0  0  0  0  0  0  0  0  0  0
  -34.9140   12.6965   -9.0520 O   0  0  0  0  0  0  0  0  0  0  0  0
  -34.8443   11.9234   -8.4704 H   0  0  0  0  0  0  0  0  0  0  0  0
  -33.0775   17.6243  -13.4802 C   0  0  0  0  0  0  0  0  0  0  0  0
  -33.0790   19.0545  -13.5213 O   0  0  0  0  0  0  0  0  0  0  0  0
  -31.7605   19.5726  -14.3043 P   0  0  0  0  0  0  0  0  0  0  0  0
  -30.5747   19.1901  -13.5149 O   0  0  0  0  0  0  0  0  0  0  0  0
  -31.6866   18.8824  -15.7551 O   0  0  0  0  0  0  0  0  0  0  0  0
  -31.7927   21.1769  -14.4851 O   0  0  0  0  0  0  0  0  0  0  0  0
  -31.6669   17.9179  -15.6536 H   0  0  0  0  0  0  0  0  0  0  0  0
  -31.8374   21.5997  -13.6132 H   0  0  0  0  0  0  0  0  0  0  0  0
  1  2  1  0  0  0
  1  6  1  0  0  0
  1  9  1  0  0  0
  2 13  1  0  0  0
  2  3  1  0  0  0
  3  7  1  0  0  0
  3  4  1  0  0  0
  4  5  1  0  0  0
  4  8  1  0  0  0
  5  9  1  0  0  0
  5 20  1  0  0  0
 20 21  1  0  0  0
 15 16  1  0  0  0
 15 17  2  0  0  0
 15 18  1  0  0  0
 15 13  1  0  0  0
 21 22  1  0  0  0
 22 23  2  0  0  0
 22 24  1  0  0  0
 22 25  1  0  0  0
 13 14  1  0  0  0
  6 10  1  0  0  0
  7 11  1  0  0  0
  8 12  1  0  0  0
 18 19  1  0  0  0
 24 26  1  0  0  0
 25 27  1  0  0  0
M  END
> <minimizedAffinity>
-8.76066

$$$$
2P53_NNG_A_411


 27 27  0  0  0  0  0  0  0  0999 V2000
  -33.3361   18.2794  -10.7742 C   0  0  0  0  0  0  0  0  0  0  0  0
  -33.4753   17.6594  -12.1859 C   0  0  0  0  0  0  0  0  0  0  0  0
  -34.7988   16.8446  -12.2763 C   0  0  0  0  0  0  0  0  0  0  0  0
  -34.8859   15.8249  -11.1213 C   0  0  0  0  0  0  0  0  0  0  0  0
  -34.6814   16.5630   -9.7668 C   0  0  0  0  0  0  0  0  0  0  0  0
  -34.3703   19.2477  -10.5493 O   0  0  0  0  0  0  0  0  0  0  0  0
  -34.8422   16.1378  -13.5199 O   0  0  0  0  0  0  0  0  0  0  0  0
  -36.1865   15.2127  -11.1342 O   0  0  0  0  0  0  0  0  0  0  0  0
  -33.3986   17.2456   -9.7582 O   0  0  0  0  0  0  0  0  0  0  0  0
  -35.2364   18.8142  -10.6027 H   0  0  0  0  0  0  0  0  0  0  0  0
  -34.0922   15.5246  -13.5696 H   0  0  0  0  0  0  0  0  0  0  0  0
  -36.8665   15.8959  -11.0257 H   0  0  0  0  0  0  0  0  0  0  0  0
  -33.5169   18.7477  -13.1505 N   0  0  0  0  0  0  0  0  0  0  0  0
  -33.9359   19.5411  -12.6653 H   0  0  0  0  0  0  0  0  0  0  0  0
  -32.1800   19.3177  -13.8786 P   0  0  0  0  0  0  0  0  0  0  0  0
  -32.0219   21.0836  -13.7042 C   0  0  0  0  0  0  0  0  0  0  0  0
  -31.0020   18.6970  -13.1964 O   0  0  0  0  0  0  0  0  0  0  0  0
  -32.2086   18.8063  -15.4020 O   0  0  0  0  0  0  0  0  0  0  0  0
  -31.4212   19.1304  -15.8667 H   0  0  0  0  0  0  0  0  0  0  0  0
  -34.7082   15.5452   -8.6101 C   0  0  0  0  0  0  0  0  0  0  0  0
  -34.4658   14.2347   -9.1304 O   0  0  0  0  0  0  0  0  0  0  0  0
  -35.3969   13.1646   -8.3508 P   0  0  0  0  0  0  0  0  0  0  0  0
  -36.7840   13.3280   -8.8248 O   0  0  0  0  0  0  0  0  0  0  0  0
  -34.8910   11.6720   -8.6718 O   0  0  0  0  0  0  0  0  0  0  0  0
  -35.3405   13.4084   -6.7555 O   0  0  0  0  0  0  0  0  0  0  0  0
  -34.9224   11.5189   -9.6291 H   0  0  0  0  0  0  0  0  0  0  0  0
  -35.6446   14.3074   -6.5549 H   0  0  0  0  0  0  0  0  0  0  0  0
  1  2  1  0  0  0
  1  6  1  0  0  0
  1  9  1  0  0  0
  2 13  1  0  0  0
  2  3  1  0  0  0
  3  7  1  0  0  0
  3  4  1  0  0  0
  4  5  1  0  0  0
  4  8  1  0  0  0
  5  9  1  0  0  0
  5 20  1  0  0  0
 20 21  1  0  0  0
 15 16  1  0  0  0
 15 17  2  0  0  0
 15 18  1  0  0  0
 15 13  1  0  0  0
 21 22  1  0  0  0
 22 23  2  0  0  0
 22 24  1  0  0  0
 22 25  1  0  0  0
 13 14  1  0  0  0
  6 10  1  0  0  0
  7 11  1  0  0  0
  8 12  1  0  0  0
 18 19  1  0  0  0
 24 26  1  0  0  0
 25 27  1  0  0  0
M  END
> <minimizedAffinity>
-8.75573

$$$$
2P53_NNG_A_411


 27 27  0  0  0  0  0  0  0  0999 V2000
  -33.1565   15.8713  -12.6194 C   0  0  0  0  0  0  0  0  0  0  0  0
  -33.3823   17.3964  -12.7589 C   0  0  0  0  0  0  0  0  0  0  0  0
  -33.6856   18.0147  -11.3627 C   0  0  0  0  0  0  0  0  0  0  0  0
  -34.8434   17.2594  -10.6767 C   0  0  0  0  0  0  0  0  0  0  0  0
  -34.5176   15.7382  -10.6445 C   0  0  0  0  0  0  0  0  0  0  0  0
  -31.9769   15.6091  -11.8465 O   0  0  0  0  0  0  0  0  0  0  0  0
  -34.0584   19.3878  -11.5176 O   0  0  0  0  0  0  0  0  0  0  0  0
  -34.9838   17.7412   -9.3296 O   0  0  0  0  0  0  0  0  0  0  0  0
  -34.3056   15.2437  -11.9944 O   0  0  0  0  0  0  0  0  0  0  0  0
  -32.0846   15.9793  -10.9564 H   0  0  0  0  0  0  0  0  0  0  0  0
  -34.8559   19.4463  -12.0666 H   0  0  0  0  0  0  0  0  0  0  0  0
  -34.1569   17.5919   -8.8450 H   0  0  0  0  0  0  0  0  0  0  0  0
  -32.1603   17.9834  -13.2866 N   0  0  0  0  0  0  0  0  0  0  0  0
  -31.6355   17.2164  -13.7069 H   0  0  0  0  0  0  0  0  0  0  0  0
  -32.1734   19.1791  -14.3877 P   0  0  0  0  0  0  0  0  0  0  0  0
  -31.0760   20.5111  -13.9452 C   0  0  0  0  0  0  0  0  0  0  0  0
  -31.6762   18.6038  -15.6762 O   0  0  0  0  0  0  0  0  0  0  0  0
  -33.7035   19.6266  -14.5915 O   0  0  0  0  0  0  0  0  0  0  0  0
  -33.7469   20.3418  -15.2454 H   0  0  0  0  0  0  0  0  0  0  0  0
  -35.6934   14.9673  -10.0140 C   0  0  0  0  0  0  0  0  0  0  0  0
  -35.4568   14.8122   -8.6115 O   0  0  0  0  0  0  0  0  0  0  0  0
  -35.8578   13.3104   -8.1601 P   0  0  0  0  0  0  0  0  0  0  0  0
  -35.8537   13.2549   -6.6861 O   0  0  0  0  0  0  0  0  0  0  0  0
  -37.3276   12.9550   -8.7077 O   0  0  0  0  0  0  0  0  0  0  0  0
  -34.8040   12.2345   -8.7426 O   0  0  0  0  0  0  0  0  0  0  0  0
  -37.9660   13.5980   -8.3612 H   0  0  0  0  0  0  0  0  0  0  0  0
  -33.9148   12.4432   -8.4159 H   0  0  0  0  0  0  0  0  0  0  0  0
  1  2  1  0  0  0
  1  6  1  0  0  0
  1  9  1  0  0  0
  2 13  1  0  0  0
  2  3  1  0  0  0
  3  7  1  0  0  0
  3  4  1  0  0  0
  4  5  1  0  0  0
  4  8  1  0  0  0
  5  9  1  0  0  0
  5 20  1  0  0  0
 20 21  1  0  0  0
 15 16  1  0  0  0
 15 17  2  0  0  0
 15 18  1  0  0  0
 15 13  1  0  0  0
 21 22  1  0  0  0
 22 23  2  0  0  0
 22 24  1  0  0  0
 22 25  1  0  0  0
 13 14  1  0  0  0
  6 10  1  0  0  0
  7 11  1  0  0  0
  8 12  1  0  0  0
 18 19  1  0  0  0
 24 26  1  0  0  0
 25 27  1  0  0  0
M  END
> <minimizedAffinity>
-8.73331

$$$$
2P53_NNG_A_411


 27 27  0  0  0  0  0  0  0  0999 V2000
  -31.3839   18.9587  -12.8782 C   0  0  0  0  0  0  0  0  0  0  0  0
  -31.9997   18.5033  -14.2235 C   0  0  0  0  0  0  0  0  0  0  0  0
  -33.5493   18.4260  -14.0951 C   0  0  0  0  0  0  0  0  0  0  0  0
  -33.9490   17.5563  -12.8847 C   0  0  0  0  0  0  0  0  0  0  0  0
  -33.2282   18.0849  -11.6110 C   0  0  0  0  0  0  0  0  0  0  0  0
  -31.7865   20.3013  -12.5731 O   0  0  0  0  0  0  0  0  0  0  0  0
  -34.0999   17.8458  -15.2819 O   0  0  0  0  0  0  0  0  0  0  0  0
  -35.3710   17.6445  -12.6937 O   0  0  0  0  0  0  0  0  0  0  0  0
  -31.7885   18.0669  -11.8077 O   0  0  0  0  0  0  0  0  0  0  0  0
  -32.7521   20.3381  -12.4890 H   0  0  0  0  0  0  0  0  0  0  0  0
  -33.7495   16.9485  -15.3957 H   0  0  0  0  0  0  0  0  0  0  0  0
  -35.6192   18.5687  -12.5347 H   0  0  0  0  0  0  0  0  0  0  0  0
  -31.6522   19.4921  -15.2324 N   0  0  0  0  0  0  0  0  0  0  0  0
  -31.5443   20.3771  -14.7369 H   0  0  0  0  0  0  0  0  0  0  0  0
  -30.3417   19.3432  -16.1826 P   0  0  0  0  0  0  0  0  0  0  0  0
  -29.8113   20.9098  -16.8447 C   0  0  0  0  0  0  0  0  0  0  0  0
  -29.2289   18.8225  -15.3288 O   0  0  0  0  0  0  0  0  0  0  0  0
  -30.6817   18.2378  -17.2986 O   0  0  0  0  0  0  0  0  0  0  0  0
  -29.9171   18.1242  -17.8847 H   0  0  0  0  0  0  0  0  0  0  0  0
  -33.5743   17.1878  -10.4069 C   0  0  0  0  0  0  0  0  0  0  0  0
  -33.6308   15.8242  -10.8364 O   0  0  0  0  0  0  0  0  0  0  0  0
  -34.9361   15.1115  -10.1975 P   0  0  0  0  0  0  0  0  0  0  0  0
  -35.3518   15.8862   -9.0131 O   0  0  0  0  0  0  0  0  0  0  0  0
  -36.1281   15.0979  -11.2770 O   0  0  0  0  0  0  0  0  0  0  0  0
  -34.6050   13.5931   -9.7588 O   0  0  0  0  0  0  0  0  0  0  0  0
  -36.3322   16.0076  -11.5449 H   0  0  0  0  0  0  0  0  0  0  0  0
  -33.8863   13.5942   -9.1074 H   0  0  0  0  0  0  0  0  0  0  0  0
  1  2  1  0  0  0
  1  6  1  0  0  0
  1  9  1  0  0  0
  2 13  1  0  0  0
  2  3  1  0  0  0
  3  7  1  0  0  0
  3  4  1  0  0  0
  4  5  1  0  0  0
  4  8  1  0  0  0
  5  9  1  0  0  0
  5 20  1  0  0  0
 20 21  1  0  0  0
 15 16  1  0  0  0
 15 17  2  0  0  0
 15 18  1  0  0  0
 15 13  1  0  0  0
 21 22  1  0  0  0
 22 23  2  0  0  0
 22 24  1  0  0  0
 22 25  1  0  0  0
 13 14  1  0  0  0
  6 10  1  0  0  0
  7 11  1  0  0  0
  8 12  1  0  0  0
 18 19  1  0  0  0
 24 26  1  0  0  0
 25 27  1  0  0  0
M  END
> <minimizedAffinity>
-8.38647

$$$$
2P53_NNG_A_411


 27 27  0  0  0  0  0  0  0  0999 V2000
  -32.2872   16.9945  -11.6245 C   0  0  0  0  0  0  0  0  0  0  0  0
  -33.8252   17.0095  -11.4493 C   0  0  0  0  0  0  0  0  0  0  0  0
  -34.5156   16.9760  -12.8443 C   0  0  0  0  0  0  0  0  0  0  0  0
  -33.9662   18.1009  -13.7466 C   0  0  0  0  0  0  0  0  0  0  0  0
  -32.4140   18.0061  -13.7997 C   0  0  0  0  0  0  0  0  0  0  0  0
  -31.8623   15.7539  -12.2059 O   0  0  0  0  0  0  0  0  0  0  0  0
  -35.9260   17.1595  -12.6853 O   0  0  0  0  0  0  0  0  0  0  0  0
  -34.4952   17.9376  -15.0732 O   0  0  0  0  0  0  0  0  0  0  0  0
  -31.8612   18.1021  -12.4592 O   0  0  0  0  0  0  0  0  0  0  0  0
  -32.2653   15.6528  -13.0824 H   0  0  0  0  0  0  0  0  0  0  0  0
  -36.0954   18.0205  -12.2720 H   0  0  0  0  0  0  0  0  0  0  0  0
  -34.2301   17.0724  -15.4228 H   0  0  0  0  0  0  0  0  0  0  0  0
  -34.2020   15.8204  -10.7006 N   0  0  0  0  0  0  0  0  0  0  0  0
  -33.3374   15.3070  -10.5296 H   0  0  0  0  0  0  0  0  0  0  0  0
  -34.9717   15.8989   -9.2710 P   0  0  0  0  0  0  0  0  0  0  0  0
  -35.2212   14.2873   -8.5537 C   0  0  0  0  0  0  0  0  0  0  0  0
  -34.0958   16.6705   -8.3351 O   0  0  0  0  0  0  0  0  0  0  0  0
  -36.3253   16.7344   -9.5003 O   0  0  0  0  0  0  0  0  0  0  0  0
  -36.8105   16.8002   -8.6630 H   0  0  0  0  0  0  0  0  0  0  0  0
  -31.8507   19.1604  -14.6510 C   0  0  0  0  0  0  0  0  0  0  0  0
  -31.7051   18.7196  -16.0044 O   0  0  0  0  0  0  0  0  0  0  0  0
  -30.2430   19.1431  -16.5548 P   0  0  0  0  0  0  0  0  0  0  0  0
  -30.2391   20.6007  -16.7806 O   0  0  0  0  0  0  0  0  0  0  0  0
  -29.1236   18.7648  -15.4637 O   0  0  0  0  0  0  0  0  0  0  0  0
  -29.9076   18.3826  -17.9392 O   0  0  0  0  0  0  0  0  0  0  0  0
  -29.3193   19.2187  -14.6290 H   0  0  0  0  0  0  0  0  0  0  0  0
  -30.5794   18.6066  -18.6021 H   0  0  0  0  0  0  0  0  0  0  0  0
  1  2  1  0  0  0
  1  6  1  0  0  0
  1  9  1  0  0  0
  2 13  1  0  0  0
  2  3  1  0  0  0
  3  7  1  0  0  0
  3  4  1  0  0  0
  4  5  1  0  0  0
  4  8  1  0  0  0
  5  9  1  0  0  0
  5 20  1  0  0  0
 20 21  1  0  0  0
 15 16  1  0  0  0
 15 17  2  0  0  0
 15 18  1  0  0  0
 15 13  1  0  0  0
 21 22  1  0  0  0
 22 23  2  0  0  0
 22 24  1  0  0  0
 22 25  1  0  0  0
 13 14  1  0  0  0
  6 10  1  0  0  0
  7 11  1  0  0  0
  8 12  1  0  0  0
 18 19  1  0  0  0
 24 26  1  0  0  0
 25 27  1  0  0  0
M  END
> <minimizedAffinity>
-8.32030

$$$$
2P53_NNG_A_411


 27 27  0  0  0  0  0  0  0  0999 V2000
  -33.8227   16.1201  -10.2600 C   0  0  0  0  0  0  0  0  0  0  0  0
  -35.3441   16.2084  -10.5327 C   0  0  0  0  0  0  0  0  0  0  0  0
  -35.5929   16.5338  -12.0347 C   0  0  0  0  0  0  0  0  0  0  0  0
  -34.7964   17.7867  -12.4558 C   0  0  0  0  0  0  0  0  0  0  0  0
  -33.2980   17.5927  -12.0840 C   0  0  0  0  0  0  0  0  0  0  0  0
  -33.2516   15.0104  -10.9674 O   0  0  0  0  0  0  0  0  0  0  0  0
  -36.9866   16.7803  -12.2468 O   0  0  0  0  0  0  0  0  0  0  0  0
  -34.9119   17.9588  -13.8782 O   0  0  0  0  0  0  0  0  0  0  0  0
  -33.1642   17.3502  -10.6574 O   0  0  0  0  0  0  0  0  0  0  0  0
  -33.3790   15.1347  -11.9210 H   0  0  0  0  0  0  0  0  0  0  0  0
  -37.2659   17.5391  -11.7110 H   0  0  0  0  0  0  0  0  0  0  0  0
  -34.5599   17.1750  -14.3284 H   0  0  0  0  0  0  0  0  0  0  0  0
  -35.9307   14.9143  -10.2202 N   0  0  0  0  0  0  0  0  0  0  0  0
  -35.7005   14.3020  -11.0028 H   0  0  0  0  0  0  0  0  0  0  0  0
  -35.5503   14.0883   -8.8728 P   0  0  0  0  0  0  0  0  0  0  0  0
  -36.9920   13.4264   -8.0619 C   0  0  0  0  0  0  0  0  0  0  0  0
  -34.7014   12.9278   -9.2861 O   0  0  0  0  0  0  0  0  0  0  0  0
  -34.6631   15.0595   -7.9493 O   0  0  0  0  0  0  0  0  0  0  0  0
  -34.4182   14.5952   -7.1336 H   0  0  0  0  0  0  0  0  0  0  0  0
  -32.5030   18.8619  -12.4469 C   0  0  0  0  0  0  0  0  0  0  0  0
  -31.3339   18.4907  -13.1833 O   0  0  0  0  0  0  0  0  0  0  0  0
  -31.4091   19.1262  -14.6701 P   0  0  0  0  0  0  0  0  0  0  0  0
  -32.4756   18.4317  -15.4156 O   0  0  0  0  0  0  0  0  0  0  0  0
  -31.7547   20.6938  -14.5717 O   0  0  0  0  0  0  0  0  0  0  0  0
  -30.0040   18.9440  -15.4447 O   0  0  0  0  0  0  0  0  0  0  0  0
  -32.5982   20.8104  -14.1071 H   0  0  0  0  0  0  0  0  0  0  0  0
  -29.7894   18.0002  -15.5076 H   0  0  0  0  0  0  0  0  0  0  0  0
  1  2  1  0  0  0
  1  6  1  0  0  0
  1  9  1  0  0  0
  2 13  1  0  0  0
  2  3  1  0  0  0
  3  7  1  0  0  0
  3  4  1  0  0  0
  4  5  1  0  0  0
  4  8  1  0  0  0
  5  9  1  0  0  0
  5 20  1  0  0  0
 20 21  1  0  0  0
 15 16  1  0  0  0
 15 17  2  0  0  0
 15 18  1  0  0  0
 15 13  1  0  0  0
 21 22  1  0  0  0
 22 23  2  0  0  0
 22 24  1  0  0  0
 22 25  1  0  0  0
 13 14  1  0  0  0
  6 10  1  0  0  0
  7 11  1  0  0  0
  8 12  1  0  0  0
 18 19  1  0  0  0
 24 26  1  0  0  0
 25 27  1  0  0  0
M  END
> <minimizedAffinity>
-8.25297

$$$$
2P53_NNG_A_411


 27 27  0  0  0  0  0  0  0  0999 V2000
  -33.5490   18.4506  -14.6602 C   0  0  0  0  0  0  0  0  0  0  0  0
  -33.3529   17.8828  -13.2334 C   0  0  0  0  0  0  0  0  0  0  0  0
  -32.3819   18.7973  -12.4305 C   0  0  0  0  0  0  0  0  0  0  0  0
  -31.0711   19.0152  -13.2152 C   0  0  0  0  0  0  0  0  0  0  0  0
  -31.4065   19.5369  -14.6423 C   0  0  0  0  0  0  0  0  0  0  0  0
  -34.2140   19.7206  -14.6058 O   0  0  0  0  0  0  0  0  0  0  0  0
  -32.0717   18.1820  -11.1762 O   0  0  0  0  0  0  0  0  0  0  0  0
  -30.2722   19.9941  -12.5299 O   0  0  0  0  0  0  0  0  0  0  0  0
  -32.2699   18.5917  -15.3300 O   0  0  0  0  0  0  0  0  0  0  0  0
  -33.6707   20.3488  -14.1048 H   0  0  0  0  0  0  0  0  0  0  0  0
  -31.6402   17.3276  -11.3331 H   0  0  0  0  0  0  0  0  0  0  0  0
  -30.7645   20.8276  -12.4683 H   0  0  0  0  0  0  0  0  0  0  0  0
  -34.6502   17.8683  -12.5752 N   0  0  0  0  0  0  0  0  0  0  0  0
  -35.3332   18.1227  -13.2887 H   0  0  0  0  0  0  0  0  0  0  0  0
  -35.2380   16.5439  -11.8383 P   0  0  0  0  0  0  0  0  0  0  0  0
  -34.4202   15.0563  -12.3790 C   0  0  0  0  0  0  0  0  0  0  0  0
  -34.9680   16.6918  -10.3741 O   0  0  0  0  0  0  0  0  0  0  0  0
  -36.8298   16.5383  -12.0603 O   0  0  0  0  0  0  0  0  0  0  0  0
  -37.2133   15.7575  -11.6310 H   0  0  0  0  0  0  0  0  0  0  0  0
  -30.1077   19.7024  -15.4547 C   0  0  0  0  0  0  0  0  0  0  0  0
  -30.3740   20.5023  -16.6107 O   0  0  0  0  0  0  0  0  0  0  0  0
  -30.0674   19.6395  -17.9455 P   0  0  0  0  0  0  0  0  0  0  0  0
  -28.6360   19.7849  -18.2704 O   0  0  0  0  0  0  0  0  0  0  0  0
  -30.4034   18.0898  -17.6772 O   0  0  0  0  0  0  0  0  0  0  0  0
  -30.9574   20.1646  -19.1863 O   0  0  0  0  0  0  0  0  0  0  0  0
  -29.8718   17.7679  -16.9325 H   0  0  0  0  0  0  0  0  0  0  0  0
  -30.7594   21.0994  -19.3535 H   0  0  0  0  0  0  0  0  0  0  0  0
  1  2  1  0  0  0
  1  6  1  0  0  0
  1  9  1  0  0  0
  2 13  1  0  0  0
  2  3  1  0  0  0
  3  7  1  0  0  0
  3  4  1  0  0  0
  4  5  1  0  0  0
  4  8  1  0  0  0
  5  9  1  0  0  0
  5 20  1  0  0  0
 20 21  1  0  0  0
 15 16  1  0  0  0
 15 17  2  0  0  0
 15 18  1  0  0  0
 15 13  1  0  0  0
 21 22  1  0  0  0
 22 23  2  0  0  0
 22 24  1  0  0  0
 22 25  1  0  0  0
 13 14  1  0  0  0
  6 10  1  0  0  0
  7 11  1  0  0  0
  8 12  1  0  0  0
 18 19  1  0  0  0
 24 26  1  0  0  0
 25 27  1  0  0  0
M  END
> <minimizedAffinity>
-8.06738

$$$$
2P53_NNG_A_411


 27 27  0  0  0  0  0  0  0  0999 V2000
  -33.0781   17.6279  -13.8520 C   0  0  0  0  0  0  0  0  0  0  0  0
  -33.6496   17.9696  -12.4543 C   0  0  0  0  0  0  0  0  0  0  0  0
  -33.8131   19.5114  -12.3137 C   0  0  0  0  0  0  0  0  0  0  0  0
  -32.4897   20.2288  -12.6537 C   0  0  0  0  0  0  0  0  0  0  0  0
  -31.9977   19.7639  -14.0547 C   0  0  0  0  0  0  0  0  0  0  0  0
  -34.0166   17.9847  -14.8766 O   0  0  0  0  0  0  0  0  0  0  0  0
  -34.1799   19.8334  -10.9684 O   0  0  0  0  0  0  0  0  0  0  0  0
  -32.7196   21.6476  -12.6804 O   0  0  0  0  0  0  0  0  0  0  0  0
  -31.8225   18.3214  -14.0697 O   0  0  0  0  0  0  0  0  0  0  0  0
  -34.1819   18.9400  -14.8452 H   0  0  0  0  0  0  0  0  0  0  0  0
  -33.4830   19.5353  -10.3630 H   0  0  0  0  0  0  0  0  0  0  0  0
  -33.3904   21.8539  -13.3500 H   0  0  0  0  0  0  0  0  0  0  0  0
  -34.9548   17.3377  -12.3377 N   0  0  0  0  0  0  0  0  0  0  0  0
  -35.2360   17.0903  -13.2865 H   0  0  0  0  0  0  0  0  0  0  0  0
  -35.2020   16.0106  -11.4322 P   0  0  0  0  0  0  0  0  0  0  0  0
  -35.4940   16.4106   -9.7209 C   0  0  0  0  0  0  0  0  0  0  0  0
  -36.4369   15.3422  -11.9488 O   0  0  0  0  0  0  0  0  0  0  0  0
  -33.9555   15.0254  -11.6749 O   0  0  0  0  0  0  0  0  0  0  0  0
  -34.0722   14.2202  -11.1468 H   0  0  0  0  0  0  0  0  0  0  0  0
  -30.6465   20.4298  -14.3794 C   0  0  0  0  0  0  0  0  0  0  0  0
  -30.1190   19.8625  -15.5823 O   0  0  0  0  0  0  0  0  0  0  0  0
  -28.5023   19.9340  -15.5480 P   0  0  0  0  0  0  0  0  0  0  0  0
  -28.1020   21.3529  -15.5942 O   0  0  0  0  0  0  0  0  0  0  0  0
  -27.9597   19.2659  -14.1895 O   0  0  0  0  0  0  0  0  0  0  0  0
  -27.8656   19.1534  -16.8101 O   0  0  0  0  0  0  0  0  0  0  0  0
  -28.3386   19.7305  -13.4269 H   0  0  0  0  0  0  0  0  0  0  0  0
  -28.1891   19.5517  -17.6333 H   0  0  0  0  0  0  0  0  0  0  0  0
  1  2  1  0  0  0
  1  6  1  0  0  0
  1  9  1  0  0  0
  2 13  1  0  0  0
  2  3  1  0  0  0
  3  7  1  0  0  0
  3  4  1  0  0  0
  4  5  1  0  0  0
  4  8  1  0  0  0
  5  9  1  0  0  0
  5 20  1  0  0  0
 20 21  1  0  0  0
 15 16  1  0  0  0
 15 17  2  0  0  0
 15 18  1  0  0  0
 15 13  1  0  0  0
 21 22  1  0  0  0
 22 23  2  0  0  0
 22 24  1  0  0  0
 22 25  1  0  0  0
 13 14  1  0  0  0
  6 10  1  0  0  0
  7 11  1  0  0  0
  8 12  1  0  0  0
 18 19  1  0  0  0
 24 26  1  0  0  0
 25 27  1  0  0  0
M  END
> <minimizedAffinity>
-7.79502

$$$$
2P53_NNG_A_411


 27 27  0  0  0  0  0  0  0  0999 V2000
  -32.5252   17.6108  -12.3919 C   0  0  0  0  0  0  0  0  0  0  0  0
  -33.5579   18.4994  -11.6567 C   0  0  0  0  0  0  0  0  0  0  0  0
  -33.9723   19.6913  -12.5685 C   0  0  0  0  0  0  0  0  0  0  0  0
  -32.7242   20.4474  -13.0706 C   0  0  0  0  0  0  0  0  0  0  0  0
  -31.7474   19.4392  -13.7419 C   0  0  0  0  0  0  0  0  0  0  0  0
  -33.1241   16.9936  -13.5400 O   0  0  0  0  0  0  0  0  0  0  0  0
  -34.7939   20.5986  -11.8269 O   0  0  0  0  0  0  0  0  0  0  0  0
  -33.1295   21.4290  -14.0394 O   0  0  0  0  0  0  0  0  0  0  0  0
  -31.3765   18.3985  -12.7979 O   0  0  0  0  0  0  0  0  0  0  0  0
  -33.4229   17.6798  -14.1570 H   0  0  0  0  0  0  0  0  0  0  0  0
  -34.2944   20.9419  -11.0695 H   0  0  0  0  0  0  0  0  0  0  0  0
  -33.5711   20.9875  -14.7817 H   0  0  0  0  0  0  0  0  0  0  0  0
  -34.7291   17.6840  -11.3739 N   0  0  0  0  0  0  0  0  0  0  0  0
  -34.9388   17.1801  -12.2356 H   0  0  0  0  0  0  0  0  0  0  0  0
  -34.7523   16.5759  -10.1848 P   0  0  0  0  0  0  0  0  0  0  0  0
  -34.0819   15.0117  -10.7121 C   0  0  0  0  0  0  0  0  0  0  0  0
  -33.8769   17.0854   -9.0837 O   0  0  0  0  0  0  0  0  0  0  0  0
  -36.2601   16.4943   -9.6346 O   0  0  0  0  0  0  0  0  0  0  0  0
  -36.3089   15.8392   -8.9209 H   0  0  0  0  0  0  0  0  0  0  0  0
  -30.4710   20.1740  -14.1950 C   0  0  0  0  0  0  0  0  0  0  0  0
  -30.6016   20.5388  -15.5723 O   0  0  0  0  0  0  0  0  0  0  0  0
  -29.8684   19.4296  -16.4954 P   0  0  0  0  0  0  0  0  0  0  0  0
  -30.8764   18.4370  -16.9129 O   0  0  0  0  0  0  0  0  0  0  0  0
  -29.2397   20.1374  -17.7956 O   0  0  0  0  0  0  0  0  0  0  0  0
  -28.6898   18.6888  -15.6770 O   0  0  0  0  0  0  0  0  0  0  0  0
  -29.9429   20.5846  -18.2921 H   0  0  0  0  0  0  0  0  0  0  0  0
  -29.0624   18.2595  -14.8910 H   0  0  0  0  0  0  0  0  0  0  0  0
  1  2  1  0  0  0
  1  6  1  0  0  0
  1  9  1  0  0  0
  2 13  1  0  0  0
  2  3  1  0  0  0
  3  7  1  0  0  0
  3  4  1  0  0  0
  4  5  1  0  0  0
  4  8  1  0  0  0
  5  9  1  0  0  0
  5 20  1  0  0  0
 20 21  1  0  0  0
 15 16  1  0  0  0
 15 17  2  0  0  0
 15 18  1  0  0  0
 15 13  1  0  0  0
 21 22  1  0  0  0
 22 23  2  0  0  0
 22 24  1  0  0  0
 22 25  1  0  0  0
 13 14  1  0  0  0
  6 10  1  0  0  0
  7 11  1  0  0  0
  8 12  1  0  0  0
 18 19  1  0  0  0
 24 26  1  0  0  0
 25 27  1  0  0  0
M  END
> <minimizedAffinity>
-7.79325

$$$$
2P53_NNG_A_411


 27 27  0  0  0  0  0  0  0  0999 V2000
  -31.3938   19.4284  -12.1891 C   0  0  0  0  0  0  0  0  0  0  0  0
  -30.8914   19.3489  -13.6512 C   0  0  0  0  0  0  0  0  0  0  0  0
  -32.0990   19.1520  -14.6140 C   0  0  0  0  0  0  0  0  0  0  0  0
  -32.9552   17.9480  -14.1683 C   0  0  0  0  0  0  0  0  0  0  0  0
  -33.3518   18.1239  -12.6740 C   0  0  0  0  0  0  0  0  0  0  0  0
  -32.1989   20.6005  -12.0000 O   0  0  0  0  0  0  0  0  0  0  0  0
  -31.6194   18.9110  -15.9407 O   0  0  0  0  0  0  0  0  0  0  0  0
  -34.1468   17.8981  -14.9707 O   0  0  0  0  0  0  0  0  0  0  0  0
  -32.1600   18.2436  -11.8512 O   0  0  0  0  0  0  0  0  0  0  0  0
  -32.9739   20.5577  -12.5818 H   0  0  0  0  0  0  0  0  0  0  0  0
  -31.0781   18.1061  -15.9476 H   0  0  0  0  0  0  0  0  0  0  0  0
  -34.6474   18.7213  -14.8578 H   0  0  0  0  0  0  0  0  0  0  0  0
  -30.2290   20.6054  -13.9658 N   0  0  0  0  0  0  0  0  0  0  0  0
  -30.1442   21.1101  -13.0835 H   0  0  0  0  0  0  0  0  0  0  0  0
  -28.7623   20.6656  -14.6640 P   0  0  0  0  0  0  0  0  0  0  0  0
  -28.8622   21.0322  -16.4046 C   0  0  0  0  0  0  0  0  0  0  0  0
  -28.0065   21.7833  -14.0176 O   0  0  0  0  0  0  0  0  0  0  0  0
  -28.0122   19.2856  -14.3237 O   0  0  0  0  0  0  0  0  0  0  0  0
  -27.1301   19.2889  -14.7274 H   0  0  0  0  0  0  0  0  0  0  0  0
  -34.1581   16.8986  -12.2017 C   0  0  0  0  0  0  0  0  0  0  0  0
  -33.4604   16.2615  -11.1272 O   0  0  0  0  0  0  0  0  0  0  0  0
  -34.4931   15.9598   -9.9179 P   0  0  0  0  0  0  0  0  0  0  0  0
  -34.4338   14.5188   -9.6089 O   0  0  0  0  0  0  0  0  0  0  0  0
  -34.0671   16.8066   -8.6186 O   0  0  0  0  0  0  0  0  0  0  0  0
  -36.0007   16.3594  -10.3363 O   0  0  0  0  0  0  0  0  0  0  0  0
  -33.1618   16.5712   -8.3617 H   0  0  0  0  0  0  0  0  0  0  0  0
  -36.2640   15.8519  -11.1199 H   0  0  0  0  0  0  0  0  0  0  0  0
  1  2  1  0  0  0
  1  6  1  0  0  0
  1  9  1  0  0  0
  2 13  1  0  0  0
  2  3  1  0  0  0
  3  7  1  0  0  0
  3  4  1  0  0  0
  4  5  1  0  0  0
  4  8  1  0  0  0
  5  9  1  0  0  0
  5 20  1  0  0  0
 20 21  1  0  0  0
 15 16  1  0  0  0
 15 17  2  0  0  0
 15 18  1  0  0  0
 15 13  1  0  0  0
 21 22  1  0  0  0
 22 23  2  0  0  0
 22 24  1  0  0  0
 22 25  1  0  0  0
 13 14  1  0  0  0
  6 10  1  0  0  0
  7 11  1  0  0  0
  8 12  1  0  0  0
 18 19  1  0  0  0
 24 26  1  0  0  0
 25 27  1  0  0  0
M  END
> <minimizedAffinity>
-7.63161

$$$$
