4E70_N7I_A_403


 15 15  0  0  0  0  0  0  0  0999 V2000
   12.3929  -19.4953  -42.3666 C   0  0  0  0  0  0  0  0  0  0  0  0
   12.8759  -19.0502  -38.7365 O   0  0  0  0  0  0  0  0  0  0  0  0
   12.1948  -19.6681  -40.9992 C   0  0  0  0  0  0  0  0  0  0  0  0
   13.0002  -18.9492  -40.0676 C   0  0  0  0  0  0  0  0  0  0  0  0
   14.0131  -18.0500  -40.5741 C   0  0  0  0  0  0  0  0  0  0  0  0
   14.1806  -17.8921  -41.9404 C   0  0  0  0  0  0  0  0  0  0  0  0
   13.3844  -18.6229  -42.8670 C   0  0  0  0  0  0  0  0  0  0  0  0
   12.2314  -19.6220  -38.3682 H   0  0  0  0  0  0  0  0  0  0  0  0
   15.7922  -16.5861  -40.0157 C   0  0  0  0  0  0  0  0  0  0  0  0
   14.7077  -17.4288  -39.6175 O   0  0  0  0  0  0  0  0  0  0  0  0
   13.6050  -18.3919  -44.3299 C   0  0  0  0  0  0  0  0  0  0  0  0
   13.1766  -19.1461  -45.3204 C   0  0  0  0  0  0  0  0  0  0  0  0
   14.5949  -18.1487  -46.9912 O   0  0  0  0  0  0  0  0  0  0  0  0
   13.4038  -18.8448  -46.7998 C   0  0  0  0  0  0  0  0  0  0  0  0
   14.7163  -17.9696  -47.9368 H   0  0  0  0  0  0  0  0  0  0  0  0
  1  3  2  0  0  0
  1  7  1  0  0  0
 13 14  1  0  0  0
  9 10  1  0  0  0
  2  4  1  0  0  0
  3  4  1  0  0  0
 10  5  1  0  0  0
  4  5  2  0  0  0
  5  6  1  0  0  0
  6  7  2  0  0  0
  7 11  1  0  0  0
 11 12  2  0  0  0
 12 14  1  0  0  0
 13 15  1  0  0  0
  2  8  1  0  0  0
M  END
> <minimizedAffinity>
-7.35568

$$$$
4E70_N7I_A_403


 15 15  0  0  0  0  0  0  0  0999 V2000
   14.2012  -17.4959  -42.1292 C   0  0  0  0  0  0  0  0  0  0  0  0
   13.2561  -19.0074  -38.8995 O   0  0  0  0  0  0  0  0  0  0  0  0
   14.1210  -17.6681  -40.7498 C   0  0  0  0  0  0  0  0  0  0  0  0
   13.3824  -18.7628  -40.2117 C   0  0  0  0  0  0  0  0  0  0  0  0
   12.7287  -19.6748  -41.1237 C   0  0  0  0  0  0  0  0  0  0  0  0
   12.8341  -19.4827  -42.4918 C   0  0  0  0  0  0  0  0  0  0  0  0
   13.5600  -18.3801  -43.0246 C   0  0  0  0  0  0  0  0  0  0  0  0
   13.6646  -18.4401  -38.2757 H   0  0  0  0  0  0  0  0  0  0  0  0
   10.7176  -20.9129  -40.9167 C   0  0  0  0  0  0  0  0  0  0  0  0
   12.0668  -20.6620  -40.5147 O   0  0  0  0  0  0  0  0  0  0  0  0
   13.6493  -18.2410  -44.5128 C   0  0  0  0  0  0  0  0  0  0  0  0
   13.2175  -19.1002  -45.4121 C   0  0  0  0  0  0  0  0  0  0  0  0
   14.5660  -18.4262  -47.2897 O   0  0  0  0  0  0  0  0  0  0  0  0
   13.3059  -18.8919  -46.9220 C   0  0  0  0  0  0  0  0  0  0  0  0
   14.5969  -18.3021  -48.2512 H   0  0  0  0  0  0  0  0  0  0  0  0
  1  3  2  0  0  0
  1  7  1  0  0  0
 13 14  1  0  0  0
  9 10  1  0  0  0
  2  4  1  0  0  0
  3  4  1  0  0  0
 10  5  1  0  0  0
  4  5  2  0  0  0
  5  6  1  0  0  0
  6  7  2  0  0  0
  7 11  1  0  0  0
 11 12  2  0  0  0
 12 14  1  0  0  0
 13 15  1  0  0  0
  2  8  1  0  0  0
M  END
> <minimizedAffinity>
-6.71576

$$$$
4E70_N7I_A_403


 15 15  0  0  0  0  0  0  0  0999 V2000
   12.9802  -18.9533  -43.1546 C   0  0  0  0  0  0  0  0  0  0  0  0
   13.1495  -19.1837  -46.8326 O   0  0  0  0  0  0  0  0  0  0  0  0
   12.7222  -19.4231  -44.4397 C   0  0  0  0  0  0  0  0  0  0  0  0
   13.3369  -18.7955  -45.5630 C   0  0  0  0  0  0  0  0  0  0  0  0
   14.2215  -17.6748  -45.3344 C   0  0  0  0  0  0  0  0  0  0  0  0
   14.4659  -17.2356  -44.0432 C   0  0  0  0  0  0  0  0  0  0  0  0
   13.8387  -17.8554  -42.9258 C   0  0  0  0  0  0  0  0  0  0  0  0
   12.5838  -19.9060  -47.0230 H   0  0  0  0  0  0  0  0  0  0  0  0
   16.0088  -17.6618  -46.8918 C   0  0  0  0  0  0  0  0  0  0  0  0
   14.7422  -17.1638  -46.4530 O   0  0  0  0  0  0  0  0  0  0  0  0
   14.1603  -17.3429  -41.5560 C   0  0  0  0  0  0  0  0  0  0  0  0
   15.3525  -17.2671  -41.0026 C   0  0  0  0  0  0  0  0  0  0  0  0
   14.4405  -16.3645  -38.9651 O   0  0  0  0  0  0  0  0  0  0  0  0
   15.6271  -16.7040  -39.6103 C   0  0  0  0  0  0  0  0  0  0  0  0
   14.6411  -16.0101  -38.0847 H   0  0  0  0  0  0  0  0  0  0  0  0
  1  3  2  0  0  0
  1  7  1  0  0  0
 13 14  1  0  0  0
  9 10  1  0  0  0
  2  4  1  0  0  0
  3  4  1  0  0  0
 10  5  1  0  0  0
  4  5  2  0  0  0
  5  6  1  0  0  0
  6  7  2  0  0  0
  7 11  1  0  0  0
 11 12  2  0  0  0
 12 14  1  0  0  0
 13 15  1  0  0  0
  2  8  1  0  0  0
M  END
> <minimizedAffinity>
-6.25938

$$$$
4E70_N7I_A_403


 15 15  0  0  0  0  0  0  0  0999 V2000
   13.8143  -17.5311  -42.7536 C   0  0  0  0  0  0  0  0  0  0  0  0
   14.5872  -16.8376  -46.2935 O   0  0  0  0  0  0  0  0  0  0  0  0
   14.3095  -16.8572  -43.8669 C   0  0  0  0  0  0  0  0  0  0  0  0
   14.1472  -17.4181  -45.1679 C   0  0  0  0  0  0  0  0  0  0  0  0
   13.4653  -18.6867  -45.2971 C   0  0  0  0  0  0  0  0  0  0  0  0
   12.9754  -19.3292  -44.1716 C   0  0  0  0  0  0  0  0  0  0  0  0
   13.1525  -18.7730  -42.8732 C   0  0  0  0  0  0  0  0  0  0  0  0
   15.0340  -16.0150  -46.2526 H   0  0  0  0  0  0  0  0  0  0  0  0
   14.5068  -19.7631  -47.1347 C   0  0  0  0  0  0  0  0  0  0  0  0
   13.3683  -19.1192  -46.5569 O   0  0  0  0  0  0  0  0  0  0  0  0
   12.5829  -19.5102  -41.7009 C   0  0  0  0  0  0  0  0  0  0  0  0
   12.5806  -19.1133  -40.4456 C   0  0  0  0  0  0  0  0  0  0  0  0
   11.2369  -20.9902  -39.7605 O   0  0  0  0  0  0  0  0  0  0  0  0
   11.9551  -19.8929  -39.2915 C   0  0  0  0  0  0  0  0  0  0  0  0
   10.8502  -21.4681  -39.0102 H   0  0  0  0  0  0  0  0  0  0  0  0
  1  3  2  0  0  0
  1  7  1  0  0  0
 13 14  1  0  0  0
  9 10  1  0  0  0
  2  4  1  0  0  0
  3  4  1  0  0  0
 10  5  1  0  0  0
  4  5  2  0  0  0
  5  6  1  0  0  0
  6  7  2  0  0  0
  7 11  1  0  0  0
 11 12  2  0  0  0
 12 14  1  0  0  0
 13 15  1  0  0  0
  2  8  1  0  0  0
M  END
> <minimizedAffinity>
-5.71033

$$$$
4E70_N7I_A_403


 15 15  0  0  0  0  0  0  0  0999 V2000
   12.8524  -19.2267  -43.9218 C   0  0  0  0  0  0  0  0  0  0  0  0
   13.6773  -18.5521  -47.4536 O   0  0  0  0  0  0  0  0  0  0  0  0
   12.8459  -19.3685  -45.3070 C   0  0  0  0  0  0  0  0  0  0  0  0
   13.6206  -18.4857  -46.1157 C   0  0  0  0  0  0  0  0  0  0  0  0
   14.4006  -17.4548  -45.4679 C   0  0  0  0  0  0  0  0  0  0  0  0
   14.3940  -17.3442  -44.0868 C   0  0  0  0  0  0  0  0  0  0  0  0
   13.6077  -18.2181  -43.2840 C   0  0  0  0  0  0  0  0  0  0  0  0
   13.1865  -19.2060  -47.9115 H   0  0  0  0  0  0  0  0  0  0  0  0
   16.2968  -17.2119  -46.8699 C   0  0  0  0  0  0  0  0  0  0  0  0
   15.0872  -16.6862  -46.3172 O   0  0  0  0  0  0  0  0  0  0  0  0
   13.6599  -18.0555  -41.7963 C   0  0  0  0  0  0  0  0  0  0  0  0
   13.2214  -18.9085  -40.8944 C   0  0  0  0  0  0  0  0  0  0  0  0
   12.1100  -18.9495  -38.7588 O   0  0  0  0  0  0  0  0  0  0  0  0
   13.3298  -18.7054  -39.3851 C   0  0  0  0  0  0  0  0  0  0  0  0
   12.2045  -18.8142  -37.8029 H   0  0  0  0  0  0  0  0  0  0  0  0
  1  3  2  0  0  0
  1  7  1  0  0  0
 13 14  1  0  0  0
  9 10  1  0  0  0
  2  4  1  0  0  0
  3  4  1  0  0  0
 10  5  1  0  0  0
  4  5  2  0  0  0
  5  6  1  0  0  0
  6  7  2  0  0  0
  7 11  1  0  0  0
 11 12  2  0  0  0
 12 14  1  0  0  0
 13 15  1  0  0  0
  2  8  1  0  0  0
M  END
> <minimizedAffinity>
-5.43608

$$$$
4E70_N7I_A_403


 15 15  0  0  0  0  0  0  0  0999 V2000
   19.5895  -19.1853  -48.3659 C   0  0  0  0  0  0  0  0  0  0  0  0
   19.3739  -22.6398  -49.6424 O   0  0  0  0  0  0  0  0  0  0  0  0
   20.0144  -20.4362  -48.8060 C   0  0  0  0  0  0  0  0  0  0  0  0
   19.0552  -21.4141  -49.2023 C   0  0  0  0  0  0  0  0  0  0  0  0
   17.6508  -21.0765  -49.1351 C   0  0  0  0  0  0  0  0  0  0  0  0
   17.2589  -19.8202  -48.7016 C   0  0  0  0  0  0  0  0  0  0  0  0
   18.2191  -18.8520  -48.2928 C   0  0  0  0  0  0  0  0  0  0  0  0
   20.2729  -22.8976  -49.7008 H   0  0  0  0  0  0  0  0  0  0  0  0
   16.0910  -22.7554  -48.5278 C   0  0  0  0  0  0  0  0  0  0  0  0
   16.8411  -22.0628  -49.5291 O   0  0  0  0  0  0  0  0  0  0  0  0
   17.7288  -17.5076  -47.8518 C   0  0  0  0  0  0  0  0  0  0  0  0
   18.2957  -16.3440  -48.0925 C   0  0  0  0  0  0  0  0  0  0  0  0
   17.2449  -14.2734  -48.7300 O   0  0  0  0  0  0  0  0  0  0  0  0
   17.7333  -14.9971  -47.6448 C   0  0  0  0  0  0  0  0  0  0  0  0
   16.8940  -13.4238  -48.4204 H   0  0  0  0  0  0  0  0  0  0  0  0
  1  3  2  0  0  0
  1  7  1  0  0  0
 13 14  1  0  0  0
  9 10  1  0  0  0
  2  4  1  0  0  0
  3  4  1  0  0  0
 10  5  1  0  0  0
  4  5  2  0  0  0
  5  6  1  0  0  0
  6  7  2  0  0  0
  7 11  1  0  0  0
 11 12  2  0  0  0
 12 14  1  0  0  0
 13 15  1  0  0  0
  2  8  1  0  0  0
M  END
> <minimizedAffinity>
-4.84105

$$$$
