4F3C_BIG_A_301


 27 29  0  0  0  0  0  0  0  0999 V2000
  -35.2003   -0.2011    4.0123 C   0  0  0  0  0  0  0  0  0  0  0  0
  -36.4520    2.9368    0.7009 C   0  0  0  0  0  0  0  0  0  0  0  0
  -33.9161    2.6151    1.7419 C   0  0  0  0  0  0  0  0  0  0  0  0
  -35.0412    1.7916    2.1513 C   0  0  0  0  0  0  0  0  0  0  0  0
  -33.1776    1.1956    3.2789 C   0  0  0  0  0  0  0  0  0  0  0  0
  -32.8418    2.2034    2.4407 N   0  0  0  0  0  0  0  0  0  0  0  0
  -34.1719    3.6391    0.7409 C   0  0  0  0  0  0  0  0  0  0  0  0
  -33.1393    4.4127    0.3106 N   0  0  0  0  0  0  0  0  0  0  0  0
  -36.2803    1.9687    1.6443 N   0  0  0  0  0  0  0  0  0  0  0  0
  -34.5175    0.8780    3.1955 C   0  0  0  0  0  0  0  0  0  0  0  0
  -35.4496    3.7340    0.2407 N   0  0  0  0  0  0  0  0  0  0  0  0
  -31.9375    2.5828    2.3540 H   0  0  0  0  0  0  0  0  0  0  0  0
  -32.2438    4.3020    0.7046 H   0  0  0  0  0  0  0  0  0  0  0  0
  -33.2872    5.0833   -0.3948 H   0  0  0  0  0  0  0  0  0  0  0  0
  -33.3130   -0.1042    7.9527 O   0  0  0  0  0  0  0  0  0  0  0  0
  -34.7054   -0.2394    7.6856 C   0  0  0  0  0  0  0  0  0  0  0  0
  -35.0186   -1.6903    7.4065 C   0  0  0  0  0  0  0  0  0  0  0  0
  -34.8875   -1.8044    5.8846 C   0  0  0  0  0  0  0  0  0  0  0  0
  -34.6902   -0.4431    5.3687 N   0  0  0  0  0  0  0  0  0  0  0  0
  -35.1645    0.4771    6.4225 C   0  0  0  0  0  0  0  0  0  0  0  0
  -33.0920   -0.5827    8.7670 H   0  0  0  0  0  0  0  0  0  0  0  0
  -36.4403   -2.0832    7.7878 C   0  0  0  0  0  0  0  0  0  0  0  0
  -37.1825   -3.3848    6.8462 S   0  0  0  0  0  0  0  0  0  0  0  0
  -36.5059   -4.7754    7.7267 C   0  0  0  0  0  0  0  0  0  0  0  0
  -35.2330   -5.2922    7.0618 C   0  0  0  0  0  0  0  0  0  0  0  0
  -35.2801   -6.7932    6.7224 C   0  0  0  0  0  0  0  0  0  0  0  0
  -36.2720   -7.0925    5.6439 C   0  0  0  0  0  0  0  0  0  0  0  0
  2  9  2  0  0  0
  2 11  1  0  0  0
  3  4  2  0  0  0
  3  6  1  0  0  0
  3  7  1  0  0  0
  4  9  1  0  0  0
  4 10  1  0  0  0
  5  6  1  0  0  0
  5 10  2  0  0  0
 15 16  1  0  0  0
 16 17  1  0  0  0
 16 20  1  0  0  0
 17 22  1  0  0  0
 17 18  1  0  0  0
 22 23  1  0  0  0
 23 24  1  0  0  0
 24 25  1  0  0  0
 25 26  1  0  0  0
 26 27  1  0  0  0
 18 19  1  0  0  0
 19 20  1  0  0  0
 19  1  1  0  0  0
  1 10  1  0  0  0
  7  8  1  0  0  0
  7 11  2  0  0  0
 15 21  1  0  0  0
  6 12  1  0  0  0
  8 13  1  0  0  0
  8 14  1  0  0  0
M  END
> <minimizedAffinity>
-6.81351

$$$$
4F3C_BIG_A_301


 27 29  0  0  0  0  0  0  0  0999 V2000
  -35.1034    1.9279    3.1182 C   0  0  0  0  0  0  0  0  0  0  0  0
  -37.0851    3.3183   -0.9462 C   0  0  0  0  0  0  0  0  0  0  0  0
  -34.3958    3.4418   -0.3376 C   0  0  0  0  0  0  0  0  0  0  0  0
  -35.3828    2.9005    0.5813 C   0  0  0  0  0  0  0  0  0  0  0  0
  -33.3234    2.8270    1.5048 C   0  0  0  0  0  0  0  0  0  0  0  0
  -33.1962    3.3596    0.2674 N   0  0  0  0  0  0  0  0  0  0  0  0
  -34.8790    3.9279   -1.6207 C   0  0  0  0  0  0  0  0  0  0  0  0
  -33.9833    4.4167   -2.5200 N   0  0  0  0  0  0  0  0  0  0  0  0
  -36.6978    2.8587    0.2767 N   0  0  0  0  0  0  0  0  0  0  0  0
  -34.6357    2.5280    1.8070 C   0  0  0  0  0  0  0  0  0  0  0  0
  -36.2257    3.8158   -1.8767 N   0  0  0  0  0  0  0  0  0  0  0  0
  -32.3447    3.6470   -0.1345 H   0  0  0  0  0  0  0  0  0  0  0  0
  -33.0295    4.4745   -2.2831 H   0  0  0  0  0  0  0  0  0  0  0  0
  -34.2888    4.7128   -3.4078 H   0  0  0  0  0  0  0  0  0  0  0  0
  -32.5784   -1.5797    3.7657 O   0  0  0  0  0  0  0  0  0  0  0  0
  -32.7964   -0.5139    4.6849 C   0  0  0  0  0  0  0  0  0  0  0  0
  -34.0741   -0.7705    5.4483 C   0  0  0  0  0  0  0  0  0  0  0  0
  -35.1432   -0.0507    4.6206 C   0  0  0  0  0  0  0  0  0  0  0  0
  -34.4395    0.6978    3.5705 N   0  0  0  0  0  0  0  0  0  0  0  0
  -33.0392    0.8349    4.0206 C   0  0  0  0  0  0  0  0  0  0  0  0
  -32.4315   -2.4041    4.2553 H   0  0  0  0  0  0  0  0  0  0  0  0
  -34.0724   -0.1639    6.8458 C   0  0  0  0  0  0  0  0  0  0  0  0
  -35.4518   -0.5571    7.8823 S   0  0  0  0  0  0  0  0  0  0  0  0
  -34.9013   -2.1419    8.4757 C   0  0  0  0  0  0  0  0  0  0  0  0
  -35.6356   -3.2849    7.7801 C   0  0  0  0  0  0  0  0  0  0  0  0
  -36.8238   -2.8206    6.9181 C   0  0  0  0  0  0  0  0  0  0  0  0
  -37.9195   -3.8377    6.8804 C   0  0  0  0  0  0  0  0  0  0  0  0
  2  9  2  0  0  0
  2 11  1  0  0  0
  3  4  2  0  0  0
  3  6  1  0  0  0
  3  7  1  0  0  0
  4  9  1  0  0  0
  4 10  1  0  0  0
  5  6  1  0  0  0
  5 10  2  0  0  0
 15 16  1  0  0  0
 16 17  1  0  0  0
 16 20  1  0  0  0
 17 22  1  0  0  0
 17 18  1  0  0  0
 22 23  1  0  0  0
 23 24  1  0  0  0
 24 25  1  0  0  0
 25 26  1  0  0  0
 26 27  1  0  0  0
 18 19  1  0  0  0
 19 20  1  0  0  0
 19  1  1  0  0  0
  1 10  1  0  0  0
  7  8  1  0  0  0
  7 11  2  0  0  0
 15 21  1  0  0  0
  6 12  1  0  0  0
  8 13  1  0  0  0
  8 14  1  0  0  0
M  END
> <minimizedAffinity>
-6.25736

$$$$
4F3C_BIG_A_301


 27 29  0  0  0  0  0  0  0  0999 V2000
  -34.6965   -0.1869    3.9715 C   0  0  0  0  0  0  0  0  0  0  0  0
  -37.0320   -2.9401    7.0284 C   0  0  0  0  0  0  0  0  0  0  0  0
  -34.9212   -1.2727    7.6465 C   0  0  0  0  0  0  0  0  0  0  0  0
  -35.4663   -1.3815    6.3039 C   0  0  0  0  0  0  0  0  0  0  0  0
  -33.7394    0.0733    6.3371 C   0  0  0  0  0  0  0  0  0  0  0  0
  -33.9080   -0.3879    7.5980 N   0  0  0  0  0  0  0  0  0  0  0  0
  -35.5372   -2.0882    8.6816 C   0  0  0  0  0  0  0  0  0  0  0  0
  -35.0741   -1.9947    9.9571 N   0  0  0  0  0  0  0  0  0  0  0  0
  -36.4905   -2.2119    6.0119 N   0  0  0  0  0  0  0  0  0  0  0  0
  -34.6362   -0.4929    5.4550 C   0  0  0  0  0  0  0  0  0  0  0  0
  -36.6019   -2.8794    8.3181 N   0  0  0  0  0  0  0  0  0  0  0  0
  -33.3650   -0.1143    8.3724 H   0  0  0  0  0  0  0  0  0  0  0  0
  -34.3073   -1.4118   10.1609 H   0  0  0  0  0  0  0  0  0  0  0  0
  -35.5057   -2.5098   10.6765 H   0  0  0  0  0  0  0  0  0  0  0  0
  -33.0223    3.7502    3.0801 O   0  0  0  0  0  0  0  0  0  0  0  0
  -33.5491    2.8225    2.1366 C   0  0  0  0  0  0  0  0  0  0  0  0
  -35.0497    2.9802    2.0701 C   0  0  0  0  0  0  0  0  0  0  0  0
  -35.5676    1.9703    3.0987 C   0  0  0  0  0  0  0  0  0  0  0  0
  -34.4082    1.1926    3.5563 N   0  0  0  0  0  0  0  0  0  0  0  0
  -33.3581    1.3640    2.5315 C   0  0  0  0  0  0  0  0  0  0  0  0
  -33.1783    4.6546    2.7661 H   0  0  0  0  0  0  0  0  0  0  0  0
  -35.6340    2.6118    0.7123 C   0  0  0  0  0  0  0  0  0  0  0  0
  -36.6258    3.8422   -0.0842 S   0  0  0  0  0  0  0  0  0  0  0  0
  -37.0346    4.8250    1.3420 C   0  0  0  0  0  0  0  0  0  0  0  0
  -38.4890    4.6256    1.7597 C   0  0  0  0  0  0  0  0  0  0  0  0
  -39.2393    3.5876    0.9054 C   0  0  0  0  0  0  0  0  0  0  0  0
  -40.5704    3.2377    1.4905 C   0  0  0  0  0  0  0  0  0  0  0  0
  2  9  2  0  0  0
  2 11  1  0  0  0
  3  4  2  0  0  0
  3  6  1  0  0  0
  3  7  1  0  0  0
  4  9  1  0  0  0
  4 10  1  0  0  0
  5  6  1  0  0  0
  5 10  2  0  0  0
 15 16  1  0  0  0
 16 17  1  0  0  0
 16 20  1  0  0  0
 17 22  1  0  0  0
 17 18  1  0  0  0
 22 23  1  0  0  0
 23 24  1  0  0  0
 24 25  1  0  0  0
 25 26  1  0  0  0
 26 27  1  0  0  0
 18 19  1  0  0  0
 19 20  1  0  0  0
 19  1  1  0  0  0
  1 10  1  0  0  0
  7  8  1  0  0  0
  7 11  2  0  0  0
 15 21  1  0  0  0
  6 12  1  0  0  0
  8 13  1  0  0  0
  8 14  1  0  0  0
M  END
> <minimizedAffinity>
-6.07798

$$$$
4F3C_BIG_A_301


 27 29  0  0  0  0  0  0  0  0999 V2000
  -34.0453    2.5696    2.8025 C   0  0  0  0  0  0  0  0  0  0  0  0
  -33.2907    4.0904   -1.6131 C   0  0  0  0  0  0  0  0  0  0  0  0
  -35.7129    3.2561   -0.5861 C   0  0  0  0  0  0  0  0  0  0  0  0
  -34.4977    3.2986    0.2095 C   0  0  0  0  0  0  0  0  0  0  0  0
  -36.2229    2.5295    1.4472 C   0  0  0  0  0  0  0  0  0  0  0  0
  -36.6984    2.8009    0.2098 N   0  0  0  0  0  0  0  0  0  0  0  0
  -35.6129    3.6781   -1.9746 C   0  0  0  0  0  0  0  0  0  0  0  0
  -36.7336    3.6794   -2.7455 N   0  0  0  0  0  0  0  0  0  0  0  0
  -33.3157    3.6956   -0.3091 N   0  0  0  0  0  0  0  0  0  0  0  0
  -34.8703    2.7811    1.5483 C   0  0  0  0  0  0  0  0  0  0  0  0
  -34.3852    4.1080   -2.4216 N   0  0  0  0  0  0  0  0  0  0  0  0
  -37.6349    2.6819   -0.0695 H   0  0  0  0  0  0  0  0  0  0  0  0
  -37.5873    3.3600   -2.3734 H   0  0  0  0  0  0  0  0  0  0  0  0
  -36.6910    3.9996   -3.6755 H   0  0  0  0  0  0  0  0  0  0  0  0
  -32.8461   -1.5370    3.6943 O   0  0  0  0  0  0  0  0  0  0  0  0
  -32.9882   -0.4753    4.6329 C   0  0  0  0  0  0  0  0  0  0  0  0
  -34.4382   -0.3641    5.0406 C   0  0  0  0  0  0  0  0  0  0  0  0
  -35.0162    0.6556    4.0545 C   0  0  0  0  0  0  0  0  0  0  0  0
  -33.8877    1.1892    3.2800 N   0  0  0  0  0  0  0  0  0  0  0  0
  -32.6686    0.9003    4.0626 C   0  0  0  0  0  0  0  0  0  0  0  0
  -33.0643   -2.3792    4.1232 H   0  0  0  0  0  0  0  0  0  0  0  0
  -34.6269    0.1835    6.4496 C   0  0  0  0  0  0  0  0  0  0  0  0
  -35.8429   -0.6176    7.4552 S   0  0  0  0  0  0  0  0  0  0  0  0
  -35.3793   -2.3076    7.1456 C   0  0  0  0  0  0  0  0  0  0  0  0
  -35.9404   -3.2452    8.2112 C   0  0  0  0  0  0  0  0  0  0  0  0
  -36.8853   -4.3229    7.6489 C   0  0  0  0  0  0  0  0  0  0  0  0
  -37.9787   -3.7307    6.8181 C   0  0  0  0  0  0  0  0  0  0  0  0
  2  9  2  0  0  0
  2 11  1  0  0  0
  3  4  2  0  0  0
  3  6  1  0  0  0
  3  7  1  0  0  0
  4  9  1  0  0  0
  4 10  1  0  0  0
  5  6  1  0  0  0
  5 10  2  0  0  0
 15 16  1  0  0  0
 16 17  1  0  0  0
 16 20  1  0  0  0
 17 22  1  0  0  0
 17 18  1  0  0  0
 22 23  1  0  0  0
 23 24  1  0  0  0
 24 25  1  0  0  0
 25 26  1  0  0  0
 26 27  1  0  0  0
 18 19  1  0  0  0
 19 20  1  0  0  0
 19  1  1  0  0  0
  1 10  1  0  0  0
  7  8  1  0  0  0
  7 11  2  0  0  0
 15 21  1  0  0  0
  6 12  1  0  0  0
  8 13  1  0  0  0
  8 14  1  0  0  0
M  END
> <minimizedAffinity>
-6.06377

$$$$
4F3C_BIG_A_301


 27 29  0  0  0  0  0  0  0  0999 V2000
  -33.3009    0.1675    4.6617 C   0  0  0  0  0  0  0  0  0  0  0  0
  -34.9199    0.9161    9.0432 C   0  0  0  0  0  0  0  0  0  0  0  0
  -35.5586   -1.2324    7.4327 C   0  0  0  0  0  0  0  0  0  0  0  0
  -34.6374   -0.1884    7.0170 C   0  0  0  0  0  0  0  0  0  0  0  0
  -34.8805   -1.7225    5.3777 C   0  0  0  0  0  0  0  0  0  0  0  0
  -35.6501   -2.1140    6.4196 N   0  0  0  0  0  0  0  0  0  0  0  0
  -36.1482   -1.1094    8.7567 C   0  0  0  0  0  0  0  0  0  0  0  0
  -36.9943   -2.0804    9.1943 N   0  0  0  0  0  0  0  0  0  0  0  0
  -34.3441    0.8652    7.8093 N   0  0  0  0  0  0  0  0  0  0  0  0
  -34.2291   -0.5338    5.6338 C   0  0  0  0  0  0  0  0  0  0  0  0
  -35.7714   -0.0310    9.5228 N   0  0  0  0  0  0  0  0  0  0  0  0
  -36.2005   -2.9302    6.4346 H   0  0  0  0  0  0  0  0  0  0  0  0
  -37.2302   -2.8310    8.6025 H   0  0  0  0  0  0  0  0  0  0  0  0
  -37.3707   -2.0326   10.1027 H   0  0  0  0  0  0  0  0  0  0  0  0
  -35.8794    1.7369    1.5017 O   0  0  0  0  0  0  0  0  0  0  0  0
  -35.1500    2.5027    2.4556 C   0  0  0  0  0  0  0  0  0  0  0  0
  -33.7321    2.6828    1.9677 C   0  0  0  0  0  0  0  0  0  0  0  0
  -32.9802    1.5027    2.5910 C   0  0  0  0  0  0  0  0  0  0  0  0
  -33.9154    0.8346    3.5060 N   0  0  0  0  0  0  0  0  0  0  0  0
  -34.9817    1.8129    3.8030 C   0  0  0  0  0  0  0  0  0  0  0  0
  -35.9477    2.2344    0.6718 H   0  0  0  0  0  0  0  0  0  0  0  0
  -33.0839    3.9693    2.4634 C   0  0  0  0  0  0  0  0  0  0  0  0
  -34.0295    5.4541    2.2824 S   0  0  0  0  0  0  0  0  0  0  0  0
  -34.6329    5.1909    0.6291 C   0  0  0  0  0  0  0  0  0  0  0  0
  -33.5409    5.4331   -0.4094 C   0  0  0  0  0  0  0  0  0  0  0  0
  -33.4985    4.3674   -1.5197 C   0  0  0  0  0  0  0  0  0  0  0  0
  -34.7267    3.5141   -1.5241 C   0  0  0  0  0  0  0  0  0  0  0  0
  2  9  2  0  0  0
  2 11  1  0  0  0
  3  4  2  0  0  0
  3  6  1  0  0  0
  3  7  1  0  0  0
  4  9  1  0  0  0
  4 10  1  0  0  0
  5  6  1  0  0  0
  5 10  2  0  0  0
 15 16  1  0  0  0
 16 17  1  0  0  0
 16 20  1  0  0  0
 17 22  1  0  0  0
 17 18  1  0  0  0
 22 23  1  0  0  0
 23 24  1  0  0  0
 24 25  1  0  0  0
 25 26  1  0  0  0
 26 27  1  0  0  0
 18 19  1  0  0  0
 19 20  1  0  0  0
 19  1  1  0  0  0
  1 10  1  0  0  0
  7  8  1  0  0  0
  7 11  2  0  0  0
 15 21  1  0  0  0
  6 12  1  0  0  0
  8 13  1  0  0  0
  8 14  1  0  0  0
M  END
> <minimizedAffinity>
-6.02949

$$$$
4F3C_BIG_A_301


 27 29  0  0  0  0  0  0  0  0999 V2000
  -34.3118   -0.2848    4.1158 C   0  0  0  0  0  0  0  0  0  0  0  0
  -37.0901   -2.7849    7.0158 C   0  0  0  0  0  0  0  0  0  0  0  0
  -34.9705   -1.1940    7.7866 C   0  0  0  0  0  0  0  0  0  0  0  0
  -35.3791   -1.3364    6.3994 C   0  0  0  0  0  0  0  0  0  0  0  0
  -33.5916    0.0346    6.5570 C   0  0  0  0  0  0  0  0  0  0  0  0
  -33.9131   -0.3614    7.8103 N   0  0  0  0  0  0  0  0  0  0  0  0
  -35.7315   -1.9323    8.7824 C   0  0  0  0  0  0  0  0  0  0  0  0
  -35.3982   -1.8042   10.0949 N   0  0  0  0  0  0  0  0  0  0  0  0
  -36.4095   -2.1293    6.0341 N   0  0  0  0  0  0  0  0  0  0  0  0
  -34.4208   -0.5270    5.6083 C   0  0  0  0  0  0  0  0  0  0  0  0
  -36.7927   -2.6874    8.3402 N   0  0  0  0  0  0  0  0  0  0  0  0
  -33.4394   -0.0797    8.6261 H   0  0  0  0  0  0  0  0  0  0  0  0
  -34.6273   -1.2500   10.3551 H   0  0  0  0  0  0  0  0  0  0  0  0
  -35.9279   -2.2657   10.7846 H   0  0  0  0  0  0  0  0  0  0  0  0
  -32.9877    3.7373    3.0354 O   0  0  0  0  0  0  0  0  0  0  0  0
  -33.5619    2.7727    2.1590 C   0  0  0  0  0  0  0  0  0  0  0  0
  -35.0670    2.8408    2.2636 C   0  0  0  0  0  0  0  0  0  0  0  0
  -35.4035    1.8101    3.3456 C   0  0  0  0  0  0  0  0  0  0  0  0
  -34.1553    1.1060    3.6690 N   0  0  0  0  0  0  0  0  0  0  0  0
  -33.2405    1.3312    2.5312 C   0  0  0  0  0  0  0  0  0  0  0  0
  -33.2320    4.6284    2.7402 H   0  0  0  0  0  0  0  0  0  0  0  0
  -35.7788    2.4278    0.9816 C   0  0  0  0  0  0  0  0  0  0  0  0
  -37.0791    3.4886    0.4197 S   0  0  0  0  0  0  0  0  0  0  0  0
  -36.8366    3.3084   -1.3340 C   0  0  0  0  0  0  0  0  0  0  0  0
  -35.7987    4.2967   -1.8590 C   0  0  0  0  0  0  0  0  0  0  0  0
  -34.4907    3.6296   -2.3220 C   0  0  0  0  0  0  0  0  0  0  0  0
  -33.3376    3.9846   -1.4383 C   0  0  0  0  0  0  0  0  0  0  0  0
  2  9  2  0  0  0
  2 11  1  0  0  0
  3  4  2  0  0  0
  3  6  1  0  0  0
  3  7  1  0  0  0
  4  9  1  0  0  0
  4 10  1  0  0  0
  5  6  1  0  0  0
  5 10  2  0  0  0
 15 16  1  0  0  0
 16 17  1  0  0  0
 16 20  1  0  0  0
 17 22  1  0  0  0
 17 18  1  0  0  0
 22 23  1  0  0  0
 23 24  1  0  0  0
 24 25  1  0  0  0
 25 26  1  0  0  0
 26 27  1  0  0  0
 18 19  1  0  0  0
 19 20  1  0  0  0
 19  1  1  0  0  0
  1 10  1  0  0  0
  7  8  1  0  0  0
  7 11  2  0  0  0
 15 21  1  0  0  0
  6 12  1  0  0  0
  8 13  1  0  0  0
  8 14  1  0  0  0
M  END
> <minimizedAffinity>
-5.92176

$$$$
4F3C_BIG_A_301


 27 29  0  0  0  0  0  0  0  0999 V2000
  -37.0595    4.3252    1.7402 C   0  0  0  0  0  0  0  0  0  0  0  0
  -41.5870    5.6871    1.9021 C   0  0  0  0  0  0  0  0  0  0  0  0
  -40.2983    4.6296   -0.2976 C   0  0  0  0  0  0  0  0  0  0  0  0
  -39.6392    4.8096    0.9848 C   0  0  0  0  0  0  0  0  0  0  0  0
  -38.2009    3.9427   -0.5250 C   0  0  0  0  0  0  0  0  0  0  0  0
  -39.3934    4.1036   -1.1440 N   0  0  0  0  0  0  0  0  0  0  0  0
  -41.6931    5.0322   -0.3899 C   0  0  0  0  0  0  0  0  0  0  0  0
  -42.3540    4.8544   -1.5653 N   0  0  0  0  0  0  0  0  0  0  0  0
  -40.2773    5.3414    2.0497 N   0  0  0  0  0  0  0  0  0  0  0  0
  -38.2374    4.3680    0.7868 C   0  0  0  0  0  0  0  0  0  0  0  0
  -42.2882    5.5280    0.7467 N   0  0  0  0  0  0  0  0  0  0  0  0
  -39.5740    3.8686   -2.0828 H   0  0  0  0  0  0  0  0  0  0  0  0
  -41.8777    4.4954   -2.3485 H   0  0  0  0  0  0  0  0  0  0  0  0
  -43.3088    5.0847   -1.6328 H   0  0  0  0  0  0  0  0  0  0  0  0
  -33.1555    4.2654   -0.2229 O   0  0  0  0  0  0  0  0  0  0  0  0
  -33.4162    3.9844    1.1488 C   0  0  0  0  0  0  0  0  0  0  0  0
  -33.8374    2.5407    1.2883 C   0  0  0  0  0  0  0  0  0  0  0  0
  -35.3646    2.5956    1.1838 C   0  0  0  0  0  0  0  0  0  0  0  0
  -35.7419    4.0154    1.1690 N   0  0  0  0  0  0  0  0  0  0  0  0
  -34.5935    4.7597    1.7254 C   0  0  0  0  0  0  0  0  0  0  0  0
  -32.3972    3.7398   -0.5222 H   0  0  0  0  0  0  0  0  0  0  0  0
  -33.4790    1.9371    2.6403 C   0  0  0  0  0  0  0  0  0  0  0  0
  -34.8235    1.3370    3.6221 S   0  0  0  0  0  0  0  0  0  0  0  0
  -33.9652    0.0466    4.4966 C   0  0  0  0  0  0  0  0  0  0  0  0
  -34.9383   -0.8854    5.2135 C   0  0  0  0  0  0  0  0  0  0  0  0
  -35.2899   -0.4298    6.6415 C   0  0  0  0  0  0  0  0  0  0  0  0
  -34.0681   -0.1387    7.4532 C   0  0  0  0  0  0  0  0  0  0  0  0
  2  9  2  0  0  0
  2 11  1  0  0  0
  3  4  2  0  0  0
  3  6  1  0  0  0
  3  7  1  0  0  0
  4  9  1  0  0  0
  4 10  1  0  0  0
  5  6  1  0  0  0
  5 10  2  0  0  0
 15 16  1  0  0  0
 16 17  1  0  0  0
 16 20  1  0  0  0
 17 22  1  0  0  0
 17 18  1  0  0  0
 22 23  1  0  0  0
 23 24  1  0  0  0
 24 25  1  0  0  0
 25 26  1  0  0  0
 26 27  1  0  0  0
 18 19  1  0  0  0
 19 20  1  0  0  0
 19  1  1  0  0  0
  1 10  1  0  0  0
  7  8  1  0  0  0
  7 11  2  0  0  0
 15 21  1  0  0  0
  6 12  1  0  0  0
  8 13  1  0  0  0
  8 14  1  0  0  0
M  END
> <minimizedAffinity>
-5.88468

$$$$
4F3C_BIG_A_301


 27 29  0  0  0  0  0  0  0  0999 V2000
  -35.3839    1.5399    2.6766 C   0  0  0  0  0  0  0  0  0  0  0  0
  -36.3411    5.9546    1.2718 C   0  0  0  0  0  0  0  0  0  0  0  0
  -34.0231    4.5569    0.7322 C   0  0  0  0  0  0  0  0  0  0  0  0
  -35.1265    3.9835    1.4838 C   0  0  0  0  0  0  0  0  0  0  0  0
  -33.4357    2.4968    1.3096 C   0  0  0  0  0  0  0  0  0  0  0  0
  -33.0587    3.6209    0.6574 N   0  0  0  0  0  0  0  0  0  0  0  0
  -34.1806    5.9236    0.2594 C   0  0  0  0  0  0  0  0  0  0  0  0
  -33.1818    6.4873   -0.4717 N   0  0  0  0  0  0  0  0  0  0  0  0
  -36.2498    4.6831    1.7531 N   0  0  0  0  0  0  0  0  0  0  0  0
  -34.6875    2.6221    1.8754 C   0  0  0  0  0  0  0  0  0  0  0  0
  -35.3683    6.5593    0.5370 N   0  0  0  0  0  0  0  0  0  0  0  0
  -32.1986    3.7379    0.1928 H   0  0  0  0  0  0  0  0  0  0  0  0
  -32.3515    5.9858   -0.6399 H   0  0  0  0  0  0  0  0  0  0  0  0
  -33.2892    7.3969   -0.8327 H   0  0  0  0  0  0  0  0  0  0  0  0
  -32.1773   -0.8095    4.4922 O   0  0  0  0  0  0  0  0  0  0  0  0
  -33.1843   -0.0773    5.1838 C   0  0  0  0  0  0  0  0  0  0  0  0
  -34.4318   -0.9226    5.2844 C   0  0  0  0  0  0  0  0  0  0  0  0
  -35.2378   -0.5308    4.0421 C   0  0  0  0  0  0  0  0  0  0  0  0
  -34.5336    0.5942    3.4122 N   0  0  0  0  0  0  0  0  0  0  0  0
  -33.6543    1.1715    4.4494 C   0  0  0  0  0  0  0  0  0  0  0  0
  -31.9268   -1.5874    5.0146 H   0  0  0  0  0  0  0  0  0  0  0  0
  -35.2757   -0.6063    6.5127 C   0  0  0  0  0  0  0  0  0  0  0  0
  -34.6780   -1.2152    8.0631 S   0  0  0  0  0  0  0  0  0  0  0  0
  -35.9423   -2.4257    8.3840 C   0  0  0  0  0  0  0  0  0  0  0  0
  -35.5712   -3.7882    7.8050 C   0  0  0  0  0  0  0  0  0  0  0  0
  -36.7751   -4.5713    7.2504 C   0  0  0  0  0  0  0  0  0  0  0  0
  -37.9161   -3.6702    6.9004 C   0  0  0  0  0  0  0  0  0  0  0  0
  2  9  2  0  0  0
  2 11  1  0  0  0
  3  4  2  0  0  0
  3  6  1  0  0  0
  3  7  1  0  0  0
  4  9  1  0  0  0
  4 10  1  0  0  0
  5  6  1  0  0  0
  5 10  2  0  0  0
 15 16  1  0  0  0
 16 17  1  0  0  0
 16 20  1  0  0  0
 17 22  1  0  0  0
 17 18  1  0  0  0
 22 23  1  0  0  0
 23 24  1  0  0  0
 24 25  1  0  0  0
 25 26  1  0  0  0
 26 27  1  0  0  0
 18 19  1  0  0  0
 19 20  1  0  0  0
 19  1  1  0  0  0
  1 10  1  0  0  0
  7  8  1  0  0  0
  7 11  2  0  0  0
 15 21  1  0  0  0
  6 12  1  0  0  0
  8 13  1  0  0  0
  8 14  1  0  0  0
M  END
> <minimizedAffinity>
-5.72311

$$$$
4F3C_BIG_A_301


 27 29  0  0  0  0  0  0  0  0999 V2000
  -33.9467    2.4783    2.9886 C   0  0  0  0  0  0  0  0  0  0  0  0
  -37.8698    3.2471    0.4593 C   0  0  0  0  0  0  0  0  0  0  0  0
  -35.2809    3.4766   -0.4695 C   0  0  0  0  0  0  0  0  0  0  0  0
  -35.5920    3.0684    0.8899 C   0  0  0  0  0  0  0  0  0  0  0  0
  -33.3561    3.1446    0.5829 C   0  0  0  0  0  0  0  0  0  0  0  0
  -33.9400    3.4919   -0.5873 N   0  0  0  0  0  0  0  0  0  0  0  0
  -36.4024    3.7669   -1.3491 C   0  0  0  0  0  0  0  0  0  0  0  0
  -36.1541    4.1256   -2.6374 N   0  0  0  0  0  0  0  0  0  0  0  0
  -36.8632    2.9736    1.3360 N   0  0  0  0  0  0  0  0  0  0  0  0
  -34.2861    2.8839    1.5679 C   0  0  0  0  0  0  0  0  0  0  0  0
  -37.6693    3.6095   -0.8371 N   0  0  0  0  0  0  0  0  0  0  0  0
  -33.4521    3.7235   -1.4104 H   0  0  0  0  0  0  0  0  0  0  0  0
  -35.2260    4.2239   -2.9508 H   0  0  0  0  0  0  0  0  0  0  0  0
  -36.9024    4.2868   -3.2565 H   0  0  0  0  0  0  0  0  0  0  0  0
  -32.5681   -1.6249    3.5896 O   0  0  0  0  0  0  0  0  0  0  0  0
  -33.1994   -0.7948    4.5595 C   0  0  0  0  0  0  0  0  0  0  0  0
  -34.6972   -0.8773    4.3840 C   0  0  0  0  0  0  0  0  0  0  0  0
  -35.0162    0.2800    3.4326 C   0  0  0  0  0  0  0  0  0  0  0  0
  -33.7739    1.0441    3.2563 N   0  0  0  0  0  0  0  0  0  0  0  0
  -32.8989    0.6889    4.3923 C   0  0  0  0  0  0  0  0  0  0  0  0
  -32.8020   -2.5516    3.7556 H   0  0  0  0  0  0  0  0  0  0  0  0
  -35.4682   -0.6498    5.6781 C   0  0  0  0  0  0  0  0  0  0  0  0
  -35.5362   -2.0088    6.8097 S   0  0  0  0  0  0  0  0  0  0  0  0
  -34.4291   -1.3809    8.0534 C   0  0  0  0  0  0  0  0  0  0  0  0
  -34.2761    0.1343    7.9518 C   0  0  0  0  0  0  0  0  0  0  0  0
  -35.1258    0.9100    8.9747 C   0  0  0  0  0  0  0  0  0  0  0  0
  -35.9847    0.0002    9.7939 C   0  0  0  0  0  0  0  0  0  0  0  0
  2  9  2  0  0  0
  2 11  1  0  0  0
  3  4  2  0  0  0
  3  6  1  0  0  0
  3  7  1  0  0  0
  4  9  1  0  0  0
  4 10  1  0  0  0
  5  6  1  0  0  0
  5 10  2  0  0  0
 15 16  1  0  0  0
 16 17  1  0  0  0
 16 20  1  0  0  0
 17 22  1  0  0  0
 17 18  1  0  0  0
 22 23  1  0  0  0
 23 24  1  0  0  0
 24 25  1  0  0  0
 25 26  1  0  0  0
 26 27  1  0  0  0
 18 19  1  0  0  0
 19 20  1  0  0  0
 19  1  1  0  0  0
  1 10  1  0  0  0
  7  8  1  0  0  0
  7 11  2  0  0  0
 15 21  1  0  0  0
  6 12  1  0  0  0
  8 13  1  0  0  0
  8 14  1  0  0  0
M  END
> <minimizedAffinity>
-5.39780

$$$$
4F3C_BIG_A_301


 27 29  0  0  0  0  0  0  0  0999 V2000
  -35.3887    1.3768    2.9459 C   0  0  0  0  0  0  0  0  0  0  0  0
  -36.5737    5.1721    0.3826 C   0  0  0  0  0  0  0  0  0  0  0  0
  -34.0018    4.3632    0.9728 C   0  0  0  0  0  0  0  0  0  0  0  0
  -35.1748    3.6269    1.4126 C   0  0  0  0  0  0  0  0  0  0  0  0
  -33.2918    2.6183    2.1449 C   0  0  0  0  0  0  0  0  0  0  0  0
  -32.9201    3.7067    1.4321 N   0  0  0  0  0  0  0  0  0  0  0  0
  -34.2286    5.5690    0.1915 C   0  0  0  0  0  0  0  0  0  0  0  0
  -33.1562    6.2716   -0.2627 N   0  0  0  0  0  0  0  0  0  0  0  0
  -36.4284    4.0414    1.1288 N   0  0  0  0  0  0  0  0  0  0  0  0
  -34.6634    2.4883    2.2134 C   0  0  0  0  0  0  0  0  0  0  0  0
  -35.5313    5.9067   -0.0926 N   0  0  0  0  0  0  0  0  0  0  0  0
  -31.9881    3.9805    1.2717 H   0  0  0  0  0  0  0  0  0  0  0  0
  -32.2443    5.9842   -0.0280 H   0  0  0  0  0  0  0  0  0  0  0  0
  -33.2919    7.0675   -0.8261 H   0  0  0  0  0  0  0  0  0  0  0  0
  -32.5402   -0.2759    5.8186 O   0  0  0  0  0  0  0  0  0  0  0  0
  -33.9405   -0.1084    6.0177 C   0  0  0  0  0  0  0  0  0  0  0  0
  -34.6709   -1.2898    5.4247 C   0  0  0  0  0  0  0  0  0  0  0  0
  -34.9911   -0.8397    3.9960 C   0  0  0  0  0  0  0  0  0  0  0  0
  -34.6069    0.5748    3.8966 N   0  0  0  0  0  0  0  0  0  0  0  0
  -34.5307    1.0864    5.2803 C   0  0  0  0  0  0  0  0  0  0  0  0
  -32.2335   -1.0511    6.3146 H   0  0  0  0  0  0  0  0  0  0  0  0
  -35.9867   -1.5985    6.1276 C   0  0  0  0  0  0  0  0  0  0  0  0
  -36.0883   -3.1491    6.9744 S   0  0  0  0  0  0  0  0  0  0  0  0
  -36.5303   -2.5469    8.5896 C   0  0  0  0  0  0  0  0  0  0  0  0
  -35.4382   -1.6528    9.1707 C   0  0  0  0  0  0  0  0  0  0  0  0
  -35.9520   -0.2819    9.6468 C   0  0  0  0  0  0  0  0  0  0  0  0
  -35.1841    0.8468    9.0360 C   0  0  0  0  0  0  0  0  0  0  0  0
  2  9  2  0  0  0
  2 11  1  0  0  0
  3  4  2  0  0  0
  3  6  1  0  0  0
  3  7  1  0  0  0
  4  9  1  0  0  0
  4 10  1  0  0  0
  5  6  1  0  0  0
  5 10  2  0  0  0
 15 16  1  0  0  0
 16 17  1  0  0  0
 16 20  1  0  0  0
 17 22  1  0  0  0
 17 18  1  0  0  0
 22 23  1  0  0  0
 23 24  1  0  0  0
 24 25  1  0  0  0
 25 26  1  0  0  0
 26 27  1  0  0  0
 18 19  1  0  0  0
 19 20  1  0  0  0
 19  1  1  0  0  0
  1 10  1  0  0  0
  7  8  1  0  0  0
  7 11  2  0  0  0
 15 21  1  0  0  0
  6 12  1  0  0  0
  8 13  1  0  0  0
  8 14  1  0  0  0
M  END
> <minimizedAffinity>
-5.02078

$$$$
