4F3C_BIG_A_301
  RCSB PDB12061712283D
Coordinates from PDB:4F3C:A:301 Model:1 without hydrogens
 23 25  0  0  0  0            999 V2000
  -34.3010   -6.1450    6.7960   C 0  0  0  0  0  0  0  0  0  0  0  0
  -36.9270   -5.5140    6.2270   C 0  0  0  0  0  0  0  0  0  0  0  0
  -36.1450   -4.7930    7.2170   C 0  0  0  0  0  0  0  0  0  0  0  0
  -38.2390   -3.9550    7.1050   C 0  0  0  0  0  0  0  0  0  0  0  0
  -33.9220    0.5060    8.7140   O 0  0  0  0  0  0  0  0  0  0  0  0
  -34.0160   -0.5930    7.8130   C 0  0  0  0  0  0  0  0  0  0  0  0
  -35.0500   -0.2820    6.7570   C 0  0  0  0  0  0  0  0  0  0  0  0
  -34.7770   -0.9710    5.4260   C 0  0  0  0  0  0  0  0  0  0  0  0
  -33.4450   -0.3240    4.4570   S 0  0  0  0  0  0  0  0  0  0  0  0
  -34.3670    0.8330    3.4680   C 0  0  0  0  0  0  0  0  0  0  0  0
  -33.4760    1.5220    2.4380   C 0  0  0  0  0  0  0  0  0  0  0  0
  -33.9780    2.9170    2.0230   C 0  0  0  0  0  0  0  0  0  0  0  0
  -35.3260    2.8580    1.3780   C 0  0  0  0  0  0  0  0  0  0  0  0
  -36.3450   -0.8620    7.3340   C 0  0  0  0  0  0  0  0  0  0  0  0
  -35.9790   -1.5990    8.5510   N 0  0  0  0  0  0  0  0  0  0  0  0
  -34.5310   -1.8750    8.4540   C 0  0  0  0  0  0  0  0  0  0  0  0
  -36.8410   -2.7420    8.8810   C 0  0  0  0  0  0  0  0  0  0  0  0
  -38.1540   -4.9610    6.2040   N 0  0  0  0  0  0  0  0  0  0  0  0
  -36.2680   -6.6050    5.5260   C 0  0  0  0  0  0  0  0  0  0  0  0
  -36.9570   -7.2870    4.5720   N 0  0  0  0  0  0  0  0  0  0  0  0
  -34.8650   -5.1210    7.4960   N 0  0  0  0  0  0  0  0  0  0  0  0
  -37.0600   -3.7820    7.8000   C 0  0  0  0  0  0  0  0  0  0  0  0
  -34.9510   -6.8550    5.8340   N 0  0  0  0  0  0  0  0  0  0  0  0
  1 21  2  0  0  0  0
  1 23  1  0  0  0  0
  2  3  2  0  0  0  0
  2 18  1  0  0  0  0
  2 19  1  0  0  0  0
  3 21  1  0  0  0  0
  3 22  1  0  0  0  0
  4 18  1  0  0  0  0
  4 22  2  0  0  0  0
  5  6  1  0  0  0  0
  6  7  1  0  0  0  0
  6 16  1  0  0  0  0
  7  8  1  0  0  0  0
  7 14  1  0  0  0  0
  8  9  1  0  0  0  0
  9 10  1  0  0  0  0
 10 11  1  0  0  0  0
 11 12  1  0  0  0  0
 12 13  1  0  0  0  0
 14 15  1  0  0  0  0
 15 16  1  0  0  0  0
 15 17  1  0  0  0  0
 17 22  1  0  0  0  0
 19 20  1  0  0  0  0
 19 23  2  0  0  0  0
A    1
C2
A    2
C5
A    3
C4
A    4
C8
A    5
O3'
A    6
C3'
A    7
C4'
A    8
C5'
A    9
S5'
A   10
C20
A   11
C21
A   12
C22
A   13
C23
A   14
C1'
A   15
N1'
A   16
C2'
A   17
C10
A   18
N7
A   19
C6
A   20
N6
A   21
N3
A   22
C9
A   23
N1
M  END
>  <InstanceId>
4F3C_BIG_A_301

>  <ChemCompId>
BIG

>  <PdbId>
4F3C

>  <ChainId>
A

>  <ResidueNumber>
301

>  <InsertionCode>


>  <Model>
1

>  <AltIds>


>  <MissingHeavyAtoms>
0

>  <ObservedFormula>
C16 N5 O S

>  <Name>
(3R,4S)-1-[(4-amino-5H-pyrrolo[3,2-d]pyrimidin-7-yl)methyl]-4-[(butylsulfanyl)methyl]pyrrolidin-3-ol

>  <SystematicName>
(1S,3R,4S)-1-[(4-amino-5H-pyrrolo[5,4-e]pyrimidin-7-yl)methyl]-4-(butylsulfanylmethyl)pyrrolidin-3-ol

>  <Synonyms>
butylthio-DADMe-Immucillin A

>  <Type>
NON-POLYMER

>  <Formula>
C16 H25 N5 O S

>  <MolecularWeight>
335.468

>  <ModifiedDate>
2011-06-04

>  <Parent>


>  <OneLetterCode>


>  <SubcomponentList>


>  <AmbiguousFlag>
N

>  <InChI>
InChI=1S/C16H25N5OS/c1-2-3-4-23-9-12-7-21(8-13(12)22)6-11-5-18-15-14(11)19-10-20-16(15)17/h5,10,12-13,18,22H,2-4,6-9H2,1H3,(H2,17,19,20)/t12-,13+/m1/s1

>  <InChIKey>
LTSUEVPGSXUJHT-OLZOCXBDSA-N

>  <SMILES>
CCCCSC[C@H]1C[N@](C[C@@H]1O)Cc2c[nH]c3c2ncnc3N

$$$$
