3MHO_J43_A_265


 25 26  0  0  0  0  0  0  0  0999 V2000
   -3.8934    5.0778   13.7532 N   0  0  0  0  0  0  0  0  0  0  0  0
   -3.7320    5.9663   14.1454 H   0  0  0  0  0  0  0  0  0  0  0  0
   -2.7498    4.2921    9.8722 N   0  0  0  0  0  0  0  0  0  0  0  0
   -2.2453    3.6584   10.9216 C   0  0  0  0  0  0  0  0  0  0  0  0
   -2.6505    3.9722   12.1417 N   0  0  0  0  0  0  0  0  0  0  0  0
   -3.5371    4.9382   12.3841 C   0  0  0  0  0  0  0  0  0  0  0  0
   -4.1207    5.6068   11.3107 C   0  0  0  0  0  0  0  0  0  0  0  0
   -3.6632    5.2508   10.0374 C   0  0  0  0  0  0  0  0  0  0  0  0
   -4.2691    6.0377    8.6290 Cl  0  0  0  0  0  0  0  0  0  0  0  0
   -5.1404    6.6707   11.5026 C   0  0  0  0  0  0  0  0  0  0  0  0
   -6.2143    6.5053   12.0769 O   0  0  0  0  0  0  0  0  0  0  0  0
   -1.0285    2.3757   10.7409 S   0  0  0  0  0  0  0  0  0  0  0  0
   -1.7730    0.7695   11.1238 C   0  0  0  0  0  0  0  0  0  0  0  0
   -4.4255    4.1545   14.5942 C   0  0  0  0  0  0  0  0  0  0  0  0
   -3.6945    3.1263   15.1851 C   0  0  0  0  0  0  0  0  0  0  0  0
   -4.3216    2.2577   16.0695 C   0  0  0  0  0  0  0  0  0  0  0  0
   -5.6829    2.4095   16.3523 C   0  0  0  0  0  0  0  0  0  0  0  0
   -6.4075    3.4429   15.7533 C   0  0  0  0  0  0  0  0  0  0  0  0
   -5.7729    4.3134   14.8763 C   0  0  0  0  0  0  0  0  0  0  0  0
   -6.4428    1.3393   17.4441 S   0  0  0  0  0  0  0  0  0  0  0  0
   -7.8518    1.1416   16.9696 O   0  0  0  0  0  0  0  0  0  0  0  0
   -6.2997    1.9980   18.7778 O   0  0  0  0  0  0  0  0  0  0  0  0
   -5.5897   -0.1441   17.4416 N   0  0  0  0  0  0  0  0  0  0  0  0
   -5.6888   -0.5918   16.5305 H   0  0  0  0  0  0  0  0  0  0  0  0
   -5.9694   -0.7559   18.1641 H   0  0  0  0  0  0  0  0  0  0  0  0
  3  4  2  0  0  0
  3  8  1  0  0  0
  4  5  1  0  0  0
  4 12  1  0  0  0
  5  6  2  0  0  0
  6  7  1  0  0  0
  6  1  1  0  0  0
  7  8  2  0  0  0
  7 10  1  0  0  0
  8  9  1  0  0  0
  1 14  1  0  0  0
 14 15  2  0  0  0
 14 19  1  0  0  0
 15 16  1  0  0  0
 16 17  2  0  0  0
 17 18  1  0  0  0
 17 20  1  0  0  0
 18 19  2  0  0  0
 20 21  2  0  0  0
 20 22  2  0  0  0
 20 23  1  0  0  0
 10 11  2  0  0  0
 12 13  1  0  0  0
  1  2  1  0  0  0
 23 24  1  0  0  0
 23 25  1  0  0  0
M  END
> <minimizedAffinity>
-7.51558

$$$$
3MHO_J43_A_265


 25 26  0  0  0  0  0  0  0  0999 V2000
   -3.1981    3.9771   13.4893 N   0  0  0  0  0  0  0  0  0  0  0  0
   -3.1428    4.9597   13.5169 H   0  0  0  0  0  0  0  0  0  0  0  0
   -1.3205    1.9146   10.4548 N   0  0  0  0  0  0  0  0  0  0  0  0
   -2.2875    1.3948   11.1978 C   0  0  0  0  0  0  0  0  0  0  0  0
   -2.8368    2.1117   12.1650 N   0  0  0  0  0  0  0  0  0  0  0  0
   -2.4397    3.3490   12.4640 C   0  0  0  0  0  0  0  0  0  0  0  0
   -1.4515    3.9494   11.6876 C   0  0  0  0  0  0  0  0  0  0  0  0
   -0.8919    3.1584   10.6783 C   0  0  0  0  0  0  0  0  0  0  0  0
    0.3740    3.7662    9.6792 Cl  0  0  0  0  0  0  0  0  0  0  0  0
   -0.9823    5.3367   11.9402 C   0  0  0  0  0  0  0  0  0  0  0  0
   -0.9428    5.8632   13.0500 O   0  0  0  0  0  0  0  0  0  0  0  0
   -2.8852   -0.2572   10.9290 S   0  0  0  0  0  0  0  0  0  0  0  0
   -4.6709   -0.2190   10.6277 C   0  0  0  0  0  0  0  0  0  0  0  0
   -3.9880    3.4085   14.4357 C   0  0  0  0  0  0  0  0  0  0  0  0
   -5.3693    3.5776   14.5016 C   0  0  0  0  0  0  0  0  0  0  0  0
   -6.0965    2.9151   15.4824 C   0  0  0  0  0  0  0  0  0  0  0  0
   -5.4405    2.0943   16.4055 C   0  0  0  0  0  0  0  0  0  0  0  0
   -4.0548    1.9325   16.3318 C   0  0  0  0  0  0  0  0  0  0  0  0
   -3.3340    2.5910   15.3435 C   0  0  0  0  0  0  0  0  0  0  0  0
   -6.3444    1.2813   17.6041 S   0  0  0  0  0  0  0  0  0  0  0  0
   -5.6521   -0.0202   17.8809 O   0  0  0  0  0  0  0  0  0  0  0  0
   -7.7186    1.1690   17.0276 O   0  0  0  0  0  0  0  0  0  0  0  0
   -6.3895    2.2540   19.0113 N   0  0  0  0  0  0  0  0  0  0  0  0
   -5.4507    2.3291   19.4029 H   0  0  0  0  0  0  0  0  0  0  0  0
   -7.0116    1.8287   19.6987 H   0  0  0  0  0  0  0  0  0  0  0  0
  3  4  2  0  0  0
  3  8  1  0  0  0
  4  5  1  0  0  0
  4 12  1  0  0  0
  5  6  2  0  0  0
  6  7  1  0  0  0
  6  1  1  0  0  0
  7  8  2  0  0  0
  7 10  1  0  0  0
  8  9  1  0  0  0
  1 14  1  0  0  0
 14 15  2  0  0  0
 14 19  1  0  0  0
 15 16  1  0  0  0
 16 17  2  0  0  0
 17 18  1  0  0  0
 17 20  1  0  0  0
 18 19  2  0  0  0
 20 21  2  0  0  0
 20 22  2  0  0  0
 20 23  1  0  0  0
 10 11  2  0  0  0
 12 13  1  0  0  0
  1  2  1  0  0  0
 23 24  1  0  0  0
 23 25  1  0  0  0
M  END
> <minimizedAffinity>
-7.39351

$$$$
3MHO_J43_A_265


 25 26  0  0  0  0  0  0  0  0999 V2000
   -3.7355    5.0948   13.7709 N   0  0  0  0  0  0  0  0  0  0  0  0
   -4.2891    5.8860   13.5789 H   0  0  0  0  0  0  0  0  0  0  0  0
   -0.2040    4.7694   11.6708 N   0  0  0  0  0  0  0  0  0  0  0  0
   -1.1378    3.8283   11.6741 C   0  0  0  0  0  0  0  0  0  0  0  0
   -2.2427    3.9951   12.3829 N   0  0  0  0  0  0  0  0  0  0  0  0
   -2.4616    5.0704   13.1404 C   0  0  0  0  0  0  0  0  0  0  0  0
   -1.5248    6.1011   13.1402 C   0  0  0  0  0  0  0  0  0  0  0  0
   -0.3683    5.8858   12.3829 C   0  0  0  0  0  0  0  0  0  0  0  0
    0.8902    7.0624   12.3384 Cl  0  0  0  0  0  0  0  0  0  0  0  0
   -1.7167    7.3434   13.9329 C   0  0  0  0  0  0  0  0  0  0  0  0
   -2.2378    7.3816   15.0453 O   0  0  0  0  0  0  0  0  0  0  0  0
   -0.9551    2.3291   10.7372 S   0  0  0  0  0  0  0  0  0  0  0  0
   -2.1372    1.0911   11.3293 C   0  0  0  0  0  0  0  0  0  0  0  0
   -4.2937    4.1773   14.6012 C   0  0  0  0  0  0  0  0  0  0  0  0
   -3.5802    3.1574   15.2270 C   0  0  0  0  0  0  0  0  0  0  0  0
   -4.2351    2.2945   16.0968 C   0  0  0  0  0  0  0  0  0  0  0  0
   -5.6060    2.4436   16.3302 C   0  0  0  0  0  0  0  0  0  0  0  0
   -6.3127    3.4686   15.6964 C   0  0  0  0  0  0  0  0  0  0  0  0
   -5.6507    4.3335   14.8342 C   0  0  0  0  0  0  0  0  0  0  0  0
   -6.4000    1.3806   17.4044 S   0  0  0  0  0  0  0  0  0  0  0  0
   -7.8066    1.2138   16.9112 O   0  0  0  0  0  0  0  0  0  0  0  0
   -6.2607    2.0267   18.7447 O   0  0  0  0  0  0  0  0  0  0  0  0
   -5.5759   -0.1192   17.4013 N   0  0  0  0  0  0  0  0  0  0  0  0
   -5.6724   -0.5582   16.4857 H   0  0  0  0  0  0  0  0  0  0  0  0
   -5.9764   -0.7286   18.1145 H   0  0  0  0  0  0  0  0  0  0  0  0
  3  4  2  0  0  0
  3  8  1  0  0  0
  4  5  1  0  0  0
  4 12  1  0  0  0
  5  6  2  0  0  0
  6  7  1  0  0  0
  6  1  1  0  0  0
  7  8  2  0  0  0
  7 10  1  0  0  0
  8  9  1  0  0  0
  1 14  1  0  0  0
 14 15  2  0  0  0
 14 19  1  0  0  0
 15 16  1  0  0  0
 16 17  2  0  0  0
 17 18  1  0  0  0
 17 20  1  0  0  0
 18 19  2  0  0  0
 20 21  2  0  0  0
 20 22  2  0  0  0
 20 23  1  0  0  0
 10 11  2  0  0  0
 12 13  1  0  0  0
  1  2  1  0  0  0
 23 24  1  0  0  0
 23 25  1  0  0  0
M  END
> <minimizedAffinity>
-7.26901

$$$$
3MHO_J43_A_265


 25 26  0  0  0  0  0  0  0  0999 V2000
   -3.8000    5.2514   13.8542 N   0  0  0  0  0  0  0  0  0  0  0  0
   -3.2704    5.9594   14.2871 H   0  0  0  0  0  0  0  0  0  0  0  0
   -3.9713    5.5696    9.7485 N   0  0  0  0  0  0  0  0  0  0  0  0
   -4.9263    6.0148   10.5531 C   0  0  0  0  0  0  0  0  0  0  0  0
   -4.8102    5.8667   11.8629 N   0  0  0  0  0  0  0  0  0  0  0  0
   -3.7748    5.2493   12.4328 C   0  0  0  0  0  0  0  0  0  0  0  0
   -2.7305    4.7969   11.6301 C   0  0  0  0  0  0  0  0  0  0  0  0
   -2.8919    4.9670   10.2508 C   0  0  0  0  0  0  0  0  0  0  0  0
   -1.6946    4.4060    9.1454 Cl  0  0  0  0  0  0  0  0  0  0  0  0
   -1.5295    4.1301   12.1974 C   0  0  0  0  0  0  0  0  0  0  0  0
   -1.3703    2.9124   12.2435 O   0  0  0  0  0  0  0  0  0  0  0  0
   -6.3772    6.8234    9.9210 S   0  0  0  0  0  0  0  0  0  0  0  0
   -7.1412    7.8168   11.2287 C   0  0  0  0  0  0  0  0  0  0  0  0
   -4.4540    4.4115   14.6967 C   0  0  0  0  0  0  0  0  0  0  0  0
   -5.7736    4.5907   15.1060 C   0  0  0  0  0  0  0  0  0  0  0  0
   -6.3696    3.6489   15.9352 C   0  0  0  0  0  0  0  0  0  0  0  0
   -5.6417    2.5350   16.3656 C   0  0  0  0  0  0  0  0  0  0  0  0
   -4.3185    2.3652   15.9507 C   0  0  0  0  0  0  0  0  0  0  0  0
   -3.7305    3.3061   15.1147 C   0  0  0  0  0  0  0  0  0  0  0  0
   -6.3852    1.3813   17.3809 S   0  0  0  0  0  0  0  0  0  0  0  0
   -7.7953    1.2054   16.9010 O   0  0  0  0  0  0  0  0  0  0  0  0
   -6.2398    1.9428   18.7581 O   0  0  0  0  0  0  0  0  0  0  0  0
   -5.5190   -0.0900   17.2659 N   0  0  0  0  0  0  0  0  0  0  0  0
   -5.6197   -0.4712   16.3252 H   0  0  0  0  0  0  0  0  0  0  0  0
   -5.8887   -0.7561   17.9441 H   0  0  0  0  0  0  0  0  0  0  0  0
  3  4  2  0  0  0
  3  8  1  0  0  0
  4  5  1  0  0  0
  4 12  1  0  0  0
  5  6  2  0  0  0
  6  7  1  0  0  0
  6  1  1  0  0  0
  7  8  2  0  0  0
  7 10  1  0  0  0
  8  9  1  0  0  0
  1 14  1  0  0  0
 14 15  2  0  0  0
 14 19  1  0  0  0
 15 16  1  0  0  0
 16 17  2  0  0  0
 17 18  1  0  0  0
 17 20  1  0  0  0
 18 19  2  0  0  0
 20 21  2  0  0  0
 20 22  2  0  0  0
 20 23  1  0  0  0
 10 11  2  0  0  0
 12 13  1  0  0  0
  1  2  1  0  0  0
 23 24  1  0  0  0
 23 25  1  0  0  0
M  END
> <minimizedAffinity>
-7.24895

$$$$
3MHO_J43_A_265


 25 26  0  0  0  0  0  0  0  0999 V2000
   -4.3098    5.4838   13.5526 N   0  0  0  0  0  0  0  0  0  0  0  0
   -3.8748    6.2480   13.9954 H   0  0  0  0  0  0  0  0  0  0  0  0
   -4.8551    6.0861    9.5118 N   0  0  0  0  0  0  0  0  0  0  0  0
   -5.7047    6.5188   10.4330 C   0  0  0  0  0  0  0  0  0  0  0  0
   -5.4720    6.2775   11.7131 N   0  0  0  0  0  0  0  0  0  0  0  0
   -4.4204    5.5766   12.1383 C   0  0  0  0  0  0  0  0  0  0  0  0
   -3.4822    5.1325   11.2097 C   0  0  0  0  0  0  0  0  0  0  0  0
   -3.7653    5.4026    9.8665 C   0  0  0  0  0  0  0  0  0  0  0  0
   -2.7095    4.8638    8.6155 Cl  0  0  0  0  0  0  0  0  0  0  0  0
   -2.2687    4.3751   11.6129 C   0  0  0  0  0  0  0  0  0  0  0  0
   -1.4980    4.7252   12.5038 O   0  0  0  0  0  0  0  0  0  0  0  0
   -7.1655    7.4334    9.9990 S   0  0  0  0  0  0  0  0  0  0  0  0
   -7.7572    6.9027    8.3715 C   0  0  0  0  0  0  0  0  0  0  0  0
   -4.7215    4.4865   14.3764 C   0  0  0  0  0  0  0  0  0  0  0  0
   -3.9477    3.3741   14.6999 C   0  0  0  0  0  0  0  0  0  0  0  0
   -4.4414    2.4291   15.5904 C   0  0  0  0  0  0  0  0  0  0  0  0
   -5.7145    2.5899   16.1468 C   0  0  0  0  0  0  0  0  0  0  0  0
   -6.4833    3.7081   15.8147 C   0  0  0  0  0  0  0  0  0  0  0  0
   -5.9807    4.6540   14.9302 C   0  0  0  0  0  0  0  0  0  0  0  0
   -6.3098    1.4249   17.2435 S   0  0  0  0  0  0  0  0  0  0  0  0
   -7.7358    1.1469   16.8710 O   0  0  0  0  0  0  0  0  0  0  0  0
   -6.1047    2.0373   18.5912 O   0  0  0  0  0  0  0  0  0  0  0  0
   -5.3612    0.0072   17.1065 N   0  0  0  0  0  0  0  0  0  0  0  0
   -5.5028   -0.4090   16.1861 H   0  0  0  0  0  0  0  0  0  0  0  0
   -5.6392   -0.6589   17.8272 H   0  0  0  0  0  0  0  0  0  0  0  0
  3  4  2  0  0  0
  3  8  1  0  0  0
  4  5  1  0  0  0
  4 12  1  0  0  0
  5  6  2  0  0  0
  6  7  1  0  0  0
  6  1  1  0  0  0
  7  8  2  0  0  0
  7 10  1  0  0  0
  8  9  1  0  0  0
  1 14  1  0  0  0
 14 15  2  0  0  0
 14 19  1  0  0  0
 15 16  1  0  0  0
 16 17  2  0  0  0
 17 18  1  0  0  0
 17 20  1  0  0  0
 18 19  2  0  0  0
 20 21  2  0  0  0
 20 22  2  0  0  0
 20 23  1  0  0  0
 10 11  2  0  0  0
 12 13  1  0  0  0
  1  2  1  0  0  0
 23 24  1  0  0  0
 23 25  1  0  0  0
M  END
> <minimizedAffinity>
-7.12835

$$$$
3MHO_J43_A_265


 25 26  0  0  0  0  0  0  0  0999 V2000
   -3.9801    3.6057   12.5602 N   0  0  0  0  0  0  0  0  0  0  0  0
   -4.5109    3.4853   11.7399 H   0  0  0  0  0  0  0  0  0  0  0  0
   -0.4596    5.7432   12.4031 N   0  0  0  0  0  0  0  0  0  0  0  0
   -1.5677    6.2069   12.9639 C   0  0  0  0  0  0  0  0  0  0  0  0
   -2.6666    5.4696   12.9662 N   0  0  0  0  0  0  0  0  0  0  0  0
   -2.7334    4.2680   12.3921 C   0  0  0  0  0  0  0  0  0  0  0  0
   -1.5846    3.7249   11.8221 C   0  0  0  0  0  0  0  0  0  0  0  0
   -0.4447    4.5360   11.8348 C   0  0  0  0  0  0  0  0  0  0  0  0
    1.0282    4.0011   11.1176 Cl  0  0  0  0  0  0  0  0  0  0  0  0
   -1.5750    2.3778   11.1943 C   0  0  0  0  0  0  0  0  0  0  0  0
   -1.6950    1.3237   11.8147 O   0  0  0  0  0  0  0  0  0  0  0  0
   -1.6253    7.8088   13.7316 S   0  0  0  0  0  0  0  0  0  0  0  0
   -0.0240    8.6340   13.5435 C   0  0  0  0  0  0  0  0  0  0  0  0
   -4.5392    3.1163   13.6964 C   0  0  0  0  0  0  0  0  0  0  0  0
   -5.5038    3.7900   14.4424 C   0  0  0  0  0  0  0  0  0  0  0  0
   -6.0494    3.1840   15.5671 C   0  0  0  0  0  0  0  0  0  0  0  0
   -5.6204    1.9100   15.9532 C   0  0  0  0  0  0  0  0  0  0  0  0
   -4.6514    1.2435   15.1991 C   0  0  0  0  0  0  0  0  0  0  0  0
   -4.1156    1.8511   14.0706 C   0  0  0  0  0  0  0  0  0  0  0  0
   -6.3007    1.1726   17.3345 S   0  0  0  0  0  0  0  0  0  0  0  0
   -5.4669   -0.0321   17.6553 O   0  0  0  0  0  0  0  0  0  0  0  0
   -7.7174    0.8908   16.9513 O   0  0  0  0  0  0  0  0  0  0  0  0
   -6.2673    2.2933   18.6272 N   0  0  0  0  0  0  0  0  0  0  0  0
   -5.2995    2.4841   18.8869 H   0  0  0  0  0  0  0  0  0  0  0  0
   -6.7637    1.9032   19.4283 H   0  0  0  0  0  0  0  0  0  0  0  0
  3  4  2  0  0  0
  3  8  1  0  0  0
  4  5  1  0  0  0
  4 12  1  0  0  0
  5  6  2  0  0  0
  6  7  1  0  0  0
  6  1  1  0  0  0
  7  8  2  0  0  0
  7 10  1  0  0  0
  8  9  1  0  0  0
  1 14  1  0  0  0
 14 15  2  0  0  0
 14 19  1  0  0  0
 15 16  1  0  0  0
 16 17  2  0  0  0
 17 18  1  0  0  0
 17 20  1  0  0  0
 18 19  2  0  0  0
 20 21  2  0  0  0
 20 22  2  0  0  0
 20 23  1  0  0  0
 10 11  2  0  0  0
 12 13  1  0  0  0
  1  2  1  0  0  0
 23 24  1  0  0  0
 23 25  1  0  0  0
M  END
> <minimizedAffinity>
-7.07243

$$$$
3MHO_J43_A_265


 25 26  0  0  0  0  0  0  0  0999 V2000
   -4.9714    5.3990   13.1037 N   0  0  0  0  0  0  0  0  0  0  0  0
   -5.7290    5.8729   12.6905 H   0  0  0  0  0  0  0  0  0  0  0  0
   -1.1580    6.4533   11.9488 N   0  0  0  0  0  0  0  0  0  0  0  0
   -1.7984    7.0296   12.9565 C   0  0  0  0  0  0  0  0  0  0  0  0
   -3.0279    6.6486   13.2634 N   0  0  0  0  0  0  0  0  0  0  0  0
   -3.6894    5.7159   12.5775 C   0  0  0  0  0  0  0  0  0  0  0  0
   -3.0440    5.0578   11.5334 C   0  0  0  0  0  0  0  0  0  0  0  0
   -1.7475    5.4915   11.2361 C   0  0  0  0  0  0  0  0  0  0  0  0
   -0.8588    4.7928    9.9353 Cl  0  0  0  0  0  0  0  0  0  0  0  0
   -3.7059    3.9847   10.7466 C   0  0  0  0  0  0  0  0  0  0  0  0
   -4.8983    3.9793   10.4489 O   0  0  0  0  0  0  0  0  0  0  0  0
   -1.0454    8.3124   13.9291 S   0  0  0  0  0  0  0  0  0  0  0  0
   -1.8592    8.4116   15.5442 C   0  0  0  0  0  0  0  0  0  0  0  0
   -5.2948    4.5328   14.0977 C   0  0  0  0  0  0  0  0  0  0  0  0
   -6.0783    4.8690   15.1995 C   0  0  0  0  0  0  0  0  0  0  0  0
   -6.3924    3.8974   16.1414 C   0  0  0  0  0  0  0  0  0  0  0  0
   -5.9116    2.5930   15.9882 C   0  0  0  0  0  0  0  0  0  0  0  0
   -5.1253    2.2664   14.8806 C   0  0  0  0  0  0  0  0  0  0  0  0
   -4.8216    3.2402   13.9377 C   0  0  0  0  0  0  0  0  0  0  0  0
   -6.3073    1.4055   17.1493 S   0  0  0  0  0  0  0  0  0  0  0  0
   -7.7246    0.9856   16.8951 O   0  0  0  0  0  0  0  0  0  0  0  0
   -6.0591    2.0687   18.4653 O   0  0  0  0  0  0  0  0  0  0  0  0
   -5.2409    0.0801   16.9637 N   0  0  0  0  0  0  0  0  0  0  0  0
   -5.4122   -0.3708   16.0650 H   0  0  0  0  0  0  0  0  0  0  0  0
   -5.3980   -0.5906   17.7160 H   0  0  0  0  0  0  0  0  0  0  0  0
  3  4  2  0  0  0
  3  8  1  0  0  0
  4  5  1  0  0  0
  4 12  1  0  0  0
  5  6  2  0  0  0
  6  7  1  0  0  0
  6  1  1  0  0  0
  7  8  2  0  0  0
  7 10  1  0  0  0
  8  9  1  0  0  0
  1 14  1  0  0  0
 14 15  2  0  0  0
 14 19  1  0  0  0
 15 16  1  0  0  0
 16 17  2  0  0  0
 17 18  1  0  0  0
 17 20  1  0  0  0
 18 19  2  0  0  0
 20 21  2  0  0  0
 20 22  2  0  0  0
 20 23  1  0  0  0
 10 11  2  0  0  0
 12 13  1  0  0  0
  1  2  1  0  0  0
 23 24  1  0  0  0
 23 25  1  0  0  0
M  END
> <minimizedAffinity>
-6.95844

$$$$
3MHO_J43_A_265


 25 26  0  0  0  0  0  0  0  0999 V2000
   -4.2340    3.6320   12.5564 N   0  0  0  0  0  0  0  0  0  0  0  0
   -4.2110    3.1222   11.7145 H   0  0  0  0  0  0  0  0  0  0  0  0
   -3.2876    7.6348   12.2922 N   0  0  0  0  0  0  0  0  0  0  0  0
   -4.4061    7.1179   11.8028 C   0  0  0  0  0  0  0  0  0  0  0  0
   -4.6383    5.8198   11.9125 N   0  0  0  0  0  0  0  0  0  0  0  0
   -3.7730    4.9742   12.4732 C   0  0  0  0  0  0  0  0  0  0  0  0
   -2.6009    5.4768   13.0329 C   0  0  0  0  0  0  0  0  0  0  0  0
   -2.3887    6.8526   12.8927 C   0  0  0  0  0  0  0  0  0  0  0  0
   -0.9540    7.5913   13.4977 Cl  0  0  0  0  0  0  0  0  0  0  0  0
   -1.6063    4.5997   13.7038 C   0  0  0  0  0  0  0  0  0  0  0  0
   -1.7791    4.0667   14.7976 O   0  0  0  0  0  0  0  0  0  0  0  0
   -5.6269    8.1281   10.9980 S   0  0  0  0  0  0  0  0  0  0  0  0
   -7.2755    7.7020   11.6154 C   0  0  0  0  0  0  0  0  0  0  0  0
   -4.7017    2.9566   13.6372 C   0  0  0  0  0  0  0  0  0  0  0  0
   -4.2754    1.6818   14.0032 C   0  0  0  0  0  0  0  0  0  0  0  0
   -4.7815    1.0925   15.1549 C   0  0  0  0  0  0  0  0  0  0  0  0
   -5.7238    1.7727   15.9330 C   0  0  0  0  0  0  0  0  0  0  0  0
   -6.1459    3.0501   15.5565 C   0  0  0  0  0  0  0  0  0  0  0  0
   -5.6300    3.6377   14.4083 C   0  0  0  0  0  0  0  0  0  0  0  0
   -6.3359    1.0411   17.3489 S   0  0  0  0  0  0  0  0  0  0  0  0
   -5.5926   -0.2468   17.5446 O   0  0  0  0  0  0  0  0  0  0  0  0
   -7.8029    0.9054   17.0982 O   0  0  0  0  0  0  0  0  0  0  0  0
   -6.0741    2.0975   18.6694 N   0  0  0  0  0  0  0  0  0  0  0  0
   -5.0724    2.1886   18.8386 H   0  0  0  0  0  0  0  0  0  0  0  0
   -6.5266    1.7198   19.5019 H   0  0  0  0  0  0  0  0  0  0  0  0
  3  4  2  0  0  0
  3  8  1  0  0  0
  4  5  1  0  0  0
  4 12  1  0  0  0
  5  6  2  0  0  0
  6  7  1  0  0  0
  6  1  1  0  0  0
  7  8  2  0  0  0
  7 10  1  0  0  0
  8  9  1  0  0  0
  1 14  1  0  0  0
 14 15  2  0  0  0
 14 19  1  0  0  0
 15 16  1  0  0  0
 16 17  2  0  0  0
 17 18  1  0  0  0
 17 20  1  0  0  0
 18 19  2  0  0  0
 20 21  2  0  0  0
 20 22  2  0  0  0
 20 23  1  0  0  0
 10 11  2  0  0  0
 12 13  1  0  0  0
  1  2  1  0  0  0
 23 24  1  0  0  0
 23 25  1  0  0  0
M  END
> <minimizedAffinity>
-6.90204

$$$$
3MHO_J43_A_265


 25 26  0  0  0  0  0  0  0  0999 V2000
   -4.0500    5.0718   13.4430 N   0  0  0  0  0  0  0  0  0  0  0  0
   -4.5768    5.8986   13.3532 H   0  0  0  0  0  0  0  0  0  0  0  0
   -0.5088    5.0323   11.3345 N   0  0  0  0  0  0  0  0  0  0  0  0
   -0.8139    5.9643   12.2266 C   0  0  0  0  0  0  0  0  0  0  0  0
   -1.9764    5.9211   12.8573 N   0  0  0  0  0  0  0  0  0  0  0  0
   -2.8967    4.9869   12.6161 C   0  0  0  0  0  0  0  0  0  0  0  0
   -2.6061    3.9671   11.7131 C   0  0  0  0  0  0  0  0  0  0  0  0
   -1.3700    4.0498   11.0632 C   0  0  0  0  0  0  0  0  0  0  0  0
   -0.9104    2.8776    9.8864 Cl  0  0  0  0  0  0  0  0  0  0  0  0
   -3.5690    2.8739   11.4192 C   0  0  0  0  0  0  0  0  0  0  0  0
   -4.7352    3.0521   11.0748 O   0  0  0  0  0  0  0  0  0  0  0  0
    0.3079    7.2869   12.6152 S   0  0  0  0  0  0  0  0  0  0  0  0
    1.8642    7.0507   11.7193 C   0  0  0  0  0  0  0  0  0  0  0  0
   -4.5248    4.1695   14.3393 C   0  0  0  0  0  0  0  0  0  0  0  0
   -3.7191    3.2955   15.0659 C   0  0  0  0  0  0  0  0  0  0  0  0
   -4.2973    2.4396   15.9949 C   0  0  0  0  0  0  0  0  0  0  0  0
   -5.6826    2.4485   16.1873 C   0  0  0  0  0  0  0  0  0  0  0  0
   -6.4819    3.3277   15.4525 C   0  0  0  0  0  0  0  0  0  0  0  0
   -5.8971    4.1871   14.5310 C   0  0  0  0  0  0  0  0  0  0  0  0
   -6.3823    1.3958   17.3347 S   0  0  0  0  0  0  0  0  0  0  0  0
   -7.8045    1.1624   16.9193 O   0  0  0  0  0  0  0  0  0  0  0  0
   -6.2007    2.0922   18.6443 O   0  0  0  0  0  0  0  0  0  0  0  0
   -5.5044   -0.0731   17.3386 N   0  0  0  0  0  0  0  0  0  0  0  0
   -5.6298   -0.5466   16.4439 H   0  0  0  0  0  0  0  0  0  0  0  0
   -5.8460   -0.6714   18.0908 H   0  0  0  0  0  0  0  0  0  0  0  0
  3  4  2  0  0  0
  3  8  1  0  0  0
  4  5  1  0  0  0
  4 12  1  0  0  0
  5  6  2  0  0  0
  6  7  1  0  0  0
  6  1  1  0  0  0
  7  8  2  0  0  0
  7 10  1  0  0  0
  8  9  1  0  0  0
  1 14  1  0  0  0
 14 15  2  0  0  0
 14 19  1  0  0  0
 15 16  1  0  0  0
 16 17  2  0  0  0
 17 18  1  0  0  0
 17 20  1  0  0  0
 18 19  2  0  0  0
 20 21  2  0  0  0
 20 22  2  0  0  0
 20 23  1  0  0  0
 10 11  2  0  0  0
 12 13  1  0  0  0
  1  2  1  0  0  0
 23 24  1  0  0  0
 23 25  1  0  0  0
M  END
> <minimizedAffinity>
-6.75430

$$$$
3MHO_J43_A_265


 25 26  0  0  0  0  0  0  0  0999 V2000
   -4.2000    3.4744   10.4746 N   0  0  0  0  0  0  0  0  0  0  0  0
   -4.8647    3.0816    9.8639 H   0  0  0  0  0  0  0  0  0  0  0  0
   -1.6389    6.1443    8.6582 N   0  0  0  0  0  0  0  0  0  0  0  0
   -1.3303    4.8736    8.8760 C   0  0  0  0  0  0  0  0  0  0  0  0
   -2.1980    4.0757    9.4772 N   0  0  0  0  0  0  0  0  0  0  0  0
   -3.3842    4.4966    9.9175 C   0  0  0  0  0  0  0  0  0  0  0  0
   -3.7663    5.8146    9.6791 C   0  0  0  0  0  0  0  0  0  0  0  0
   -2.8205    6.6281    9.0458 C   0  0  0  0  0  0  0  0  0  0  0  0
   -3.1506    8.2912    8.7376 Cl  0  0  0  0  0  0  0  0  0  0  0  0
   -5.0858    6.3450   10.1105 C   0  0  0  0  0  0  0  0  0  0  0  0
   -6.1564    5.7691    9.9300 O   0  0  0  0  0  0  0  0  0  0  0  0
    0.2327    4.1933    8.3728 S   0  0  0  0  0  0  0  0  0  0  0  0
    1.1707    3.6733    9.8324 C   0  0  0  0  0  0  0  0  0  0  0  0
   -4.1885    2.9654   11.7331 C   0  0  0  0  0  0  0  0  0  0  0  0
   -4.0729    3.7398   12.8854 C   0  0  0  0  0  0  0  0  0  0  0  0
   -4.1178    3.1279   14.1318 C   0  0  0  0  0  0  0  0  0  0  0  0
   -4.2648    1.7402   14.2252 C   0  0  0  0  0  0  0  0  0  0  0  0
   -4.3783    0.9723   13.0635 C   0  0  0  0  0  0  0  0  0  0  0  0
   -4.3412    1.5909   11.8202 C   0  0  0  0  0  0  0  0  0  0  0  0
   -4.3233    0.9989   15.7619 S   0  0  0  0  0  0  0  0  0  0  0  0
   -3.0529    1.3509   16.4774 O   0  0  0  0  0  0  0  0  0  0  0  0
   -4.5165   -0.4543   15.4716 O   0  0  0  0  0  0  0  0  0  0  0  0
   -5.6822    1.6008   16.6100 N   0  0  0  0  0  0  0  0  0  0  0  0
   -5.5481    2.5926   16.8070 H   0  0  0  0  0  0  0  0  0  0  0  0
   -5.7886    1.0913   17.4872 H   0  0  0  0  0  0  0  0  0  0  0  0
  3  4  2  0  0  0
  3  8  1  0  0  0
  4  5  1  0  0  0
  4 12  1  0  0  0
  5  6  2  0  0  0
  6  7  1  0  0  0
  6  1  1  0  0  0
  7  8  2  0  0  0
  7 10  1  0  0  0
  8  9  1  0  0  0
  1 14  1  0  0  0
 14 15  2  0  0  0
 14 19  1  0  0  0
 15 16  1  0  0  0
 16 17  2  0  0  0
 17 18  1  0  0  0
 17 20  1  0  0  0
 18 19  2  0  0  0
 20 21  2  0  0  0
 20 22  2  0  0  0
 20 23  1  0  0  0
 10 11  2  0  0  0
 12 13  1  0  0  0
  1  2  1  0  0  0
 23 24  1  0  0  0
 23 25  1  0  0  0
M  END
> <minimizedAffinity>
-6.66308

$$$$
