3MHO_J43_A_265
  RCSB PDB12061709453D
Coordinates from PDB:3MHO:A:265 Model:1 without hydrogens
 22 23  0  0  0  0            999 V2000
   -0.0490    5.6030   11.8170   N 0  0  0  0  0  0  0  0  0  0  0  0
   -0.8590    4.5540   11.7850   C 0  0  0  0  0  0  0  0  0  0  0  0
   -1.9580    4.5440   12.5220   N 0  0  0  0  0  0  0  0  0  0  0  0
   -2.2890    5.5420   13.3420   C 0  0  0  0  0  0  0  0  0  0  0  0
   -1.4870    6.6800   13.3820   C 0  0  0  0  0  0  0  0  0  0  0  0
   -0.3320    6.6510   12.5930   C 0  0  0  0  0  0  0  0  0  0  0  0
   -3.5400    5.3740   13.9960   N 0  0  0  0  0  0  0  0  0  0  0  0
   -4.0360    4.2740   14.6180   C 0  0  0  0  0  0  0  0  0  0  0  0
   -3.2940    3.1230   14.8740   C 0  0  0  0  0  0  0  0  0  0  0  0
   -3.8800    2.0660   15.5590   C 0  0  0  0  0  0  0  0  0  0  0  0
   -5.2120    2.1550   15.9760   C 0  0  0  0  0  0  0  0  0  0  0  0
   -5.9480    3.3130   15.7130   C 0  0  0  0  0  0  0  0  0  0  0  0
   -5.3540    4.3700   15.0350   C 0  0  0  0  0  0  0  0  0  0  0  0
   -5.9210    0.8520   16.8210   S 0  0  0  0  0  0  0  0  0  0  0  0
   -7.4080    0.9760   16.6690   O 0  0  0  0  0  0  0  0  0  0  0  0
   -5.4040    0.9830   18.2170   O 0  0  0  0  0  0  0  0  0  0  0  0
   -5.3630   -0.6140   16.1370   N 0  0  0  0  0  0  0  0  0  0  0  0
   -1.8110    7.8450   14.2460   C 0  0  0  0  0  0  0  0  0  0  0  0
   -2.6770    7.8410   15.1180   O 0  0  0  0  0  0  0  0  0  0  0  0
    0.7700    7.9760   12.5910  Cl 0  0  0  0  0  0  0  0  0  0  0  0
   -0.5160    3.1410   10.7630   S 0  0  0  0  0  0  0  0  0  0  0  0
   -1.4540    1.7120   11.3620   C 0  0  0  0  0  0  0  0  0  0  0  0
  1  2  2  0  0  0  0
  1  6  1  0  0  0  0
  2  3  1  0  0  0  0
  2 21  1  0  0  0  0
  3  4  2  0  0  0  0
  4  5  1  0  0  0  0
  4  7  1  0  0  0  0
  5  6  2  0  0  0  0
  5 18  1  0  0  0  0
  6 20  1  0  0  0  0
  7  8  1  0  0  0  0
  8  9  2  0  0  0  0
  8 13  1  0  0  0  0
  9 10  1  0  0  0  0
 10 11  2  0  0  0  0
 11 12  1  0  0  0  0
 11 14  1  0  0  0  0
 12 13  2  0  0  0  0
 14 15  2  0  0  0  0
 14 16  2  0  0  0  0
 14 17  1  0  0  0  0
 18 19  2  0  0  0  0
 21 22  1  0  0  0  0
A    1
N1
A    2
C2
A    3
N3
A    4
C4
A    5
C5
A    6
C6
A    7
N7
A    8
C8
A    9
C9
A   10
C10
A   11
C11
A   12
C12
A   13
C13
A   14
S14
A   15
O15
A   16
O16
A   17
N17
A   18
C18
A   19
O19
A   20
CL20
A   21
S21
A   22
C22
M  END
>  <InstanceId>
3MHO_J43_A_265

>  <ChemCompId>
J43

>  <PdbId>
3MHO

>  <ChainId>
A

>  <ResidueNumber>
265

>  <InsertionCode>


>  <Model>
1

>  <AltIds>


>  <MissingHeavyAtoms>
0

>  <ObservedFormula>
C12 N4 O3 S2 Cl

>  <Name>
4-{[6-chloro-5-formyl-2-(methylsulfanyl)pyrimidin-4-yl]amino}benzenesulfonamide

>  <SystematicName>
4-[(6-chloro-5-methanoyl-2-methylsulfanyl-pyrimidin-4-yl)amino]benzenesulfonamide

>  <Synonyms>
4-[N-(6-chloro-5-formyl-2-methylthiopyrimidin-4-yl)amino]benzenesulfonamide

>  <Type>
NON-POLYMER

>  <Formula>
C12 H11 Cl N4 O3 S2

>  <MolecularWeight>
358.824

>  <ModifiedDate>
2011-06-04

>  <Parent>


>  <OneLetterCode>


>  <SubcomponentList>


>  <AmbiguousFlag>
N

>  <InChI>
InChI=1S/C12H11ClN4O3S2/c1-21-12-16-10(13)9(6-18)11(17-12)15-7-2-4-8(5-3-7)22(14,19)20/h2-6H,1H3,(H2,14,19,20)(H,15,16,17)

>  <InChIKey>
KJYFMIWARJDIAU-UHFFFAOYSA-N

>  <SMILES>
CSc1nc(c(c(n1)Cl)C=O)Nc2ccc(cc2)S(=O)(=O)N

$$$$
