2WZM_NA7_A_1284
  RCSB PDB12061707213D
Coordinates from PDB:2WZM:A:1284 Model:1 without hydrogens
 39 42  0  0  0  0            999 V2000
    9.5840   44.9010   -3.1550   P 0  0  0  0  0  0  0  0  0  0  0  0
    8.9740   44.1490   -1.9760   O 0  0  0  0  0  0  0  0  0  0  0  0
   11.0320   45.2990   -3.0320   O 0  0  0  0  0  0  0  0  0  0  0  0
    9.5900   44.0650   -4.5390   O 0  0  0  0  0  0  0  0  0  0  0  0
    8.4280   43.5650   -5.1570   C 0  0  0  0  0  0  0  0  0  0  0  0
    8.7870   42.7870   -6.4230   C 0  0  0  0  0  0  0  0  0  0  0  0
    8.6950   43.6460   -7.5730   O 0  0  0  0  0  0  0  0  0  0  0  0
   10.1880   42.1990   -6.4140   C 0  0  0  0  0  0  0  0  0  0  0  0
   10.0800   40.8420   -6.8660   O 0  0  0  0  0  0  0  0  0  0  0  0
   10.9760   43.0740   -7.3900   C 0  0  0  0  0  0  0  0  0  0  0  0
   11.9330   42.3150   -8.1080   O 0  0  0  0  0  0  0  0  0  0  0  0
    9.8910   43.5710   -8.3410   C 0  0  0  0  0  0  0  0  0  0  0  0
   10.1500   44.8900   -9.0000   N 0  0  0  0  0  0  0  0  0  0  0  0
   10.6560   46.0310   -8.4850   C 0  0  0  0  0  0  0  0  0  0  0  0
   10.7110   46.9780   -9.4610   N 0  0  0  0  0  0  0  0  0  0  0  0
   10.2330   46.4170  -10.6010   C 0  0  0  0  0  0  0  0  0  0  0  0
   10.0410   46.8940  -11.9000   C 0  0  0  0  0  0  0  0  0  0  0  0
   10.3730   48.1730  -12.2560   N 0  0  0  0  0  0  0  0  0  0  0  0
    9.5190   46.0370  -12.8280   N 0  0  0  0  0  0  0  0  0  0  0  0
    9.1970   44.7650  -12.5060   C 0  0  0  0  0  0  0  0  0  0  0  0
    9.3740   44.3000  -11.2570   N 0  0  0  0  0  0  0  0  0  0  0  0
    9.8870   45.1070  -10.3000   C 0  0  0  0  0  0  0  0  0  0  0  0
    8.6640   46.1540   -3.6150   O 0  0  0  0  0  0  0  0  0  0  0  0
    7.5380   46.9630   -2.7780   P 0  0  0  0  0  0  0  0  0  0  0  0
    6.4680   46.0340   -2.2240   O 0  0  0  0  0  0  0  0  0  0  0  0
    7.2030   48.1370   -3.6250   O 0  0  0  0  0  0  0  0  0  0  0  0
    8.2630   47.4240   -1.4550   O 0  0  0  0  0  0  0  0  0  0  0  0
    9.5050   48.0680   -1.5360   C 0  0  0  0  0  0  0  0  0  0  0  0
    9.7240   48.2860   -0.0690   C 0  0  0  0  0  0  0  0  0  0  0  0
   10.7290   47.4270    0.4660   O 0  0  0  0  0  0  0  0  0  0  0  0
   10.2520   49.6890    0.0490   C 0  0  0  0  0  0  0  0  0  0  0  0
    9.1350   50.5970   -0.0750   O 0  0  0  0  0  0  0  0  0  0  0  0
   11.0080   49.6250    1.3810   C 0  0  0  0  0  0  0  0  0  0  0  0
   10.2040   50.0630    2.4930   O 0  0  0  0  0  0  0  0  0  0  0  0
   11.3600   48.1440    1.5530   C 0  0  0  0  0  0  0  0  0  0  0  0
   13.4130   42.8660   -8.3440   P 0  0  0  0  0  0  0  0  0  0  0  0
   13.9560   43.2910   -7.0040   O 0  0  0  0  0  0  0  0  0  0  0  0
   14.1160   41.6880   -8.9600   O 0  0  0  0  0  0  0  0  0  0  0  0
   13.2610   44.0410   -9.2950   O 0  0  0  0  0  0  0  0  0  0  0  0
  1  4  1  0  0  0  0
  1  3  2  0  0  0  0
  1  2  1  0  0  0  0
  1 23  1  0  0  0  0
  4  5  1  0  0  0  0
  5  6  1  0  0  0  0
  6  8  1  0  0  0  0
  6  7  1  0  0  0  0
  7 12  1  0  0  0  0
  8  9  1  0  0  0  0
  8 10  1  0  0  0  0
 10 11  1  0  0  0  0
 10 12  1  0  0  0  0
 11 36  1  0  0  0  0
 12 13  1  0  0  0  0
 13 22  1  0  0  0  0
 13 14  1  0  0  0  0
 14 15  2  0  0  0  0
 15 16  1  0  0  0  0
 16 22  2  0  0  0  0
 16 17  1  0  0  0  0
 17 19  2  0  0  0  0
 17 18  1  0  0  0  0
 19 20  1  0  0  0  0
 20 21  2  0  0  0  0
 21 22  1  0  0  0  0
 23 24  1  0  0  0  0
 24 27  1  0  0  0  0
 24 25  2  0  0  0  0
 24 26  1  0  0  0  0
 27 28  1  0  0  0  0
 28 29  1  0  0  0  0
 29 30  1  0  0  0  0
 29 31  1  0  0  0  0
 30 35  1  0  0  0  0
 31 33  1  0  0  0  0
 31 32  1  0  0  0  0
 33 34  1  0  0  0  0
 33 35  1  0  0  0  0
 36 39  2  0  0  0  0
 36 38  1  0  0  0  0
 36 37  1  0  0  0  0
A    1
PA
A    2
O1A
A    3
O2A
A    4
O5B
A    5
C5B
A    6
C4B
A    7
O4B
A    8
C3B
A    9
O3B
A   10
C2B
A   11
O2B
A   12
C1B
A   13
N9A
A   14
C8A
A   15
N7A
A   16
C5A
A   17
C6A
A   18
N6A
A   19
N1A
A   20
C2A
A   21
N3A
A   22
C4A
A   23
O3
A   24
PN
A   25
O1N
A   26
O2N
A   27
O5D
A   28
C5D
A   29
C4D
A   30
O4D
A   31
C3D
A   32
O3D
A   33
C2D
A   34
O2D
A   35
C1D
A   36
P2B
A   37
O1X
A   38
O2X
A   39
O3X
M  END
>  <InstanceId>
2WZM_NA7_A_1284

>  <ChemCompId>
NA7

>  <PdbId>
2WZM

>  <ChainId>
A

>  <ResidueNumber>
1284

>  <InsertionCode>


>  <Model>
1

>  <AltIds>


>  <MissingHeavyAtoms>
0

>  <ObservedFormula>
C15 N5 O16 P3

>  <Name>
[(2R,3R,4R,5R)-5-(6-AMINO-9H-PURIN-9-YL)-3-HYDROXY-4-(PHOSPHONOOXY)TETRAHYDROFURAN-2-YL]METHYL [(2R,3S,4S)-3,4-DIHYDROXYTETRAHYDROFURAN-2-YL]METHYL DIHYDROGEN DIPHOSPHATE

>  <SystematicName>
[(2R,3R,4R,5R)-5-(6-aminopurin-9-yl)-3-hydroxy-4-phosphonooxy-oxolan-2-yl]methyl [[(2R,3S,4S)-3,4-dihydroxyoxolan-2-yl]methoxy-hydroxy-phosphoryl] hydrogen phosphate

>  <Synonyms>


>  <Type>
NON-POLYMER

>  <Formula>
C15 H24 N5 O16 P3

>  <MolecularWeight>
623.296

>  <ModifiedDate>
2011-06-04

>  <Parent>


>  <OneLetterCode>


>  <SubcomponentList>


>  <AmbiguousFlag>


>  <InChI>
InChI=1S/C15H24N5O16P3/c16-13-9-14(18-4-17-13)20(5-19-9)15-12(35-37(24,25)26)11(23)8(34-15)3-33-39(29,30)36-38(27,28)32-2-7-10(22)6(21)1-31-7/h4-8,10-12,15,21-23H,1-3H2,(H,27,28)(H,29,30)(H2,16,17,18)(H2,24,25,26)/t6-,7+,8+,10-,11+,12+,15+/m0/s1

>  <InChIKey>
XDDBFIXGEVGCEU-AOOZFPJJSA-N

>  <SMILES>
c1nc(c2c(n1)n(cn2)[C@H]3[C@@H]([C@@H]([C@H](O3)CO[P@](=O)(O)O[P@@](=O)(O)OC[C@@H]4[C@H]([C@H](CO4)O)O)O)OP(=O)(O)O)N

$$$$
