2WZM_NA7_A_1284


 48 51  0  0  0  0  0  0  0  0999 V2000
    8.9602   43.2404   -6.7419 C   0  0  0  0  0  0  0  0  0  0  0  0
    8.8857   43.9929   -7.9654 O   0  0  0  0  0  0  0  0  0  0  0  0
   10.3810   42.7147   -6.6252 C   0  0  0  0  0  0  0  0  0  0  0  0
   10.3450   41.3206   -6.9607 O   0  0  0  0  0  0  0  0  0  0  0  0
   11.1768   43.5350   -7.6415 C   0  0  0  0  0  0  0  0  0  0  0  0
   10.1162   43.9026   -8.6752 C   0  0  0  0  0  0  0  0  0  0  0  0
    9.9509   41.2097   -7.8401 H   0  0  0  0  0  0  0  0  0  0  0  0
   10.3530   45.1699   -9.4360 N   0  0  0  0  0  0  0  0  0  0  0  0
   10.9420   46.3194   -9.0424 C   0  0  0  0  0  0  0  0  0  0  0  0
   10.9337   47.2047  -10.0761 N   0  0  0  0  0  0  0  0  0  0  0  0
   10.3313   46.5960  -11.1295 C   0  0  0  0  0  0  0  0  0  0  0  0
   10.0314   47.0028  -12.4319 C   0  0  0  0  0  0  0  0  0  0  0  0
   10.3685   48.2452  -12.8961 N   0  0  0  0  0  0  0  0  0  0  0  0
    9.3961   46.1130  -13.2521 N   0  0  0  0  0  0  0  0  0  0  0  0
    9.0659   44.8751  -12.8231 C   0  0  0  0  0  0  0  0  0  0  0  0
    9.3465   44.4780  -11.5697 N   0  0  0  0  0  0  0  0  0  0  0  0
    9.9740   45.3199  -10.7167 C   0  0  0  0  0  0  0  0  0  0  0  0
   10.8261   48.8846  -12.3035 H   0  0  0  0  0  0  0  0  0  0  0  0
   10.1534   48.4997  -13.8225 H   0  0  0  0  0  0  0  0  0  0  0  0
    8.5167   44.1083   -5.5643 C   0  0  0  0  0  0  0  0  0  0  0  0
    9.3400   43.8799   -4.4453 O   0  0  0  0  0  0  0  0  0  0  0  0
    9.8238   45.0434   -3.4321 P   0  0  0  0  0  0  0  0  0  0  0  0
    9.1376   45.0078   -2.0700 O   0  0  0  0  0  0  0  0  0  0  0  0
   11.3191   44.8579   -3.4454 O   0  0  0  0  0  0  0  0  0  0  0  0
    9.4266   44.2204   -1.5828 H   0  0  0  0  0  0  0  0  0  0  0  0
    9.3817   46.3400   -4.2989 O   0  0  0  0  0  0  0  0  0  0  0  0
    8.7598   47.7481   -3.7957 P   0  0  0  0  0  0  0  0  0  0  0  0
    7.3613   47.5766   -3.2217 O   0  0  0  0  0  0  0  0  0  0  0  0
    9.0511   48.7076   -4.8923 O   0  0  0  0  0  0  0  0  0  0  0  0
    9.9944   48.6677   -5.1148 H   0  0  0  0  0  0  0  0  0  0  0  0
    9.5820   48.1204   -2.5019 O   0  0  0  0  0  0  0  0  0  0  0  0
    9.0630   49.0583   -1.5993 C   0  0  0  0  0  0  0  0  0  0  0  0
   10.2397   49.1314   -0.6733 C   0  0  0  0  0  0  0  0  0  0  0  0
   10.3347   50.3906   -0.0104 O   0  0  0  0  0  0  0  0  0  0  0  0
    9.9702   48.1052    0.3923 C   0  0  0  0  0  0  0  0  0  0  0  0
   10.2852   46.8046   -0.1522 O   0  0  0  0  0  0  0  0  0  0  0  0
   10.8088   48.6411    1.5583 C   0  0  0  0  0  0  0  0  0  0  0  0
   12.1183   48.0440    1.6159 O   0  0  0  0  0  0  0  0  0  0  0  0
   10.9400   50.1419    1.2802 C   0  0  0  0  0  0  0  0  0  0  0  0
   11.1898   46.8111   -0.5023 H   0  0  0  0  0  0  0  0  0  0  0  0
   12.5892   48.2166    0.7857 H   0  0  0  0  0  0  0  0  0  0  0  0
   12.1927   42.7581   -8.2512 O   0  0  0  0  0  0  0  0  0  0  0  0
   13.6370   42.6204   -7.5844 P   0  0  0  0  0  0  0  0  0  0  0  0
   13.8454   41.1648   -7.2543 O   0  0  0  0  0  0  0  0  0  0  0  0
   14.5518   43.1586   -8.6497 O   0  0  0  0  0  0  0  0  0  0  0  0
   13.5913   43.4859   -6.3366 O   0  0  0  0  0  0  0  0  0  0  0  0
   13.2202   40.8974   -6.5627 H   0  0  0  0  0  0  0  0  0  0  0  0
   14.3543   44.0960   -8.8021 H   0  0  0  0  0  0  0  0  0  0  0  0
 22 21  1  0  0  0
 22 24  2  0  0  0
 22 23  1  0  0  0
 22 26  1  0  0  0
 21 20  1  0  0  0
 20  1  1  0  0  0
  1  3  1  0  0  0
  1  2  1  0  0  0
  2  6  1  0  0  0
  3  4  1  0  0  0
  3  5  1  0  0  0
  5 42  1  0  0  0
  5  6  1  0  0  0
 42 43  1  0  0  0
  6  8  1  0  0  0
  8 17  1  0  0  0
  8  9  1  0  0  0
  9 10  2  0  0  0
 10 11  1  0  0  0
 11 17  2  0  0  0
 11 12  1  0  0  0
 12 14  2  0  0  0
 12 13  1  0  0  0
 14 15  1  0  0  0
 15 16  2  0  0  0
 16 17  1  0  0  0
 26 27  1  0  0  0
 27 31  1  0  0  0
 27 28  2  0  0  0
 27 29  1  0  0  0
 31 32  1  0  0  0
 32 33  1  0  0  0
 33 34  1  0  0  0
 33 35  1  0  0  0
 34 39  1  0  0  0
 35 37  1  0  0  0
 35 36  1  0  0  0
 37 38  1  0  0  0
 37 39  1  0  0  0
 43 46  2  0  0  0
 43 45  1  0  0  0
 43 44  1  0  0  0
 23 25  1  0  0  0
  4  7  1  0  0  0
 13 18  1  0  0  0
 13 19  1  0  0  0
 29 30  1  0  0  0
 36 40  1  0  0  0
 38 41  1  0  0  0
 44 47  1  0  0  0
 45 48  1  0  0  0
M  END
> <minimizedAffinity>
-9.98087

$$$$
2WZM_NA7_A_1284


 48 51  0  0  0  0  0  0  0  0999 V2000
   11.5530   43.7795   -3.9474 C   0  0  0  0  0  0  0  0  0  0  0  0
   11.1953   42.4136   -4.2218 O   0  0  0  0  0  0  0  0  0  0  0  0
   12.5497   44.2041   -5.0127 C   0  0  0  0  0  0  0  0  0  0  0  0
   13.8470   44.2071   -4.4008 O   0  0  0  0  0  0  0  0  0  0  0  0
   12.4244   43.1365   -6.1006 C   0  0  0  0  0  0  0  0  0  0  0  0
   11.9583   41.9144   -5.3147 C   0  0  0  0  0  0  0  0  0  0  0  0
   14.0246   43.3349   -4.0151 H   0  0  0  0  0  0  0  0  0  0  0  0
   11.1490   40.9128   -6.0782 N   0  0  0  0  0  0  0  0  0  0  0  0
   11.2003   39.5636   -6.0610 C   0  0  0  0  0  0  0  0  0  0  0  0
   10.2712   39.0683   -6.9235 N   0  0  0  0  0  0  0  0  0  0  0  0
    9.6312   40.1257   -7.4848 C   0  0  0  0  0  0  0  0  0  0  0  0
    8.6094   40.2393   -8.4308 C   0  0  0  0  0  0  0  0  0  0  0  0
    8.0167   39.1393   -8.9890 N   0  0  0  0  0  0  0  0  0  0  0  0
    8.1968   41.4939   -8.7827 N   0  0  0  0  0  0  0  0  0  0  0  0
    8.7551   42.5957   -8.2353 C   0  0  0  0  0  0  0  0  0  0  0  0
    9.7422   42.4949   -7.3281 N   0  0  0  0  0  0  0  0  0  0  0  0
   10.1885   41.2766   -6.9450 C   0  0  0  0  0  0  0  0  0  0  0  0
    8.3155   38.2365   -8.7341 H   0  0  0  0  0  0  0  0  0  0  0  0
    7.2915   39.2508   -9.6454 H   0  0  0  0  0  0  0  0  0  0  0  0
   10.2968   44.6485   -3.8854 C   0  0  0  0  0  0  0  0  0  0  0  0
   10.0311   45.0377   -2.5588 O   0  0  0  0  0  0  0  0  0  0  0  0
    9.3176   46.4317   -2.1561 P   0  0  0  0  0  0  0  0  0  0  0  0
    9.5744   47.5694   -3.1397 O   0  0  0  0  0  0  0  0  0  0  0  0
    7.8854   46.0005   -1.9739 O   0  0  0  0  0  0  0  0  0  0  0  0
    9.1258   47.3792   -3.9784 H   0  0  0  0  0  0  0  0  0  0  0  0
   10.0429   46.6896   -0.7295 O   0  0  0  0  0  0  0  0  0  0  0  0
    9.9490   47.9738    0.2529 P   0  0  0  0  0  0  0  0  0  0  0  0
    8.6121   48.0365    0.9765 O   0  0  0  0  0  0  0  0  0  0  0  0
   10.4642   49.1101   -0.5541 O   0  0  0  0  0  0  0  0  0  0  0  0
   11.3260   48.8741   -0.9316 H   0  0  0  0  0  0  0  0  0  0  0  0
   10.9311   47.6511    1.4444 O   0  0  0  0  0  0  0  0  0  0  0  0
   10.4428   47.6362    2.7579 C   0  0  0  0  0  0  0  0  0  0  0  0
   11.1984   48.8230    3.2758 C   0  0  0  0  0  0  0  0  0  0  0  0
   12.0569   49.3952    2.2910 O   0  0  0  0  0  0  0  0  0  0  0  0
   10.1507   49.8566    3.5840 C   0  0  0  0  0  0  0  0  0  0  0  0
    9.5359   49.5057    4.8435 O   0  0  0  0  0  0  0  0  0  0  0  0
   10.9600   51.1554    3.4931 C   0  0  0  0  0  0  0  0  0  0  0  0
   11.4561   51.5868    4.7747 O   0  0  0  0  0  0  0  0  0  0  0  0
   12.1375   50.8117    2.5753 C   0  0  0  0  0  0  0  0  0  0  0  0
   10.2230   49.3974    5.5196 H   0  0  0  0  0  0  0  0  0  0  0  0
   12.0180   50.8932    5.1541 H   0  0  0  0  0  0  0  0  0  0  0  0
   13.6759   42.8681   -6.7082 O   0  0  0  0  0  0  0  0  0  0  0  0
   13.8112   42.7380   -8.2939 P   0  0  0  0  0  0  0  0  0  0  0  0
   15.2295   43.0951   -8.6572 O   0  0  0  0  0  0  0  0  0  0  0  0
   13.4423   41.3021   -8.5460 O   0  0  0  0  0  0  0  0  0  0  0  0
   12.8106   43.7264   -8.8683 O   0  0  0  0  0  0  0  0  0  0  0  0
   15.3861   44.0330   -8.4654 H   0  0  0  0  0  0  0  0  0  0  0  0
   12.5190   41.1553   -8.2874 H   0  0  0  0  0  0  0  0  0  0  0  0
 22 21  1  0  0  0
 22 24  2  0  0  0
 22 23  1  0  0  0
 22 26  1  0  0  0
 21 20  1  0  0  0
 20  1  1  0  0  0
  1  3  1  0  0  0
  1  2  1  0  0  0
  2  6  1  0  0  0
  3  4  1  0  0  0
  3  5  1  0  0  0
  5 42  1  0  0  0
  5  6  1  0  0  0
 42 43  1  0  0  0
  6  8  1  0  0  0
  8 17  1  0  0  0
  8  9  1  0  0  0
  9 10  2  0  0  0
 10 11  1  0  0  0
 11 17  2  0  0  0
 11 12  1  0  0  0
 12 14  2  0  0  0
 12 13  1  0  0  0
 14 15  1  0  0  0
 15 16  2  0  0  0
 16 17  1  0  0  0
 26 27  1  0  0  0
 27 31  1  0  0  0
 27 28  2  0  0  0
 27 29  1  0  0  0
 31 32  1  0  0  0
 32 33  1  0  0  0
 33 34  1  0  0  0
 33 35  1  0  0  0
 34 39  1  0  0  0
 35 37  1  0  0  0
 35 36  1  0  0  0
 37 38  1  0  0  0
 37 39  1  0  0  0
 43 46  2  0  0  0
 43 45  1  0  0  0
 43 44  1  0  0  0
 23 25  1  0  0  0
  4  7  1  0  0  0
 13 18  1  0  0  0
 13 19  1  0  0  0
 29 30  1  0  0  0
 36 40  1  0  0  0
 38 41  1  0  0  0
 44 47  1  0  0  0
 45 48  1  0  0  0
M  END
> <minimizedAffinity>
-9.15525

$$$$
2WZM_NA7_A_1284


 48 51  0  0  0  0  0  0  0  0999 V2000
   10.1978   43.8102   -5.4765 C   0  0  0  0  0  0  0  0  0  0  0  0
    9.7766   44.7975   -6.4339 O   0  0  0  0  0  0  0  0  0  0  0  0
   10.7073   42.6134   -6.2618 C   0  0  0  0  0  0  0  0  0  0  0  0
    9.6932   41.6011   -6.1953 O   0  0  0  0  0  0  0  0  0  0  0  0
   10.9040   43.1442   -7.6826 C   0  0  0  0  0  0  0  0  0  0  0  0
    9.8894   44.2817   -7.7557 C   0  0  0  0  0  0  0  0  0  0  0  0
    8.8539   41.9624   -6.5209 H   0  0  0  0  0  0  0  0  0  0  0  0
   10.2169   45.3930   -8.7038 N   0  0  0  0  0  0  0  0  0  0  0  0
   10.8223   46.5777   -8.4737 C   0  0  0  0  0  0  0  0  0  0  0  0
   10.9078   47.2721   -9.6411 N   0  0  0  0  0  0  0  0  0  0  0  0
   10.3480   46.5069  -10.6127 C   0  0  0  0  0  0  0  0  0  0  0  0
   10.1414   46.6912  -11.9820 C   0  0  0  0  0  0  0  0  0  0  0  0
   10.5502   47.8265  -12.6276 N   0  0  0  0  0  0  0  0  0  0  0  0
    9.5246   45.6901  -12.6787 N   0  0  0  0  0  0  0  0  0  0  0  0
    9.1250   44.5531  -12.0681 C   0  0  0  0  0  0  0  0  0  0  0  0
    9.3156   44.3703  -10.7498 N   0  0  0  0  0  0  0  0  0  0  0  0
    9.9209   45.3302  -10.0133 C   0  0  0  0  0  0  0  0  0  0  0  0
   10.9943   48.5464  -12.1238 H   0  0  0  0  0  0  0  0  0  0  0  0
   10.4003   47.9234  -13.5958 H   0  0  0  0  0  0  0  0  0  0  0  0
   11.2261   44.4128   -4.5193 C   0  0  0  0  0  0  0  0  0  0  0  0
   10.7598   44.3523   -3.1922 O   0  0  0  0  0  0  0  0  0  0  0  0
    9.3798   45.0305   -2.6920 P   0  0  0  0  0  0  0  0  0  0  0  0
    8.4966   45.5513   -3.8217 O   0  0  0  0  0  0  0  0  0  0  0  0
    8.8023   43.9432   -1.8233 O   0  0  0  0  0  0  0  0  0  0  0  0
    8.1489   44.8029   -4.3315 H   0  0  0  0  0  0  0  0  0  0  0  0
    9.9942   46.2360   -1.7991 O   0  0  0  0  0  0  0  0  0  0  0  0
    9.3951   47.7142   -1.5185 P   0  0  0  0  0  0  0  0  0  0  0  0
    8.1805   47.6685   -0.6032 O   0  0  0  0  0  0  0  0  0  0  0  0
    9.3550   48.3692   -2.8516 O   0  0  0  0  0  0  0  0  0  0  0  0
   10.2235   48.2913   -3.2764 H   0  0  0  0  0  0  0  0  0  0  0  0
   10.4575   48.4174   -0.5882 O   0  0  0  0  0  0  0  0  0  0  0  0
   10.1501   49.6503    0.0029 C   0  0  0  0  0  0  0  0  0  0  0  0
   10.8355   49.4289    1.3177 C   0  0  0  0  0  0  0  0  0  0  0  0
   11.4788   50.6058    1.8024 O   0  0  0  0  0  0  0  0  0  0  0  0
    9.7339   49.1109    2.2906 C   0  0  0  0  0  0  0  0  0  0  0  0
    9.3445   47.7343    2.0880 O   0  0  0  0  0  0  0  0  0  0  0  0
   10.3742   49.5089    3.6253 C   0  0  0  0  0  0  0  0  0  0  0  0
   10.9947   48.3938    4.2935 O   0  0  0  0  0  0  0  0  0  0  0  0
   11.4418   50.5406    3.2475 C   0  0  0  0  0  0  0  0  0  0  0  0
   10.1274   47.1647    2.1474 H   0  0  0  0  0  0  0  0  0  0  0  0
   11.6773   48.0122    3.7198 H   0  0  0  0  0  0  0  0  0  0  0  0
   10.5908   42.1584   -8.6508 O   0  0  0  0  0  0  0  0  0  0  0  0
   11.7180   41.5560   -9.6080 P   0  0  0  0  0  0  0  0  0  0  0  0
   11.8202   40.0815   -9.3135 O   0  0  0  0  0  0  0  0  0  0  0  0
   11.2039   41.8864  -10.9821 O   0  0  0  0  0  0  0  0  0  0  0  0
   12.9940   42.2979   -9.2482 O   0  0  0  0  0  0  0  0  0  0  0  0
   12.1576   39.9543   -8.4130 H   0  0  0  0  0  0  0  0  0  0  0  0
   11.1685   42.8496  -11.0910 H   0  0  0  0  0  0  0  0  0  0  0  0
 22 21  1  0  0  0
 22 24  2  0  0  0
 22 23  1  0  0  0
 22 26  1  0  0  0
 21 20  1  0  0  0
 20  1  1  0  0  0
  1  3  1  0  0  0
  1  2  1  0  0  0
  2  6  1  0  0  0
  3  4  1  0  0  0
  3  5  1  0  0  0
  5 42  1  0  0  0
  5  6  1  0  0  0
 42 43  1  0  0  0
  6  8  1  0  0  0
  8 17  1  0  0  0
  8  9  1  0  0  0
  9 10  2  0  0  0
 10 11  1  0  0  0
 11 17  2  0  0  0
 11 12  1  0  0  0
 12 14  2  0  0  0
 12 13  1  0  0  0
 14 15  1  0  0  0
 15 16  2  0  0  0
 16 17  1  0  0  0
 26 27  1  0  0  0
 27 31  1  0  0  0
 27 28  2  0  0  0
 27 29  1  0  0  0
 31 32  1  0  0  0
 32 33  1  0  0  0
 33 34  1  0  0  0
 33 35  1  0  0  0
 34 39  1  0  0  0
 35 37  1  0  0  0
 35 36  1  0  0  0
 37 38  1  0  0  0
 37 39  1  0  0  0
 43 46  2  0  0  0
 43 45  1  0  0  0
 43 44  1  0  0  0
 23 25  1  0  0  0
  4  7  1  0  0  0
 13 18  1  0  0  0
 13 19  1  0  0  0
 29 30  1  0  0  0
 36 40  1  0  0  0
 38 41  1  0  0  0
 44 47  1  0  0  0
 45 48  1  0  0  0
M  END
> <minimizedAffinity>
-9.05286

$$$$
2WZM_NA7_A_1284


 48 51  0  0  0  0  0  0  0  0999 V2000
   10.0728   45.2308   -3.8488 C   0  0  0  0  0  0  0  0  0  0  0  0
   11.4236   44.8943   -3.4870 O   0  0  0  0  0  0  0  0  0  0  0  0
    9.8060   44.6107   -5.2101 C   0  0  0  0  0  0  0  0  0  0  0  0
    9.8578   45.6707   -6.1751 O   0  0  0  0  0  0  0  0  0  0  0  0
   10.9383   43.5999   -5.3982 C   0  0  0  0  0  0  0  0  0  0  0  0
   12.0595   44.1956   -4.5516 C   0  0  0  0  0  0  0  0  0  0  0  0
   10.7101   46.1287   -6.1068 H   0  0  0  0  0  0  0  0  0  0  0  0
   13.0495   43.2209   -3.9941 N   0  0  0  0  0  0  0  0  0  0  0  0
   14.3854   43.1441   -4.1746 C   0  0  0  0  0  0  0  0  0  0  0  0
   14.8738   42.0889   -3.4673 N   0  0  0  0  0  0  0  0  0  0  0  0
   13.8257   41.5009   -2.8361 C   0  0  0  0  0  0  0  0  0  0  0  0
   13.7100   40.3930   -1.9928 C   0  0  0  0  0  0  0  0  0  0  0  0
   14.7987   39.6521   -1.6205 N   0  0  0  0  0  0  0  0  0  0  0  0
   12.4668   40.0676   -1.5274 N   0  0  0  0  0  0  0  0  0  0  0  0
   11.3781   40.7917   -1.8677 C   0  0  0  0  0  0  0  0  0  0  0  0
   11.4804   41.8560   -2.6828 N   0  0  0  0  0  0  0  0  0  0  0  0
   12.6878   42.2211   -3.1719 C   0  0  0  0  0  0  0  0  0  0  0  0
   15.6932   39.8884   -1.9569 H   0  0  0  0  0  0  0  0  0  0  0  0
   14.6873   38.8829   -1.0162 H   0  0  0  0  0  0  0  0  0  0  0  0
    9.1075   44.7747   -2.7547 C   0  0  0  0  0  0  0  0  0  0  0  0
    7.8282   45.3234   -2.9654 O   0  0  0  0  0  0  0  0  0  0  0  0
    7.4679   46.8819   -2.7290 P   0  0  0  0  0  0  0  0  0  0  0  0
    8.1196   47.8304   -3.7305 O   0  0  0  0  0  0  0  0  0  0  0  0
    5.9617   46.8473   -2.7059 O   0  0  0  0  0  0  0  0  0  0  0  0
    7.7298   47.6920   -4.6079 H   0  0  0  0  0  0  0  0  0  0  0  0
    8.0775   47.0638   -1.2379 O   0  0  0  0  0  0  0  0  0  0  0  0
    9.3447   47.9449   -0.7472 P   0  0  0  0  0  0  0  0  0  0  0  0
    9.5848   49.1443   -1.6520 O   0  0  0  0  0  0  0  0  0  0  0  0
   10.4098   46.9511   -0.4541 O   0  0  0  0  0  0  0  0  0  0  0  0
   10.0600   46.2675    0.1386 H   0  0  0  0  0  0  0  0  0  0  0  0
    8.8648   48.6494    0.5801 O   0  0  0  0  0  0  0  0  0  0  0  0
    9.7943   49.3356    1.3733 C   0  0  0  0  0  0  0  0  0  0  0  0
    9.5557   48.6012    2.6583 C   0  0  0  0  0  0  0  0  0  0  0  0
    9.5027   47.1876    2.4769 O   0  0  0  0  0  0  0  0  0  0  0  0
   10.7667   48.8796    3.5050 C   0  0  0  0  0  0  0  0  0  0  0  0
   10.6269   50.2065    4.0595 O   0  0  0  0  0  0  0  0  0  0  0  0
   10.7636   47.6773    4.4559 C   0  0  0  0  0  0  0  0  0  0  0  0
   10.0943   47.9596    5.6997 O   0  0  0  0  0  0  0  0  0  0  0  0
    9.9994   46.5881    3.6966 C   0  0  0  0  0  0  0  0  0  0  0  0
    9.7751   50.2771    4.5181 H   0  0  0  0  0  0  0  0  0  0  0  0
    9.1773   48.2207    5.5214 H   0  0  0  0  0  0  0  0  0  0  0  0
   11.3465   43.5269   -6.7530 O   0  0  0  0  0  0  0  0  0  0  0  0
   11.7141   42.1276   -7.4286 P   0  0  0  0  0  0  0  0  0  0  0  0
   11.0378   41.0465   -6.6256 O   0  0  0  0  0  0  0  0  0  0  0  0
   11.1943   42.2846   -8.8310 O   0  0  0  0  0  0  0  0  0  0  0  0
   13.2283   42.0278   -7.3556 O   0  0  0  0  0  0  0  0  0  0  0  0
   11.4286   41.0102   -5.7385 H   0  0  0  0  0  0  0  0  0  0  0  0
   11.6790   42.9963   -9.2776 H   0  0  0  0  0  0  0  0  0  0  0  0
 22 21  1  0  0  0
 22 24  2  0  0  0
 22 23  1  0  0  0
 22 26  1  0  0  0
 21 20  1  0  0  0
 20  1  1  0  0  0
  1  3  1  0  0  0
  1  2  1  0  0  0
  2  6  1  0  0  0
  3  4  1  0  0  0
  3  5  1  0  0  0
  5 42  1  0  0  0
  5  6  1  0  0  0
 42 43  1  0  0  0
  6  8  1  0  0  0
  8 17  1  0  0  0
  8  9  1  0  0  0
  9 10  2  0  0  0
 10 11  1  0  0  0
 11 17  2  0  0  0
 11 12  1  0  0  0
 12 14  2  0  0  0
 12 13  1  0  0  0
 14 15  1  0  0  0
 15 16  2  0  0  0
 16 17  1  0  0  0
 26 27  1  0  0  0
 27 31  1  0  0  0
 27 28  2  0  0  0
 27 29  1  0  0  0
 31 32  1  0  0  0
 32 33  1  0  0  0
 33 34  1  0  0  0
 33 35  1  0  0  0
 34 39  1  0  0  0
 35 37  1  0  0  0
 35 36  1  0  0  0
 37 38  1  0  0  0
 37 39  1  0  0  0
 43 46  2  0  0  0
 43 45  1  0  0  0
 43 44  1  0  0  0
 23 25  1  0  0  0
  4  7  1  0  0  0
 13 18  1  0  0  0
 13 19  1  0  0  0
 29 30  1  0  0  0
 36 40  1  0  0  0
 38 41  1  0  0  0
 44 47  1  0  0  0
 45 48  1  0  0  0
M  END
> <minimizedAffinity>
-8.88341

$$$$
2WZM_NA7_A_1284


 48 51  0  0  0  0  0  0  0  0999 V2000
   10.1761   45.0280   -3.7300 C   0  0  0  0  0  0  0  0  0  0  0  0
   11.4550   44.3950   -3.5496 O   0  0  0  0  0  0  0  0  0  0  0  0
    9.6588   44.6115   -5.0966 C   0  0  0  0  0  0  0  0  0  0  0  0
    9.8393   45.7300   -5.9761 O   0  0  0  0  0  0  0  0  0  0  0  0
   10.5324   43.4189   -5.4887 C   0  0  0  0  0  0  0  0  0  0  0  0
   11.8279   43.6925   -4.7300 C   0  0  0  0  0  0  0  0  0  0  0  0
   10.7710   46.0000   -5.9689 H   0  0  0  0  0  0  0  0  0  0  0  0
   12.6409   42.4897   -4.3648 N   0  0  0  0  0  0  0  0  0  0  0  0
   12.7324   41.8303   -3.1900 C   0  0  0  0  0  0  0  0  0  0  0  0
   13.5998   40.7903   -3.3258 N   0  0  0  0  0  0  0  0  0  0  0  0
   14.0538   40.8021   -4.6051 C   0  0  0  0  0  0  0  0  0  0  0  0
   14.9530   40.0013   -5.3135 C   0  0  0  0  0  0  0  0  0  0  0  0
   15.5764   38.9294   -4.7345 N   0  0  0  0  0  0  0  0  0  0  0  0
   15.1902   40.3073   -6.6243 N   0  0  0  0  0  0  0  0  0  0  0  0
   14.5762   41.3509   -7.2237 C   0  0  0  0  0  0  0  0  0  0  0  0
   13.7135   42.1293   -6.5474 N   0  0  0  0  0  0  0  0  0  0  0  0
   13.4434   41.8705   -5.2473 C   0  0  0  0  0  0  0  0  0  0  0  0
   15.4041   38.7108   -3.7902 H   0  0  0  0  0  0  0  0  0  0  0  0
   16.1973   38.3770   -5.2623 H   0  0  0  0  0  0  0  0  0  0  0  0
    9.2444   44.6675   -2.5729 C   0  0  0  0  0  0  0  0  0  0  0  0
    7.9727   45.2396   -2.7668 O   0  0  0  0  0  0  0  0  0  0  0  0
    7.6891   46.8312   -2.7416 P   0  0  0  0  0  0  0  0  0  0  0  0
    8.4824   47.6215   -3.7778 O   0  0  0  0  0  0  0  0  0  0  0  0
    6.1874   46.8760   -2.8558 O   0  0  0  0  0  0  0  0  0  0  0  0
    8.1627   47.4011   -4.6667 H   0  0  0  0  0  0  0  0  0  0  0  0
    8.1765   47.1557   -1.2299 O   0  0  0  0  0  0  0  0  0  0  0  0
    9.4455   48.0259   -0.7247 P   0  0  0  0  0  0  0  0  0  0  0  0
    9.7032   49.2259   -1.6239 O   0  0  0  0  0  0  0  0  0  0  0  0
   10.5003   47.0235   -0.4240 O   0  0  0  0  0  0  0  0  0  0  0  0
   10.1396   46.3410    0.1634 H   0  0  0  0  0  0  0  0  0  0  0  0
    8.9581   48.7307    0.5998 O   0  0  0  0  0  0  0  0  0  0  0  0
    9.8545   49.5200    1.3328 C   0  0  0  0  0  0  0  0  0  0  0  0
    9.5725   48.9512    2.6909 C   0  0  0  0  0  0  0  0  0  0  0  0
    8.8974   47.6965    2.6272 O   0  0  0  0  0  0  0  0  0  0  0  0
   10.9224   48.6814    3.2960 C   0  0  0  0  0  0  0  0  0  0  0  0
   11.4590   49.9380    3.7655 O   0  0  0  0  0  0  0  0  0  0  0  0
   10.5907   47.5906    4.3206 C   0  0  0  0  0  0  0  0  0  0  0  0
   10.3460   48.1252    5.6356 O   0  0  0  0  0  0  0  0  0  0  0  0
    9.3130   46.9360    3.7859 C   0  0  0  0  0  0  0  0  0  0  0  0
   10.8174   50.3632    4.3558 H   0  0  0  0  0  0  0  0  0  0  0  0
    9.6083   48.7538    5.5969 H   0  0  0  0  0  0  0  0  0  0  0  0
   10.7869   43.4005   -6.8824 O   0  0  0  0  0  0  0  0  0  0  0  0
   10.0648   42.3446   -7.8381 P   0  0  0  0  0  0  0  0  0  0  0  0
    9.4499   43.1140   -8.9786 O   0  0  0  0  0  0  0  0  0  0  0  0
   11.1883   41.4271   -8.2348 O   0  0  0  0  0  0  0  0  0  0  0  0
    9.0129   41.6696   -6.9744 O   0  0  0  0  0  0  0  0  0  0  0  0
    8.7374   43.6789   -8.6406 H   0  0  0  0  0  0  0  0  0  0  0  0
   11.5272   40.9720   -7.4481 H   0  0  0  0  0  0  0  0  0  0  0  0
 22 21  1  0  0  0
 22 24  2  0  0  0
 22 23  1  0  0  0
 22 26  1  0  0  0
 21 20  1  0  0  0
 20  1  1  0  0  0
  1  3  1  0  0  0
  1  2  1  0  0  0
  2  6  1  0  0  0
  3  4  1  0  0  0
  3  5  1  0  0  0
  5 42  1  0  0  0
  5  6  1  0  0  0
 42 43  1  0  0  0
  6  8  1  0  0  0
  8 17  1  0  0  0
  8  9  1  0  0  0
  9 10  2  0  0  0
 10 11  1  0  0  0
 11 17  2  0  0  0
 11 12  1  0  0  0
 12 14  2  0  0  0
 12 13  1  0  0  0
 14 15  1  0  0  0
 15 16  2  0  0  0
 16 17  1  0  0  0
 26 27  1  0  0  0
 27 31  1  0  0  0
 27 28  2  0  0  0
 27 29  1  0  0  0
 31 32  1  0  0  0
 32 33  1  0  0  0
 33 34  1  0  0  0
 33 35  1  0  0  0
 34 39  1  0  0  0
 35 37  1  0  0  0
 35 36  1  0  0  0
 37 38  1  0  0  0
 37 39  1  0  0  0
 43 46  2  0  0  0
 43 45  1  0  0  0
 43 44  1  0  0  0
 23 25  1  0  0  0
  4  7  1  0  0  0
 13 18  1  0  0  0
 13 19  1  0  0  0
 29 30  1  0  0  0
 36 40  1  0  0  0
 38 41  1  0  0  0
 44 47  1  0  0  0
 45 48  1  0  0  0
M  END
> <minimizedAffinity>
-8.60699

$$$$
2WZM_NA7_A_1284


 48 51  0  0  0  0  0  0  0  0999 V2000
   13.8224   41.5952   -7.6547 C   0  0  0  0  0  0  0  0  0  0  0  0
   12.5900   41.0478   -8.1554 O   0  0  0  0  0  0  0  0  0  0  0  0
   13.7923   43.0896   -7.9276 C   0  0  0  0  0  0  0  0  0  0  0  0
   14.6553   43.3325   -9.0472 O   0  0  0  0  0  0  0  0  0  0  0  0
   12.3275   43.3900   -8.2489 C   0  0  0  0  0  0  0  0  0  0  0  0
   11.8302   42.0597   -8.8070 C   0  0  0  0  0  0  0  0  0  0  0  0
   14.3737   42.7855   -9.7972 H   0  0  0  0  0  0  0  0  0  0  0  0
   10.3693   41.7814   -8.6359 N   0  0  0  0  0  0  0  0  0  0  0  0
    9.5365   42.1145   -7.6266 C   0  0  0  0  0  0  0  0  0  0  0  0
    8.2879   41.6485   -7.9029 N   0  0  0  0  0  0  0  0  0  0  0  0
    8.3447   41.0168   -9.1031 C   0  0  0  0  0  0  0  0  0  0  0  0
    7.3987   40.3459   -9.8821 C   0  0  0  0  0  0  0  0  0  0  0  0
    6.0918   40.2325   -9.4923 N   0  0  0  0  0  0  0  0  0  0  0  0
    7.8097   39.8082  -11.0696 N   0  0  0  0  0  0  0  0  0  0  0  0
    9.0907   39.9193  -11.4844 C   0  0  0  0  0  0  0  0  0  0  0  0
   10.0081   40.5590  -10.7382 N   0  0  0  0  0  0  0  0  0  0  0  0
    9.6541   41.1091   -9.5540 C   0  0  0  0  0  0  0  0  0  0  0  0
    5.7979   40.6206   -8.6365 H   0  0  0  0  0  0  0  0  0  0  0  0
    5.4455   39.7629  -10.0676 H   0  0  0  0  0  0  0  0  0  0  0  0
   13.9964   41.2329   -6.1798 C   0  0  0  0  0  0  0  0  0  0  0  0
   13.2837   42.1318   -5.3636 O   0  0  0  0  0  0  0  0  0  0  0  0
   13.7928   42.6243   -3.9101 P   0  0  0  0  0  0  0  0  0  0  0  0
   14.5183   41.5488   -3.1071 O   0  0  0  0  0  0  0  0  0  0  0  0
   14.5828   43.8574   -4.2645 O   0  0  0  0  0  0  0  0  0  0  0  0
   15.3673   41.3468   -3.5305 H   0  0  0  0  0  0  0  0  0  0  0  0
   12.3617   43.0083   -3.2525 O   0  0  0  0  0  0  0  0  0  0  0  0
   11.0608   43.6802   -3.9448 P   0  0  0  0  0  0  0  0  0  0  0  0
    9.9710   42.6541   -4.2174 O   0  0  0  0  0  0  0  0  0  0  0  0
   11.6068   44.5553   -5.0143 O   0  0  0  0  0  0  0  0  0  0  0  0
   12.2881   45.1359   -4.6406 H   0  0  0  0  0  0  0  0  0  0  0  0
   10.3930   44.5465   -2.8081 O   0  0  0  0  0  0  0  0  0  0  0  0
    9.1088   45.0722   -3.0042 C   0  0  0  0  0  0  0  0  0  0  0  0
    9.4712   46.5267   -2.9753 C   0  0  0  0  0  0  0  0  0  0  0  0
    8.7742   47.2822   -3.9640 O   0  0  0  0  0  0  0  0  0  0  0  0
    8.9961   47.0273   -1.6393 C   0  0  0  0  0  0  0  0  0  0  0  0
    9.9546   46.6115   -0.6414 O   0  0  0  0  0  0  0  0  0  0  0  0
    8.8183   48.5248   -1.9146 C   0  0  0  0  0  0  0  0  0  0  0  0
    9.9799   49.2943   -1.5494 O   0  0  0  0  0  0  0  0  0  0  0  0
    8.5972   48.6145   -3.4278 C   0  0  0  0  0  0  0  0  0  0  0  0
   10.8414   46.9051   -0.9028 H   0  0  0  0  0  0  0  0  0  0  0  0
   10.7493   48.9736   -2.0454 H   0  0  0  0  0  0  0  0  0  0  0  0
   12.2114   44.3988   -9.2370 O   0  0  0  0  0  0  0  0  0  0  0  0
   10.9972   45.4357   -9.2174 P   0  0  0  0  0  0  0  0  0  0  0  0
    9.8674   44.8236  -10.0046 O   0  0  0  0  0  0  0  0  0  0  0  0
   10.7201   45.6010   -7.7486 O   0  0  0  0  0  0  0  0  0  0  0  0
   11.5310   46.6970   -9.8749 O   0  0  0  0  0  0  0  0  0  0  0  0
   10.1247   44.7520  -10.9371 H   0  0  0  0  0  0  0  0  0  0  0  0
   11.4921   45.9991   -7.3167 H   0  0  0  0  0  0  0  0  0  0  0  0
 22 21  1  0  0  0
 22 24  2  0  0  0
 22 23  1  0  0  0
 22 26  1  0  0  0
 21 20  1  0  0  0
 20  1  1  0  0  0
  1  3  1  0  0  0
  1  2  1  0  0  0
  2  6  1  0  0  0
  3  4  1  0  0  0
  3  5  1  0  0  0
  5 42  1  0  0  0
  5  6  1  0  0  0
 42 43  1  0  0  0
  6  8  1  0  0  0
  8 17  1  0  0  0
  8  9  1  0  0  0
  9 10  2  0  0  0
 10 11  1  0  0  0
 11 17  2  0  0  0
 11 12  1  0  0  0
 12 14  2  0  0  0
 12 13  1  0  0  0
 14 15  1  0  0  0
 15 16  2  0  0  0
 16 17  1  0  0  0
 26 27  1  0  0  0
 27 31  1  0  0  0
 27 28  2  0  0  0
 27 29  1  0  0  0
 31 32  1  0  0  0
 32 33  1  0  0  0
 33 34  1  0  0  0
 33 35  1  0  0  0
 34 39  1  0  0  0
 35 37  1  0  0  0
 35 36  1  0  0  0
 37 38  1  0  0  0
 37 39  1  0  0  0
 43 46  2  0  0  0
 43 45  1  0  0  0
 43 44  1  0  0  0
 23 25  1  0  0  0
  4  7  1  0  0  0
 13 18  1  0  0  0
 13 19  1  0  0  0
 29 30  1  0  0  0
 36 40  1  0  0  0
 38 41  1  0  0  0
 44 47  1  0  0  0
 45 48  1  0  0  0
M  END
> <minimizedAffinity>
-8.53868

$$$$
2WZM_NA7_A_1284


 48 51  0  0  0  0  0  0  0  0999 V2000
    9.3566   40.7432   -0.8549 C   0  0  0  0  0  0  0  0  0  0  0  0
   10.6111   40.0419   -0.7972 O   0  0  0  0  0  0  0  0  0  0  0  0
    9.2304   41.5419    0.4315 C   0  0  0  0  0  0  0  0  0  0  0  0
    8.2968   40.8476    1.2704 O   0  0  0  0  0  0  0  0  0  0  0  0
   10.6430   41.5481    1.0177 C   0  0  0  0  0  0  0  0  0  0  0  0
   11.2391   40.2581    0.4617 C   0  0  0  0  0  0  0  0  0  0  0  0
    8.5943   39.9332    1.3976 H   0  0  0  0  0  0  0  0  0  0  0  0
   12.7264   40.2424    0.2920 N   0  0  0  0  0  0  0  0  0  0  0  0
   13.4843   40.6593   -0.7448 C   0  0  0  0  0  0  0  0  0  0  0  0
   14.7971   40.4482   -0.4542 N   0  0  0  0  0  0  0  0  0  0  0  0
   14.8568   39.8926    0.7830 C   0  0  0  0  0  0  0  0  0  0  0  0
   15.9095   39.4563    1.5911 C   0  0  0  0  0  0  0  0  0  0  0  0
   17.2152   39.5605    1.1948 N   0  0  0  0  0  0  0  0  0  0  0  0
   15.6037   38.9271    2.8136 N   0  0  0  0  0  0  0  0  0  0  0  0
   14.3238   38.8269    3.2348 C   0  0  0  0  0  0  0  0  0  0  0  0
   13.3049   39.2399    2.4610 N   0  0  0  0  0  0  0  0  0  0  0  0
   13.5524   39.7710    1.2416 C   0  0  0  0  0  0  0  0  0  0  0  0
   17.4332   39.9419    0.3138 H   0  0  0  0  0  0  0  0  0  0  0  0
   17.9365   39.2540    1.7907 H   0  0  0  0  0  0  0  0  0  0  0  0
    9.2871   41.5903   -2.1255 C   0  0  0  0  0  0  0  0  0  0  0  0
    9.2948   42.9613   -1.8054 O   0  0  0  0  0  0  0  0  0  0  0  0
    9.3147   44.1426   -2.9093 P   0  0  0  0  0  0  0  0  0  0  0  0
   10.5957   44.9712   -2.9116 O   0  0  0  0  0  0  0  0  0  0  0  0
    8.9915   43.3866   -4.1719 O   0  0  0  0  0  0  0  0  0  0  0  0
   11.3332   44.4254   -3.2263 H   0  0  0  0  0  0  0  0  0  0  0  0
    8.0401   45.0002   -2.3917 O   0  0  0  0  0  0  0  0  0  0  0  0
    7.6067   46.5174   -2.7567 P   0  0  0  0  0  0  0  0  0  0  0  0
    6.1064   46.7272   -2.6156 O   0  0  0  0  0  0  0  0  0  0  0  0
    8.3327   46.8294   -4.0151 O   0  0  0  0  0  0  0  0  0  0  0  0
    9.2750   46.6280   -3.9032 H   0  0  0  0  0  0  0  0  0  0  0  0
    8.1556   47.3978   -1.5684 O   0  0  0  0  0  0  0  0  0  0  0  0
    9.2950   48.1897   -1.7640 C   0  0  0  0  0  0  0  0  0  0  0  0
    9.7140   48.3118   -0.3297 C   0  0  0  0  0  0  0  0  0  0  0  0
   10.8073   47.4550   -0.0060 O   0  0  0  0  0  0  0  0  0  0  0  0
   10.2158   49.7216   -0.1817 C   0  0  0  0  0  0  0  0  0  0  0  0
    9.0686   50.5941   -0.0803 O   0  0  0  0  0  0  0  0  0  0  0  0
   11.1545   49.5919    1.0232 C   0  0  0  0  0  0  0  0  0  0  0  0
   10.5050   49.9205    2.2662 O   0  0  0  0  0  0  0  0  0  0  0  0
   11.5667   48.1165    1.0330 C   0  0  0  0  0  0  0  0  0  0  0  0
    8.4882   50.2836    0.6322 H   0  0  0  0  0  0  0  0  0  0  0  0
    9.7432   49.3345    2.3977 H   0  0  0  0  0  0  0  0  0  0  0  0
   10.6156   41.4933    2.4332 O   0  0  0  0  0  0  0  0  0  0  0  0
   11.1568   42.7091    3.3156 P   0  0  0  0  0  0  0  0  0  0  0  0
   10.8052   42.4169    4.7516 O   0  0  0  0  0  0  0  0  0  0  0  0
   12.6310   42.7096    3.0190 O   0  0  0  0  0  0  0  0  0  0  0  0
   10.4372   43.9408    2.7929 O   0  0  0  0  0  0  0  0  0  0  0  0
    9.8413   42.4352    4.8586 H   0  0  0  0  0  0  0  0  0  0  0  0
   12.7717   42.9047    2.0793 H   0  0  0  0  0  0  0  0  0  0  0  0
 22 21  1  0  0  0
 22 24  2  0  0  0
 22 23  1  0  0  0
 22 26  1  0  0  0
 21 20  1  0  0  0
 20  1  1  0  0  0
  1  3  1  0  0  0
  1  2  1  0  0  0
  2  6  1  0  0  0
  3  4  1  0  0  0
  3  5  1  0  0  0
  5 42  1  0  0  0
  5  6  1  0  0  0
 42 43  1  0  0  0
  6  8  1  0  0  0
  8 17  1  0  0  0
  8  9  1  0  0  0
  9 10  2  0  0  0
 10 11  1  0  0  0
 11 17  2  0  0  0
 11 12  1  0  0  0
 12 14  2  0  0  0
 12 13  1  0  0  0
 14 15  1  0  0  0
 15 16  2  0  0  0
 16 17  1  0  0  0
 26 27  1  0  0  0
 27 31  1  0  0  0
 27 28  2  0  0  0
 27 29  1  0  0  0
 31 32  1  0  0  0
 32 33  1  0  0  0
 33 34  1  0  0  0
 33 35  1  0  0  0
 34 39  1  0  0  0
 35 37  1  0  0  0
 35 36  1  0  0  0
 37 38  1  0  0  0
 37 39  1  0  0  0
 43 46  2  0  0  0
 43 45  1  0  0  0
 43 44  1  0  0  0
 23 25  1  0  0  0
  4  7  1  0  0  0
 13 18  1  0  0  0
 13 19  1  0  0  0
 29 30  1  0  0  0
 36 40  1  0  0  0
 38 41  1  0  0  0
 44 47  1  0  0  0
 45 48  1  0  0  0
M  END
> <minimizedAffinity>
-8.46537

$$$$
2WZM_NA7_A_1284


 48 51  0  0  0  0  0  0  0  0999 V2000
    9.5716   41.1760   -1.9033 C   0  0  0  0  0  0  0  0  0  0  0  0
    8.8894   41.9902   -2.8731 O   0  0  0  0  0  0  0  0  0  0  0  0
   11.0595   41.2909   -2.1889 C   0  0  0  0  0  0  0  0  0  0  0  0
   11.4610   40.0754   -2.8361 O   0  0  0  0  0  0  0  0  0  0  0  0
   11.1789   42.5053   -3.1109 C   0  0  0  0  0  0  0  0  0  0  0  0
    9.8200   42.5306   -3.8047 C   0  0  0  0  0  0  0  0  0  0  0  0
   10.9144   39.9332   -3.6247 H   0  0  0  0  0  0  0  0  0  0  0  0
    9.3457   43.8721   -4.2699 N   0  0  0  0  0  0  0  0  0  0  0  0
    8.8731   44.2533   -5.4759 C   0  0  0  0  0  0  0  0  0  0  0  0
    8.5617   45.5777   -5.4375 N   0  0  0  0  0  0  0  0  0  0  0  0
    8.8438   46.0269   -4.1879 C   0  0  0  0  0  0  0  0  0  0  0  0
    8.7430   47.2757   -3.5697 C   0  0  0  0  0  0  0  0  0  0  0  0
    8.2597   48.3719   -4.2311 N   0  0  0  0  0  0  0  0  0  0  0  0
    9.1303   47.3782   -2.2630 N   0  0  0  0  0  0  0  0  0  0  0  0
    9.5967   46.3080   -1.5830 C   0  0  0  0  0  0  0  0  0  0  0  0
    9.7015   45.1041   -2.1723 N   0  0  0  0  0  0  0  0  0  0  0  0
    9.3322   44.9478   -3.4644 C   0  0  0  0  0  0  0  0  0  0  0  0
    7.9812   48.2958   -5.1723 H   0  0  0  0  0  0  0  0  0  0  0  0
    8.1904   49.2367   -3.7657 H   0  0  0  0  0  0  0  0  0  0  0  0
    9.1724   41.5988   -0.4895 C   0  0  0  0  0  0  0  0  0  0  0  0
   10.2209   41.3461    0.4156 O   0  0  0  0  0  0  0  0  0  0  0  0
   10.0558   41.4067    2.0229 P   0  0  0  0  0  0  0  0  0  0  0  0
    8.7748   40.7608    2.5420 O   0  0  0  0  0  0  0  0  0  0  0  0
   11.3571   40.8053    2.4867 O   0  0  0  0  0  0  0  0  0  0  0  0
    8.8188   39.8012    2.4068 H   0  0  0  0  0  0  0  0  0  0  0  0
   10.0452   43.0157    2.2202 O   0  0  0  0  0  0  0  0  0  0  0  0
   10.6065   43.9027    3.4535 P   0  0  0  0  0  0  0  0  0  0  0  0
   12.0953   44.1851    3.3163 O   0  0  0  0  0  0  0  0  0  0  0  0
   10.0311   43.2724    4.6698 O   0  0  0  0  0  0  0  0  0  0  0  0
    9.0717   43.1783    4.5622 H   0  0  0  0  0  0  0  0  0  0  0  0
    9.9971   45.3412    3.2346 O   0  0  0  0  0  0  0  0  0  0  0  0
   10.5496   46.4363    3.9126 C   0  0  0  0  0  0  0  0  0  0  0  0
   10.5553   47.4081    2.7711 C   0  0  0  0  0  0  0  0  0  0  0  0
    9.4264   47.2496    1.9141 O   0  0  0  0  0  0  0  0  0  0  0  0
   10.4250   48.7654    3.4051 C   0  0  0  0  0  0  0  0  0  0  0  0
   11.7188   49.1381    3.9292 O   0  0  0  0  0  0  0  0  0  0  0  0
    9.8277   49.5878    2.2576 C   0  0  0  0  0  0  0  0  0  0  0  0
   10.8337   50.2786    1.4923 O   0  0  0  0  0  0  0  0  0  0  0  0
    9.1248   48.5560    1.3699 C   0  0  0  0  0  0  0  0  0  0  0  0
   12.3840   49.0708    3.2264 H   0  0  0  0  0  0  0  0  0  0  0  0
   11.4588   49.6346    1.1243 H   0  0  0  0  0  0  0  0  0  0  0  0
   12.2051   42.3263   -4.0713 O   0  0  0  0  0  0  0  0  0  0  0  0
   13.3292   43.4384   -4.2932 P   0  0  0  0  0  0  0  0  0  0  0  0
   14.0450   43.1075   -5.5775 O   0  0  0  0  0  0  0  0  0  0  0  0
   12.5361   44.7155   -4.3290 O   0  0  0  0  0  0  0  0  0  0  0  0
   14.2468   43.3333   -3.0870 O   0  0  0  0  0  0  0  0  0  0  0  0
   14.5301   42.2742   -5.4718 H   0  0  0  0  0  0  0  0  0  0  0  0
   12.1089   44.8550   -3.4694 H   0  0  0  0  0  0  0  0  0  0  0  0
 22 21  1  0  0  0
 22 24  2  0  0  0
 22 23  1  0  0  0
 22 26  1  0  0  0
 21 20  1  0  0  0
 20  1  1  0  0  0
  1  3  1  0  0  0
  1  2  1  0  0  0
  2  6  1  0  0  0
  3  4  1  0  0  0
  3  5  1  0  0  0
  5 42  1  0  0  0
  5  6  1  0  0  0
 42 43  1  0  0  0
  6  8  1  0  0  0
  8 17  1  0  0  0
  8  9  1  0  0  0
  9 10  2  0  0  0
 10 11  1  0  0  0
 11 17  2  0  0  0
 11 12  1  0  0  0
 12 14  2  0  0  0
 12 13  1  0  0  0
 14 15  1  0  0  0
 15 16  2  0  0  0
 16 17  1  0  0  0
 26 27  1  0  0  0
 27 31  1  0  0  0
 27 28  2  0  0  0
 27 29  1  0  0  0
 31 32  1  0  0  0
 32 33  1  0  0  0
 33 34  1  0  0  0
 33 35  1  0  0  0
 34 39  1  0  0  0
 35 37  1  0  0  0
 35 36  1  0  0  0
 37 38  1  0  0  0
 37 39  1  0  0  0
 43 46  2  0  0  0
 43 45  1  0  0  0
 43 44  1  0  0  0
 23 25  1  0  0  0
  4  7  1  0  0  0
 13 18  1  0  0  0
 13 19  1  0  0  0
 29 30  1  0  0  0
 36 40  1  0  0  0
 38 41  1  0  0  0
 44 47  1  0  0  0
 45 48  1  0  0  0
M  END
> <minimizedAffinity>
-8.35829

$$$$
2WZM_NA7_A_1284


 48 51  0  0  0  0  0  0  0  0999 V2000
    9.2839   45.0025   -5.9238 C   0  0  0  0  0  0  0  0  0  0  0  0
   10.5979   44.6847   -5.4326 O   0  0  0  0  0  0  0  0  0  0  0  0
    8.7307   43.7436   -6.5701 C   0  0  0  0  0  0  0  0  0  0  0  0
    8.8210   43.9226   -7.9904 O   0  0  0  0  0  0  0  0  0  0  0  0
    9.6431   42.6236   -6.0680 C   0  0  0  0  0  0  0  0  0  0  0  0
   10.9545   43.3573   -5.8024 C   0  0  0  0  0  0  0  0  0  0  0  0
    9.7382   44.1242   -8.2332 H   0  0  0  0  0  0  0  0  0  0  0  0
   11.8383   42.7618   -4.7510 N   0  0  0  0  0  0  0  0  0  0  0  0
   11.7877   42.8819   -3.4071 C   0  0  0  0  0  0  0  0  0  0  0  0
   12.8002   42.1601   -2.8538 N   0  0  0  0  0  0  0  0  0  0  0  0
   13.4905   41.5810   -3.8691 C   0  0  0  0  0  0  0  0  0  0  0  0
   14.6134   40.7511   -3.9178 C   0  0  0  0  0  0  0  0  0  0  0  0
   15.2531   40.3346   -2.7820 N   0  0  0  0  0  0  0  0  0  0  0  0
   15.0587   40.3449   -5.1444 N   0  0  0  0  0  0  0  0  0  0  0  0
   14.4361   40.7296   -6.2800 C   0  0  0  0  0  0  0  0  0  0  0  0
   13.3581   41.5321   -6.2419 N   0  0  0  0  0  0  0  0  0  0  0  0
   12.8763   41.9635   -5.0536 C   0  0  0  0  0  0  0  0  0  0  0  0
   14.9306   40.6284   -1.8994 H   0  0  0  0  0  0  0  0  0  0  0  0
   16.0359   39.7410   -2.8475 H   0  0  0  0  0  0  0  0  0  0  0  0
    8.4193   45.5543   -4.7903 C   0  0  0  0  0  0  0  0  0  0  0  0
    9.2213   46.1856   -3.8205 O   0  0  0  0  0  0  0  0  0  0  0  0
    8.8481   46.2511   -2.2487 P   0  0  0  0  0  0  0  0  0  0  0  0
    7.3492   46.2750   -1.9651 O   0  0  0  0  0  0  0  0  0  0  0  0
    9.6252   45.0822   -1.7010 O   0  0  0  0  0  0  0  0  0  0  0  0
    6.9617   45.4177   -2.2012 H   0  0  0  0  0  0  0  0  0  0  0  0
    9.5575   47.6597   -1.8740 O   0  0  0  0  0  0  0  0  0  0  0  0
    9.4783   48.5163   -0.5017 P   0  0  0  0  0  0  0  0  0  0  0  0
    8.6576   47.8045    0.5634 O   0  0  0  0  0  0  0  0  0  0  0  0
    9.1751   49.9047   -0.9355 O   0  0  0  0  0  0  0  0  0  0  0  0
    9.8086   50.1758   -1.6182 H   0  0  0  0  0  0  0  0  0  0  0  0
   10.9270   48.4338    0.1171 O   0  0  0  0  0  0  0  0  0  0  0  0
   11.0979   47.9224    1.4106 C   0  0  0  0  0  0  0  0  0  0  0  0
   11.4388   49.2087    2.1011 C   0  0  0  0  0  0  0  0  0  0  0  0
   11.1973   50.3493    1.2797 O   0  0  0  0  0  0  0  0  0  0  0  0
   10.4828   49.3033    3.2580 C   0  0  0  0  0  0  0  0  0  0  0  0
   10.9656   48.4347    4.3067 O   0  0  0  0  0  0  0  0  0  0  0  0
   10.4475   50.8152    3.5084 C   0  0  0  0  0  0  0  0  0  0  0  0
   11.3817   51.2279    4.5243 O   0  0  0  0  0  0  0  0  0  0  0  0
   10.8412   51.4372    2.1649 C   0  0  0  0  0  0  0  0  0  0  0  0
   11.8875   48.6563    4.5114 H   0  0  0  0  0  0  0  0  0  0  0  0
   12.2799   50.9748    4.2596 H   0  0  0  0  0  0  0  0  0  0  0  0
    9.8401   41.6326   -7.0613 O   0  0  0  0  0  0  0  0  0  0  0  0
    8.7889   40.4476   -7.2630 P   0  0  0  0  0  0  0  0  0  0  0  0
    9.5513   39.2473   -7.7621 O   0  0  0  0  0  0  0  0  0  0  0  0
    8.1960   40.2870   -5.8904 O   0  0  0  0  0  0  0  0  0  0  0  0
    7.7949   40.9586   -8.2921 O   0  0  0  0  0  0  0  0  0  0  0  0
    9.8995   39.4312   -8.6486 H   0  0  0  0  0  0  0  0  0  0  0  0
    7.7249   41.0985   -5.6447 H   0  0  0  0  0  0  0  0  0  0  0  0
 22 21  1  0  0  0
 22 24  2  0  0  0
 22 23  1  0  0  0
 22 26  1  0  0  0
 21 20  1  0  0  0
 20  1  1  0  0  0
  1  3  1  0  0  0
  1  2  1  0  0  0
  2  6  1  0  0  0
  3  4  1  0  0  0
  3  5  1  0  0  0
  5 42  1  0  0  0
  5  6  1  0  0  0
 42 43  1  0  0  0
  6  8  1  0  0  0
  8 17  1  0  0  0
  8  9  1  0  0  0
  9 10  2  0  0  0
 10 11  1  0  0  0
 11 17  2  0  0  0
 11 12  1  0  0  0
 12 14  2  0  0  0
 12 13  1  0  0  0
 14 15  1  0  0  0
 15 16  2  0  0  0
 16 17  1  0  0  0
 26 27  1  0  0  0
 27 31  1  0  0  0
 27 28  2  0  0  0
 27 29  1  0  0  0
 31 32  1  0  0  0
 32 33  1  0  0  0
 33 34  1  0  0  0
 33 35  1  0  0  0
 34 39  1  0  0  0
 35 37  1  0  0  0
 35 36  1  0  0  0
 37 38  1  0  0  0
 37 39  1  0  0  0
 43 46  2  0  0  0
 43 45  1  0  0  0
 43 44  1  0  0  0
 23 25  1  0  0  0
  4  7  1  0  0  0
 13 18  1  0  0  0
 13 19  1  0  0  0
 29 30  1  0  0  0
 36 40  1  0  0  0
 38 41  1  0  0  0
 44 47  1  0  0  0
 45 48  1  0  0  0
M  END
> <minimizedAffinity>
-8.21097

$$$$
2WZM_NA7_A_1284


 48 51  0  0  0  0  0  0  0  0999 V2000
    9.5952   41.5248   -5.7495 C   0  0  0  0  0  0  0  0  0  0  0  0
    9.1866   42.1305   -6.9884 O   0  0  0  0  0  0  0  0  0  0  0  0
   11.0952   41.2987   -5.8346 C   0  0  0  0  0  0  0  0  0  0  0  0
   11.2991   39.8990   -6.0728 O   0  0  0  0  0  0  0  0  0  0  0  0
   11.5450   42.1592   -7.0163 C   0  0  0  0  0  0  0  0  0  0  0  0
   10.2903   42.2150   -7.8831 C   0  0  0  0  0  0  0  0  0  0  0  0
   10.8108   39.6317   -6.8673 H   0  0  0  0  0  0  0  0  0  0  0  0
   10.1448   43.4272   -8.7495 N   0  0  0  0  0  0  0  0  0  0  0  0
   10.3156   44.7324   -8.4486 C   0  0  0  0  0  0  0  0  0  0  0  0
   10.0733   45.4837   -9.5573 N   0  0  0  0  0  0  0  0  0  0  0  0
    9.7480   44.6327  -10.5637 C   0  0  0  0  0  0  0  0  0  0  0  0
    9.3957   44.8174  -11.9029 C   0  0  0  0  0  0  0  0  0  0  0  0
    9.3390   46.0618  -12.4695 N   0  0  0  0  0  0  0  0  0  0  0  0
    9.1182   43.7088  -12.6526 N   0  0  0  0  0  0  0  0  0  0  0  0
    9.1817   42.4682  -12.1212 C   0  0  0  0  0  0  0  0  0  0  0  0
    9.5150   42.2824  -10.8320 N   0  0  0  0  0  0  0  0  0  0  0  0
    9.7989   43.3460  -10.0456 C   0  0  0  0  0  0  0  0  0  0  0  0
    9.5393   46.8590  -11.9277 H   0  0  0  0  0  0  0  0  0  0  0  0
    9.0979   46.1598  -13.4190 H   0  0  0  0  0  0  0  0  0  0  0  0
    9.1608   42.3964   -4.5711 C   0  0  0  0  0  0  0  0  0  0  0  0
   10.2836   42.9479   -3.9251 O   0  0  0  0  0  0  0  0  0  0  0  0
   10.7215   44.4993   -4.0504 P   0  0  0  0  0  0  0  0  0  0  0  0
   12.2289   44.7152   -4.1442 O   0  0  0  0  0  0  0  0  0  0  0  0
    9.8947   44.9565   -5.2241 O   0  0  0  0  0  0  0  0  0  0  0  0
   12.5523   44.3731   -4.9924 H   0  0  0  0  0  0  0  0  0  0  0  0
   10.1170   45.0514   -2.6512 O   0  0  0  0  0  0  0  0  0  0  0  0
    8.9940   46.1901   -2.3960 P   0  0  0  0  0  0  0  0  0  0  0  0
    7.6776   45.5912   -1.9236 O   0  0  0  0  0  0  0  0  0  0  0  0
    9.0759   47.0797   -3.5833 O   0  0  0  0  0  0  0  0  0  0  0  0
    9.9962   47.3547   -3.7184 H   0  0  0  0  0  0  0  0  0  0  0  0
    9.4703   46.9523   -1.0996 O   0  0  0  0  0  0  0  0  0  0  0  0
   10.0621   48.2169   -1.2196 C   0  0  0  0  0  0  0  0  0  0  0  0
   10.1634   48.5402    0.2408 C   0  0  0  0  0  0  0  0  0  0  0  0
   11.2814   47.9098    0.8627 O   0  0  0  0  0  0  0  0  0  0  0  0
   10.4173   50.0211    0.3025 C   0  0  0  0  0  0  0  0  0  0  0  0
    9.1598   50.6979    0.0834 O   0  0  0  0  0  0  0  0  0  0  0  0
   11.1045   50.1616    1.6656 C   0  0  0  0  0  0  0  0  0  0  0  0
   10.1788   50.4933    2.7182 O   0  0  0  0  0  0  0  0  0  0  0  0
   11.7142   48.7819    1.9332 C   0  0  0  0  0  0  0  0  0  0  0  0
    8.4993   50.3640    0.7104 H   0  0  0  0  0  0  0  0  0  0  0  0
    9.4986   49.8046    2.7795 H   0  0  0  0  0  0  0  0  0  0  0  0
   12.5980   41.5410   -7.7350 O   0  0  0  0  0  0  0  0  0  0  0  0
   13.9396   42.3360   -8.0778 P   0  0  0  0  0  0  0  0  0  0  0  0
   13.5974   43.3733   -9.1161 O   0  0  0  0  0  0  0  0  0  0  0  0
   14.3487   42.8962   -6.7436 O   0  0  0  0  0  0  0  0  0  0  0  0
   14.9040   41.2914   -8.6134 O   0  0  0  0  0  0  0  0  0  0  0  0
   13.3455   42.9325   -9.9427 H   0  0  0  0  0  0  0  0  0  0  0  0
   14.5511   42.1680   -6.1355 H   0  0  0  0  0  0  0  0  0  0  0  0
 22 21  1  0  0  0
 22 24  2  0  0  0
 22 23  1  0  0  0
 22 26  1  0  0  0
 21 20  1  0  0  0
 20  1  1  0  0  0
  1  3  1  0  0  0
  1  2  1  0  0  0
  2  6  1  0  0  0
  3  4  1  0  0  0
  3  5  1  0  0  0
  5 42  1  0  0  0
  5  6  1  0  0  0
 42 43  1  0  0  0
  6  8  1  0  0  0
  8 17  1  0  0  0
  8  9  1  0  0  0
  9 10  2  0  0  0
 10 11  1  0  0  0
 11 17  2  0  0  0
 11 12  1  0  0  0
 12 14  2  0  0  0
 12 13  1  0  0  0
 14 15  1  0  0  0
 15 16  2  0  0  0
 16 17  1  0  0  0
 26 27  1  0  0  0
 27 31  1  0  0  0
 27 28  2  0  0  0
 27 29  1  0  0  0
 31 32  1  0  0  0
 32 33  1  0  0  0
 33 34  1  0  0  0
 33 35  1  0  0  0
 34 39  1  0  0  0
 35 37  1  0  0  0
 35 36  1  0  0  0
 37 38  1  0  0  0
 37 39  1  0  0  0
 43 46  2  0  0  0
 43 45  1  0  0  0
 43 44  1  0  0  0
 23 25  1  0  0  0
  4  7  1  0  0  0
 13 18  1  0  0  0
 13 19  1  0  0  0
 29 30  1  0  0  0
 36 40  1  0  0  0
 38 41  1  0  0  0
 44 47  1  0  0  0
 45 48  1  0  0  0
M  END
> <minimizedAffinity>
-8.19058

$$$$
