1O7O_UDP_A_1371


 31 32  0  0  0  0  0  0  0  0999 V2000
    3.2292   10.7929   43.1941 C   0  0  0  0  0  0  0  0  0  0  0  0
    4.7238   10.6045   42.8964 C   0  0  0  0  0  0  0  0  0  0  0  0
    4.9433    9.4713   42.0711 O   0  0  0  0  0  0  0  0  0  0  0  0
    5.2981   10.4608   44.3029 C   0  0  0  0  0  0  0  0  0  0  0  0
    4.2510    9.5648   44.9820 C   0  0  0  0  0  0  0  0  0  0  0  0
    2.9844   10.0176   44.3875 O   0  0  0  0  0  0  0  0  0  0  0  0
    6.5711    9.8083   44.1947 O   0  0  0  0  0  0  0  0  0  0  0  0
    4.5593    8.6859   42.4914 H   0  0  0  0  0  0  0  0  0  0  0  0
    6.4664    8.9731   43.7126 H   0  0  0  0  0  0  0  0  0  0  0  0
    2.7962   12.2203   43.4003 N   0  0  0  0  0  0  0  0  0  0  0  0
    2.8498   13.1055   42.3169 C   0  0  0  0  0  0  0  0  0  0  0  0
    2.4347   14.4048   42.5714 N   0  0  0  0  0  0  0  0  0  0  0  0
    1.9672   14.9108   43.8111 C   0  0  0  0  0  0  0  0  0  0  0  0
    1.9329   13.9575   44.8935 C   0  0  0  0  0  0  0  0  0  0  0  0
    2.3343   12.6851   44.6617 C   0  0  0  0  0  0  0  0  0  0  0  0
    3.2422   12.7628   41.1950 O   0  0  0  0  0  0  0  0  0  0  0  0
    1.6391   16.0938   43.8606 O   0  0  0  0  0  0  0  0  0  0  0  0
    2.4679   15.0373   41.8177 H   0  0  0  0  0  0  0  0  0  0  0  0
    4.1406    9.7371   46.5265 C   0  0  0  0  0  0  0  0  0  0  0  0
    3.5827    8.5445   47.0565 O   0  0  0  0  0  0  0  0  0  0  0  0
    3.7787    7.7789   48.4156 P   0  0  0  0  0  0  0  0  0  0  0  0
    3.5917    6.3305   48.1418 O   0  0  0  0  0  0  0  0  0  0  0  0
    5.1052    8.2235   48.9729 O   0  0  0  0  0  0  0  0  0  0  0  0
    5.8220    7.8630   48.4278 H   0  0  0  0  0  0  0  0  0  0  0  0
    2.5455    8.3173   49.2381 O   0  0  0  0  0  0  0  0  0  0  0  0
    2.0911    7.8930   50.7083 P   0  0  0  0  0  0  0  0  0  0  0  0
    3.4742    7.7249   51.5119 O   0  0  0  0  0  0  0  0  0  0  0  0
    1.3946    6.6062   50.4726 O   0  0  0  0  0  0  0  0  0  0  0  0
    1.4063    8.9945   51.4239 O   0  0  0  0  0  0  0  0  0  0  0  0
    1.9842    6.0023   49.9944 H   0  0  0  0  0  0  0  0  0  0  0  0
    2.0023    9.7569   51.4900 H   0  0  0  0  0  0  0  0  0  0  0  0
 10 11  1  0  0  0
 10 15  1  0  0  0
 10  1  1  0  0  0
 11 12  1  0  0  0
 11 16  2  0  0  0
 12 13  1  0  0  0
 13 14  1  0  0  0
 13 17  2  0  0  0
 14 15  2  0  0  0
  1  2  1  0  0  0
  1  6  1  0  0  0
  2  3  1  0  0  0
  2  4  1  0  0  0
  4  5  1  0  0  0
  4  7  1  0  0  0
  5  6  1  0  0  0
  5 19  1  0  0  0
 19 20  1  0  0  0
 20 21  1  0  0  0
 21 22  2  0  0  0
 21 23  1  0  0  0
 21 25  1  0  0  0
 25 26  1  0  0  0
 26 27  2  0  0  0
 26 28  1  0  0  0
 26 29  1  0  0  0
 12 18  1  0  0  0
  3  8  1  0  0  0
  7  9  1  0  0  0
 23 24  1  0  0  0
 28 30  1  0  0  0
 29 31  1  0  0  0
M  END
> <minimizedAffinity>
-11.30781

$$$$
1O7O_UDP_A_1371


 31 32  0  0  0  0  0  0  0  0999 V2000
    3.2892   10.7696   43.2129 C   0  0  0  0  0  0  0  0  0  0  0  0
    4.7711   10.6108   42.8433 C   0  0  0  0  0  0  0  0  0  0  0  0
    4.9732    9.4808   42.0092 O   0  0  0  0  0  0  0  0  0  0  0  0
    5.4158   10.4813   44.2204 C   0  0  0  0  0  0  0  0  0  0  0  0
    4.4212    9.5655   44.9502 C   0  0  0  0  0  0  0  0  0  0  0  0
    3.1183    9.9917   44.4175 O   0  0  0  0  0  0  0  0  0  0  0  0
    6.6950    9.8543   44.0511 O   0  0  0  0  0  0  0  0  0  0  0  0
    4.6260    8.6886   42.4483 H   0  0  0  0  0  0  0  0  0  0  0  0
    6.5839    9.0163   43.5754 H   0  0  0  0  0  0  0  0  0  0  0  0
    2.8380   12.1883   43.4388 N   0  0  0  0  0  0  0  0  0  0  0  0
    2.8644   13.0847   42.3635 C   0  0  0  0  0  0  0  0  0  0  0  0
    2.4335   14.3751   42.6360 N   0  0  0  0  0  0  0  0  0  0  0  0
    1.9749   14.8622   43.8866 C   0  0  0  0  0  0  0  0  0  0  0  0
    1.9688   13.8982   44.9599 C   0  0  0  0  0  0  0  0  0  0  0  0
    2.3858   12.6341   44.7105 C   0  0  0  0  0  0  0  0  0  0  0  0
    3.2471   12.7586   41.2333 O   0  0  0  0  0  0  0  0  0  0  0  0
    1.6301   16.0396   43.9519 O   0  0  0  0  0  0  0  0  0  0  0  0
    2.4476   15.0153   41.8882 H   0  0  0  0  0  0  0  0  0  0  0  0
    4.3823    9.7384   46.4981 C   0  0  0  0  0  0  0  0  0  0  0  0
    3.7444    8.5949   47.0457 O   0  0  0  0  0  0  0  0  0  0  0  0
    3.4477    8.1331   48.5189 P   0  0  0  0  0  0  0  0  0  0  0  0
    2.7980    9.2708   49.2199 O   0  0  0  0  0  0  0  0  0  0  0  0
    2.6829    6.8397   48.4190 O   0  0  0  0  0  0  0  0  0  0  0  0
    1.7932    7.0160   48.0749 H   0  0  0  0  0  0  0  0  0  0  0  0
    4.9134    7.9491   49.0713 O   0  0  0  0  0  0  0  0  0  0  0  0
    5.4903    6.7292   49.9240 P   0  0  0  0  0  0  0  0  0  0  0  0
    6.9994    7.1692   50.2647 O   0  0  0  0  0  0  0  0  0  0  0  0
    5.4150    5.6010   48.9660 O   0  0  0  0  0  0  0  0  0  0  0  0
    4.8511    6.6236   51.2562 O   0  0  0  0  0  0  0  0  0  0  0  0
    5.8830    5.8379   48.1501 H   0  0  0  0  0  0  0  0  0  0  0  0
    4.9964    7.4454   51.7506 H   0  0  0  0  0  0  0  0  0  0  0  0
 10 11  1  0  0  0
 10 15  1  0  0  0
 10  1  1  0  0  0
 11 12  1  0  0  0
 11 16  2  0  0  0
 12 13  1  0  0  0
 13 14  1  0  0  0
 13 17  2  0  0  0
 14 15  2  0  0  0
  1  2  1  0  0  0
  1  6  1  0  0  0
  2  3  1  0  0  0
  2  4  1  0  0  0
  4  5  1  0  0  0
  4  7  1  0  0  0
  5  6  1  0  0  0
  5 19  1  0  0  0
 19 20  1  0  0  0
 20 21  1  0  0  0
 21 22  2  0  0  0
 21 23  1  0  0  0
 21 25  1  0  0  0
 25 26  1  0  0  0
 26 27  2  0  0  0
 26 28  1  0  0  0
 26 29  1  0  0  0
 12 18  1  0  0  0
  3  8  1  0  0  0
  7  9  1  0  0  0
 23 24  1  0  0  0
 28 30  1  0  0  0
 29 31  1  0  0  0
M  END
> <minimizedAffinity>
-11.11000

$$$$
1O7O_UDP_A_1371


 31 32  0  0  0  0  0  0  0  0999 V2000
    3.0482   10.6811   44.4084 C   0  0  0  0  0  0  0  0  0  0  0  0
    4.5413   10.3354   44.3145 C   0  0  0  0  0  0  0  0  0  0  0  0
    4.7313    8.9875   43.9135 O   0  0  0  0  0  0  0  0  0  0  0  0
    5.0106   10.6252   45.7374 C   0  0  0  0  0  0  0  0  0  0  0  0
    3.8589   10.0469   46.5740 C   0  0  0  0  0  0  0  0  0  0  0  0
    2.6702   10.3442   45.7608 O   0  0  0  0  0  0  0  0  0  0  0  0
    6.2371    9.9123   45.9508 O   0  0  0  0  0  0  0  0  0  0  0  0
    4.2645    8.3988   44.5271 H   0  0  0  0  0  0  0  0  0  0  0  0
    6.1036    8.9723   45.7518 H   0  0  0  0  0  0  0  0  0  0  0  0
    2.7076   12.1178   44.1131 N   0  0  0  0  0  0  0  0  0  0  0  0
    2.9719   12.6256   42.8354 C   0  0  0  0  0  0  0  0  0  0  0  0
    2.6325   13.9546   42.6264 N   0  0  0  0  0  0  0  0  0  0  0  0
    2.0501   14.8332   43.5753 C   0  0  0  0  0  0  0  0  0  0  0  0
    1.7995   14.2597   44.8752 C   0  0  0  0  0  0  0  0  0  0  0  0
    2.1245   12.9636   45.0956 C   0  0  0  0  0  0  0  0  0  0  0  0
    3.4779   11.9413   41.9378 O   0  0  0  0  0  0  0  0  0  0  0  0
    1.8140   15.9855   43.2206 O   0  0  0  0  0  0  0  0  0  0  0  0
    2.8137   14.3239   41.7320 H   0  0  0  0  0  0  0  0  0  0  0  0
    3.6607   10.7128   47.9685 C   0  0  0  0  0  0  0  0  0  0  0  0
    2.8442    9.8519   48.7474 O   0  0  0  0  0  0  0  0  0  0  0  0
    2.7121    9.6066   50.2946 P   0  0  0  0  0  0  0  0  0  0  0  0
    3.5018   10.6611   50.9818 O   0  0  0  0  0  0  0  0  0  0  0  0
    1.2384    9.5250   50.5934 O   0  0  0  0  0  0  0  0  0  0  0  0
    0.8382   10.4024   50.4888 H   0  0  0  0  0  0  0  0  0  0  0  0
    3.4545    8.2226   50.4384 O   0  0  0  0  0  0  0  0  0  0  0  0
    3.0071    6.8079   49.8497 P   0  0  0  0  0  0  0  0  0  0  0  0
    1.5570    6.5554   50.4981 O   0  0  0  0  0  0  0  0  0  0  0  0
    4.0479    5.8944   50.3774 O   0  0  0  0  0  0  0  0  0  0  0  0
    2.7308    6.8671   48.3955 O   0  0  0  0  0  0  0  0  0  0  0  0
    4.0967    5.9827   51.3422 H   0  0  0  0  0  0  0  0  0  0  0  0
    2.0261    7.5118   48.2263 H   0  0  0  0  0  0  0  0  0  0  0  0
 10 11  1  0  0  0
 10 15  1  0  0  0
 10  1  1  0  0  0
 11 12  1  0  0  0
 11 16  2  0  0  0
 12 13  1  0  0  0
 13 14  1  0  0  0
 13 17  2  0  0  0
 14 15  2  0  0  0
  1  2  1  0  0  0
  1  6  1  0  0  0
  2  3  1  0  0  0
  2  4  1  0  0  0
  4  5  1  0  0  0
  4  7  1  0  0  0
  5  6  1  0  0  0
  5 19  1  0  0  0
 19 20  1  0  0  0
 20 21  1  0  0  0
 21 22  2  0  0  0
 21 23  1  0  0  0
 21 25  1  0  0  0
 25 26  1  0  0  0
 26 27  2  0  0  0
 26 28  1  0  0  0
 26 29  1  0  0  0
 12 18  1  0  0  0
  3  8  1  0  0  0
  7  9  1  0  0  0
 23 24  1  0  0  0
 28 30  1  0  0  0
 29 31  1  0  0  0
M  END
> <minimizedAffinity>
-10.85562

$$$$
1O7O_UDP_A_1371


 31 32  0  0  0  0  0  0  0  0999 V2000
    3.9864   10.6540   45.2362 C   0  0  0  0  0  0  0  0  0  0  0  0
    5.4226   10.8067   45.7574 C   0  0  0  0  0  0  0  0  0  0  0  0
    6.2308    9.7094   45.3622 O   0  0  0  0  0  0  0  0  0  0  0  0
    5.1923   10.8892   47.2637 C   0  0  0  0  0  0  0  0  0  0  0  0
    4.1159    9.8140   47.4783 C   0  0  0  0  0  0  0  0  0  0  0  0
    3.2910    9.9171   46.2652 O   0  0  0  0  0  0  0  0  0  0  0  0
    6.4238   10.5510   47.9171 O   0  0  0  0  0  0  0  0  0  0  0  0
    5.8247    8.8827   45.6663 H   0  0  0  0  0  0  0  0  0  0  0  0
    6.7309    9.6869   47.6010 H   0  0  0  0  0  0  0  0  0  0  0  0
    3.2729   11.9482   44.9476 N   0  0  0  0  0  0  0  0  0  0  0  0
    3.2502   12.4282   43.6325 C   0  0  0  0  0  0  0  0  0  0  0  0
    2.5745   13.6234   43.4323 N   0  0  0  0  0  0  0  0  0  0  0  0
    1.9137   14.3923   44.4240 C   0  0  0  0  0  0  0  0  0  0  0  0
    1.9683   13.8532   45.7611 C   0  0  0  0  0  0  0  0  0  0  0  0
    2.6235   12.6872   45.9736 C   0  0  0  0  0  0  0  0  0  0  0  0
    3.7964   11.8323   42.6960 O   0  0  0  0  0  0  0  0  0  0  0  0
    1.3630   15.4322   44.0709 O   0  0  0  0  0  0  0  0  0  0  0  0
    2.5516   13.9718   42.5118 H   0  0  0  0  0  0  0  0  0  0  0  0
    3.1874   10.0494   48.7070 C   0  0  0  0  0  0  0  0  0  0  0  0
    3.4623    9.0329   49.6586 O   0  0  0  0  0  0  0  0  0  0  0  0
    2.9249    7.5680   49.8508 P   0  0  0  0  0  0  0  0  0  0  0  0
    1.7331    7.6433   50.7350 O   0  0  0  0  0  0  0  0  0  0  0  0
    2.7416    6.9922   48.4714 O   0  0  0  0  0  0  0  0  0  0  0  0
    1.9944    7.4304   48.0348 H   0  0  0  0  0  0  0  0  0  0  0  0
    4.1220    6.9162   50.6440 O   0  0  0  0  0  0  0  0  0  0  0  0
    5.6197    6.6896   50.1404 P   0  0  0  0  0  0  0  0  0  0  0  0
    6.4452    6.3936   51.4886 O   0  0  0  0  0  0  0  0  0  0  0  0
    5.9556    7.9962   49.5270 O   0  0  0  0  0  0  0  0  0  0  0  0
    5.7668    5.4377   49.3622 O   0  0  0  0  0  0  0  0  0  0  0  0
    5.8023    8.7048   50.1714 H   0  0  0  0  0  0  0  0  0  0  0  0
    5.5055    4.6825   49.9121 H   0  0  0  0  0  0  0  0  0  0  0  0
 10 11  1  0  0  0
 10 15  1  0  0  0
 10  1  1  0  0  0
 11 12  1  0  0  0
 11 16  2  0  0  0
 12 13  1  0  0  0
 13 14  1  0  0  0
 13 17  2  0  0  0
 14 15  2  0  0  0
  1  2  1  0  0  0
  1  6  1  0  0  0
  2  3  1  0  0  0
  2  4  1  0  0  0
  4  5  1  0  0  0
  4  7  1  0  0  0
  5  6  1  0  0  0
  5 19  1  0  0  0
 19 20  1  0  0  0
 20 21  1  0  0  0
 21 22  2  0  0  0
 21 23  1  0  0  0
 21 25  1  0  0  0
 25 26  1  0  0  0
 26 27  2  0  0  0
 26 28  1  0  0  0
 26 29  1  0  0  0
 12 18  1  0  0  0
  3  8  1  0  0  0
  7  9  1  0  0  0
 23 24  1  0  0  0
 28 30  1  0  0  0
 29 31  1  0  0  0
M  END
> <minimizedAffinity>
-10.30064

$$$$
1O7O_UDP_A_1371


 31 32  0  0  0  0  0  0  0  0999 V2000
    3.2723   10.8468   43.0147 C   0  0  0  0  0  0  0  0  0  0  0  0
    4.7734   10.7133   42.7198 C   0  0  0  0  0  0  0  0  0  0  0  0
    5.0240    9.6596   41.8031 O   0  0  0  0  0  0  0  0  0  0  0  0
    5.3361   10.4602   44.1156 C   0  0  0  0  0  0  0  0  0  0  0  0
    4.3002    9.4893   44.7028 C   0  0  0  0  0  0  0  0  0  0  0  0
    3.0310    9.9673   44.1343 O   0  0  0  0  0  0  0  0  0  0  0  0
    6.6229    9.8438   43.9670 O   0  0  0  0  0  0  0  0  0  0  0  0
    4.6515    8.8338   42.1499 H   0  0  0  0  0  0  0  0  0  0  0  0
    6.5399    9.0513   43.4139 H   0  0  0  0  0  0  0  0  0  0  0  0
    2.8087   12.2426   43.3374 N   0  0  0  0  0  0  0  0  0  0  0  0
    2.8289   13.2115   42.3268 C   0  0  0  0  0  0  0  0  0  0  0  0
    2.3867   14.4763   42.6873 N   0  0  0  0  0  0  0  0  0  0  0  0
    1.9223   14.8717   43.9677 C   0  0  0  0  0  0  0  0  0  0  0  0
    1.9230   13.8356   44.9717 C   0  0  0  0  0  0  0  0  0  0  0  0
    2.3511   12.5954   44.6361 C   0  0  0  0  0  0  0  0  0  0  0  0
    3.2158   12.9677   41.1775 O   0  0  0  0  0  0  0  0  0  0  0  0
    1.5674   16.0388   44.1138 O   0  0  0  0  0  0  0  0  0  0  0  0
    2.3963   15.1668   41.9856 H   0  0  0  0  0  0  0  0  0  0  0  0
    4.1706    9.5261   46.2550 C   0  0  0  0  0  0  0  0  0  0  0  0
    4.9947   10.5779   46.7336 O   0  0  0  0  0  0  0  0  0  0  0  0
    5.5954   10.9130   48.1472 P   0  0  0  0  0  0  0  0  0  0  0  0
    6.6162    9.8778   48.4542 O   0  0  0  0  0  0  0  0  0  0  0  0
    6.0447   12.3494   48.0947 O   0  0  0  0  0  0  0  0  0  0  0  0
    6.8208   12.4245   47.5177 H   0  0  0  0  0  0  0  0  0  0  0  0
    4.3329   10.6884   49.0652 O   0  0  0  0  0  0  0  0  0  0  0  0
    4.2855   10.0253   50.5164 P   0  0  0  0  0  0  0  0  0  0  0  0
    5.4895   10.7365   51.3110 O   0  0  0  0  0  0  0  0  0  0  0  0
    4.5437    8.5950   50.2269 O   0  0  0  0  0  0  0  0  0  0  0  0
    3.0812   10.4289   51.2788 O   0  0  0  0  0  0  0  0  0  0  0  0
    5.3682    8.5108   49.7229 H   0  0  0  0  0  0  0  0  0  0  0  0
    3.0689   11.3939   51.3768 H   0  0  0  0  0  0  0  0  0  0  0  0
 10 11  1  0  0  0
 10 15  1  0  0  0
 10  1  1  0  0  0
 11 12  1  0  0  0
 11 16  2  0  0  0
 12 13  1  0  0  0
 13 14  1  0  0  0
 13 17  2  0  0  0
 14 15  2  0  0  0
  1  2  1  0  0  0
  1  6  1  0  0  0
  2  3  1  0  0  0
  2  4  1  0  0  0
  4  5  1  0  0  0
  4  7  1  0  0  0
  5  6  1  0  0  0
  5 19  1  0  0  0
 19 20  1  0  0  0
 20 21  1  0  0  0
 21 22  2  0  0  0
 21 23  1  0  0  0
 21 25  1  0  0  0
 25 26  1  0  0  0
 26 27  2  0  0  0
 26 28  1  0  0  0
 26 29  1  0  0  0
 12 18  1  0  0  0
  3  8  1  0  0  0
  7  9  1  0  0  0
 23 24  1  0  0  0
 28 30  1  0  0  0
 29 31  1  0  0  0
M  END
> <minimizedAffinity>
-10.14812

$$$$
1O7O_UDP_A_1371


 31 32  0  0  0  0  0  0  0  0999 V2000
    4.6533   10.4045   49.3193 C   0  0  0  0  0  0  0  0  0  0  0  0
    5.7957    9.8817   48.4365 C   0  0  0  0  0  0  0  0  0  0  0  0
    6.9841   10.6301   48.6394 O   0  0  0  0  0  0  0  0  0  0  0  0
    5.1993   10.0419   47.0411 C   0  0  0  0  0  0  0  0  0  0  0  0
    4.5088   11.4103   47.1475 C   0  0  0  0  0  0  0  0  0  0  0  0
    4.0087   11.4280   48.5304 O   0  0  0  0  0  0  0  0  0  0  0  0
    6.2809   10.0605   46.0988 O   0  0  0  0  0  0  0  0  0  0  0  0
    6.8062   11.5697   48.4769 H   0  0  0  0  0  0  0  0  0  0  0  0
    6.9162   10.7494   46.3494 H   0  0  0  0  0  0  0  0  0  0  0  0
    3.6511    9.3647   49.7456 N   0  0  0  0  0  0  0  0  0  0  0  0
    2.8355    9.6267   50.8530 C   0  0  0  0  0  0  0  0  0  0  0  0
    1.9314    8.6304   51.1925 N   0  0  0  0  0  0  0  0  0  0  0  0
    1.7602    7.3885   50.5293 C   0  0  0  0  0  0  0  0  0  0  0  0
    2.6257    7.1693   49.3960 C   0  0  0  0  0  0  0  0  0  0  0  0
    3.5135    8.1321   49.0511 C   0  0  0  0  0  0  0  0  0  0  0  0
    2.9068   10.6792   51.4991 O   0  0  0  0  0  0  0  0  0  0  0  0
    0.9089    6.6177   50.9661 O   0  0  0  0  0  0  0  0  0  0  0  0
    1.3522    8.8024   51.9698 H   0  0  0  0  0  0  0  0  0  0  0  0
    3.2896   11.6071   46.1977 C   0  0  0  0  0  0  0  0  0  0  0  0
    3.7774   11.6260   44.8650 O   0  0  0  0  0  0  0  0  0  0  0  0
    3.0741   11.7656   43.4659 P   0  0  0  0  0  0  0  0  0  0  0  0
    1.7944   11.0134   43.5337 O   0  0  0  0  0  0  0  0  0  0  0  0
    3.0081   13.2391   43.1622 O   0  0  0  0  0  0  0  0  0  0  0  0
    2.3702   13.6635   43.7571 H   0  0  0  0  0  0  0  0  0  0  0  0
    4.0895   10.9847   42.5460 O   0  0  0  0  0  0  0  0  0  0  0  0
    4.8325    9.6073   42.8601 P   0  0  0  0  0  0  0  0  0  0  0  0
    6.2798   10.0574   43.3984 O   0  0  0  0  0  0  0  0  0  0  0  0
    4.8827    8.9564   41.5296 O   0  0  0  0  0  0  0  0  0  0  0  0
    4.2372    8.8996   44.0173 O   0  0  0  0  0  0  0  0  0  0  0  0
    5.3014    9.5557   40.8921 H   0  0  0  0  0  0  0  0  0  0  0  0
    4.2864    9.4662   44.8031 H   0  0  0  0  0  0  0  0  0  0  0  0
 10 11  1  0  0  0
 10 15  1  0  0  0
 10  1  1  0  0  0
 11 12  1  0  0  0
 11 16  2  0  0  0
 12 13  1  0  0  0
 13 14  1  0  0  0
 13 17  2  0  0  0
 14 15  2  0  0  0
  1  2  1  0  0  0
  1  6  1  0  0  0
  2  3  1  0  0  0
  2  4  1  0  0  0
  4  5  1  0  0  0
  4  7  1  0  0  0
  5  6  1  0  0  0
  5 19  1  0  0  0
 19 20  1  0  0  0
 20 21  1  0  0  0
 21 22  2  0  0  0
 21 23  1  0  0  0
 21 25  1  0  0  0
 25 26  1  0  0  0
 26 27  2  0  0  0
 26 28  1  0  0  0
 26 29  1  0  0  0
 12 18  1  0  0  0
  3  8  1  0  0  0
  7  9  1  0  0  0
 23 24  1  0  0  0
 28 30  1  0  0  0
 29 31  1  0  0  0
M  END
> <minimizedAffinity>
-9.97723

$$$$
1O7O_UDP_A_1371


 31 32  0  0  0  0  0  0  0  0999 V2000
    4.8005    9.8932   45.4311 C   0  0  0  0  0  0  0  0  0  0  0  0
    5.8429   10.8022   46.0981 C   0  0  0  0  0  0  0  0  0  0  0  0
    6.8886   10.0409   46.6818 O   0  0  0  0  0  0  0  0  0  0  0  0
    4.9867   11.5513   47.1152 C   0  0  0  0  0  0  0  0  0  0  0  0
    4.0848   10.4309   47.6555 C   0  0  0  0  0  0  0  0  0  0  0  0
    3.8464    9.5910   46.4721 O   0  0  0  0  0  0  0  0  0  0  0  0
    5.8593   12.0709   48.1285 O   0  0  0  0  0  0  0  0  0  0  0  0
    6.5132    9.4043   47.3100 H   0  0  0  0  0  0  0  0  0  0  0  0
    6.3901   11.3487   48.4995 H   0  0  0  0  0  0  0  0  0  0  0  0
    4.1017   10.4933   44.2400 N   0  0  0  0  0  0  0  0  0  0  0  0
    4.2082    9.8512   43.0003 C   0  0  0  0  0  0  0  0  0  0  0  0
    3.5393   10.4526   41.9439 N   0  0  0  0  0  0  0  0  0  0  0  0
    2.7679   11.6412   42.0043 C   0  0  0  0  0  0  0  0  0  0  0  0
    2.6917   12.2623   43.3043 C   0  0  0  0  0  0  0  0  0  0  0  0
    3.3386   11.6878   44.3462 C   0  0  0  0  0  0  0  0  0  0  0  0
    4.8572    8.8100   42.8426 O   0  0  0  0  0  0  0  0  0  0  0  0
    2.2414   12.0365   40.9670 O   0  0  0  0  0  0  0  0  0  0  0  0
    3.6066   10.0110   41.0666 H   0  0  0  0  0  0  0  0  0  0  0  0
    2.7000   10.9026   48.1914 C   0  0  0  0  0  0  0  0  0  0  0  0
    2.2895    9.9872   49.1954 O   0  0  0  0  0  0  0  0  0  0  0  0
    2.8213    9.6680   50.6399 P   0  0  0  0  0  0  0  0  0  0  0  0
    3.7901   10.7343   51.0036 O   0  0  0  0  0  0  0  0  0  0  0  0
    1.6092    9.4910   51.5158 O   0  0  0  0  0  0  0  0  0  0  0  0
    1.1731   10.3483   51.6413 H   0  0  0  0  0  0  0  0  0  0  0  0
    3.6014    8.3229   50.3766 O   0  0  0  0  0  0  0  0  0  0  0  0
    3.0465    6.9879   49.6998 P   0  0  0  0  0  0  0  0  0  0  0  0
    1.6275    6.7462   50.4174 O   0  0  0  0  0  0  0  0  0  0  0  0
    4.0690    5.9843   50.0788 O   0  0  0  0  0  0  0  0  0  0  0  0
    2.6857    7.1880   48.2771 O   0  0  0  0  0  0  0  0  0  0  0  0
    4.1809    5.9847   51.0423 H   0  0  0  0  0  0  0  0  0  0  0  0
    2.0062    7.8770   48.2097 H   0  0  0  0  0  0  0  0  0  0  0  0
 10 11  1  0  0  0
 10 15  1  0  0  0
 10  1  1  0  0  0
 11 12  1  0  0  0
 11 16  2  0  0  0
 12 13  1  0  0  0
 13 14  1  0  0  0
 13 17  2  0  0  0
 14 15  2  0  0  0
  1  2  1  0  0  0
  1  6  1  0  0  0
  2  3  1  0  0  0
  2  4  1  0  0  0
  4  5  1  0  0  0
  4  7  1  0  0  0
  5  6  1  0  0  0
  5 19  1  0  0  0
 19 20  1  0  0  0
 20 21  1  0  0  0
 21 22  2  0  0  0
 21 23  1  0  0  0
 21 25  1  0  0  0
 25 26  1  0  0  0
 26 27  2  0  0  0
 26 28  1  0  0  0
 26 29  1  0  0  0
 12 18  1  0  0  0
  3  8  1  0  0  0
  7  9  1  0  0  0
 23 24  1  0  0  0
 28 30  1  0  0  0
 29 31  1  0  0  0
M  END
> <minimizedAffinity>
-9.96743

$$$$
1O7O_UDP_A_1371


 31 32  0  0  0  0  0  0  0  0999 V2000
    4.1145    7.0282   50.4235 C   0  0  0  0  0  0  0  0  0  0  0  0
    2.6730    7.0588   50.9519 C   0  0  0  0  0  0  0  0  0  0  0  0
    1.8076    6.2970   50.1247 O   0  0  0  0  0  0  0  0  0  0  0  0
    2.3759    8.5555   50.9384 C   0  0  0  0  0  0  0  0  0  0  0  0
    3.0057    8.9909   49.6063 C   0  0  0  0  0  0  0  0  0  0  0  0
    4.2000    8.1389   49.5045 O   0  0  0  0  0  0  0  0  0  0  0  0
    0.9510    8.7221   50.9361 O   0  0  0  0  0  0  0  0  0  0  0  0
    1.8624    6.6227   49.2127 H   0  0  0  0  0  0  0  0  0  0  0  0
    0.5688    8.2266   50.1950 H   0  0  0  0  0  0  0  0  0  0  0  0
    5.1820    7.1403   51.4795 N   0  0  0  0  0  0  0  0  0  0  0  0
    6.5256    7.1216   51.0861 C   0  0  0  0  0  0  0  0  0  0  0  0
    7.4600    7.2315   52.1059 N   0  0  0  0  0  0  0  0  0  0  0  0
    7.1824    7.3598   53.4908 C   0  0  0  0  0  0  0  0  0  0  0  0
    5.7829    7.3729   53.8412 C   0  0  0  0  0  0  0  0  0  0  0  0
    4.8580    7.2670   52.8576 C   0  0  0  0  0  0  0  0  0  0  0  0
    6.8725    7.0134   49.9036 O   0  0  0  0  0  0  0  0  0  0  0  0
    8.1355    7.4453   54.2613 O   0  0  0  0  0  0  0  0  0  0  0  0
    8.4085    7.2193   51.8424 H   0  0  0  0  0  0  0  0  0  0  0  0
    3.4743   10.4759   49.5549 C   0  0  0  0  0  0  0  0  0  0  0  0
    3.9638   10.7305   48.2473 O   0  0  0  0  0  0  0  0  0  0  0  0
    5.4100   10.7785   47.6325 P   0  0  0  0  0  0  0  0  0  0  0  0
    5.9318   12.1558   47.8285 O   0  0  0  0  0  0  0  0  0  0  0  0
    6.1787    9.6408   48.2510 O   0  0  0  0  0  0  0  0  0  0  0  0
    6.3459    9.8345   49.1867 H   0  0  0  0  0  0  0  0  0  0  0  0
    5.0886   10.5554   46.1047 O   0  0  0  0  0  0  0  0  0  0  0  0
    4.0225    9.5533   45.4666 P   0  0  0  0  0  0  0  0  0  0  0  0
    2.7393   10.4792   45.1782 O   0  0  0  0  0  0  0  0  0  0  0  0
    3.8021    8.5769   46.5594 O   0  0  0  0  0  0  0  0  0  0  0  0
    4.4250    9.0895   44.1185 O   0  0  0  0  0  0  0  0  0  0  0  0
    3.5457    9.0484   47.3674 H   0  0  0  0  0  0  0  0  0  0  0  0
    4.5250    9.8540   43.5300 H   0  0  0  0  0  0  0  0  0  0  0  0
 10 11  1  0  0  0
 10 15  1  0  0  0
 10  1  1  0  0  0
 11 12  1  0  0  0
 11 16  2  0  0  0
 12 13  1  0  0  0
 13 14  1  0  0  0
 13 17  2  0  0  0
 14 15  2  0  0  0
  1  2  1  0  0  0
  1  6  1  0  0  0
  2  3  1  0  0  0
  2  4  1  0  0  0
  4  5  1  0  0  0
  4  7  1  0  0  0
  5  6  1  0  0  0
  5 19  1  0  0  0
 19 20  1  0  0  0
 20 21  1  0  0  0
 21 22  2  0  0  0
 21 23  1  0  0  0
 21 25  1  0  0  0
 25 26  1  0  0  0
 26 27  2  0  0  0
 26 28  1  0  0  0
 26 29  1  0  0  0
 12 18  1  0  0  0
  3  8  1  0  0  0
  7  9  1  0  0  0
 23 24  1  0  0  0
 28 30  1  0  0  0
 29 31  1  0  0  0
M  END
> <minimizedAffinity>
-9.85148

$$$$
1O7O_UDP_A_1371


 31 32  0  0  0  0  0  0  0  0999 V2000
    3.4303   10.6846   44.2160 C   0  0  0  0  0  0  0  0  0  0  0  0
    4.9571   10.5493   44.3077 C   0  0  0  0  0  0  0  0  0  0  0  0
    5.4052    9.3602   43.6762 O   0  0  0  0  0  0  0  0  0  0  0  0
    5.1732   10.5619   45.8182 C   0  0  0  0  0  0  0  0  0  0  0  0
    4.0184    9.6760   46.3103 C   0  0  0  0  0  0  0  0  0  0  0  0
    2.9234   10.0069   45.3860 O   0  0  0  0  0  0  0  0  0  0  0  0
    6.4525    9.9702   46.0854 O   0  0  0  0  0  0  0  0  0  0  0  0
    4.9531    8.5963   44.0673 H   0  0  0  0  0  0  0  0  0  0  0  0
    6.4936    9.0910   45.6777 H   0  0  0  0  0  0  0  0  0  0  0  0
    2.9183   12.0999   44.1691 N   0  0  0  0  0  0  0  0  0  0  0  0
    3.0017   12.8087   42.9646 C   0  0  0  0  0  0  0  0  0  0  0  0
    2.5104   14.1061   42.9865 N   0  0  0  0  0  0  0  0  0  0  0  0
    1.9391   14.7704   44.1017 C   0  0  0  0  0  0  0  0  0  0  0  0
    1.8781   13.9955   45.3171 C   0  0  0  0  0  0  0  0  0  0  0  0
    2.3530   12.7272   45.3126 C   0  0  0  0  0  0  0  0  0  0  0  0
    3.4829   12.3195   41.9353 O   0  0  0  0  0  0  0  0  0  0  0  0
    1.5534   15.9263   43.9449 O   0  0  0  0  0  0  0  0  0  0  0  0
    2.5636   14.6154   42.1456 H   0  0  0  0  0  0  0  0  0  0  0  0
    3.5279    9.9792   47.7576 C   0  0  0  0  0  0  0  0  0  0  0  0
    3.5804    8.7679   48.4954 O   0  0  0  0  0  0  0  0  0  0  0  0
    3.0743    8.3594   49.9267 P   0  0  0  0  0  0  0  0  0  0  0  0
    1.6417    7.9851   49.8024 O   0  0  0  0  0  0  0  0  0  0  0  0
    4.0314    7.3165   50.4406 O   0  0  0  0  0  0  0  0  0  0  0  0
    3.9146    6.4950   49.9383 H   0  0  0  0  0  0  0  0  0  0  0  0
    3.1889    9.7377   50.6846 O   0  0  0  0  0  0  0  0  0  0  0  0
    4.3567   10.2231   51.6585 P   0  0  0  0  0  0  0  0  0  0  0  0
    4.7293    8.9090   52.5079 O   0  0  0  0  0  0  0  0  0  0  0  0
    3.6886   11.2695   52.4680 O   0  0  0  0  0  0  0  0  0  0  0  0
    5.6077   10.5285   50.9262 O   0  0  0  0  0  0  0  0  0  0  0  0
    2.8893   10.9014   52.8761 H   0  0  0  0  0  0  0  0  0  0  0  0
    5.9064    9.7366   50.4522 H   0  0  0  0  0  0  0  0  0  0  0  0
 10 11  1  0  0  0
 10 15  1  0  0  0
 10  1  1  0  0  0
 11 12  1  0  0  0
 11 16  2  0  0  0
 12 13  1  0  0  0
 13 14  1  0  0  0
 13 17  2  0  0  0
 14 15  2  0  0  0
  1  2  1  0  0  0
  1  6  1  0  0  0
  2  3  1  0  0  0
  2  4  1  0  0  0
  4  5  1  0  0  0
  4  7  1  0  0  0
  5  6  1  0  0  0
  5 19  1  0  0  0
 19 20  1  0  0  0
 20 21  1  0  0  0
 21 22  2  0  0  0
 21 23  1  0  0  0
 21 25  1  0  0  0
 25 26  1  0  0  0
 26 27  2  0  0  0
 26 28  1  0  0  0
 26 29  1  0  0  0
 12 18  1  0  0  0
  3  8  1  0  0  0
  7  9  1  0  0  0
 23 24  1  0  0  0
 28 30  1  0  0  0
 29 31  1  0  0  0
M  END
> <minimizedAffinity>
-9.60246

$$$$
1O7O_UDP_A_1371


 31 32  0  0  0  0  0  0  0  0999 V2000
    3.8336    7.7842   51.2516 C   0  0  0  0  0  0  0  0  0  0  0  0
    2.8226    8.9397   51.2317 C   0  0  0  0  0  0  0  0  0  0  0  0
    1.5008    8.4681   51.4415 O   0  0  0  0  0  0  0  0  0  0  0  0
    3.0537    9.5220   49.8402 C   0  0  0  0  0  0  0  0  0  0  0  0
    3.2007    8.2529   48.9869 C   0  0  0  0  0  0  0  0  0  0  0  0
    3.9023    7.3232   49.8848 O   0  0  0  0  0  0  0  0  0  0  0  0
    1.8886   10.2771   49.4793 O   0  0  0  0  0  0  0  0  0  0  0  0
    1.2887    7.7942   50.7768 H   0  0  0  0  0  0  0  0  0  0  0  0
    1.1019    9.7151   49.5576 H   0  0  0  0  0  0  0  0  0  0  0  0
    5.2071    8.1485   51.7498 N   0  0  0  0  0  0  0  0  0  0  0  0
    6.2757    7.2866   51.4753 C   0  0  0  0  0  0  0  0  0  0  0  0
    7.5151    7.6804   51.9589 N   0  0  0  0  0  0  0  0  0  0  0  0
    7.7946    8.8599   52.6952 C   0  0  0  0  0  0  0  0  0  0  0  0
    6.6586    9.7118   52.9508 C   0  0  0  0  0  0  0  0  0  0  0  0
    5.4418    9.3421   52.4852 C   0  0  0  0  0  0  0  0  0  0  0  0
    6.1367    6.2336   50.8411 O   0  0  0  0  0  0  0  0  0  0  0  0
    8.9551    9.0539   53.0486 O   0  0  0  0  0  0  0  0  0  0  0  0
    8.2749    7.0826   51.7728 H   0  0  0  0  0  0  0  0  0  0  0  0
    4.0677    8.4206   47.7033 C   0  0  0  0  0  0  0  0  0  0  0  0
    3.9591    9.7711   47.2807 O   0  0  0  0  0  0  0  0  0  0  0  0
    5.0148   10.8386   46.8142 P   0  0  0  0  0  0  0  0  0  0  0  0
    4.7093   12.1072   47.5249 O   0  0  0  0  0  0  0  0  0  0  0  0
    6.3726   10.2230   47.0271 O   0  0  0  0  0  0  0  0  0  0  0  0
    6.5522   10.1571   47.9781 H   0  0  0  0  0  0  0  0  0  0  0  0
    4.6304   10.9883   45.2921 O   0  0  0  0  0  0  0  0  0  0  0  0
    5.1717   10.1317   44.0587 P   0  0  0  0  0  0  0  0  0  0  0  0
    4.7608   11.0003   42.7689 O   0  0  0  0  0  0  0  0  0  0  0  0
    4.4037    8.8699   44.1796 O   0  0  0  0  0  0  0  0  0  0  0  0
    6.6517   10.1043   44.0008 O   0  0  0  0  0  0  0  0  0  0  0  0
    3.4549    9.0700   44.2037 H   0  0  0  0  0  0  0  0  0  0  0  0
    6.9890   11.0104   43.9227 H   0  0  0  0  0  0  0  0  0  0  0  0
 10 11  1  0  0  0
 10 15  1  0  0  0
 10  1  1  0  0  0
 11 12  1  0  0  0
 11 16  2  0  0  0
 12 13  1  0  0  0
 13 14  1  0  0  0
 13 17  2  0  0  0
 14 15  2  0  0  0
  1  2  1  0  0  0
  1  6  1  0  0  0
  2  3  1  0  0  0
  2  4  1  0  0  0
  4  5  1  0  0  0
  4  7  1  0  0  0
  5  6  1  0  0  0
  5 19  1  0  0  0
 19 20  1  0  0  0
 20 21  1  0  0  0
 21 22  2  0  0  0
 21 23  1  0  0  0
 21 25  1  0  0  0
 25 26  1  0  0  0
 26 27  2  0  0  0
 26 28  1  0  0  0
 26 29  1  0  0  0
 12 18  1  0  0  0
  3  8  1  0  0  0
  7  9  1  0  0  0
 23 24  1  0  0  0
 28 30  1  0  0  0
 29 31  1  0  0  0
M  END
> <minimizedAffinity>
-9.58769

$$$$
