4FK6_0UJ_A_1201


 27 31  0  0  0  0  0  0  0  0999 V2000
    8.4320   57.0009    0.2837 C   0  0  0  0  0  0  0  0  0  0  0  0
    7.2161   56.6709    0.8340 N   0  0  0  0  0  0  0  0  0  0  0  0
    6.4411   57.8305    0.8710 C   0  0  0  0  0  0  0  0  0  0  0  0
    5.1438   58.2479    1.2959 C   0  0  0  0  0  0  0  0  0  0  0  0
    3.9883   57.6136    1.9385 C   0  0  0  0  0  0  0  0  0  0  0  0
    3.0389   58.5520    2.1258 C   0  0  0  0  0  0  0  0  0  0  0  0
    3.4848   59.7555    1.6370 N   0  0  0  0  0  0  0  0  0  0  0  0
    4.7548   59.6057    1.1249 C   0  0  0  0  0  0  0  0  0  0  0  0
    5.5887   60.4854    0.5646 N   0  0  0  0  0  0  0  0  0  0  0  0
    6.7964   60.1528    0.1734 C   0  0  0  0  0  0  0  0  0  0  0  0
    7.2700   58.8341    0.3124 C   0  0  0  0  0  0  0  0  0  0  0  0
    8.4415   58.2580   -0.0155 N   0  0  0  0  0  0  0  0  0  0  0  0
    2.9744   60.5973    1.6506 H   0  0  0  0  0  0  0  0  0  0  0  0
    5.4860   54.7431    1.1295 C   0  0  0  0  0  0  0  0  0  0  0  0
    5.9272   55.2974    3.4611 C   0  0  0  0  0  0  0  0  0  0  0  0
    6.9273   55.2908    1.2844 C   0  0  0  0  0  0  0  0  0  0  0  0
    7.3169   55.0265    2.7798 C   0  0  0  0  0  0  0  0  0  0  0  0
    5.1501   54.2485    2.5805 C   0  0  0  0  0  0  0  0  0  0  0  0
    7.4898   53.4715    2.9109 C   0  0  0  0  0  0  0  0  0  0  0  0
    5.9943   52.9438    2.8159 C   0  0  0  0  0  0  0  0  0  0  0  0
    9.6105   56.0585    0.0855 C   0  0  0  0  0  0  0  0  0  0  0  0
   10.7793   56.6975   -0.5473 N   0  0  0  0  0  0  0  0  0  0  0  0
   10.8224   57.6501   -0.1853 H   0  0  0  0  0  0  0  0  0  0  0  0
   12.5946   56.3822   -2.6571 C   0  0  0  0  0  0  0  0  0  0  0  0
   10.8902   56.8132   -2.2118 S   0  0  0  0  0  0  0  0  0  0  0  0
   10.6414   58.1899   -2.4445 O   0  0  0  0  0  0  0  0  0  0  0  0
    9.9970   55.8274   -2.7073 O   0  0  0  0  0  0  0  0  0  0  0  0
 27 25  2  0  0  0
 26 25  2  0  0  0
 25 24  1  0  0  0
 25 22  1  0  0  0
 22 21  1  0  0  0
 12 11  1  0  0  0
 12  1  2  0  0  0
 10 11  2  0  0  0
 10  9  1  0  0  0
 21  1  1  0  0  0
 11  3  1  0  0  0
  1  2  1  0  0  0
  9  8  2  0  0  0
  3  2  1  0  0  0
  3  4  2  0  0  0
  2 16  1  0  0  0
  8  4  1  0  0  0
  8  7  1  0  0  0
  4  5  1  0  0  0
 14 16  1  0  0  0
 14 18  1  0  0  0
 16 17  1  0  0  0
  7  6  1  0  0  0
  5  6  2  0  0  0
 18 20  1  0  0  0
 18 15  1  0  0  0
 17 19  1  0  0  0
 17 15  1  0  0  0
 20 19  1  0  0  0
 22 23  1  0  0  0
  7 13  1  0  0  0
M  END
> <minimizedAffinity>
-9.76939

$$$$
4FK6_0UJ_A_1201


 27 31  0  0  0  0  0  0  0  0999 V2000
    8.7500   56.4627    0.2642 C   0  0  0  0  0  0  0  0  0  0  0  0
    7.4827   56.3699    0.7889 N   0  0  0  0  0  0  0  0  0  0  0  0
    6.9010   57.6360    0.7131 C   0  0  0  0  0  0  0  0  0  0  0  0
    5.6754   58.2823    1.0565 C   0  0  0  0  0  0  0  0  0  0  0  0
    4.4169   57.8876    1.6972 C   0  0  0  0  0  0  0  0  0  0  0  0
    3.6239   58.9745    1.7802 C   0  0  0  0  0  0  0  0  0  0  0  0
    4.2684   60.0526    1.2247 N   0  0  0  0  0  0  0  0  0  0  0  0
    5.5120   59.6673    0.7743 C   0  0  0  0  0  0  0  0  0  0  0  0
    6.4899   60.3602    0.1857 N   0  0  0  0  0  0  0  0  0  0  0  0
    7.6396   59.8139   -0.1336 C   0  0  0  0  0  0  0  0  0  0  0  0
    7.8938   58.4519    0.1172 C   0  0  0  0  0  0  0  0  0  0  0  0
    8.9673   57.6762   -0.1232 N   0  0  0  0  0  0  0  0  0  0  0  0
    3.8981   60.9623    1.1585 H   0  0  0  0  0  0  0  0  0  0  0  0
    5.4890   54.7105    1.0507 C   0  0  0  0  0  0  0  0  0  0  0  0
    5.7516   55.4477    3.3584 C   0  0  0  0  0  0  0  0  0  0  0  0
    6.9661   55.0906    1.3248 C   0  0  0  0  0  0  0  0  0  0  0  0
    7.1568   54.9386    2.8735 C   0  0  0  0  0  0  0  0  0  0  0  0
    4.9387   54.4156    2.4905 C   0  0  0  0  0  0  0  0  0  0  0  0
    7.1056   53.3965    3.1640 C   0  0  0  0  0  0  0  0  0  0  0  0
    5.5714   53.0492    2.9410 C   0  0  0  0  0  0  0  0  0  0  0  0
    9.7688   55.3352    0.1795 C   0  0  0  0  0  0  0  0  0  0  0  0
   10.3681   54.9804    1.4795 N   0  0  0  0  0  0  0  0  0  0  0  0
   11.1116   55.6570    1.6521 H   0  0  0  0  0  0  0  0  0  0  0  0
   11.5076   52.8272    0.0968 C   0  0  0  0  0  0  0  0  0  0  0  0
   11.0331   53.4661    1.7265 S   0  0  0  0  0  0  0  0  0  0  0  0
    9.9428   52.7312    2.2579 O   0  0  0  0  0  0  0  0  0  0  0  0
   12.1932   53.6996    2.5107 O   0  0  0  0  0  0  0  0  0  0  0  0
 27 25  2  0  0  0
 26 25  2  0  0  0
 25 24  1  0  0  0
 25 22  1  0  0  0
 22 21  1  0  0  0
 12 11  1  0  0  0
 12  1  2  0  0  0
 10 11  2  0  0  0
 10  9  1  0  0  0
 21  1  1  0  0  0
 11  3  1  0  0  0
  1  2  1  0  0  0
  9  8  2  0  0  0
  3  2  1  0  0  0
  3  4  2  0  0  0
  2 16  1  0  0  0
  8  4  1  0  0  0
  8  7  1  0  0  0
  4  5  1  0  0  0
 14 16  1  0  0  0
 14 18  1  0  0  0
 16 17  1  0  0  0
  7  6  1  0  0  0
  5  6  2  0  0  0
 18 20  1  0  0  0
 18 15  1  0  0  0
 17 19  1  0  0  0
 17 15  1  0  0  0
 20 19  1  0  0  0
 22 23  1  0  0  0
  7 13  1  0  0  0
M  END
> <minimizedAffinity>
-9.32700

$$$$
4FK6_0UJ_A_1201


 27 31  0  0  0  0  0  0  0  0999 V2000
    9.4469   55.5824    1.1678 C   0  0  0  0  0  0  0  0  0  0  0  0
    8.0754   55.6222    1.2547 N   0  0  0  0  0  0  0  0  0  0  0  0
    7.6684   56.9125    0.9136 C   0  0  0  0  0  0  0  0  0  0  0  0
    6.4627   57.6678    0.7966 C   0  0  0  0  0  0  0  0  0  0  0  0
    5.0344   57.4172    1.0147 C   0  0  0  0  0  0  0  0  0  0  0  0
    4.3608   58.5580    0.7657 C   0  0  0  0  0  0  0  0  0  0  0  0
    5.2460   59.5363    0.3844 N   0  0  0  0  0  0  0  0  0  0  0  0
    6.5270   59.0297    0.3899 C   0  0  0  0  0  0  0  0  0  0  0  0
    7.7016   59.6000    0.1105 N   0  0  0  0  0  0  0  0  0  0  0  0
    8.8373   58.9514    0.2191 C   0  0  0  0  0  0  0  0  0  0  0  0
    8.8706   57.6034    0.6244 C   0  0  0  0  0  0  0  0  0  0  0  0
    9.8880   56.7391    0.7971 N   0  0  0  0  0  0  0  0  0  0  0  0
    5.0021   60.4592    0.1438 H   0  0  0  0  0  0  0  0  0  0  0  0
    5.8566   54.2589    1.1317 C   0  0  0  0  0  0  0  0  0  0  0  0
    5.7993   54.9803    3.4585 C   0  0  0  0  0  0  0  0  0  0  0  0
    7.2985   54.4335    1.6719 C   0  0  0  0  0  0  0  0  0  0  0  0
    7.1844   54.2753    3.2276 C   0  0  0  0  0  0  0  0  0  0  0  0
    5.0207   54.0606    2.4449 C   0  0  0  0  0  0  0  0  0  0  0  0
    6.8683   52.7588    3.4837 C   0  0  0  0  0  0  0  0  0  0  0  0
    5.3663   52.6251    2.9838 C   0  0  0  0  0  0  0  0  0  0  0  0
   10.3302   54.3861    1.4916 C   0  0  0  0  0  0  0  0  0  0  0  0
   11.0424   53.8421    0.3204 N   0  0  0  0  0  0  0  0  0  0  0  0
   10.4247   53.9691   -0.4813 H   0  0  0  0  0  0  0  0  0  0  0  0
   12.5166   51.9722    1.7956 C   0  0  0  0  0  0  0  0  0  0  0  0
   11.5409   52.2461    0.2916 S   0  0  0  0  0  0  0  0  0  0  0  0
   12.3669   52.1997   -0.8603 O   0  0  0  0  0  0  0  0  0  0  0  0
   10.3424   51.4875    0.3479 O   0  0  0  0  0  0  0  0  0  0  0  0
 27 25  2  0  0  0
 26 25  2  0  0  0
 25 24  1  0  0  0
 25 22  1  0  0  0
 22 21  1  0  0  0
 12 11  1  0  0  0
 12  1  2  0  0  0
 10 11  2  0  0  0
 10  9  1  0  0  0
 21  1  1  0  0  0
 11  3  1  0  0  0
  1  2  1  0  0  0
  9  8  2  0  0  0
  3  2  1  0  0  0
  3  4  2  0  0  0
  2 16  1  0  0  0
  8  4  1  0  0  0
  8  7  1  0  0  0
  4  5  1  0  0  0
 14 16  1  0  0  0
 14 18  1  0  0  0
 16 17  1  0  0  0
  7  6  1  0  0  0
  5  6  2  0  0  0
 18 20  1  0  0  0
 18 15  1  0  0  0
 17 19  1  0  0  0
 17 15  1  0  0  0
 20 19  1  0  0  0
 22 23  1  0  0  0
  7 13  1  0  0  0
M  END
> <minimizedAffinity>
-8.53332

$$$$
4FK6_0UJ_A_1201


 27 31  0  0  0  0  0  0  0  0999 V2000
    8.7794   57.0853   -0.0908 C   0  0  0  0  0  0  0  0  0  0  0  0
    7.6107   56.6637    0.4977 N   0  0  0  0  0  0  0  0  0  0  0  0
    6.7691   57.7713    0.6054 C   0  0  0  0  0  0  0  0  0  0  0  0
    5.4683   58.0941    1.0971 C   0  0  0  0  0  0  0  0  0  0  0  0
    4.3823   57.3698    1.7650 C   0  0  0  0  0  0  0  0  0  0  0  0
    3.3867   58.2414    2.0225 C   0  0  0  0  0  0  0  0  0  0  0  0
    3.7372   59.4847    1.5565 N   0  0  0  0  0  0  0  0  0  0  0  0
    4.9907   59.4299    0.9878 C   0  0  0  0  0  0  0  0  0  0  0  0
    5.7448   60.3764    0.4235 N   0  0  0  0  0  0  0  0  0  0  0  0
    6.9524   60.1316   -0.0280 C   0  0  0  0  0  0  0  0  0  0  0  0
    7.5108   58.8412    0.0471 C   0  0  0  0  0  0  0  0  0  0  0  0
    8.6998   58.3492   -0.3478 N   0  0  0  0  0  0  0  0  0  0  0  0
    3.1778   60.2924    1.6192 H   0  0  0  0  0  0  0  0  0  0  0  0
    5.9855   54.6940    1.0232 C   0  0  0  0  0  0  0  0  0  0  0  0
    6.8930   55.1180    3.2446 C   0  0  0  0  0  0  0  0  0  0  0  0
    7.4258   55.2551    0.9131 C   0  0  0  0  0  0  0  0  0  0  0  0
    8.1146   54.9101    2.2786 C   0  0  0  0  0  0  0  0  0  0  0  0
    5.9561   54.1099    2.4795 C   0  0  0  0  0  0  0  0  0  0  0  0
    8.3169   53.3531    2.2771 C   0  0  0  0  0  0  0  0  0  0  0  0
    6.8358   52.8076    2.4579 C   0  0  0  0  0  0  0  0  0  0  0  0
   10.0033   56.2244   -0.3687 C   0  0  0  0  0  0  0  0  0  0  0  0
   10.0837   55.7415   -1.7598 N   0  0  0  0  0  0  0  0  0  0  0  0
    9.1791   55.3225   -1.9758 H   0  0  0  0  0  0  0  0  0  0  0  0
   12.6206   55.5626   -2.9337 C   0  0  0  0  0  0  0  0  0  0  0  0
   11.2463   54.6268   -2.2093 S   0  0  0  0  0  0  0  0  0  0  0  0
   10.5781   53.8641   -3.2009 O   0  0  0  0  0  0  0  0  0  0  0  0
   11.6611   54.0209   -0.9944 O   0  0  0  0  0  0  0  0  0  0  0  0
 27 25  2  0  0  0
 26 25  2  0  0  0
 25 24  1  0  0  0
 25 22  1  0  0  0
 22 21  1  0  0  0
 12 11  1  0  0  0
 12  1  2  0  0  0
 10 11  2  0  0  0
 10  9  1  0  0  0
 21  1  1  0  0  0
 11  3  1  0  0  0
  1  2  1  0  0  0
  9  8  2  0  0  0
  3  2  1  0  0  0
  3  4  2  0  0  0
  2 16  1  0  0  0
  8  4  1  0  0  0
  8  7  1  0  0  0
  4  5  1  0  0  0
 14 16  1  0  0  0
 14 18  1  0  0  0
 16 17  1  0  0  0
  7  6  1  0  0  0
  5  6  2  0  0  0
 18 20  1  0  0  0
 18 15  1  0  0  0
 17 19  1  0  0  0
 17 15  1  0  0  0
 20 19  1  0  0  0
 22 23  1  0  0  0
  7 13  1  0  0  0
M  END
> <minimizedAffinity>
-8.53063

$$$$
4FK6_0UJ_A_1201


 27 31  0  0  0  0  0  0  0  0999 V2000
    9.6557   55.5125    1.4186 C   0  0  0  0  0  0  0  0  0  0  0  0
    8.6692   54.7020    1.9287 N   0  0  0  0  0  0  0  0  0  0  0  0
    9.2057   53.4217    2.0690 C   0  0  0  0  0  0  0  0  0  0  0  0
    8.7990   52.1229    2.4997 C   0  0  0  0  0  0  0  0  0  0  0  0
    7.5603   51.5147    2.9955 C   0  0  0  0  0  0  0  0  0  0  0  0
    7.7879   50.2035    3.2105 C   0  0  0  0  0  0  0  0  0  0  0  0
    9.0945   49.9115    2.9046 N   0  0  0  0  0  0  0  0  0  0  0  0
    9.7356   51.0521    2.4737 C   0  0  0  0  0  0  0  0  0  0  0  0
   10.9884   51.2558    2.0589 N   0  0  0  0  0  0  0  0  0  0  0  0
   11.4039   52.4275    1.6385 C   0  0  0  0  0  0  0  0  0  0  0  0
   10.5437   53.5420    1.6197 C   0  0  0  0  0  0  0  0  0  0  0  0
   10.7352   54.8222    1.2506 N   0  0  0  0  0  0  0  0  0  0  0  0
    9.5098   49.0222    2.9815 H   0  0  0  0  0  0  0  0  0  0  0  0
    6.5241   54.6445    3.4092 C   0  0  0  0  0  0  0  0  0  0  0  0
    5.6344   53.7738    1.3144 C   0  0  0  0  0  0  0  0  0  0  0  0
    7.3144   55.2273    2.2104 C   0  0  0  0  0  0  0  0  0  0  0  0
    6.3413   55.1376    0.9844 C   0  0  0  0  0  0  0  0  0  0  0  0
    5.1648   54.2207    2.7494 C   0  0  0  0  0  0  0  0  0  0  0  0
    5.2184   56.2030    1.2477 C   0  0  0  0  0  0  0  0  0  0  0  0
    4.3867   55.5492    2.4329 C   0  0  0  0  0  0  0  0  0  0  0  0
    9.5097   56.9849    1.0623 C   0  0  0  0  0  0  0  0  0  0  0  0
    9.2333   57.2235   -0.3665 N   0  0  0  0  0  0  0  0  0  0  0  0
    8.6630   56.4412   -0.6877 H   0  0  0  0  0  0  0  0  0  0  0  0
   10.7333   55.7540   -2.2203 C   0  0  0  0  0  0  0  0  0  0  0  0
   10.4867   57.3828   -1.4620 S   0  0  0  0  0  0  0  0  0  0  0  0
   11.5842   57.7230   -0.6306 O   0  0  0  0  0  0  0  0  0  0  0  0
   10.0088   58.3010   -2.4334 O   0  0  0  0  0  0  0  0  0  0  0  0
 27 25  2  0  0  0
 26 25  2  0  0  0
 25 24  1  0  0  0
 25 22  1  0  0  0
 22 21  1  0  0  0
 12 11  1  0  0  0
 12  1  2  0  0  0
 10 11  2  0  0  0
 10  9  1  0  0  0
 21  1  1  0  0  0
 11  3  1  0  0  0
  1  2  1  0  0  0
  9  8  2  0  0  0
  3  2  1  0  0  0
  3  4  2  0  0  0
  2 16  1  0  0  0
  8  4  1  0  0  0
  8  7  1  0  0  0
  4  5  1  0  0  0
 14 16  1  0  0  0
 14 18  1  0  0  0
 16 17  1  0  0  0
  7  6  1  0  0  0
  5  6  2  0  0  0
 18 20  1  0  0  0
 18 15  1  0  0  0
 17 19  1  0  0  0
 17 15  1  0  0  0
 20 19  1  0  0  0
 22 23  1  0  0  0
  7 13  1  0  0  0
M  END
> <minimizedAffinity>
-8.42554

$$$$
4FK6_0UJ_A_1201


 27 31  0  0  0  0  0  0  0  0999 V2000
    6.5986   53.0478    2.3903 C   0  0  0  0  0  0  0  0  0  0  0  0
    6.5816   54.2954    1.8129 N   0  0  0  0  0  0  0  0  0  0  0  0
    7.9032   54.6551    1.5469 C   0  0  0  0  0  0  0  0  0  0  0  0
    8.6329   55.7521    0.9973 C   0  0  0  0  0  0  0  0  0  0  0  0
    8.3029   57.0740    0.4551 C   0  0  0  0  0  0  0  0  0  0  0  0
    9.4517   57.6915    0.1143 C   0  0  0  0  0  0  0  0  0  0  0  0
   10.5123   56.8608    0.3809 N   0  0  0  0  0  0  0  0  0  0  0  0
   10.0512   55.6771    0.9138 C   0  0  0  0  0  0  0  0  0  0  0  0
   10.6997   54.5891    1.3365 N   0  0  0  0  0  0  0  0  0  0  0  0
   10.0741   53.5629    1.8636 C   0  0  0  0  0  0  0  0  0  0  0  0
    8.6722   53.5533    1.9953 C   0  0  0  0  0  0  0  0  0  0  0  0
    7.8191   52.6337    2.4834 N   0  0  0  0  0  0  0  0  0  0  0  0
   11.4583   57.0782    0.2162 H   0  0  0  0  0  0  0  0  0  0  0  0
    5.3031   56.2340    0.6280 C   0  0  0  0  0  0  0  0  0  0  0  0
    5.2167   57.0004    2.9395 C   0  0  0  0  0  0  0  0  0  0  0  0
    5.3107   55.0215    1.5929 C   0  0  0  0  0  0  0  0  0  0  0  0
    4.6472   55.5362    2.9169 C   0  0  0  0  0  0  0  0  0  0  0  0
    4.6712   57.3686    1.5091 C   0  0  0  0  0  0  0  0  0  0  0  0
    3.1266   55.7420    2.5841 C   0  0  0  0  0  0  0  0  0  0  0  0
    3.1435   57.0276    1.6509 C   0  0  0  0  0  0  0  0  0  0  0  0
    5.3854   52.2743    2.8866 C   0  0  0  0  0  0  0  0  0  0  0  0
    5.7090   51.2519    3.8990 N   0  0  0  0  0  0  0  0  0  0  0  0
    6.6947   51.3735    4.1314 H   0  0  0  0  0  0  0  0  0  0  0  0
    3.7052   49.3205    3.5828 C   0  0  0  0  0  0  0  0  0  0  0  0
    5.4926   49.6270    3.5687 S   0  0  0  0  0  0  0  0  0  0  0  0
    6.1202   48.9992    4.6748 O   0  0  0  0  0  0  0  0  0  0  0  0
    6.0033   49.4494    2.2562 O   0  0  0  0  0  0  0  0  0  0  0  0
 27 25  2  0  0  0
 26 25  2  0  0  0
 25 24  1  0  0  0
 25 22  1  0  0  0
 22 21  1  0  0  0
 12 11  1  0  0  0
 12  1  2  0  0  0
 10 11  2  0  0  0
 10  9  1  0  0  0
 21  1  1  0  0  0
 11  3  1  0  0  0
  1  2  1  0  0  0
  9  8  2  0  0  0
  3  2  1  0  0  0
  3  4  2  0  0  0
  2 16  1  0  0  0
  8  4  1  0  0  0
  8  7  1  0  0  0
  4  5  1  0  0  0
 14 16  1  0  0  0
 14 18  1  0  0  0
 16 17  1  0  0  0
  7  6  1  0  0  0
  5  6  2  0  0  0
 18 20  1  0  0  0
 18 15  1  0  0  0
 17 19  1  0  0  0
 17 15  1  0  0  0
 20 19  1  0  0  0
 22 23  1  0  0  0
  7 13  1  0  0  0
M  END
> <minimizedAffinity>
-8.29068

$$$$
4FK6_0UJ_A_1201


 27 31  0  0  0  0  0  0  0  0999 V2000
    9.5628   55.5293    0.8346 C   0  0  0  0  0  0  0  0  0  0  0  0
    8.2116   55.6856    1.0339 N   0  0  0  0  0  0  0  0  0  0  0  0
    7.8770   56.9862    0.6553 C   0  0  0  0  0  0  0  0  0  0  0  0
    6.7276   57.8308    0.5971 C   0  0  0  0  0  0  0  0  0  0  0  0
    5.3091   57.7093    0.9483 C   0  0  0  0  0  0  0  0  0  0  0  0
    4.7063   58.8875    0.6922 C   0  0  0  0  0  0  0  0  0  0  0  0
    5.6274   59.7697    0.1829 N   0  0  0  0  0  0  0  0  0  0  0  0
    6.8609   59.1608    0.1096 C   0  0  0  0  0  0  0  0  0  0  0  0
    8.0468   59.6184   -0.2994 N   0  0  0  0  0  0  0  0  0  0  0  0
    9.1341   58.8852   -0.2498 C   0  0  0  0  0  0  0  0  0  0  0  0
    9.0988   57.5609    0.2273 C   0  0  0  0  0  0  0  0  0  0  0  0
   10.0576   56.6259    0.3629 N   0  0  0  0  0  0  0  0  0  0  0  0
    5.4353   60.6964   -0.0886 H   0  0  0  0  0  0  0  0  0  0  0  0
    5.9136   54.4568    1.1133 C   0  0  0  0  0  0  0  0  0  0  0  0
    5.9980   55.3747    3.3690 C   0  0  0  0  0  0  0  0  0  0  0  0
    7.3850   54.5868    1.5819 C   0  0  0  0  0  0  0  0  0  0  0  0
    7.3283   54.5682    3.1486 C   0  0  0  0  0  0  0  0  0  0  0  0
    5.1244   54.4225    2.4693 C   0  0  0  0  0  0  0  0  0  0  0  0
    6.9354   53.1013    3.5474 C   0  0  0  0  0  0  0  0  0  0  0  0
    5.4081   53.0191    3.1177 C   0  0  0  0  0  0  0  0  0  0  0  0
   10.3762   54.2823    1.1507 C   0  0  0  0  0  0  0  0  0  0  0  0
   11.3326   53.9150    0.0898 N   0  0  0  0  0  0  0  0  0  0  0  0
   10.9995   54.3547   -0.7681 H   0  0  0  0  0  0  0  0  0  0  0  0
   11.5087   52.1531   -2.0806 C   0  0  0  0  0  0  0  0  0  0  0  0
   11.6229   52.3096   -0.2774 S   0  0  0  0  0  0  0  0  0  0  0  0
   10.5411   51.6459    0.3556 O   0  0  0  0  0  0  0  0  0  0  0  0
   12.9575   52.0734    0.1449 O   0  0  0  0  0  0  0  0  0  0  0  0
 27 25  2  0  0  0
 26 25  2  0  0  0
 25 24  1  0  0  0
 25 22  1  0  0  0
 22 21  1  0  0  0
 12 11  1  0  0  0
 12  1  2  0  0  0
 10 11  2  0  0  0
 10  9  1  0  0  0
 21  1  1  0  0  0
 11  3  1  0  0  0
  1  2  1  0  0  0
  9  8  2  0  0  0
  3  2  1  0  0  0
  3  4  2  0  0  0
  2 16  1  0  0  0
  8  4  1  0  0  0
  8  7  1  0  0  0
  4  5  1  0  0  0
 14 16  1  0  0  0
 14 18  1  0  0  0
 16 17  1  0  0  0
  7  6  1  0  0  0
  5  6  2  0  0  0
 18 20  1  0  0  0
 18 15  1  0  0  0
 17 19  1  0  0  0
 17 15  1  0  0  0
 20 19  1  0  0  0
 22 23  1  0  0  0
  7 13  1  0  0  0
M  END
> <minimizedAffinity>
-7.98454

$$$$
4FK6_0UJ_A_1201


 27 31  0  0  0  0  0  0  0  0999 V2000
    5.3342   54.6653    1.9088 C   0  0  0  0  0  0  0  0  0  0  0  0
    6.1050   55.6697    1.3732 N   0  0  0  0  0  0  0  0  0  0  0  0
    5.3561   56.8462    1.4189 C   0  0  0  0  0  0  0  0  0  0  0  0
    5.4815   58.2197    1.0509 C   0  0  0  0  0  0  0  0  0  0  0  0
    6.5025   59.0509    0.4053 C   0  0  0  0  0  0  0  0  0  0  0  0
    6.0204   60.3048    0.2935 C   0  0  0  0  0  0  0  0  0  0  0  0
    4.7593   60.3582    0.8348 N   0  0  0  0  0  0  0  0  0  0  0  0
    4.4038   59.1132    1.3050 C   0  0  0  0  0  0  0  0  0  0  0  0
    3.2850   58.6784    1.8900 N   0  0  0  0  0  0  0  0  0  0  0  0
    3.1170   57.4224    2.2313 C   0  0  0  0  0  0  0  0  0  0  0  0
    4.1260   56.4658    2.0091 C   0  0  0  0  0  0  0  0  0  0  0  0
    4.1928   55.1479    2.2751 N   0  0  0  0  0  0  0  0  0  0  0  0
    4.1952   61.1639    0.8799 H   0  0  0  0  0  0  0  0  0  0  0  0
    8.4650   54.6305    1.7569 C   0  0  0  0  0  0  0  0  0  0  0  0
    9.0321   56.9998    1.7080 C   0  0  0  0  0  0  0  0  0  0  0  0
    7.4656   55.4000    0.8567 C   0  0  0  0  0  0  0  0  0  0  0  0
    8.2266   56.6906    0.3949 C   0  0  0  0  0  0  0  0  0  0  0  0
    9.7131   55.5816    1.7735 C   0  0  0  0  0  0  0  0  0  0  0  0
    9.3340   56.2023   -0.6052 C   0  0  0  0  0  0  0  0  0  0  0  0
   10.3748   55.4776    0.3516 C   0  0  0  0  0  0  0  0  0  0  0  0
    5.7279   53.1997    2.0252 C   0  0  0  0  0  0  0  0  0  0  0  0
    4.7408   52.3775    2.7495 N   0  0  0  0  0  0  0  0  0  0  0  0
    4.7157   52.7281    3.7070 H   0  0  0  0  0  0  0  0  0  0  0  0
    3.5078   49.9777    1.9968 C   0  0  0  0  0  0  0  0  0  0  0  0
    4.9247   50.7186    2.8525 S   0  0  0  0  0  0  0  0  0  0  0  0
    4.8489   50.4841    4.2492 O   0  0  0  0  0  0  0  0  0  0  0  0
    6.1203   50.4383    2.1402 O   0  0  0  0  0  0  0  0  0  0  0  0
 27 25  2  0  0  0
 26 25  2  0  0  0
 25 24  1  0  0  0
 25 22  1  0  0  0
 22 21  1  0  0  0
 12 11  1  0  0  0
 12  1  2  0  0  0
 10 11  2  0  0  0
 10  9  1  0  0  0
 21  1  1  0  0  0
 11  3  1  0  0  0
  1  2  1  0  0  0
  9  8  2  0  0  0
  3  2  1  0  0  0
  3  4  2  0  0  0
  2 16  1  0  0  0
  8  4  1  0  0  0
  8  7  1  0  0  0
  4  5  1  0  0  0
 14 16  1  0  0  0
 14 18  1  0  0  0
 16 17  1  0  0  0
  7  6  1  0  0  0
  5  6  2  0  0  0
 18 20  1  0  0  0
 18 15  1  0  0  0
 17 19  1  0  0  0
 17 15  1  0  0  0
 20 19  1  0  0  0
 22 23  1  0  0  0
  7 13  1  0  0  0
M  END
> <minimizedAffinity>
-7.49539

$$$$
4FK6_0UJ_A_1201


 27 31  0  0  0  0  0  0  0  0999 V2000
    7.5546   55.1982    2.3097 C   0  0  0  0  0  0  0  0  0  0  0  0
    7.3702   56.3978    1.6639 N   0  0  0  0  0  0  0  0  0  0  0  0
    8.4393   56.5722    0.7844 C   0  0  0  0  0  0  0  0  0  0  0  0
    8.9136   57.5316   -0.1602 C   0  0  0  0  0  0  0  0  0  0  0  0
    8.4759   58.8461   -0.6406 C   0  0  0  0  0  0  0  0  0  0  0  0
    9.3784   59.2923   -1.5369 C   0  0  0  0  0  0  0  0  0  0  0  0
   10.3707   58.3553   -1.6899 N   0  0  0  0  0  0  0  0  0  0  0  0
   10.1183   57.2754   -0.8726 C   0  0  0  0  0  0  0  0  0  0  0  0
   10.7997   56.1451   -0.6699 N   0  0  0  0  0  0  0  0  0  0  0  0
   10.4122   55.2414    0.1992 C   0  0  0  0  0  0  0  0  0  0  0  0
    9.2378   55.4149    0.9563 C   0  0  0  0  0  0  0  0  0  0  0  0
    8.6402   54.6423    1.8825 N   0  0  0  0  0  0  0  0  0  0  0  0
   11.1448   58.4421   -2.2920 H   0  0  0  0  0  0  0  0  0  0  0  0
    5.1093   56.7241    2.9204 C   0  0  0  0  0  0  0  0  0  0  0  0
    4.3233   56.6537    0.6150 C   0  0  0  0  0  0  0  0  0  0  0  0
    6.2060   57.2605    1.9660 C   0  0  0  0  0  0  0  0  0  0  0  0
    5.4437   57.7527    0.6874 C   0  0  0  0  0  0  0  0  0  0  0  0
    3.7994   56.9130    2.0771 C   0  0  0  0  0  0  0  0  0  0  0  0
    4.6613   59.0424    1.1230 C   0  0  0  0  0  0  0  0  0  0  0  0
    3.5066   58.4569    2.0437 C   0  0  0  0  0  0  0  0  0  0  0  0
    6.6553   54.6157    3.3906 C   0  0  0  0  0  0  0  0  0  0  0  0
    6.9183   53.1929    3.6758 N   0  0  0  0  0  0  0  0  0  0  0  0
    7.9312   53.0743    3.6582 H   0  0  0  0  0  0  0  0  0  0  0  0
    5.4191   50.8294    3.7887 C   0  0  0  0  0  0  0  0  0  0  0  0
    6.2797   51.9956    2.6985 S   0  0  0  0  0  0  0  0  0  0  0  0
    7.4392   51.4005    2.1390 O   0  0  0  0  0  0  0  0  0  0  0  0
    5.3419   52.6630    1.8678 O   0  0  0  0  0  0  0  0  0  0  0  0
 27 25  2  0  0  0
 26 25  2  0  0  0
 25 24  1  0  0  0
 25 22  1  0  0  0
 22 21  1  0  0  0
 12 11  1  0  0  0
 12  1  2  0  0  0
 10 11  2  0  0  0
 10  9  1  0  0  0
 21  1  1  0  0  0
 11  3  1  0  0  0
  1  2  1  0  0  0
  9  8  2  0  0  0
  3  2  1  0  0  0
  3  4  2  0  0  0
  2 16  1  0  0  0
  8  4  1  0  0  0
  8  7  1  0  0  0
  4  5  1  0  0  0
 14 16  1  0  0  0
 14 18  1  0  0  0
 16 17  1  0  0  0
  7  6  1  0  0  0
  5  6  2  0  0  0
 18 20  1  0  0  0
 18 15  1  0  0  0
 17 19  1  0  0  0
 17 15  1  0  0  0
 20 19  1  0  0  0
 22 23  1  0  0  0
  7 13  1  0  0  0
M  END
> <minimizedAffinity>
-7.02767

$$$$
