3DSZ_LIZ_A_187


 59 60  0  0  0  0  0  0  0  0999 V2000
    0.7296   59.1991   66.2472 C   0  0  0  0  0  0  0  0  0  0  0  0
   -0.4188   59.7823   65.4247 C   0  0  0  0  0  0  0  0  0  0  0  0
   -1.6007   60.0779   66.2544 N   0  0  0  0  0  0  0  0  0  0  0  0
   -1.9639   61.4918   66.0488 C   0  0  0  0  0  0  0  0  0  0  0  0
   -2.2989   61.7465   64.5778 C   0  0  0  0  0  0  0  0  0  0  0  0
   -3.7405   63.7132   65.2451 C   0  0  0  0  0  0  0  0  0  0  0  0
   -3.1512   61.9233   66.9064 C   0  0  0  0  0  0  0  0  0  0  0  0
   -3.4205   63.4176   66.7096 C   0  0  0  0  0  0  0  0  0  0  0  0
   -2.6103   63.2246   64.3366 C   0  0  0  0  0  0  0  0  0  0  0  0
   -2.9501   61.6271   68.3323 N   0  0  0  0  0  0  0  0  0  0  0  0
   -4.2253   61.8050   69.0384 C   0  0  0  0  0  0  0  0  0  0  0  0
   -4.4855   60.6026   69.9498 C   0  0  0  0  0  0  0  0  0  0  0  0
   -3.5222   59.8417   70.1782 O   0  0  0  0  0  0  0  0  0  0  0  0
   -5.6470   60.4696   70.3911 O   0  0  0  0  0  0  0  0  0  0  0  0
   -2.6833   60.0220   69.8018 H   0  0  0  0  0  0  0  0  0  0  0  0
   -1.9310   62.4934   68.9453 C   0  0  0  0  0  0  0  0  0  0  0  0
   -0.8298   61.6290   69.5631 C   0  0  0  0  0  0  0  0  0  0  0  0
   -0.0628   62.1832   70.3780 O   0  0  0  0  0  0  0  0  0  0  0  0
   -0.7839   60.4276   69.2232 O   0  0  0  0  0  0  0  0  0  0  0  0
   -1.4008   60.0924   68.6026 H   0  0  0  0  0  0  0  0  0  0  0  0
   -2.7081   59.1862   65.8733 C   0  0  0  0  0  0  0  0  0  0  0  0
   -3.0604   58.1775   66.9640 C   0  0  0  0  0  0  0  0  0  0  0  0
   -2.5924   58.3769   68.1059 O   0  0  0  0  0  0  0  0  0  0  0  0
   -3.7798   57.2026   66.6502 O   0  0  0  0  0  0  0  0  0  0  0  0
   -2.0599   59.1305   68.2690 H   0  0  0  0  0  0  0  0  0  0  0  0
    1.0376   57.7513   65.8400 C   0  0  0  0  0  0  0  0  0  0  0  0
   -0.5010   55.7057   66.0143 C   0  0  0  0  0  0  0  0  0  0  0  0
   -1.1415   54.7287   66.7621 C   0  0  0  0  0  0  0  0  0  0  0  0
   -1.0276   54.7217   68.1586 C   0  0  0  0  0  0  0  0  0  0  0  0
    0.3645   56.6974   68.0129 C   0  0  0  0  0  0  0  0  0  0  0  0
    0.2720   56.6924   66.6320 C   0  0  0  0  0  0  0  0  0  0  0  0
   -0.2893   55.7240   68.7668 C   0  0  0  0  0  0  0  0  0  0  0  0
   -1.5710   53.8222   68.9705 N   0  0  0  0  0  0  0  0  0  0  0  0
   -0.9258   53.2301   69.4205 H   0  0  0  0  0  0  0  0  0  0  0  0
   -2.8534   53.5895   69.2768 C   0  0  0  0  0  0  0  0  0  0  0  0
   -4.0146   54.8906   69.4261 S   0  0  0  0  0  0  0  0  0  0  0  0
   -3.2488   52.3180   69.2594 N   0  0  0  0  0  0  0  0  0  0  0  0
   -3.5816   51.9595   68.4051 H   0  0  0  0  0  0  0  0  0  0  0  0
   -3.2286   51.4066   70.4122 C   0  0  0  0  0  0  0  0  0  0  0  0
   -4.4633   51.6979   71.2647 C   0  0  0  0  0  0  0  0  0  0  0  0
   -4.1276   52.5927   72.3297 O   0  0  0  0  0  0  0  0  0  0  0  0
   -3.4478   52.1873   72.8905 H   0  0  0  0  0  0  0  0  0  0  0  0
   -3.2606   49.9407   69.9803 C   0  0  0  0  0  0  0  0  0  0  0  0
   -4.5767   49.5874   69.5496 O   0  0  0  0  0  0  0  0  0  0  0  0
   -5.2014   49.7156   70.2805 H   0  0  0  0  0  0  0  0  0  0  0  0
   -1.9739   51.6477   71.2547 C   0  0  0  0  0  0  0  0  0  0  0  0
   -1.9011   50.6915   72.3143 O   0  0  0  0  0  0  0  0  0  0  0  0
   -2.6823   50.7786   72.8827 H   0  0  0  0  0  0  0  0  0  0  0  0
    1.9357   60.0315   66.1024 N   0  0  0  0  0  0  0  0  0  0  0  0
    2.4761   60.3777   67.4274 C   0  0  0  0  0  0  0  0  0  0  0  0
    2.2016   61.8536   67.7190 C   0  0  0  0  0  0  0  0  0  0  0  0
    1.6964   62.5286   66.7950 O   0  0  0  0  0  0  0  0  0  0  0  0
    2.4989   62.2790   68.8563 O   0  0  0  0  0  0  0  0  0  0  0  0
    2.8752   61.6999   69.4895 H   0  0  0  0  0  0  0  0  0  0  0  0
    2.9719   59.3753   65.2939 C   0  0  0  0  0  0  0  0  0  0  0  0
    4.3227   60.0725   65.4902 C   0  0  0  0  0  0  0  0  0  0  0  0
    5.2462   59.4005   65.9956 O   0  0  0  0  0  0  0  0  0  0  0  0
    4.4024   61.2654   65.1278 O   0  0  0  0  0  0  0  0  0  0  0  0
    5.0971   58.5080   66.2390 H   0  0  0  0  0  0  0  0  0  0  0  0
 49 55  1  0  0  0
 49  1  1  0  0  0
 49 50  1  0  0  0
 10 16  1  0  0  0
 10 11  1  0  0  0
 10  7  1  0  0  0
 55 56  1  0  0  0
 22 21  1  0  0  0
 22 23  1  0  0  0
 22 24  2  0  0  0
 21  3  1  0  0  0
 17 16  1  0  0  0
 17 18  2  0  0  0
 17 19  1  0  0  0
 11 12  1  0  0  0
  4  5  1  0  0  0
  4  7  1  0  0  0
  4  3  1  0  0  0
  5  9  1  0  0  0
  6  8  1  0  0  0
  6  9  1  0  0  0
 27 28  2  0  0  0
 27 31  1  0  0  0
 28 29  1  0  0  0
 29 32  2  0  0  0
 29 33  1  0  0  0
 30 31  2  0  0  0
 30 32  1  0  0  0
 35 33  1  0  0  0
 35 36  2  0  0  0
 35 37  1  0  0  0
 39 37  1  0  0  0
 39 46  1  0  0  0
 39 43  1  0  0  0
 39 40  1  0  0  0
 12 13  1  0  0  0
 12 14  2  0  0  0
  7  8  1  0  0  0
  3  2  1  0  0  0
  2  1  1  0  0  0
  1 26  1  0  0  0
 56 57  1  0  0  0
 56 58  2  0  0  0
 50 51  1  0  0  0
 51 52  2  0  0  0
 51 53  1  0  0  0
 26 31  1  0  0  0
 46 47  1  0  0  0
 43 44  1  0  0  0
 40 41  1  0  0  0
 19 20  1  0  0  0
 13 15  1  0  0  0
 23 25  1  0  0  0
 57 59  1  0  0  0
 53 54  1  0  0  0
 33 34  1  0  0  0
 37 38  1  0  0  0
 47 48  1  0  0  0
 44 45  1  0  0  0
 41 42  1  0  0  0
M  END
> <minimizedAffinity>
-7.05708

$$$$
3DSZ_LIZ_A_187


 59 60  0  0  0  0  0  0  0  0999 V2000
   -4.5698   60.4372   68.6050 C   0  0  0  0  0  0  0  0  0  0  0  0
   -4.8241   59.8190   67.2306 C   0  0  0  0  0  0  0  0  0  0  0  0
   -3.7381   58.9098   66.8222 N   0  0  0  0  0  0  0  0  0  0  0  0
   -4.2314   57.5253   66.9358 C   0  0  0  0  0  0  0  0  0  0  0  0
   -5.4075   57.2997   65.9834 C   0  0  0  0  0  0  0  0  0  0  0  0
   -4.8935   54.8249   65.9323 C   0  0  0  0  0  0  0  0  0  0  0  0
   -3.1495   56.4904   66.6363 C   0  0  0  0  0  0  0  0  0  0  0  0
   -3.7027   55.0797   66.8552 C   0  0  0  0  0  0  0  0  0  0  0  0
   -5.9745   55.8877   66.1406 C   0  0  0  0  0  0  0  0  0  0  0  0
   -1.9400   56.6929   67.4470 N   0  0  0  0  0  0  0  0  0  0  0  0
   -0.8747   55.8207   66.9364 C   0  0  0  0  0  0  0  0  0  0  0  0
    0.0587   55.4175   68.0811 C   0  0  0  0  0  0  0  0  0  0  0  0
    0.7909   56.3083   68.5599 O   0  0  0  0  0  0  0  0  0  0  0  0
    0.0220   54.2227   68.4452 O   0  0  0  0  0  0  0  0  0  0  0  0
    0.7496   57.1810   68.2213 H   0  0  0  0  0  0  0  0  0  0  0  0
   -2.1657   56.4004   68.8713 C   0  0  0  0  0  0  0  0  0  0  0  0
   -2.1130   57.7015   69.6750 C   0  0  0  0  0  0  0  0  0  0  0  0
   -1.1772   58.4884   69.4212 O   0  0  0  0  0  0  0  0  0  0  0  0
   -3.0166   57.8939   70.5162 O   0  0  0  0  0  0  0  0  0  0  0  0
   -3.6833   57.2480   70.6437 H   0  0  0  0  0  0  0  0  0  0  0  0
   -3.3309   59.2149   65.4409 C   0  0  0  0  0  0  0  0  0  0  0  0
   -1.8695   59.6438   65.3338 C   0  0  0  0  0  0  0  0  0  0  0  0
   -1.1195   59.3795   66.2984 O   0  0  0  0  0  0  0  0  0  0  0  0
   -1.5107   60.2487   64.2986 O   0  0  0  0  0  0  0  0  0  0  0  0
   -1.4575   58.9223   67.0431 H   0  0  0  0  0  0  0  0  0  0  0  0
   -4.2393   61.9326   68.4993 C   0  0  0  0  0  0  0  0  0  0  0  0
   -1.6901   61.8629   68.7802 C   0  0  0  0  0  0  0  0  0  0  0  0
   -0.4096   62.1100   68.3078 C   0  0  0  0  0  0  0  0  0  0  0  0
   -0.2239   62.7497   67.0752 C   0  0  0  0  0  0  0  0  0  0  0  0
   -2.6290   62.8893   66.8330 C   0  0  0  0  0  0  0  0  0  0  0  0
   -2.8143   62.2370   68.0394 C   0  0  0  0  0  0  0  0  0  0  0  0
   -1.3428   63.1501   66.3628 C   0  0  0  0  0  0  0  0  0  0  0  0
    0.9505   63.0106   66.5127 N   0  0  0  0  0  0  0  0  0  0  0  0
    0.9391   63.7441   65.8561 H   0  0  0  0  0  0  0  0  0  0  0  0
    2.1474   62.4384   66.6932 C   0  0  0  0  0  0  0  0  0  0  0  0
    3.1815   62.8722   68.0371 S   0  0  0  0  0  0  0  0  0  0  0  0
    2.4252   61.3843   65.9285 N   0  0  0  0  0  0  0  0  0  0  0  0
    2.3261   61.4930   64.9550 H   0  0  0  0  0  0  0  0  0  0  0  0
    2.8679   60.0718   66.4198 C   0  0  0  0  0  0  0  0  0  0  0  0
    4.3951   60.0821   66.4804 C   0  0  0  0  0  0  0  0  0  0  0  0
    4.9321   59.1364   65.5504 O   0  0  0  0  0  0  0  0  0  0  0  0
    4.6154   58.2473   65.7741 H   0  0  0  0  0  0  0  0  0  0  0  0
    2.3196   59.7708   67.8145 C   0  0  0  0  0  0  0  0  0  0  0  0
    1.1581   58.9442   67.7143 O   0  0  0  0  0  0  0  0  0  0  0  0
    0.4771   59.4045   67.1993 H   0  0  0  0  0  0  0  0  0  0  0  0
    2.4153   58.9683   65.4607 C   0  0  0  0  0  0  0  0  0  0  0  0
    1.3212   59.4269   64.6638 O   0  0  0  0  0  0  0  0  0  0  0  0
    0.5787   59.6653   65.2405 H   0  0  0  0  0  0  0  0  0  0  0  0
   -5.7390   60.2392   69.4782 N   0  0  0  0  0  0  0  0  0  0  0  0
   -6.4962   61.4955   69.6058 C   0  0  0  0  0  0  0  0  0  0  0  0
   -6.7221   61.8052   71.0861 C   0  0  0  0  0  0  0  0  0  0  0  0
   -7.6831   61.2312   71.6442 O   0  0  0  0  0  0  0  0  0  0  0  0
   -5.9324   62.6060   71.6321 O   0  0  0  0  0  0  0  0  0  0  0  0
   -5.2373   62.9906   71.1353 H   0  0  0  0  0  0  0  0  0  0  0  0
   -6.6211   59.1689   68.9944 C   0  0  0  0  0  0  0  0  0  0  0  0
   -6.6847   58.0276   70.0155 C   0  0  0  0  0  0  0  0  0  0  0  0
   -5.7963   57.1521   69.9523 O   0  0  0  0  0  0  0  0  0  0  0  0
   -7.6224   58.0573   70.8404 O   0  0  0  0  0  0  0  0  0  0  0  0
   -5.1279   57.2093   69.2981 H   0  0  0  0  0  0  0  0  0  0  0  0
 49 55  1  0  0  0
 49  1  1  0  0  0
 49 50  1  0  0  0
 10 16  1  0  0  0
 10 11  1  0  0  0
 10  7  1  0  0  0
 55 56  1  0  0  0
 22 21  1  0  0  0
 22 23  1  0  0  0
 22 24  2  0  0  0
 21  3  1  0  0  0
 17 16  1  0  0  0
 17 18  2  0  0  0
 17 19  1  0  0  0
 11 12  1  0  0  0
  4  5  1  0  0  0
  4  7  1  0  0  0
  4  3  1  0  0  0
  5  9  1  0  0  0
  6  8  1  0  0  0
  6  9  1  0  0  0
 27 28  2  0  0  0
 27 31  1  0  0  0
 28 29  1  0  0  0
 29 32  2  0  0  0
 29 33  1  0  0  0
 30 31  2  0  0  0
 30 32  1  0  0  0
 35 33  1  0  0  0
 35 36  2  0  0  0
 35 37  1  0  0  0
 39 37  1  0  0  0
 39 46  1  0  0  0
 39 43  1  0  0  0
 39 40  1  0  0  0
 12 13  1  0  0  0
 12 14  2  0  0  0
  7  8  1  0  0  0
  3  2  1  0  0  0
  2  1  1  0  0  0
  1 26  1  0  0  0
 56 57  1  0  0  0
 56 58  2  0  0  0
 50 51  1  0  0  0
 51 52  2  0  0  0
 51 53  1  0  0  0
 26 31  1  0  0  0
 46 47  1  0  0  0
 43 44  1  0  0  0
 40 41  1  0  0  0
 19 20  1  0  0  0
 13 15  1  0  0  0
 23 25  1  0  0  0
 57 59  1  0  0  0
 53 54  1  0  0  0
 33 34  1  0  0  0
 37 38  1  0  0  0
 47 48  1  0  0  0
 44 45  1  0  0  0
 41 42  1  0  0  0
M  END
> <minimizedAffinity>
-6.92615

$$$$
3DSZ_LIZ_A_187


 59 60  0  0  0  0  0  0  0  0999 V2000
   -1.8910   61.0072   66.4998 C   0  0  0  0  0  0  0  0  0  0  0  0
   -3.0927   61.9070   66.7864 C   0  0  0  0  0  0  0  0  0  0  0  0
   -4.3194   61.1298   67.0390 N   0  0  0  0  0  0  0  0  0  0  0  0
   -5.4324   62.0777   67.2289 C   0  0  0  0  0  0  0  0  0  0  0  0
   -5.8528   62.6802   65.8868 C   0  0  0  0  0  0  0  0  0  0  0  0
   -8.1655   63.1215   66.8075 C   0  0  0  0  0  0  0  0  0  0  0  0
   -6.6511   61.4288   67.8809 C   0  0  0  0  0  0  0  0  0  0  0  0
   -7.7338   62.4830   68.1268 C   0  0  0  0  0  0  0  0  0  0  0  0
   -6.9605   63.7179   66.0769 C   0  0  0  0  0  0  0  0  0  0  0  0
   -6.3161   60.7424   69.1371 N   0  0  0  0  0  0  0  0  0  0  0  0
   -7.4408   59.8801   69.5213 C   0  0  0  0  0  0  0  0  0  0  0  0
   -6.9190   58.6482   70.2658 C   0  0  0  0  0  0  0  0  0  0  0  0
   -5.7524   58.2817   70.0136 O   0  0  0  0  0  0  0  0  0  0  0  0
   -7.7050   58.0974   71.0661 O   0  0  0  0  0  0  0  0  0  0  0  0
   -5.2346   58.7593   69.3957 H   0  0  0  0  0  0  0  0  0  0  0  0
   -6.0314   61.6847   70.2307 C   0  0  0  0  0  0  0  0  0  0  0  0
   -4.5327   61.6720   70.5393 C   0  0  0  0  0  0  0  0  0  0  0  0
   -4.0501   62.7024   71.0541 O   0  0  0  0  0  0  0  0  0  0  0  0
   -3.8997   60.6288   70.2708 O   0  0  0  0  0  0  0  0  0  0  0  0
   -4.3419   59.8991   69.8836 H   0  0  0  0  0  0  0  0  0  0  0  0
   -4.5781   60.2306   65.9027 C   0  0  0  0  0  0  0  0  0  0  0  0
   -4.3988   58.7568   66.2591 C   0  0  0  0  0  0  0  0  0  0  0  0
   -4.7857   58.3861   67.3885 O   0  0  0  0  0  0  0  0  0  0  0  0
   -3.8608   58.0101   65.4109 O   0  0  0  0  0  0  0  0  0  0  0  0
   -5.1813   59.0018   67.9737 H   0  0  0  0  0  0  0  0  0  0  0  0
   -0.8991   61.6784   65.5396 C   0  0  0  0  0  0  0  0  0  0  0  0
   -1.4981   62.1824   63.0964 C   0  0  0  0  0  0  0  0  0  0  0  0
   -1.5902   61.8018   61.7657 C   0  0  0  0  0  0  0  0  0  0  0  0
   -1.2569   60.4964   61.3809 C   0  0  0  0  0  0  0  0  0  0  0  0
   -0.7603   59.9861   63.6951 C   0  0  0  0  0  0  0  0  0  0  0  0
   -1.0670   61.2815   64.0736 C   0  0  0  0  0  0  0  0  0  0  0  0
   -0.8649   59.5981   62.3603 C   0  0  0  0  0  0  0  0  0  0  0  0
   -1.2794   60.0312   60.1373 N   0  0  0  0  0  0  0  0  0  0  0  0
   -0.7359   60.5433   59.4957 H   0  0  0  0  0  0  0  0  0  0  0  0
   -1.9210   58.9790   59.6139 C   0  0  0  0  0  0  0  0  0  0  0  0
   -1.0833   57.4939   59.2186 S   0  0  0  0  0  0  0  0  0  0  0  0
   -3.2512   59.0389   59.6002 N   0  0  0  0  0  0  0  0  0  0  0  0
   -3.7172   58.9416   60.4619 H   0  0  0  0  0  0  0  0  0  0  0  0
   -4.0799   59.2384   58.4029 C   0  0  0  0  0  0  0  0  0  0  0  0
   -3.5850   60.4976   57.6918 C   0  0  0  0  0  0  0  0  0  0  0  0
   -4.5998   61.0019   56.8181 O   0  0  0  0  0  0  0  0  0  0  0  0
   -4.8163   60.3304   56.1524 H   0  0  0  0  0  0  0  0  0  0  0  0
   -3.9831   58.0559   57.4392 C   0  0  0  0  0  0  0  0  0  0  0  0
   -3.1785   58.4095   56.3122 O   0  0  0  0  0  0  0  0  0  0  0  0
   -3.5811   59.1616   55.8507 H   0  0  0  0  0  0  0  0  0  0  0  0
   -5.5447   59.4346   58.8008 C   0  0  0  0  0  0  0  0  0  0  0  0
   -5.7133   60.6957   59.4516 O   0  0  0  0  0  0  0  0  0  0  0  0
   -5.1647   60.7229   60.2511 H   0  0  0  0  0  0  0  0  0  0  0  0
   -1.2121   60.6467   67.7559 N   0  0  0  0  0  0  0  0  0  0  0  0
   -0.8022   59.2330   67.7241 C   0  0  0  0  0  0  0  0  0  0  0  0
   -1.2294   58.5500   69.0239 C   0  0  0  0  0  0  0  0  0  0  0  0
   -2.4583   58.4611   69.2391 O   0  0  0  0  0  0  0  0  0  0  0  0
   -0.3236   58.1290   69.7758 O   0  0  0  0  0  0  0  0  0  0  0  0
    0.5749   58.2391   69.5340 H   0  0  0  0  0  0  0  0  0  0  0  0
   -0.0476   61.5006   68.0249 C   0  0  0  0  0  0  0  0  0  0  0  0
   -0.0965   62.0323   69.4617 C   0  0  0  0  0  0  0  0  0  0  0  0
   -1.2039   62.0215   70.0391 O   0  0  0  0  0  0  0  0  0  0  0  0
    0.9784   62.4374   69.9526 O   0  0  0  0  0  0  0  0  0  0  0  0
   -1.9618   61.6983   69.5929 H   0  0  0  0  0  0  0  0  0  0  0  0
 49 55  1  0  0  0
 49  1  1  0  0  0
 49 50  1  0  0  0
 10 16  1  0  0  0
 10 11  1  0  0  0
 10  7  1  0  0  0
 55 56  1  0  0  0
 22 21  1  0  0  0
 22 23  1  0  0  0
 22 24  2  0  0  0
 21  3  1  0  0  0
 17 16  1  0  0  0
 17 18  2  0  0  0
 17 19  1  0  0  0
 11 12  1  0  0  0
  4  5  1  0  0  0
  4  7  1  0  0  0
  4  3  1  0  0  0
  5  9  1  0  0  0
  6  8  1  0  0  0
  6  9  1  0  0  0
 27 28  2  0  0  0
 27 31  1  0  0  0
 28 29  1  0  0  0
 29 32  2  0  0  0
 29 33  1  0  0  0
 30 31  2  0  0  0
 30 32  1  0  0  0
 35 33  1  0  0  0
 35 36  2  0  0  0
 35 37  1  0  0  0
 39 37  1  0  0  0
 39 46  1  0  0  0
 39 43  1  0  0  0
 39 40  1  0  0  0
 12 13  1  0  0  0
 12 14  2  0  0  0
  7  8  1  0  0  0
  3  2  1  0  0  0
  2  1  1  0  0  0
  1 26  1  0  0  0
 56 57  1  0  0  0
 56 58  2  0  0  0
 50 51  1  0  0  0
 51 52  2  0  0  0
 51 53  1  0  0  0
 26 31  1  0  0  0
 46 47  1  0  0  0
 43 44  1  0  0  0
 40 41  1  0  0  0
 19 20  1  0  0  0
 13 15  1  0  0  0
 23 25  1  0  0  0
 57 59  1  0  0  0
 53 54  1  0  0  0
 33 34  1  0  0  0
 37 38  1  0  0  0
 47 48  1  0  0  0
 44 45  1  0  0  0
 41 42  1  0  0  0
M  END
> <minimizedAffinity>
-6.87998

$$$$
3DSZ_LIZ_A_187


 59 60  0  0  0  0  0  0  0  0999 V2000
   -2.2508   62.7466   65.3146 C   0  0  0  0  0  0  0  0  0  0  0  0
   -1.2126   63.1327   66.3676 C   0  0  0  0  0  0  0  0  0  0  0  0
   -0.8261   61.9873   67.2111 N   0  0  0  0  0  0  0  0  0  0  0  0
    0.5221   61.5517   66.8038 C   0  0  0  0  0  0  0  0  0  0  0  0
    1.4957   62.7315   66.8391 C   0  0  0  0  0  0  0  0  0  0  0  0
    3.4257   61.1312   67.1635 C   0  0  0  0  0  0  0  0  0  0  0  0
    1.0699   60.4343   67.6885 C   0  0  0  0  0  0  0  0  0  0  0  0
    2.4307   59.9716   67.1610 C   0  0  0  0  0  0  0  0  0  0  0  0
    2.8830   62.3095   66.3521 C   0  0  0  0  0  0  0  0  0  0  0  0
    0.1483   59.2930   67.7856 N   0  0  0  0  0  0  0  0  0  0  0  0
    0.7897   58.2304   68.5703 C   0  0  0  0  0  0  0  0  0  0  0  0
    0.1787   58.1811   69.9733 C   0  0  0  0  0  0  0  0  0  0  0  0
   -1.0551   58.0065   70.0516 O   0  0  0  0  0  0  0  0  0  0  0  0
    0.9623   58.3269   70.9358 O   0  0  0  0  0  0  0  0  0  0  0  0
   -1.5646   57.9064   69.2716 H   0  0  0  0  0  0  0  0  0  0  0  0
   -0.2263   58.7625   66.4654 C   0  0  0  0  0  0  0  0  0  0  0  0
   -1.5919   58.0784   66.5580 C   0  0  0  0  0  0  0  0  0  0  0  0
   -1.7739   57.0740   65.8386 O   0  0  0  0  0  0  0  0  0  0  0  0
   -2.4229   58.5605   67.3567 O   0  0  0  0  0  0  0  0  0  0  0  0
   -2.2031   59.3197   67.8599 H   0  0  0  0  0  0  0  0  0  0  0  0
   -0.8479   62.3866   68.6277 C   0  0  0  0  0  0  0  0  0  0  0  0
   -2.0864   61.8856   69.3667 C   0  0  0  0  0  0  0  0  0  0  0  0
   -2.2707   60.6499   69.4104 O   0  0  0  0  0  0  0  0  0  0  0  0
   -2.8533   62.7374   69.8695 O   0  0  0  0  0  0  0  0  0  0  0  0
   -1.6528   60.0697   69.0110 H   0  0  0  0  0  0  0  0  0  0  0  0
   -2.1831   61.2507   64.9766 C   0  0  0  0  0  0  0  0  0  0  0  0
   -1.7186   59.6416   63.0331 C   0  0  0  0  0  0  0  0  0  0  0  0
   -1.5096   59.3959   61.6841 C   0  0  0  0  0  0  0  0  0  0  0  0
   -1.4647   60.4588   60.7723 C   0  0  0  0  0  0  0  0  0  0  0  0
   -1.8277   61.9943   62.6090 C   0  0  0  0  0  0  0  0  0  0  0  0
   -1.8952   60.9440   63.5077 C   0  0  0  0  0  0  0  0  0  0  0  0
   -1.6046   61.7501   61.2547 C   0  0  0  0  0  0  0  0  0  0  0  0
   -1.3002   60.3405   59.4598 N   0  0  0  0  0  0  0  0  0  0  0  0
   -0.4359   60.6687   59.1216 H   0  0  0  0  0  0  0  0  0  0  0  0
   -2.1186   59.8476   58.5218 C   0  0  0  0  0  0  0  0  0  0  0  0
   -3.6607   60.5934   58.1618 S   0  0  0  0  0  0  0  0  0  0  0  0
   -1.6199   58.8942   57.7374 N   0  0  0  0  0  0  0  0  0  0  0  0
   -1.0827   59.1802   56.9635 H   0  0  0  0  0  0  0  0  0  0  0  0
   -1.8063   57.4496   57.9332 C   0  0  0  0  0  0  0  0  0  0  0  0
   -2.7742   57.2533   59.0998 C   0  0  0  0  0  0  0  0  0  0  0  0
   -4.0525   56.8313   58.6147 O   0  0  0  0  0  0  0  0  0  0  0  0
   -4.4119   57.5077   58.0195 H   0  0  0  0  0  0  0  0  0  0  0  0
   -2.3874   56.7762   56.6900 C   0  0  0  0  0  0  0  0  0  0  0  0
   -3.2460   57.6858   55.9987 O   0  0  0  0  0  0  0  0  0  0  0  0
   -3.9729   57.9521   56.5832 H   0  0  0  0  0  0  0  0  0  0  0  0
   -0.4708   56.7861   58.2774 C   0  0  0  0  0  0  0  0  0  0  0  0
    0.2174   57.5506   59.2696 O   0  0  0  0  0  0  0  0  0  0  0  0
    0.3887   58.4426   58.9292 H   0  0  0  0  0  0  0  0  0  0  0  0
   -3.6035   63.0986   65.7782 N   0  0  0  0  0  0  0  0  0  0  0  0
   -4.1559   64.1864   64.9541 C   0  0  0  0  0  0  0  0  0  0  0  0
   -5.3149   64.8504   65.6985 C   0  0  0  0  0  0  0  0  0  0  0  0
   -6.4309   64.2907   65.6228 O   0  0  0  0  0  0  0  0  0  0  0  0
   -5.0656   65.9008   66.3289 O   0  0  0  0  0  0  0  0  0  0  0  0
   -4.1964   66.2509   66.3310 H   0  0  0  0  0  0  0  0  0  0  0  0
   -4.5147   61.9465   65.7642 C   0  0  0  0  0  0  0  0  0  0  0  0
   -4.8523   61.5161   67.1960 C   0  0  0  0  0  0  0  0  0  0  0  0
   -5.3249   62.3846   67.9590 O   0  0  0  0  0  0  0  0  0  0  0  0
   -4.6310   60.3237   67.4961 O   0  0  0  0  0  0  0  0  0  0  0  0
   -5.4583   63.2585   67.6484 H   0  0  0  0  0  0  0  0  0  0  0  0
 49 55  1  0  0  0
 49  1  1  0  0  0
 49 50  1  0  0  0
 10 16  1  0  0  0
 10 11  1  0  0  0
 10  7  1  0  0  0
 55 56  1  0  0  0
 22 21  1  0  0  0
 22 23  1  0  0  0
 22 24  2  0  0  0
 21  3  1  0  0  0
 17 16  1  0  0  0
 17 18  2  0  0  0
 17 19  1  0  0  0
 11 12  1  0  0  0
  4  5  1  0  0  0
  4  7  1  0  0  0
  4  3  1  0  0  0
  5  9  1  0  0  0
  6  8  1  0  0  0
  6  9  1  0  0  0
 27 28  2  0  0  0
 27 31  1  0  0  0
 28 29  1  0  0  0
 29 32  2  0  0  0
 29 33  1  0  0  0
 30 31  2  0  0  0
 30 32  1  0  0  0
 35 33  1  0  0  0
 35 36  2  0  0  0
 35 37  1  0  0  0
 39 37  1  0  0  0
 39 46  1  0  0  0
 39 43  1  0  0  0
 39 40  1  0  0  0
 12 13  1  0  0  0
 12 14  2  0  0  0
  7  8  1  0  0  0
  3  2  1  0  0  0
  2  1  1  0  0  0
  1 26  1  0  0  0
 56 57  1  0  0  0
 56 58  2  0  0  0
 50 51  1  0  0  0
 51 52  2  0  0  0
 51 53  1  0  0  0
 26 31  1  0  0  0
 46 47  1  0  0  0
 43 44  1  0  0  0
 40 41  1  0  0  0
 19 20  1  0  0  0
 13 15  1  0  0  0
 23 25  1  0  0  0
 57 59  1  0  0  0
 53 54  1  0  0  0
 33 34  1  0  0  0
 37 38  1  0  0  0
 47 48  1  0  0  0
 44 45  1  0  0  0
 41 42  1  0  0  0
M  END
> <minimizedAffinity>
-6.84723

$$$$
3DSZ_LIZ_A_187


 59 60  0  0  0  0  0  0  0  0999 V2000
   -0.4996   56.9049   67.0413 C   0  0  0  0  0  0  0  0  0  0  0  0
    0.6801   57.4446   66.2334 C   0  0  0  0  0  0  0  0  0  0  0  0
    0.4711   58.8418   65.8130 N   0  0  0  0  0  0  0  0  0  0  0  0
    1.6928   59.6039   66.1293 C   0  0  0  0  0  0  0  0  0  0  0  0
    2.7715   59.3408   65.0766 C   0  0  0  0  0  0  0  0  0  0  0  0
    3.8347   61.5725   65.6060 C   0  0  0  0  0  0  0  0  0  0  0  0
    1.4415   61.1077   66.2120 C   0  0  0  0  0  0  0  0  0  0  0  0
    2.7268   61.8289   66.6265 C   0  0  0  0  0  0  0  0  0  0  0  0
    4.0687   60.0707   65.4295 C   0  0  0  0  0  0  0  0  0  0  0  0
    0.3497   61.4437   67.1375 N   0  0  0  0  0  0  0  0  0  0  0  0
   -0.0942   62.8174   66.8689 C   0  0  0  0  0  0  0  0  0  0  0  0
   -1.6034   62.9295   67.1016 C   0  0  0  0  0  0  0  0  0  0  0  0
   -1.9967   62.9567   68.2863 O   0  0  0  0  0  0  0  0  0  0  0  0
   -2.3292   62.9780   66.0855 O   0  0  0  0  0  0  0  0  0  0  0  0
   -1.3761   62.9152   68.9871 H   0  0  0  0  0  0  0  0  0  0  0  0
    0.7568   61.3321   68.5470 C   0  0  0  0  0  0  0  0  0  0  0  0
    0.1096   60.0931   69.1695 C   0  0  0  0  0  0  0  0  0  0  0  0
    0.8771   59.2095   69.6049 O   0  0  0  0  0  0  0  0  0  0  0  0
   -1.1385   60.0581   69.2141 O   0  0  0  0  0  0  0  0  0  0  0  0
   -1.6399   60.7672   68.8622 H   0  0  0  0  0  0  0  0  0  0  0  0
    0.1783   58.8861   64.3712 C   0  0  0  0  0  0  0  0  0  0  0  0
   -1.1974   59.4722   64.0625 C   0  0  0  0  0  0  0  0  0  0  0  0
   -1.4592   60.6029   64.5270 O   0  0  0  0  0  0  0  0  0  0  0  0
   -1.9882   58.7830   63.3799 O   0  0  0  0  0  0  0  0  0  0  0  0
   -0.8167   61.0627   65.0307 H   0  0  0  0  0  0  0  0  0  0  0  0
   -1.6221   56.3922   66.1282 C   0  0  0  0  0  0  0  0  0  0  0  0
   -3.1108   58.3695   66.8036 C   0  0  0  0  0  0  0  0  0  0  0  0
   -4.3606   58.9515   66.9563 C   0  0  0  0  0  0  0  0  0  0  0  0
   -5.5199   58.2165   66.6752 C   0  0  0  0  0  0  0  0  0  0  0  0
   -4.1279   56.3185   66.1070 C   0  0  0  0  0  0  0  0  0  0  0  0
   -2.9812   57.0501   66.3621 C   0  0  0  0  0  0  0  0  0  0  0  0
   -5.3852   56.8975   66.2726 C   0  0  0  0  0  0  0  0  0  0  0  0
   -6.7625   58.6777   66.7575 N   0  0  0  0  0  0  0  0  0  0  0  0
   -7.3657   58.1391   67.3190 H   0  0  0  0  0  0  0  0  0  0  0  0
   -7.3284   59.7561   66.2013 C   0  0  0  0  0  0  0  0  0  0  0  0
   -7.5308   59.8987   64.4685 S   0  0  0  0  0  0  0  0  0  0  0  0
   -7.9136   60.6170   67.0317 N   0  0  0  0  0  0  0  0  0  0  0  0
   -8.8246   60.4026   67.3373 H   0  0  0  0  0  0  0  0  0  0  0  0
   -7.3098   61.8612   67.5291 C   0  0  0  0  0  0  0  0  0  0  0  0
   -5.9993   62.0834   66.7744 C   0  0  0  0  0  0  0  0  0  0  0  0
   -4.9721   62.4967   67.6808 O   0  0  0  0  0  0  0  0  0  0  0  0
   -5.2328   63.3277   68.1078 H   0  0  0  0  0  0  0  0  0  0  0  0
   -8.2213   63.0672   67.3028 C   0  0  0  0  0  0  0  0  0  0  0  0
   -7.5066   64.0969   66.6161 O   0  0  0  0  0  0  0  0  0  0  0  0
   -6.7443   64.3721   67.1491 H   0  0  0  0  0  0  0  0  0  0  0  0
   -7.0087   61.7414   69.0248 C   0  0  0  0  0  0  0  0  0  0  0  0
   -6.4231   60.4691   69.3088 O   0  0  0  0  0  0  0  0  0  0  0  0
   -7.0406   59.7652   69.0557 H   0  0  0  0  0  0  0  0  0  0  0  0
   -0.0519   55.8299   67.9428 N   0  0  0  0  0  0  0  0  0  0  0  0
   -1.1298   55.4702   68.8789 C   0  0  0  0  0  0  0  0  0  0  0  0
   -1.3246   56.6013   69.8895 C   0  0  0  0  0  0  0  0  0  0  0  0
   -2.4714   57.0934   69.9742 O   0  0  0  0  0  0  0  0  0  0  0  0
   -0.3279   56.9518   70.5579 O   0  0  0  0  0  0  0  0  0  0  0  0
    0.4965   56.5259   70.4282 H   0  0  0  0  0  0  0  0  0  0  0  0
    0.3945   54.6377   67.2099 C   0  0  0  0  0  0  0  0  0  0  0  0
    1.7394   54.1474   67.7577 C   0  0  0  0  0  0  0  0  0  0  0  0
    2.4204   53.4026   67.0220 O   0  0  0  0  0  0  0  0  0  0  0  0
    2.0582   54.5309   68.9031 O   0  0  0  0  0  0  0  0  0  0  0  0
    2.1024   53.1645   66.1734 H   0  0  0  0  0  0  0  0  0  0  0  0
 49 55  1  0  0  0
 49  1  1  0  0  0
 49 50  1  0  0  0
 10 16  1  0  0  0
 10 11  1  0  0  0
 10  7  1  0  0  0
 55 56  1  0  0  0
 22 21  1  0  0  0
 22 23  1  0  0  0
 22 24  2  0  0  0
 21  3  1  0  0  0
 17 16  1  0  0  0
 17 18  2  0  0  0
 17 19  1  0  0  0
 11 12  1  0  0  0
  4  5  1  0  0  0
  4  7  1  0  0  0
  4  3  1  0  0  0
  5  9  1  0  0  0
  6  8  1  0  0  0
  6  9  1  0  0  0
 27 28  2  0  0  0
 27 31  1  0  0  0
 28 29  1  0  0  0
 29 32  2  0  0  0
 29 33  1  0  0  0
 30 31  2  0  0  0
 30 32  1  0  0  0
 35 33  1  0  0  0
 35 36  2  0  0  0
 35 37  1  0  0  0
 39 37  1  0  0  0
 39 46  1  0  0  0
 39 43  1  0  0  0
 39 40  1  0  0  0
 12 13  1  0  0  0
 12 14  2  0  0  0
  7  8  1  0  0  0
  3  2  1  0  0  0
  2  1  1  0  0  0
  1 26  1  0  0  0
 56 57  1  0  0  0
 56 58  2  0  0  0
 50 51  1  0  0  0
 51 52  2  0  0  0
 51 53  1  0  0  0
 26 31  1  0  0  0
 46 47  1  0  0  0
 43 44  1  0  0  0
 40 41  1  0  0  0
 19 20  1  0  0  0
 13 15  1  0  0  0
 23 25  1  0  0  0
 57 59  1  0  0  0
 53 54  1  0  0  0
 33 34  1  0  0  0
 37 38  1  0  0  0
 47 48  1  0  0  0
 44 45  1  0  0  0
 41 42  1  0  0  0
M  END
> <minimizedAffinity>
-6.77214

$$$$
3DSZ_LIZ_A_187


 59 60  0  0  0  0  0  0  0  0999 V2000
   -1.9958   61.8174   66.2215 C   0  0  0  0  0  0  0  0  0  0  0  0
   -3.1471   62.4639   66.9911 C   0  0  0  0  0  0  0  0  0  0  0  0
   -4.2411   61.5120   67.2550 N   0  0  0  0  0  0  0  0  0  0  0  0
   -5.4964   62.2761   67.3713 C   0  0  0  0  0  0  0  0  0  0  0  0
   -5.8682   62.8969   66.0232 C   0  0  0  0  0  0  0  0  0  0  0  0
   -8.3000   62.9416   66.7128 C   0  0  0  0  0  0  0  0  0  0  0  0
   -6.6625   61.4186   67.8573 C   0  0  0  0  0  0  0  0  0  0  0  0
   -7.9094   62.2885   68.0378 C   0  0  0  0  0  0  0  0  0  0  0  0
   -7.1318   63.7504   66.1448 C   0  0  0  0  0  0  0  0  0  0  0  0
   -6.3538   60.7084   69.1069 N   0  0  0  0  0  0  0  0  0  0  0  0
   -7.5180   59.9019   69.4946 C   0  0  0  0  0  0  0  0  0  0  0  0
   -7.0667   58.7221   70.3598 C   0  0  0  0  0  0  0  0  0  0  0  0
   -7.7886   58.4201   71.3328 O   0  0  0  0  0  0  0  0  0  0  0  0
   -6.0035   58.1543   70.0300 O   0  0  0  0  0  0  0  0  0  0  0  0
   -8.5720   58.9050   71.5033 H   0  0  0  0  0  0  0  0  0  0  0  0
   -6.0136   61.6281   70.2038 C   0  0  0  0  0  0  0  0  0  0  0  0
   -4.5158   61.5351   70.5032 C   0  0  0  0  0  0  0  0  0  0  0  0
   -3.9607   62.5616   70.9477 O   0  0  0  0  0  0  0  0  0  0  0  0
   -3.9563   60.4370   70.2982 O   0  0  0  0  0  0  0  0  0  0  0  0
   -4.4499   59.7152   69.9614 H   0  0  0  0  0  0  0  0  0  0  0  0
   -4.3182   60.5311   66.1601 C   0  0  0  0  0  0  0  0  0  0  0  0
   -4.1349   59.0925   66.6378 C   0  0  0  0  0  0  0  0  0  0  0  0
   -4.1253   58.8921   67.8717 O   0  0  0  0  0  0  0  0  0  0  0  0
   -3.9874   58.2017   65.7712 O   0  0  0  0  0  0  0  0  0  0  0  0
   -4.2423   59.6090   68.4637 H   0  0  0  0  0  0  0  0  0  0  0  0
   -1.6686   62.5930   64.9378 C   0  0  0  0  0  0  0  0  0  0  0  0
   -1.1515   60.3747   63.7571 C   0  0  0  0  0  0  0  0  0  0  0  0
   -1.0714   59.6005   62.6090 C   0  0  0  0  0  0  0  0  0  0  0  0
   -1.3487   60.1650   61.3570 C   0  0  0  0  0  0  0  0  0  0  0  0
   -1.7663   62.2839   62.4518 C   0  0  0  0  0  0  0  0  0  0  0  0
   -1.5151   61.7223   63.6915 C   0  0  0  0  0  0  0  0  0  0  0  0
   -1.6734   61.5106   61.2956 C   0  0  0  0  0  0  0  0  0  0  0  0
   -1.3319   59.5151   60.1990 N   0  0  0  0  0  0  0  0  0  0  0  0
   -0.7101   59.8818   59.5296 H   0  0  0  0  0  0  0  0  0  0  0  0
   -2.0231   58.4424   59.7937 C   0  0  0  0  0  0  0  0  0  0  0  0
   -1.3903   56.8199   59.9690 S   0  0  0  0  0  0  0  0  0  0  0  0
   -3.2912   58.6483   59.4434 N   0  0  0  0  0  0  0  0  0  0  0  0
   -3.9883   58.3381   60.0655 H   0  0  0  0  0  0  0  0  0  0  0  0
   -3.7344   59.3009   58.2034 C   0  0  0  0  0  0  0  0  0  0  0  0
   -5.1130   58.7460   57.8458 C   0  0  0  0  0  0  0  0  0  0  0  0
   -5.6941   59.5131   56.7868 O   0  0  0  0  0  0  0  0  0  0  0  0
   -5.7914   60.4353   57.0714 H   0  0  0  0  0  0  0  0  0  0  0  0
   -3.8381   60.8175   58.3631 C   0  0  0  0  0  0  0  0  0  0  0  0
   -5.0374   61.1535   59.0641 O   0  0  0  0  0  0  0  0  0  0  0  0
   -5.8046   60.8349   58.5635 H   0  0  0  0  0  0  0  0  0  0  0  0
   -2.7612   58.9880   57.0644 C   0  0  0  0  0  0  0  0  0  0  0  0
   -3.2999   57.9658   56.2234 O   0  0  0  0  0  0  0  0  0  0  0  0
   -3.4425   57.1601   56.7445 H   0  0  0  0  0  0  0  0  0  0  0  0
   -0.7990   61.7259   67.0747 N   0  0  0  0  0  0  0  0  0  0  0  0
    0.0640   62.9005   66.8669 C   0  0  0  0  0  0  0  0  0  0  0  0
    1.4984   62.4385   66.6075 C   0  0  0  0  0  0  0  0  0  0  0  0
    1.8887   62.4443   65.4191 O   0  0  0  0  0  0  0  0  0  0  0  0
    2.1774   62.0905   67.5978 O   0  0  0  0  0  0  0  0  0  0  0  0
    1.8024   62.1182   68.4561 H   0  0  0  0  0  0  0  0  0  0  0  0
   -1.1379   61.5980   68.4983 C   0  0  0  0  0  0  0  0  0  0  0  0
   -0.6309   60.2606   69.0493 C   0  0  0  0  0  0  0  0  0  0  0  0
    0.5992   60.1459   69.2325 O   0  0  0  0  0  0  0  0  0  0  0  0
   -1.4877   59.3806   69.2773 O   0  0  0  0  0  0  0  0  0  0  0  0
    1.1712   60.8607   69.0331 H   0  0  0  0  0  0  0  0  0  0  0  0
 49 55  1  0  0  0
 49  1  1  0  0  0
 49 50  1  0  0  0
 10 16  1  0  0  0
 10 11  1  0  0  0
 10  7  1  0  0  0
 55 56  1  0  0  0
 22 21  1  0  0  0
 22 23  1  0  0  0
 22 24  2  0  0  0
 21  3  1  0  0  0
 17 16  1  0  0  0
 17 18  2  0  0  0
 17 19  1  0  0  0
 11 12  1  0  0  0
  4  5  1  0  0  0
  4  7  1  0  0  0
  4  3  1  0  0  0
  5  9  1  0  0  0
  6  8  1  0  0  0
  6  9  1  0  0  0
 27 28  2  0  0  0
 27 31  1  0  0  0
 28 29  1  0  0  0
 29 32  2  0  0  0
 29 33  1  0  0  0
 30 31  2  0  0  0
 30 32  1  0  0  0
 35 33  1  0  0  0
 35 36  2  0  0  0
 35 37  1  0  0  0
 39 37  1  0  0  0
 39 46  1  0  0  0
 39 43  1  0  0  0
 39 40  1  0  0  0
 12 13  1  0  0  0
 12 14  2  0  0  0
  7  8  1  0  0  0
  3  2  1  0  0  0
  2  1  1  0  0  0
  1 26  1  0  0  0
 56 57  1  0  0  0
 56 58  2  0  0  0
 50 51  1  0  0  0
 51 52  2  0  0  0
 51 53  1  0  0  0
 26 31  1  0  0  0
 46 47  1  0  0  0
 43 44  1  0  0  0
 40 41  1  0  0  0
 19 20  1  0  0  0
 13 15  1  0  0  0
 23 25  1  0  0  0
 57 59  1  0  0  0
 53 54  1  0  0  0
 33 34  1  0  0  0
 37 38  1  0  0  0
 47 48  1  0  0  0
 44 45  1  0  0  0
 41 42  1  0  0  0
M  END
> <minimizedAffinity>
-6.76542

$$$$
3DSZ_LIZ_A_187


 59 60  0  0  0  0  0  0  0  0999 V2000
   -1.4847   61.6305   65.9226 C   0  0  0  0  0  0  0  0  0  0  0  0
   -2.6105   62.3647   66.6501 C   0  0  0  0  0  0  0  0  0  0  0  0
   -3.7181   61.4618   67.0117 N   0  0  0  0  0  0  0  0  0  0  0  0
   -4.9501   62.2649   67.1142 C   0  0  0  0  0  0  0  0  0  0  0  0
   -5.2600   62.9371   65.7751 C   0  0  0  0  0  0  0  0  0  0  0  0
   -7.7087   63.0453   66.3943 C   0  0  0  0  0  0  0  0  0  0  0  0
   -6.1584   61.4342   67.5397 C   0  0  0  0  0  0  0  0  0  0  0  0
   -7.3805   62.3407   67.7098 C   0  0  0  0  0  0  0  0  0  0  0  0
   -6.4974   63.8296   65.8854 C   0  0  0  0  0  0  0  0  0  0  0  0
   -5.9116   60.6776   68.7758 N   0  0  0  0  0  0  0  0  0  0  0  0
   -7.0181   59.7350   68.9844 C   0  0  0  0  0  0  0  0  0  0  0  0
   -6.6388   58.7217   70.0677 C   0  0  0  0  0  0  0  0  0  0  0  0
   -5.5416   58.1389   69.9437 O   0  0  0  0  0  0  0  0  0  0  0  0
   -7.4617   58.5490   70.9921 O   0  0  0  0  0  0  0  0  0  0  0  0
   -4.9873   58.3339   69.2138 H   0  0  0  0  0  0  0  0  0  0  0  0
   -5.7911   61.5525   69.9526 C   0  0  0  0  0  0  0  0  0  0  0  0
   -4.3346   61.5817   70.4210 C   0  0  0  0  0  0  0  0  0  0  0  0
   -3.6991   60.5081   70.3673 O   0  0  0  0  0  0  0  0  0  0  0  0
   -3.8778   62.6781   70.8086 O   0  0  0  0  0  0  0  0  0  0  0  0
   -4.4263   63.4377   70.8169 H   0  0  0  0  0  0  0  0  0  0  0  0
   -3.8544   60.4119   65.9890 C   0  0  0  0  0  0  0  0  0  0  0  0
   -3.6236   59.0086   66.5445 C   0  0  0  0  0  0  0  0  0  0  0  0
   -3.6999   58.8597   67.7833 O   0  0  0  0  0  0  0  0  0  0  0  0
   -3.3546   58.0942   65.7333 O   0  0  0  0  0  0  0  0  0  0  0  0
   -3.9062   59.5912   68.3313 H   0  0  0  0  0  0  0  0  0  0  0  0
   -1.1769   62.2738   64.5631 C   0  0  0  0  0  0  0  0  0  0  0  0
   -1.7240   61.8183   62.0983 C   0  0  0  0  0  0  0  0  0  0  0  0
   -1.8380   60.9535   61.0199 C   0  0  0  0  0  0  0  0  0  0  0  0
   -1.6023   59.5826   61.1874 C   0  0  0  0  0  0  0  0  0  0  0  0
   -1.1570   59.9885   63.5325 C   0  0  0  0  0  0  0  0  0  0  0  0
   -1.3670   61.3461   63.3640 C   0  0  0  0  0  0  0  0  0  0  0  0
   -1.2840   59.1161   62.4527 C   0  0  0  0  0  0  0  0  0  0  0  0
   -1.6537   58.6695   60.2244 N   0  0  0  0  0  0  0  0  0  0  0  0
   -0.7846   58.4513   59.8166 H   0  0  0  0  0  0  0  0  0  0  0  0
   -2.6950   57.9975   59.7180 C   0  0  0  0  0  0  0  0  0  0  0  0
   -3.6135   56.8611   60.6817 S   0  0  0  0  0  0  0  0  0  0  0  0
   -3.1262   58.3827   58.5184 N   0  0  0  0  0  0  0  0  0  0  0  0
   -2.6499   58.0305   57.7321 H   0  0  0  0  0  0  0  0  0  0  0  0
   -4.2553   59.2908   58.2732 C   0  0  0  0  0  0  0  0  0  0  0  0
   -5.2702   58.5552   57.3984 C   0  0  0  0  0  0  0  0  0  0  0  0
   -6.5875   59.0582   57.6417 O   0  0  0  0  0  0  0  0  0  0  0  0
   -6.8190   58.9209   58.5736 H   0  0  0  0  0  0  0  0  0  0  0  0
   -4.9386   59.7148   59.5732 C   0  0  0  0  0  0  0  0  0  0  0  0
   -5.5581   60.9916   59.4050 O   0  0  0  0  0  0  0  0  0  0  0  0
   -4.8846   61.6497   59.1724 H   0  0  0  0  0  0  0  0  0  0  0  0
   -3.7761   60.5425   57.5344 C   0  0  0  0  0  0  0  0  0  0  0  0
   -4.8121   61.0396   56.6847 O   0  0  0  0  0  0  0  0  0  0  0  0
   -5.0486   60.3616   56.0326 H   0  0  0  0  0  0  0  0  0  0  0  0
   -0.2703   61.6047   66.7552 N   0  0  0  0  0  0  0  0  0  0  0  0
   -0.5372   60.9019   68.0211 C   0  0  0  0  0  0  0  0  0  0  0  0
   -0.1388   61.7982   69.1944 C   0  0  0  0  0  0  0  0  0  0  0  0
    1.0520   62.1784   69.2372 O   0  0  0  0  0  0  0  0  0  0  0  0
   -1.0285   62.0876   70.0236 O   0  0  0  0  0  0  0  0  0  0  0  0
   -1.8981   61.7568   69.9124 H   0  0  0  0  0  0  0  0  0  0  0  0
    0.8657   60.9800   66.0646 C   0  0  0  0  0  0  0  0  0  0  0  0
    2.0454   61.9557   65.9881 C   0  0  0  0  0  0  0  0  0  0  0  0
    1.8536   63.1197   66.3978 O   0  0  0  0  0  0  0  0  0  0  0  0
    3.1166   61.5136   65.5216 O   0  0  0  0  0  0  0  0  0  0  0  0
    1.0141   63.3660   66.7332 H   0  0  0  0  0  0  0  0  0  0  0  0
 49 55  1  0  0  0
 49  1  1  0  0  0
 49 50  1  0  0  0
 10 16  1  0  0  0
 10 11  1  0  0  0
 10  7  1  0  0  0
 55 56  1  0  0  0
 22 21  1  0  0  0
 22 23  1  0  0  0
 22 24  2  0  0  0
 21  3  1  0  0  0
 17 16  1  0  0  0
 17 18  2  0  0  0
 17 19  1  0  0  0
 11 12  1  0  0  0
  4  5  1  0  0  0
  4  7  1  0  0  0
  4  3  1  0  0  0
  5  9  1  0  0  0
  6  8  1  0  0  0
  6  9  1  0  0  0
 27 28  2  0  0  0
 27 31  1  0  0  0
 28 29  1  0  0  0
 29 32  2  0  0  0
 29 33  1  0  0  0
 30 31  2  0  0  0
 30 32  1  0  0  0
 35 33  1  0  0  0
 35 36  2  0  0  0
 35 37  1  0  0  0
 39 37  1  0  0  0
 39 46  1  0  0  0
 39 43  1  0  0  0
 39 40  1  0  0  0
 12 13  1  0  0  0
 12 14  2  0  0  0
  7  8  1  0  0  0
  3  2  1  0  0  0
  2  1  1  0  0  0
  1 26  1  0  0  0
 56 57  1  0  0  0
 56 58  2  0  0  0
 50 51  1  0  0  0
 51 52  2  0  0  0
 51 53  1  0  0  0
 26 31  1  0  0  0
 46 47  1  0  0  0
 43 44  1  0  0  0
 40 41  1  0  0  0
 19 20  1  0  0  0
 13 15  1  0  0  0
 23 25  1  0  0  0
 57 59  1  0  0  0
 53 54  1  0  0  0
 33 34  1  0  0  0
 37 38  1  0  0  0
 47 48  1  0  0  0
 44 45  1  0  0  0
 41 42  1  0  0  0
M  END
> <minimizedAffinity>
-6.75727

$$$$
3DSZ_LIZ_A_187


 59 60  0  0  0  0  0  0  0  0999 V2000
   -2.1903   62.9082   65.2692 C   0  0  0  0  0  0  0  0  0  0  0  0
   -1.2114   63.2231   66.3998 C   0  0  0  0  0  0  0  0  0  0  0  0
   -0.8440   62.0188   67.1664 N   0  0  0  0  0  0  0  0  0  0  0  0
    0.4534   61.5324   66.6628 C   0  0  0  0  0  0  0  0  0  0  0  0
    1.4632   62.6800   66.5984 C   0  0  0  0  0  0  0  0  0  0  0  0
    3.3617   61.0228   66.8009 C   0  0  0  0  0  0  0  0  0  0  0  0
    1.0343   60.4127   67.5232 C   0  0  0  0  0  0  0  0  0  0  0  0
    2.3337   59.8967   66.8993 C   0  0  0  0  0  0  0  0  0  0  0  0
    2.7937   62.2045   66.0120 C   0  0  0  0  0  0  0  0  0  0  0  0
    0.0879   59.3041   67.7147 N   0  0  0  0  0  0  0  0  0  0  0  0
    0.7234   58.2762   68.5488 C   0  0  0  0  0  0  0  0  0  0  0  0
    0.0304   58.2136   69.9126 C   0  0  0  0  0  0  0  0  0  0  0  0
    0.7608   58.2434   70.9248 O   0  0  0  0  0  0  0  0  0  0  0  0
   -1.2164   58.1298   69.9090 O   0  0  0  0  0  0  0  0  0  0  0  0
    1.6907   58.3077   70.8298 H   0  0  0  0  0  0  0  0  0  0  0  0
   -0.3341   58.7022   66.4401 C   0  0  0  0  0  0  0  0  0  0  0  0
   -1.7568   58.1561   66.5788 C   0  0  0  0  0  0  0  0  0  0  0  0
   -2.0315   57.1185   65.9405 O   0  0  0  0  0  0  0  0  0  0  0  0
   -2.5387   58.7747   67.3318 O   0  0  0  0  0  0  0  0  0  0  0  0
   -2.2492   59.5482   67.7743 H   0  0  0  0  0  0  0  0  0  0  0  0
   -0.7655   62.3490   68.5987 C   0  0  0  0  0  0  0  0  0  0  0  0
   -2.0335   61.9776   69.3639 C   0  0  0  0  0  0  0  0  0  0  0  0
   -2.3368   60.7663   69.4227 O   0  0  0  0  0  0  0  0  0  0  0  0
   -2.7042   62.9044   69.8715 O   0  0  0  0  0  0  0  0  0  0  0  0
   -1.7859   60.1252   69.0183 H   0  0  0  0  0  0  0  0  0  0  0  0
   -2.2834   61.3985   65.0068 C   0  0  0  0  0  0  0  0  0  0  0  0
   -1.8777   61.9297   62.5299 C   0  0  0  0  0  0  0  0  0  0  0  0
   -1.6434   61.5248   61.2240 C   0  0  0  0  0  0  0  0  0  0  0  0
   -1.6116   60.1613   60.9034 C   0  0  0  0  0  0  0  0  0  0  0  0
   -2.0693   59.6479   63.2251 C   0  0  0  0  0  0  0  0  0  0  0  0
   -2.0781   60.9937   63.5478 C   0  0  0  0  0  0  0  0  0  0  0  0
   -1.8471   59.2395   61.9108 C   0  0  0  0  0  0  0  0  0  0  0  0
   -1.3685   59.6595   59.6982 N   0  0  0  0  0  0  0  0  0  0  0  0
   -0.4546   59.8115   59.3651 H   0  0  0  0  0  0  0  0  0  0  0  0
   -2.1640   58.9805   58.8622 C   0  0  0  0  0  0  0  0  0  0  0  0
   -1.5526   58.2688   57.3846 S   0  0  0  0  0  0  0  0  0  0  0  0
   -3.3875   58.6957   59.3038 N   0  0  0  0  0  0  0  0  0  0  0  0
   -3.4682   57.9994   59.9950 H   0  0  0  0  0  0  0  0  0  0  0  0
   -4.6272   59.3366   58.8428 C   0  0  0  0  0  0  0  0  0  0  0  0
   -5.5807   59.4292   60.0339 C   0  0  0  0  0  0  0  0  0  0  0  0
   -6.7611   60.1496   59.6660 O   0  0  0  0  0  0  0  0  0  0  0  0
   -6.5188   61.0467   59.3878 H   0  0  0  0  0  0  0  0  0  0  0  0
   -4.3743   60.7435   58.3014 C   0  0  0  0  0  0  0  0  0  0  0  0
   -4.4877   61.7003   59.3569 O   0  0  0  0  0  0  0  0  0  0  0  0
   -5.3808   61.6620   59.7335 H   0  0  0  0  0  0  0  0  0  0  0  0
   -5.2816   58.4937   57.7457 C   0  0  0  0  0  0  0  0  0  0  0  0
   -5.9983   59.3352   56.8399 O   0  0  0  0  0  0  0  0  0  0  0  0
   -6.6902   59.8143   57.3223 H   0  0  0  0  0  0  0  0  0  0  0  0
   -3.5236   63.4491   65.5826 N   0  0  0  0  0  0  0  0  0  0  0  0
   -3.8451   64.5643   64.6767 C   0  0  0  0  0  0  0  0  0  0  0  0
   -4.8698   65.4826   65.3439 C   0  0  0  0  0  0  0  0  0  0  0  0
   -5.1419   65.2505   66.5425 O   0  0  0  0  0  0  0  0  0  0  0  0
   -5.3601   66.3976   64.6473 O   0  0  0  0  0  0  0  0  0  0  0  0
   -5.0972   66.4982   63.7536 H   0  0  0  0  0  0  0  0  0  0  0  0
   -4.5727   62.4237   65.5078 C   0  0  0  0  0  0  0  0  0  0  0  0
   -5.0093   62.0036   66.9157 C   0  0  0  0  0  0  0  0  0  0  0  0
   -5.8452   62.7276   67.4962 O   0  0  0  0  0  0  0  0  0  0  0  0
   -4.4970   60.9636   67.3809 O   0  0  0  0  0  0  0  0  0  0  0  0
   -6.1780   63.4930   67.0703 H   0  0  0  0  0  0  0  0  0  0  0  0
 49 55  1  0  0  0
 49  1  1  0  0  0
 49 50  1  0  0  0
 10 16  1  0  0  0
 10 11  1  0  0  0
 10  7  1  0  0  0
 55 56  1  0  0  0
 22 21  1  0  0  0
 22 23  1  0  0  0
 22 24  2  0  0  0
 21  3  1  0  0  0
 17 16  1  0  0  0
 17 18  2  0  0  0
 17 19  1  0  0  0
 11 12  1  0  0  0
  4  5  1  0  0  0
  4  7  1  0  0  0
  4  3  1  0  0  0
  5  9  1  0  0  0
  6  8  1  0  0  0
  6  9  1  0  0  0
 27 28  2  0  0  0
 27 31  1  0  0  0
 28 29  1  0  0  0
 29 32  2  0  0  0
 29 33  1  0  0  0
 30 31  2  0  0  0
 30 32  1  0  0  0
 35 33  1  0  0  0
 35 36  2  0  0  0
 35 37  1  0  0  0
 39 37  1  0  0  0
 39 46  1  0  0  0
 39 43  1  0  0  0
 39 40  1  0  0  0
 12 13  1  0  0  0
 12 14  2  0  0  0
  7  8  1  0  0  0
  3  2  1  0  0  0
  2  1  1  0  0  0
  1 26  1  0  0  0
 56 57  1  0  0  0
 56 58  2  0  0  0
 50 51  1  0  0  0
 51 52  2  0  0  0
 51 53  1  0  0  0
 26 31  1  0  0  0
 46 47  1  0  0  0
 43 44  1  0  0  0
 40 41  1  0  0  0
 19 20  1  0  0  0
 13 15  1  0  0  0
 23 25  1  0  0  0
 57 59  1  0  0  0
 53 54  1  0  0  0
 33 34  1  0  0  0
 37 38  1  0  0  0
 47 48  1  0  0  0
 44 45  1  0  0  0
 41 42  1  0  0  0
M  END
> <minimizedAffinity>
-6.69239

$$$$
3DSZ_LIZ_A_187


 59 60  0  0  0  0  0  0  0  0999 V2000
   -3.7546   59.8158   68.6104 C   0  0  0  0  0  0  0  0  0  0  0  0
   -2.4665   60.6358   68.6736 C   0  0  0  0  0  0  0  0  0  0  0  0
   -1.7646   60.6662   67.3778 N   0  0  0  0  0  0  0  0  0  0  0  0
   -1.7286   59.2929   66.8429 C   0  0  0  0  0  0  0  0  0  0  0  0
   -2.4558   59.2265   65.4984 C   0  0  0  0  0  0  0  0  0  0  0  0
   -1.0775   57.2085   64.8508 C   0  0  0  0  0  0  0  0  0  0  0  0
   -0.3053   58.7716   66.6595 C   0  0  0  0  0  0  0  0  0  0  0  0
   -0.3402   57.3164   66.1848 C   0  0  0  0  0  0  0  0  0  0  0  0
   -2.4869   57.7933   64.9645 C   0  0  0  0  0  0  0  0  0  0  0  0
    0.4964   58.8863   67.8864 N   0  0  0  0  0  0  0  0  0  0  0  0
    1.8138   59.4365   67.5429 C   0  0  0  0  0  0  0  0  0  0  0  0
    1.9872   60.8116   68.1936 C   0  0  0  0  0  0  0  0  0  0  0  0
    1.0472   61.2298   68.9010 O   0  0  0  0  0  0  0  0  0  0  0  0
    3.0561   61.4156   67.9607 O   0  0  0  0  0  0  0  0  0  0  0  0
    0.2803   60.7046   69.0194 H   0  0  0  0  0  0  0  0  0  0  0  0
    0.6726   57.5915   68.5626 C   0  0  0  0  0  0  0  0  0  0  0  0
    0.2933   57.7297   70.0386 C   0  0  0  0  0  0  0  0  0  0  0  0
    0.8816   58.6138   70.6958 O   0  0  0  0  0  0  0  0  0  0  0  0
   -0.5880   56.9617   70.4796 O   0  0  0  0  0  0  0  0  0  0  0  0
   -0.9790   56.3242   69.9151 H   0  0  0  0  0  0  0  0  0  0  0  0
   -2.4662   61.5748   66.4564 C   0  0  0  0  0  0  0  0  0  0  0  0
   -2.1032   63.0412   66.6777 C   0  0  0  0  0  0  0  0  0  0  0  0
   -3.0081   63.8042   67.0800 O   0  0  0  0  0  0  0  0  0  0  0  0
   -0.9301   63.3986   66.4278 O   0  0  0  0  0  0  0  0  0  0  0  0
   -3.8659   63.4663   67.2472 H   0  0  0  0  0  0  0  0  0  0  0  0
   -3.7747   58.7123   69.6775 C   0  0  0  0  0  0  0  0  0  0  0  0
   -3.0237   56.5696   68.4830 C   0  0  0  0  0  0  0  0  0  0  0  0
   -3.2646   55.2754   68.0458 C   0  0  0  0  0  0  0  0  0  0  0  0
   -4.5204   54.6865   68.2437 C   0  0  0  0  0  0  0  0  0  0  0  0
   -5.2650   56.7309   69.3061 C   0  0  0  0  0  0  0  0  0  0  0  0
   -4.0182   57.3059   69.1321 C   0  0  0  0  0  0  0  0  0  0  0  0
   -5.5128   55.4351   68.8556 C   0  0  0  0  0  0  0  0  0  0  0  0
   -4.8540   53.4494   67.8944 N   0  0  0  0  0  0  0  0  0  0  0  0
   -4.9830   53.3147   66.9277 H   0  0  0  0  0  0  0  0  0  0  0  0
   -5.0432   52.3556   68.6429 C   0  0  0  0  0  0  0  0  0  0  0  0
   -6.5868   51.5318   68.6949 S   0  0  0  0  0  0  0  0  0  0  0  0
   -3.9560   51.8062   69.1806 N   0  0  0  0  0  0  0  0  0  0  0  0
   -3.3053   51.3961   68.5661 H   0  0  0  0  0  0  0  0  0  0  0  0
   -3.6485   51.7624   70.6171 C   0  0  0  0  0  0  0  0  0  0  0  0
   -2.1281   51.7646   70.7738 C   0  0  0  0  0  0  0  0  0  0  0  0
   -1.7545   51.0763   71.9714 O   0  0  0  0  0  0  0  0  0  0  0  0
   -2.1493   51.5223   72.7371 H   0  0  0  0  0  0  0  0  0  0  0  0
   -4.2239   52.9679   71.3602 C   0  0  0  0  0  0  0  0  0  0  0  0
   -3.3790   53.3118   72.4604 O   0  0  0  0  0  0  0  0  0  0  0  0
   -3.3224   52.5608   73.0717 H   0  0  0  0  0  0  0  0  0  0  0  0
   -4.2111   50.4822   71.2392 C   0  0  0  0  0  0  0  0  0  0  0  0
   -4.7132   50.7511   72.5499 O   0  0  0  0  0  0  0  0  0  0  0  0
   -3.9939   51.0824   73.1100 H   0  0  0  0  0  0  0  0  0  0  0  0
   -4.9267   60.6930   68.7695 N   0  0  0  0  0  0  0  0  0  0  0  0
   -5.8631   60.4975   67.6503 C   0  0  0  0  0  0  0  0  0  0  0  0
   -6.4677   61.8444   67.2517 C   0  0  0  0  0  0  0  0  0  0  0  0
   -7.7004   61.8713   67.0414 O   0  0  0  0  0  0  0  0  0  0  0  0
   -5.6904   62.8198   67.1660 O   0  0  0  0  0  0  0  0  0  0  0  0
   -4.7770   62.7078   67.3421 H   0  0  0  0  0  0  0  0  0  0  0  0
   -5.6183   60.4728   70.0465 C   0  0  0  0  0  0  0  0  0  0  0  0
   -5.6433   61.7656   70.8695 C   0  0  0  0  0  0  0  0  0  0  0  0
   -6.7005   62.0383   71.4759 O   0  0  0  0  0  0  0  0  0  0  0  0
   -4.6007   62.4537   70.8751 O   0  0  0  0  0  0  0  0  0  0  0  0
   -7.4372   61.4625   71.4154 H   0  0  0  0  0  0  0  0  0  0  0  0
 49 55  1  0  0  0
 49  1  1  0  0  0
 49 50  1  0  0  0
 10 16  1  0  0  0
 10 11  1  0  0  0
 10  7  1  0  0  0
 55 56  1  0  0  0
 22 21  1  0  0  0
 22 23  1  0  0  0
 22 24  2  0  0  0
 21  3  1  0  0  0
 17 16  1  0  0  0
 17 18  2  0  0  0
 17 19  1  0  0  0
 11 12  1  0  0  0
  4  5  1  0  0  0
  4  7  1  0  0  0
  4  3  1  0  0  0
  5  9  1  0  0  0
  6  8  1  0  0  0
  6  9  1  0  0  0
 27 28  2  0  0  0
 27 31  1  0  0  0
 28 29  1  0  0  0
 29 32  2  0  0  0
 29 33  1  0  0  0
 30 31  2  0  0  0
 30 32  1  0  0  0
 35 33  1  0  0  0
 35 36  2  0  0  0
 35 37  1  0  0  0
 39 37  1  0  0  0
 39 46  1  0  0  0
 39 43  1  0  0  0
 39 40  1  0  0  0
 12 13  1  0  0  0
 12 14  2  0  0  0
  7  8  1  0  0  0
  3  2  1  0  0  0
  2  1  1  0  0  0
  1 26  1  0  0  0
 56 57  1  0  0  0
 56 58  2  0  0  0
 50 51  1  0  0  0
 51 52  2  0  0  0
 51 53  1  0  0  0
 26 31  1  0  0  0
 46 47  1  0  0  0
 43 44  1  0  0  0
 40 41  1  0  0  0
 19 20  1  0  0  0
 13 15  1  0  0  0
 23 25  1  0  0  0
 57 59  1  0  0  0
 53 54  1  0  0  0
 33 34  1  0  0  0
 37 38  1  0  0  0
 47 48  1  0  0  0
 44 45  1  0  0  0
 41 42  1  0  0  0
M  END
> <minimizedAffinity>
-6.68848

$$$$
3DSZ_LIZ_A_187


 59 60  0  0  0  0  0  0  0  0999 V2000
    0.4525   60.5183   66.4862 C   0  0  0  0  0  0  0  0  0  0  0  0
   -0.2106   60.2722   67.8410 C   0  0  0  0  0  0  0  0  0  0  0  0
   -0.5041   58.8449   68.0634 N   0  0  0  0  0  0  0  0  0  0  0  0
   -0.9788   58.2703   66.7914 C   0  0  0  0  0  0  0  0  0  0  0  0
   -0.2861   56.9333   66.5204 C   0  0  0  0  0  0  0  0  0  0  0  0
   -2.2379   56.2113   65.0849 C   0  0  0  0  0  0  0  0  0  0  0  0
   -2.4902   58.0548   66.7727 C   0  0  0  0  0  0  0  0  0  0  0  0
   -2.9262   57.5388   65.3987 C   0  0  0  0  0  0  0  0  0  0  0  0
   -0.7172   56.3587   65.1698 C   0  0  0  0  0  0  0  0  0  0  0  0
   -3.2350   59.2748   67.1166 N   0  0  0  0  0  0  0  0  0  0  0  0
   -4.1504   58.9755   68.2250 C   0  0  0  0  0  0  0  0  0  0  0  0
   -3.5067   59.3821   69.5534 C   0  0  0  0  0  0  0  0  0  0  0  0
   -2.9989   58.4729   70.2423 O   0  0  0  0  0  0  0  0  0  0  0  0
   -3.5451   60.5950   69.8514 O   0  0  0  0  0  0  0  0  0  0  0  0
   -3.0173   57.5875   69.9364 H   0  0  0  0  0  0  0  0  0  0  0  0
   -4.0061   59.7990   65.9784 C   0  0  0  0  0  0  0  0  0  0  0  0
   -4.1039   61.3224   66.0854 C   0  0  0  0  0  0  0  0  0  0  0  0
   -4.8619   61.9008   65.2789 O   0  0  0  0  0  0  0  0  0  0  0  0
   -3.4332   61.8796   66.9802 O   0  0  0  0  0  0  0  0  0  0  0  0
   -2.8877   61.3676   67.5443 H   0  0  0  0  0  0  0  0  0  0  0  0
    0.7095   58.1579   68.5342 C   0  0  0  0  0  0  0  0  0  0  0  0
    0.6352   57.7642   70.0075 C   0  0  0  0  0  0  0  0  0  0  0  0
   -0.4129   57.2097   70.4034 O   0  0  0  0  0  0  0  0  0  0  0  0
    1.6163   58.0339   70.7363 O   0  0  0  0  0  0  0  0  0  0  0  0
   -1.1088   57.0380   69.7999 H   0  0  0  0  0  0  0  0  0  0  0  0
   -0.3191   61.5570   65.6601 C   0  0  0  0  0  0  0  0  0  0  0  0
   -1.3345   61.9308   63.3338 C   0  0  0  0  0  0  0  0  0  0  0  0
   -1.6344   61.4865   62.0545 C   0  0  0  0  0  0  0  0  0  0  0  0
   -1.3254   60.1741   61.6733 C   0  0  0  0  0  0  0  0  0  0  0  0
   -0.4321   59.7853   63.8900 C   0  0  0  0  0  0  0  0  0  0  0  0
   -0.7156   61.0881   64.2609 C   0  0  0  0  0  0  0  0  0  0  0  0
   -0.7448   59.3330   62.6089 C   0  0  0  0  0  0  0  0  0  0  0  0
   -1.5392   59.6512   60.4714 N   0  0  0  0  0  0  0  0  0  0  0  0
   -0.9945   60.0406   59.7497 H   0  0  0  0  0  0  0  0  0  0  0  0
   -2.3751   58.6807   60.0815 C   0  0  0  0  0  0  0  0  0  0  0  0
   -1.9027   56.9954   60.1037 S   0  0  0  0  0  0  0  0  0  0  0  0
   -3.6422   59.0335   59.8739 N   0  0  0  0  0  0  0  0  0  0  0  0
   -4.2259   59.1085   60.6632 H   0  0  0  0  0  0  0  0  0  0  0  0
   -4.2399   59.3202   58.5622 C   0  0  0  0  0  0  0  0  0  0  0  0
   -5.7597   59.3098   58.7247 C   0  0  0  0  0  0  0  0  0  0  0  0
   -6.1777   60.4184   59.5271 O   0  0  0  0  0  0  0  0  0  0  0  0
   -5.7681   60.3554   60.4041 H   0  0  0  0  0  0  0  0  0  0  0  0
   -3.8093   60.6851   58.0257 C   0  0  0  0  0  0  0  0  0  0  0  0
   -4.6489   61.0673   56.9340 O   0  0  0  0  0  0  0  0  0  0  0  0
   -4.5750   60.4105   56.2240 H   0  0  0  0  0  0  0  0  0  0  0  0
   -3.8399   58.2421   57.5522 C   0  0  0  0  0  0  0  0  0  0  0  0
   -2.9358   58.7832   56.5868 O   0  0  0  0  0  0  0  0  0  0  0  0
   -3.3663   59.5122   56.1135 H   0  0  0  0  0  0  0  0  0  0  0  0
    1.8464   60.9555   66.6718 N   0  0  0  0  0  0  0  0  0  0  0  0
    2.6661   60.5415   65.5211 C   0  0  0  0  0  0  0  0  0  0  0  0
    3.9735   59.9268   66.0226 C   0  0  0  0  0  0  0  0  0  0  0  0
    4.1954   59.9936   67.2517 O   0  0  0  0  0  0  0  0  0  0  0  0
    4.7243   59.4016   65.1721 O   0  0  0  0  0  0  0  0  0  0  0  0
    4.4772   59.3969   64.2683 H   0  0  0  0  0  0  0  0  0  0  0  0
    1.9537   62.4074   66.8677 C   0  0  0  0  0  0  0  0  0  0  0  0
    2.6155   62.7164   68.2152 C   0  0  0  0  0  0  0  0  0  0  0  0
    1.9560   62.4712   69.2470 O   0  0  0  0  0  0  0  0  0  0  0  0
    3.7707   63.1910   68.1832 O   0  0  0  0  0  0  0  0  0  0  0  0
    1.0926   62.1141   69.1773 H   0  0  0  0  0  0  0  0  0  0  0  0
 49 55  1  0  0  0
 49  1  1  0  0  0
 49 50  1  0  0  0
 10 16  1  0  0  0
 10 11  1  0  0  0
 10  7  1  0  0  0
 55 56  1  0  0  0
 22 21  1  0  0  0
 22 23  1  0  0  0
 22 24  2  0  0  0
 21  3  1  0  0  0
 17 16  1  0  0  0
 17 18  2  0  0  0
 17 19  1  0  0  0
 11 12  1  0  0  0
  4  5  1  0  0  0
  4  7  1  0  0  0
  4  3  1  0  0  0
  5  9  1  0  0  0
  6  8  1  0  0  0
  6  9  1  0  0  0
 27 28  2  0  0  0
 27 31  1  0  0  0
 28 29  1  0  0  0
 29 32  2  0  0  0
 29 33  1  0  0  0
 30 31  2  0  0  0
 30 32  1  0  0  0
 35 33  1  0  0  0
 35 36  2  0  0  0
 35 37  1  0  0  0
 39 37  1  0  0  0
 39 46  1  0  0  0
 39 43  1  0  0  0
 39 40  1  0  0  0
 12 13  1  0  0  0
 12 14  2  0  0  0
  7  8  1  0  0  0
  3  2  1  0  0  0
  2  1  1  0  0  0
  1 26  1  0  0  0
 56 57  1  0  0  0
 56 58  2  0  0  0
 50 51  1  0  0  0
 51 52  2  0  0  0
 51 53  1  0  0  0
 26 31  1  0  0  0
 46 47  1  0  0  0
 43 44  1  0  0  0
 40 41  1  0  0  0
 19 20  1  0  0  0
 13 15  1  0  0  0
 23 25  1  0  0  0
 57 59  1  0  0  0
 53 54  1  0  0  0
 33 34  1  0  0  0
 37 38  1  0  0  0
 47 48  1  0  0  0
 44 45  1  0  0  0
 41 42  1  0  0  0
M  END
> <minimizedAffinity>
-6.66398

$$$$
