1QHC_PUA_A_901


 60 64  0  0  0  0  0  0  0  0999 V2000
   37.0944   -4.4351   22.5435 P   0  0  0  0  0  0  0  0  0  0  0  0
   35.7846   -3.6723   22.7133 O   0  0  0  0  0  0  0  0  0  0  0  0
   37.3313   -5.5930   23.5146 O   0  0  0  0  0  0  0  0  0  0  0  0
   35.0399   -4.2908   22.6511 H   0  0  0  0  0  0  0  0  0  0  0  0
   37.2497   -4.9809   21.0609 O   0  0  0  0  0  0  0  0  0  0  0  0
   38.3113   -5.8504   20.7307 C   0  0  0  0  0  0  0  0  0  0  0  0
   37.8371   -6.8631   19.7361 C   0  0  0  0  0  0  0  0  0  0  0  0
   37.0792   -6.1942   18.6832 O   0  0  0  0  0  0  0  0  0  0  0  0
   37.5200   -6.6704   17.4285 C   0  0  0  0  0  0  0  0  0  0  0  0
   39.0018   -6.9808   17.6442 C   0  0  0  0  0  0  0  0  0  0  0  0
   39.5318   -7.8470   16.6502 O   0  0  0  0  0  0  0  0  0  0  0  0
   38.9591   -7.6265   19.0309 C   0  0  0  0  0  0  0  0  0  0  0  0
   39.0137   -8.6667   16.6260 H   0  0  0  0  0  0  0  0  0  0  0  0
   37.1239   -5.7276   16.3676 N   0  0  0  0  0  0  0  0  0  0  0  0
   37.5501   -4.4357   16.1172 C   0  0  0  0  0  0  0  0  0  0  0  0
   38.4339   -3.7003   16.8298 N   0  0  0  0  0  0  0  0  0  0  0  0
   38.6175   -2.4863   16.2651 C   0  0  0  0  0  0  0  0  0  0  0  0
   38.0525   -1.9728   15.1487 N   0  0  0  0  0  0  0  0  0  0  0  0
   37.1749   -2.7371   14.4589 C   0  0  0  0  0  0  0  0  0  0  0  0
   36.6271   -2.2299   13.3546 N   0  0  0  0  0  0  0  0  0  0  0  0
   36.8911   -4.0400   14.9538 C   0  0  0  0  0  0  0  0  0  0  0  0
   36.0572   -5.0508   14.4976 N   0  0  0  0  0  0  0  0  0  0  0  0
   36.2243   -6.0198   15.3676 C   0  0  0  0  0  0  0  0  0  0  0  0
   36.8629   -1.3202   13.0613 H   0  0  0  0  0  0  0  0  0  0  0  0
   35.9867   -2.7650   12.8323 H   0  0  0  0  0  0  0  0  0  0  0  0
   38.5454   -8.9872   18.9313 O   0  0  0  0  0  0  0  0  0  0  0  0
   39.4602  -10.2090   19.5002 P   0  0  0  0  0  0  0  0  0  0  0  0
   38.5462  -11.4319   19.4784 O   0  0  0  0  0  0  0  0  0  0  0  0
   40.6209  -10.2986   18.5147 O   0  0  0  0  0  0  0  0  0  0  0  0
   39.8862   -9.8177   20.9149 O   0  0  0  0  0  0  0  0  0  0  0  0
   39.0316  -12.2043   19.8080 H   0  0  0  0  0  0  0  0  0  0  0  0
   41.2204  -11.0116   18.7851 H   0  0  0  0  0  0  0  0  0  0  0  0
   38.3106   -3.4202   22.6458 O   0  0  0  0  0  0  0  0  0  0  0  0
   39.3382   -3.0362   23.7846 P   0  0  0  0  0  0  0  0  0  0  0  0
   39.1124   -3.9364   24.9255 O   0  0  0  0  0  0  0  0  0  0  0  0
   40.6760   -2.9645   23.1745 O   0  0  0  0  0  0  0  0  0  0  0  0
   39.3582   -4.8413   24.6770 H   0  0  0  0  0  0  0  0  0  0  0  0
   38.9510   -1.5137   24.1249 O   0  0  0  0  0  0  0  0  0  0  0  0
   39.5286    0.4204   22.8128 C   0  0  0  0  0  0  0  0  0  0  0  0
   39.1802    1.5436   23.6585 O   0  0  0  0  0  0  0  0  0  0  0  0
   38.0029    1.2482   24.3876 C   0  0  0  0  0  0  0  0  0  0  0  0
   37.3025    0.1471   23.6160 C   0  0  0  0  0  0  0  0  0  0  0  0
   38.4785   -0.6523   23.0977 C   0  0  0  0  0  0  0  0  0  0  0  0
   37.1957    2.4713   24.4782 N   0  0  0  0  0  0  0  0  0  0  0  0
   37.4289    3.5545   23.6310 C   0  0  0  0  0  0  0  0  0  0  0  0
   36.1592    2.4924   25.4116 C   0  0  0  0  0  0  0  0  0  0  0  0
   35.9401    1.5811   26.1857 O   0  0  0  0  0  0  0  0  0  0  0  0
   35.3849    3.6305   25.3817 N   0  0  0  0  0  0  0  0  0  0  0  0
   35.5275    4.7183   24.5272 C   0  0  0  0  0  0  0  0  0  0  0  0
   34.6381    5.5606   24.4945 O   0  0  0  0  0  0  0  0  0  0  0  0
   36.6474    4.6435   23.6194 C   0  0  0  0  0  0  0  0  0  0  0  0
   34.6510    3.6794   26.0360 H   0  0  0  0  0  0  0  0  0  0  0  0
   39.5465    0.8837   21.3759 C   0  0  0  0  0  0  0  0  0  0  0  0
   39.5851    2.3241   21.3329 O   0  0  0  0  0  0  0  0  0  0  0  0
   38.9833    3.1559   20.0621 P   0  0  0  0  0  0  0  0  0  0  0  0
   38.5987    4.5278   20.6246 O   0  0  0  0  0  0  0  0  0  0  0  0
   37.7685    2.3571   19.5581 O   0  0  0  0  0  0  0  0  0  0  0  0
   40.1197    3.2312   19.0404 O   0  0  0  0  0  0  0  0  0  0  0  0
   37.8772    4.4242   21.2646 H   0  0  0  0  0  0  0  0  0  0  0  0
   37.0832    2.3433   20.2445 H   0  0  0  0  0  0  0  0  0  0  0  0
  1  2  1  0  0  0
  1  3  2  0  0  0
  1  5  1  0  0  0
  1 33  1  0  0  0
  5  6  1  0  0  0
 34 35  1  0  0  0
 34 36  2  0  0  0
 34 33  1  0  0  0
 34 38  1  0  0  0
 27 28  1  0  0  0
 27 29  1  0  0  0
 27 30  2  0  0  0
 27 26  1  0  0  0
 14 15  1  0  0  0
 14 23  1  0  0  0
 14  9  1  0  0  0
 15 16  1  0  0  0
 15 21  2  0  0  0
 16 17  2  0  0  0
 17 18  1  0  0  0
 18 19  2  0  0  0
 19 20  1  0  0  0
 19 21  1  0  0  0
 21 22  1  0  0  0
 22 23  2  0  0  0
  6  7  1  0  0  0
  7  8  1  0  0  0
  7 12  1  0  0  0
  8  9  1  0  0  0
  9 10  1  0  0  0
 10 11  1  0  0  0
 10 12  1  0  0  0
 12 26  1  0  0  0
 54 53  1  0  0  0
 54 55  1  0  0  0
 53 39  1  0  0  0
 39 40  1  0  0  0
 39 43  1  0  0  0
 40 41  1  0  0  0
 41 42  1  0  0  0
 41 44  1  0  0  0
 42 43  1  0  0  0
 43 38  1  0  0  0
 55 56  1  0  0  0
 55 57  1  0  0  0
 55 58  2  0  0  0
 44 45  1  0  0  0
 44 46  1  0  0  0
 45 51  2  0  0  0
 46 47  2  0  0  0
 46 48  1  0  0  0
 48 49  1  0  0  0
 49 50  2  0  0  0
 49 51  1  0  0  0
  2  4  1  0  0  0
 35 37  1  0  0  0
 28 31  1  0  0  0
 29 32  1  0  0  0
 20 24  1  0  0  0
 20 25  1  0  0  0
 11 13  1  0  0  0
 56 59  1  0  0  0
 57 60  1  0  0  0
 48 52  1  0  0  0
M  END
> <minimizedAffinity>
-9.64254

$$$$
1QHC_PUA_A_901


 60 64  0  0  0  0  0  0  0  0999 V2000
   36.7139   -3.7963   22.8240 P   0  0  0  0  0  0  0  0  0  0  0  0
   36.2812   -2.4040   22.3760 O   0  0  0  0  0  0  0  0  0  0  0  0
   35.6907   -4.5916   23.6365 O   0  0  0  0  0  0  0  0  0  0  0  0
   35.4588   -2.4696   21.8658 H   0  0  0  0  0  0  0  0  0  0  0  0
   37.1703   -4.6788   21.5859 O   0  0  0  0  0  0  0  0  0  0  0  0
   37.3402   -6.0725   21.7301 C   0  0  0  0  0  0  0  0  0  0  0  0
   38.2818   -6.5726   20.6799 C   0  0  0  0  0  0  0  0  0  0  0  0
   37.6720   -6.4143   19.3633 O   0  0  0  0  0  0  0  0  0  0  0  0
   38.6173   -5.8362   18.4873 C   0  0  0  0  0  0  0  0  0  0  0  0
   39.4612   -4.9334   19.3881 C   0  0  0  0  0  0  0  0  0  0  0  0
   40.7081   -4.5846   18.8027 O   0  0  0  0  0  0  0  0  0  0  0  0
   39.6149   -5.8253   20.6221 C   0  0  0  0  0  0  0  0  0  0  0  0
   41.1969   -5.3918   18.5781 H   0  0  0  0  0  0  0  0  0  0  0  0
   37.9296   -5.2564   17.3201 N   0  0  0  0  0  0  0  0  0  0  0  0
   38.1161   -4.0404   16.6878 C   0  0  0  0  0  0  0  0  0  0  0  0
   38.9782   -3.0535   17.0237 N   0  0  0  0  0  0  0  0  0  0  0  0
   38.8916   -2.0213   16.1558 C   0  0  0  0  0  0  0  0  0  0  0  0
   38.0943   -1.8853   15.0718 N   0  0  0  0  0  0  0  0  0  0  0  0
   37.2462   -2.8931   14.7635 C   0  0  0  0  0  0  0  0  0  0  0  0
   36.4684   -2.7581   13.6893 N   0  0  0  0  0  0  0  0  0  0  0  0
   37.2375   -4.0397   15.6050 C   0  0  0  0  0  0  0  0  0  0  0  0
   36.5039   -5.2170   15.5712 N   0  0  0  0  0  0  0  0  0  0  0  0
   36.9428   -5.8966   16.6052 C   0  0  0  0  0  0  0  0  0  0  0  0
   36.5192   -1.9397   13.1445 H   0  0  0  0  0  0  0  0  0  0  0  0
   35.8432   -3.4769   13.4408 H   0  0  0  0  0  0  0  0  0  0  0  0
   40.6346   -6.7981   20.4063 O   0  0  0  0  0  0  0  0  0  0  0  0
   41.9828   -6.8492   21.3190 P   0  0  0  0  0  0  0  0  0  0  0  0
   41.4863   -6.8031   22.7622 O   0  0  0  0  0  0  0  0  0  0  0  0
   42.6400   -8.1732   20.9430 O   0  0  0  0  0  0  0  0  0  0  0  0
   42.8149   -5.6235   20.9434 O   0  0  0  0  0  0  0  0  0  0  0  0
   42.2449   -6.8305   23.3661 H   0  0  0  0  0  0  0  0  0  0  0  0
   43.4603   -8.2823   21.4491 H   0  0  0  0  0  0  0  0  0  0  0  0
   38.0597   -3.6850   23.6583 O   0  0  0  0  0  0  0  0  0  0  0  0
   39.3479   -2.7730   23.5635 P   0  0  0  0  0  0  0  0  0  0  0  0
   40.3650   -3.3238   24.4720 O   0  0  0  0  0  0  0  0  0  0  0  0
   39.6703   -2.6007   22.1375 O   0  0  0  0  0  0  0  0  0  0  0  0
   40.6589   -4.1876   24.1427 H   0  0  0  0  0  0  0  0  0  0  0  0
   38.8128   -1.3369   24.0483 O   0  0  0  0  0  0  0  0  0  0  0  0
   39.8443    0.7330   23.3794 C   0  0  0  0  0  0  0  0  0  0  0  0
   39.2981    1.7163   24.2921 O   0  0  0  0  0  0  0  0  0  0  0  0
   37.9424    1.4143   24.5678 C   0  0  0  0  0  0  0  0  0  0  0  0
   37.4699    0.5437   23.4201 C   0  0  0  0  0  0  0  0  0  0  0  0
   38.7150   -0.2635   23.1218 C   0  0  0  0  0  0  0  0  0  0  0  0
   37.1969    2.6756   24.6598 N   0  0  0  0  0  0  0  0  0  0  0  0
   37.6619    3.8359   24.0407 C   0  0  0  0  0  0  0  0  0  0  0  0
   35.9850    2.6598   25.3506 C   0  0  0  0  0  0  0  0  0  0  0  0
   35.5582    1.6777   25.9260 O   0  0  0  0  0  0  0  0  0  0  0  0
   35.2934    3.8499   25.3208 N   0  0  0  0  0  0  0  0  0  0  0  0
   35.6718    5.0227   24.6766 C   0  0  0  0  0  0  0  0  0  0  0  0
   34.8538    5.9298   24.5785 O   0  0  0  0  0  0  0  0  0  0  0  0
   36.9568    4.9757   24.0203 C   0  0  0  0  0  0  0  0  0  0  0  0
   34.4384    3.8731   25.8084 H   0  0  0  0  0  0  0  0  0  0  0  0
   40.3227    1.4411   22.1347 C   0  0  0  0  0  0  0  0  0  0  0  0
   39.6308    2.6983   21.9977 O   0  0  0  0  0  0  0  0  0  0  0  0
   38.9309    3.1375   20.5883 P   0  0  0  0  0  0  0  0  0  0  0  0
   38.7322    4.6528   20.6925 O   0  0  0  0  0  0  0  0  0  0  0  0
   37.6015    2.3668   20.5066 O   0  0  0  0  0  0  0  0  0  0  0  0
   39.9231    2.7434   19.4923 O   0  0  0  0  0  0  0  0  0  0  0  0
   38.0968    4.8478   21.3990 H   0  0  0  0  0  0  0  0  0  0  0  0
   37.0150    2.6569   21.2227 H   0  0  0  0  0  0  0  0  0  0  0  0
  1  2  1  0  0  0
  1  3  2  0  0  0
  1  5  1  0  0  0
  1 33  1  0  0  0
  5  6  1  0  0  0
 34 35  1  0  0  0
 34 36  2  0  0  0
 34 33  1  0  0  0
 34 38  1  0  0  0
 27 28  1  0  0  0
 27 29  1  0  0  0
 27 30  2  0  0  0
 27 26  1  0  0  0
 14 15  1  0  0  0
 14 23  1  0  0  0
 14  9  1  0  0  0
 15 16  1  0  0  0
 15 21  2  0  0  0
 16 17  2  0  0  0
 17 18  1  0  0  0
 18 19  2  0  0  0
 19 20  1  0  0  0
 19 21  1  0  0  0
 21 22  1  0  0  0
 22 23  2  0  0  0
  6  7  1  0  0  0
  7  8  1  0  0  0
  7 12  1  0  0  0
  8  9  1  0  0  0
  9 10  1  0  0  0
 10 11  1  0  0  0
 10 12  1  0  0  0
 12 26  1  0  0  0
 54 53  1  0  0  0
 54 55  1  0  0  0
 53 39  1  0  0  0
 39 40  1  0  0  0
 39 43  1  0  0  0
 40 41  1  0  0  0
 41 42  1  0  0  0
 41 44  1  0  0  0
 42 43  1  0  0  0
 43 38  1  0  0  0
 55 56  1  0  0  0
 55 57  1  0  0  0
 55 58  2  0  0  0
 44 45  1  0  0  0
 44 46  1  0  0  0
 45 51  2  0  0  0
 46 47  2  0  0  0
 46 48  1  0  0  0
 48 49  1  0  0  0
 49 50  2  0  0  0
 49 51  1  0  0  0
  2  4  1  0  0  0
 35 37  1  0  0  0
 28 31  1  0  0  0
 29 32  1  0  0  0
 20 24  1  0  0  0
 20 25  1  0  0  0
 11 13  1  0  0  0
 56 59  1  0  0  0
 57 60  1  0  0  0
 48 52  1  0  0  0
M  END
> <minimizedAffinity>
-9.19914

$$$$
1QHC_PUA_A_901


 60 64  0  0  0  0  0  0  0  0999 V2000
   37.6182   -2.5111   23.3588 P   0  0  0  0  0  0  0  0  0  0  0  0
   36.8559   -1.6588   22.3495 O   0  0  0  0  0  0  0  0  0  0  0  0
   36.7875   -3.1244   24.4873 O   0  0  0  0  0  0  0  0  0  0  0  0
   36.1378   -2.1825   21.9609 H   0  0  0  0  0  0  0  0  0  0  0  0
   38.4206   -3.6736   22.6344 O   0  0  0  0  0  0  0  0  0  0  0  0
   37.7926   -4.4633   21.6475 C   0  0  0  0  0  0  0  0  0  0  0  0
   38.8255   -5.0093   20.7123 C   0  0  0  0  0  0  0  0  0  0  0  0
   38.3639   -4.8604   19.3357 O   0  0  0  0  0  0  0  0  0  0  0  0
   39.4134   -4.3255   18.5561 C   0  0  0  0  0  0  0  0  0  0  0  0
   40.1827   -3.4285   19.5268 C   0  0  0  0  0  0  0  0  0  0  0  0
   41.4944   -3.1253   19.0722 O   0  0  0  0  0  0  0  0  0  0  0  0
   40.1784   -4.2999   20.7847 C   0  0  0  0  0  0  0  0  0  0  0  0
   41.9806   -3.9497   18.9145 H   0  0  0  0  0  0  0  0  0  0  0  0
   38.8709   -3.7502   17.3127 N   0  0  0  0  0  0  0  0  0  0  0  0
   37.9428   -4.2616   16.4236 C   0  0  0  0  0  0  0  0  0  0  0  0
   37.3210   -5.4620   16.4715 N   0  0  0  0  0  0  0  0  0  0  0  0
   36.4611   -5.6014   15.4384 C   0  0  0  0  0  0  0  0  0  0  0  0
   36.1811   -4.7320   14.4408 N   0  0  0  0  0  0  0  0  0  0  0  0
   36.8194   -3.5394   14.4255 C   0  0  0  0  0  0  0  0  0  0  0  0
   36.5340   -2.6825   13.4452 N   0  0  0  0  0  0  0  0  0  0  0  0
   37.7572   -3.2705   15.4605 C   0  0  0  0  0  0  0  0  0  0  0  0
   38.5638   -2.1735   15.7276 N   0  0  0  0  0  0  0  0  0  0  0  0
   39.2049   -2.5077   16.8235 C   0  0  0  0  0  0  0  0  0  0  0  0
   35.8746   -2.9253   12.7556 H   0  0  0  0  0  0  0  0  0  0  0  0
   36.9825   -1.8067   13.4108 H   0  0  0  0  0  0  0  0  0  0  0  0
   41.1865   -5.3041   20.6953 O   0  0  0  0  0  0  0  0  0  0  0  0
   41.5451   -6.2783   21.9505 P   0  0  0  0  0  0  0  0  0  0  0  0
   40.9756   -7.6426   21.5686 O   0  0  0  0  0  0  0  0  0  0  0  0
   43.0685   -6.2526   22.0216 O   0  0  0  0  0  0  0  0  0  0  0  0
   40.8639   -5.6794   23.1806 O   0  0  0  0  0  0  0  0  0  0  0  0
   41.1552   -8.2782   22.2790 H   0  0  0  0  0  0  0  0  0  0  0  0
   43.3676   -6.8153   22.7529 H   0  0  0  0  0  0  0  0  0  0  0  0
   38.7922   -1.6509   23.9924 O   0  0  0  0  0  0  0  0  0  0  0  0
   39.7987   -0.5688   23.4300 P   0  0  0  0  0  0  0  0  0  0  0  0
   41.0651   -0.6970   24.1669 O   0  0  0  0  0  0  0  0  0  0  0  0
   39.8023   -0.6812   21.9622 O   0  0  0  0  0  0  0  0  0  0  0  0
   41.4810   -1.5459   23.9498 H   0  0  0  0  0  0  0  0  0  0  0  0
   39.0510    0.8195   23.7419 O   0  0  0  0  0  0  0  0  0  0  0  0
   39.5305    2.9023   22.6336 C   0  0  0  0  0  0  0  0  0  0  0  0
   38.8510    3.8990   23.4354 O   0  0  0  0  0  0  0  0  0  0  0  0
   37.6254    3.3757   23.9141 C   0  0  0  0  0  0  0  0  0  0  0  0
   37.2716    2.2318   22.9843 C   0  0  0  0  0  0  0  0  0  0  0  0
   38.6390    1.6620   22.6738 C   0  0  0  0  0  0  0  0  0  0  0  0
   36.6236    4.4487   23.8908 N   0  0  0  0  0  0  0  0  0  0  0  0
   36.6830    5.4713   22.9440 C   0  0  0  0  0  0  0  0  0  0  0  0
   35.5861    4.3829   24.8210 C   0  0  0  0  0  0  0  0  0  0  0  0
   35.5128    3.5245   25.6787 O   0  0  0  0  0  0  0  0  0  0  0  0
   34.6325    5.3668   24.6857 N   0  0  0  0  0  0  0  0  0  0  0  0
   34.6019    6.3780   23.7316 C   0  0  0  0  0  0  0  0  0  0  0  0
   33.5844    7.0520   23.6218 O   0  0  0  0  0  0  0  0  0  0  0  0
   35.7303    6.4075   22.8317 C   0  0  0  0  0  0  0  0  0  0  0  0
   33.8923    5.3529   25.3347 H   0  0  0  0  0  0  0  0  0  0  0  0
   39.7349    3.4562   21.2440 C   0  0  0  0  0  0  0  0  0  0  0  0
   40.0463    2.3808   20.3360 O   0  0  0  0  0  0  0  0  0  0  0  0
   40.0614    2.6078   18.7182 P   0  0  0  0  0  0  0  0  0  0  0  0
   40.4426    4.0784   18.5215 O   0  0  0  0  0  0  0  0  0  0  0  0
   38.6395    2.2899   18.2232 O   0  0  0  0  0  0  0  0  0  0  0  0
   41.1175    1.6435   18.1742 O   0  0  0  0  0  0  0  0  0  0  0  0
   39.7426    4.6448   18.8821 H   0  0  0  0  0  0  0  0  0  0  0  0
   38.0157    2.9307   18.5986 H   0  0  0  0  0  0  0  0  0  0  0  0
  1  2  1  0  0  0
  1  3  2  0  0  0
  1  5  1  0  0  0
  1 33  1  0  0  0
  5  6  1  0  0  0
 34 35  1  0  0  0
 34 36  2  0  0  0
 34 33  1  0  0  0
 34 38  1  0  0  0
 27 28  1  0  0  0
 27 29  1  0  0  0
 27 30  2  0  0  0
 27 26  1  0  0  0
 14 15  1  0  0  0
 14 23  1  0  0  0
 14  9  1  0  0  0
 15 16  1  0  0  0
 15 21  2  0  0  0
 16 17  2  0  0  0
 17 18  1  0  0  0
 18 19  2  0  0  0
 19 20  1  0  0  0
 19 21  1  0  0  0
 21 22  1  0  0  0
 22 23  2  0  0  0
  6  7  1  0  0  0
  7  8  1  0  0  0
  7 12  1  0  0  0
  8  9  1  0  0  0
  9 10  1  0  0  0
 10 11  1  0  0  0
 10 12  1  0  0  0
 12 26  1  0  0  0
 54 53  1  0  0  0
 54 55  1  0  0  0
 53 39  1  0  0  0
 39 40  1  0  0  0
 39 43  1  0  0  0
 40 41  1  0  0  0
 41 42  1  0  0  0
 41 44  1  0  0  0
 42 43  1  0  0  0
 43 38  1  0  0  0
 55 56  1  0  0  0
 55 57  1  0  0  0
 55 58  2  0  0  0
 44 45  1  0  0  0
 44 46  1  0  0  0
 45 51  2  0  0  0
 46 47  2  0  0  0
 46 48  1  0  0  0
 48 49  1  0  0  0
 49 50  2  0  0  0
 49 51  1  0  0  0
  2  4  1  0  0  0
 35 37  1  0  0  0
 28 31  1  0  0  0
 29 32  1  0  0  0
 20 24  1  0  0  0
 20 25  1  0  0  0
 11 13  1  0  0  0
 56 59  1  0  0  0
 57 60  1  0  0  0
 48 52  1  0  0  0
M  END
> <minimizedAffinity>
-9.14980

$$$$
1QHC_PUA_A_901


 60 64  0  0  0  0  0  0  0  0999 V2000
   38.2472   -4.8068   22.1845 P   0  0  0  0  0  0  0  0  0  0  0  0
   36.8192   -5.3424   22.2009 O   0  0  0  0  0  0  0  0  0  0  0  0
   39.2280   -5.4718   23.1517 O   0  0  0  0  0  0  0  0  0  0  0  0
   36.8299   -6.2970   22.0292 H   0  0  0  0  0  0  0  0  0  0  0  0
   38.8628   -4.8660   20.7224 O   0  0  0  0  0  0  0  0  0  0  0  0
   39.6940   -5.9420   20.3438 C   0  0  0  0  0  0  0  0  0  0  0  0
   38.9031   -6.9255   19.5394 C   0  0  0  0  0  0  0  0  0  0  0  0
   37.9919   -6.2089   18.6525 O   0  0  0  0  0  0  0  0  0  0  0  0
   38.0795   -6.7670   17.3579 C   0  0  0  0  0  0  0  0  0  0  0  0
   39.5323   -7.2312   17.2465 C   0  0  0  0  0  0  0  0  0  0  0  0
   39.7279   -8.1789   16.2060 O   0  0  0  0  0  0  0  0  0  0  0  0
   39.7488   -7.8274   18.6392 C   0  0  0  0  0  0  0  0  0  0  0  0
   39.1393   -8.9374   16.3446 H   0  0  0  0  0  0  0  0  0  0  0  0
   37.5437   -5.8181   16.3660 N   0  0  0  0  0  0  0  0  0  0  0  0
   37.8403   -4.4833   16.1573 C   0  0  0  0  0  0  0  0  0  0  0  0
   38.6945   -3.7031   16.8584 N   0  0  0  0  0  0  0  0  0  0  0  0
   38.7391   -2.4539   16.3449 C   0  0  0  0  0  0  0  0  0  0  0  0
   38.0699   -1.9448   15.2854 N   0  0  0  0  0  0  0  0  0  0  0  0
   37.2258   -2.7541   14.6053 C   0  0  0  0  0  0  0  0  0  0  0  0
   36.5750   -2.2504   13.5567 N   0  0  0  0  0  0  0  0  0  0  0  0
   37.0855   -4.0979   15.0500 C   0  0  0  0  0  0  0  0  0  0  0  0
   36.3193   -5.1587   14.5887 N   0  0  0  0  0  0  0  0  0  0  0  0
   36.6190   -6.1460   15.4006 C   0  0  0  0  0  0  0  0  0  0  0  0
   36.7133   -1.3111   13.2963 H   0  0  0  0  0  0  0  0  0  0  0  0
   35.9559   -2.8176   13.0427 H   0  0  0  0  0  0  0  0  0  0  0  0
   39.1898   -9.1370   18.7097 O   0  0  0  0  0  0  0  0  0  0  0  0
   39.4559  -10.1194   19.9816 P   0  0  0  0  0  0  0  0  0  0  0  0
   38.0974  -10.2610   20.6640 O   0  0  0  0  0  0  0  0  0  0  0  0
   39.9609  -11.4151   19.3552 O   0  0  0  0  0  0  0  0  0  0  0  0
   40.4894   -9.4230   20.8665 O   0  0  0  0  0  0  0  0  0  0  0  0
   38.1831  -10.8393   21.4380 H   0  0  0  0  0  0  0  0  0  0  0  0
   40.1453  -12.0618   20.0542 H   0  0  0  0  0  0  0  0  0  0  0  0
   38.2257   -3.2447   22.4657 O   0  0  0  0  0  0  0  0  0  0  0  0
   37.3142   -2.2898   23.3360 P   0  0  0  0  0  0  0  0  0  0  0  0
   36.4133   -1.5654   22.4266 O   0  0  0  0  0  0  0  0  0  0  0  0
   36.7437   -3.0913   24.4311 O   0  0  0  0  0  0  0  0  0  0  0  0
   35.7896   -2.1898   22.0242 H   0  0  0  0  0  0  0  0  0  0  0  0
   38.3794   -1.3146   24.0416 O   0  0  0  0  0  0  0  0  0  0  0  0
   39.7733    0.6331   24.2857 C   0  0  0  0  0  0  0  0  0  0  0  0
   38.9511    1.5716   25.0214 O   0  0  0  0  0  0  0  0  0  0  0  0
   37.6021    1.4554   24.6069 C   0  0  0  0  0  0  0  0  0  0  0  0
   37.6442    0.8162   23.2329 C   0  0  0  0  0  0  0  0  0  0  0  0
   38.8129   -0.1344   23.3785 C   0  0  0  0  0  0  0  0  0  0  0  0
   37.0078    2.7976   24.5839 N   0  0  0  0  0  0  0  0  0  0  0  0
   37.6225    3.8477   23.9019 C   0  0  0  0  0  0  0  0  0  0  0  0
   35.7843    2.9726   25.2308 C   0  0  0  0  0  0  0  0  0  0  0  0
   35.2297    2.0914   25.8582 O   0  0  0  0  0  0  0  0  0  0  0  0
   35.2385    4.2291   25.0934 N   0  0  0  0  0  0  0  0  0  0  0  0
   35.7694    5.2997   24.3823 C   0  0  0  0  0  0  0  0  0  0  0  0
   35.0666    6.2854   24.1921 O   0  0  0  0  0  0  0  0  0  0  0  0
   37.0571    5.0566   23.7768 C   0  0  0  0  0  0  0  0  0  0  0  0
   34.3793    4.3866   25.5476 H   0  0  0  0  0  0  0  0  0  0  0  0
   40.8318    1.4033   23.5334 C   0  0  0  0  0  0  0  0  0  0  0  0
   41.9345    1.6960   24.4145 O   0  0  0  0  0  0  0  0  0  0  0  0
   41.8891    2.9620   25.4461 P   0  0  0  0  0  0  0  0  0  0  0  0
   41.3950    2.3812   26.7747 O   0  0  0  0  0  0  0  0  0  0  0  0
   40.9074    3.9797   24.8393 O   0  0  0  0  0  0  0  0  0  0  0  0
   43.3251    3.4843   25.5247 O   0  0  0  0  0  0  0  0  0  0  0  0
   40.4836    2.0657   26.6706 H   0  0  0  0  0  0  0  0  0  0  0  0
   40.0171    3.5953   24.8149 H   0  0  0  0  0  0  0  0  0  0  0  0
  1  2  1  0  0  0
  1  3  2  0  0  0
  1  5  1  0  0  0
  1 33  1  0  0  0
  5  6  1  0  0  0
 34 35  1  0  0  0
 34 36  2  0  0  0
 34 33  1  0  0  0
 34 38  1  0  0  0
 27 28  1  0  0  0
 27 29  1  0  0  0
 27 30  2  0  0  0
 27 26  1  0  0  0
 14 15  1  0  0  0
 14 23  1  0  0  0
 14  9  1  0  0  0
 15 16  1  0  0  0
 15 21  2  0  0  0
 16 17  2  0  0  0
 17 18  1  0  0  0
 18 19  2  0  0  0
 19 20  1  0  0  0
 19 21  1  0  0  0
 21 22  1  0  0  0
 22 23  2  0  0  0
  6  7  1  0  0  0
  7  8  1  0  0  0
  7 12  1  0  0  0
  8  9  1  0  0  0
  9 10  1  0  0  0
 10 11  1  0  0  0
 10 12  1  0  0  0
 12 26  1  0  0  0
 54 53  1  0  0  0
 54 55  1  0  0  0
 53 39  1  0  0  0
 39 40  1  0  0  0
 39 43  1  0  0  0
 40 41  1  0  0  0
 41 42  1  0  0  0
 41 44  1  0  0  0
 42 43  1  0  0  0
 43 38  1  0  0  0
 55 56  1  0  0  0
 55 57  1  0  0  0
 55 58  2  0  0  0
 44 45  1  0  0  0
 44 46  1  0  0  0
 45 51  2  0  0  0
 46 47  2  0  0  0
 46 48  1  0  0  0
 48 49  1  0  0  0
 49 50  2  0  0  0
 49 51  1  0  0  0
  2  4  1  0  0  0
 35 37  1  0  0  0
 28 31  1  0  0  0
 29 32  1  0  0  0
 20 24  1  0  0  0
 20 25  1  0  0  0
 11 13  1  0  0  0
 56 59  1  0  0  0
 57 60  1  0  0  0
 48 52  1  0  0  0
M  END
> <minimizedAffinity>
-9.13980

$$$$
1QHC_PUA_A_901


 60 64  0  0  0  0  0  0  0  0999 V2000
   39.5912   -0.4071   23.4109 P   0  0  0  0  0  0  0  0  0  0  0  0
   39.5254   -0.5199   21.8913 O   0  0  0  0  0  0  0  0  0  0  0  0
   40.7879   -1.0795   24.0859 O   0  0  0  0  0  0  0  0  0  0  0  0
   40.3421   -0.1667   21.5052 H   0  0  0  0  0  0  0  0  0  0  0  0
   39.5385    1.1104   23.8740 O   0  0  0  0  0  0  0  0  0  0  0  0
   38.3192    1.6836   24.2945 C   0  0  0  0  0  0  0  0  0  0  0  0
   37.6317    2.3115   23.1229 C   0  0  0  0  0  0  0  0  0  0  0  0
   36.5510    3.1713   23.5953 O   0  0  0  0  0  0  0  0  0  0  0  0
   36.6219    4.4094   22.9190 C   0  0  0  0  0  0  0  0  0  0  0  0
   38.1162    4.6145   22.6667 C   0  0  0  0  0  0  0  0  0  0  0  0
   38.3750    5.5740   21.6511 O   0  0  0  0  0  0  0  0  0  0  0  0
   38.5344    3.1985   22.2643 C   0  0  0  0  0  0  0  0  0  0  0  0
   37.9264    5.3082   20.8332 H   0  0  0  0  0  0  0  0  0  0  0  0
   35.8658    5.4313   23.6642 N   0  0  0  0  0  0  0  0  0  0  0  0
   35.4760    6.7040   23.2879 C   0  0  0  0  0  0  0  0  0  0  0  0
   35.7344    7.3410   22.1229 N   0  0  0  0  0  0  0  0  0  0  0  0
   35.1697    8.5687   22.1087 C   0  0  0  0  0  0  0  0  0  0  0  0
   34.4311    9.1768   23.0647 N   0  0  0  0  0  0  0  0  0  0  0  0
   34.1898    8.5095   24.2164 C   0  0  0  0  0  0  0  0  0  0  0  0
   33.4542    9.1095   25.1522 N   0  0  0  0  0  0  0  0  0  0  0  0
   34.7349    7.2034   24.3583 C   0  0  0  0  0  0  0  0  0  0  0  0
   34.6787    6.2752   25.3881 N   0  0  0  0  0  0  0  0  0  0  0  0
   35.3652    5.2523   24.9339 C   0  0  0  0  0  0  0  0  0  0  0  0
   33.1036   10.0162   24.9964 H   0  0  0  0  0  0  0  0  0  0  0  0
   33.2616    8.6461   25.9992 H   0  0  0  0  0  0  0  0  0  0  0  0
   38.1964    2.9506   20.9016 O   0  0  0  0  0  0  0  0  0  0  0  0
   39.3356    2.7579   19.7533 P   0  0  0  0  0  0  0  0  0  0  0  0
   40.2569    1.6643   20.2886 O   0  0  0  0  0  0  0  0  0  0  0  0
   38.5512    2.3406   18.5136 O   0  0  0  0  0  0  0  0  0  0  0  0
   40.0437    4.1043   19.6061 O   0  0  0  0  0  0  0  0  0  0  0  0
   40.9660    1.4968   19.6482 H   0  0  0  0  0  0  0  0  0  0  0  0
   39.1640    2.2039   17.7741 H   0  0  0  0  0  0  0  0  0  0  0  0
   38.2533   -0.9859   24.0392 O   0  0  0  0  0  0  0  0  0  0  0  0
   37.2320   -2.1168   23.6172 P   0  0  0  0  0  0  0  0  0  0  0  0
   36.9885   -2.9722   24.7887 O   0  0  0  0  0  0  0  0  0  0  0  0
   36.0934   -1.4651   22.9494 O   0  0  0  0  0  0  0  0  0  0  0  0
   36.5162   -2.4646   25.4671 H   0  0  0  0  0  0  0  0  0  0  0  0
   38.0140   -2.8947   22.4479 O   0  0  0  0  0  0  0  0  0  0  0  0
   39.7941   -4.4601   22.0275 C   0  0  0  0  0  0  0  0  0  0  0  0
   39.5648   -4.9061   20.6686 O   0  0  0  0  0  0  0  0  0  0  0  0
   38.1737   -5.0126   20.4267 C   0  0  0  0  0  0  0  0  0  0  0  0
   37.5246   -5.1448   21.7904 C   0  0  0  0  0  0  0  0  0  0  0  0
   38.4069   -4.2482   22.6321 C   0  0  0  0  0  0  0  0  0  0  0  0
   37.9403   -6.1872   19.5774 N   0  0  0  0  0  0  0  0  0  0  0  0
   37.6820   -7.4402   20.1334 C   0  0  0  0  0  0  0  0  0  0  0  0
   37.9417   -5.9948   18.1957 C   0  0  0  0  0  0  0  0  0  0  0  0
   38.1885   -4.9261   17.6715 O   0  0  0  0  0  0  0  0  0  0  0  0
   37.6260   -7.1156   17.4612 N   0  0  0  0  0  0  0  0  0  0  0  0
   37.3038   -8.3759   17.9529 C   0  0  0  0  0  0  0  0  0  0  0  0
   36.8541   -9.2119   17.1780 O   0  0  0  0  0  0  0  0  0  0  0  0
   37.3657   -8.5091   19.3890 C   0  0  0  0  0  0  0  0  0  0  0  0
   37.6287   -7.0140   16.4820 H   0  0  0  0  0  0  0  0  0  0  0  0
   40.6154   -5.5028   22.7471 C   0  0  0  0  0  0  0  0  0  0  0  0
   41.2629   -4.9052   23.8879 O   0  0  0  0  0  0  0  0  0  0  0  0
   40.7645   -5.2175   25.4121 P   0  0  0  0  0  0  0  0  0  0  0  0
   39.5622   -4.2959   25.6394 O   0  0  0  0  0  0  0  0  0  0  0  0
   41.9521   -4.8850   26.3324 O   0  0  0  0  0  0  0  0  0  0  0  0
   40.3869   -6.7001   25.4291 O   0  0  0  0  0  0  0  0  0  0  0  0
   39.8551   -3.3714   25.6193 H   0  0  0  0  0  0  0  0  0  0  0  0
   42.1453   -3.9358   26.2808 H   0  0  0  0  0  0  0  0  0  0  0  0
  1  2  1  0  0  0
  1  3  2  0  0  0
  1  5  1  0  0  0
  1 33  1  0  0  0
  5  6  1  0  0  0
 34 35  1  0  0  0
 34 36  2  0  0  0
 34 33  1  0  0  0
 34 38  1  0  0  0
 27 28  1  0  0  0
 27 29  1  0  0  0
 27 30  2  0  0  0
 27 26  1  0  0  0
 14 15  1  0  0  0
 14 23  1  0  0  0
 14  9  1  0  0  0
 15 16  1  0  0  0
 15 21  2  0  0  0
 16 17  2  0  0  0
 17 18  1  0  0  0
 18 19  2  0  0  0
 19 20  1  0  0  0
 19 21  1  0  0  0
 21 22  1  0  0  0
 22 23  2  0  0  0
  6  7  1  0  0  0
  7  8  1  0  0  0
  7 12  1  0  0  0
  8  9  1  0  0  0
  9 10  1  0  0  0
 10 11  1  0  0  0
 10 12  1  0  0  0
 12 26  1  0  0  0
 54 53  1  0  0  0
 54 55  1  0  0  0
 53 39  1  0  0  0
 39 40  1  0  0  0
 39 43  1  0  0  0
 40 41  1  0  0  0
 41 42  1  0  0  0
 41 44  1  0  0  0
 42 43  1  0  0  0
 43 38  1  0  0  0
 55 56  1  0  0  0
 55 57  1  0  0  0
 55 58  2  0  0  0
 44 45  1  0  0  0
 44 46  1  0  0  0
 45 51  2  0  0  0
 46 47  2  0  0  0
 46 48  1  0  0  0
 48 49  1  0  0  0
 49 50  2  0  0  0
 49 51  1  0  0  0
  2  4  1  0  0  0
 35 37  1  0  0  0
 28 31  1  0  0  0
 29 32  1  0  0  0
 20 24  1  0  0  0
 20 25  1  0  0  0
 11 13  1  0  0  0
 56 59  1  0  0  0
 57 60  1  0  0  0
 48 52  1  0  0  0
M  END
> <minimizedAffinity>
-9.02104

$$$$
1QHC_PUA_A_901


 60 64  0  0  0  0  0  0  0  0999 V2000
   37.2635   -1.1139   23.6204 P   0  0  0  0  0  0  0  0  0  0  0  0
   36.9389   -0.8119   22.1611 O   0  0  0  0  0  0  0  0  0  0  0  0
   36.5108   -0.2865   24.6638 O   0  0  0  0  0  0  0  0  0  0  0  0
   35.9856   -0.9144   22.0140 H   0  0  0  0  0  0  0  0  0  0  0  0
   37.0489   -2.6525   23.9469 O   0  0  0  0  0  0  0  0  0  0  0  0
   36.4649   -3.5082   22.9883 C   0  0  0  0  0  0  0  0  0  0  0  0
   37.3052   -4.7375   22.8378 C   0  0  0  0  0  0  0  0  0  0  0  0
   37.1365   -5.2815   21.4939 O   0  0  0  0  0  0  0  0  0  0  0  0
   38.4085   -5.5839   20.9593 C   0  0  0  0  0  0  0  0  0  0  0  0
   39.3347   -4.5361   21.5781 C   0  0  0  0  0  0  0  0  0  0  0  0
   40.7055   -4.9037   21.5061 O   0  0  0  0  0  0  0  0  0  0  0  0
   38.8057   -4.4999   23.0135 C   0  0  0  0  0  0  0  0  0  0  0  0
   40.8324   -5.7643   21.9354 H   0  0  0  0  0  0  0  0  0  0  0  0
   38.3212   -5.6985   19.4929 N   0  0  0  0  0  0  0  0  0  0  0  0
   37.8225   -6.7209   18.7059 C   0  0  0  0  0  0  0  0  0  0  0  0
   37.3122   -7.9066   19.1103 N   0  0  0  0  0  0  0  0  0  0  0  0
   36.9034   -8.6418   18.0527 C   0  0  0  0  0  0  0  0  0  0  0  0
   36.9488   -8.3370   16.7357 N   0  0  0  0  0  0  0  0  0  0  0  0
   37.4631   -7.1413   16.3670 C   0  0  0  0  0  0  0  0  0  0  0  0
   37.4980   -6.8418   15.0686 N   0  0  0  0  0  0  0  0  0  0  0  0
   37.9343   -6.2729   17.3901 C   0  0  0  0  0  0  0  0  0  0  0  0
   38.5076   -5.0099   17.3518 N   0  0  0  0  0  0  0  0  0  0  0  0
   38.7236   -4.7188   18.6137 C   0  0  0  0  0  0  0  0  0  0  0  0
   37.1564   -7.4847   14.4058 H   0  0  0  0  0  0  0  0  0  0  0  0
   37.8653   -5.9778   14.7724 H   0  0  0  0  0  0  0  0  0  0  0  0
   39.3222   -5.5994   23.7597 O   0  0  0  0  0  0  0  0  0  0  0  0
   40.1479   -5.3861   25.1476 P   0  0  0  0  0  0  0  0  0  0  0  0
   39.9304   -6.6730   25.9400 O   0  0  0  0  0  0  0  0  0  0  0  0
   41.5913   -5.1845   24.6977 O   0  0  0  0  0  0  0  0  0  0  0  0
   39.5436   -4.1622   25.8352 O   0  0  0  0  0  0  0  0  0  0  0  0
   40.3993   -6.6144   26.7870 H   0  0  0  0  0  0  0  0  0  0  0  0
   42.1561   -5.0489   25.4746 H   0  0  0  0  0  0  0  0  0  0  0  0
   38.8239   -0.9452   23.8573 O   0  0  0  0  0  0  0  0  0  0  0  0
   39.9433   -0.0174   23.2358 P   0  0  0  0  0  0  0  0  0  0  0  0
   41.2001   -0.2738   23.9555 O   0  0  0  0  0  0  0  0  0  0  0  0
   39.9013   -0.1834   21.7737 O   0  0  0  0  0  0  0  0  0  0  0  0
   41.5038   -1.1751   23.7649 H   0  0  0  0  0  0  0  0  0  0  0  0
   39.3789    1.4632   23.5056 O   0  0  0  0  0  0  0  0  0  0  0  0
   39.5218    3.5083   22.2432 C   0  0  0  0  0  0  0  0  0  0  0  0
   38.8407    4.4857   23.0672 O   0  0  0  0  0  0  0  0  0  0  0  0
   37.7346    3.8819   23.7128 C   0  0  0  0  0  0  0  0  0  0  0  0
   37.3943    2.6542   22.8909 C   0  0  0  0  0  0  0  0  0  0  0  0
   38.7681    2.1956   22.4516 C   0  0  0  0  0  0  0  0  0  0  0  0
   36.6349    4.8537   23.7523 N   0  0  0  0  0  0  0  0  0  0  0  0
   36.6029    5.9436   22.8823 C   0  0  0  0  0  0  0  0  0  0  0  0
   35.6016    4.6221   24.6606 C   0  0  0  0  0  0  0  0  0  0  0  0
   35.6046    3.7005   25.4532 O   0  0  0  0  0  0  0  0  0  0  0  0
   34.5593    5.5182   24.5827 N   0  0  0  0  0  0  0  0  0  0  0  0
   34.4389    6.5887   23.7033 C   0  0  0  0  0  0  0  0  0  0  0  0
   33.3624    7.1692   23.6277 O   0  0  0  0  0  0  0  0  0  0  0  0
   35.5658    6.7908   22.8239 C   0  0  0  0  0  0  0  0  0  0  0  0
   33.8190    5.3869   25.2184 H   0  0  0  0  0  0  0  0  0  0  0  0
   39.5132    3.9910   20.8127 C   0  0  0  0  0  0  0  0  0  0  0  0
   40.5047    3.2706   20.0536 O   0  0  0  0  0  0  0  0  0  0  0  0
   40.0914    2.3451   18.7723 P   0  0  0  0  0  0  0  0  0  0  0  0
   38.5957    2.5977   18.5589 O   0  0  0  0  0  0  0  0  0  0  0  0
   40.3988    0.8911   19.1716 O   0  0  0  0  0  0  0  0  0  0  0  0
   40.9491    2.8432   17.6074 O   0  0  0  0  0  0  0  0  0  0  0  0
   38.0993    2.2646   19.3228 H   0  0  0  0  0  0  0  0  0  0  0  0
   39.8276    0.6313   19.9114 H   0  0  0  0  0  0  0  0  0  0  0  0
  1  2  1  0  0  0
  1  3  2  0  0  0
  1  5  1  0  0  0
  1 33  1  0  0  0
  5  6  1  0  0  0
 34 35  1  0  0  0
 34 36  2  0  0  0
 34 33  1  0  0  0
 34 38  1  0  0  0
 27 28  1  0  0  0
 27 29  1  0  0  0
 27 30  2  0  0  0
 27 26  1  0  0  0
 14 15  1  0  0  0
 14 23  1  0  0  0
 14  9  1  0  0  0
 15 16  1  0  0  0
 15 21  2  0  0  0
 16 17  2  0  0  0
 17 18  1  0  0  0
 18 19  2  0  0  0
 19 20  1  0  0  0
 19 21  1  0  0  0
 21 22  1  0  0  0
 22 23  2  0  0  0
  6  7  1  0  0  0
  7  8  1  0  0  0
  7 12  1  0  0  0
  8  9  1  0  0  0
  9 10  1  0  0  0
 10 11  1  0  0  0
 10 12  1  0  0  0
 12 26  1  0  0  0
 54 53  1  0  0  0
 54 55  1  0  0  0
 53 39  1  0  0  0
 39 40  1  0  0  0
 39 43  1  0  0  0
 40 41  1  0  0  0
 41 42  1  0  0  0
 41 44  1  0  0  0
 42 43  1  0  0  0
 43 38  1  0  0  0
 55 56  1  0  0  0
 55 57  1  0  0  0
 55 58  2  0  0  0
 44 45  1  0  0  0
 44 46  1  0  0  0
 45 51  2  0  0  0
 46 47  2  0  0  0
 46 48  1  0  0  0
 48 49  1  0  0  0
 49 50  2  0  0  0
 49 51  1  0  0  0
  2  4  1  0  0  0
 35 37  1  0  0  0
 28 31  1  0  0  0
 29 32  1  0  0  0
 20 24  1  0  0  0
 20 25  1  0  0  0
 11 13  1  0  0  0
 56 59  1  0  0  0
 57 60  1  0  0  0
 48 52  1  0  0  0
M  END
> <minimizedAffinity>
-8.95613

$$$$
1QHC_PUA_A_901


 60 64  0  0  0  0  0  0  0  0999 V2000
   38.4526   -4.6885   21.4423 P   0  0  0  0  0  0  0  0  0  0  0  0
   37.0679   -5.1944   21.0511 O   0  0  0  0  0  0  0  0  0  0  0  0
   39.2543   -5.5826   22.3898 O   0  0  0  0  0  0  0  0  0  0  0  0
   37.1456   -6.0776   20.6577 H   0  0  0  0  0  0  0  0  0  0  0  0
   39.3374   -4.3941   20.1576 O   0  0  0  0  0  0  0  0  0  0  0  0
   39.2195   -5.2087   19.0110 C   0  0  0  0  0  0  0  0  0  0  0  0
   38.6523   -4.4050   17.8832 C   0  0  0  0  0  0  0  0  0  0  0  0
   39.3640   -3.1346   17.7839 O   0  0  0  0  0  0  0  0  0  0  0  0
   39.7001   -2.9024   16.4317 C   0  0  0  0  0  0  0  0  0  0  0  0
   39.9270   -4.3008   15.8557 C   0  0  0  0  0  0  0  0  0  0  0  0
   39.8668   -4.3264   14.4362 O   0  0  0  0  0  0  0  0  0  0  0  0
   38.7775   -5.0692   16.5114 C   0  0  0  0  0  0  0  0  0  0  0  0
   39.0125   -3.9732   14.1424 H   0  0  0  0  0  0  0  0  0  0  0  0
   40.7774   -1.9006   16.3481 N   0  0  0  0  0  0  0  0  0  0  0  0
   40.7203   -0.5206   16.4231 C   0  0  0  0  0  0  0  0  0  0  0  0
   39.6234    0.2587   16.5619 N   0  0  0  0  0  0  0  0  0  0  0  0
   39.9639    1.5652   16.6197 C   0  0  0  0  0  0  0  0  0  0  0  0
   41.1922    2.1282   16.5580 N   0  0  0  0  0  0  0  0  0  0  0  0
   42.2674    1.3186   16.4218 C   0  0  0  0  0  0  0  0  0  0  0  0
   43.4765    1.8774   16.3699 N   0  0  0  0  0  0  0  0  0  0  0  0
   42.0422   -0.0836   16.3445 C   0  0  0  0  0  0  0  0  0  0  0  0
   42.9047   -1.1613   16.2032 N   0  0  0  0  0  0  0  0  0  0  0  0
   42.1114   -2.2075   16.2036 C   0  0  0  0  0  0  0  0  0  0  0  0
   43.5696    2.8558   16.4286 H   0  0  0  0  0  0  0  0  0  0  0  0
   44.2765    1.3118   16.2730 H   0  0  0  0  0  0  0  0  0  0  0  0
   37.5582   -4.8278   15.8130 O   0  0  0  0  0  0  0  0  0  0  0  0
   36.8260   -5.9867   14.9331 P   0  0  0  0  0  0  0  0  0  0  0  0
   37.5521   -5.9828   13.5900 O   0  0  0  0  0  0  0  0  0  0  0  0
   37.0435   -7.2631   15.7393 O   0  0  0  0  0  0  0  0  0  0  0  0
   35.3571   -5.5827   14.8093 O   0  0  0  0  0  0  0  0  0  0  0  0
   37.1633   -6.6563   13.0102 H   0  0  0  0  0  0  0  0  0  0  0  0
   36.6324   -8.0108   15.2780 H   0  0  0  0  0  0  0  0  0  0  0  0
   38.3216   -3.2433   22.0856 O   0  0  0  0  0  0  0  0  0  0  0  0
   37.3211   -2.5759   23.1122 P   0  0  0  0  0  0  0  0  0  0  0  0
   36.2623   -1.9022   22.3453 O   0  0  0  0  0  0  0  0  0  0  0  0
   36.9543   -3.5966   24.1076 O   0  0  0  0  0  0  0  0  0  0  0  0
   35.7248   -2.5654   21.8846 H   0  0  0  0  0  0  0  0  0  0  0  0
   38.2548   -1.5347   23.9047 O   0  0  0  0  0  0  0  0  0  0  0  0
   39.7526    0.3347   24.1456 C   0  0  0  0  0  0  0  0  0  0  0  0
   39.0018    1.2964   24.9263 O   0  0  0  0  0  0  0  0  0  0  0  0
   37.6367    1.2573   24.5520 C   0  0  0  0  0  0  0  0  0  0  0  0
   37.6046    0.6479   23.1642 C   0  0  0  0  0  0  0  0  0  0  0  0
   38.7273   -0.3632   23.2531 C   0  0  0  0  0  0  0  0  0  0  0  0
   37.1109    2.6278   24.5758 N   0  0  0  0  0  0  0  0  0  0  0  0
   37.7927    3.6735   23.9533 C   0  0  0  0  0  0  0  0  0  0  0  0
   35.8833    2.8370   25.2045 C   0  0  0  0  0  0  0  0  0  0  0  0
   35.2712    1.9591   25.7811 O   0  0  0  0  0  0  0  0  0  0  0  0
   35.4042    4.1244   25.1112 N   0  0  0  0  0  0  0  0  0  0  0  0
   36.0041    5.1961   24.4589 C   0  0  0  0  0  0  0  0  0  0  0  0
   35.3559    6.2235   24.2977 O   0  0  0  0  0  0  0  0  0  0  0  0
   37.2914    4.9139   23.8698 C   0  0  0  0  0  0  0  0  0  0  0  0
   34.5439    4.3058   25.5542 H   0  0  0  0  0  0  0  0  0  0  0  0
   40.8256    1.0675   23.3767 C   0  0  0  0  0  0  0  0  0  0  0  0
   40.6730    0.8075   21.9670 O   0  0  0  0  0  0  0  0  0  0  0  0
   40.6727    2.0194   20.8714 P   0  0  0  0  0  0  0  0  0  0  0  0
   39.2085    2.1822   20.4515 O   0  0  0  0  0  0  0  0  0  0  0  0
   41.5760    1.5571   19.7146 O   0  0  0  0  0  0  0  0  0  0  0  0
   41.2181    3.2444   21.6081 O   0  0  0  0  0  0  0  0  0  0  0  0
   38.9133    1.3814   19.9906 H   0  0  0  0  0  0  0  0  0  0  0  0
   41.1816    0.7811   19.2866 H   0  0  0  0  0  0  0  0  0  0  0  0
  1  2  1  0  0  0
  1  3  2  0  0  0
  1  5  1  0  0  0
  1 33  1  0  0  0
  5  6  1  0  0  0
 34 35  1  0  0  0
 34 36  2  0  0  0
 34 33  1  0  0  0
 34 38  1  0  0  0
 27 28  1  0  0  0
 27 29  1  0  0  0
 27 30  2  0  0  0
 27 26  1  0  0  0
 14 15  1  0  0  0
 14 23  1  0  0  0
 14  9  1  0  0  0
 15 16  1  0  0  0
 15 21  2  0  0  0
 16 17  2  0  0  0
 17 18  1  0  0  0
 18 19  2  0  0  0
 19 20  1  0  0  0
 19 21  1  0  0  0
 21 22  1  0  0  0
 22 23  2  0  0  0
  6  7  1  0  0  0
  7  8  1  0  0  0
  7 12  1  0  0  0
  8  9  1  0  0  0
  9 10  1  0  0  0
 10 11  1  0  0  0
 10 12  1  0  0  0
 12 26  1  0  0  0
 54 53  1  0  0  0
 54 55  1  0  0  0
 53 39  1  0  0  0
 39 40  1  0  0  0
 39 43  1  0  0  0
 40 41  1  0  0  0
 41 42  1  0  0  0
 41 44  1  0  0  0
 42 43  1  0  0  0
 43 38  1  0  0  0
 55 56  1  0  0  0
 55 57  1  0  0  0
 55 58  2  0  0  0
 44 45  1  0  0  0
 44 46  1  0  0  0
 45 51  2  0  0  0
 46 47  2  0  0  0
 46 48  1  0  0  0
 48 49  1  0  0  0
 49 50  2  0  0  0
 49 51  1  0  0  0
  2  4  1  0  0  0
 35 37  1  0  0  0
 28 31  1  0  0  0
 29 32  1  0  0  0
 20 24  1  0  0  0
 20 25  1  0  0  0
 11 13  1  0  0  0
 56 59  1  0  0  0
 57 60  1  0  0  0
 48 52  1  0  0  0
M  END
> <minimizedAffinity>
-8.81591

$$$$
1QHC_PUA_A_901


 60 64  0  0  0  0  0  0  0  0999 V2000
   37.4436   -2.2230   23.2496 P   0  0  0  0  0  0  0  0  0  0  0  0
   36.1330   -1.7454   22.6329 O   0  0  0  0  0  0  0  0  0  0  0  0
   37.3246   -3.0398   24.5374 O   0  0  0  0  0  0  0  0  0  0  0  0
   35.5564   -2.5078   22.4682 H   0  0  0  0  0  0  0  0  0  0  0  0
   38.2982   -3.0551   22.2021 O   0  0  0  0  0  0  0  0  0  0  0  0
   37.8188   -4.2895   21.7138 C   0  0  0  0  0  0  0  0  0  0  0  0
   38.8374   -4.8950   20.7997 C   0  0  0  0  0  0  0  0  0  0  0  0
   38.3741   -4.7948   19.4193 O   0  0  0  0  0  0  0  0  0  0  0  0
   39.4313   -4.3143   18.6151 C   0  0  0  0  0  0  0  0  0  0  0  0
   40.2216   -3.3929   19.5451 C   0  0  0  0  0  0  0  0  0  0  0  0
   41.5375   -3.1354   19.0746 O   0  0  0  0  0  0  0  0  0  0  0  0
   40.2044   -4.2103   20.8386 C   0  0  0  0  0  0  0  0  0  0  0  0
   42.0067   -3.9752   18.9505 H   0  0  0  0  0  0  0  0  0  0  0  0
   38.8959   -3.7811   17.3500 N   0  0  0  0  0  0  0  0  0  0  0  0
   37.9451   -4.3044   16.4925 C   0  0  0  0  0  0  0  0  0  0  0  0
   37.2873   -5.4814   16.6009 N   0  0  0  0  0  0  0  0  0  0  0  0
   36.4147   -5.6421   15.5816 C   0  0  0  0  0  0  0  0  0  0  0  0
   36.1529   -4.8119   14.5465 N   0  0  0  0  0  0  0  0  0  0  0  0
   36.8272   -3.6416   14.4708 C   0  0  0  0  0  0  0  0  0  0  0  0
   36.5597   -2.8228   13.4535 N   0  0  0  0  0  0  0  0  0  0  0  0
   37.7816   -3.3539   15.4853 C   0  0  0  0  0  0  0  0  0  0  0  0
   38.6236   -2.2711   15.6950 N   0  0  0  0  0  0  0  0  0  0  0  0
   39.2636   -2.5736   16.8008 C   0  0  0  0  0  0  0  0  0  0  0  0
   35.8874   -3.0770   12.7807 H   0  0  0  0  0  0  0  0  0  0  0  0
   37.0344   -1.9639   13.3749 H   0  0  0  0  0  0  0  0  0  0  0  0
   41.1920   -5.2374   20.7888 O   0  0  0  0  0  0  0  0  0  0  0  0
   41.7648   -5.9472   22.1384 P   0  0  0  0  0  0  0  0  0  0  0  0
   41.2347   -7.3783   22.0890 O   0  0  0  0  0  0  0  0  0  0  0  0
   43.2805   -5.8541   21.9964 O   0  0  0  0  0  0  0  0  0  0  0  0
   41.2101   -5.1545   23.3216 O   0  0  0  0  0  0  0  0  0  0  0  0
   41.5408   -7.8636   22.8711 H   0  0  0  0  0  0  0  0  0  0  0  0
   43.7032   -6.2596   22.7696 H   0  0  0  0  0  0  0  0  0  0  0  0
   38.3844   -0.9729   23.5177 O   0  0  0  0  0  0  0  0  0  0  0  0
   38.2128    0.5922   23.3720 P   0  0  0  0  0  0  0  0  0  0  0  0
   36.7735    0.8943   23.3593 O   0  0  0  0  0  0  0  0  0  0  0  0
   39.0766    1.2326   24.3774 O   0  0  0  0  0  0  0  0  0  0  0  0
   36.3929    0.6920   24.2283 H   0  0  0  0  0  0  0  0  0  0  0  0
   38.9125    0.9043   21.9589 O   0  0  0  0  0  0  0  0  0  0  0  0
   38.5822    3.1817   21.2516 C   0  0  0  0  0  0  0  0  0  0  0  0
   38.6457    3.1202   19.8059 O   0  0  0  0  0  0  0  0  0  0  0  0
   39.6152    2.1678   19.4082 C   0  0  0  0  0  0  0  0  0  0  0  0
   40.5451    2.0028   20.5941 C   0  0  0  0  0  0  0  0  0  0  0  0
   39.5821    2.1411   21.7536 C   0  0  0  0  0  0  0  0  0  0  0  0
   40.3070    2.6806   18.2192 N   0  0  0  0  0  0  0  0  0  0  0  0
   40.9642    3.9108   18.2407 C   0  0  0  0  0  0  0  0  0  0  0  0
   40.3209    1.8725   17.0822 C   0  0  0  0  0  0  0  0  0  0  0  0
   39.7387    0.8075   17.0138 O   0  0  0  0  0  0  0  0  0  0  0  0
   41.0630    2.3704   16.0348 N   0  0  0  0  0  0  0  0  0  0  0  0
   41.7863    3.5578   16.0108 C   0  0  0  0  0  0  0  0  0  0  0  0
   42.5531    3.7602   15.0766 O   0  0  0  0  0  0  0  0  0  0  0  0
   41.6889    4.3606   17.2066 C   0  0  0  0  0  0  0  0  0  0  0  0
   41.0837    1.8270   15.2141 H   0  0  0  0  0  0  0  0  0  0  0  0
   38.9024    4.5903   21.6906 C   0  0  0  0  0  0  0  0  0  0  0  0
   37.7085    5.2233   22.1927 O   0  0  0  0  0  0  0  0  0  0  0  0
   37.0825    4.8294   23.6494 P   0  0  0  0  0  0  0  0  0  0  0  0
   36.6214    6.1558   24.2615 O   0  0  0  0  0  0  0  0  0  0  0  0
   38.2219    4.1700   24.4462 O   0  0  0  0  0  0  0  0  0  0  0  0
   35.9221    3.8758   23.3576 O   0  0  0  0  0  0  0  0  0  0  0  0
   37.3922    6.7211   24.4262 H   0  0  0  0  0  0  0  0  0  0  0  0
   38.9260    4.8190   24.6008 H   0  0  0  0  0  0  0  0  0  0  0  0
  1  2  1  0  0  0
  1  3  2  0  0  0
  1  5  1  0  0  0
  1 33  1  0  0  0
  5  6  1  0  0  0
 34 35  1  0  0  0
 34 36  2  0  0  0
 34 33  1  0  0  0
 34 38  1  0  0  0
 27 28  1  0  0  0
 27 29  1  0  0  0
 27 30  2  0  0  0
 27 26  1  0  0  0
 14 15  1  0  0  0
 14 23  1  0  0  0
 14  9  1  0  0  0
 15 16  1  0  0  0
 15 21  2  0  0  0
 16 17  2  0  0  0
 17 18  1  0  0  0
 18 19  2  0  0  0
 19 20  1  0  0  0
 19 21  1  0  0  0
 21 22  1  0  0  0
 22 23  2  0  0  0
  6  7  1  0  0  0
  7  8  1  0  0  0
  7 12  1  0  0  0
  8  9  1  0  0  0
  9 10  1  0  0  0
 10 11  1  0  0  0
 10 12  1  0  0  0
 12 26  1  0  0  0
 54 53  1  0  0  0
 54 55  1  0  0  0
 53 39  1  0  0  0
 39 40  1  0  0  0
 39 43  1  0  0  0
 40 41  1  0  0  0
 41 42  1  0  0  0
 41 44  1  0  0  0
 42 43  1  0  0  0
 43 38  1  0  0  0
 55 56  1  0  0  0
 55 57  1  0  0  0
 55 58  2  0  0  0
 44 45  1  0  0  0
 44 46  1  0  0  0
 45 51  2  0  0  0
 46 47  2  0  0  0
 46 48  1  0  0  0
 48 49  1  0  0  0
 49 50  2  0  0  0
 49 51  1  0  0  0
  2  4  1  0  0  0
 35 37  1  0  0  0
 28 31  1  0  0  0
 29 32  1  0  0  0
 20 24  1  0  0  0
 20 25  1  0  0  0
 11 13  1  0  0  0
 56 59  1  0  0  0
 57 60  1  0  0  0
 48 52  1  0  0  0
M  END
> <minimizedAffinity>
-8.78444

$$$$
1QHC_PUA_A_901


 60 64  0  0  0  0  0  0  0  0999 V2000
   36.9983    1.0759   24.9248 P   0  0  0  0  0  0  0  0  0  0  0  0
   36.3223    1.2151   26.2849 O   0  0  0  0  0  0  0  0  0  0  0  0
   36.4577   -0.0268   24.0128 O   0  0  0  0  0  0  0  0  0  0  0  0
   35.3699    1.3504   26.1603 H   0  0  0  0  0  0  0  0  0  0  0  0
   36.9676    2.4488   24.1283 O   0  0  0  0  0  0  0  0  0  0  0  0
   35.8426    3.2966   24.2156 C   0  0  0  0  0  0  0  0  0  0  0  0
   36.2905    4.6917   24.5203 C   0  0  0  0  0  0  0  0  0  0  0  0
   37.7067    4.8306   24.1960 O   0  0  0  0  0  0  0  0  0  0  0  0
   37.8933    6.0217   23.4600 C   0  0  0  0  0  0  0  0  0  0  0  0
   36.5961    6.1795   22.6657 C   0  0  0  0  0  0  0  0  0  0  0  0
   36.4028    7.5034   22.1870 O   0  0  0  0  0  0  0  0  0  0  0  0
   35.5645    5.7748   23.7211 C   0  0  0  0  0  0  0  0  0  0  0  0
   36.4211    8.1229   22.9331 H   0  0  0  0  0  0  0  0  0  0  0  0
   39.1801    5.9716   22.7438 N   0  0  0  0  0  0  0  0  0  0  0  0
   39.5588    5.2285   21.6404 C   0  0  0  0  0  0  0  0  0  0  0  0
   38.8236    4.3202   20.9590 N   0  0  0  0  0  0  0  0  0  0  0  0
   39.5248    3.8124   19.9214 C   0  0  0  0  0  0  0  0  0  0  0  0
   40.7866    4.0972   19.5262 N   0  0  0  0  0  0  0  0  0  0  0  0
   41.4922    5.0127   20.2291 C   0  0  0  0  0  0  0  0  0  0  0  0
   42.7323    5.2964   19.8308 N   0  0  0  0  0  0  0  0  0  0  0  0
   40.8656    5.6204   21.3521 C   0  0  0  0  0  0  0  0  0  0  0  0
   41.3024    6.5705   22.2641 N   0  0  0  0  0  0  0  0  0  0  0  0
   40.2770    6.7380   23.0668 C   0  0  0  0  0  0  0  0  0  0  0  0
   43.1128    4.8423   19.0445 H   0  0  0  0  0  0  0  0  0  0  0  0
   43.2676    5.9600   20.3229 H   0  0  0  0  0  0  0  0  0  0  0  0
   35.3148    6.8599   24.6115 O   0  0  0  0  0  0  0  0  0  0  0  0
   33.9045    7.6749   24.6014 P   0  0  0  0  0  0  0  0  0  0  0  0
   32.8535    6.6537   25.0301 O   0  0  0  0  0  0  0  0  0  0  0  0
   34.1125    8.7965   25.6139 O   0  0  0  0  0  0  0  0  0  0  0  0
   33.6938    8.1715   23.1713 O   0  0  0  0  0  0  0  0  0  0  0  0
   31.9802    7.0756   25.0460 H   0  0  0  0  0  0  0  0  0  0  0  0
   33.3081    9.3358   25.6687 H   0  0  0  0  0  0  0  0  0  0  0  0
   38.5563    0.8547   25.1325 O   0  0  0  0  0  0  0  0  0  0  0  0
   39.8552    1.3695   24.3921 P   0  0  0  0  0  0  0  0  0  0  0  0
   39.4363    2.2798   23.3155 O   0  0  0  0  0  0  0  0  0  0  0  0
   40.7952    1.8487   25.4186 O   0  0  0  0  0  0  0  0  0  0  0  0
   39.0483    3.0805   23.7018 H   0  0  0  0  0  0  0  0  0  0  0  0
   40.5099    0.0158   23.8240 O   0  0  0  0  0  0  0  0  0  0  0  0
   40.4365   -2.3016   23.1758 C   0  0  0  0  0  0  0  0  0  0  0  0
   41.1142   -2.3369   21.8961 O   0  0  0  0  0  0  0  0  0  0  0  0
   40.8072   -1.1680   21.1582 C   0  0  0  0  0  0  0  0  0  0  0  0
   39.5151   -0.6346   21.7450 C   0  0  0  0  0  0  0  0  0  0  0  0
   39.6891   -0.9694   23.2107 C   0  0  0  0  0  0  0  0  0  0  0  0
   40.6716   -1.5362   19.7434 N   0  0  0  0  0  0  0  0  0  0  0  0
   40.2535   -2.8125   19.3665 C   0  0  0  0  0  0  0  0  0  0  0  0
   40.9326   -0.5498   18.7922 C   0  0  0  0  0  0  0  0  0  0  0  0
   41.3243    0.5650   19.0777 O   0  0  0  0  0  0  0  0  0  0  0  0
   40.6982   -0.9330   17.4907 N   0  0  0  0  0  0  0  0  0  0  0  0
   40.2285   -2.1664   17.0525 C   0  0  0  0  0  0  0  0  0  0  0  0
   39.8843   -2.2822   15.8821 O   0  0  0  0  0  0  0  0  0  0  0  0
   40.0228   -3.1491   18.0897 C   0  0  0  0  0  0  0  0  0  0  0  0
   40.8831   -0.2612   16.7952 H   0  0  0  0  0  0  0  0  0  0  0  0
   39.5320   -3.5062   23.2778 C   0  0  0  0  0  0  0  0  0  0  0  0
   38.2054   -3.0841   23.6518 O   0  0  0  0  0  0  0  0  0  0  0  0
   36.8933   -3.5267   22.7848 P   0  0  0  0  0  0  0  0  0  0  0  0
   37.4506   -4.1704   21.5114 O   0  0  0  0  0  0  0  0  0  0  0  0
   36.1049   -2.2355   22.5035 O   0  0  0  0  0  0  0  0  0  0  0  0
   36.1298   -4.5181   23.6653 O   0  0  0  0  0  0  0  0  0  0  0  0
   37.9234   -3.5018   20.9914 H   0  0  0  0  0  0  0  0  0  0  0  0
   36.6359   -1.6479   21.9435 H   0  0  0  0  0  0  0  0  0  0  0  0
  1  2  1  0  0  0
  1  3  2  0  0  0
  1  5  1  0  0  0
  1 33  1  0  0  0
  5  6  1  0  0  0
 34 35  1  0  0  0
 34 36  2  0  0  0
 34 33  1  0  0  0
 34 38  1  0  0  0
 27 28  1  0  0  0
 27 29  1  0  0  0
 27 30  2  0  0  0
 27 26  1  0  0  0
 14 15  1  0  0  0
 14 23  1  0  0  0
 14  9  1  0  0  0
 15 16  1  0  0  0
 15 21  2  0  0  0
 16 17  2  0  0  0
 17 18  1  0  0  0
 18 19  2  0  0  0
 19 20  1  0  0  0
 19 21  1  0  0  0
 21 22  1  0  0  0
 22 23  2  0  0  0
  6  7  1  0  0  0
  7  8  1  0  0  0
  7 12  1  0  0  0
  8  9  1  0  0  0
  9 10  1  0  0  0
 10 11  1  0  0  0
 10 12  1  0  0  0
 12 26  1  0  0  0
 54 53  1  0  0  0
 54 55  1  0  0  0
 53 39  1  0  0  0
 39 40  1  0  0  0
 39 43  1  0  0  0
 40 41  1  0  0  0
 41 42  1  0  0  0
 41 44  1  0  0  0
 42 43  1  0  0  0
 43 38  1  0  0  0
 55 56  1  0  0  0
 55 57  1  0  0  0
 55 58  2  0  0  0
 44 45  1  0  0  0
 44 46  1  0  0  0
 45 51  2  0  0  0
 46 47  2  0  0  0
 46 48  1  0  0  0
 48 49  1  0  0  0
 49 50  2  0  0  0
 49 51  1  0  0  0
  2  4  1  0  0  0
 35 37  1  0  0  0
 28 31  1  0  0  0
 29 32  1  0  0  0
 20 24  1  0  0  0
 20 25  1  0  0  0
 11 13  1  0  0  0
 56 59  1  0  0  0
 57 60  1  0  0  0
 48 52  1  0  0  0
M  END
> <minimizedAffinity>
-8.77043

$$$$
1QHC_PUA_A_901


 60 64  0  0  0  0  0  0  0  0999 V2000
   41.6477   -0.4641   21.3027 P   0  0  0  0  0  0  0  0  0  0  0  0
   40.5104   -1.1684   22.0353 O   0  0  0  0  0  0  0  0  0  0  0  0
   42.8174   -1.3474   20.8653 O   0  0  0  0  0  0  0  0  0  0  0  0
   40.1690   -1.8903   21.4845 H   0  0  0  0  0  0  0  0  0  0  0  0
   41.1089    0.3235   20.0340 O   0  0  0  0  0  0  0  0  0  0  0  0
   41.9226    1.2831   19.3943 C   0  0  0  0  0  0  0  0  0  0  0  0
   41.8851    1.0635   17.9144 C   0  0  0  0  0  0  0  0  0  0  0  0
   41.4742   -0.3091   17.6357 O   0  0  0  0  0  0  0  0  0  0  0  0
   40.4814   -0.2949   16.6310 C   0  0  0  0  0  0  0  0  0  0  0  0
   39.7314    1.0176   16.8627 C   0  0  0  0  0  0  0  0  0  0  0  0
   38.9763    1.4258   15.7303 O   0  0  0  0  0  0  0  0  0  0  0  0
   40.8963    1.9614   17.1695 C   0  0  0  0  0  0  0  0  0  0  0  0
   39.5623    1.5014   14.9610 H   0  0  0  0  0  0  0  0  0  0  0  0
   39.7375   -1.5667   16.6438 N   0  0  0  0  0  0  0  0  0  0  0  0
   38.6168   -1.9521   15.9305 C   0  0  0  0  0  0  0  0  0  0  0  0
   37.8990   -1.2167   15.0508 N   0  0  0  0  0  0  0  0  0  0  0  0
   36.8815   -1.9405   14.5341 C   0  0  0  0  0  0  0  0  0  0  0  0
   36.5354   -3.2234   14.7867 N   0  0  0  0  0  0  0  0  0  0  0  0
   37.2770   -3.9304   15.6700 C   0  0  0  0  0  0  0  0  0  0  0  0
   36.9371   -5.1969   15.9094 N   0  0  0  0  0  0  0  0  0  0  0  0
   38.3789   -3.2784   16.2895 C   0  0  0  0  0  0  0  0  0  0  0  0
   39.3147   -3.7074   17.2199 N   0  0  0  0  0  0  0  0  0  0  0  0
   40.0877   -2.6617   17.4009 C   0  0  0  0  0  0  0  0  0  0  0  0
   36.1627   -5.5941   15.4494 H   0  0  0  0  0  0  0  0  0  0  0  0
   37.4606   -5.7351   16.5463 H   0  0  0  0  0  0  0  0  0  0  0  0
   41.5300    2.3752   15.9613 O   0  0  0  0  0  0  0  0  0  0  0  0
   42.6694    3.5392   15.9417 P   0  0  0  0  0  0  0  0  0  0  0  0
   43.9652    2.8192   15.5760 O   0  0  0  0  0  0  0  0  0  0  0  0
   42.1910    4.5139   14.8705 O   0  0  0  0  0  0  0  0  0  0  0  0
   42.7068    4.1417   17.3458 O   0  0  0  0  0  0  0  0  0  0  0  0
   44.6934    3.4593   15.5460 H   0  0  0  0  0  0  0  0  0  0  0  0
   42.8223    5.2465   14.7948 H   0  0  0  0  0  0  0  0  0  0  0  0
   42.2037    0.7162   22.2068 O   0  0  0  0  0  0  0  0  0  0  0  0
   41.9149    1.2112   23.6805 P   0  0  0  0  0  0  0  0  0  0  0  0
   41.5793    0.0362   24.4990 O   0  0  0  0  0  0  0  0  0  0  0  0
   43.0311    2.0803   24.0875 O   0  0  0  0  0  0  0  0  0  0  0  0
   42.3614   -0.5310   24.5864 H   0  0  0  0  0  0  0  0  0  0  0  0
   40.6614    2.1998   23.4925 O   0  0  0  0  0  0  0  0  0  0  0  0
   38.4224    1.3865   23.1437 C   0  0  0  0  0  0  0  0  0  0  0  0
   37.6925    2.5422   22.6644 O   0  0  0  0  0  0  0  0  0  0  0  0
   38.1526    3.7077   23.3239 C   0  0  0  0  0  0  0  0  0  0  0  0
   38.8068    3.2284   24.6048 C   0  0  0  0  0  0  0  0  0  0  0  0
   39.4334    1.9265   24.1541 C   0  0  0  0  0  0  0  0  0  0  0  0
   37.0006    4.5825   23.5750 N   0  0  0  0  0  0  0  0  0  0  0  0
   36.7900    5.7343   22.8169 C   0  0  0  0  0  0  0  0  0  0  0  0
   36.1011    4.1955   24.5686 C   0  0  0  0  0  0  0  0  0  0  0  0
   36.2621    3.2148   25.2687 O   0  0  0  0  0  0  0  0  0  0  0  0
   34.9972    5.0092   24.6901 N   0  0  0  0  0  0  0  0  0  0  0  0
   34.6993    6.1356   23.9309 C   0  0  0  0  0  0  0  0  0  0  0  0
   33.5837    6.6329   24.0298 O   0  0  0  0  0  0  0  0  0  0  0  0
   35.6970    6.4983   22.9526 C   0  0  0  0  0  0  0  0  0  0  0  0
   34.3486    4.7676   25.3902 H   0  0  0  0  0  0  0  0  0  0  0  0
   37.4398    0.4049   23.7357 C   0  0  0  0  0  0  0  0  0  0  0  0
   38.0749   -0.8798   23.8922 O   0  0  0  0  0  0  0  0  0  0  0  0
   37.3471   -2.2567   23.3990 P   0  0  0  0  0  0  0  0  0  0  0  0
   36.1390   -1.8007   22.5749 O   0  0  0  0  0  0  0  0  0  0  0  0
   36.9447   -3.0150   24.6761 O   0  0  0  0  0  0  0  0  0  0  0  0
   38.3900   -2.9997   22.5615 O   0  0  0  0  0  0  0  0  0  0  0  0
   35.5111   -1.3372   23.1508 H   0  0  0  0  0  0  0  0  0  0  0  0
   36.2845   -2.4986   25.1643 H   0  0  0  0  0  0  0  0  0  0  0  0
  1  2  1  0  0  0
  1  3  2  0  0  0
  1  5  1  0  0  0
  1 33  1  0  0  0
  5  6  1  0  0  0
 34 35  1  0  0  0
 34 36  2  0  0  0
 34 33  1  0  0  0
 34 38  1  0  0  0
 27 28  1  0  0  0
 27 29  1  0  0  0
 27 30  2  0  0  0
 27 26  1  0  0  0
 14 15  1  0  0  0
 14 23  1  0  0  0
 14  9  1  0  0  0
 15 16  1  0  0  0
 15 21  2  0  0  0
 16 17  2  0  0  0
 17 18  1  0  0  0
 18 19  2  0  0  0
 19 20  1  0  0  0
 19 21  1  0  0  0
 21 22  1  0  0  0
 22 23  2  0  0  0
  6  7  1  0  0  0
  7  8  1  0  0  0
  7 12  1  0  0  0
  8  9  1  0  0  0
  9 10  1  0  0  0
 10 11  1  0  0  0
 10 12  1  0  0  0
 12 26  1  0  0  0
 54 53  1  0  0  0
 54 55  1  0  0  0
 53 39  1  0  0  0
 39 40  1  0  0  0
 39 43  1  0  0  0
 40 41  1  0  0  0
 41 42  1  0  0  0
 41 44  1  0  0  0
 42 43  1  0  0  0
 43 38  1  0  0  0
 55 56  1  0  0  0
 55 57  1  0  0  0
 55 58  2  0  0  0
 44 45  1  0  0  0
 44 46  1  0  0  0
 45 51  2  0  0  0
 46 47  2  0  0  0
 46 48  1  0  0  0
 48 49  1  0  0  0
 49 50  2  0  0  0
 49 51  1  0  0  0
  2  4  1  0  0  0
 35 37  1  0  0  0
 28 31  1  0  0  0
 29 32  1  0  0  0
 20 24  1  0  0  0
 20 25  1  0  0  0
 11 13  1  0  0  0
 56 59  1  0  0  0
 57 60  1  0  0  0
 48 52  1  0  0  0
M  END
> <minimizedAffinity>
-8.73626

$$$$
