4F6W_0SS_A_501


 50 54  0  0  0  0  0  0  0  0999 V2000
   38.6025   58.7334  142.5445 N   0  0  0  0  0  0  0  0  0  0  0  0
   37.5888   58.8841  141.4717 C   0  0  0  0  0  0  0  0  0  0  0  0
   37.1869   57.5937  140.7386 C   0  0  0  0  0  0  0  0  0  0  0  0
   39.6833   57.8305  142.0961 C   0  0  0  0  0  0  0  0  0  0  0  0
   39.0592   56.4877  141.6845 C   0  0  0  0  0  0  0  0  0  0  0  0
   38.3322   56.7123  140.4107 N   0  0  0  0  0  0  0  0  0  0  0  0
   38.6108   56.2027  139.1366 C   0  0  0  0  0  0  0  0  0  0  0  0
   37.8793   56.5097  138.2302 O   0  0  0  0  0  0  0  0  0  0  0  0
   39.7591   55.4285  138.9057 N   0  0  0  0  0  0  0  0  0  0  0  0
   40.4128   55.2605  139.6224 H   0  0  0  0  0  0  0  0  0  0  0  0
   39.9437   54.8994  137.6099 C   0  0  0  0  0  0  0  0  0  0  0  0
   39.5641   53.6830  137.0925 C   0  0  0  0  0  0  0  0  0  0  0  0
   39.7896   53.7995  135.7373 C   0  0  0  0  0  0  0  0  0  0  0  0
   40.2555   55.0437  135.4870 N   0  0  0  0  0  0  0  0  0  0  0  0
   40.3333   55.6725  136.5726 N   0  0  0  0  0  0  0  0  0  0  0  0
   40.8005   57.0619  136.6844 C   0  0  0  0  0  0  0  0  0  0  0  0
   40.2323   57.9974  135.8171 C   0  0  0  0  0  0  0  0  0  0  0  0
   41.7778   57.4766  137.5818 C   0  0  0  0  0  0  0  0  0  0  0  0
   42.1595   58.8108  137.6180 C   0  0  0  0  0  0  0  0  0  0  0  0
   41.5868   59.7407  136.7519 C   0  0  0  0  0  0  0  0  0  0  0  0
   42.0083   61.1804  136.7986 C   0  0  0  0  0  0  0  0  0  0  0  0
   40.6206   59.3317  135.8506 C   0  0  0  0  0  0  0  0  0  0  0  0
   39.5860   52.7338  134.6709 C   0  0  0  0  0  0  0  0  0  0  0  0
   40.9570   52.0842  134.4967 C   0  0  0  0  0  0  0  0  0  0  0  0
   39.1792   53.3928  133.3371 C   0  0  0  0  0  0  0  0  0  0  0  0
   38.5796   51.6487  135.0888 C   0  0  0  0  0  0  0  0  0  0  0  0
   39.1186   60.0616  142.9120 C   0  0  0  0  0  0  0  0  0  0  0  0
   40.0845   60.0354  144.0854 C   0  0  0  0  0  0  0  0  0  0  0  0
   40.2401   57.6746  145.6027 O   0  0  0  0  0  0  0  0  0  0  0  0
   39.7120   58.6359  146.1198 C   0  0  0  0  0  0  0  0  0  0  0  0
   39.4433   58.6863  147.4625 N   0  0  0  0  0  0  0  0  0  0  0  0
   39.4096   59.7382  145.3636 N   0  0  0  0  0  0  0  0  0  0  0  0
   39.0116   59.4895  147.8337 H   0  0  0  0  0  0  0  0  0  0  0  0
   38.7144   60.3563  145.6859 H   0  0  0  0  0  0  0  0  0  0  0  0
   39.7702   57.6112  148.3366 C   0  0  0  0  0  0  0  0  0  0  0  0
   38.8879   56.8785  149.0353 N   0  0  0  0  0  0  0  0  0  0  0  0
   39.4792   55.9385  149.6493 N   0  0  0  0  0  0  0  0  0  0  0  0
   40.7998   55.9871  149.4291 C   0  0  0  0  0  0  0  0  0  0  0  0
   41.0201   57.0586  148.6003 C   0  0  0  0  0  0  0  0  0  0  0  0
   37.4194   56.9838  149.0642 C   0  0  0  0  0  0  0  0  0  0  0  0
   36.7150   56.9377  147.8556 C   0  0  0  0  0  0  0  0  0  0  0  0
   35.3266   56.9831  147.8247 C   0  0  0  0  0  0  0  0  0  0  0  0
   34.6039   57.0340  149.0144 C   0  0  0  0  0  0  0  0  0  0  0  0
   33.0912   57.0647  148.9728 C   0  0  0  0  0  0  0  0  0  0  0  0
   35.2956   57.0589  150.2248 C   0  0  0  0  0  0  0  0  0  0  0  0
   36.6971   57.0147  150.2534 C   0  0  0  0  0  0  0  0  0  0  0  0
   41.8475   55.0592  150.0354 C   0  0  0  0  0  0  0  0  0  0  0  0
   42.9361   54.6044  149.0593 C   0  0  0  0  0  0  0  0  0  0  0  0
   41.2037   53.8275  150.6463 C   0  0  0  0  0  0  0  0  0  0  0  0
   42.5190   55.8352  151.1704 C   0  0  0  0  0  0  0  0  0  0  0  0
 25 23  1  0  0  0
 24 23  1  0  0  0
 23 26  1  0  0  0
 23 13  1  0  0  0
 14 13  2  0  0  0
 14 15  1  0  0  0
 13 12  1  0  0  0
 18 19  2  0  0  0
 18 16  1  0  0  0
 19 20  1  0  0  0
 15 16  1  0  0  0
 15 11  1  0  0  0
 16 17  2  0  0  0
 20 21  1  0  0  0
 20 22  2  0  0  0
 12 11  2  0  0  0
 17 22  1  0  0  0
 11  9  1  0  0  0
  8  7  2  0  0  0
  9  7  1  0  0  0
  7  6  1  0  0  0
  6  3  1  0  0  0
  6  5  1  0  0  0
  3  2  1  0  0  0
  2  1  1  0  0  0
  5  4  1  0  0  0
  4  1  1  0  0  0
  1 27  1  0  0  0
 27 28  1  0  0  0
 28 32  1  0  0  0
 32 30  1  0  0  0
 29 30  2  0  0  0
 30 31  1  0  0  0
 31 35  1  0  0  0
 41 42  2  0  0  0
 41 40  1  0  0  0
 42 43  1  0  0  0
 35 39  2  0  0  0
 35 36  1  0  0  0
 39 38  1  0  0  0
 36 40  1  0  0  0
 36 37  1  0  0  0
 40 46  2  0  0  0
 48 47  1  0  0  0
 43 44  1  0  0  0
 43 45  2  0  0  0
 38 37  2  0  0  0
 38 47  1  0  0  0
 47 49  1  0  0  0
 47 50  1  0  0  0
 46 45  1  0  0  0
 31 33  1  0  0  0
 32 34  1  0  0  0
  9 10  1  0  0  0
M  END
> <minimizedAffinity>
-13.92973

$$$$
