3VD4_IPT_A_2001
  RCSB PDB12061711123D
Coordinates from PDB:3VD4:A:2001 Model:1 without hydrogens
 15 15  0  0  0  0            999 V2000
  -14.6700  -27.5650  -26.3070   C 0  0  0  0  0  0  0  0  0  0  0  0
  -13.3560  -27.3730  -25.5420   C 0  0  0  0  0  0  0  0  0  0  0  0
  -13.4580  -26.1820  -24.7590   O 0  0  0  0  0  0  0  0  0  0  0  0
  -12.1600  -27.2510  -26.4940   C 0  0  0  0  0  0  0  0  0  0  0  0
  -10.9280  -27.3470  -25.7590   O 0  0  0  0  0  0  0  0  0  0  0  0
  -12.1820  -28.3050  -27.6100   C 0  0  0  0  0  0  0  0  0  0  0  0
  -11.8520  -29.5850  -27.0510   O 0  0  0  0  0  0  0  0  0  0  0  0
  -13.5710  -28.3350  -28.2620   C 0  0  0  0  0  0  0  0  0  0  0  0
  -14.5280  -28.6260  -27.2490   O 0  0  0  0  0  0  0  0  0  0  0  0
  -13.7790  -29.3590  -29.3730   C 0  0  0  0  0  0  0  0  0  0  0  0
  -12.6910  -29.3540  -30.3060   O 0  0  0  0  0  0  0  0  0  0  0  0
  -16.0120  -27.9980  -25.2420   S 0  0  0  0  0  0  0  0  0  0  0  0
  -17.5270  -27.5400  -26.0430   C 0  0  0  0  0  0  0  0  0  0  0  0
  -17.7430  -28.3350  -27.3330   C 0  0  0  0  0  0  0  0  0  0  0  0
  -18.6920  -27.7510  -25.0820   C 0  0  0  0  0  0  0  0  0  0  0  0
  1  2  1  0  0  0  0
  1  9  1  0  0  0  0
  1 12  1  0  0  0  0
  2  3  1  0  0  0  0
  2  4  1  0  0  0  0
  4  5  1  0  0  0  0
  4  6  1  0  0  0  0
  6  7  1  0  0  0  0
  6  8  1  0  0  0  0
  8  9  1  0  0  0  0
  8 10  1  0  0  0  0
 10 11  1  0  0  0  0
 12 13  1  0  0  0  0
 13 14  1  0  0  0  0
 13 15  1  0  0  0  0
A    1
C1
A    2
C2
A    3
O2
A    4
C3
A    5
O3
A    6
C4
A    7
O4
A    8
C5
A    9
O5
A   10
C6
A   11
O6
A   12
S1
A   13
C1'
A   14
C2'
A   15
C3'
M  END
>  <InstanceId>
3VD4_IPT_A_2001

>  <ChemCompId>
IPT

>  <PdbId>
3VD4

>  <ChainId>
A

>  <ResidueNumber>
2001

>  <InsertionCode>


>  <Model>
1

>  <AltIds>


>  <MissingHeavyAtoms>
0

>  <ObservedFormula>
C9 O5 S

>  <Name>
ISOPROPYL-1-BETA-D-THIOGALACTOSIDE

>  <SystematicName>
(2R,3R,4S,5R,6S)-2-(hydroxymethyl)-6-propan-2-ylsulfanyl-oxane-3,4,5-triol

>  <Synonyms>
1-(ISOPROPYLTHIO)-BETA-GALACTOPYRANSIDE

>  <Type>
D-SACCHARIDE

>  <Formula>
C9 H18 O5 S

>  <MolecularWeight>
238.301

>  <ModifiedDate>
2011-06-04

>  <Parent>


>  <OneLetterCode>


>  <SubcomponentList>


>  <AmbiguousFlag>
N

>  <InChI>
InChI=1S/C9H18O5S/c1-4(2)15-9-8(13)7(12)6(11)5(3-10)14-9/h4-13H,3H2,1-2H3/t5-,6+,7+,8-,9+/m1/s1

>  <InChIKey>
BPHPUYQFMNQIOC-NXRLNHOXSA-N

>  <SMILES>
CC(C)S[C@H]1[C@@H]([C@H]([C@H]([C@H](O1)CO)O)O)O

$$$$
