3VD4_IPT_A_2001


 19 19  0  0  0  0  0  0  0  0999 V2000
  -14.9515  -27.7451  -26.5074 C   0  0  0  0  0  0  0  0  0  0  0  0
  -13.8764  -27.4707  -25.4502 C   0  0  0  0  0  0  0  0  0  0  0  0
  -14.3187  -26.3916  -24.6244 O   0  0  0  0  0  0  0  0  0  0  0  0
  -12.5343  -27.0986  -26.0920 C   0  0  0  0  0  0  0  0  0  0  0  0
  -11.4896  -27.1154  -25.1042 O   0  0  0  0  0  0  0  0  0  0  0  0
  -12.1599  -28.0230  -27.2591 C   0  0  0  0  0  0  0  0  0  0  0  0
  -11.7742  -29.3030  -26.7369 O   0  0  0  0  0  0  0  0  0  0  0  0
  -13.3556  -28.1591  -28.2116 C   0  0  0  0  0  0  0  0  0  0  0  0
  -14.4554  -28.6741  -27.4687 O   0  0  0  0  0  0  0  0  0  0  0  0
  -14.4450  -25.5987  -25.1687 H   0  0  0  0  0  0  0  0  0  0  0  0
  -11.3957  -28.0128  -24.7481 H   0  0  0  0  0  0  0  0  0  0  0  0
  -12.5132  -29.6846  -26.2377 H   0  0  0  0  0  0  0  0  0  0  0  0
  -13.1663  -29.0779  -29.4141 C   0  0  0  0  0  0  0  0  0  0  0  0
  -11.7907  -29.1531  -29.8096 O   0  0  0  0  0  0  0  0  0  0  0  0
  -11.4785  -28.2705  -30.0634 H   0  0  0  0  0  0  0  0  0  0  0  0
  -16.4134  -28.4543  -25.8126 S   0  0  0  0  0  0  0  0  0  0  0  0
  -17.7913  -27.9969  -26.8318 C   0  0  0  0  0  0  0  0  0  0  0  0
  -17.8277  -28.8128  -28.1263 C   0  0  0  0  0  0  0  0  0  0  0  0
  -19.0853  -28.1802  -26.0462 C   0  0  0  0  0  0  0  0  0  0  0  0
  1  2  1  0  0  0
  1  9  1  0  0  0
  1 16  1  0  0  0
  2  3  1  0  0  0
  2  4  1  0  0  0
  4  5  1  0  0  0
  4  6  1  0  0  0
  6  7  1  0  0  0
  6  8  1  0  0  0
  8  9  1  0  0  0
  8 13  1  0  0  0
 13 14  1  0  0  0
 16 17  1  0  0  0
 17 18  1  0  0  0
 17 19  1  0  0  0
  3 10  1  0  0  0
  5 11  1  0  0  0
  7 12  1  0  0  0
 14 15  1  0  0  0
M  END
> <minimizedAffinity>
-7.50422

$$$$
3VD4_IPT_A_2001


 19 19  0  0  0  0  0  0  0  0999 V2000
  -13.7406  -28.4229  -26.5378 C   0  0  0  0  0  0  0  0  0  0  0  0
  -13.5070  -28.4746  -28.0515 C   0  0  0  0  0  0  0  0  0  0  0  0
  -14.5732  -29.2149  -28.6490 O   0  0  0  0  0  0  0  0  0  0  0  0
  -12.1714  -29.1453  -28.3951 C   0  0  0  0  0  0  0  0  0  0  0  0
  -11.8533  -28.9376  -29.7818 O   0  0  0  0  0  0  0  0  0  0  0  0
  -11.0153  -28.6461  -27.5170 C   0  0  0  0  0  0  0  0  0  0  0  0
  -10.6677  -27.3119  -27.9155 O   0  0  0  0  0  0  0  0  0  0  0  0
  -11.4365  -28.6837  -26.0417 C   0  0  0  0  0  0  0  0  0  0  0  0
  -12.5953  -27.8703  -25.8926 O   0  0  0  0  0  0  0  0  0  0  0  0
  -14.5793  -30.1173  -28.2932 H   0  0  0  0  0  0  0  0  0  0  0  0
  -11.7467  -27.9883  -29.9504 H   0  0  0  0  0  0  0  0  0  0  0  0
  -11.4375  -26.7316  -27.8086 H   0  0  0  0  0  0  0  0  0  0  0  0
  -10.4122  -28.1827  -25.0288 C   0  0  0  0  0  0  0  0  0  0  0  0
   -9.0824  -28.2152  -25.5626 O   0  0  0  0  0  0  0  0  0  0  0  0
   -8.8474  -29.1285  -25.7895 H   0  0  0  0  0  0  0  0  0  0  0  0
  -15.1179  -27.4046  -26.1034 S   0  0  0  0  0  0  0  0  0  0  0  0
  -16.5124  -28.4573  -25.7970 C   0  0  0  0  0  0  0  0  0  0  0  0
  -17.0320  -28.2989  -24.3660 C   0  0  0  0  0  0  0  0  0  0  0  0
  -17.6136  -28.1454  -26.8046 C   0  0  0  0  0  0  0  0  0  0  0  0
  1  2  1  0  0  0
  1  9  1  0  0  0
  1 16  1  0  0  0
  2  3  1  0  0  0
  2  4  1  0  0  0
  4  5  1  0  0  0
  4  6  1  0  0  0
  6  7  1  0  0  0
  6  8  1  0  0  0
  8  9  1  0  0  0
  8 13  1  0  0  0
 13 14  1  0  0  0
 16 17  1  0  0  0
 17 18  1  0  0  0
 17 19  1  0  0  0
  3 10  1  0  0  0
  5 11  1  0  0  0
  7 12  1  0  0  0
 14 15  1  0  0  0
M  END
> <minimizedAffinity>
-6.81859

$$$$
3VD4_IPT_A_2001


 19 19  0  0  0  0  0  0  0  0999 V2000
  -15.7345  -27.8453  -26.2962 C   0  0  0  0  0  0  0  0  0  0  0  0
  -14.5691  -27.7566  -25.3050 C   0  0  0  0  0  0  0  0  0  0  0  0
  -14.8395  -26.7000  -24.3818 O   0  0  0  0  0  0  0  0  0  0  0  0
  -13.2404  -27.4771  -26.0179 C   0  0  0  0  0  0  0  0  0  0  0  0
  -12.1404  -27.6694  -25.1122 O   0  0  0  0  0  0  0  0  0  0  0  0
  -13.0436  -28.3491  -27.2660 C   0  0  0  0  0  0  0  0  0  0  0  0
  -12.7616  -29.6954  -26.8562 O   0  0  0  0  0  0  0  0  0  0  0  0
  -14.3072  -28.2958  -28.1353 C   0  0  0  0  0  0  0  0  0  0  0  0
  -15.4038  -28.7488  -27.3486 O   0  0  0  0  0  0  0  0  0  0  0  0
  -14.9169  -25.8616  -24.8635 H   0  0  0  0  0  0  0  0  0  0  0  0
  -12.1185  -28.5948  -24.8220 H   0  0  0  0  0  0  0  0  0  0  0  0
  -13.5022  -30.0350  -26.3299 H   0  0  0  0  0  0  0  0  0  0  0  0
  -14.2957  -29.1411  -29.4048 C   0  0  0  0  0  0  0  0  0  0  0  0
  -12.9596  -29.4531  -29.8192 O   0  0  0  0  0  0  0  0  0  0  0  0
  -12.4802  -28.6317  -30.0100 H   0  0  0  0  0  0  0  0  0  0  0  0
  -17.2140  -28.4511  -25.5433 S   0  0  0  0  0  0  0  0  0  0  0  0
  -18.4495  -27.1823  -25.6462 C   0  0  0  0  0  0  0  0  0  0  0  0
  -19.8435  -27.7727  -25.8716 C   0  0  0  0  0  0  0  0  0  0  0  0
  -18.4220  -26.3440  -24.3728 C   0  0  0  0  0  0  0  0  0  0  0  0
  1  2  1  0  0  0
  1  9  1  0  0  0
  1 16  1  0  0  0
  2  3  1  0  0  0
  2  4  1  0  0  0
  4  5  1  0  0  0
  4  6  1  0  0  0
  6  7  1  0  0  0
  6  8  1  0  0  0
  8  9  1  0  0  0
  8 13  1  0  0  0
 13 14  1  0  0  0
 16 17  1  0  0  0
 17 18  1  0  0  0
 17 19  1  0  0  0
  3 10  1  0  0  0
  5 11  1  0  0  0
  7 12  1  0  0  0
 14 15  1  0  0  0
M  END
> <minimizedAffinity>
-6.70975

$$$$
3VD4_IPT_A_2001


 19 19  0  0  0  0  0  0  0  0999 V2000
  -13.5386  -27.6769  -25.7701 C   0  0  0  0  0  0  0  0  0  0  0  0
  -13.8552  -27.8890  -27.2545 C   0  0  0  0  0  0  0  0  0  0  0  0
  -15.2023  -28.3518  -27.3684 O   0  0  0  0  0  0  0  0  0  0  0  0
  -12.9123  -28.9162  -27.8927 C   0  0  0  0  0  0  0  0  0  0  0  0
  -13.0481  -28.8936  -29.3239 O   0  0  0  0  0  0  0  0  0  0  0  0
  -11.4434  -28.6909  -27.5071 C   0  0  0  0  0  0  0  0  0  0  0  0
  -10.9529  -27.5292  -28.1923 O   0  0  0  0  0  0  0  0  0  0  0  0
  -11.3316  -28.5165  -25.9865 C   0  0  0  0  0  0  0  0  0  0  0  0
  -12.1469  -27.4127  -25.6076 O   0  0  0  0  0  0  0  0  0  0  0  0
  -15.2960  -29.1936  -26.8958 H   0  0  0  0  0  0  0  0  0  0  0  0
  -12.7880  -28.0215  -29.6596 H   0  0  0  0  0  0  0  0  0  0  0  0
  -11.4826  -26.7569  -27.9394 H   0  0  0  0  0  0  0  0  0  0  0  0
   -9.9363  -28.2450  -25.4337 C   0  0  0  0  0  0  0  0  0  0  0  0
   -9.4911  -29.3065  -24.5797 O   0  0  0  0  0  0  0  0  0  0  0  0
  -10.0944  -29.3886  -23.8245 H   0  0  0  0  0  0  0  0  0  0  0  0
  -14.4078  -26.2985  -25.0866 S   0  0  0  0  0  0  0  0  0  0  0  0
  -15.8088  -26.9144  -24.1897 C   0  0  0  0  0  0  0  0  0  0  0  0
  -15.9473  -26.2322  -22.8265 C   0  0  0  0  0  0  0  0  0  0  0  0
  -17.0712  -26.7123  -25.0209 C   0  0  0  0  0  0  0  0  0  0  0  0
  1  2  1  0  0  0
  1  9  1  0  0  0
  1 16  1  0  0  0
  2  3  1  0  0  0
  2  4  1  0  0  0
  4  5  1  0  0  0
  4  6  1  0  0  0
  6  7  1  0  0  0
  6  8  1  0  0  0
  8  9  1  0  0  0
  8 13  1  0  0  0
 13 14  1  0  0  0
 16 17  1  0  0  0
 17 18  1  0  0  0
 17 19  1  0  0  0
  3 10  1  0  0  0
  5 11  1  0  0  0
  7 12  1  0  0  0
 14 15  1  0  0  0
M  END
> <minimizedAffinity>
-6.60825

$$$$
3VD4_IPT_A_2001


 19 19  0  0  0  0  0  0  0  0999 V2000
  -16.1291  -27.9172  -27.3397 C   0  0  0  0  0  0  0  0  0  0  0  0
  -15.4176  -27.8816  -25.9827 C   0  0  0  0  0  0  0  0  0  0  0  0
  -15.9821  -26.8253  -25.2032 O   0  0  0  0  0  0  0  0  0  0  0  0
  -13.9109  -27.6438  -26.1403 C   0  0  0  0  0  0  0  0  0  0  0  0
  -13.2366  -27.8858  -24.8937 O   0  0  0  0  0  0  0  0  0  0  0  0
  -13.2873  -28.5095  -27.2442 C   0  0  0  0  0  0  0  0  0  0  0  0
  -13.2201  -29.8694  -26.7902 O   0  0  0  0  0  0  0  0  0  0  0  0
  -14.1311  -28.4008  -28.5215 C   0  0  0  0  0  0  0  0  0  0  0  0
  -15.4557  -28.8213  -28.2128 O   0  0  0  0  0  0  0  0  0  0  0  0
  -15.8481  -25.9798  -25.6593 H   0  0  0  0  0  0  0  0  0  0  0  0
  -13.3530  -28.8142  -24.6380 H   0  0  0  0  0  0  0  0  0  0  0  0
  -14.1139  -30.1870  -26.5871 H   0  0  0  0  0  0  0  0  0  0  0  0
  -13.6705  -29.2328  -29.7139 C   0  0  0  0  0  0  0  0  0  0  0  0
  -14.0889  -30.5987  -29.5977 O   0  0  0  0  0  0  0  0  0  0  0  0
  -13.6993  -30.9895  -28.8000 H   0  0  0  0  0  0  0  0  0  0  0  0
  -17.8004  -28.4759  -27.2091 S   0  0  0  0  0  0  0  0  0  0  0  0
  -17.9035  -29.6062  -25.8459 C   0  0  0  0  0  0  0  0  0  0  0  0
  -18.6211  -28.9784  -24.6486 C   0  0  0  0  0  0  0  0  0  0  0  0
  -18.6188  -30.8762  -26.2939 C   0  0  0  0  0  0  0  0  0  0  0  0
  1  2  1  0  0  0
  1  9  1  0  0  0
  1 16  1  0  0  0
  2  3  1  0  0  0
  2  4  1  0  0  0
  4  5  1  0  0  0
  4  6  1  0  0  0
  6  7  1  0  0  0
  6  8  1  0  0  0
  8  9  1  0  0  0
  8 13  1  0  0  0
 13 14  1  0  0  0
 16 17  1  0  0  0
 17 18  1  0  0  0
 17 19  1  0  0  0
  3 10  1  0  0  0
  5 11  1  0  0  0
  7 12  1  0  0  0
 14 15  1  0  0  0
M  END
> <minimizedAffinity>
-6.19028

$$$$
3VD4_IPT_A_2001


 19 19  0  0  0  0  0  0  0  0999 V2000
  -14.2106  -27.6496  -25.9796 C   0  0  0  0  0  0  0  0  0  0  0  0
  -15.4428  -28.3664  -26.5423 C   0  0  0  0  0  0  0  0  0  0  0  0
  -15.1941  -28.6857  -27.9127 O   0  0  0  0  0  0  0  0  0  0  0  0
  -16.6986  -27.4915  -26.4471 C   0  0  0  0  0  0  0  0  0  0  0  0
  -17.8722  -28.2751  -26.7223 O   0  0  0  0  0  0  0  0  0  0  0  0
  -16.8405  -26.8066  -25.0805 C   0  0  0  0  0  0  0  0  0  0  0  0
  -17.2160  -27.7876  -24.1025 O   0  0  0  0  0  0  0  0  0  0  0  0
  -15.5132  -26.1363  -24.7006 C   0  0  0  0  0  0  0  0  0  0  0  0
  -14.5023  -27.1385  -24.6808 O   0  0  0  0  0  0  0  0  0  0  0  0
  -15.0407  -27.8686  -28.4124 H   0  0  0  0  0  0  0  0  0  0  0  0
  -17.9597  -28.9722  -26.0535 H   0  0  0  0  0  0  0  0  0  0  0  0
  -16.5345  -28.4763  -24.0572 H   0  0  0  0  0  0  0  0  0  0  0  0
  -15.4677  -25.4365  -23.3462 C   0  0  0  0  0  0  0  0  0  0  0  0
  -15.3958  -26.3779  -22.2678 O   0  0  0  0  0  0  0  0  0  0  0  0
  -16.1840  -26.9431  -22.2790 H   0  0  0  0  0  0  0  0  0  0  0  0
  -12.8229  -28.7302  -25.8080 S   0  0  0  0  0  0  0  0  0  0  0  0
  -11.4170  -27.9526  -26.5599 C   0  0  0  0  0  0  0  0  0  0  0  0
  -10.1075  -28.6076  -26.1139 C   0  0  0  0  0  0  0  0  0  0  0  0
  -11.5564  -28.0121  -28.0773 C   0  0  0  0  0  0  0  0  0  0  0  0
  1  2  1  0  0  0
  1  9  1  0  0  0
  1 16  1  0  0  0
  2  3  1  0  0  0
  2  4  1  0  0  0
  4  5  1  0  0  0
  4  6  1  0  0  0
  6  7  1  0  0  0
  6  8  1  0  0  0
  8  9  1  0  0  0
  8 13  1  0  0  0
 13 14  1  0  0  0
 16 17  1  0  0  0
 17 18  1  0  0  0
 17 19  1  0  0  0
  3 10  1  0  0  0
  5 11  1  0  0  0
  7 12  1  0  0  0
 14 15  1  0  0  0
M  END
> <minimizedAffinity>
-6.00324

$$$$
3VD4_IPT_A_2001


 19 19  0  0  0  0  0  0  0  0999 V2000
  -14.5309  -27.0424  -25.2250 C   0  0  0  0  0  0  0  0  0  0  0  0
  -15.3788  -27.3577  -26.4621 C   0  0  0  0  0  0  0  0  0  0  0  0
  -16.7270  -27.5779  -26.0425 O   0  0  0  0  0  0  0  0  0  0  0  0
  -14.8678  -28.6039  -27.1953 C   0  0  0  0  0  0  0  0  0  0  0  0
  -15.4988  -28.7168  -28.4823 O   0  0  0  0  0  0  0  0  0  0  0  0
  -13.3419  -28.6076  -27.3632 C   0  0  0  0  0  0  0  0  0  0  0  0
  -12.9784  -27.6381  -28.3571 O   0  0  0  0  0  0  0  0  0  0  0  0
  -12.6755  -28.2877  -26.0182 C   0  0  0  0  0  0  0  0  0  0  0  0
  -13.1503  -27.0189  -25.5810 O   0  0  0  0  0  0  0  0  0  0  0  0
  -16.7566  -28.3306  -25.4314 H   0  0  0  0  0  0  0  0  0  0  0  0
  -15.2626  -27.9495  -29.0266 H   0  0  0  0  0  0  0  0  0  0  0  0
  -13.2772  -26.7591  -28.0759 H   0  0  0  0  0  0  0  0  0  0  0  0
  -11.1521  -28.2143  -26.0143 C   0  0  0  0  0  0  0  0  0  0  0  0
  -10.6653  -27.2956  -27.0009 O   0  0  0  0  0  0  0  0  0  0  0  0
  -10.9419  -27.5912  -27.8823 H   0  0  0  0  0  0  0  0  0  0  0  0
  -14.9114  -25.4615  -24.5331 S   0  0  0  0  0  0  0  0  0  0  0  0
  -15.3917  -25.6963  -22.8418 C   0  0  0  0  0  0  0  0  0  0  0  0
  -15.4350  -24.3690  -22.0807 C   0  0  0  0  0  0  0  0  0  0  0  0
  -16.7502  -26.3871  -22.7922 C   0  0  0  0  0  0  0  0  0  0  0  0
  1  2  1  0  0  0
  1  9  1  0  0  0
  1 16  1  0  0  0
  2  3  1  0  0  0
  2  4  1  0  0  0
  4  5  1  0  0  0
  4  6  1  0  0  0
  6  7  1  0  0  0
  6  8  1  0  0  0
  8  9  1  0  0  0
  8 13  1  0  0  0
 13 14  1  0  0  0
 16 17  1  0  0  0
 17 18  1  0  0  0
 17 19  1  0  0  0
  3 10  1  0  0  0
  5 11  1  0  0  0
  7 12  1  0  0  0
 14 15  1  0  0  0
M  END
> <minimizedAffinity>
-5.87536

$$$$
3VD4_IPT_A_2001


 19 19  0  0  0  0  0  0  0  0999 V2000
  -16.4897  -27.6580  -26.3592 C   0  0  0  0  0  0  0  0  0  0  0  0
  -16.1149  -26.9428  -25.0566 C   0  0  0  0  0  0  0  0  0  0  0  0
  -17.1112  -25.9568  -24.7789 O   0  0  0  0  0  0  0  0  0  0  0  0
  -14.7447  -26.2619  -25.1594 C   0  0  0  0  0  0  0  0  0  0  0  0
  -14.3009  -25.8396  -23.8586 O   0  0  0  0  0  0  0  0  0  0  0  0
  -13.6822  -27.1642  -25.8026 C   0  0  0  0  0  0  0  0  0  0  0  0
  -13.3156  -28.1924  -24.8710 O   0  0  0  0  0  0  0  0  0  0  0  0
  -14.2390  -27.7725  -27.0969 C   0  0  0  0  0  0  0  0  0  0  0  0
  -15.4169  -28.5025  -26.7706 O   0  0  0  0  0  0  0  0  0  0  0  0
  -17.1392  -25.3124  -25.5035 H   0  0  0  0  0  0  0  0  0  0  0  0
  -14.1910  -26.6154  -23.2868 H   0  0  0  0  0  0  0  0  0  0  0  0
  -14.0994  -28.7166  -24.6430 H   0  0  0  0  0  0  0  0  0  0  0  0
  -13.3203  -28.7301  -27.8487 C   0  0  0  0  0  0  0  0  0  0  0  0
  -14.0616  -29.6158  -28.6974 O   0  0  0  0  0  0  0  0  0  0  0  0
  -14.6644  -30.1512  -28.1581 H   0  0  0  0  0  0  0  0  0  0  0  0
  -17.9143  -28.6874  -26.1762 S   0  0  0  0  0  0  0  0  0  0  0  0
  -17.9760  -29.8010  -27.5557 C   0  0  0  0  0  0  0  0  0  0  0  0
  -19.1515  -30.7743  -27.4397 C   0  0  0  0  0  0  0  0  0  0  0  0
  -18.0693  -28.9997  -28.8497 C   0  0  0  0  0  0  0  0  0  0  0  0
  1  2  1  0  0  0
  1  9  1  0  0  0
  1 16  1  0  0  0
  2  3  1  0  0  0
  2  4  1  0  0  0
  4  5  1  0  0  0
  4  6  1  0  0  0
  6  7  1  0  0  0
  6  8  1  0  0  0
  8  9  1  0  0  0
  8 13  1  0  0  0
 13 14  1  0  0  0
 16 17  1  0  0  0
 17 18  1  0  0  0
 17 19  1  0  0  0
  3 10  1  0  0  0
  5 11  1  0  0  0
  7 12  1  0  0  0
 14 15  1  0  0  0
M  END
> <minimizedAffinity>
-5.71144

$$$$
3VD4_IPT_A_2001


 19 19  0  0  0  0  0  0  0  0999 V2000
  -16.8509  -26.8839  -24.4132 C   0  0  0  0  0  0  0  0  0  0  0  0
  -15.3424  -26.9172  -24.1450 C   0  0  0  0  0  0  0  0  0  0  0  0
  -14.9965  -25.7729  -23.3621 O   0  0  0  0  0  0  0  0  0  0  0  0
  -14.5356  -26.8998  -25.4491 C   0  0  0  0  0  0  0  0  0  0  0  0
  -13.1559  -27.2051  -25.1839 O   0  0  0  0  0  0  0  0  0  0  0  0
  -15.0894  -27.8717  -26.5005 C   0  0  0  0  0  0  0  0  0  0  0  0
  -14.7817  -29.2160  -26.1029 O   0  0  0  0  0  0  0  0  0  0  0  0
  -16.6055  -27.6749  -26.6351 C   0  0  0  0  0  0  0  0  0  0  0  0
  -17.1943  -27.8953  -25.3579 O   0  0  0  0  0  0  0  0  0  0  0  0
  -15.2185  -24.9662  -23.8528 H   0  0  0  0  0  0  0  0  0  0  0  0
  -13.0874  -28.1011  -24.8188 H   0  0  0  0  0  0  0  0  0  0  0  0
  -15.1855  -29.3983  -25.2400 H   0  0  0  0  0  0  0  0  0  0  0  0
  -17.3260  -28.5924  -27.6176 C   0  0  0  0  0  0  0  0  0  0  0  0
  -16.4472  -29.0519  -28.6525 O   0  0  0  0  0  0  0  0  0  0  0  0
  -16.1124  -28.2917  -29.1534 H   0  0  0  0  0  0  0  0  0  0  0  0
  -17.8008  -27.1960  -22.9562 S   0  0  0  0  0  0  0  0  0  0  0  0
  -18.3799  -25.6419  -22.3270 C   0  0  0  0  0  0  0  0  0  0  0  0
  -18.3748  -24.5603  -23.4100 C   0  0  0  0  0  0  0  0  0  0  0  0
  -19.7813  -25.8185  -21.7525 C   0  0  0  0  0  0  0  0  0  0  0  0
  1  2  1  0  0  0
  1  9  1  0  0  0
  1 16  1  0  0  0
  2  3  1  0  0  0
  2  4  1  0  0  0
  4  5  1  0  0  0
  4  6  1  0  0  0
  6  7  1  0  0  0
  6  8  1  0  0  0
  8  9  1  0  0  0
  8 13  1  0  0  0
 13 14  1  0  0  0
 16 17  1  0  0  0
 17 18  1  0  0  0
 17 19  1  0  0  0
  3 10  1  0  0  0
  5 11  1  0  0  0
  7 12  1  0  0  0
 14 15  1  0  0  0
M  END
> <minimizedAffinity>
-5.42678

$$$$
3VD4_IPT_A_2001


 19 19  0  0  0  0  0  0  0  0999 V2000
  -13.8340  -27.7312  -27.6881 C   0  0  0  0  0  0  0  0  0  0  0  0
  -14.6978  -28.7577  -28.4291 C   0  0  0  0  0  0  0  0  0  0  0  0
  -14.4020  -28.6748  -29.8247 O   0  0  0  0  0  0  0  0  0  0  0  0
  -16.1938  -28.4989  -28.2133 C   0  0  0  0  0  0  0  0  0  0  0  0
  -16.9645  -29.6180  -28.6835 O   0  0  0  0  0  0  0  0  0  0  0  0
  -16.5389  -28.2112  -26.7453 C   0  0  0  0  0  0  0  0  0  0  0  0
  -16.4454  -29.4312  -25.9951 O   0  0  0  0  0  0  0  0  0  0  0  0
  -15.5775  -27.1523  -26.1888 C   0  0  0  0  0  0  0  0  0  0  0  0
  -14.2493  -27.6458  -26.3267 O   0  0  0  0  0  0  0  0  0  0  0  0
  -14.6120  -27.7844  -30.1474 H   0  0  0  0  0  0  0  0  0  0  0  0
  -16.7351  -30.4076  -28.1690 H   0  0  0  0  0  0  0  0  0  0  0  0
  -15.5433  -29.7819  -26.0593 H   0  0  0  0  0  0  0  0  0  0  0  0
  -15.7577  -26.7734  -24.7225 C   0  0  0  0  0  0  0  0  0  0  0  0
  -14.4977  -26.5587  -24.0741 O   0  0  0  0  0  0  0  0  0  0  0  0
  -13.9756  -27.3756  -24.1034 H   0  0  0  0  0  0  0  0  0  0  0  0
  -12.1231  -28.1731  -27.6779 S   0  0  0  0  0  0  0  0  0  0  0  0
  -11.6315  -28.4527  -25.9966 C   0  0  0  0  0  0  0  0  0  0  0  0
  -12.3060  -29.6970  -25.4137 C   0  0  0  0  0  0  0  0  0  0  0  0
  -10.1139  -28.5838  -25.9276 C   0  0  0  0  0  0  0  0  0  0  0  0
  1  2  1  0  0  0
  1  9  1  0  0  0
  1 16  1  0  0  0
  2  3  1  0  0  0
  2  4  1  0  0  0
  4  5  1  0  0  0
  4  6  1  0  0  0
  6  7  1  0  0  0
  6  8  1  0  0  0
  8  9  1  0  0  0
  8 13  1  0  0  0
 13 14  1  0  0  0
 16 17  1  0  0  0
 17 18  1  0  0  0
 17 19  1  0  0  0
  3 10  1  0  0  0
  5 11  1  0  0  0
  7 12  1  0  0  0
 14 15  1  0  0  0
M  END
> <minimizedAffinity>
-5.38258

$$$$
