5J27_6FF_A_301
  RCSB PDB12061718173D
Coordinates from PDB:5J27:A:301 Model:1 without hydrogens
 29 31  0  0  0  0            999 V2000
   -0.0300   32.1400   25.6650   C 0  0  0  0  0  0  0  0  0  0  0  0
   -1.2670   32.3590   25.0200   C 0  0  0  0  0  0  0  0  0  0  0  0
   -1.2890   33.0820   23.8290   C 0  0  0  0  0  0  0  0  0  0  0  0
   -0.1250   34.5120   22.1330   C 0  0  0  0  0  0  0  0  0  0  0  0
    0.2430   36.2620   20.8280   C 0  0  0  0  0  0  0  0  0  0  0  0
    1.1710   36.4400   23.0940   C 0  0  0  0  0  0  0  0  0  0  0  0
    2.5470   36.6260   22.9550   C 0  0  0  0  0  0  0  0  0  0  0  0
    3.2800   37.2980   23.9500   C 0  0  0  0  0  0  0  0  0  0  0  0
    0.5100   36.9670   24.2170   C 0  0  0  0  0  0  0  0  0  0  0  0
    6.0810   29.8770   23.0000   C 0  0  0  0  0  0  0  0  0  0  0  0
   -0.1040   33.6540   23.3310   C 0  0  0  0  0  0  0  0  0  0  0  0
    1.1170   33.4000   23.9570   C 0  0  0  0  0  0  0  0  0  0  0  0
    1.1540   32.7320   25.1710   C 0  0  0  0  0  0  0  0  0  0  0  0
   -0.0150   31.4360   26.8220   O 0  0  0  0  0  0  0  0  0  0  0  0
   -2.4500   33.2770   23.1520   O 0  0  0  0  0  0  0  0  0  0  0  0
   -0.7270   34.2500   20.9940   N 0  0  0  0  0  0  0  0  0  0  0  0
   -0.4830   35.3420   20.1510   N 0  0  0  0  0  0  0  0  0  0  0  0
    0.4650   35.7710   22.0690   N 0  0  0  0  0  0  0  0  0  0  0  0
    2.6150   37.7990   25.0690   C 0  0  0  0  0  0  0  0  0  0  0  0
    1.2400   37.6290   25.2070   C 0  0  0  0  0  0  0  0  0  0  0  0
    0.6300   37.3490   20.4100   O 0  0  0  0  0  0  0  0  0  0  0  0
    2.7570   32.4630   25.8940   S 0  0  0  0  0  0  0  0  0  0  0  0
    3.6420   33.4630   25.3670   O 0  0  0  0  0  0  0  0  0  0  0  0
    2.5060   32.3690   27.2960   O 0  0  0  0  0  0  0  0  0  0  0  0
    3.1750   30.9950   25.2380   N 0  0  0  0  0  0  0  0  0  0  0  0
    4.1100   30.9340   24.0970   C 0  0  0  0  0  0  0  0  0  0  0  0
    5.3150   29.9990   24.3180   C 0  0  0  0  0  0  0  0  0  0  0  0
    2.4640   29.7790   25.6750   C 0  0  0  0  0  0  0  0  0  0  0  0
    3.1460   36.1130   21.8630   F 0  0  0  0  0  0  0  0  0  0  0  0
 17  5  1  0  0  0  0
 17 16  1  0  0  0  0
 21  5  2  0  0  0  0
  5 18  1  0  0  0  0
 16  4  2  0  0  0  0
 29  7  1  0  0  0  0
 18  4  1  0  0  0  0
 18  6  1  0  0  0  0
  4 11  1  0  0  0  0
  7  6  2  0  0  0  0
  7  8  1  0  0  0  0
 10 27  1  0  0  0  0
  6  9  1  0  0  0  0
 15  3  1  0  0  0  0
 11  3  2  0  0  0  0
 11 12  1  0  0  0  0
  3  2  1  0  0  0  0
  8 19  2  0  0  0  0
 12 13  2  0  0  0  0
 26 27  1  0  0  0  0
 26 25  1  0  0  0  0
  9 20  2  0  0  0  0
  2  1  2  0  0  0  0
 19 20  1  0  0  0  0
 13  1  1  0  0  0  0
 13 22  1  0  0  0  0
 25 28  1  0  0  0  0
 25 22  1  0  0  0  0
 23 22  2  0  0  0  0
  1 14  1  0  0  0  0
 22 24  2  0  0  0  0
A    1
C1
A    2
C2
A    3
C3
A    4
C9
A    5
C12
A    6
C14
A    7
C15
A    8
C16
A    9
C19
A   10
C27
A   11
C4
A   12
C5
A   13
C6
A   14
O7
A   15
O8
A   16
N10
A   17
N11
A   18
N13
A   19
C17
A   20
C18
A   21
O20
A   22
S21
A   23
O22
A   24
O23
A   25
N24
A   26
C25
A   27
C26
A   28
C28
A   29
F29
M  END
>  <InstanceId>
5J27_6FF_A_301

>  <ChemCompId>
6FF

>  <PdbId>
5J27

>  <ChainId>
A

>  <ResidueNumber>
301

>  <InsertionCode>


>  <Model>
1

>  <AltIds>


>  <MissingHeavyAtoms>
0

>  <ObservedFormula>
C18 N4 O5 S F

>  <Name>
5-[4-(2-fluorophenyl)-5-oxo-4,5-dihydro-1H-1,2,4-triazol-3-yl]-2,4-dihydroxy-N-methyl-N-propylbenzene-1-sulfonamide

>  <SystematicName>
5-[4-(2-fluorophenyl)-5-oxidanylidene-1~{H}-1,2,4-triazol-3-yl]-~{N}-methyl-2,4-bis(oxidanyl)-~{N}-propyl-benzenesulfonamide

>  <Synonyms>


>  <Type>
NON-POLYMER

>  <Formula>
C18 H19 F N4 O5 S

>  <MolecularWeight>
422.431

>  <ModifiedDate>
2017-12-01

>  <Parent>


>  <OneLetterCode>


>  <SubcomponentList>


>  <AmbiguousFlag>
N

>  <InChI>
InChI=1S/C18H19FN4O5S/c1-3-8-22(2)29(27,28)16-9-11(14(24)10-15(16)25)17-20-21-18(26)23(17)13-7-5-4-6-12(13)19/h4-7,9-10,24-25H,3,8H2,1-2H3,(H,21,26)

>  <InChIKey>
NSUUJCLUFLXEHL-UHFFFAOYSA-N

>  <SMILES>
CCCN(C)S(=O)(=O)c1cc(c(cc1O)O)C2=NNC(=O)N2c3ccccc3F

$$$$
