5J27_6FF_A_301


 32 34  0  0  0  0  0  0  0  0999 V2000
   -0.0728   32.0964   25.7113 C   0  0  0  0  0  0  0  0  0  0  0  0
   -1.2708   32.3002   24.9920 C   0  0  0  0  0  0  0  0  0  0  0  0
   -1.2321   33.0379   23.8105 C   0  0  0  0  0  0  0  0  0  0  0  0
   -0.0297   33.6386   23.3950 C   0  0  0  0  0  0  0  0  0  0  0  0
    1.1543   33.3998   24.0939 C   0  0  0  0  0  0  0  0  0  0  0  0
    1.1281   32.7171   25.2999 C   0  0  0  0  0  0  0  0  0  0  0  0
   -0.1167   31.3781   26.8586 O   0  0  0  0  0  0  0  0  0  0  0  0
   -2.3519   33.2195   23.0639 O   0  0  0  0  0  0  0  0  0  0  0  0
   -0.9166   30.9693   27.1251 H   0  0  0  0  0  0  0  0  0  0  0  0
   -2.3109   33.7180   22.2715 H   0  0  0  0  0  0  0  0  0  0  0  0
    0.0078   34.5114   22.2081 C   0  0  0  0  0  0  0  0  0  0  0  0
    0.4105   36.2899   20.9529 C   0  0  0  0  0  0  0  0  0  0  0  0
   -0.5001   34.2449   21.0252 N   0  0  0  0  0  0  0  0  0  0  0  0
   -0.2324   35.3555   20.2143 N   0  0  0  0  0  0  0  0  0  0  0  0
    0.5578   35.7900   22.2014 N   0  0  0  0  0  0  0  0  0  0  0  0
    0.7899   37.3946   20.5763 O   0  0  0  0  0  0  0  0  0  0  0  0
   -0.4725   35.4421   19.2635 H   0  0  0  0  0  0  0  0  0  0  0  0
    1.1639   36.4682   23.2827 C   0  0  0  0  0  0  0  0  0  0  0  0
    2.5517   36.4163   23.4191 C   0  0  0  0  0  0  0  0  0  0  0  0
    3.1901   37.0893   24.4767 C   0  0  0  0  0  0  0  0  0  0  0  0
    0.4066   37.2346   24.1854 C   0  0  0  0  0  0  0  0  0  0  0  0
    2.4250   37.8304   25.3771 C   0  0  0  0  0  0  0  0  0  0  0  0
    1.0413   37.8977   25.2384 C   0  0  0  0  0  0  0  0  0  0  0  0
    3.2457   35.6773   22.5322 F   0  0  0  0  0  0  0  0  0  0  0  0
    2.6874   32.4693   26.1195 S   0  0  0  0  0  0  0  0  0  0  0  0
    3.5027   33.6207   25.8543 O   0  0  0  0  0  0  0  0  0  0  0  0
    2.3363   32.1094   27.4554 O   0  0  0  0  0  0  0  0  0  0  0  0
    3.3071   31.1818   25.2718 N   0  0  0  0  0  0  0  0  0  0  0  0
    2.4736   29.9825   25.0669 C   0  0  0  0  0  0  0  0  0  0  0  0
    4.6001   31.3112   24.5709 C   0  0  0  0  0  0  0  0  0  0  0  0
    5.9465   29.2849   24.0357 C   0  0  0  0  0  0  0  0  0  0  0  0
    4.8559   30.2206   23.5125 C   0  0  0  0  0  0  0  0  0  0  0  0
 14 12  1  0  0  0
 14 13  1  0  0  0
 16 12  2  0  0  0
 12 15  1  0  0  0
 13 11  2  0  0  0
 24 19  1  0  0  0
 15 11  1  0  0  0
 15 18  1  0  0  0
 11  4  1  0  0  0
 19 18  2  0  0  0
 19 20  1  0  0  0
 31 32  1  0  0  0
 18 21  1  0  0  0
  8  3  1  0  0  0
  4  3  2  0  0  0
  4  5  1  0  0  0
  3  2  1  0  0  0
 20 22  2  0  0  0
  5  6  2  0  0  0
 30 32  1  0  0  0
 30 28  1  0  0  0
 21 23  2  0  0  0
  2  1  2  0  0  0
 22 23  1  0  0  0
  6  1  1  0  0  0
  6 25  1  0  0  0
 28 29  1  0  0  0
 28 25  1  0  0  0
 26 25  2  0  0  0
  1  7  1  0  0  0
 25 27  2  0  0  0
  7  9  1  0  0  0
  8 10  1  0  0  0
 14 17  1  0  0  0
M  END
> <minimizedAffinity>
-9.98614

$$$$
5J27_6FF_A_301


 32 34  0  0  0  0  0  0  0  0999 V2000
    2.4063   37.7712   25.9929 C   0  0  0  0  0  0  0  0  0  0  0  0
    1.2622   38.3505   25.4017 C   0  0  0  0  0  0  0  0  0  0  0  0
    0.6393   37.6886   24.3455 C   0  0  0  0  0  0  0  0  0  0  0  0
    1.1995   36.5066   23.8274 C   0  0  0  0  0  0  0  0  0  0  0  0
    2.3085   35.9249   24.4431 C   0  0  0  0  0  0  0  0  0  0  0  0
    2.9755   36.5942   25.4573 C   0  0  0  0  0  0  0  0  0  0  0  0
    3.0070   38.4190   27.0196 O   0  0  0  0  0  0  0  0  0  0  0  0
   -0.4893   38.1868   23.7779 O   0  0  0  0  0  0  0  0  0  0  0  0
    2.6237   39.1991   27.3698 H   0  0  0  0  0  0  0  0  0  0  0  0
   -0.8974   37.7309   23.0682 H   0  0  0  0  0  0  0  0  0  0  0  0
    0.6178   35.8513   22.6425 C   0  0  0  0  0  0  0  0  0  0  0  0
   -0.3107   34.2833   21.3855 C   0  0  0  0  0  0  0  0  0  0  0  0
    0.5094   36.3668   21.4380 N   0  0  0  0  0  0  0  0  0  0  0  0
   -0.0973   35.3906   20.6371 N   0  0  0  0  0  0  0  0  0  0  0  0
    0.1401   34.5440   22.6342 N   0  0  0  0  0  0  0  0  0  0  0  0
   -0.8125   33.2271   21.0131 O   0  0  0  0  0  0  0  0  0  0  0  0
   -0.3303   35.4932   19.6861 H   0  0  0  0  0  0  0  0  0  0  0  0
    0.1177   33.6325   23.7137 C   0  0  0  0  0  0  0  0  0  0  0  0
   -1.0886   33.3999   24.3755 C   0  0  0  0  0  0  0  0  0  0  0  0
   -1.1505   32.4903   25.4468 C   0  0  0  0  0  0  0  0  0  0  0  0
    1.2670   32.9189   24.0956 C   0  0  0  0  0  0  0  0  0  0  0  0
    0.0016   31.8031   25.8285 C   0  0  0  0  0  0  0  0  0  0  0  0
    1.2053   32.0203   25.1633 C   0  0  0  0  0  0  0  0  0  0  0  0
   -2.1707   34.0969   23.9785 F   0  0  0  0  0  0  0  0  0  0  0  0
    4.3823   35.7745   26.1740 S   0  0  0  0  0  0  0  0  0  0  0  0
    4.6365   36.3866   27.4475 O   0  0  0  0  0  0  0  0  0  0  0  0
    4.0751   34.3841   26.0751 O   0  0  0  0  0  0  0  0  0  0  0  0
    5.5941   36.2189   25.1279 N   0  0  0  0  0  0  0  0  0  0  0  0
    5.7723   37.6437   24.7913 C   0  0  0  0  0  0  0  0  0  0  0  0
    6.5966   35.2262   24.6929 C   0  0  0  0  0  0  0  0  0  0  0  0
    7.6356   33.2719   25.8360 C   0  0  0  0  0  0  0  0  0  0  0  0
    7.5830   34.7998   25.7976 C   0  0  0  0  0  0  0  0  0  0  0  0
 14 12  1  0  0  0
 14 13  1  0  0  0
 16 12  2  0  0  0
 12 15  1  0  0  0
 13 11  2  0  0  0
 24 19  1  0  0  0
 15 11  1  0  0  0
 15 18  1  0  0  0
 11  4  1  0  0  0
 19 18  2  0  0  0
 19 20  1  0  0  0
 31 32  1  0  0  0
 18 21  1  0  0  0
  8  3  1  0  0  0
  4  3  2  0  0  0
  4  5  1  0  0  0
  3  2  1  0  0  0
 20 22  2  0  0  0
  5  6  2  0  0  0
 30 32  1  0  0  0
 30 28  1  0  0  0
 21 23  2  0  0  0
  2  1  2  0  0  0
 22 23  1  0  0  0
  6  1  1  0  0  0
  6 25  1  0  0  0
 28 29  1  0  0  0
 28 25  1  0  0  0
 26 25  2  0  0  0
  1  7  1  0  0  0
 25 27  2  0  0  0
  7  9  1  0  0  0
  8 10  1  0  0  0
 14 17  1  0  0  0
M  END
> <minimizedAffinity>
-9.17669

$$$$
5J27_6FF_A_301


 32 34  0  0  0  0  0  0  0  0999 V2000
    0.9239   35.8360   22.0548 C   0  0  0  0  0  0  0  0  0  0  0  0
    0.1196   34.7447   21.6596 C   0  0  0  0  0  0  0  0  0  0  0  0
   -0.3962   33.8967   22.6377 C   0  0  0  0  0  0  0  0  0  0  0  0
   -0.0445   34.0829   23.9871 C   0  0  0  0  0  0  0  0  0  0  0  0
    0.7206   35.1855   24.3691 C   0  0  0  0  0  0  0  0  0  0  0  0
    1.2892   36.0077   23.4089 C   0  0  0  0  0  0  0  0  0  0  0  0
    1.4218   36.6571   21.0996 O   0  0  0  0  0  0  0  0  0  0  0  0
   -1.2112   32.8624   22.3057 O   0  0  0  0  0  0  0  0  0  0  0  0
    1.1750   36.5373   20.2037 H   0  0  0  0  0  0  0  0  0  0  0  0
   -1.5507   32.3003   22.9741 H   0  0  0  0  0  0  0  0  0  0  0  0
   -0.4913   33.1334   25.0219 C   0  0  0  0  0  0  0  0  0  0  0  0
   -0.3986   31.5271   26.5424 C   0  0  0  0  0  0  0  0  0  0  0  0
   -1.7242   32.9598   25.4439 N   0  0  0  0  0  0  0  0  0  0  0  0
   -1.6756   31.9593   26.4234 N   0  0  0  0  0  0  0  0  0  0  0  0
    0.3530   32.2355   25.6686 N   0  0  0  0  0  0  0  0  0  0  0  0
    0.0160   30.6501   27.2942 O   0  0  0  0  0  0  0  0  0  0  0  0
   -2.4442   31.6255   26.9402 H   0  0  0  0  0  0  0  0  0  0  0  0
    1.7422   32.0698   25.4700 C   0  0  0  0  0  0  0  0  0  0  0  0
    2.1891   31.0113   24.6782 C   0  0  0  0  0  0  0  0  0  0  0  0
    3.5643   30.8229   24.4493 C   0  0  0  0  0  0  0  0  0  0  0  0
    2.6733   32.9767   26.0052 C   0  0  0  0  0  0  0  0  0  0  0  0
    4.4791   31.7187   25.0024 C   0  0  0  0  0  0  0  0  0  0  0  0
    4.0388   32.7851   25.7819 C   0  0  0  0  0  0  0  0  0  0  0  0
    1.2683   30.1657   24.1767 F   0  0  0  0  0  0  0  0  0  0  0  0
    2.2540   37.3828   23.9945 S   0  0  0  0  0  0  0  0  0  0  0  0
    2.7955   38.0513   22.8453 O   0  0  0  0  0  0  0  0  0  0  0  0
    1.3895   38.0656   24.9023 O   0  0  0  0  0  0  0  0  0  0  0  0
    3.4940   36.6069   24.7822 N   0  0  0  0  0  0  0  0  0  0  0  0
    4.3869   35.7133   24.0212 C   0  0  0  0  0  0  0  0  0  0  0  0
    3.8146   36.9552   26.1807 C   0  0  0  0  0  0  0  0  0  0  0  0
    5.4955   35.7797   27.5943 C   0  0  0  0  0  0  0  0  0  0  0  0
    5.3133   36.8597   26.5270 C   0  0  0  0  0  0  0  0  0  0  0  0
 14 12  1  0  0  0
 14 13  1  0  0  0
 16 12  2  0  0  0
 12 15  1  0  0  0
 13 11  2  0  0  0
 24 19  1  0  0  0
 15 11  1  0  0  0
 15 18  1  0  0  0
 11  4  1  0  0  0
 19 18  2  0  0  0
 19 20  1  0  0  0
 31 32  1  0  0  0
 18 21  1  0  0  0
  8  3  1  0  0  0
  4  3  2  0  0  0
  4  5  1  0  0  0
  3  2  1  0  0  0
 20 22  2  0  0  0
  5  6  2  0  0  0
 30 32  1  0  0  0
 30 28  1  0  0  0
 21 23  2  0  0  0
  2  1  2  0  0  0
 22 23  1  0  0  0
  6  1  1  0  0  0
  6 25  1  0  0  0
 28 29  1  0  0  0
 28 25  1  0  0  0
 26 25  2  0  0  0
  1  7  1  0  0  0
 25 27  2  0  0  0
  7  9  1  0  0  0
  8 10  1  0  0  0
 14 17  1  0  0  0
M  END
> <minimizedAffinity>
-8.92611

$$$$
5J27_6FF_A_301


 32 34  0  0  0  0  0  0  0  0999 V2000
   -0.2834   31.7459   25.9351 C   0  0  0  0  0  0  0  0  0  0  0  0
   -1.3880   32.5693   25.6251 C   0  0  0  0  0  0  0  0  0  0  0  0
   -1.3943   33.2644   24.4173 C   0  0  0  0  0  0  0  0  0  0  0  0
   -0.2749   33.2077   23.5669 C   0  0  0  0  0  0  0  0  0  0  0  0
    0.7942   32.3623   23.8665 C   0  0  0  0  0  0  0  0  0  0  0  0
    0.8458   31.7069   25.0868 C   0  0  0  0  0  0  0  0  0  0  0  0
   -0.2834   31.0723   27.1102 O   0  0  0  0  0  0  0  0  0  0  0  0
   -2.4561   34.0313   24.0587 O   0  0  0  0  0  0  0  0  0  0  0  0
   -1.0359   31.1028   27.6677 H   0  0  0  0  0  0  0  0  0  0  0  0
   -2.4464   34.4931   23.2435 H   0  0  0  0  0  0  0  0  0  0  0  0
   -0.2176   34.0202   22.3388 C   0  0  0  0  0  0  0  0  0  0  0  0
    0.3424   35.6592   20.9601 C   0  0  0  0  0  0  0  0  0  0  0  0
   -0.8856   33.8052   21.2271 N   0  0  0  0  0  0  0  0  0  0  0  0
   -0.5228   34.8251   20.3377 N   0  0  0  0  0  0  0  0  0  0  0  0
    0.5353   35.1840   22.2120 N   0  0  0  0  0  0  0  0  0  0  0  0
    0.8597   36.6687   20.4915 O   0  0  0  0  0  0  0  0  0  0  0  0
   -0.8444   34.9194   19.4120 H   0  0  0  0  0  0  0  0  0  0  0  0
    1.3578   35.7839   23.1919 C   0  0  0  0  0  0  0  0  0  0  0  0
    0.7887   36.6896   24.0881 C   0  0  0  0  0  0  0  0  0  0  0  0
    1.5748   37.2971   25.0840 C   0  0  0  0  0  0  0  0  0  0  0  0
    2.7167   35.4467   23.3160 C   0  0  0  0  0  0  0  0  0  0  0  0
    2.9266   36.9684   25.1840 C   0  0  0  0  0  0  0  0  0  0  0  0
    3.4974   36.0549   24.3018 C   0  0  0  0  0  0  0  0  0  0  0  0
   -0.5177   36.9843   23.9432 F   0  0  0  0  0  0  0  0  0  0  0  0
    2.2525   30.6578   25.3789 S   0  0  0  0  0  0  0  0  0  0  0  0
    2.1489   30.1601   26.7215 O   0  0  0  0  0  0  0  0  0  0  0  0
    2.2717   29.7664   24.2642 O   0  0  0  0  0  0  0  0  0  0  0  0
    3.5009   31.7524   25.3206 N   0  0  0  0  0  0  0  0  0  0  0  0
    3.4111   32.9943   26.1111 C   0  0  0  0  0  0  0  0  0  0  0  0
    4.7628   31.3997   24.6402 C   0  0  0  0  0  0  0  0  0  0  0  0
    7.2382   31.6414   24.5010 C   0  0  0  0  0  0  0  0  0  0  0  0
    5.9577   32.2944   25.0233 C   0  0  0  0  0  0  0  0  0  0  0  0
 14 12  1  0  0  0
 14 13  1  0  0  0
 16 12  2  0  0  0
 12 15  1  0  0  0
 13 11  2  0  0  0
 24 19  1  0  0  0
 15 11  1  0  0  0
 15 18  1  0  0  0
 11  4  1  0  0  0
 19 18  2  0  0  0
 19 20  1  0  0  0
 31 32  1  0  0  0
 18 21  1  0  0  0
  8  3  1  0  0  0
  4  3  2  0  0  0
  4  5  1  0  0  0
  3  2  1  0  0  0
 20 22  2  0  0  0
  5  6  2  0  0  0
 30 32  1  0  0  0
 30 28  1  0  0  0
 21 23  2  0  0  0
  2  1  2  0  0  0
 22 23  1  0  0  0
  6  1  1  0  0  0
  6 25  1  0  0  0
 28 29  1  0  0  0
 28 25  1  0  0  0
 26 25  2  0  0  0
  1  7  1  0  0  0
 25 27  2  0  0  0
  7  9  1  0  0  0
  8 10  1  0  0  0
 14 17  1  0  0  0
M  END
> <minimizedAffinity>
-8.92540

$$$$
5J27_6FF_A_301


 32 34  0  0  0  0  0  0  0  0999 V2000
    1.3027   37.1082   24.3620 C   0  0  0  0  0  0  0  0  0  0  0  0
    2.0261   37.2563   25.5657 C   0  0  0  0  0  0  0  0  0  0  0  0
    3.2910   36.6808   25.6686 C   0  0  0  0  0  0  0  0  0  0  0  0
    3.7938   35.8938   24.6164 C   0  0  0  0  0  0  0  0  0  0  0  0
    3.0860   35.7852   23.4187 C   0  0  0  0  0  0  0  0  0  0  0  0
    1.8039   36.3018   23.3157 C   0  0  0  0  0  0  0  0  0  0  0  0
    0.0741   37.6704   24.2678 O   0  0  0  0  0  0  0  0  0  0  0  0
    4.0399   36.8370   26.7907 O   0  0  0  0  0  0  0  0  0  0  0  0
   -0.2517   38.2041   24.9657 H   0  0  0  0  0  0  0  0  0  0  0  0
    4.8888   36.4442   26.8458 H   0  0  0  0  0  0  0  0  0  0  0  0
    5.0808   35.1883   24.7493 C   0  0  0  0  0  0  0  0  0  0  0  0
    6.5160   33.5338   25.0716 C   0  0  0  0  0  0  0  0  0  0  0  0
    6.2782   35.7280   24.6902 N   0  0  0  0  0  0  0  0  0  0  0  0
    7.1970   34.6861   24.8714 N   0  0  0  0  0  0  0  0  0  0  0  0
    5.1964   33.8266   25.0134 N   0  0  0  0  0  0  0  0  0  0  0  0
    6.9926   32.4217   25.2769 O   0  0  0  0  0  0  0  0  0  0  0  0
    8.1772   34.7772   24.8557 H   0  0  0  0  0  0  0  0  0  0  0  0
    4.1482   32.8963   25.1936 C   0  0  0  0  0  0  0  0  0  0  0  0
    4.0203   31.8405   24.2901 C   0  0  0  0  0  0  0  0  0  0  0  0
    2.9959   30.8890   24.4454 C   0  0  0  0  0  0  0  0  0  0  0  0
    3.2717   32.9815   26.2891 C   0  0  0  0  0  0  0  0  0  0  0  0
    2.1206   30.9961   25.5260 C   0  0  0  0  0  0  0  0  0  0  0  0
    2.2514   32.0392   26.4389 C   0  0  0  0  0  0  0  0  0  0  0  0
    4.8817   31.7871   23.2559 F   0  0  0  0  0  0  0  0  0  0  0  0
    0.9800   36.1066   21.7511 S   0  0  0  0  0  0  0  0  0  0  0  0
    0.0495   37.1913   21.6145 O   0  0  0  0  0  0  0  0  0  0  0  0
    2.0376   35.9228   20.8102 O   0  0  0  0  0  0  0  0  0  0  0  0
    0.1204   34.7071   22.0008 N   0  0  0  0  0  0  0  0  0  0  0  0
   -0.6913   34.1513   20.9019 C   0  0  0  0  0  0  0  0  0  0  0  0
    0.3178   33.9288   23.2398 C   0  0  0  0  0  0  0  0  0  0  0  0
   -1.1397   32.8309   24.9356 C   0  0  0  0  0  0  0  0  0  0  0  0
   -0.7297   32.8205   23.4624 C   0  0  0  0  0  0  0  0  0  0  0  0
 14 12  1  0  0  0
 14 13  1  0  0  0
 16 12  2  0  0  0
 12 15  1  0  0  0
 13 11  2  0  0  0
 24 19  1  0  0  0
 15 11  1  0  0  0
 15 18  1  0  0  0
 11  4  1  0  0  0
 19 18  2  0  0  0
 19 20  1  0  0  0
 31 32  1  0  0  0
 18 21  1  0  0  0
  8  3  1  0  0  0
  4  3  2  0  0  0
  4  5  1  0  0  0
  3  2  1  0  0  0
 20 22  2  0  0  0
  5  6  2  0  0  0
 30 32  1  0  0  0
 30 28  1  0  0  0
 21 23  2  0  0  0
  2  1  2  0  0  0
 22 23  1  0  0  0
  6  1  1  0  0  0
  6 25  1  0  0  0
 28 29  1  0  0  0
 28 25  1  0  0  0
 26 25  2  0  0  0
  1  7  1  0  0  0
 25 27  2  0  0  0
  7  9  1  0  0  0
  8 10  1  0  0  0
 14 17  1  0  0  0
M  END
> <minimizedAffinity>
-8.76606

$$$$
5J27_6FF_A_301


 32 34  0  0  0  0  0  0  0  0999 V2000
    5.5982   32.9557   24.9388 C   0  0  0  0  0  0  0  0  0  0  0  0
    4.9769   31.8126   24.3896 C   0  0  0  0  0  0  0  0  0  0  0  0
    3.6183   31.6059   24.6204 C   0  0  0  0  0  0  0  0  0  0  0  0
    2.9058   32.4816   25.4600 C   0  0  0  0  0  0  0  0  0  0  0  0
    3.5213   33.6269   25.9667 C   0  0  0  0  0  0  0  0  0  0  0  0
    4.8831   33.8217   25.7961 C   0  0  0  0  0  0  0  0  0  0  0  0
    6.9188   33.1515   24.7105 O   0  0  0  0  0  0  0  0  0  0  0  0
    2.9709   30.5447   24.0737 O   0  0  0  0  0  0  0  0  0  0  0  0
    7.3866   32.5731   24.1407 H   0  0  0  0  0  0  0  0  0  0  0  0
    2.0570   30.4182   24.2375 H   0  0  0  0  0  0  0  0  0  0  0  0
    1.4968   32.2195   25.8033 C   0  0  0  0  0  0  0  0  0  0  0  0
   -0.7089   32.4079   25.7994 C   0  0  0  0  0  0  0  0  0  0  0  0
    1.0560   31.3568   26.6920 N   0  0  0  0  0  0  0  0  0  0  0  0
   -0.3417   31.4512   26.6835 N   0  0  0  0  0  0  0  0  0  0  0  0
    0.4216   32.9088   25.2503 N   0  0  0  0  0  0  0  0  0  0  0  0
   -1.8517   32.7710   25.5381 O   0  0  0  0  0  0  0  0  0  0  0  0
   -0.9560   30.9104   27.2308 H   0  0  0  0  0  0  0  0  0  0  0  0
    0.4697   33.9457   24.2915 C   0  0  0  0  0  0  0  0  0  0  0  0
    0.0485   33.6796   22.9881 C   0  0  0  0  0  0  0  0  0  0  0  0
    0.0715   34.6909   22.0106 C   0  0  0  0  0  0  0  0  0  0  0  0
    0.8782   35.2457   24.6364 C   0  0  0  0  0  0  0  0  0  0  0  0
    0.4978   35.9719   22.3611 C   0  0  0  0  0  0  0  0  0  0  0  0
    0.9060   36.2475   23.6634 C   0  0  0  0  0  0  0  0  0  0  0  0
   -0.3423   32.4242   22.6951 F   0  0  0  0  0  0  0  0  0  0  0  0
    5.5769   35.3078   26.4851 S   0  0  0  0  0  0  0  0  0  0  0  0
    4.5490   35.9471   27.2569 O   0  0  0  0  0  0  0  0  0  0  0  0
    6.7968   34.8846   27.0935 O   0  0  0  0  0  0  0  0  0  0  0  0
    5.8458   36.2133   25.1184 N   0  0  0  0  0  0  0  0  0  0  0  0
    4.7110   36.8940   24.4672 C   0  0  0  0  0  0  0  0  0  0  0  0
    7.2263   36.4891   24.6736 C   0  0  0  0  0  0  0  0  0  0  0  0
    8.0196   38.6008   25.7305 C   0  0  0  0  0  0  0  0  0  0  0  0
    7.5226   37.9808   24.4239 C   0  0  0  0  0  0  0  0  0  0  0  0
 14 12  1  0  0  0
 14 13  1  0  0  0
 16 12  2  0  0  0
 12 15  1  0  0  0
 13 11  2  0  0  0
 24 19  1  0  0  0
 15 11  1  0  0  0
 15 18  1  0  0  0
 11  4  1  0  0  0
 19 18  2  0  0  0
 19 20  1  0  0  0
 31 32  1  0  0  0
 18 21  1  0  0  0
  8  3  1  0  0  0
  4  3  2  0  0  0
  4  5  1  0  0  0
  3  2  1  0  0  0
 20 22  2  0  0  0
  5  6  2  0  0  0
 30 32  1  0  0  0
 30 28  1  0  0  0
 21 23  2  0  0  0
  2  1  2  0  0  0
 22 23  1  0  0  0
  6  1  1  0  0  0
  6 25  1  0  0  0
 28 29  1  0  0  0
 28 25  1  0  0  0
 26 25  2  0  0  0
  1  7  1  0  0  0
 25 27  2  0  0  0
  7  9  1  0  0  0
  8 10  1  0  0  0
 14 17  1  0  0  0
M  END
> <minimizedAffinity>
-8.75052

$$$$
5J27_6FF_A_301


 32 34  0  0  0  0  0  0  0  0999 V2000
    0.2914   34.9944   21.6426 C   0  0  0  0  0  0  0  0  0  0  0  0
   -0.7719   34.0668   21.5868 C   0  0  0  0  0  0  0  0  0  0  0  0
   -1.1304   33.3798   22.7449 C   0  0  0  0  0  0  0  0  0  0  0  0
   -0.3829   33.5509   23.9245 C   0  0  0  0  0  0  0  0  0  0  0  0
    0.6417   34.4967   23.9772 C   0  0  0  0  0  0  0  0  0  0  0  0
    1.0504   35.1488   22.8243 C   0  0  0  0  0  0  0  0  0  0  0  0
    0.6347   35.6596   20.5138 O   0  0  0  0  0  0  0  0  0  0  0  0
   -2.1757   32.5129   22.7471 O   0  0  0  0  0  0  0  0  0  0  0  0
    0.1266   35.5523   19.7339 H   0  0  0  0  0  0  0  0  0  0  0  0
   -2.4054   32.0579   23.5333 H   0  0  0  0  0  0  0  0  0  0  0  0
   -0.6782   32.7533   25.1280 C   0  0  0  0  0  0  0  0  0  0  0  0
   -0.3900   31.3134   26.7846 C   0  0  0  0  0  0  0  0  0  0  0  0
   -1.8162   32.7221   25.7856 N   0  0  0  0  0  0  0  0  0  0  0  0
   -1.6395   31.8294   26.8507 N   0  0  0  0  0  0  0  0  0  0  0  0
    0.2209   31.8650   25.7109 N   0  0  0  0  0  0  0  0  0  0  0  0
    0.1092   30.4905   27.5461 O   0  0  0  0  0  0  0  0  0  0  0  0
   -2.3135   31.6129   27.5349 H   0  0  0  0  0  0  0  0  0  0  0  0
    1.5351   31.5712   25.2829 C   0  0  0  0  0  0  0  0  0  0  0  0
    2.5860   32.3718   25.7325 C   0  0  0  0  0  0  0  0  0  0  0  0
    3.9085   32.1015   25.3364 C   0  0  0  0  0  0  0  0  0  0  0  0
    1.8095   30.4625   24.4636 C   0  0  0  0  0  0  0  0  0  0  0  0
    4.1649   31.0098   24.5070 C   0  0  0  0  0  0  0  0  0  0  0  0
    3.1225   30.1987   24.0664 C   0  0  0  0  0  0  0  0  0  0  0  0
    2.2865   33.4218   26.5213 F   0  0  0  0  0  0  0  0  0  0  0  0
    2.3692   36.3310   22.9919 S   0  0  0  0  0  0  0  0  0  0  0  0
    3.6069   35.6258   22.8133 O   0  0  0  0  0  0  0  0  0  0  0  0
    2.0019   37.4024   22.1232 O   0  0  0  0  0  0  0  0  0  0  0  0
    2.2338   36.7548   24.5925 N   0  0  0  0  0  0  0  0  0  0  0  0
    3.3122   36.3911   25.5306 C   0  0  0  0  0  0  0  0  0  0  0  0
    1.1432   37.6480   25.0315 C   0  0  0  0  0  0  0  0  0  0  0  0
    2.2528   39.8752   25.1512 C   0  0  0  0  0  0  0  0  0  0  0  0
    1.5939   38.7737   25.9827 C   0  0  0  0  0  0  0  0  0  0  0  0
 14 12  1  0  0  0
 14 13  1  0  0  0
 16 12  2  0  0  0
 12 15  1  0  0  0
 13 11  2  0  0  0
 24 19  1  0  0  0
 15 11  1  0  0  0
 15 18  1  0  0  0
 11  4  1  0  0  0
 19 18  2  0  0  0
 19 20  1  0  0  0
 31 32  1  0  0  0
 18 21  1  0  0  0
  8  3  1  0  0  0
  4  3  2  0  0  0
  4  5  1  0  0  0
  3  2  1  0  0  0
 20 22  2  0  0  0
  5  6  2  0  0  0
 30 32  1  0  0  0
 30 28  1  0  0  0
 21 23  2  0  0  0
  2  1  2  0  0  0
 22 23  1  0  0  0
  6  1  1  0  0  0
  6 25  1  0  0  0
 28 29  1  0  0  0
 28 25  1  0  0  0
 26 25  2  0  0  0
  1  7  1  0  0  0
 25 27  2  0  0  0
  7  9  1  0  0  0
  8 10  1  0  0  0
 14 17  1  0  0  0
M  END
> <minimizedAffinity>
-8.48260

$$$$
5J27_6FF_A_301


 32 34  0  0  0  0  0  0  0  0999 V2000
    2.5416   37.6939   25.9299 C   0  0  0  0  0  0  0  0  0  0  0  0
    1.2620   38.1242   25.5155 C   0  0  0  0  0  0  0  0  0  0  0  0
    0.6462   37.4785   24.4452 C   0  0  0  0  0  0  0  0  0  0  0  0
    1.3328   36.4728   23.7406 C   0  0  0  0  0  0  0  0  0  0  0  0
    2.5809   36.0315   24.1820 C   0  0  0  0  0  0  0  0  0  0  0  0
    3.2344   36.6965   25.2077 C   0  0  0  0  0  0  0  0  0  0  0  0
    3.1348   38.3250   26.9712 O   0  0  0  0  0  0  0  0  0  0  0  0
   -0.6025   37.8295   24.0430 O   0  0  0  0  0  0  0  0  0  0  0  0
    2.6692   38.9855   27.4455 H   0  0  0  0  0  0  0  0  0  0  0  0
   -1.0042   37.3865   23.3216 H   0  0  0  0  0  0  0  0  0  0  0  0
    0.7425   35.8541   22.5403 C   0  0  0  0  0  0  0  0  0  0  0  0
   -0.2773   34.3589   21.2655 C   0  0  0  0  0  0  0  0  0  0  0  0
    0.7365   36.3552   21.3249 N   0  0  0  0  0  0  0  0  0  0  0  0
    0.0739   35.4267   20.5116 N   0  0  0  0  0  0  0  0  0  0  0  0
    0.1421   34.5985   22.5293 N   0  0  0  0  0  0  0  0  0  0  0  0
   -0.8619   33.3487   20.8862 O   0  0  0  0  0  0  0  0  0  0  0  0
   -0.1067   35.5334   19.5497 H   0  0  0  0  0  0  0  0  0  0  0  0
   -0.0146   33.7135   23.6196 C   0  0  0  0  0  0  0  0  0  0  0  0
    1.1057   33.0409   24.1091 C   0  0  0  0  0  0  0  0  0  0  0  0
    0.9891   32.1614   25.2008 C   0  0  0  0  0  0  0  0  0  0  0  0
   -1.2581   33.5410   24.2519 C   0  0  0  0  0  0  0  0  0  0  0  0
   -0.2545   31.9841   25.8069 C   0  0  0  0  0  0  0  0  0  0  0  0
   -1.3736   32.6630   25.3322 C   0  0  0  0  0  0  0  0  0  0  0  0
    2.2822   33.2352   23.4824 F   0  0  0  0  0  0  0  0  0  0  0  0
    4.8241   36.0634   25.6941 S   0  0  0  0  0  0  0  0  0  0  0  0
    4.8179   35.9319   27.1236 O   0  0  0  0  0  0  0  0  0  0  0  0
    5.0302   34.9289   24.8526 O   0  0  0  0  0  0  0  0  0  0  0  0
    5.8231   37.3273   25.2884 N   0  0  0  0  0  0  0  0  0  0  0  0
    7.1934   37.3691   25.8322 C   0  0  0  0  0  0  0  0  0  0  0  0
    5.4114   38.2913   24.2487 C   0  0  0  0  0  0  0  0  0  0  0  0
    5.2258   40.6511   23.4724 C   0  0  0  0  0  0  0  0  0  0  0  0
    5.4764   39.7654   24.6937 C   0  0  0  0  0  0  0  0  0  0  0  0
 14 12  1  0  0  0
 14 13  1  0  0  0
 16 12  2  0  0  0
 12 15  1  0  0  0
 13 11  2  0  0  0
 24 19  1  0  0  0
 15 11  1  0  0  0
 15 18  1  0  0  0
 11  4  1  0  0  0
 19 18  2  0  0  0
 19 20  1  0  0  0
 31 32  1  0  0  0
 18 21  1  0  0  0
  8  3  1  0  0  0
  4  3  2  0  0  0
  4  5  1  0  0  0
  3  2  1  0  0  0
 20 22  2  0  0  0
  5  6  2  0  0  0
 30 32  1  0  0  0
 30 28  1  0  0  0
 21 23  2  0  0  0
  2  1  2  0  0  0
 22 23  1  0  0  0
  6  1  1  0  0  0
  6 25  1  0  0  0
 28 29  1  0  0  0
 28 25  1  0  0  0
 26 25  2  0  0  0
  1  7  1  0  0  0
 25 27  2  0  0  0
  7  9  1  0  0  0
  8 10  1  0  0  0
 14 17  1  0  0  0
M  END
> <minimizedAffinity>
-8.21811

$$$$
5J27_6FF_A_301


 32 34  0  0  0  0  0  0  0  0999 V2000
    2.6402   38.3073   25.6669 C   0  0  0  0  0  0  0  0  0  0  0  0
    1.4326   38.6407   25.0152 C   0  0  0  0  0  0  0  0  0  0  0  0
    0.6830   37.6268   24.4220 C   0  0  0  0  0  0  0  0  0  0  0  0
    1.1732   36.3082   24.4032 C   0  0  0  0  0  0  0  0  0  0  0  0
    2.3489   35.9849   25.0818 C   0  0  0  0  0  0  0  0  0  0  0  0
    3.1371   36.9852   25.6292 C   0  0  0  0  0  0  0  0  0  0  0  0
    3.3640   39.2970   26.2422 O   0  0  0  0  0  0  0  0  0  0  0  0
   -0.5064   37.8962   23.8246 O   0  0  0  0  0  0  0  0  0  0  0  0
    3.0280   40.1715   26.2635 H   0  0  0  0  0  0  0  0  0  0  0  0
   -0.9997   37.2043   23.4297 H   0  0  0  0  0  0  0  0  0  0  0  0
    0.4486   35.2432   23.6874 C   0  0  0  0  0  0  0  0  0  0  0  0
   -0.3536   34.0500   22.0040 C   0  0  0  0  0  0  0  0  0  0  0  0
   -0.2796   34.2923   24.2294 N   0  0  0  0  0  0  0  0  0  0  0  0
   -0.7760   33.5163   23.1739 N   0  0  0  0  0  0  0  0  0  0  0  0
    0.3990   35.1344   22.3006 N   0  0  0  0  0  0  0  0  0  0  0  0
   -0.6045   33.6418   20.8742 O   0  0  0  0  0  0  0  0  0  0  0  0
   -1.3395   32.7145   23.2677 H   0  0  0  0  0  0  0  0  0  0  0  0
    1.0102   35.9844   21.3517 C   0  0  0  0  0  0  0  0  0  0  0  0
    2.4032   36.0197   21.2758 C   0  0  0  0  0  0  0  0  0  0  0  0
    3.0455   36.8452   20.3351 C   0  0  0  0  0  0  0  0  0  0  0  0
    0.2472   36.7479   20.4514 C   0  0  0  0  0  0  0  0  0  0  0  0
    2.2767   37.6129   19.4605 C   0  0  0  0  0  0  0  0  0  0  0  0
    0.8864   37.5716   19.5217 C   0  0  0  0  0  0  0  0  0  0  0  0
    3.1020   35.2702   22.1500 F   0  0  0  0  0  0  0  0  0  0  0  0
    4.6205   36.4739   26.4676 S   0  0  0  0  0  0  0  0  0  0  0  0
    4.8998   37.4480   27.4844 O   0  0  0  0  0  0  0  0  0  0  0  0
    4.3882   35.1063   26.8040 O   0  0  0  0  0  0  0  0  0  0  0  0
    5.7541   36.6335   25.2636 N   0  0  0  0  0  0  0  0  0  0  0  0
    6.2182   37.9802   24.8813 C   0  0  0  0  0  0  0  0  0  0  0  0
    6.4272   35.4379   24.7182 C   0  0  0  0  0  0  0  0  0  0  0  0
    7.6423   33.4777   25.6597 C   0  0  0  0  0  0  0  0  0  0  0  0
    7.6742   34.9994   25.5104 C   0  0  0  0  0  0  0  0  0  0  0  0
 14 12  1  0  0  0
 14 13  1  0  0  0
 16 12  2  0  0  0
 12 15  1  0  0  0
 13 11  2  0  0  0
 24 19  1  0  0  0
 15 11  1  0  0  0
 15 18  1  0  0  0
 11  4  1  0  0  0
 19 18  2  0  0  0
 19 20  1  0  0  0
 31 32  1  0  0  0
 18 21  1  0  0  0
  8  3  1  0  0  0
  4  3  2  0  0  0
  4  5  1  0  0  0
  3  2  1  0  0  0
 20 22  2  0  0  0
  5  6  2  0  0  0
 30 32  1  0  0  0
 30 28  1  0  0  0
 21 23  2  0  0  0
  2  1  2  0  0  0
 22 23  1  0  0  0
  6  1  1  0  0  0
  6 25  1  0  0  0
 28 29  1  0  0  0
 28 25  1  0  0  0
 26 25  2  0  0  0
  1  7  1  0  0  0
 25 27  2  0  0  0
  7  9  1  0  0  0
  8 10  1  0  0  0
 14 17  1  0  0  0
M  END
> <minimizedAffinity>
-8.03978

$$$$
5J27_6FF_A_301


 32 34  0  0  0  0  0  0  0  0999 V2000
    5.1997   32.6364   24.6965 C   0  0  0  0  0  0  0  0  0  0  0  0
    4.5227   31.4682   24.2828 C   0  0  0  0  0  0  0  0  0  0  0  0
    3.1741   31.3207   24.6010 C   0  0  0  0  0  0  0  0  0  0  0  0
    2.5291   32.2856   25.3962 C   0  0  0  0  0  0  0  0  0  0  0  0
    3.1980   33.4525   25.7678 C   0  0  0  0  0  0  0  0  0  0  0  0
    4.5527   33.5932   25.5103 C   0  0  0  0  0  0  0  0  0  0  0  0
    6.5103   32.7744   24.3836 O   0  0  0  0  0  0  0  0  0  0  0  0
    2.4731   30.2349   24.1839 O   0  0  0  0  0  0  0  0  0  0  0  0
    6.9327   32.1359   23.8434 H   0  0  0  0  0  0  0  0  0  0  0  0
    1.5667   30.1490   24.4055 H   0  0  0  0  0  0  0  0  0  0  0  0
    1.1349   32.0940   25.8339 C   0  0  0  0  0  0  0  0  0  0  0  0
   -1.0718   32.2681   25.8660 C   0  0  0  0  0  0  0  0  0  0  0  0
    0.7327   31.4319   26.8961 N   0  0  0  0  0  0  0  0  0  0  0  0
   -0.6655   31.5165   26.9157 N   0  0  0  0  0  0  0  0  0  0  0  0
    0.0347   32.6494   25.1872 N   0  0  0  0  0  0  0  0  0  0  0  0
   -2.2264   32.5643   25.5742 O   0  0  0  0  0  0  0  0  0  0  0  0
   -1.2557   31.0980   27.5834 H   0  0  0  0  0  0  0  0  0  0  0  0
    0.0402   33.4658   24.0338 C   0  0  0  0  0  0  0  0  0  0  0  0
    0.4946   34.7809   24.1402 C   0  0  0  0  0  0  0  0  0  0  0  0
    0.5253   35.6185   23.0105 C   0  0  0  0  0  0  0  0  0  0  0  0
   -0.3482   32.9657   22.7789 C   0  0  0  0  0  0  0  0  0  0  0  0
    0.1186   35.1158   21.7746 C   0  0  0  0  0  0  0  0  0  0  0  0
   -0.3227   33.8003   21.6591 C   0  0  0  0  0  0  0  0  0  0  0  0
    0.8647   35.2242   25.3572 F   0  0  0  0  0  0  0  0  0  0  0  0
    5.3178   35.1132   26.0292 S   0  0  0  0  0  0  0  0  0  0  0  0
    5.0957   35.2487   27.4410 O   0  0  0  0  0  0  0  0  0  0  0  0
    6.6403   35.0482   25.4962 O   0  0  0  0  0  0  0  0  0  0  0  0
    4.3852   36.2400   25.2414 N   0  0  0  0  0  0  0  0  0  0  0  0
    4.1316   36.0861   23.7967 C   0  0  0  0  0  0  0  0  0  0  0  0
    3.6640   37.2724   26.0120 C   0  0  0  0  0  0  0  0  0  0  0  0
    1.9200   39.0478   26.1223 C   0  0  0  0  0  0  0  0  0  0  0  0
    2.5262   37.9610   25.2333 C   0  0  0  0  0  0  0  0  0  0  0  0
 14 12  1  0  0  0
 14 13  1  0  0  0
 16 12  2  0  0  0
 12 15  1  0  0  0
 13 11  2  0  0  0
 24 19  1  0  0  0
 15 11  1  0  0  0
 15 18  1  0  0  0
 11  4  1  0  0  0
 19 18  2  0  0  0
 19 20  1  0  0  0
 31 32  1  0  0  0
 18 21  1  0  0  0
  8  3  1  0  0  0
  4  3  2  0  0  0
  4  5  1  0  0  0
  3  2  1  0  0  0
 20 22  2  0  0  0
  5  6  2  0  0  0
 30 32  1  0  0  0
 30 28  1  0  0  0
 21 23  2  0  0  0
  2  1  2  0  0  0
 22 23  1  0  0  0
  6  1  1  0  0  0
  6 25  1  0  0  0
 28 29  1  0  0  0
 28 25  1  0  0  0
 26 25  2  0  0  0
  1  7  1  0  0  0
 25 27  2  0  0  0
  7  9  1  0  0  0
  8 10  1  0  0  0
 14 17  1  0  0  0
M  END
> <minimizedAffinity>
-7.96712

$$$$
