3V2Q_PLM_A_101
  RCSB PDB12061711103D
Coordinates from PDB:3V2Q:A:101 Model:1 without hydrogens
 18 17  0  0  0  0            999 V2000
    0.3710   -0.4450   11.3500   C 0  0  0  0  0  0  0  0  0  0  0  0
   -0.4450   -1.2760   10.9130   O 0  0  0  0  0  0  0  0  0  0  0  0
    0.0890    0.2680   12.3100   O 0  0  0  0  0  0  0  0  0  0  0  0
    1.7320   -0.3200   10.6840   C 0  0  0  0  0  0  0  0  0  0  0  0
    1.7250   -0.4120    9.1670   C 0  0  0  0  0  0  0  0  0  0  0  0
    3.0830   -0.8010    8.5930   C 0  0  0  0  0  0  0  0  0  0  0  0
    3.7240    0.3080    7.7540   C 0  0  0  0  0  0  0  0  0  0  0  0
    4.1440   -0.1490    6.3620   C 0  0  0  0  0  0  0  0  0  0  0  0
    5.4870    0.4710    5.9410   C 0  0  0  0  0  0  0  0  0  0  0  0
    5.8960    0.0050    4.5310   C 0  0  0  0  0  0  0  0  0  0  0  0
    7.2810    0.4880    4.1390   C 0  0  0  0  0  0  0  0  0  0  0  0
    7.7280    0.0590    2.7540   C 0  0  0  0  0  0  0  0  0  0  0  0
    8.9860    0.7660    2.2690   C 0  0  0  0  0  0  0  0  0  0  0  0
    9.1750    0.5270    0.7660   C 0  0  0  0  0  0  0  0  0  0  0  0
   10.6410    0.2370    0.4620   C 0  0  0  0  0  0  0  0  0  0  0  0
   11.1530    1.0260   -0.7480   C 0  0  0  0  0  0  0  0  0  0  0  0
   12.3060    0.2970   -1.4550   C 0  0  0  0  0  0  0  0  0  0  0  0
   12.8460    1.1130   -2.6340   C 0  0  0  0  0  0  0  0  0  0  0  0
  1  2  1  0  0  0  0
  1  3  2  0  0  0  0
  1  4  1  0  0  0  0
  4  5  1  0  0  0  0
  5  6  1  0  0  0  0
  6  7  1  0  0  0  0
  7  8  1  0  0  0  0
  8  9  1  0  0  0  0
  9 10  1  0  0  0  0
 10 11  1  0  0  0  0
 11 12  1  0  0  0  0
 12 13  1  0  0  0  0
 13 14  1  0  0  0  0
 14 15  1  0  0  0  0
 15 16  1  0  0  0  0
 16 17  1  0  0  0  0
 17 18  1  0  0  0  0
A    1
C1
A    2
O1
A    3
O2
A    4
C2
A    5
C3
A    6
C4
A    7
C5
A    8
C6
A    9
C7
A   10
C8
A   11
C9
A   12
CA
A   13
CB
A   14
CC
A   15
CD
A   16
CE
A   17
CF
A   18
CG
M  END
>  <InstanceId>
3V2Q_PLM_A_101

>  <ChemCompId>
PLM

>  <PdbId>
3V2Q

>  <ChainId>
A

>  <ResidueNumber>
101

>  <InsertionCode>


>  <Model>
1

>  <AltIds>


>  <MissingHeavyAtoms>
0

>  <ObservedFormula>
C16 O2

>  <Name>
PALMITIC ACID

>  <SystematicName>
hexadecanoic acid

>  <Synonyms>


>  <Type>
NON-POLYMER

>  <Formula>
C16 H32 O2

>  <MolecularWeight>
256.424

>  <ModifiedDate>
2011-06-04

>  <Parent>


>  <OneLetterCode>


>  <SubcomponentList>


>  <AmbiguousFlag>
N

>  <InChI>
InChI=1S/C16H32O2/c1-2-3-4-5-6-7-8-9-10-11-12-13-14-15-16(17)18/h2-15H2,1H3,(H,17,18)

>  <InChIKey>
IPCSVZSSVZVIGE-UHFFFAOYSA-N

>  <SMILES>
CCCCCCCCCCCCCCCC(=O)O

$$$$
