3V2Q_PLM_A_101


 19 18  0  0  0  0  0  0  0  0999 V2000
    4.5271   -0.0356    8.5385 C   0  0  0  0  0  0  0  0  0  0  0  0
    3.3753    0.9829    8.5743 C   0  0  0  0  0  0  0  0  0  0  0  0
    2.3611    0.7259    7.4660 C   0  0  0  0  0  0  0  0  0  0  0  0
    0.9877    0.2906    7.9845 C   0  0  0  0  0  0  0  0  0  0  0  0
    1.0533   -0.9011    8.9334 C   0  0  0  0  0  0  0  0  0  0  0  0
   -0.0743   -0.9044    9.9524 C   0  0  0  0  0  0  0  0  0  0  0  0
    0.2842   -0.3497   11.3218 C   0  0  0  0  0  0  0  0  0  0  0  0
    1.3627    0.2522   11.4700 O   0  0  0  0  0  0  0  0  0  0  0  0
   -0.4889   -0.4957   12.2655 O   0  0  0  0  0  0  0  0  0  0  0  0
    1.9443    0.3573   10.7429 H   0  0  0  0  0  0  0  0  0  0  0  0
    4.8890   -0.4139    7.0900 C   0  0  0  0  0  0  0  0  0  0  0  0
    6.2841    0.0426    6.7020 C   0  0  0  0  0  0  0  0  0  0  0  0
    6.3193    1.2730    5.8150 C   0  0  0  0  0  0  0  0  0  0  0  0
    5.3580    1.2072    4.6363 C   0  0  0  0  0  0  0  0  0  0  0  0
    5.9268    0.2897    3.5470 C   0  0  0  0  0  0  0  0  0  0  0  0
    7.4027    0.5989    3.3197 C   0  0  0  0  0  0  0  0  0  0  0  0
    8.0883   -0.4473    2.4341 C   0  0  0  0  0  0  0  0  0  0  0  0
    8.8667    0.2060    1.2818 C   0  0  0  0  0  0  0  0  0  0  0  0
    8.7733    1.7343    1.3377 C   0  0  0  0  0  0  0  0  0  0  0  0
  7  8  1  0  0  0
  7  9  2  0  0  0
  7  6  1  0  0  0
  6  5  1  0  0  0
  5  4  1  0  0  0
  4  3  1  0  0  0
  3  2  1  0  0  0
  2  1  1  0  0  0
  1 11  1  0  0  0
 11 12  1  0  0  0
 12 13  1  0  0  0
 13 14  1  0  0  0
 14 15  1  0  0  0
 15 16  1  0  0  0
 16 17  1  0  0  0
 17 18  1  0  0  0
 18 19  1  0  0  0
  8 10  1  0  0  0
M  END
> <minimizedAffinity>
-6.72535

$$$$
3V2Q_PLM_A_101


 19 18  0  0  0  0  0  0  0  0999 V2000
    4.9811    0.7169    6.8886 C   0  0  0  0  0  0  0  0  0  0  0  0
    3.8143    0.1496    7.7144 C   0  0  0  0  0  0  0  0  0  0  0  0
    4.2579   -0.2486    9.1172 C   0  0  0  0  0  0  0  0  0  0  0  0
    3.6017   -1.5366    9.6222 C   0  0  0  0  0  0  0  0  0  0  0  0
    2.0785   -1.4687    9.6395 C   0  0  0  0  0  0  0  0  0  0  0  0
    1.5481   -0.3961   10.5766 C   0  0  0  0  0  0  0  0  0  0  0  0
    0.0935   -0.5542   10.9899 C   0  0  0  0  0  0  0  0  0  0  0  0
   -0.7677   -0.7569   10.1156 O   0  0  0  0  0  0  0  0  0  0  0  0
   -0.2192   -0.4842   12.1760 O   0  0  0  0  0  0  0  0  0  0  0  0
   -0.5172   -0.8084    9.2141 H   0  0  0  0  0  0  0  0  0  0  0  0
    6.1605   -0.2727    6.8411 C   0  0  0  0  0  0  0  0  0  0  0  0
    6.1305   -1.1526    5.6042 C   0  0  0  0  0  0  0  0  0  0  0  0
    5.3304   -0.5840    4.4472 C   0  0  0  0  0  0  0  0  0  0  0  0
    6.1725    0.1835    3.4375 C   0  0  0  0  0  0  0  0  0  0  0  0
    7.6504   -0.1958    3.5918 C   0  0  0  0  0  0  0  0  0  0  0  0
    8.2885   -0.3855    2.2197 C   0  0  0  0  0  0  0  0  0  0  0  0
    9.8093   -0.1985    2.2527 C   0  0  0  0  0  0  0  0  0  0  0  0
   10.2005    1.2861    2.1923 C   0  0  0  0  0  0  0  0  0  0  0  0
    9.2637    2.0757    1.2723 C   0  0  0  0  0  0  0  0  0  0  0  0
  7  8  1  0  0  0
  7  9  2  0  0  0
  7  6  1  0  0  0
  6  5  1  0  0  0
  5  4  1  0  0  0
  4  3  1  0  0  0
  3  2  1  0  0  0
  2  1  1  0  0  0
  1 11  1  0  0  0
 11 12  1  0  0  0
 12 13  1  0  0  0
 13 14  1  0  0  0
 14 15  1  0  0  0
 15 16  1  0  0  0
 16 17  1  0  0  0
 17 18  1  0  0  0
 18 19  1  0  0  0
  8 10  1  0  0  0
M  END
> <minimizedAffinity>
-6.65849

$$$$
3V2Q_PLM_A_101


 19 18  0  0  0  0  0  0  0  0999 V2000
    5.0385    0.3981    6.6909 C   0  0  0  0  0  0  0  0  0  0  0  0
    4.1120   -0.4093    7.6155 C   0  0  0  0  0  0  0  0  0  0  0  0
    2.6707    0.0799    7.5360 C   0  0  0  0  0  0  0  0  0  0  0  0
    1.6373   -1.0226    7.7831 C   0  0  0  0  0  0  0  0  0  0  0  0
    1.4803   -1.3801    9.2570 C   0  0  0  0  0  0  0  0  0  0  0  0
    0.2136   -0.8059    9.8699 C   0  0  0  0  0  0  0  0  0  0  0  0
    0.3462   -0.3224   11.3052 C   0  0  0  0  0  0  0  0  0  0  0  0
   -0.5970   -0.5018   12.0961 O   0  0  0  0  0  0  0  0  0  0  0  0
    1.3773    0.2354   11.6728 O   0  0  0  0  0  0  0  0  0  0  0  0
   -1.3785   -0.9285   11.8043 H   0  0  0  0  0  0  0  0  0  0  0  0
    4.3614    0.6823    5.3369 C   0  0  0  0  0  0  0  0  0  0  0  0
    4.7926   -0.2931    4.2562 C   0  0  0  0  0  0  0  0  0  0  0  0
    6.2899   -0.5264    4.1807 C   0  0  0  0  0  0  0  0  0  0  0  0
    7.0475    0.5800    3.4598 C   0  0  0  0  0  0  0  0  0  0  0  0
    8.4460    0.0879    3.0675 C   0  0  0  0  0  0  0  0  0  0  0  0
    8.4180   -0.5034    1.6621 C   0  0  0  0  0  0  0  0  0  0  0  0
    9.8100   -0.5543    1.0228 C   0  0  0  0  0  0  0  0  0  0  0  0
   10.3044    0.8453    0.6261 C   0  0  0  0  0  0  0  0  0  0  0  0
   11.1836    0.7947   -0.6276 C   0  0  0  0  0  0  0  0  0  0  0  0
  7  8  1  0  0  0
  7  9  2  0  0  0
  7  6  1  0  0  0
  6  5  1  0  0  0
  5  4  1  0  0  0
  4  3  1  0  0  0
  3  2  1  0  0  0
  2  1  1  0  0  0
  1 11  1  0  0  0
 11 12  1  0  0  0
 12 13  1  0  0  0
 13 14  1  0  0  0
 14 15  1  0  0  0
 15 16  1  0  0  0
 16 17  1  0  0  0
 17 18  1  0  0  0
 18 19  1  0  0  0
  8 10  1  0  0  0
M  END
> <minimizedAffinity>
-6.36374

$$$$
3V2Q_PLM_A_101


 19 18  0  0  0  0  0  0  0  0999 V2000
    8.3346    0.7563    2.5732 C   0  0  0  0  0  0  0  0  0  0  0  0
    9.0552   -0.3625    1.8022 C   0  0  0  0  0  0  0  0  0  0  0  0
   10.3670    0.1241    1.1978 C   0  0  0  0  0  0  0  0  0  0  0  0
   10.3526    0.1739   -0.3325 C   0  0  0  0  0  0  0  0  0  0  0  0
   11.4665    1.0360   -0.9166 C   0  0  0  0  0  0  0  0  0  0  0  0
   12.2607    0.3191   -1.9960 C   0  0  0  0  0  0  0  0  0  0  0  0
   13.6139   -0.2190   -1.5593 C   0  0  0  0  0  0  0  0  0  0  0  0
   14.4314    0.5527   -1.0267 O   0  0  0  0  0  0  0  0  0  0  0  0
   13.8883   -1.4042   -1.7313 O   0  0  0  0  0  0  0  0  0  0  0  0
   14.2108    1.4546   -0.9008 H   0  0  0  0  0  0  0  0  0  0  0  0
    7.5343    0.1866    3.7596 C   0  0  0  0  0  0  0  0  0  0  0  0
    6.0365    0.3683    3.5900 C   0  0  0  0  0  0  0  0  0  0  0  0
    5.3636    1.1287    4.7174 C   0  0  0  0  0  0  0  0  0  0  0  0
    6.1080    1.0464    6.0428 C   0  0  0  0  0  0  0  0  0  0  0  0
    5.4023    0.0585    6.9797 C   0  0  0  0  0  0  0  0  0  0  0  0
    3.9621    0.5000    7.2177 C   0  0  0  0  0  0  0  0  0  0  0  0
    3.6141    0.5764    8.7083 C   0  0  0  0  0  0  0  0  0  0  0  0
    4.3496   -0.5015    9.5193 C   0  0  0  0  0  0  0  0  0  0  0  0
    3.5102   -1.7769    9.6474 C   0  0  0  0  0  0  0  0  0  0  0  0
  7  8  1  0  0  0
  7  9  2  0  0  0
  7  6  1  0  0  0
  6  5  1  0  0  0
  5  4  1  0  0  0
  4  3  1  0  0  0
  3  2  1  0  0  0
  2  1  1  0  0  0
  1 11  1  0  0  0
 11 12  1  0  0  0
 12 13  1  0  0  0
 13 14  1  0  0  0
 14 15  1  0  0  0
 15 16  1  0  0  0
 16 17  1  0  0  0
 17 18  1  0  0  0
 18 19  1  0  0  0
  8 10  1  0  0  0
M  END
> <minimizedAffinity>
-5.99136

$$$$
3V2Q_PLM_A_101


 19 18  0  0  0  0  0  0  0  0999 V2000
    8.4078    0.8051    2.0254 C   0  0  0  0  0  0  0  0  0  0  0  0
    8.7663   -0.5364    1.3643 C   0  0  0  0  0  0  0  0  0  0  0  0
   10.1795   -0.5237    0.7936 C   0  0  0  0  0  0  0  0  0  0  0  0
   10.4127    0.5871   -0.2341 C   0  0  0  0  0  0  0  0  0  0  0  0
   11.7999    0.5405   -0.8655 C   0  0  0  0  0  0  0  0  0  0  0  0
   11.7567    0.5823   -2.3842 C   0  0  0  0  0  0  0  0  0  0  0  0
   12.2677   -0.6667   -3.0845 C   0  0  0  0  0  0  0  0  0  0  0  0
   11.6848   -1.0718   -4.1060 O   0  0  0  0  0  0  0  0  0  0  0  0
   13.2474   -1.2617   -2.6422 O   0  0  0  0  0  0  0  0  0  0  0  0
   10.9386   -0.6096   -4.4339 H   0  0  0  0  0  0  0  0  0  0  0  0
    7.0969    0.6964    2.8269 C   0  0  0  0  0  0  0  0  0  0  0  0
    7.2601   -0.1161    4.0991 C   0  0  0  0  0  0  0  0  0  0  0  0
    6.1019   -1.0479    4.4031 C   0  0  0  0  0  0  0  0  0  0  0  0
    4.7538   -0.3451    4.4825 C   0  0  0  0  0  0  0  0  0  0  0  0
    4.7125    0.5721    5.7108 C   0  0  0  0  0  0  0  0  0  0  0  0
    4.8471   -0.2535    6.9859 C   0  0  0  0  0  0  0  0  0  0  0  0
    3.4914   -0.5417    7.6400 C   0  0  0  0  0  0  0  0  0  0  0  0
    2.6517    0.7358    7.7936 C   0  0  0  0  0  0  0  0  0  0  0  0
    1.1667    0.4655    7.5308 C   0  0  0  0  0  0  0  0  0  0  0  0
  7  8  1  0  0  0
  7  9  2  0  0  0
  7  6  1  0  0  0
  6  5  1  0  0  0
  5  4  1  0  0  0
  4  3  1  0  0  0
  3  2  1  0  0  0
  2  1  1  0  0  0
  1 11  1  0  0  0
 11 12  1  0  0  0
 12 13  1  0  0  0
 13 14  1  0  0  0
 14 15  1  0  0  0
 15 16  1  0  0  0
 16 17  1  0  0  0
 17 18  1  0  0  0
 18 19  1  0  0  0
  8 10  1  0  0  0
M  END
> <minimizedAffinity>
-5.94164

$$$$
3V2Q_PLM_A_101


 19 18  0  0  0  0  0  0  0  0999 V2000
    4.9189   -0.2420    4.9765 C   0  0  0  0  0  0  0  0  0  0  0  0
    6.1359   -0.8948    4.2996 C   0  0  0  0  0  0  0  0  0  0  0  0
    7.3374    0.0426    4.2754 C   0  0  0  0  0  0  0  0  0  0  0  0
    8.3079   -0.2386    3.1248 C   0  0  0  0  0  0  0  0  0  0  0  0
    8.7536    1.0222    2.3923 C   0  0  0  0  0  0  0  0  0  0  0  0
   10.2070    0.9640    1.9518 C   0  0  0  0  0  0  0  0  0  0  0  0
   10.4280    0.8104    0.4555 C   0  0  0  0  0  0  0  0  0  0  0  0
    9.4451    0.8117   -0.3069 O   0  0  0  0  0  0  0  0  0  0  0  0
   11.5674    0.6899    0.0119 O   0  0  0  0  0  0  0  0  0  0  0  0
    8.5809    0.9044    0.0430 H   0  0  0  0  0  0  0  0  0  0  0  0
    5.3563    0.7174    6.0993 C   0  0  0  0  0  0  0  0  0  0  0  0
    4.6528    0.4314    7.4140 C   0  0  0  0  0  0  0  0  0  0  0  0
    4.1853   -1.0027    7.5781 C   0  0  0  0  0  0  0  0  0  0  0  0
    3.0059   -1.1585    8.5280 C   0  0  0  0  0  0  0  0  0  0  0  0
    1.6890   -0.9907    7.7602 C   0  0  0  0  0  0  0  0  0  0  0  0
    0.7665   -0.0321    8.5056 C   0  0  0  0  0  0  0  0  0  0  0  0
    1.5116    0.7919    9.5614 C   0  0  0  0  0  0  0  0  0  0  0  0
    0.8616    0.6604   10.9474 C   0  0  0  0  0  0  0  0  0  0  0  0
    0.4078   -0.7775   11.2196 C   0  0  0  0  0  0  0  0  0  0  0  0
  7  8  1  0  0  0
  7  9  2  0  0  0
  7  6  1  0  0  0
  6  5  1  0  0  0
  5  4  1  0  0  0
  4  3  1  0  0  0
  3  2  1  0  0  0
  2  1  1  0  0  0
  1 11  1  0  0  0
 11 12  1  0  0  0
 12 13  1  0  0  0
 13 14  1  0  0  0
 14 15  1  0  0  0
 15 16  1  0  0  0
 16 17  1  0  0  0
 17 18  1  0  0  0
 18 19  1  0  0  0
  8 10  1  0  0  0
M  END
> <minimizedAffinity>
-5.84007

$$$$
3V2Q_PLM_A_101


 19 18  0  0  0  0  0  0  0  0999 V2000
    9.4145    0.8281    0.2358 C   0  0  0  0  0  0  0  0  0  0  0  0
   10.9239    1.0362    0.4448 C   0  0  0  0  0  0  0  0  0  0  0  0
   11.7439    0.3347   -0.6315 C   0  0  0  0  0  0  0  0  0  0  0  0
   12.9257    1.1666   -1.1375 C   0  0  0  0  0  0  0  0  0  0  0  0
   13.6323    0.5409   -2.3351 C   0  0  0  0  0  0  0  0  0  0  0  0
   13.0379   -0.7996   -2.7346 C   0  0  0  0  0  0  0  0  0  0  0  0
   11.9993   -0.7466   -3.8436 C   0  0  0  0  0  0  0  0  0  0  0  0
   11.6969   -1.7937   -4.4431 O   0  0  0  0  0  0  0  0  0  0  0  0
   11.4672    0.3214   -4.1365 O   0  0  0  0  0  0  0  0  0  0  0  0
   12.1095   -2.6023   -4.2110 H   0  0  0  0  0  0  0  0  0  0  0  0
    8.9944   -0.6056    0.6108 C   0  0  0  0  0  0  0  0  0  0  0  0
    8.4676   -0.7033    2.0314 C   0  0  0  0  0  0  0  0  0  0  0  0
    7.5684    0.4453    2.4490 C   0  0  0  0  0  0  0  0  0  0  0  0
    7.2220    0.4454    3.9315 C   0  0  0  0  0  0  0  0  0  0  0  0
    6.1416   -0.6048    4.2172 C   0  0  0  0  0  0  0  0  0  0  0  0
    6.2517   -1.0908    5.6585 C   0  0  0  0  0  0  0  0  0  0  0  0
    6.3195    0.0666    6.6608 C   0  0  0  0  0  0  0  0  0  0  0  0
    4.9188    0.5208    7.0997 C   0  0  0  0  0  0  0  0  0  0  0  0
    4.2537   -0.5151    8.0118 C   0  0  0  0  0  0  0  0  0  0  0  0
  7  8  1  0  0  0
  7  9  2  0  0  0
  7  6  1  0  0  0
  6  5  1  0  0  0
  5  4  1  0  0  0
  4  3  1  0  0  0
  3  2  1  0  0  0
  2  1  1  0  0  0
  1 11  1  0  0  0
 11 12  1  0  0  0
 12 13  1  0  0  0
 13 14  1  0  0  0
 14 15  1  0  0  0
 15 16  1  0  0  0
 16 17  1  0  0  0
 17 18  1  0  0  0
 18 19  1  0  0  0
  8 10  1  0  0  0
M  END
> <minimizedAffinity>
-5.74311

$$$$
3V2Q_PLM_A_101


 19 18  0  0  0  0  0  0  0  0999 V2000
    5.2682    1.3929    4.4597 C   0  0  0  0  0  0  0  0  0  0  0  0
    6.6319    0.6947    4.3245 C   0  0  0  0  0  0  0  0  0  0  0  0
    6.8068    0.0612    2.9494 C   0  0  0  0  0  0  0  0  0  0  0  0
    8.1802   -0.5843    2.7450 C   0  0  0  0  0  0  0  0  0  0  0  0
    8.5937   -0.6667    1.2797 C   0  0  0  0  0  0  0  0  0  0  0  0
    9.8722    0.1006    0.9852 C   0  0  0  0  0  0  0  0  0  0  0  0
    9.9896    1.4553    1.6652 C   0  0  0  0  0  0  0  0  0  0  0  0
    9.3246    2.4126    1.2308 O   0  0  0  0  0  0  0  0  0  0  0  0
   10.7326    1.5942    2.6338 O   0  0  0  0  0  0  0  0  0  0  0  0
    8.7613    2.2946    0.4914 H   0  0  0  0  0  0  0  0  0  0  0  0
    4.4191    0.7430    5.5684 C   0  0  0  0  0  0  0  0  0  0  0  0
    5.2158   -0.2379    6.4100 C   0  0  0  0  0  0  0  0  0  0  0  0
    4.8164   -0.2803    7.8731 C   0  0  0  0  0  0  0  0  0  0  0  0
    3.9808    0.9128    8.3158 C   0  0  0  0  0  0  0  0  0  0  0  0
    3.1566    0.5442    9.5554 C   0  0  0  0  0  0  0  0  0  0  0  0
    1.7318    1.0688    9.4121 C   0  0  0  0  0  0  0  0  0  0  0  0
    0.7183   -0.0546    9.1683 C   0  0  0  0  0  0  0  0  0  0  0  0
    1.4091   -1.4171    9.0039 C   0  0  0  0  0  0  0  0  0  0  0  0
    1.5462   -1.8015    7.5271 C   0  0  0  0  0  0  0  0  0  0  0  0
  7  8  1  0  0  0
  7  9  2  0  0  0
  7  6  1  0  0  0
  6  5  1  0  0  0
  5  4  1  0  0  0
  4  3  1  0  0  0
  3  2  1  0  0  0
  2  1  1  0  0  0
  1 11  1  0  0  0
 11 12  1  0  0  0
 12 13  1  0  0  0
 13 14  1  0  0  0
 14 15  1  0  0  0
 15 16  1  0  0  0
 16 17  1  0  0  0
 17 18  1  0  0  0
 18 19  1  0  0  0
  8 10  1  0  0  0
M  END
> <minimizedAffinity>
-5.67902

$$$$
3V2Q_PLM_A_101


 19 18  0  0  0  0  0  0  0  0999 V2000
    7.0969   -0.4748    3.7625 C   0  0  0  0  0  0  0  0  0  0  0  0
    6.9811    0.8351    4.5600 C   0  0  0  0  0  0  0  0  0  0  0  0
    6.0418    0.6884    5.7513 C   0  0  0  0  0  0  0  0  0  0  0  0
    4.6073    0.3261    5.3565 C   0  0  0  0  0  0  0  0  0  0  0  0
    3.7188    0.0004    6.5521 C   0  0  0  0  0  0  0  0  0  0  0  0
    4.3877    0.3045    7.8824 C   0  0  0  0  0  0  0  0  0  0  0  0
    3.4501    0.7351    8.9991 C   0  0  0  0  0  0  0  0  0  0  0  0
    3.4630    0.1136   10.0766 O   0  0  0  0  0  0  0  0  0  0  0  0
    2.6935    1.6887    8.8325 O   0  0  0  0  0  0  0  0  0  0  0  0
    4.0445   -0.6121   10.1919 H   0  0  0  0  0  0  0  0  0  0  0  0
    7.8761   -0.2595    2.4513 C   0  0  0  0  0  0  0  0  0  0  0  0
    8.6023    1.0734    2.4198 C   0  0  0  0  0  0  0  0  0  0  0  0
   10.1037    0.9672    2.2289 C   0  0  0  0  0  0  0  0  0  0  0  0
   10.5191   -0.0759    1.2009 C   0  0  0  0  0  0  0  0  0  0  0  0
   10.3450    0.4858   -0.2155 C   0  0  0  0  0  0  0  0  0  0  0  0
   11.7084    0.7222   -0.8565 C   0  0  0  0  0  0  0  0  0  0  0  0
   11.6099    0.9540   -2.3682 C   0  0  0  0  0  0  0  0  0  0  0  0
   12.1965   -0.2229   -3.1629 C   0  0  0  0  0  0  0  0  0  0  0  0
   13.4505   -0.7863   -2.4866 C   0  0  0  0  0  0  0  0  0  0  0  0
  7  8  1  0  0  0
  7  9  2  0  0  0
  7  6  1  0  0  0
  6  5  1  0  0  0
  5  4  1  0  0  0
  4  3  1  0  0  0
  3  2  1  0  0  0
  2  1  1  0  0  0
  1 11  1  0  0  0
 11 12  1  0  0  0
 12 13  1  0  0  0
 13 14  1  0  0  0
 14 15  1  0  0  0
 15 16  1  0  0  0
 16 17  1  0  0  0
 17 18  1  0  0  0
 18 19  1  0  0  0
  8 10  1  0  0  0
M  END
> <minimizedAffinity>
-5.65631

$$$$
3V2Q_PLM_A_101


 19 18  0  0  0  0  0  0  0  0999 V2000
    8.9593    0.7038    3.4467 C   0  0  0  0  0  0  0  0  0  0  0  0
    8.1753   -0.4974    2.8918 C   0  0  0  0  0  0  0  0  0  0  0  0
    6.9212   -0.7787    3.7109 C   0  0  0  0  0  0  0  0  0  0  0  0
    5.8098    0.2532    3.4994 C   0  0  0  0  0  0  0  0  0  0  0  0
    4.5483   -0.0489    4.3008 C   0  0  0  0  0  0  0  0  0  0  0  0
    4.5169    0.6674    5.6408 C   0  0  0  0  0  0  0  0  0  0  0  0
    5.0562   -0.1296    6.8178 C   0  0  0  0  0  0  0  0  0  0  0  0
    6.2492    0.0021    7.1449 O   0  0  0  0  0  0  0  0  0  0  0  0
    4.3154   -0.8906    7.4355 O   0  0  0  0  0  0  0  0  0  0  0  0
    6.8045    0.5855    6.6662 H   0  0  0  0  0  0  0  0  0  0  0  0
    9.8067    1.3700    2.3464 C   0  0  0  0  0  0  0  0  0  0  0  0
    8.9782    1.7722    1.1393 C   0  0  0  0  0  0  0  0  0  0  0  0
    9.3428    1.0480   -0.1432 C   0  0  0  0  0  0  0  0  0  0  0  0
   10.4775    0.0462    0.0193 C   0  0  0  0  0  0  0  0  0  0  0  0
   11.8150    0.7072   -0.3353 C   0  0  0  0  0  0  0  0  0  0  0  0
   11.8278    1.1070   -1.8069 C   0  0  0  0  0  0  0  0  0  0  0  0
   13.2456    1.1508   -2.3872 C   0  0  0  0  0  0  0  0  0  0  0  0
   13.3732    0.2734   -3.6420 C   0  0  0  0  0  0  0  0  0  0  0  0
   12.1941   -0.6966   -3.7701 C   0  0  0  0  0  0  0  0  0  0  0  0
  7  8  1  0  0  0
  7  9  2  0  0  0
  7  6  1  0  0  0
  6  5  1  0  0  0
  5  4  1  0  0  0
  4  3  1  0  0  0
  3  2  1  0  0  0
  2  1  1  0  0  0
  1 11  1  0  0  0
 11 12  1  0  0  0
 12 13  1  0  0  0
 13 14  1  0  0  0
 14 15  1  0  0  0
 15 16  1  0  0  0
 16 17  1  0  0  0
 17 18  1  0  0  0
 18 19  1  0  0  0
  8 10  1  0  0  0
M  END
> <minimizedAffinity>
-5.33737

$$$$
