4ZL4_4PK_A_501


 57 58  0  0  0  0  0  0  0  0999 V2000
   -2.1078  103.9630   43.0738 C   0  0  0  0  0  0  0  0  0  0  0  0
   -1.1003  103.9965   40.8092 C   0  0  0  0  0  0  0  0  0  0  0  0
   -0.5204  105.0402   41.1104 O   0  0  0  0  0  0  0  0  0  0  0  0
   -1.9286  103.4132   41.7357 N   0  0  0  0  0  0  0  0  0  0  0  0
   -2.4182  102.5959   41.4879 H   0  0  0  0  0  0  0  0  0  0  0  0
   -0.9399  103.2870   39.4376 C   0  0  0  0  0  0  0  0  0  0  0  0
   -1.0625  100.9299   38.7832 C   0  0  0  0  0  0  0  0  0  0  0  0
    0.0203  101.0723   38.2161 O   0  0  0  0  0  0  0  0  0  0  0  0
   -1.6413  101.9989   39.4223 N   0  0  0  0  0  0  0  0  0  0  0  0
   -2.5156  101.9018   39.8644 H   0  0  0  0  0  0  0  0  0  0  0  0
   -1.6950   99.7390   38.7825 O   0  0  0  0  0  0  0  0  0  0  0  0
   -1.0998   98.8324   39.7205 C   0  0  0  0  0  0  0  0  0  0  0  0
   -2.8870   97.1846   39.0299 C   0  0  0  0  0  0  0  0  0  0  0  0
   -1.5666   97.4175   39.4446 C   0  0  0  0  0  0  0  0  0  0  0  0
   -0.6768   96.3375   39.6015 C   0  0  0  0  0  0  0  0  0  0  0  0
   -1.1104   95.0272   39.3482 C   0  0  0  0  0  0  0  0  0  0  0  0
   -2.4330   94.7990   38.9350 C   0  0  0  0  0  0  0  0  0  0  0  0
   -3.3222   95.8747   38.7750 C   0  0  0  0  0  0  0  0  0  0  0  0
   -1.5899  104.2692   38.4575 C   0  0  0  0  0  0  0  0  0  0  0  0
   -0.9749  104.1897   37.0619 C   0  0  0  0  0  0  0  0  0  0  0  0
   -1.0718  105.4793   36.4768 O   0  0  0  0  0  0  0  0  0  0  0  0
    0.0051  106.3021   36.8171 N   0  0  0  0  0  0  0  0  0  0  0  0
    0.0203  106.8019   37.6651 H   0  0  0  0  0  0  0  0  0  0  0  0
    1.0228  106.3832   35.9358 C   0  0  0  0  0  0  0  0  0  0  0  0
    0.9887  105.6754   34.7946 N   0  0  0  0  0  0  0  0  0  0  0  0
    2.0805  107.1678   36.1915 N   0  0  0  0  0  0  0  0  0  0  0  0
    1.7339  105.7377   34.1543 H   0  0  0  0  0  0  0  0  0  0  0  0
    2.8204  107.2229   35.5444 H   0  0  0  0  0  0  0  0  0  0  0  0
    2.1168  107.6885   37.0262 H   0  0  0  0  0  0  0  0  0  0  0  0
   -1.9486  102.6967   43.9658 C   0  0  0  0  0  0  0  0  0  0  0  0
   -0.8553  102.3796   44.4485 O   0  0  0  0  0  0  0  0  0  0  0  0
   -3.0634  101.9441   44.2484 N   0  0  0  0  0  0  0  0  0  0  0  0
   -3.9331  102.1917   43.8591 H   0  0  0  0  0  0  0  0  0  0  0  0
   -2.9637  100.7726   45.1280 C   0  0  0  0  0  0  0  0  0  0  0  0
   -2.4883   99.5524   44.3250 C   0  0  0  0  0  0  0  0  0  0  0  0
   -2.5058   98.4171   45.1903 O   0  0  0  0  0  0  0  0  0  0  0  0
   -3.4081   98.2726   45.5158 H   0  0  0  0  0  0  0  0  0  0  0  0
   -3.3875   99.3216   43.0972 C   0  0  0  0  0  0  0  0  0  0  0  0
   -3.7983   97.8251   43.0136 C   0  0  0  0  0  0  0  0  0  0  0  0
   -4.9447   97.4729   43.3001 O   0  0  0  0  0  0  0  0  0  0  0  0
   -2.8578   96.8892   42.6242 N   0  0  0  0  0  0  0  0  0  0  0  0
   -1.9488   97.1888   42.3937 H   0  0  0  0  0  0  0  0  0  0  0  0
   -3.1821   95.4592   42.5461 C   0  0  0  0  0  0  0  0  0  0  0  0
   -2.5176   94.7610   43.7460 C   0  0  0  0  0  0  0  0  0  0  0  0
   -3.6791   94.2324   44.5838 C   0  0  0  0  0  0  0  0  0  0  0  0
   -3.5728   94.2402   45.9779 C   0  0  0  0  0  0  0  0  0  0  0  0
   -4.6275   93.7339   46.7503 C   0  0  0  0  0  0  0  0  0  0  0  0
   -5.7741   93.2187   46.1244 C   0  0  0  0  0  0  0  0  0  0  0  0
   -5.8724   93.2049   44.7274 C   0  0  0  0  0  0  0  0  0  0  0  0
   -4.8198   93.7132   43.9573 C   0  0  0  0  0  0  0  0  0  0  0  0
   -4.3726  100.4693   45.6896 C   0  0  0  0  0  0  0  0  0  0  0  0
   -4.9106  101.5904   46.6010 C   0  0  0  0  0  0  0  0  0  0  0  0
   -6.2043  102.1687   45.9977 C   0  0  0  0  0  0  0  0  0  0  0  0
   -5.2086  101.0646   48.0195 C   0  0  0  0  0  0  0  0  0  0  0  0
   -3.4784  104.6099   43.2814 C   0  0  0  0  0  0  0  0  0  0  0  0
   -3.1630  106.0953   43.5769 C   0  0  0  0  0  0  0  0  0  0  0  0
   -4.3412  104.4857   42.0028 C   0  0  0  0  0  0  0  0  0  0  0  0
 25 24  2  0  0  0
 26 24  1  0  0  0
 16 17  2  0  0  0
 16 15  1  0  0  0
 24 22  1  0  0  0
 17 18  1  0  0  0
 15 14  2  0  0  0
 22 21  1  0  0  0
 21 20  1  0  0  0
 18 13  2  0  0  0
 20 19  1  0  0  0
 53 52  1  0  0  0
 14 13  1  0  0  0
 14 12  1  0  0  0
 54 52  1  0  0  0
 19  6  1  0  0  0
 52 51  1  0  0  0
 12 11  1  0  0  0
  6  9  1  0  0  0
  6  2  1  0  0  0
  9  7  1  0  0  0
  7  8  2  0  0  0
  7 11  1  0  0  0
 51 34  1  0  0  0
  2  4  1  0  0  0
  2  3  2  0  0  0
  4  1  1  0  0  0
 34 32  1  0  0  0
 34 35  1  0  0  0
 31 30  2  0  0  0
 32 30  1  0  0  0
 30  1  1  0  0  0
 35 36  1  0  0  0
 35 38  1  0  0  0
  1 55  1  0  0  0
 43 41  1  0  0  0
 43 44  1  0  0  0
 40 39  2  0  0  0
 41 39  1  0  0  0
 39 38  1  0  0  0
 55 57  1  0  0  0
 55 56  1  0  0  0
 44 45  1  0  0  0
 45 46  2  0  0  0
 45 50  1  0  0  0
 46 47  1  0  0  0
 50 49  2  0  0  0
 47 48  2  0  0  0
 49 48  1  0  0  0
  9 10  1  0  0  0
 22 23  1  0  0  0
 25 27  1  0  0  0
 26 28  1  0  0  0
 26 29  1  0  0  0
  4  5  1  0  0  0
 32 33  1  0  0  0
 36 37  1  0  0  0
 41 42  1  0  0  0
M  END
> <minimizedAffinity>
-9.06296

$$$$
4ZL4_4PK_A_501


 57 58  0  0  0  0  0  0  0  0999 V2000
   -4.2719  106.1123   42.9701 C   0  0  0  0  0  0  0  0  0  0  0  0
   -2.6606  107.8238   42.1831 C   0  0  0  0  0  0  0  0  0  0  0  0
   -3.0568  108.5715   43.0777 O   0  0  0  0  0  0  0  0  0  0  0  0
   -3.2395  106.5855   42.0562 N   0  0  0  0  0  0  0  0  0  0  0  0
   -2.9475  105.9970   41.3230 H   0  0  0  0  0  0  0  0  0  0  0  0
   -1.5272  108.1950   41.1892 C   0  0  0  0  0  0  0  0  0  0  0  0
   -0.7139  106.6327   39.4872 C   0  0  0  0  0  0  0  0  0  0  0  0
    0.2959  106.4742   40.1724 O   0  0  0  0  0  0  0  0  0  0  0  0
   -1.6941  107.4965   39.9103 N   0  0  0  0  0  0  0  0  0  0  0  0
   -2.4985  107.6449   39.3623 H   0  0  0  0  0  0  0  0  0  0  0  0
   -0.8717  105.9742   38.3211 O   0  0  0  0  0  0  0  0  0  0  0  0
   -1.2887  104.6199   38.5398 C   0  0  0  0  0  0  0  0  0  0  0  0
   -0.8324  104.4813   36.0581 C   0  0  0  0  0  0  0  0  0  0  0  0
   -1.2769  103.8542   37.2323 C   0  0  0  0  0  0  0  0  0  0  0  0
   -1.7087  102.5144   37.1951 C   0  0  0  0  0  0  0  0  0  0  0  0
   -1.6997  101.8066   35.9835 C   0  0  0  0  0  0  0  0  0  0  0  0
   -1.2557  102.4389   34.8109 C   0  0  0  0  0  0  0  0  0  0  0  0
   -0.8217  103.7746   34.8455 C   0  0  0  0  0  0  0  0  0  0  0  0
   -1.7022  109.7064   41.0076 C   0  0  0  0  0  0  0  0  0  0  0  0
   -0.4596  110.3680   40.4157 C   0  0  0  0  0  0  0  0  0  0  0  0
    0.6749  109.6920   40.9359 O   0  0  0  0  0  0  0  0  0  0  0  0
    1.5823  109.3263   39.9383 N   0  0  0  0  0  0  0  0  0  0  0  0
    1.2834  108.8874   39.1094 H   0  0  0  0  0  0  0  0  0  0  0  0
    2.8847  109.5995   40.1580 C   0  0  0  0  0  0  0  0  0  0  0  0
    3.3355  110.8621   40.0741 N   0  0  0  0  0  0  0  0  0  0  0  0
    3.7432  108.6134   40.4583 N   0  0  0  0  0  0  0  0  0  0  0  0
    4.2870  111.0568   40.2352 H   0  0  0  0  0  0  0  0  0  0  0  0
    4.6928  108.8190   40.6176 H   0  0  0  0  0  0  0  0  0  0  0  0
    3.4238  107.6842   40.5195 H   0  0  0  0  0  0  0  0  0  0  0  0
   -3.4848  105.0919   43.8440 C   0  0  0  0  0  0  0  0  0  0  0  0
   -2.7915  105.4592   44.7997 O   0  0  0  0  0  0  0  0  0  0  0  0
   -3.6025  103.7520   43.5613 N   0  0  0  0  0  0  0  0  0  0  0  0
   -4.1488  103.4589   42.7965 H   0  0  0  0  0  0  0  0  0  0  0  0
   -2.9175  102.7556   44.3944 C   0  0  0  0  0  0  0  0  0  0  0  0
   -1.5713  102.3766   43.7592 C   0  0  0  0  0  0  0  0  0  0  0  0
   -0.5694  102.4338   44.7745 O   0  0  0  0  0  0  0  0  0  0  0  0
   -0.7919  101.8107   45.4837 H   0  0  0  0  0  0  0  0  0  0  0  0
   -1.6386  100.9726   43.1319 C   0  0  0  0  0  0  0  0  0  0  0  0
   -1.2578  101.0446   41.6269 C   0  0  0  0  0  0  0  0  0  0  0  0
   -1.0451  102.1318   41.0855 O   0  0  0  0  0  0  0  0  0  0  0  0
   -1.1712   99.8732   40.8971 N   0  0  0  0  0  0  0  0  0  0  0  0
   -1.3388   99.0136   41.3469 H   0  0  0  0  0  0  0  0  0  0  0  0
   -0.8353   99.8804   39.4677 C   0  0  0  0  0  0  0  0  0  0  0  0
    0.0222   98.6349   39.1808 C   0  0  0  0  0  0  0  0  0  0  0  0
   -0.9760   97.4828   39.0996 C   0  0  0  0  0  0  0  0  0  0  0  0
   -0.6166   96.2324   39.6118 C   0  0  0  0  0  0  0  0  0  0  0  0
   -1.5213   95.1656   39.5181 C   0  0  0  0  0  0  0  0  0  0  0  0
   -2.7719   95.3549   38.9083 C   0  0  0  0  0  0  0  0  0  0  0  0
   -3.1241   96.6070   38.3888 C   0  0  0  0  0  0  0  0  0  0  0  0
   -2.2210   97.6721   38.4854 C   0  0  0  0  0  0  0  0  0  0  0  0
   -3.8023  101.4883   44.4569 C   0  0  0  0  0  0  0  0  0  0  0  0
   -3.9635  100.9377   45.8879 C   0  0  0  0  0  0  0  0  0  0  0  0
   -5.4294  101.0881   46.3359 C   0  0  0  0  0  0  0  0  0  0  0  0
   -3.5645   99.4504   45.9641 C   0  0  0  0  0  0  0  0  0  0  0  0
   -5.4432  105.4338   42.2575 C   0  0  0  0  0  0  0  0  0  0  0  0
   -6.6817  105.8148   43.1026 C   0  0  0  0  0  0  0  0  0  0  0  0
   -5.5898  105.9701   40.8134 C   0  0  0  0  0  0  0  0  0  0  0  0
 25 24  2  0  0  0
 26 24  1  0  0  0
 16 17  2  0  0  0
 16 15  1  0  0  0
 24 22  1  0  0  0
 17 18  1  0  0  0
 15 14  2  0  0  0
 22 21  1  0  0  0
 21 20  1  0  0  0
 18 13  2  0  0  0
 20 19  1  0  0  0
 53 52  1  0  0  0
 14 13  1  0  0  0
 14 12  1  0  0  0
 54 52  1  0  0  0
 19  6  1  0  0  0
 52 51  1  0  0  0
 12 11  1  0  0  0
  6  9  1  0  0  0
  6  2  1  0  0  0
  9  7  1  0  0  0
  7  8  2  0  0  0
  7 11  1  0  0  0
 51 34  1  0  0  0
  2  4  1  0  0  0
  2  3  2  0  0  0
  4  1  1  0  0  0
 34 32  1  0  0  0
 34 35  1  0  0  0
 31 30  2  0  0  0
 32 30  1  0  0  0
 30  1  1  0  0  0
 35 36  1  0  0  0
 35 38  1  0  0  0
  1 55  1  0  0  0
 43 41  1  0  0  0
 43 44  1  0  0  0
 40 39  2  0  0  0
 41 39  1  0  0  0
 39 38  1  0  0  0
 55 57  1  0  0  0
 55 56  1  0  0  0
 44 45  1  0  0  0
 45 46  2  0  0  0
 45 50  1  0  0  0
 46 47  1  0  0  0
 50 49  2  0  0  0
 47 48  2  0  0  0
 49 48  1  0  0  0
  9 10  1  0  0  0
 22 23  1  0  0  0
 25 27  1  0  0  0
 26 28  1  0  0  0
 26 29  1  0  0  0
  4  5  1  0  0  0
 32 33  1  0  0  0
 36 37  1  0  0  0
 41 42  1  0  0  0
M  END
> <minimizedAffinity>
-8.82190

$$$$
4ZL4_4PK_A_501


 57 58  0  0  0  0  0  0  0  0999 V2000
   -1.0643  101.0720   41.1306 C   0  0  0  0  0  0  0  0  0  0  0  0
   -2.1210  100.3003   43.2360 C   0  0  0  0  0  0  0  0  0  0  0  0
   -1.4722  101.1521   43.8440 O   0  0  0  0  0  0  0  0  0  0  0  0
   -1.9508  100.1888   41.8784 N   0  0  0  0  0  0  0  0  0  0  0  0
   -2.4442   99.4885   41.3932 H   0  0  0  0  0  0  0  0  0  0  0  0
   -3.1386   99.3451   43.9159 C   0  0  0  0  0  0  0  0  0  0  0  0
   -3.9796   97.1731   43.1579 C   0  0  0  0  0  0  0  0  0  0  0  0
   -5.1159   97.6436   43.1987 O   0  0  0  0  0  0  0  0  0  0  0  0
   -2.9073   97.9530   43.5159 N   0  0  0  0  0  0  0  0  0  0  0  0
   -1.9953   97.5825   43.5042 H   0  0  0  0  0  0  0  0  0  0  0  0
   -3.7697   95.8983   42.7717 O   0  0  0  0  0  0  0  0  0  0  0  0
   -2.4278   95.7102   42.3026 C   0  0  0  0  0  0  0  0  0  0  0  0
   -3.4386   96.5400   40.1402 C   0  0  0  0  0  0  0  0  0  0  0  0
   -2.3653   95.9261   40.8042 C   0  0  0  0  0  0  0  0  0  0  0  0
   -1.2312   95.5138   40.0784 C   0  0  0  0  0  0  0  0  0  0  0  0
   -1.1750   95.7118   38.6904 C   0  0  0  0  0  0  0  0  0  0  0  0
   -2.2521   96.3250   38.0302 C   0  0  0  0  0  0  0  0  0  0  0  0
   -3.3836   96.7398   38.7520 C   0  0  0  0  0  0  0  0  0  0  0  0
   -2.8523   99.5342   45.4092 C   0  0  0  0  0  0  0  0  0  0  0  0
   -4.1310   99.6661   46.2337 C   0  0  0  0  0  0  0  0  0  0  0  0
   -4.9604  100.6203   45.5885 O   0  0  0  0  0  0  0  0  0  0  0  0
   -5.3828  101.6325   46.4542 N   0  0  0  0  0  0  0  0  0  0  0  0
   -4.7457  102.2769   46.8390 H   0  0  0  0  0  0  0  0  0  0  0  0
   -6.6994  101.6901   46.7410 C   0  0  0  0  0  0  0  0  0  0  0  0
   -7.2111  100.9371   47.7287 N   0  0  0  0  0  0  0  0  0  0  0  0
   -7.5114  102.4965   46.0410 N   0  0  0  0  0  0  0  0  0  0  0  0
   -8.1728  100.9824   47.9345 H   0  0  0  0  0  0  0  0  0  0  0  0
   -8.4716  102.5343   46.2550 H   0  0  0  0  0  0  0  0  0  0  0  0
   -7.1470  103.0505   45.3132 H   0  0  0  0  0  0  0  0  0  0  0  0
   -1.8021  102.4386   41.2428 C   0  0  0  0  0  0  0  0  0  0  0  0
   -2.9362  102.6007   40.7775 O   0  0  0  0  0  0  0  0  0  0  0  0
   -1.1849  103.4689   41.9110 N   0  0  0  0  0  0  0  0  0  0  0  0
   -0.2792  103.3430   42.2760 H   0  0  0  0  0  0  0  0  0  0  0  0
   -1.8695  104.7564   42.0831 C   0  0  0  0  0  0  0  0  0  0  0  0
   -0.9828  105.8964   41.5601 C   0  0  0  0  0  0  0  0  0  0  0  0
    0.1416  105.3167   40.8987 O   0  0  0  0  0  0  0  0  0  0  0  0
   -0.1653  104.7664   40.1613 H   0  0  0  0  0  0  0  0  0  0  0  0
   -1.7723  106.8089   40.6044 C   0  0  0  0  0  0  0  0  0  0  0  0
   -1.0015  106.9682   39.2644 C   0  0  0  0  0  0  0  0  0  0  0  0
   -0.3115  107.9681   39.0533 O   0  0  0  0  0  0  0  0  0  0  0  0
   -1.1077  105.9786   38.3044 N   0  0  0  0  0  0  0  0  0  0  0  0
   -1.6585  105.1845   38.4920 H   0  0  0  0  0  0  0  0  0  0  0  0
   -0.4188  106.0836   37.0119 C   0  0  0  0  0  0  0  0  0  0  0  0
   -1.4632  105.8600   35.9038 C   0  0  0  0  0  0  0  0  0  0  0  0
   -1.2816  104.4039   35.4829 C   0  0  0  0  0  0  0  0  0  0  0  0
   -2.0042  103.4076   36.1463 C   0  0  0  0  0  0  0  0  0  0  0  0
   -1.8228  102.0670   35.7787 C   0  0  0  0  0  0  0  0  0  0  0  0
   -0.9175  101.7332   34.7585 C   0  0  0  0  0  0  0  0  0  0  0  0
   -0.1893  102.7339   34.1028 C   0  0  0  0  0  0  0  0  0  0  0  0
   -0.3734  104.0724   34.4689 C   0  0  0  0  0  0  0  0  0  0  0  0
   -2.1085  104.9776   43.5953 C   0  0  0  0  0  0  0  0  0  0  0  0
   -3.6036  104.9987   43.9709 C   0  0  0  0  0  0  0  0  0  0  0  0
   -4.3456  106.0093   43.0763 C   0  0  0  0  0  0  0  0  0  0  0  0
   -4.2447  103.6073   43.7964 C   0  0  0  0  0  0  0  0  0  0  0  0
   -0.8960  100.6593   39.6672 C   0  0  0  0  0  0  0  0  0  0  0  0
   -0.2738  101.9010   38.9856 C   0  0  0  0  0  0  0  0  0  0  0  0
    0.0551   99.4446   39.5472 C   0  0  0  0  0  0  0  0  0  0  0  0
 25 24  2  0  0  0
 26 24  1  0  0  0
 16 17  2  0  0  0
 16 15  1  0  0  0
 24 22  1  0  0  0
 17 18  1  0  0  0
 15 14  2  0  0  0
 22 21  1  0  0  0
 21 20  1  0  0  0
 18 13  2  0  0  0
 20 19  1  0  0  0
 53 52  1  0  0  0
 14 13  1  0  0  0
 14 12  1  0  0  0
 54 52  1  0  0  0
 19  6  1  0  0  0
 52 51  1  0  0  0
 12 11  1  0  0  0
  6  9  1  0  0  0
  6  2  1  0  0  0
  9  7  1  0  0  0
  7  8  2  0  0  0
  7 11  1  0  0  0
 51 34  1  0  0  0
  2  4  1  0  0  0
  2  3  2  0  0  0
  4  1  1  0  0  0
 34 32  1  0  0  0
 34 35  1  0  0  0
 31 30  2  0  0  0
 32 30  1  0  0  0
 30  1  1  0  0  0
 35 36  1  0  0  0
 35 38  1  0  0  0
  1 55  1  0  0  0
 43 41  1  0  0  0
 43 44  1  0  0  0
 40 39  2  0  0  0
 41 39  1  0  0  0
 39 38  1  0  0  0
 55 57  1  0  0  0
 55 56  1  0  0  0
 44 45  1  0  0  0
 45 46  2  0  0  0
 45 50  1  0  0  0
 46 47  1  0  0  0
 50 49  2  0  0  0
 47 48  2  0  0  0
 49 48  1  0  0  0
  9 10  1  0  0  0
 22 23  1  0  0  0
 25 27  1  0  0  0
 26 28  1  0  0  0
 26 29  1  0  0  0
  4  5  1  0  0  0
 32 33  1  0  0  0
 36 37  1  0  0  0
 41 42  1  0  0  0
M  END
> <minimizedAffinity>
-8.81333

$$$$
4ZL4_4PK_A_501


 57 58  0  0  0  0  0  0  0  0999 V2000
   -2.9336  105.3989   42.2585 C   0  0  0  0  0  0  0  0  0  0  0  0
   -1.2792  104.5385   40.6252 C   0  0  0  0  0  0  0  0  0  0  0  0
   -0.4386  105.2908   41.1189 O   0  0  0  0  0  0  0  0  0  0  0  0
   -2.5552  104.5555   41.1313 N   0  0  0  0  0  0  0  0  0  0  0  0
   -3.2380  103.9784   40.7190 H   0  0  0  0  0  0  0  0  0  0  0  0
   -0.9775  103.5540   39.4633 C   0  0  0  0  0  0  0  0  0  0  0  0
   -0.9639  101.1244   39.1535 C   0  0  0  0  0  0  0  0  0  0  0  0
    0.0004  101.2656   38.4024 O   0  0  0  0  0  0  0  0  0  0  0  0
   -1.5418  102.2273   39.7330 N   0  0  0  0  0  0  0  0  0  0  0  0
   -2.3247  102.1287   40.3218 H   0  0  0  0  0  0  0  0  0  0  0  0
   -1.4680   99.9010   39.4135 O   0  0  0  0  0  0  0  0  0  0  0  0
   -0.5844   98.8665   38.9606 C   0  0  0  0  0  0  0  0  0  0  0  0
   -2.6250   97.4212   38.5956 C   0  0  0  0  0  0  0  0  0  0  0  0
   -1.2871   97.5249   39.0066 C   0  0  0  0  0  0  0  0  0  0  0  0
   -0.5987   96.3827   39.4587 C   0  0  0  0  0  0  0  0  0  0  0  0
   -1.2509   95.1410   39.5034 C   0  0  0  0  0  0  0  0  0  0  0  0
   -2.5901   95.0426   39.0926 C   0  0  0  0  0  0  0  0  0  0  0  0
   -3.2786   96.1798   38.6386 C   0  0  0  0  0  0  0  0  0  0  0  0
   -1.6737  104.2050   38.2636 C   0  0  0  0  0  0  0  0  0  0  0  0
   -0.6796  104.7756   37.2544 C   0  0  0  0  0  0  0  0  0  0  0  0
   -0.9498  104.1721   35.9984 O   0  0  0  0  0  0  0  0  0  0  0  0
   -0.4753  102.8600   35.9236 N   0  0  0  0  0  0  0  0  0  0  0  0
    0.3557  102.5888   36.3765 H   0  0  0  0  0  0  0  0  0  0  0  0
   -1.2028  101.9803   35.2053 C   0  0  0  0  0  0  0  0  0  0  0  0
   -1.1330  100.6658   35.4726 N   0  0  0  0  0  0  0  0  0  0  0  0
   -1.9999  102.4085   34.2148 N   0  0  0  0  0  0  0  0  0  0  0  0
   -1.6658  100.0273   34.9456 H   0  0  0  0  0  0  0  0  0  0  0  0
   -2.5285  101.7616   33.6939 H   0  0  0  0  0  0  0  0  0  0  0  0
   -2.0561  103.3695   34.0088 H   0  0  0  0  0  0  0  0  0  0  0  0
   -2.8050  104.4120   43.4561 C   0  0  0  0  0  0  0  0  0  0  0  0
   -1.8978  104.5215   44.2891 O   0  0  0  0  0  0  0  0  0  0  0  0
   -3.7502  103.4249   43.6021 N   0  0  0  0  0  0  0  0  0  0  0  0
   -4.4690  103.3325   42.9358 H   0  0  0  0  0  0  0  0  0  0  0  0
   -3.6931  102.5073   44.7471 C   0  0  0  0  0  0  0  0  0  0  0  0
   -2.8427  101.2782   44.3928 C   0  0  0  0  0  0  0  0  0  0  0  0
   -1.5174  101.5014   44.8739 O   0  0  0  0  0  0  0  0  0  0  0  0
   -1.5394  101.6270   45.8355 H   0  0  0  0  0  0  0  0  0  0  0  0
   -3.4434  100.0018   45.0086 C   0  0  0  0  0  0  0  0  0  0  0  0
   -3.6042   98.9094   43.9149 C   0  0  0  0  0  0  0  0  0  0  0  0
   -3.3134   99.1502   42.7411 O   0  0  0  0  0  0  0  0  0  0  0  0
   -4.0893   97.6648   44.2721 N   0  0  0  0  0  0  0  0  0  0  0  0
   -4.3113   97.4882   45.2149 H   0  0  0  0  0  0  0  0  0  0  0  0
   -4.2815   96.6001   43.2793 C   0  0  0  0  0  0  0  0  0  0  0  0
   -3.3415   95.4387   43.6487 C   0  0  0  0  0  0  0  0  0  0  0  0
   -4.1436   94.5809   44.6240 C   0  0  0  0  0  0  0  0  0  0  0  0
   -5.3212   93.9689   44.1839 C   0  0  0  0  0  0  0  0  0  0  0  0
   -6.0732   93.1997   45.0828 C   0  0  0  0  0  0  0  0  0  0  0  0
   -5.6471   93.0546   46.4128 C   0  0  0  0  0  0  0  0  0  0  0  0
   -4.4715   93.6769   46.8516 C   0  0  0  0  0  0  0  0  0  0  0  0
   -3.7200   94.4425   45.9523 C   0  0  0  0  0  0  0  0  0  0  0  0
   -5.1322  102.0329   45.0577 C   0  0  0  0  0  0  0  0  0  0  0  0
   -5.8129  102.8623   46.1648 C   0  0  0  0  0  0  0  0  0  0  0  0
   -7.2748  103.1457   45.7713 C   0  0  0  0  0  0  0  0  0  0  0  0
   -5.7907  102.1190   47.5154 C   0  0  0  0  0  0  0  0  0  0  0  0
   -4.3580  105.9461   42.1507 C   0  0  0  0  0  0  0  0  0  0  0  0
   -4.4106  107.0916   43.1893 C   0  0  0  0  0  0  0  0  0  0  0  0
   -4.6273  106.4943   40.7289 C   0  0  0  0  0  0  0  0  0  0  0  0
 25 24  2  0  0  0
 26 24  1  0  0  0
 16 17  2  0  0  0
 16 15  1  0  0  0
 24 22  1  0  0  0
 17 18  1  0  0  0
 15 14  2  0  0  0
 22 21  1  0  0  0
 21 20  1  0  0  0
 18 13  2  0  0  0
 20 19  1  0  0  0
 53 52  1  0  0  0
 14 13  1  0  0  0
 14 12  1  0  0  0
 54 52  1  0  0  0
 19  6  1  0  0  0
 52 51  1  0  0  0
 12 11  1  0  0  0
  6  9  1  0  0  0
  6  2  1  0  0  0
  9  7  1  0  0  0
  7  8  2  0  0  0
  7 11  1  0  0  0
 51 34  1  0  0  0
  2  4  1  0  0  0
  2  3  2  0  0  0
  4  1  1  0  0  0
 34 32  1  0  0  0
 34 35  1  0  0  0
 31 30  2  0  0  0
 32 30  1  0  0  0
 30  1  1  0  0  0
 35 36  1  0  0  0
 35 38  1  0  0  0
  1 55  1  0  0  0
 43 41  1  0  0  0
 43 44  1  0  0  0
 40 39  2  0  0  0
 41 39  1  0  0  0
 39 38  1  0  0  0
 55 57  1  0  0  0
 55 56  1  0  0  0
 44 45  1  0  0  0
 45 46  2  0  0  0
 45 50  1  0  0  0
 46 47  1  0  0  0
 50 49  2  0  0  0
 47 48  2  0  0  0
 49 48  1  0  0  0
  9 10  1  0  0  0
 22 23  1  0  0  0
 25 27  1  0  0  0
 26 28  1  0  0  0
 26 29  1  0  0  0
  4  5  1  0  0  0
 32 33  1  0  0  0
 36 37  1  0  0  0
 41 42  1  0  0  0
M  END
> <minimizedAffinity>
-8.74606

$$$$
4ZL4_4PK_A_501


 57 58  0  0  0  0  0  0  0  0999 V2000
   -1.6941   96.2826   40.0996 C   0  0  0  0  0  0  0  0  0  0  0  0
   -2.3579   96.3170   42.4877 C   0  0  0  0  0  0  0  0  0  0  0  0
   -1.7083   95.2846   42.6568 O   0  0  0  0  0  0  0  0  0  0  0  0
   -2.4131   96.8606   41.2283 N   0  0  0  0  0  0  0  0  0  0  0  0
   -2.9568   97.6683   41.0825 H   0  0  0  0  0  0  0  0  0  0  0  0
   -3.1144   97.0547   43.6252 C   0  0  0  0  0  0  0  0  0  0  0  0
   -3.2673   99.4062   44.2933 C   0  0  0  0  0  0  0  0  0  0  0  0
   -3.0642   99.0485   45.4531 O   0  0  0  0  0  0  0  0  0  0  0  0
   -3.3243   98.4677   43.2923 N   0  0  0  0  0  0  0  0  0  0  0  0
   -3.5037   98.7398   42.3633 H   0  0  0  0  0  0  0  0  0  0  0  0
   -3.4413  100.7083   43.9889 O   0  0  0  0  0  0  0  0  0  0  0  0
   -3.5818  101.5057   45.1723 C   0  0  0  0  0  0  0  0  0  0  0  0
   -5.0613  103.2748   44.1391 C   0  0  0  0  0  0  0  0  0  0  0  0
   -4.8777  102.2891   45.1211 C   0  0  0  0  0  0  0  0  0  0  0  0
   -5.8981  102.0274   46.0556 C   0  0  0  0  0  0  0  0  0  0  0  0
   -7.0971  102.7549   46.0091 C   0  0  0  0  0  0  0  0  0  0  0  0
   -7.2754  103.7413   45.0257 C   0  0  0  0  0  0  0  0  0  0  0  0
   -6.2603  104.0027   44.0904 C   0  0  0  0  0  0  0  0  0  0  0  0
   -4.4518   96.3105   43.6959 C   0  0  0  0  0  0  0  0  0  0  0  0
   -4.4747   95.2611   44.8053 C   0  0  0  0  0  0  0  0  0  0  0  0
   -5.5891   94.4139   44.5708 O   0  0  0  0  0  0  0  0  0  0  0  0
   -5.3148   93.0765   44.8684 N   0  0  0  0  0  0  0  0  0  0  0  0
   -4.4867   92.8139   45.3314 H   0  0  0  0  0  0  0  0  0  0  0  0
   -6.2315   92.1603   44.4953 C   0  0  0  0  0  0  0  0  0  0  0  0
   -5.9181   91.2182   43.5905 N   0  0  0  0  0  0  0  0  0  0  0  0
   -7.4657   92.1828   45.0205 N   0  0  0  0  0  0  0  0  0  0  0  0
   -6.5905   90.5514   43.3211 H   0  0  0  0  0  0  0  0  0  0  0  0
   -8.1306   91.5113   44.7442 H   0  0  0  0  0  0  0  0  0  0  0  0
   -7.7066   92.8707   45.6822 H   0  0  0  0  0  0  0  0  0  0  0  0
   -0.8575   97.4955   39.5960 C   0  0  0  0  0  0  0  0  0  0  0  0
    0.3435   97.3836   39.3239 O   0  0  0  0  0  0  0  0  0  0  0  0
   -1.4884   98.7032   39.4161 N   0  0  0  0  0  0  0  0  0  0  0  0
   -2.4430   98.7951   39.6388 H   0  0  0  0  0  0  0  0  0  0  0  0
   -0.7457   99.8570   38.8934 C   0  0  0  0  0  0  0  0  0  0  0  0
   -0.2670  100.7424   40.0537 C   0  0  0  0  0  0  0  0  0  0  0  0
   -0.2722  102.0988   39.6087 O   0  0  0  0  0  0  0  0  0  0  0  0
   -1.1717  102.3494   39.3458 H   0  0  0  0  0  0  0  0  0  0  0  0
   -1.1715  100.5648   41.2864 C   0  0  0  0  0  0  0  0  0  0  0  0
   -1.8015  101.9289   41.6838 C   0  0  0  0  0  0  0  0  0  0  0  0
   -2.8569  102.3054   41.1693 O   0  0  0  0  0  0  0  0  0  0  0  0
   -1.1571  102.7227   42.6148 N   0  0  0  0  0  0  0  0  0  0  0  0
   -0.3182  102.4038   43.0195 H   0  0  0  0  0  0  0  0  0  0  0  0
   -1.6939  104.0297   43.0144 C   0  0  0  0  0  0  0  0  0  0  0  0
   -1.0141  105.1021   42.1446 C   0  0  0  0  0  0  0  0  0  0  0  0
   -2.1267  105.6441   41.2508 C   0  0  0  0  0  0  0  0  0  0  0  0
   -1.8839  105.8073   39.8836 C   0  0  0  0  0  0  0  0  0  0  0  0
   -2.8951  106.3268   39.0633 C   0  0  0  0  0  0  0  0  0  0  0  0
   -4.1353  106.6848   39.6160 C   0  0  0  0  0  0  0  0  0  0  0  0
   -4.3710  106.5278   40.9877 C   0  0  0  0  0  0  0  0  0  0  0  0
   -3.3614  106.0064   41.8052 C   0  0  0  0  0  0  0  0  0  0  0  0
   -1.7046  100.6876   38.0083 C   0  0  0  0  0  0  0  0  0  0  0  0
   -1.8543  100.1166   36.5841 C   0  0  0  0  0  0  0  0  0  0  0  0
   -3.2344   99.4484   36.4391 C   0  0  0  0  0  0  0  0  0  0  0  0
   -1.7173  101.2236   35.5196 C   0  0  0  0  0  0  0  0  0  0  0  0
   -2.6192   95.7609   38.9987 C   0  0  0  0  0  0  0  0  0  0  0  0
   -3.9440   96.5311   39.2112 C   0  0  0  0  0  0  0  0  0  0  0  0
   -2.0338   96.0704   37.6000 C   0  0  0  0  0  0  0  0  0  0  0  0
 25 24  2  0  0  0
 26 24  1  0  0  0
 16 17  2  0  0  0
 16 15  1  0  0  0
 24 22  1  0  0  0
 17 18  1  0  0  0
 15 14  2  0  0  0
 22 21  1  0  0  0
 21 20  1  0  0  0
 18 13  2  0  0  0
 20 19  1  0  0  0
 53 52  1  0  0  0
 14 13  1  0  0  0
 14 12  1  0  0  0
 54 52  1  0  0  0
 19  6  1  0  0  0
 52 51  1  0  0  0
 12 11  1  0  0  0
  6  9  1  0  0  0
  6  2  1  0  0  0
  9  7  1  0  0  0
  7  8  2  0  0  0
  7 11  1  0  0  0
 51 34  1  0  0  0
  2  4  1  0  0  0
  2  3  2  0  0  0
  4  1  1  0  0  0
 34 32  1  0  0  0
 34 35  1  0  0  0
 31 30  2  0  0  0
 32 30  1  0  0  0
 30  1  1  0  0  0
 35 36  1  0  0  0
 35 38  1  0  0  0
  1 55  1  0  0  0
 43 41  1  0  0  0
 43 44  1  0  0  0
 40 39  2  0  0  0
 41 39  1  0  0  0
 39 38  1  0  0  0
 55 57  1  0  0  0
 55 56  1  0  0  0
 44 45  1  0  0  0
 45 46  2  0  0  0
 45 50  1  0  0  0
 46 47  1  0  0  0
 50 49  2  0  0  0
 47 48  2  0  0  0
 49 48  1  0  0  0
  9 10  1  0  0  0
 22 23  1  0  0  0
 25 27  1  0  0  0
 26 28  1  0  0  0
 26 29  1  0  0  0
  4  5  1  0  0  0
 32 33  1  0  0  0
 36 37  1  0  0  0
 41 42  1  0  0  0
M  END
> <minimizedAffinity>
-8.74134

$$$$
4ZL4_4PK_A_501


 57 58  0  0  0  0  0  0  0  0999 V2000
   -4.6790  104.7165   43.2075 C   0  0  0  0  0  0  0  0  0  0  0  0
   -2.5010  105.4601   42.2865 C   0  0  0  0  0  0  0  0  0  0  0  0
   -2.5105  106.3953   43.0875 O   0  0  0  0  0  0  0  0  0  0  0  0
   -3.5650  104.5927   42.2755 N   0  0  0  0  0  0  0  0  0  0  0  0
   -3.5760  103.8621   41.6156 H   0  0  0  0  0  0  0  0  0  0  0  0
   -1.3424  105.1927   41.2884 C   0  0  0  0  0  0  0  0  0  0  0  0
   -1.5588  102.8494   40.6094 C   0  0  0  0  0  0  0  0  0  0  0  0
   -1.0831  102.5313   41.6987 O   0  0  0  0  0  0  0  0  0  0  0  0
   -1.7191  104.1776   40.2990 N   0  0  0  0  0  0  0  0  0  0  0  0
   -2.0822  104.4448   39.4238 H   0  0  0  0  0  0  0  0  0  0  0  0
   -1.9212  101.9122   39.7100 O   0  0  0  0  0  0  0  0  0  0  0  0
   -0.8133  101.5244   38.8865 C   0  0  0  0  0  0  0  0  0  0  0  0
   -1.1973  100.8023   36.4954 C   0  0  0  0  0  0  0  0  0  0  0  0
   -1.1082  101.8414   37.4345 C   0  0  0  0  0  0  0  0  0  0  0  0
   -1.2953  103.1764   37.0274 C   0  0  0  0  0  0  0  0  0  0  0  0
   -1.5660  103.4695   35.6821 C   0  0  0  0  0  0  0  0  0  0  0  0
   -1.6525  102.4265   34.7459 C   0  0  0  0  0  0  0  0  0  0  0  0
   -1.4691  101.0934   35.1495 C   0  0  0  0  0  0  0  0  0  0  0  0
   -1.1383  106.5545   40.6163 C   0  0  0  0  0  0  0  0  0  0  0  0
    0.3389  106.9055   40.4517 C   0  0  0  0  0  0  0  0  0  0  0  0
    0.4102  108.1619   39.7952 O   0  0  0  0  0  0  0  0  0  0  0  0
    1.6923  108.4411   39.3148 N   0  0  0  0  0  0  0  0  0  0  0  0
    1.9968  108.1048   38.4411 H   0  0  0  0  0  0  0  0  0  0  0  0
    2.4954  109.1904   40.0975 C   0  0  0  0  0  0  0  0  0  0  0  0
    1.9810  110.1829   40.8424 N   0  0  0  0  0  0  0  0  0  0  0  0
    3.8155  108.9550   40.1371 N   0  0  0  0  0  0  0  0  0  0  0  0
    2.5711  110.7273   41.4122 H   0  0  0  0  0  0  0  0  0  0  0  0
    4.3967  109.5053   40.7103 H   0  0  0  0  0  0  0  0  0  0  0  0
    4.2030  108.2319   39.5929 H   0  0  0  0  0  0  0  0  0  0  0  0
   -4.1901  103.8558   44.4094 C   0  0  0  0  0  0  0  0  0  0  0  0
   -3.9569  104.3612   45.5135 O   0  0  0  0  0  0  0  0  0  0  0  0
   -4.0562  102.4987   44.2381 N   0  0  0  0  0  0  0  0  0  0  0  0
   -4.2351  102.0961   43.3576 H   0  0  0  0  0  0  0  0  0  0  0  0
   -3.6477  101.6462   45.3617 C   0  0  0  0  0  0  0  0  0  0  0  0
   -2.6773  100.5611   44.8716 C   0  0  0  0  0  0  0  0  0  0  0  0
   -2.7900   99.4373   45.7447 O   0  0  0  0  0  0  0  0  0  0  0  0
   -3.7009   99.1043   45.7270 H   0  0  0  0  0  0  0  0  0  0  0  0
   -2.9917  100.1621   43.4187 C   0  0  0  0  0  0  0  0  0  0  0  0
   -3.5564   98.7148   43.3757 C   0  0  0  0  0  0  0  0  0  0  0  0
   -4.7202   98.4860   43.7128 O   0  0  0  0  0  0  0  0  0  0  0  0
   -2.7333   97.6824   42.9651 N   0  0  0  0  0  0  0  0  0  0  0  0
   -1.8085   97.8842   42.6943 H   0  0  0  0  0  0  0  0  0  0  0  0
   -3.2051   96.2925   42.9234 C   0  0  0  0  0  0  0  0  0  0  0  0
   -2.1100   95.4452   42.2513 C   0  0  0  0  0  0  0  0  0  0  0  0
   -2.1919   95.8035   40.7697 C   0  0  0  0  0  0  0  0  0  0  0  0
   -1.0347   95.7375   39.9877 C   0  0  0  0  0  0  0  0  0  0  0  0
   -1.1007   96.0884   38.6320 C   0  0  0  0  0  0  0  0  0  0  0  0
   -2.3180   96.5082   38.0720 C   0  0  0  0  0  0  0  0  0  0  0  0
   -3.4727   96.5813   38.8614 C   0  0  0  0  0  0  0  0  0  0  0  0
   -3.4061   96.2280   40.2143 C   0  0  0  0  0  0  0  0  0  0  0  0
   -4.9105  100.9538   45.9262 C   0  0  0  0  0  0  0  0  0  0  0  0
   -5.5298  101.7114   47.1176 C   0  0  0  0  0  0  0  0  0  0  0  0
   -6.9222  102.2396   46.7247 C   0  0  0  0  0  0  0  0  0  0  0  0
   -5.6685  100.7975   48.3516 C   0  0  0  0  0  0  0  0  0  0  0  0
   -5.9963  104.1766   42.6477 C   0  0  0  0  0  0  0  0  0  0  0  0
   -7.0338  104.4632   43.7589 C   0  0  0  0  0  0  0  0  0  0  0  0
   -6.3820  104.9180   41.3453 C   0  0  0  0  0  0  0  0  0  0  0  0
 25 24  2  0  0  0
 26 24  1  0  0  0
 16 17  2  0  0  0
 16 15  1  0  0  0
 24 22  1  0  0  0
 17 18  1  0  0  0
 15 14  2  0  0  0
 22 21  1  0  0  0
 21 20  1  0  0  0
 18 13  2  0  0  0
 20 19  1  0  0  0
 53 52  1  0  0  0
 14 13  1  0  0  0
 14 12  1  0  0  0
 54 52  1  0  0  0
 19  6  1  0  0  0
 52 51  1  0  0  0
 12 11  1  0  0  0
  6  9  1  0  0  0
  6  2  1  0  0  0
  9  7  1  0  0  0
  7  8  2  0  0  0
  7 11  1  0  0  0
 51 34  1  0  0  0
  2  4  1  0  0  0
  2  3  2  0  0  0
  4  1  1  0  0  0
 34 32  1  0  0  0
 34 35  1  0  0  0
 31 30  2  0  0  0
 32 30  1  0  0  0
 30  1  1  0  0  0
 35 36  1  0  0  0
 35 38  1  0  0  0
  1 55  1  0  0  0
 43 41  1  0  0  0
 43 44  1  0  0  0
 40 39  2  0  0  0
 41 39  1  0  0  0
 39 38  1  0  0  0
 55 57  1  0  0  0
 55 56  1  0  0  0
 44 45  1  0  0  0
 45 46  2  0  0  0
 45 50  1  0  0  0
 46 47  1  0  0  0
 50 49  2  0  0  0
 47 48  2  0  0  0
 49 48  1  0  0  0
  9 10  1  0  0  0
 22 23  1  0  0  0
 25 27  1  0  0  0
 26 28  1  0  0  0
 26 29  1  0  0  0
  4  5  1  0  0  0
 32 33  1  0  0  0
 36 37  1  0  0  0
 41 42  1  0  0  0
M  END
> <minimizedAffinity>
-8.56473

$$$$
4ZL4_4PK_A_501


 57 58  0  0  0  0  0  0  0  0999 V2000
   -1.1141  101.0356   40.9460 C   0  0  0  0  0  0  0  0  0  0  0  0
   -2.1383  100.3110   43.0839 C   0  0  0  0  0  0  0  0  0  0  0  0
   -1.4491  101.1476   43.6682 O   0  0  0  0  0  0  0  0  0  0  0  0
   -2.0065  100.1845   41.7233 N   0  0  0  0  0  0  0  0  0  0  0  0
   -2.5326   99.4955   41.2566 H   0  0  0  0  0  0  0  0  0  0  0  0
   -3.1655   99.3912   43.7973 C   0  0  0  0  0  0  0  0  0  0  0  0
   -3.8875   97.1456   43.1376 C   0  0  0  0  0  0  0  0  0  0  0  0
   -5.0266   97.5929   43.0089 O   0  0  0  0  0  0  0  0  0  0  0  0
   -2.8730   97.9759   43.5469 N   0  0  0  0  0  0  0  0  0  0  0  0
   -1.9612   97.6257   43.6705 H   0  0  0  0  0  0  0  0  0  0  0  0
   -3.6192   95.8478   42.8883 O   0  0  0  0  0  0  0  0  0  0  0  0
   -2.2986   95.6819   42.3549 C   0  0  0  0  0  0  0  0  0  0  0  0
   -3.4487   96.4248   40.2309 C   0  0  0  0  0  0  0  0  0  0  0  0
   -2.3160   95.8769   40.8524 C   0  0  0  0  0  0  0  0  0  0  0  0
   -1.1965   95.5114   40.0803 C   0  0  0  0  0  0  0  0  0  0  0  0
   -1.2142   95.6899   38.6886 C   0  0  0  0  0  0  0  0  0  0  0  0
   -2.3505   96.2370   38.0711 C   0  0  0  0  0  0  0  0  0  0  0  0
   -3.4678   96.6052   38.8391 C   0  0  0  0  0  0  0  0  0  0  0  0
   -2.9697   99.7308   45.2786 C   0  0  0  0  0  0  0  0  0  0  0  0
   -4.0729  100.6392   45.8171 C   0  0  0  0  0  0  0  0  0  0  0  0
   -3.9190  100.7111   47.2263 O   0  0  0  0  0  0  0  0  0  0  0  0
   -5.1000  100.4072   47.9084 N   0  0  0  0  0  0  0  0  0  0  0  0
   -5.6765   99.6602   47.6274 H   0  0  0  0  0  0  0  0  0  0  0  0
   -5.4177  101.1794   48.9675 C   0  0  0  0  0  0  0  0  0  0  0  0
   -5.6142  102.4988   48.8092 N   0  0  0  0  0  0  0  0  0  0  0  0
   -5.5367  100.6389   50.1895 N   0  0  0  0  0  0  0  0  0  0  0  0
   -5.8459  103.0586   49.5852 H   0  0  0  0  0  0  0  0  0  0  0  0
   -5.7687  101.2077   50.9589 H   0  0  0  0  0  0  0  0  0  0  0  0
   -5.3919   99.6735   50.3170 H   0  0  0  0  0  0  0  0  0  0  0  0
   -1.8259  102.4174   41.0384 C   0  0  0  0  0  0  0  0  0  0  0  0
   -2.9581  102.5933   40.5734 O   0  0  0  0  0  0  0  0  0  0  0  0
   -1.1876  103.4464   41.6885 N   0  0  0  0  0  0  0  0  0  0  0  0
   -0.2834  103.3094   42.0531 H   0  0  0  0  0  0  0  0  0  0  0  0
   -1.8476  104.7491   41.8419 C   0  0  0  0  0  0  0  0  0  0  0  0
   -1.1276  105.8057   40.9907 C   0  0  0  0  0  0  0  0  0  0  0  0
    0.2602  105.4733   40.9506 O   0  0  0  0  0  0  0  0  0  0  0  0
    0.3708  104.5940   40.5563 H   0  0  0  0  0  0  0  0  0  0  0  0
   -1.7207  105.8615   39.5714 C   0  0  0  0  0  0  0  0  0  0  0  0
   -1.4622  107.2589   38.9424 C   0  0  0  0  0  0  0  0  0  0  0  0
   -2.3888  107.9043   38.4471 O   0  0  0  0  0  0  0  0  0  0  0  0
   -0.1760  107.7665   38.9342 N   0  0  0  0  0  0  0  0  0  0  0  0
    0.5508  107.2400   39.3391 H   0  0  0  0  0  0  0  0  0  0  0  0
    0.1321  109.0717   38.3363 C   0  0  0  0  0  0  0  0  0  0  0  0
    1.2504  109.7189   39.1727 C   0  0  0  0  0  0  0  0  0  0  0  0
    0.5239  110.4475   40.3005 C   0  0  0  0  0  0  0  0  0  0  0  0
   -0.6875  111.0900   40.0274 C   0  0  0  0  0  0  0  0  0  0  0  0
   -1.3460  111.7802   41.0547 C   0  0  0  0  0  0  0  0  0  0  0  0
   -0.7862  111.8285   42.3416 C   0  0  0  0  0  0  0  0  0  0  0  0
    0.4320  111.1909   42.6082 C   0  0  0  0  0  0  0  0  0  0  0  0
    1.0872  110.4998   41.5823 C   0  0  0  0  0  0  0  0  0  0  0  0
   -1.7488  105.1682   43.3276 C   0  0  0  0  0  0  0  0  0  0  0  0
   -3.1271  105.3712   43.9879 C   0  0  0  0  0  0  0  0  0  0  0  0
   -3.6436  106.7886   43.6773 C   0  0  0  0  0  0  0  0  0  0  0  0
   -4.1514  104.3392   43.4751 C   0  0  0  0  0  0  0  0  0  0  0  0
   -0.9721  100.5894   39.4897 C   0  0  0  0  0  0  0  0  0  0  0  0
   -0.1813  101.7330   38.8113 C   0  0  0  0  0  0  0  0  0  0  0  0
   -0.1838   99.2608   39.3990 C   0  0  0  0  0  0  0  0  0  0  0  0
 25 24  2  0  0  0
 26 24  1  0  0  0
 16 17  2  0  0  0
 16 15  1  0  0  0
 24 22  1  0  0  0
 17 18  1  0  0  0
 15 14  2  0  0  0
 22 21  1  0  0  0
 21 20  1  0  0  0
 18 13  2  0  0  0
 20 19  1  0  0  0
 53 52  1  0  0  0
 14 13  1  0  0  0
 14 12  1  0  0  0
 54 52  1  0  0  0
 19  6  1  0  0  0
 52 51  1  0  0  0
 12 11  1  0  0  0
  6  9  1  0  0  0
  6  2  1  0  0  0
  9  7  1  0  0  0
  7  8  2  0  0  0
  7 11  1  0  0  0
 51 34  1  0  0  0
  2  4  1  0  0  0
  2  3  2  0  0  0
  4  1  1  0  0  0
 34 32  1  0  0  0
 34 35  1  0  0  0
 31 30  2  0  0  0
 32 30  1  0  0  0
 30  1  1  0  0  0
 35 36  1  0  0  0
 35 38  1  0  0  0
  1 55  1  0  0  0
 43 41  1  0  0  0
 43 44  1  0  0  0
 40 39  2  0  0  0
 41 39  1  0  0  0
 39 38  1  0  0  0
 55 57  1  0  0  0
 55 56  1  0  0  0
 44 45  1  0  0  0
 45 46  2  0  0  0
 45 50  1  0  0  0
 46 47  1  0  0  0
 50 49  2  0  0  0
 47 48  2  0  0  0
 49 48  1  0  0  0
  9 10  1  0  0  0
 22 23  1  0  0  0
 25 27  1  0  0  0
 26 28  1  0  0  0
 26 29  1  0  0  0
  4  5  1  0  0  0
 32 33  1  0  0  0
 36 37  1  0  0  0
 41 42  1  0  0  0
M  END
> <minimizedAffinity>
-8.45905

$$$$
4ZL4_4PK_A_501


 57 58  0  0  0  0  0  0  0  0999 V2000
   -1.1281  101.0942   40.7150 C   0  0  0  0  0  0  0  0  0  0  0  0
   -2.0012  100.4242   42.9362 C   0  0  0  0  0  0  0  0  0  0  0  0
   -1.2039  101.2049   43.4568 O   0  0  0  0  0  0  0  0  0  0  0  0
   -2.0038  100.3011   41.5689 N   0  0  0  0  0  0  0  0  0  0  0  0
   -2.6180   99.6552   41.1508 H   0  0  0  0  0  0  0  0  0  0  0  0
   -3.0217   99.5728   43.7387 C   0  0  0  0  0  0  0  0  0  0  0  0
   -3.8805   97.3413   43.2076 C   0  0  0  0  0  0  0  0  0  0  0  0
   -5.0065   97.8334   43.1438 O   0  0  0  0  0  0  0  0  0  0  0  0
   -2.8061   98.1390   43.5165 N   0  0  0  0  0  0  0  0  0  0  0  0
   -1.9030   97.7536   43.5878 H   0  0  0  0  0  0  0  0  0  0  0  0
   -3.6842   96.0260   42.9842 O   0  0  0  0  0  0  0  0  0  0  0  0
   -2.3768   95.7776   42.4505 C   0  0  0  0  0  0  0  0  0  0  0  0
   -3.5002   96.4730   40.2963 C   0  0  0  0  0  0  0  0  0  0  0  0
   -2.4047   95.8757   40.9387 C   0  0  0  0  0  0  0  0  0  0  0  0
   -1.3320   95.3709   40.1787 C   0  0  0  0  0  0  0  0  0  0  0  0
   -1.3596   95.4599   38.7786 C   0  0  0  0  0  0  0  0  0  0  0  0
   -2.4588   96.0568   38.1403 C   0  0  0  0  0  0  0  0  0  0  0  0
   -3.5290   96.5638   38.8959 C   0  0  0  0  0  0  0  0  0  0  0  0
   -2.7213   99.9464   45.1940 C   0  0  0  0  0  0  0  0  0  0  0  0
   -3.9352   99.7650   46.1027 C   0  0  0  0  0  0  0  0  0  0  0  0
   -4.2484  101.0334   46.6577 O   0  0  0  0  0  0  0  0  0  0  0  0
   -5.6216  101.2091   46.8464 N   0  0  0  0  0  0  0  0  0  0  0  0
   -6.2319  101.3346   46.0842 H   0  0  0  0  0  0  0  0  0  0  0  0
   -6.0766  101.1996   48.1160 C   0  0  0  0  0  0  0  0  0  0  0  0
   -5.4498  101.9137   49.0655 N   0  0  0  0  0  0  0  0  0  0  0  0
   -7.1565  100.4746   48.4441 N   0  0  0  0  0  0  0  0  0  0  0  0
   -5.7855  101.9038   49.9910 H   0  0  0  0  0  0  0  0  0  0  0  0
   -7.4840  100.4716   49.3725 H   0  0  0  0  0  0  0  0  0  0  0  0
   -7.6216   99.9454   47.7564 H   0  0  0  0  0  0  0  0  0  0  0  0
   -1.8646  102.4657   40.6843 C   0  0  0  0  0  0  0  0  0  0  0  0
   -3.0776  102.5529   40.9079 O   0  0  0  0  0  0  0  0  0  0  0  0
   -1.1321  103.6029   40.4408 N   0  0  0  0  0  0  0  0  0  0  0  0
   -0.1675  103.5340   40.2559 H   0  0  0  0  0  0  0  0  0  0  0  0
   -1.7810  104.9200   40.4551 C   0  0  0  0  0  0  0  0  0  0  0  0
   -1.5444  105.6361   39.1169 C   0  0  0  0  0  0  0  0  0  0  0  0
   -0.5159  106.6073   39.3087 O   0  0  0  0  0  0  0  0  0  0  0  0
    0.2967  106.1645   39.5994 H   0  0  0  0  0  0  0  0  0  0  0  0
   -1.1527  104.6299   38.0199 C   0  0  0  0  0  0  0  0  0  0  0  0
   -1.0939  105.3439   36.6408 C   0  0  0  0  0  0  0  0  0  0  0  0
   -0.2929  104.9764   35.7785 O   0  0  0  0  0  0  0  0  0  0  0  0
   -1.9445  106.4062   36.3954 N   0  0  0  0  0  0  0  0  0  0  0  0
   -2.5815  106.6826   37.0933 H   0  0  0  0  0  0  0  0  0  0  0  0
   -1.9205  107.1319   35.1191 C   0  0  0  0  0  0  0  0  0  0  0  0
   -2.7496  106.3244   34.1045 C   0  0  0  0  0  0  0  0  0  0  0  0
   -3.6971  107.3424   33.4750 C   0  0  0  0  0  0  0  0  0  0  0  0
   -5.0569  107.2978   33.7971 C   0  0  0  0  0  0  0  0  0  0  0  0
   -5.9343  108.2159   33.2031 C   0  0  0  0  0  0  0  0  0  0  0  0
   -5.4478  109.1640   32.2888 C   0  0  0  0  0  0  0  0  0  0  0  0
   -4.0862  109.1991   31.9623 C   0  0  0  0  0  0  0  0  0  0  0  0
   -3.2107  108.2837   32.5582 C   0  0  0  0  0  0  0  0  0  0  0  0
   -1.1373  105.7630   41.5809 C   0  0  0  0  0  0  0  0  0  0  0  0
   -2.0587  105.9348   42.8050 C   0  0  0  0  0  0  0  0  0  0  0  0
   -3.5292  105.9359   42.3471 C   0  0  0  0  0  0  0  0  0  0  0  0
   -1.8510  104.7987   43.8264 C   0  0  0  0  0  0  0  0  0  0  0  0
   -0.9802  100.5206   39.3047 C   0  0  0  0  0  0  0  0  0  0  0  0
    0.1925  101.3174   38.6854 C   0  0  0  0  0  0  0  0  0  0  0  0
   -0.6376   99.0126   39.3605 C   0  0  0  0  0  0  0  0  0  0  0  0
 25 24  2  0  0  0
 26 24  1  0  0  0
 16 17  2  0  0  0
 16 15  1  0  0  0
 24 22  1  0  0  0
 17 18  1  0  0  0
 15 14  2  0  0  0
 22 21  1  0  0  0
 21 20  1  0  0  0
 18 13  2  0  0  0
 20 19  1  0  0  0
 53 52  1  0  0  0
 14 13  1  0  0  0
 14 12  1  0  0  0
 54 52  1  0  0  0
 19  6  1  0  0  0
 52 51  1  0  0  0
 12 11  1  0  0  0
  6  9  1  0  0  0
  6  2  1  0  0  0
  9  7  1  0  0  0
  7  8  2  0  0  0
  7 11  1  0  0  0
 51 34  1  0  0  0
  2  4  1  0  0  0
  2  3  2  0  0  0
  4  1  1  0  0  0
 34 32  1  0  0  0
 34 35  1  0  0  0
 31 30  2  0  0  0
 32 30  1  0  0  0
 30  1  1  0  0  0
 35 36  1  0  0  0
 35 38  1  0  0  0
  1 55  1  0  0  0
 43 41  1  0  0  0
 43 44  1  0  0  0
 40 39  2  0  0  0
 41 39  1  0  0  0
 39 38  1  0  0  0
 55 57  1  0  0  0
 55 56  1  0  0  0
 44 45  1  0  0  0
 45 46  2  0  0  0
 45 50  1  0  0  0
 46 47  1  0  0  0
 50 49  2  0  0  0
 47 48  2  0  0  0
 49 48  1  0  0  0
  9 10  1  0  0  0
 22 23  1  0  0  0
 25 27  1  0  0  0
 26 28  1  0  0  0
 26 29  1  0  0  0
  4  5  1  0  0  0
 32 33  1  0  0  0
 36 37  1  0  0  0
 41 42  1  0  0  0
M  END
> <minimizedAffinity>
-8.44853

$$$$
4ZL4_4PK_A_501


 57 58  0  0  0  0  0  0  0  0999 V2000
   -2.0331   97.1115   39.2645 C   0  0  0  0  0  0  0  0  0  0  0  0
   -2.2679   99.0635   37.7547 C   0  0  0  0  0  0  0  0  0  0  0  0
   -2.8180   98.3296   36.9330 O   0  0  0  0  0  0  0  0  0  0  0  0
   -1.8293   98.5169   38.9351 N   0  0  0  0  0  0  0  0  0  0  0  0
   -1.3612   99.0936   39.5813 H   0  0  0  0  0  0  0  0  0  0  0  0
   -2.0500  100.5856   37.5401 C   0  0  0  0  0  0  0  0  0  0  0  0
   -1.4062  102.5802   38.8075 C   0  0  0  0  0  0  0  0  0  0  0  0
   -1.8218  103.2610   37.8705 O   0  0  0  0  0  0  0  0  0  0  0  0
   -1.4654  101.2102   38.7316 N   0  0  0  0  0  0  0  0  0  0  0  0
   -1.1200  100.6546   39.4672 H   0  0  0  0  0  0  0  0  0  0  0  0
   -0.8866  103.1590   39.9090 O   0  0  0  0  0  0  0  0  0  0  0  0
   -1.8623  103.2583   40.9550 C   0  0  0  0  0  0  0  0  0  0  0  0
   -2.1342  105.7235   40.4700 C   0  0  0  0  0  0  0  0  0  0  0  0
   -1.9873  104.6965   41.4152 C   0  0  0  0  0  0  0  0  0  0  0  0
   -1.9588  105.0029   42.7893 C   0  0  0  0  0  0  0  0  0  0  0  0
   -2.0722  106.3353   43.2147 C   0  0  0  0  0  0  0  0  0  0  0  0
   -2.2173  107.3595   42.2651 C   0  0  0  0  0  0  0  0  0  0  0  0
   -2.2488  107.0566   40.8937 C   0  0  0  0  0  0  0  0  0  0  0  0
   -1.0680  100.6362   36.3650 C   0  0  0  0  0  0  0  0  0  0  0  0
   -1.6455  101.3700   35.1566 C   0  0  0  0  0  0  0  0  0  0  0  0
   -0.6587  102.2807   34.6965 O   0  0  0  0  0  0  0  0  0  0  0  0
   -0.9300  103.5980   35.0752 N   0  0  0  0  0  0  0  0  0  0  0  0
   -1.7035  103.8192   35.6427 H   0  0  0  0  0  0  0  0  0  0  0  0
   -0.0885  104.5539   34.6312 C   0  0  0  0  0  0  0  0  0  0  0  0
    0.5548  105.3481   35.5029 N   0  0  0  0  0  0  0  0  0  0  0  0
    0.1114  104.7238   33.3157 N   0  0  0  0  0  0  0  0  0  0  0  0
    1.1681  106.0446   35.1743 H   0  0  0  0  0  0  0  0  0  0  0  0
    0.7269  105.4233   32.9976 H   0  0  0  0  0  0  0  0  0  0  0  0
   -0.3573  104.1490   32.6683 H   0  0  0  0  0  0  0  0  0  0  0  0
   -3.0783   97.1990   40.4153 C   0  0  0  0  0  0  0  0  0  0  0  0
   -4.2574   96.8686   40.2438 O   0  0  0  0  0  0  0  0  0  0  0  0
   -2.6602   97.6171   41.6561 N   0  0  0  0  0  0  0  0  0  0  0  0
   -1.7232   97.8868   41.7920 H   0  0  0  0  0  0  0  0  0  0  0  0
   -3.6042   97.6634   42.7798 C   0  0  0  0  0  0  0  0  0  0  0  0
   -3.7495   99.1070   43.2840 C   0  0  0  0  0  0  0  0  0  0  0  0
   -4.4124   99.0714   44.5478 O   0  0  0  0  0  0  0  0  0  0  0  0
   -3.8866   98.5496   45.1741 H   0  0  0  0  0  0  0  0  0  0  0  0
   -2.3731   99.7855   43.4042 C   0  0  0  0  0  0  0  0  0  0  0  0
   -2.5233  101.1743   44.0853 C   0  0  0  0  0  0  0  0  0  0  0  0
   -1.5592  101.7090   44.6376 O   0  0  0  0  0  0  0  0  0  0  0  0
   -3.7564  101.7999   44.0748 N   0  0  0  0  0  0  0  0  0  0  0  0
   -4.5139  101.3610   43.6244 H   0  0  0  0  0  0  0  0  0  0  0  0
   -3.9634  103.1030   44.7192 C   0  0  0  0  0  0  0  0  0  0  0  0
   -5.4663  103.4274   44.6500 C   0  0  0  0  0  0  0  0  0  0  0  0
   -5.5736  104.5732   43.6470 C   0  0  0  0  0  0  0  0  0  0  0  0
   -5.6676  105.8858   44.1195 C   0  0  0  0  0  0  0  0  0  0  0  0
   -5.7900  106.9390   43.2024 C   0  0  0  0  0  0  0  0  0  0  0  0
   -5.8246  106.6719   41.8243 C   0  0  0  0  0  0  0  0  0  0  0  0
   -5.7390  105.3547   41.3560 C   0  0  0  0  0  0  0  0  0  0  0  0
   -5.6141  104.3041   42.2726 C   0  0  0  0  0  0  0  0  0  0  0  0
   -3.0305   96.8001   43.9280 C   0  0  0  0  0  0  0  0  0  0  0  0
   -3.7995   95.4790   44.1288 C   0  0  0  0  0  0  0  0  0  0  0  0
   -3.0189   94.3238   43.4744 C   0  0  0  0  0  0  0  0  0  0  0  0
   -3.9970   95.1679   45.6260 C   0  0  0  0  0  0  0  0  0  0  0  0
   -0.7572   96.4116   39.7359 C   0  0  0  0  0  0  0  0  0  0  0  0
   -0.7615   95.0572   38.9881 C   0  0  0  0  0  0  0  0  0  0  0  0
    0.4939   97.2367   39.3503 C   0  0  0  0  0  0  0  0  0  0  0  0
 25 24  2  0  0  0
 26 24  1  0  0  0
 16 17  2  0  0  0
 16 15  1  0  0  0
 24 22  1  0  0  0
 17 18  1  0  0  0
 15 14  2  0  0  0
 22 21  1  0  0  0
 21 20  1  0  0  0
 18 13  2  0  0  0
 20 19  1  0  0  0
 53 52  1  0  0  0
 14 13  1  0  0  0
 14 12  1  0  0  0
 54 52  1  0  0  0
 19  6  1  0  0  0
 52 51  1  0  0  0
 12 11  1  0  0  0
  6  9  1  0  0  0
  6  2  1  0  0  0
  9  7  1  0  0  0
  7  8  2  0  0  0
  7 11  1  0  0  0
 51 34  1  0  0  0
  2  4  1  0  0  0
  2  3  2  0  0  0
  4  1  1  0  0  0
 34 32  1  0  0  0
 34 35  1  0  0  0
 31 30  2  0  0  0
 32 30  1  0  0  0
 30  1  1  0  0  0
 35 36  1  0  0  0
 35 38  1  0  0  0
  1 55  1  0  0  0
 43 41  1  0  0  0
 43 44  1  0  0  0
 40 39  2  0  0  0
 41 39  1  0  0  0
 39 38  1  0  0  0
 55 57  1  0  0  0
 55 56  1  0  0  0
 44 45  1  0  0  0
 45 46  2  0  0  0
 45 50  1  0  0  0
 46 47  1  0  0  0
 50 49  2  0  0  0
 47 48  2  0  0  0
 49 48  1  0  0  0
  9 10  1  0  0  0
 22 23  1  0  0  0
 25 27  1  0  0  0
 26 28  1  0  0  0
 26 29  1  0  0  0
  4  5  1  0  0  0
 32 33  1  0  0  0
 36 37  1  0  0  0
 41 42  1  0  0  0
M  END
> <minimizedAffinity>
-8.39132

$$$$
4ZL4_4PK_A_501


 57 58  0  0  0  0  0  0  0  0999 V2000
   -5.1423  105.3105   43.2075 C   0  0  0  0  0  0  0  0  0  0  0  0
   -3.6322  106.5837   41.7096 C   0  0  0  0  0  0  0  0  0  0  0  0
   -3.8814  107.5977   42.3623 O   0  0  0  0  0  0  0  0  0  0  0  0
   -4.2451  105.4071   42.0626 N   0  0  0  0  0  0  0  0  0  0  0  0
   -4.0727  104.6011   41.5243 H   0  0  0  0  0  0  0  0  0  0  0  0
   -2.6484  106.5523   40.5091 C   0  0  0  0  0  0  0  0  0  0  0  0
   -1.0320  104.7121   40.4947 C   0  0  0  0  0  0  0  0  0  0  0  0
   -0.2345  105.4610   41.0581 O   0  0  0  0  0  0  0  0  0  0  0  0
   -2.2810  105.1756   40.1611 N   0  0  0  0  0  0  0  0  0  0  0  0
   -2.9214  104.5913   39.6945 H   0  0  0  0  0  0  0  0  0  0  0  0
   -0.6965  103.4413   40.1933 O   0  0  0  0  0  0  0  0  0  0  0  0
   -1.4767  102.9421   39.0988 C   0  0  0  0  0  0  0  0  0  0  0  0
   -1.5447  100.8929   37.6214 C   0  0  0  0  0  0  0  0  0  0  0  0
   -1.0983  101.5051   38.8027 C   0  0  0  0  0  0  0  0  0  0  0  0
   -0.2976  100.7848   39.7100 C   0  0  0  0  0  0  0  0  0  0  0  0
    0.0505   99.4533   39.4364 C   0  0  0  0  0  0  0  0  0  0  0  0
   -0.4000   98.8446   38.2539 C   0  0  0  0  0  0  0  0  0  0  0  0
   -1.1966   99.5615   37.3455 C   0  0  0  0  0  0  0  0  0  0  0  0
   -3.4551  107.1997   39.3787 C   0  0  0  0  0  0  0  0  0  0  0  0
   -2.5655  107.9294   38.3744 C   0  0  0  0  0  0  0  0  0  0  0  0
   -1.5017  107.0550   38.0298 O   0  0  0  0  0  0  0  0  0  0  0  0
   -0.4816  107.7052   37.3305 N   0  0  0  0  0  0  0  0  0  0  0  0
   -0.6187  108.0351   36.4131 H   0  0  0  0  0  0  0  0  0  0  0  0
    0.6986  107.8622   37.9641 C   0  0  0  0  0  0  0  0  0  0  0  0
    1.7899  108.2420   37.2791 N   0  0  0  0  0  0  0  0  0  0  0  0
    0.7955  107.6370   39.2830 N   0  0  0  0  0  0  0  0  0  0  0  0
    2.6493  108.3553   37.7458 H   0  0  0  0  0  0  0  0  0  0  0  0
    1.6597  107.7532   39.7400 H   0  0  0  0  0  0  0  0  0  0  0  0
    0.0024  107.3555   39.7939 H   0  0  0  0  0  0  0  0  0  0  0  0
   -4.3318  104.3991   44.1754 C   0  0  0  0  0  0  0  0  0  0  0  0
   -3.3385  104.8201   44.7796 O   0  0  0  0  0  0  0  0  0  0  0  0
   -4.7630  103.1110   44.3851 N   0  0  0  0  0  0  0  0  0  0  0  0
   -5.5496  102.7726   43.8994 H   0  0  0  0  0  0  0  0  0  0  0  0
   -4.0560  102.2371   45.3299 C   0  0  0  0  0  0  0  0  0  0  0  0
   -2.9603  101.4489   44.5967 C   0  0  0  0  0  0  0  0  0  0  0  0
   -1.6946  101.9860   44.9803 O   0  0  0  0  0  0  0  0  0  0  0  0
   -1.5839  101.8991   45.9400 H   0  0  0  0  0  0  0  0  0  0  0  0
   -3.0463   99.9496   44.9344 C   0  0  0  0  0  0  0  0  0  0  0  0
   -3.2597   99.1240   43.6351 C   0  0  0  0  0  0  0  0  0  0  0  0
   -2.8840   99.5619   42.5454 O   0  0  0  0  0  0  0  0  0  0  0  0
   -3.8877   97.8945   43.7138 N   0  0  0  0  0  0  0  0  0  0  0  0
   -4.1762   97.5579   44.5928 H   0  0  0  0  0  0  0  0  0  0  0  0
   -4.1348   97.0790   42.5179 C   0  0  0  0  0  0  0  0  0  0  0  0
   -2.9606   96.0949   42.3702 C   0  0  0  0  0  0  0  0  0  0  0  0
   -2.6782   96.0450   40.8708 C   0  0  0  0  0  0  0  0  0  0  0  0
   -3.6088   96.5939   39.9834 C   0  0  0  0  0  0  0  0  0  0  0  0
   -3.3645   96.5291   38.6045 C   0  0  0  0  0  0  0  0  0  0  0  0
   -2.1983   95.9114   38.1246 C   0  0  0  0  0  0  0  0  0  0  0  0
   -1.2732   95.3550   39.0169 C   0  0  0  0  0  0  0  0  0  0  0  0
   -1.5170   95.4228   40.3937 C   0  0  0  0  0  0  0  0  0  0  0  0
   -5.0759  101.2303   45.9119 C   0  0  0  0  0  0  0  0  0  0  0  0
   -5.6227  101.6565   47.2890 C   0  0  0  0  0  0  0  0  0  0  0  0
   -7.1353  101.3738   47.3529 C   0  0  0  0  0  0  0  0  0  0  0  0
   -4.9201  100.8951   48.4308 C   0  0  0  0  0  0  0  0  0  0  0  0
   -6.4927  104.6796   42.8637 C   0  0  0  0  0  0  0  0  0  0  0  0
   -7.5269  105.5448   43.6221 C   0  0  0  0  0  0  0  0  0  0  0  0
   -6.7528  104.7404   41.3394 C   0  0  0  0  0  0  0  0  0  0  0  0
 25 24  2  0  0  0
 26 24  1  0  0  0
 16 17  2  0  0  0
 16 15  1  0  0  0
 24 22  1  0  0  0
 17 18  1  0  0  0
 15 14  2  0  0  0
 22 21  1  0  0  0
 21 20  1  0  0  0
 18 13  2  0  0  0
 20 19  1  0  0  0
 53 52  1  0  0  0
 14 13  1  0  0  0
 14 12  1  0  0  0
 54 52  1  0  0  0
 19  6  1  0  0  0
 52 51  1  0  0  0
 12 11  1  0  0  0
  6  9  1  0  0  0
  6  2  1  0  0  0
  9  7  1  0  0  0
  7  8  2  0  0  0
  7 11  1  0  0  0
 51 34  1  0  0  0
  2  4  1  0  0  0
  2  3  2  0  0  0
  4  1  1  0  0  0
 34 32  1  0  0  0
 34 35  1  0  0  0
 31 30  2  0  0  0
 32 30  1  0  0  0
 30  1  1  0  0  0
 35 36  1  0  0  0
 35 38  1  0  0  0
  1 55  1  0  0  0
 43 41  1  0  0  0
 43 44  1  0  0  0
 40 39  2  0  0  0
 41 39  1  0  0  0
 39 38  1  0  0  0
 55 57  1  0  0  0
 55 56  1  0  0  0
 44 45  1  0  0  0
 45 46  2  0  0  0
 45 50  1  0  0  0
 46 47  1  0  0  0
 50 49  2  0  0  0
 47 48  2  0  0  0
 49 48  1  0  0  0
  9 10  1  0  0  0
 22 23  1  0  0  0
 25 27  1  0  0  0
 26 28  1  0  0  0
 26 29  1  0  0  0
  4  5  1  0  0  0
 32 33  1  0  0  0
 36 37  1  0  0  0
 41 42  1  0  0  0
M  END
> <minimizedAffinity>
-8.31064

$$$$
