5O9P_9P8_A_601
  RCSB PDB05121802173D
Coordinates from PDB:5O9P:A:601 Model:1 without hydrogens
 47 51  0  0  0  0            999 V2000
    9.0930   17.0800  -17.2120   C 0  0  0  0  0  0  0  0  0  0  0  0
    9.5810   15.6290  -17.2240   C 0  0  0  0  0  0  0  0  0  0  0  0
    8.8110   14.8170  -16.1900   C 0  0  0  0  0  0  0  0  0  0  0  0
   20.3450    7.5220  -16.6670   N 0  0  0  0  0  0  0  0  0  0  0  0
    9.8500   17.8530  -18.2880   C 0  0  0  0  0  0  0  0  0  0  0  0
   22.4930    6.6400  -16.7940   C 0  0  0  0  0  0  0  0  0  0  0  0
   22.5230    6.6150  -15.4170   C 0  0  0  0  0  0  0  0  0  0  0  0
   21.4650    7.0620  -14.6290   C 0  0  0  0  0  0  0  0  0  0  0  0
   20.3400    7.5530  -15.2570   C 0  0  0  0  0  0  0  0  0  0  0  0
   21.3660    7.1130  -17.4400   C 0  0  0  0  0  0  0  0  0  0  0  0
   21.3540    7.1390  -18.8510   C 0  0  0  0  0  0  0  0  0  0  0  0
   20.1210    7.6980  -19.3760   O 0  0  0  0  0  0  0  0  0  0  0  0
   19.9520    7.5400  -20.8120   C 0  0  0  0  0  0  0  0  0  0  0  0
   18.7630    8.3650  -21.3370   C 0  0  0  0  0  0  0  0  0  0  0  0
   17.5400    7.9360  -21.6110   C 0  0  0  0  0  0  0  0  0  0  0  0
   18.8150    9.6490  -21.5790   N 0  0  0  0  0  0  0  0  0  0  0  0
   17.7160   10.0060  -21.9540   N 0  0  0  0  0  0  0  0  0  0  0  0
   16.8750    9.0140  -21.9910   N 0  0  0  0  0  0  0  0  0  0  0  0
   15.5020    9.2270  -22.4940   C 0  0  0  0  0  0  0  0  0  0  0  0
   14.9060   10.5800  -22.1320   C 0  0  0  0  0  0  0  0  0  0  0  0
   14.5300   10.5740  -20.7450   O 0  0  0  0  0  0  0  0  0  0  0  0
   15.7950    9.2180  -23.8760   O 0  0  0  0  0  0  0  0  0  0  0  0
   14.6610    9.3490  -24.7140   C 0  0  0  0  0  0  0  0  0  0  0  0
   15.1630    9.1550  -26.1720   C 0  0  0  0  0  0  0  0  0  0  0  0
   15.8960   10.3350  -26.5690   O 0  0  0  0  0  0  0  0  0  0  0  0
   13.9530   10.6840  -24.4870   C 0  0  0  0  0  0  0  0  0  0  0  0
   12.7160   10.6910  -25.2590   O 0  0  0  0  0  0  0  0  0  0  0  0
   13.6470   10.8660  -22.9860   C 0  0  0  0  0  0  0  0  0  0  0  0
   13.1860   12.1990  -22.6630   O 0  0  0  0  0  0  0  0  0  0  0  0
   11.9210   12.2140  -21.9640   C 0  0  0  0  0  0  0  0  0  0  0  0
   11.5680   13.6650  -21.6050   C 0  0  0  0  0  0  0  0  0  0  0  0
   12.5520   14.2270  -20.6800   O 0  0  0  0  0  0  0  0  0  0  0  0
   10.8930   11.6390  -22.7830   O 0  0  0  0  0  0  0  0  0  0  0  0
    9.6860   11.5640  -21.9770   C 0  0  0  0  0  0  0  0  0  0  0  0
    8.6280   10.7810  -22.7370   C 0  0  0  0  0  0  0  0  0  0  0  0
    8.3820   11.4940  -23.9510   O 0  0  0  0  0  0  0  0  0  0  0  0
    9.1780   12.9640  -21.7480   C 0  0  0  0  0  0  0  0  0  0  0  0
    7.9340   12.9070  -21.0280   O 0  0  0  0  0  0  0  0  0  0  0  0
   10.1930   13.7380  -20.9350   C 0  0  0  0  0  0  0  0  0  0  0  0
    9.8250   15.1100  -20.8350   O 0  0  0  0  0  0  0  0  0  0  0  0
   10.1080   15.7200  -19.5590   C 0  0  0  0  0  0  0  0  0  0  0  0
    9.3660   15.0290  -18.5250   O 0  0  0  0  0  0  0  0  0  0  0  0
    7.4430   14.7330  -16.5660   O 0  0  0  0  0  0  0  0  0  0  0  0
    9.3630   17.6870  -15.9350   O 0  0  0  0  0  0  0  0  0  0  0  0
    9.3260   19.1790  -18.3920   O 0  0  0  0  0  0  0  0  0  0  0  0
    9.6870   17.1820  -19.6230   C 0  0  0  0  0  0  0  0  0  0  0  0
   10.4720   17.9150  -20.5860   O 0  0  0  0  0  0  0  0  0  0  0  0
 25 24  1  0  0  0  0
 24 23  1  0  0  0  0
 27 26  1  0  0  0  0
 23 26  1  0  0  0  0
 23 22  1  0  0  0  0
 26 28  1  0  0  0  0
 36 35  1  0  0  0  0
 22 19  1  0  0  0  0
 28 29  1  0  0  0  0
 28 20  1  0  0  0  0
 33 34  1  0  0  0  0
 33 30  1  0  0  0  0
 35 34  1  0  0  0  0
 29 30  1  0  0  0  0
 19 20  1  0  0  0  0
 19 18  1  0  0  0  0
 20 21  1  0  0  0  0
 18 17  1  0  0  0  0
 18 15  1  0  0  0  0
 34 37  1  0  0  0  0
 30 31  1  0  0  0  0
 17 16  2  0  0  0  0
 37 38  1  0  0  0  0
 37 39  1  0  0  0  0
 15 14  2  0  0  0  0
 31 39  1  0  0  0  0
 31 32  1  0  0  0  0
 16 14  1  0  0  0  0
 14 13  1  0  0  0  0
 39 40  1  0  0  0  0
 40 41  1  0  0  0  0
 13 12  1  0  0  0  0
 47 46  1  0  0  0  0
 46 41  1  0  0  0  0
 46  5  1  0  0  0  0
 41 42  1  0  0  0  0
 12 11  1  0  0  0  0
 11 10  1  0  0  0  0
 42  2  1  0  0  0  0
 45  5  1  0  0  0  0
  5  1  1  0  0  0  0
 10  6  2  0  0  0  0
 10  4  1  0  0  0  0
  2  1  1  0  0  0  0
  2  3  1  0  0  0  0
  1 44  1  0  0  0  0
  6  7  1  0  0  0  0
  4  9  2  0  0  0  0
 43  3  1  0  0  0  0
  7  8  2  0  0  0  0
  9  8  1  0  0  0  0
A    1
C4
A    2
C5
A    3
C6
A    4
N1
A    5
C3
A    6
CBQ
A    7
CBS
A    8
CBV
A    9
CBT
A   10
CBP
A   11
CBN
A   12
OBO
A   13
CBM
A   14
CBI
A   15
CBH
A   16
NBL
A   17
NBK
A   18
NBJ
A   19
CAM
A   20
CAL
A   21
OBB
A   22
OBE
A   23
CAN
A   24
CAR
A   25
OAU
A   26
CAO
A   27
OBA
A   28
CAK
A   29
OBG
A   30
CAH
A   31
CAG
A   32
OAZ
A   33
OBD
A   34
CAI
A   35
CAQ
A   36
OAT
A   37
CAJ
A   38
OAY
A   39
CAF
A   40
O1
A   41
C1
A   42
O5
A   43
O6
A   44
O4
A   45
O3
A   46
C2
A   47
O2
M  END
>  <InstanceId>
5O9P_9P8_A_601

>  <ChemCompId>
9P8

>  <PdbId>
5O9P

>  <ChainId>
A

>  <ResidueNumber>
601

>  <InsertionCode>


>  <Model>
1

>  <AltIds>


>  <MissingHeavyAtoms>
0

>  <ObservedFormula>
C27 N4 O16

>  <Name>
(2~{R},3~{S},4~{S},5~{R},6~{S})-2-(hydroxymethyl)-6-[(2~{R},3~{R},4~{S},5~{R},6~{S})-2-(hydroxymethyl)-6-[(2~{R},3~{R},4~{S},5~{R},6~{R})-2-(hydroxymethyl)-3,5-bis(oxidanyl)-6-[4-(pyridin-2-ylmethoxymethyl)-1,2,3-triazol-1-yl]oxan-4-yl]oxy-3,5-bis(oxidanyl)oxan-4-yl]oxy-oxane-3,4,5-triol

>  <SystematicName>
(2~{R},3~{S},4~{S},5~{R},6~{S})-2-(hydroxymethyl)-6-[(2~{R},3~{R},4~{S},5~{R},6~{S})-2-(hydroxymethyl)-6-[(2~{R},3~{R},4~{S},5~{R},6~{R})-2-(hydroxymethyl)-3,5-bis(oxidanyl)-6-[4-(pyridin-2-ylmethoxymethyl)-1,2,3-triazol-1-yl]oxan-4-yl]oxy-3,5-bis(oxidanyl)oxan-4-yl]oxy-oxane-3,4,5-triol

>  <Synonyms>


>  <Type>
NON-POLYMER

>  <Formula>
C27 H40 N4 O16

>  <MolecularWeight>
676.624

>  <ModifiedDate>
2018-04-27

>  <Parent>


>  <OneLetterCode>


>  <SubcomponentList>


>  <AmbiguousFlag>
N

>  <InChI>
InChI=1S/C27H40N4O16/c32-6-13-16(35)19(38)20(39)26(44-13)47-24-18(37)15(8-34)45-27(22(24)41)46-23-17(36)14(7-33)43-25(21(23)40)31-5-12(29-30-31)10-42-9-11-3-1-2-4-28-11/h1-5,13-27,32-41H,6-10H2/t13-,14-,15-,16-,17-,18-,19+,20-,21-,22-,23+,24+,25-,26+,27+/m1/s1

>  <InChIKey>
GZCRLDXRIWVPBY-FLQYNTDFSA-N

>  <SMILES>
c1ccnc(c1)COCc2cn(nn2)[C@H]3[C@@H]([C@H]([C@@H]([C@H](O3)CO)O)O[C@H]4[C@@H]([C@H]([C@@H]([C@H](O4)CO)O)O[C@H]5[C@@H]([C@H]([C@@H]([C@H](O5)CO)O)O)O)O)O

$$$$
