5O9P_9P8_A_601


 57 61  0  0  0  0  0  0  0  0999 V2000
   11.8330   12.4283  -22.6231 C   0  0  0  0  0  0  0  0  0  0  0  0
   11.5233   13.8852  -22.2486 C   0  0  0  0  0  0  0  0  0  0  0  0
   12.6616   14.5013  -21.5672 O   0  0  0  0  0  0  0  0  0  0  0  0
   10.6738   11.8025  -23.1914 O   0  0  0  0  0  0  0  0  0  0  0  0
    9.6614   11.7362  -22.1508 C   0  0  0  0  0  0  0  0  0  0  0  0
    9.1746   13.1342  -21.8695 C   0  0  0  0  0  0  0  0  0  0  0  0
    8.1078   13.0818  -20.9060 O   0  0  0  0  0  0  0  0  0  0  0  0
   10.3146   13.9583  -21.3113 C   0  0  0  0  0  0  0  0  0  0  0  0
   12.8438   14.0217  -20.7439 H   0  0  0  0  0  0  0  0  0  0  0  0
    8.4321   12.6773  -20.0862 H   0  0  0  0  0  0  0  0  0  0  0  0
    8.4905   10.9044  -22.6480 C   0  0  0  0  0  0  0  0  0  0  0  0
    7.7872   11.7102  -23.5960 O   0  0  0  0  0  0  0  0  0  0  0  0
    8.3862   11.9575  -24.3177 H   0  0  0  0  0  0  0  0  0  0  0  0
   12.9266   12.4100  -23.5680 O   0  0  0  0  0  0  0  0  0  0  0  0
   15.3005    9.5312  -23.0180 C   0  0  0  0  0  0  0  0  0  0  0  0
   14.6174   10.8695  -22.7746 C   0  0  0  0  0  0  0  0  0  0  0  0
   14.0662   10.8834  -21.4475 O   0  0  0  0  0  0  0  0  0  0  0  0
   15.7693    9.4994  -24.3503 O   0  0  0  0  0  0  0  0  0  0  0  0
   14.7490    9.5676  -25.3299 C   0  0  0  0  0  0  0  0  0  0  0  0
   13.9730   10.8805  -25.2342 C   0  0  0  0  0  0  0  0  0  0  0  0
   12.8463   10.8226  -26.1580 O   0  0  0  0  0  0  0  0  0  0  0  0
   13.4701   11.0875  -23.7906 C   0  0  0  0  0  0  0  0  0  0  0  0
   13.4133   10.1712  -21.3611 H   0  0  0  0  0  0  0  0  0  0  0  0
   12.2727   10.0768  -25.9220 H   0  0  0  0  0  0  0  0  0  0  0  0
   18.3367    8.8454  -21.2783 C   0  0  0  0  0  0  0  0  0  0  0  0
   17.0672    8.5115  -21.4564 C   0  0  0  0  0  0  0  0  0  0  0  0
   18.6104    9.8611  -22.0551 N   0  0  0  0  0  0  0  0  0  0  0  0
   17.5978   10.1576  -22.6574 N   0  0  0  0  0  0  0  0  0  0  0  0
   16.6036    9.3818  -22.3375 N   0  0  0  0  0  0  0  0  0  0  0  0
   19.3552    8.1916  -20.3268 C   0  0  0  0  0  0  0  0  0  0  0  0
   18.6953    7.4649  -19.2533 O   0  0  0  0  0  0  0  0  0  0  0  0
   18.2240    8.3004  -18.1633 C   0  0  0  0  0  0  0  0  0  0  0  0
   17.9962    7.5672  -15.8514 N   0  0  0  0  0  0  0  0  0  0  0  0
   20.1195    7.8172  -16.7663 C   0  0  0  0  0  0  0  0  0  0  0  0
   20.6459    7.4276  -15.5545 C   0  0  0  0  0  0  0  0  0  0  0  0
   19.8550    7.1139  -14.4517 C   0  0  0  0  0  0  0  0  0  0  0  0
   18.4849    7.2002  -14.5803 C   0  0  0  0  0  0  0  0  0  0  0  0
   18.7474    7.8924  -16.9178 C   0  0  0  0  0  0  0  0  0  0  0  0
   15.4410    9.3569  -26.7055 C   0  0  0  0  0  0  0  0  0  0  0  0
   15.3122   10.5709  -27.4781 O   0  0  0  0  0  0  0  0  0  0  0  0
   15.7318   11.3038  -27.0011 H   0  0  0  0  0  0  0  0  0  0  0  0
    9.9389   15.3259  -21.1842 O   0  0  0  0  0  0  0  0  0  0  0  0
    8.8321   17.0349  -17.5240 C   0  0  0  0  0  0  0  0  0  0  0  0
    9.4049   15.6163  -17.5788 C   0  0  0  0  0  0  0  0  0  0  0  0
    9.6175   17.9107  -18.4958 C   0  0  0  0  0  0  0  0  0  0  0  0
   10.0925   15.8741  -19.8589 C   0  0  0  0  0  0  0  0  0  0  0  0
    9.3202   15.0833  -18.9233 O   0  0  0  0  0  0  0  0  0  0  0  0
    8.9729   17.5793  -16.1988 O   0  0  0  0  0  0  0  0  0  0  0  0
    9.0247   19.2097  -18.5660 O   0  0  0  0  0  0  0  0  0  0  0  0
    9.5913   17.3119  -19.8741 C   0  0  0  0  0  0  0  0  0  0  0  0
   10.3988   18.1427  -20.7335 O   0  0  0  0  0  0  0  0  0  0  0  0
    9.9122   17.6055  -15.9582 H   0  0  0  0  0  0  0  0  0  0  0  0
    8.1120   19.1317  -18.8850 H   0  0  0  0  0  0  0  0  0  0  0  0
   11.3079   18.1694  -20.3962 H   0  0  0  0  0  0  0  0  0  0  0  0
    8.6119   14.7034  -16.6519 C   0  0  0  0  0  0  0  0  0  0  0  0
    9.4994   13.8475  -15.9450 O   0  0  0  0  0  0  0  0  0  0  0  0
    9.9978   13.3057  -16.5766 H   0  0  0  0  0  0  0  0  0  0  0  0
 40 39  1  0  0  0
 39 19  1  0  0  0
 21 20  1  0  0  0
 19 20  1  0  0  0
 19 18  1  0  0  0
 20 22  1  0  0  0
 12 11  1  0  0  0
 18 15  1  0  0  0
 22 14  1  0  0  0
 22 16  1  0  0  0
  4  5  1  0  0  0
  4  1  1  0  0  0
 11  5  1  0  0  0
 14  1  1  0  0  0
 15 16  1  0  0  0
 15 29  1  0  0  0
 16 17  1  0  0  0
 29 28  1  0  0  0
 29 26  1  0  0  0
  5  6  1  0  0  0
  1  2  1  0  0  0
 28 27  2  0  0  0
  6  7  1  0  0  0
  6  8  1  0  0  0
 26 25  2  0  0  0
  2  8  1  0  0  0
  2  3  1  0  0  0
 27 25  1  0  0  0
 25 30  1  0  0  0
  8 42  1  0  0  0
 42 46  1  0  0  0
 30 31  1  0  0  0
 51 50  1  0  0  0
 50 46  1  0  0  0
 50 45  1  0  0  0
 46 47  1  0  0  0
 31 32  1  0  0  0
 32 38  1  0  0  0
 47 44  1  0  0  0
 49 45  1  0  0  0
 45 43  1  0  0  0
 38 34  2  0  0  0
 38 33  1  0  0  0
 44 43  1  0  0  0
 44 55  1  0  0  0
 43 48  1  0  0  0
 34 35  1  0  0  0
 33 37  2  0  0  0
 56 55  1  0  0  0
 35 36  2  0  0  0
 37 36  1  0  0  0
 17 23  1  0  0  0
 40 41  1  0  0  0
 21 24  1  0  0  0
  3  9  1  0  0  0
 12 13  1  0  0  0
  7 10  1  0  0  0
 56 57  1  0  0  0
 48 52  1  0  0  0
 49 53  1  0  0  0
 51 54  1  0  0  0
M  END
> <minimizedAffinity>
-10.64460

$$$$
5O9P_9P8_A_601


 57 61  0  0  0  0  0  0  0  0999 V2000
   12.2667   11.7261  -24.4811 C   0  0  0  0  0  0  0  0  0  0  0  0
   10.9448   11.8178  -23.7045 C   0  0  0  0  0  0  0  0  0  0  0  0
   10.0431   12.7890  -24.3237 O   0  0  0  0  0  0  0  0  0  0  0  0
   13.1829   10.8539  -23.8042 O   0  0  0  0  0  0  0  0  0  0  0  0
   13.5142   11.4738  -22.5322 C   0  0  0  0  0  0  0  0  0  0  0  0
   12.2970   11.4225  -21.6456 C   0  0  0  0  0  0  0  0  0  0  0  0
   12.6298   11.9502  -20.3494 O   0  0  0  0  0  0  0  0  0  0  0  0
   11.1949   12.2585  -22.2595 C   0  0  0  0  0  0  0  0  0  0  0  0
   10.4528   13.6681  -24.3053 H   0  0  0  0  0  0  0  0  0  0  0  0
   12.9290   12.8683  -20.4412 H   0  0  0  0  0  0  0  0  0  0  0  0
   14.6317   10.6846  -21.8702 C   0  0  0  0  0  0  0  0  0  0  0  0
   14.0161    9.5795  -21.2050 O   0  0  0  0  0  0  0  0  0  0  0  0
   13.5296    9.0436  -21.8508 H   0  0  0  0  0  0  0  0  0  0  0  0
   11.9948   11.2324  -25.8120 O   0  0  0  0  0  0  0  0  0  0  0  0
   15.3844   11.7618  -27.3790 C   0  0  0  0  0  0  0  0  0  0  0  0
   14.3364   11.2041  -26.4263 C   0  0  0  0  0  0  0  0  0  0  0  0
   14.3399    9.7694  -26.5087 O   0  0  0  0  0  0  0  0  0  0  0  0
   15.3177   13.1726  -27.3475 O   0  0  0  0  0  0  0  0  0  0  0  0
   14.0903   13.7095  -27.8064 C   0  0  0  0  0  0  0  0  0  0  0  0
   12.9232   13.2569  -26.9300 C   0  0  0  0  0  0  0  0  0  0  0  0
   11.6797   13.7111  -27.5414 O   0  0  0  0  0  0  0  0  0  0  0  0
   12.9269   11.7192  -26.8059 C   0  0  0  0  0  0  0  0  0  0  0  0
   14.1253    9.4970  -27.4145 H   0  0  0  0  0  0  0  0  0  0  0  0
   11.5984   13.3304  -28.4299 H   0  0  0  0  0  0  0  0  0  0  0  0
   18.6488   11.5900  -25.9543 C   0  0  0  0  0  0  0  0  0  0  0  0
   17.4777   12.2091  -25.9585 C   0  0  0  0  0  0  0  0  0  0  0  0
   18.6182   10.6407  -26.8531 N   0  0  0  0  0  0  0  0  0  0  0  0
   17.5304   10.6689  -27.3933 N   0  0  0  0  0  0  0  0  0  0  0  0
   16.7763   11.6108  -26.9065 N   0  0  0  0  0  0  0  0  0  0  0  0
   19.8720   11.9002  -25.0725 C   0  0  0  0  0  0  0  0  0  0  0  0
   20.3374   10.7167  -24.3666 O   0  0  0  0  0  0  0  0  0  0  0  0
   20.4925   10.8939  -22.9338 C   0  0  0  0  0  0  0  0  0  0  0  0
   18.5340    9.7236  -22.0797 N   0  0  0  0  0  0  0  0  0  0  0  0
   20.6566    8.9288  -21.5594 C   0  0  0  0  0  0  0  0  0  0  0  0
   20.0598    7.9210  -20.8341 C   0  0  0  0  0  0  0  0  0  0  0  0
   18.6786    7.8014  -20.7000 C   0  0  0  0  0  0  0  0  0  0  0  0
   17.8752    8.7352  -21.3194 C   0  0  0  0  0  0  0  0  0  0  0  0
   19.8655    9.8635  -22.2010 C   0  0  0  0  0  0  0  0  0  0  0  0
   14.2701   15.2526  -27.8487 C   0  0  0  0  0  0  0  0  0  0  0  0
   13.2747   15.8094  -28.7355 O   0  0  0  0  0  0  0  0  0  0  0  0
   12.3892   15.5844  -28.4097 H   0  0  0  0  0  0  0  0  0  0  0  0
    9.9777   12.1058  -21.5364 O   0  0  0  0  0  0  0  0  0  0  0  0
    9.8508   14.8051  -18.3364 C   0  0  0  0  0  0  0  0  0  0  0  0
   10.4081   15.2355  -19.6958 C   0  0  0  0  0  0  0  0  0  0  0  0
    8.6151   13.9416  -18.5724 C   0  0  0  0  0  0  0  0  0  0  0  0
    9.5795   13.2627  -20.7726 C   0  0  0  0  0  0  0  0  0  0  0  0
   10.7448   14.0778  -20.4990 O   0  0  0  0  0  0  0  0  0  0  0  0
    9.4644   15.9589  -17.5673 O   0  0  0  0  0  0  0  0  0  0  0  0
    8.1462   13.4153  -17.3287 O   0  0  0  0  0  0  0  0  0  0  0  0
    8.9526   12.7842  -19.4700 C   0  0  0  0  0  0  0  0  0  0  0  0
    7.7394   12.0416  -19.7103 O   0  0  0  0  0  0  0  0  0  0  0  0
    8.7834   16.4548  -18.0482 H   0  0  0  0  0  0  0  0  0  0  0  0
    8.8382   12.8659  -16.9286 H   0  0  0  0  0  0  0  0  0  0  0  0
    7.0865   12.6182  -20.1370 H   0  0  0  0  0  0  0  0  0  0  0  0
   11.6717   16.0632  -19.4969 C   0  0  0  0  0  0  0  0  0  0  0  0
   12.2841   15.7168  -18.2620 O   0  0  0  0  0  0  0  0  0  0  0  0
   11.6680   15.8953  -17.5343 H   0  0  0  0  0  0  0  0  0  0  0  0
 40 39  1  0  0  0
 39 19  1  0  0  0
 21 20  1  0  0  0
 19 20  1  0  0  0
 19 18  1  0  0  0
 20 22  1  0  0  0
 12 11  1  0  0  0
 18 15  1  0  0  0
 22 14  1  0  0  0
 22 16  1  0  0  0
  4  5  1  0  0  0
  4  1  1  0  0  0
 11  5  1  0  0  0
 14  1  1  0  0  0
 15 16  1  0  0  0
 15 29  1  0  0  0
 16 17  1  0  0  0
 29 28  1  0  0  0
 29 26  1  0  0  0
  5  6  1  0  0  0
  1  2  1  0  0  0
 28 27  2  0  0  0
  6  7  1  0  0  0
  6  8  1  0  0  0
 26 25  2  0  0  0
  2  8  1  0  0  0
  2  3  1  0  0  0
 27 25  1  0  0  0
 25 30  1  0  0  0
  8 42  1  0  0  0
 42 46  1  0  0  0
 30 31  1  0  0  0
 51 50  1  0  0  0
 50 46  1  0  0  0
 50 45  1  0  0  0
 46 47  1  0  0  0
 31 32  1  0  0  0
 32 38  1  0  0  0
 47 44  1  0  0  0
 49 45  1  0  0  0
 45 43  1  0  0  0
 38 34  2  0  0  0
 38 33  1  0  0  0
 44 43  1  0  0  0
 44 55  1  0  0  0
 43 48  1  0  0  0
 34 35  1  0  0  0
 33 37  2  0  0  0
 56 55  1  0  0  0
 35 36  2  0  0  0
 37 36  1  0  0  0
 17 23  1  0  0  0
 40 41  1  0  0  0
 21 24  1  0  0  0
  3  9  1  0  0  0
 12 13  1  0  0  0
  7 10  1  0  0  0
 56 57  1  0  0  0
 48 52  1  0  0  0
 49 53  1  0  0  0
 51 54  1  0  0  0
M  END
> <minimizedAffinity>
-10.49695

$$$$
5O9P_9P8_A_601


 57 61  0  0  0  0  0  0  0  0999 V2000
   11.6902   12.2182  -21.4218 C   0  0  0  0  0  0  0  0  0  0  0  0
   11.7154   12.9065  -20.0491 C   0  0  0  0  0  0  0  0  0  0  0  0
   12.6579   12.2411  -19.1498 O   0  0  0  0  0  0  0  0  0  0  0  0
   10.6855   12.8098  -22.2576 O   0  0  0  0  0  0  0  0  0  0  0  0
    9.3949   12.5291  -21.6513 C   0  0  0  0  0  0  0  0  0  0  0  0
    9.2799   13.3325  -20.3817 C   0  0  0  0  0  0  0  0  0  0  0  0
    7.9733   13.1382  -19.8123 O   0  0  0  0  0  0  0  0  0  0  0  0
   10.3304   12.8659  -19.3973 C   0  0  0  0  0  0  0  0  0  0  0  0
   12.3779   11.3230  -19.0098 H   0  0  0  0  0  0  0  0  0  0  0  0
    7.8424   12.1971  -19.6168 H   0  0  0  0  0  0  0  0  0  0  0  0
    8.2927   12.9638  -22.6033 C   0  0  0  0  0  0  0  0  0  0  0  0
    7.8840   11.7963  -23.3193 O   0  0  0  0  0  0  0  0  0  0  0  0
    7.5747   11.1241  -22.6921 H   0  0  0  0  0  0  0  0  0  0  0  0
   12.9926   12.3481  -22.0349 O   0  0  0  0  0  0  0  0  0  0  0  0
   15.4350    9.4972  -22.3991 C   0  0  0  0  0  0  0  0  0  0  0  0
   14.7953   10.7474  -21.8120 C   0  0  0  0  0  0  0  0  0  0  0  0
   14.4658   10.5061  -20.4342 O   0  0  0  0  0  0  0  0  0  0  0  0
   15.6823    9.7192  -23.7722 O   0  0  0  0  0  0  0  0  0  0  0  0
   14.5169    9.9274  -24.5492 C   0  0  0  0  0  0  0  0  0  0  0  0
   13.7616   11.1759  -24.0952 C   0  0  0  0  0  0  0  0  0  0  0  0
   12.5006   11.2467  -24.8239 O   0  0  0  0  0  0  0  0  0  0  0  0
   13.4980   11.1053  -22.5769 C   0  0  0  0  0  0  0  0  0  0  0  0
   13.8381    9.7688  -20.3762 H   0  0  0  0  0  0  0  0  0  0  0  0
   11.9755   10.4523  -24.6394 H   0  0  0  0  0  0  0  0  0  0  0  0
   18.6961    8.6393  -21.2395 C   0  0  0  0  0  0  0  0  0  0  0  0
   17.3967    8.3938  -21.1607 C   0  0  0  0  0  0  0  0  0  0  0  0
   18.8824    9.6117  -22.0938 N   0  0  0  0  0  0  0  0  0  0  0  0
   17.7951    9.9648  -22.5049 N   0  0  0  0  0  0  0  0  0  0  0  0
   16.8315    9.2718  -21.9721 N   0  0  0  0  0  0  0  0  0  0  0  0
   19.8324    7.9388  -20.4726 C   0  0  0  0  0  0  0  0  0  0  0  0
   19.3574    7.3528  -19.2290 O   0  0  0  0  0  0  0  0  0  0  0  0
   19.5024    8.2107  -18.0665 C   0  0  0  0  0  0  0  0  0  0  0  0
   20.2367    7.5960  -15.8265 N   0  0  0  0  0  0  0  0  0  0  0  0
   21.6798    7.2935  -17.6248 C   0  0  0  0  0  0  0  0  0  0  0  0
   22.6171    6.8051  -16.7413 C   0  0  0  0  0  0  0  0  0  0  0  0
   22.3903    6.7169  -15.3699 C   0  0  0  0  0  0  0  0  0  0  0  0
   21.1742    7.1400  -14.8767 C   0  0  0  0  0  0  0  0  0  0  0  0
   20.4489    7.7059  -17.1495 C   0  0  0  0  0  0  0  0  0  0  0  0
   14.9782    9.9885  -26.0320 C   0  0  0  0  0  0  0  0  0  0  0  0
   15.6089    8.7338  -26.3716 O   0  0  0  0  0  0  0  0  0  0  0  0
   14.9756    8.0096  -26.2476 H   0  0  0  0  0  0  0  0  0  0  0  0
   10.3602   13.7070  -18.2486 O   0  0  0  0  0  0  0  0  0  0  0  0
   10.7472   17.8344  -17.6508 C   0  0  0  0  0  0  0  0  0  0  0  0
   11.5418   17.1300  -18.7536 C   0  0  0  0  0  0  0  0  0  0  0  0
    9.3366   17.2532  -17.6256 C   0  0  0  0  0  0  0  0  0  0  0  0
   10.2610   15.1181  -18.5302 C   0  0  0  0  0  0  0  0  0  0  0  0
   11.5864   15.7013  -18.5174 O   0  0  0  0  0  0  0  0  0  0  0  0
   10.6577   19.2450  -17.9233 O   0  0  0  0  0  0  0  0  0  0  0  0
    8.6079   17.7963  -16.5221 O   0  0  0  0  0  0  0  0  0  0  0  0
    9.3914   15.7606  -17.4579 C   0  0  0  0  0  0  0  0  0  0  0  0
    8.0395   15.2595  -17.5053 O   0  0  0  0  0  0  0  0  0  0  0  0
   10.2124   19.3824  -18.7740 H   0  0  0  0  0  0  0  0  0  0  0  0
    9.0553   17.5638  -15.6934 H   0  0  0  0  0  0  0  0  0  0  0  0
    7.6401   15.4871  -18.3594 H   0  0  0  0  0  0  0  0  0  0  0  0
   12.9716   17.6557  -18.7757 C   0  0  0  0  0  0  0  0  0  0  0  0
   13.8248   16.7585  -18.0778 O   0  0  0  0  0  0  0  0  0  0  0  0
   13.5280   16.6798  -17.1577 H   0  0  0  0  0  0  0  0  0  0  0  0
 40 39  1  0  0  0
 39 19  1  0  0  0
 21 20  1  0  0  0
 19 20  1  0  0  0
 19 18  1  0  0  0
 20 22  1  0  0  0
 12 11  1  0  0  0
 18 15  1  0  0  0
 22 14  1  0  0  0
 22 16  1  0  0  0
  4  5  1  0  0  0
  4  1  1  0  0  0
 11  5  1  0  0  0
 14  1  1  0  0  0
 15 16  1  0  0  0
 15 29  1  0  0  0
 16 17  1  0  0  0
 29 28  1  0  0  0
 29 26  1  0  0  0
  5  6  1  0  0  0
  1  2  1  0  0  0
 28 27  2  0  0  0
  6  7  1  0  0  0
  6  8  1  0  0  0
 26 25  2  0  0  0
  2  8  1  0  0  0
  2  3  1  0  0  0
 27 25  1  0  0  0
 25 30  1  0  0  0
  8 42  1  0  0  0
 42 46  1  0  0  0
 30 31  1  0  0  0
 51 50  1  0  0  0
 50 46  1  0  0  0
 50 45  1  0  0  0
 46 47  1  0  0  0
 31 32  1  0  0  0
 32 38  1  0  0  0
 47 44  1  0  0  0
 49 45  1  0  0  0
 45 43  1  0  0  0
 38 34  2  0  0  0
 38 33  1  0  0  0
 44 43  1  0  0  0
 44 55  1  0  0  0
 43 48  1  0  0  0
 34 35  1  0  0  0
 33 37  2  0  0  0
 56 55  1  0  0  0
 35 36  2  0  0  0
 37 36  1  0  0  0
 17 23  1  0  0  0
 40 41  1  0  0  0
 21 24  1  0  0  0
  3  9  1  0  0  0
 12 13  1  0  0  0
  7 10  1  0  0  0
 56 57  1  0  0  0
 48 52  1  0  0  0
 49 53  1  0  0  0
 51 54  1  0  0  0
M  END
> <minimizedAffinity>
-10.43092

$$$$
5O9P_9P8_A_601


 57 61  0  0  0  0  0  0  0  0999 V2000
   11.9072   13.5764  -23.3869 C   0  0  0  0  0  0  0  0  0  0  0  0
   11.6143   14.7179  -22.4018 C   0  0  0  0  0  0  0  0  0  0  0  0
   12.7599   14.9549  -21.5236 O   0  0  0  0  0  0  0  0  0  0  0  0
   10.7407   13.2806  -24.1679 O   0  0  0  0  0  0  0  0  0  0  0  0
    9.7279   12.7687  -23.2601 C   0  0  0  0  0  0  0  0  0  0  0  0
    9.2573   13.9007  -22.3839 C   0  0  0  0  0  0  0  0  0  0  0  0
    8.1901   13.4361  -21.5385 O   0  0  0  0  0  0  0  0  0  0  0  0
   10.4067   14.3788  -21.5234 C   0  0  0  0  0  0  0  0  0  0  0  0
   12.9367   14.1574  -21.0005 H   0  0  0  0  0  0  0  0  0  0  0  0
    8.5100   12.7059  -20.9859 H   0  0  0  0  0  0  0  0  0  0  0  0
    8.5474   12.2569  -24.0691 C   0  0  0  0  0  0  0  0  0  0  0  0
    7.9076   11.2560  -23.2744 O   0  0  0  0  0  0  0  0  0  0  0  0
    7.6259   11.6439  -22.4311 H   0  0  0  0  0  0  0  0  0  0  0  0
   13.0003   13.9691  -24.2471 O   0  0  0  0  0  0  0  0  0  0  0  0
   15.4358   11.6324  -25.9303 C   0  0  0  0  0  0  0  0  0  0  0  0
   14.9143   12.6518  -24.9275 C   0  0  0  0  0  0  0  0  0  0  0  0
   15.0828   12.1342  -23.5975 O   0  0  0  0  0  0  0  0  0  0  0  0
   15.1936   12.1177  -27.2348 O   0  0  0  0  0  0  0  0  0  0  0  0
   13.8228   12.2710  -27.5554 C   0  0  0  0  0  0  0  0  0  0  0  0
   13.1488   13.2933  -26.6412 C   0  0  0  0  0  0  0  0  0  0  0  0
   11.7169   13.2899  -26.9165 O   0  0  0  0  0  0  0  0  0  0  0  0
   13.4099   12.9284  -25.1652 C   0  0  0  0  0  0  0  0  0  0  0  0
   14.5803   11.3096  -23.5054 H   0  0  0  0  0  0  0  0  0  0  0  0
   11.3578   12.4043  -26.7503 H   0  0  0  0  0  0  0  0  0  0  0  0
   18.9984   11.5750  -25.7863 C   0  0  0  0  0  0  0  0  0  0  0  0
   17.8799   12.0460  -25.2554 C   0  0  0  0  0  0  0  0  0  0  0  0
   18.6854   10.8109  -26.8003 N   0  0  0  0  0  0  0  0  0  0  0  0
   17.4759   10.8139  -26.9144 N   0  0  0  0  0  0  0  0  0  0  0  0
   16.9095   11.5570  -26.0090 N   0  0  0  0  0  0  0  0  0  0  0  0
   20.4431   11.8548  -25.3341 C   0  0  0  0  0  0  0  0  0  0  0  0
   20.9111   10.8550  -24.3870 O   0  0  0  0  0  0  0  0  0  0  0  0
   20.6643   11.1844  -22.9946 C   0  0  0  0  0  0  0  0  0  0  0  0
   18.6618   10.0281  -22.2280 N   0  0  0  0  0  0  0  0  0  0  0  0
   20.7543    9.1700  -21.6863 C   0  0  0  0  0  0  0  0  0  0  0  0
   20.1193    8.1510  -21.0109 C   0  0  0  0  0  0  0  0  0  0  0  0
   18.7330    8.0567  -20.9135 C   0  0  0  0  0  0  0  0  0  0  0  0
   17.9644    9.0285  -21.5183 C   0  0  0  0  0  0  0  0  0  0  0  0
   19.9985   10.1431  -22.3132 C   0  0  0  0  0  0  0  0  0  0  0  0
   13.7600   12.6512  -29.0610 C   0  0  0  0  0  0  0  0  0  0  0  0
   12.3990   12.4955  -29.5203 O   0  0  0  0  0  0  0  0  0  0  0  0
   11.8155   13.0737  -29.0044 H   0  0  0  0  0  0  0  0  0  0  0  0
   10.0468   15.5509  -20.7994 O   0  0  0  0  0  0  0  0  0  0  0  0
    8.8380   15.9939  -16.8137 C   0  0  0  0  0  0  0  0  0  0  0  0
    8.8273   14.6164  -17.4816 C   0  0  0  0  0  0  0  0  0  0  0  0
   10.1017   16.7310  -17.2474 C   0  0  0  0  0  0  0  0  0  0  0  0
   10.0787   15.4084  -19.3644 C   0  0  0  0  0  0  0  0  0  0  0  0
    8.8674   14.7481  -18.9238 O   0  0  0  0  0  0  0  0  0  0  0  0
    8.8570   15.8540  -15.3812 O   0  0  0  0  0  0  0  0  0  0  0  0
   10.0787   18.0696  -16.7460 O   0  0  0  0  0  0  0  0  0  0  0  0
   10.1772   16.7969  -18.7471 C   0  0  0  0  0  0  0  0  0  0  0  0
   11.4171   17.4440  -19.1002 O   0  0  0  0  0  0  0  0  0  0  0  0
    9.6509   15.3645  -15.1146 H   0  0  0  0  0  0  0  0  0  0  0  0
    9.3076   18.5360  -17.1047 H   0  0  0  0  0  0  0  0  0  0  0  0
   12.1613   16.9307  -18.7487 H   0  0  0  0  0  0  0  0  0  0  0  0
    7.5534   13.8702  -17.1051 C   0  0  0  0  0  0  0  0  0  0  0  0
    7.4542   12.6737  -17.8657 O   0  0  0  0  0  0  0  0  0  0  0  0
    7.4284   12.8924  -18.8104 H   0  0  0  0  0  0  0  0  0  0  0  0
 40 39  1  0  0  0
 39 19  1  0  0  0
 21 20  1  0  0  0
 19 20  1  0  0  0
 19 18  1  0  0  0
 20 22  1  0  0  0
 12 11  1  0  0  0
 18 15  1  0  0  0
 22 14  1  0  0  0
 22 16  1  0  0  0
  4  5  1  0  0  0
  4  1  1  0  0  0
 11  5  1  0  0  0
 14  1  1  0  0  0
 15 16  1  0  0  0
 15 29  1  0  0  0
 16 17  1  0  0  0
 29 28  1  0  0  0
 29 26  1  0  0  0
  5  6  1  0  0  0
  1  2  1  0  0  0
 28 27  2  0  0  0
  6  7  1  0  0  0
  6  8  1  0  0  0
 26 25  2  0  0  0
  2  8  1  0  0  0
  2  3  1  0  0  0
 27 25  1  0  0  0
 25 30  1  0  0  0
  8 42  1  0  0  0
 42 46  1  0  0  0
 30 31  1  0  0  0
 51 50  1  0  0  0
 50 46  1  0  0  0
 50 45  1  0  0  0
 46 47  1  0  0  0
 31 32  1  0  0  0
 32 38  1  0  0  0
 47 44  1  0  0  0
 49 45  1  0  0  0
 45 43  1  0  0  0
 38 34  2  0  0  0
 38 33  1  0  0  0
 44 43  1  0  0  0
 44 55  1  0  0  0
 43 48  1  0  0  0
 34 35  1  0  0  0
 33 37  2  0  0  0
 56 55  1  0  0  0
 35 36  2  0  0  0
 37 36  1  0  0  0
 17 23  1  0  0  0
 40 41  1  0  0  0
 21 24  1  0  0  0
  3  9  1  0  0  0
 12 13  1  0  0  0
  7 10  1  0  0  0
 56 57  1  0  0  0
 48 52  1  0  0  0
 49 53  1  0  0  0
 51 54  1  0  0  0
M  END
> <minimizedAffinity>
-10.34014

$$$$
5O9P_9P8_A_601


 57 61  0  0  0  0  0  0  0  0999 V2000
   11.9651   12.2918  -23.0034 C   0  0  0  0  0  0  0  0  0  0  0  0
   12.0020   12.5551  -21.4907 C   0  0  0  0  0  0  0  0  0  0  0  0
   13.1970   11.9647  -20.8881 O   0  0  0  0  0  0  0  0  0  0  0  0
   10.7380   12.7793  -23.5644 O   0  0  0  0  0  0  0  0  0  0  0  0
    9.6573   11.9889  -22.9993 C   0  0  0  0  0  0  0  0  0  0  0  0
    9.5165   12.3464  -21.5423 C   0  0  0  0  0  0  0  0  0  0  0  0
    8.3934   11.6410  -20.9856 O   0  0  0  0  0  0  0  0  0  0  0  0
   10.7759   11.9460  -20.8048 C   0  0  0  0  0  0  0  0  0  0  0  0
   13.1821   11.0033  -21.0157 H   0  0  0  0  0  0  0  0  0  0  0  0
    8.5347   10.6856  -21.0757 H   0  0  0  0  0  0  0  0  0  0  0  0
    8.3610   12.3364  -23.7128 C   0  0  0  0  0  0  0  0  0  0  0  0
    7.4910   11.2136  -23.5544 O   0  0  0  0  0  0  0  0  0  0  0  0
    7.3490   11.0453  -22.6097 H   0  0  0  0  0  0  0  0  0  0  0  0
   13.0947   12.9489  -23.6209 O   0  0  0  0  0  0  0  0  0  0  0  0
   15.6562   11.4162  -25.9263 C   0  0  0  0  0  0  0  0  0  0  0  0
   15.0794   12.0281  -24.6575 C   0  0  0  0  0  0  0  0  0  0  0  0
   15.2803   11.1198  -23.5622 O   0  0  0  0  0  0  0  0  0  0  0  0
   15.3837   12.2817  -27.0091 O   0  0  0  0  0  0  0  0  0  0  0  0
   14.0056   12.4546  -27.2856 C   0  0  0  0  0  0  0  0  0  0  0  0
   13.2763   13.0893  -26.1023 C   0  0  0  0  0  0  0  0  0  0  0  0
   11.8463   13.0962  -26.3874 O   0  0  0  0  0  0  0  0  0  0  0  0
   13.5612   12.2835  -24.8181 C   0  0  0  0  0  0  0  0  0  0  0  0
   14.8260   10.2832  -23.7484 H   0  0  0  0  0  0  0  0  0  0  0  0
   11.5388   12.1859  -26.5208 H   0  0  0  0  0  0  0  0  0  0  0  0
   19.2132   11.6138  -25.7687 C   0  0  0  0  0  0  0  0  0  0  0  0
   18.0622   11.9837  -25.2271 C   0  0  0  0  0  0  0  0  0  0  0  0
   18.9587   10.8640  -26.8094 N   0  0  0  0  0  0  0  0  0  0  0  0
   17.7525   10.7827  -26.9286 N   0  0  0  0  0  0  0  0  0  0  0  0
   17.1316   11.4511  -26.0010 N   0  0  0  0  0  0  0  0  0  0  0  0
   20.6327   11.9827  -25.3010 C   0  0  0  0  0  0  0  0  0  0  0  0
   21.1804   10.9754  -24.4059 O   0  0  0  0  0  0  0  0  0  0  0  0
   21.0023   11.2653  -22.9943 C   0  0  0  0  0  0  0  0  0  0  0  0
   18.9034   10.2258  -22.3245 N   0  0  0  0  0  0  0  0  0  0  0  0
   20.9156    9.2653  -21.6640 C   0  0  0  0  0  0  0  0  0  0  0  0
   20.1924    8.2896  -21.0137 C   0  0  0  0  0  0  0  0  0  0  0  0
   18.7999    8.2698  -20.9894 C   0  0  0  0  0  0  0  0  0  0  0  0
   18.1172    9.2733  -21.6436 C   0  0  0  0  0  0  0  0  0  0  0  0
   20.2469   10.2691  -22.3395 C   0  0  0  0  0  0  0  0  0  0  0  0
   13.9177   13.2954  -28.5898 C   0  0  0  0  0  0  0  0  0  0  0  0
   13.3957   14.6022  -28.2626 O   0  0  0  0  0  0  0  0  0  0  0  0
   13.9842   15.0349  -27.6243 H   0  0  0  0  0  0  0  0  0  0  0  0
   10.7477   12.4125  -19.4597 O   0  0  0  0  0  0  0  0  0  0  0  0
    9.7403   16.0213  -17.5876 C   0  0  0  0  0  0  0  0  0  0  0  0
   10.5986   16.0154  -18.8553 C   0  0  0  0  0  0  0  0  0  0  0  0
    8.6327   14.9843  -17.7495 C   0  0  0  0  0  0  0  0  0  0  0  0
   10.1322   13.7047  -19.2811 C   0  0  0  0  0  0  0  0  0  0  0  0
   11.1642   14.7011  -19.0825 O   0  0  0  0  0  0  0  0  0  0  0  0
    9.1352   17.3139  -17.4005 O   0  0  0  0  0  0  0  0  0  0  0  0
    7.8918   14.8717  -16.5321 O   0  0  0  0  0  0  0  0  0  0  0  0
    9.2221   13.6375  -18.0621 C   0  0  0  0  0  0  0  0  0  0  0  0
    8.1330   12.7142  -18.2675 O   0  0  0  0  0  0  0  0  0  0  0  0
    8.5758   17.5228  -18.1649 H   0  0  0  0  0  0  0  0  0  0  0  0
    8.4838   14.5862  -15.8186 H   0  0  0  0  0  0  0  0  0  0  0  0
    7.5846   13.0204  -19.0066 H   0  0  0  0  0  0  0  0  0  0  0  0
   11.7438   17.0095  -18.7078 C   0  0  0  0  0  0  0  0  0  0  0  0
   11.2247   18.3274  -18.5920 O   0  0  0  0  0  0  0  0  0  0  0  0
   10.7140   18.5448  -19.3876 H   0  0  0  0  0  0  0  0  0  0  0  0
 40 39  1  0  0  0
 39 19  1  0  0  0
 21 20  1  0  0  0
 19 20  1  0  0  0
 19 18  1  0  0  0
 20 22  1  0  0  0
 12 11  1  0  0  0
 18 15  1  0  0  0
 22 14  1  0  0  0
 22 16  1  0  0  0
  4  5  1  0  0  0
  4  1  1  0  0  0
 11  5  1  0  0  0
 14  1  1  0  0  0
 15 16  1  0  0  0
 15 29  1  0  0  0
 16 17  1  0  0  0
 29 28  1  0  0  0
 29 26  1  0  0  0
  5  6  1  0  0  0
  1  2  1  0  0  0
 28 27  2  0  0  0
  6  7  1  0  0  0
  6  8  1  0  0  0
 26 25  2  0  0  0
  2  8  1  0  0  0
  2  3  1  0  0  0
 27 25  1  0  0  0
 25 30  1  0  0  0
  8 42  1  0  0  0
 42 46  1  0  0  0
 30 31  1  0  0  0
 51 50  1  0  0  0
 50 46  1  0  0  0
 50 45  1  0  0  0
 46 47  1  0  0  0
 31 32  1  0  0  0
 32 38  1  0  0  0
 47 44  1  0  0  0
 49 45  1  0  0  0
 45 43  1  0  0  0
 38 34  2  0  0  0
 38 33  1  0  0  0
 44 43  1  0  0  0
 44 55  1  0  0  0
 43 48  1  0  0  0
 34 35  1  0  0  0
 33 37  2  0  0  0
 56 55  1  0  0  0
 35 36  2  0  0  0
 37 36  1  0  0  0
 17 23  1  0  0  0
 40 41  1  0  0  0
 21 24  1  0  0  0
  3  9  1  0  0  0
 12 13  1  0  0  0
  7 10  1  0  0  0
 56 57  1  0  0  0
 48 52  1  0  0  0
 49 53  1  0  0  0
 51 54  1  0  0  0
M  END
> <minimizedAffinity>
-10.03326

$$$$
5O9P_9P8_A_601


 57 61  0  0  0  0  0  0  0  0999 V2000
   11.9617   12.3096  -21.5358 C   0  0  0  0  0  0  0  0  0  0  0  0
   11.5495   13.7581  -21.2344 C   0  0  0  0  0  0  0  0  0  0  0  0
   12.3560   14.3140  -20.1481 O   0  0  0  0  0  0  0  0  0  0  0  0
   11.0934   11.7399  -22.5255 O   0  0  0  0  0  0  0  0  0  0  0  0
    9.7643   11.6592  -21.9432 C   0  0  0  0  0  0  0  0  0  0  0  0
    9.2221   13.0576  -21.7973 C   0  0  0  0  0  0  0  0  0  0  0  0
    7.8716   12.9955  -21.3060 O   0  0  0  0  0  0  0  0  0  0  0  0
   10.0785   13.8263  -20.8144 C   0  0  0  0  0  0  0  0  0  0  0  0
   12.2115   13.7965  -19.3405 H   0  0  0  0  0  0  0  0  0  0  0  0
    7.8610   12.5490  -20.4449 H   0  0  0  0  0  0  0  0  0  0  0  0
    8.8564   10.8812  -22.8815 C   0  0  0  0  0  0  0  0  0  0  0  0
    8.2925   11.8305  -23.7889 O   0  0  0  0  0  0  0  0  0  0  0  0
    9.0046   12.2822  -24.2681 H   0  0  0  0  0  0  0  0  0  0  0  0
   13.3294   12.2996  -22.0032 O   0  0  0  0  0  0  0  0  0  0  0  0
   15.6131    9.3019  -22.1579 C   0  0  0  0  0  0  0  0  0  0  0  0
   15.0385   10.6199  -21.6582 C   0  0  0  0  0  0  0  0  0  0  0  0
   14.6839   10.4845  -20.2721 O   0  0  0  0  0  0  0  0  0  0  0  0
   15.8846    9.4227  -23.5390 O   0  0  0  0  0  0  0  0  0  0  0  0
   14.7394    9.6449  -24.3418 C   0  0  0  0  0  0  0  0  0  0  0  0
   14.0505   10.9590  -23.9763 C   0  0  0  0  0  0  0  0  0  0  0  0
   12.8019   11.0525  -24.7236 O   0  0  0  0  0  0  0  0  0  0  0  0
   13.7699   10.9992  -22.4600 C   0  0  0  0  0  0  0  0  0  0  0  0
   14.0159    9.7879  -20.1758 H   0  0  0  0  0  0  0  0  0  0  0  0
   12.2319   10.3013  -24.4962 H   0  0  0  0  0  0  0  0  0  0  0  0
   18.9843    8.9936  -21.0373 C   0  0  0  0  0  0  0  0  0  0  0  0
   18.0678    9.7851  -21.5743 C   0  0  0  0  0  0  0  0  0  0  0  0
   18.4470    7.8195  -20.8303 N   0  0  0  0  0  0  0  0  0  0  0  0
   17.2972    7.8579  -21.2204 N   0  0  0  0  0  0  0  0  0  0  0  0
   16.9911    9.0278  -21.7003 N   0  0  0  0  0  0  0  0  0  0  0  0
   20.4465    9.3411  -20.7037 C   0  0  0  0  0  0  0  0  0  0  0  0
   20.8570   10.5879  -21.3304 O   0  0  0  0  0  0  0  0  0  0  0  0
   21.7600   10.4258  -22.4559 C   0  0  0  0  0  0  0  0  0  0  0  0
   20.3181   11.0250  -24.3258 N   0  0  0  0  0  0  0  0  0  0  0  0
   22.1851   12.3305  -23.8590 C   0  0  0  0  0  0  0  0  0  0  0  0
   21.8462   13.1299  -24.9285 C   0  0  0  0  0  0  0  0  0  0  0  0
   20.7387   12.8832  -25.7363 C   0  0  0  0  0  0  0  0  0  0  0  0
   19.9495   11.7888  -25.4527 C   0  0  0  0  0  0  0  0  0  0  0  0
   21.3950   11.2390  -23.5500 C   0  0  0  0  0  0  0  0  0  0  0  0
   15.2165    9.5867  -25.8198 C   0  0  0  0  0  0  0  0  0  0  0  0
   14.0596    9.6606  -26.6819 O   0  0  0  0  0  0  0  0  0  0  0  0
   13.5850   10.4901  -26.5158 H   0  0  0  0  0  0  0  0  0  0  0  0
    9.6968   15.1975  -20.7712 O   0  0  0  0  0  0  0  0  0  0  0  0
    9.0445   17.3648  -17.2469 C   0  0  0  0  0  0  0  0  0  0  0  0
    9.5208   15.9110  -17.1895 C   0  0  0  0  0  0  0  0  0  0  0  0
    9.7884   18.0725  -18.3757 C   0  0  0  0  0  0  0  0  0  0  0  0
   10.0071   15.8724  -19.5348 C   0  0  0  0  0  0  0  0  0  0  0  0
    9.2781   15.2442  -18.4526 O   0  0  0  0  0  0  0  0  0  0  0  0
    9.3418   18.0368  -16.0091 O   0  0  0  0  0  0  0  0  0  0  0  0
    9.2730   19.3955  -18.5416 O   0  0  0  0  0  0  0  0  0  0  0  0
    9.5965   17.3325  -19.6698 C   0  0  0  0  0  0  0  0  0  0  0  0
   10.3700   18.0060  -20.6841 O   0  0  0  0  0  0  0  0  0  0  0  0
   10.2993   18.0212  -15.8546 H   0  0  0  0  0  0  0  0  0  0  0  0
    8.3314   19.3495  -18.7701 H   0  0  0  0  0  0  0  0  0  0  0  0
   11.3065   18.0034  -20.4315 H   0  0  0  0  0  0  0  0  0  0  0  0
    8.7629   15.1622  -16.1003 C   0  0  0  0  0  0  0  0  0  0  0  0
    9.5260   14.0452  -15.6645 O   0  0  0  0  0  0  0  0  0  0  0  0
    9.6816   13.4481  -16.4129 H   0  0  0  0  0  0  0  0  0  0  0  0
 40 39  1  0  0  0
 39 19  1  0  0  0
 21 20  1  0  0  0
 19 20  1  0  0  0
 19 18  1  0  0  0
 20 22  1  0  0  0
 12 11  1  0  0  0
 18 15  1  0  0  0
 22 14  1  0  0  0
 22 16  1  0  0  0
  4  5  1  0  0  0
  4  1  1  0  0  0
 11  5  1  0  0  0
 14  1  1  0  0  0
 15 16  1  0  0  0
 15 29  1  0  0  0
 16 17  1  0  0  0
 29 28  1  0  0  0
 29 26  1  0  0  0
  5  6  1  0  0  0
  1  2  1  0  0  0
 28 27  2  0  0  0
  6  7  1  0  0  0
  6  8  1  0  0  0
 26 25  2  0  0  0
  2  8  1  0  0  0
  2  3  1  0  0  0
 27 25  1  0  0  0
 25 30  1  0  0  0
  8 42  1  0  0  0
 42 46  1  0  0  0
 30 31  1  0  0  0
 51 50  1  0  0  0
 50 46  1  0  0  0
 50 45  1  0  0  0
 46 47  1  0  0  0
 31 32  1  0  0  0
 32 38  1  0  0  0
 47 44  1  0  0  0
 49 45  1  0  0  0
 45 43  1  0  0  0
 38 34  2  0  0  0
 38 33  1  0  0  0
 44 43  1  0  0  0
 44 55  1  0  0  0
 43 48  1  0  0  0
 34 35  1  0  0  0
 33 37  2  0  0  0
 56 55  1  0  0  0
 35 36  2  0  0  0
 37 36  1  0  0  0
 17 23  1  0  0  0
 40 41  1  0  0  0
 21 24  1  0  0  0
  3  9  1  0  0  0
 12 13  1  0  0  0
  7 10  1  0  0  0
 56 57  1  0  0  0
 48 52  1  0  0  0
 49 53  1  0  0  0
 51 54  1  0  0  0
M  END
> <minimizedAffinity>
-9.82457

$$$$
5O9P_9P8_A_601


 57 61  0  0  0  0  0  0  0  0999 V2000
   11.9795   12.1864  -21.0789 C   0  0  0  0  0  0  0  0  0  0  0  0
   11.9945   12.9647  -19.7549 C   0  0  0  0  0  0  0  0  0  0  0  0
   12.9350   12.3650  -18.8086 O   0  0  0  0  0  0  0  0  0  0  0  0
   10.9767   12.7165  -21.9573 O   0  0  0  0  0  0  0  0  0  0  0  0
    9.6841   12.4708  -21.3401 C   0  0  0  0  0  0  0  0  0  0  0  0
    9.5589   13.3563  -20.1274 C   0  0  0  0  0  0  0  0  0  0  0  0
    8.2501   13.1943  -19.5529 O   0  0  0  0  0  0  0  0  0  0  0  0
   10.6061   12.9611  -19.1089 C   0  0  0  0  0  0  0  0  0  0  0  0
   12.6582   11.4570  -18.6092 H   0  0  0  0  0  0  0  0  0  0  0  0
    8.1223   12.2677  -19.2959 H   0  0  0  0  0  0  0  0  0  0  0  0
    8.5852   12.8360  -22.3245 C   0  0  0  0  0  0  0  0  0  0  0  0
    8.3551   14.2394  -22.1815 O   0  0  0  0  0  0  0  0  0  0  0  0
    9.1768   14.7219  -22.3627 H   0  0  0  0  0  0  0  0  0  0  0  0
   13.2846   12.2813  -21.6927 O   0  0  0  0  0  0  0  0  0  0  0  0
   15.6521    9.3605  -21.9906 C   0  0  0  0  0  0  0  0  0  0  0  0
   15.0367   10.6323  -21.4242 C   0  0  0  0  0  0  0  0  0  0  0  0
   14.6741   10.4101  -20.0515 O   0  0  0  0  0  0  0  0  0  0  0  0
   15.9321    9.5656  -23.3601 O   0  0  0  0  0  0  0  0  0  0  0  0
   14.7881    9.8010  -24.1609 C   0  0  0  0  0  0  0  0  0  0  0  0
   14.0598   11.0733  -23.7299 C   0  0  0  0  0  0  0  0  0  0  0  0
   12.8156   11.1743  -24.4835 O   0  0  0  0  0  0  0  0  0  0  0  0
   13.7650   11.0210  -22.2166 C   0  0  0  0  0  0  0  0  0  0  0  0
   14.0249    9.6911  -20.0009 H   0  0  0  0  0  0  0  0  0  0  0  0
   12.2648   10.3963  -24.3040 H   0  0  0  0  0  0  0  0  0  0  0  0
   19.0013    9.0737  -20.8004 C   0  0  0  0  0  0  0  0  0  0  0  0
   18.0402    9.8904  -21.2056 C   0  0  0  0  0  0  0  0  0  0  0  0
   18.5555    7.8461  -20.8644 N   0  0  0  0  0  0  0  0  0  0  0  0
   17.4188    7.8804  -21.2918 N   0  0  0  0  0  0  0  0  0  0  0  0
   17.0332    9.0990  -21.5350 N   0  0  0  0  0  0  0  0  0  0  0  0
   20.4193    9.4505  -20.3343 C   0  0  0  0  0  0  0  0  0  0  0  0
   21.0636   10.3645  -21.2644 O   0  0  0  0  0  0  0  0  0  0  0  0
   21.1993    9.8501  -22.6154 C   0  0  0  0  0  0  0  0  0  0  0  0
   20.0788   10.8946  -24.5097 N   0  0  0  0  0  0  0  0  0  0  0  0
   21.9689   11.9017  -23.6035 C   0  0  0  0  0  0  0  0  0  0  0  0
   21.8460   12.8956  -24.5493 C   0  0  0  0  0  0  0  0  0  0  0  0
   20.8409   12.9023  -25.5136 C   0  0  0  0  0  0  0  0  0  0  0  0
   19.9314   11.8661  -25.5214 C   0  0  0  0  0  0  0  0  0  0  0  0
   21.0552   10.8644  -23.5861 C   0  0  0  0  0  0  0  0  0  0  0  0
   15.2794    9.8385  -25.6348 C   0  0  0  0  0  0  0  0  0  0  0  0
   15.0495    8.5429  -26.2315 O   0  0  0  0  0  0  0  0  0  0  0  0
   14.1024    8.3357  -26.1995 H   0  0  0  0  0  0  0  0  0  0  0  0
   10.6263   13.8769  -18.0186 O   0  0  0  0  0  0  0  0  0  0  0  0
   10.7962   18.0476  -17.6730 C   0  0  0  0  0  0  0  0  0  0  0  0
   11.6458   17.3180  -18.7169 C   0  0  0  0  0  0  0  0  0  0  0  0
    9.4160   17.3982  -17.6343 C   0  0  0  0  0  0  0  0  0  0  0  0
   10.4625   15.2612  -18.3891 C   0  0  0  0  0  0  0  0  0  0  0  0
   11.7568   15.9107  -18.3914 O   0  0  0  0  0  0  0  0  0  0  0  0
   10.6420   19.4324  -18.0343 O   0  0  0  0  0  0  0  0  0  0  0  0
    8.6401   17.9703  -16.5786 O   0  0  0  0  0  0  0  0  0  0  0  0
    9.5417   15.9234  -17.3731 C   0  0  0  0  0  0  0  0  0  0  0  0
    8.2175   15.3524  -17.4108 O   0  0  0  0  0  0  0  0  0  0  0  0
   10.2068   19.4945  -18.8989 H   0  0  0  0  0  0  0  0  0  0  0  0
    9.0825   17.8122  -15.7300 H   0  0  0  0  0  0  0  0  0  0  0  0
    7.8237   15.5065  -18.2838 H   0  0  0  0  0  0  0  0  0  0  0  0
   13.0480   17.9133  -18.7486 C   0  0  0  0  0  0  0  0  0  0  0  0
   13.3603   18.4761  -17.4815 O   0  0  0  0  0  0  0  0  0  0  0  0
   12.7215   19.1753  -17.2719 H   0  0  0  0  0  0  0  0  0  0  0  0
 40 39  1  0  0  0
 39 19  1  0  0  0
 21 20  1  0  0  0
 19 20  1  0  0  0
 19 18  1  0  0  0
 20 22  1  0  0  0
 12 11  1  0  0  0
 18 15  1  0  0  0
 22 14  1  0  0  0
 22 16  1  0  0  0
  4  5  1  0  0  0
  4  1  1  0  0  0
 11  5  1  0  0  0
 14  1  1  0  0  0
 15 16  1  0  0  0
 15 29  1  0  0  0
 16 17  1  0  0  0
 29 28  1  0  0  0
 29 26  1  0  0  0
  5  6  1  0  0  0
  1  2  1  0  0  0
 28 27  2  0  0  0
  6  7  1  0  0  0
  6  8  1  0  0  0
 26 25  2  0  0  0
  2  8  1  0  0  0
  2  3  1  0  0  0
 27 25  1  0  0  0
 25 30  1  0  0  0
  8 42  1  0  0  0
 42 46  1  0  0  0
 30 31  1  0  0  0
 51 50  1  0  0  0
 50 46  1  0  0  0
 50 45  1  0  0  0
 46 47  1  0  0  0
 31 32  1  0  0  0
 32 38  1  0  0  0
 47 44  1  0  0  0
 49 45  1  0  0  0
 45 43  1  0  0  0
 38 34  2  0  0  0
 38 33  1  0  0  0
 44 43  1  0  0  0
 44 55  1  0  0  0
 43 48  1  0  0  0
 34 35  1  0  0  0
 33 37  2  0  0  0
 56 55  1  0  0  0
 35 36  2  0  0  0
 37 36  1  0  0  0
 17 23  1  0  0  0
 40 41  1  0  0  0
 21 24  1  0  0  0
  3  9  1  0  0  0
 12 13  1  0  0  0
  7 10  1  0  0  0
 56 57  1  0  0  0
 48 52  1  0  0  0
 49 53  1  0  0  0
 51 54  1  0  0  0
M  END
> <minimizedAffinity>
-9.72800

$$$$
5O9P_9P8_A_601


 57 61  0  0  0  0  0  0  0  0999 V2000
   13.7493   11.8384  -22.8644 C   0  0  0  0  0  0  0  0  0  0  0  0
   12.7178   12.8062  -22.2661 C   0  0  0  0  0  0  0  0  0  0  0  0
   12.3091   13.8068  -23.2518 O   0  0  0  0  0  0  0  0  0  0  0  0
   14.2232   10.9311  -21.8592 O   0  0  0  0  0  0  0  0  0  0  0  0
   14.9444   11.7154  -20.8708 C   0  0  0  0  0  0  0  0  0  0  0  0
   13.9505   12.5558  -20.1116 C   0  0  0  0  0  0  0  0  0  0  0  0
   14.6327   13.2729  -19.0678 O   0  0  0  0  0  0  0  0  0  0  0  0
   13.3035   13.5434  -21.0584 C   0  0  0  0  0  0  0  0  0  0  0  0
   13.0800   14.3317  -23.5184 H   0  0  0  0  0  0  0  0  0  0  0  0
   15.3125   13.8437  -19.4588 H   0  0  0  0  0  0  0  0  0  0  0  0
   15.6320   10.7749  -19.8947 C   0  0  0  0  0  0  0  0  0  0  0  0
   14.6784   10.4731  -18.8738 O   0  0  0  0  0  0  0  0  0  0  0  0
   13.8938   10.0670  -19.2741 H   0  0  0  0  0  0  0  0  0  0  0  0
   13.1325   11.1080  -23.9484 O   0  0  0  0  0  0  0  0  0  0  0  0
   16.0652   11.3040  -26.3118 C   0  0  0  0  0  0  0  0  0  0  0  0
   15.2966   11.0164  -25.0299 C   0  0  0  0  0  0  0  0  0  0  0  0
   15.4563    9.6305  -24.6850 O   0  0  0  0  0  0  0  0  0  0  0  0
   15.8371   12.6479  -26.6830 O   0  0  0  0  0  0  0  0  0  0  0  0
   14.4886   12.9463  -26.9957 C   0  0  0  0  0  0  0  0  0  0  0  0
   13.5765   12.7280  -25.7893 C   0  0  0  0  0  0  0  0  0  0  0  0
   12.1928   12.8994  -26.2160 O   0  0  0  0  0  0  0  0  0  0  0  0
   13.7888   11.3092  -25.2222 C   0  0  0  0  0  0  0  0  0  0  0  0
   15.1043    9.0769  -25.3995 H   0  0  0  0  0  0  0  0  0  0  0  0
   11.9869   12.2559  -26.9119 H   0  0  0  0  0  0  0  0  0  0  0  0
   19.5367   11.6111  -25.5566 C   0  0  0  0  0  0  0  0  0  0  0  0
   18.3000   11.9443  -25.2184 C   0  0  0  0  0  0  0  0  0  0  0  0
   19.4848   10.8556  -26.6226 N   0  0  0  0  0  0  0  0  0  0  0  0
   18.3191   10.7373  -26.9436 N   0  0  0  0  0  0  0  0  0  0  0  0
   17.5302   11.3846  -26.1365 N   0  0  0  0  0  0  0  0  0  0  0  0
   20.8449   12.0228  -24.8571 C   0  0  0  0  0  0  0  0  0  0  0  0
   21.3552   10.9590  -24.0066 O   0  0  0  0  0  0  0  0  0  0  0  0
   21.0871   11.1406  -22.5911 C   0  0  0  0  0  0  0  0  0  0  0  0
   18.9785    9.9967  -22.1671 N   0  0  0  0  0  0  0  0  0  0  0  0
   20.9594    9.0710  -21.3753 C   0  0  0  0  0  0  0  0  0  0  0  0
   20.2194    8.0384  -20.8427 C   0  0  0  0  0  0  0  0  0  0  0  0
   18.8320    7.9702  -20.9458 C   0  0  0  0  0  0  0  0  0  0  0  0
   18.1721    8.9834  -21.6085 C   0  0  0  0  0  0  0  0  0  0  0  0
   20.3154   10.0861  -22.0579 C   0  0  0  0  0  0  0  0  0  0  0  0
   14.4702   14.4060  -27.5291 C   0  0  0  0  0  0  0  0  0  0  0  0
   13.2101   14.6380  -28.1967 O   0  0  0  0  0  0  0  0  0  0  0  0
   12.4823   14.5013  -27.5702 H   0  0  0  0  0  0  0  0  0  0  0  0
   12.2443   14.2452  -20.4156 O   0  0  0  0  0  0  0  0  0  0  0  0
    8.3458   12.8326  -19.8243 C   0  0  0  0  0  0  0  0  0  0  0  0
    9.3742   11.9858  -20.5785 C   0  0  0  0  0  0  0  0  0  0  0  0
    9.0400   13.4889  -18.6344 C   0  0  0  0  0  0  0  0  0  0  0  0
   11.1829   13.4081  -19.9123 C   0  0  0  0  0  0  0  0  0  0  0  0
   10.4808   12.8064  -21.0268 O   0  0  0  0  0  0  0  0  0  0  0  0
    7.2790   12.0011  -19.3319 O   0  0  0  0  0  0  0  0  0  0  0  0
    8.1403   14.3899  -17.9844 O   0  0  0  0  0  0  0  0  0  0  0  0
   10.2336   14.2763  -19.0974 C   0  0  0  0  0  0  0  0  0  0  0  0
   10.8858   14.8192  -17.9309 O   0  0  0  0  0  0  0  0  0  0  0  0
    7.6419   11.3313  -18.7314 H   0  0  0  0  0  0  0  0  0  0  0  0
    7.8696   15.0822  -18.6076 H   0  0  0  0  0  0  0  0  0  0  0  0
   11.1661   14.0944  -17.3505 H   0  0  0  0  0  0  0  0  0  0  0  0
    8.7233   11.3516  -21.8014 C   0  0  0  0  0  0  0  0  0  0  0  0
    7.9457   12.3217  -22.4899 O   0  0  0  0  0  0  0  0  0  0  0  0
    7.2541   12.6598  -21.8997 H   0  0  0  0  0  0  0  0  0  0  0  0
 40 39  1  0  0  0
 39 19  1  0  0  0
 21 20  1  0  0  0
 19 20  1  0  0  0
 19 18  1  0  0  0
 20 22  1  0  0  0
 12 11  1  0  0  0
 18 15  1  0  0  0
 22 14  1  0  0  0
 22 16  1  0  0  0
  4  5  1  0  0  0
  4  1  1  0  0  0
 11  5  1  0  0  0
 14  1  1  0  0  0
 15 16  1  0  0  0
 15 29  1  0  0  0
 16 17  1  0  0  0
 29 28  1  0  0  0
 29 26  1  0  0  0
  5  6  1  0  0  0
  1  2  1  0  0  0
 28 27  2  0  0  0
  6  7  1  0  0  0
  6  8  1  0  0  0
 26 25  2  0  0  0
  2  8  1  0  0  0
  2  3  1  0  0  0
 27 25  1  0  0  0
 25 30  1  0  0  0
  8 42  1  0  0  0
 42 46  1  0  0  0
 30 31  1  0  0  0
 51 50  1  0  0  0
 50 46  1  0  0  0
 50 45  1  0  0  0
 46 47  1  0  0  0
 31 32  1  0  0  0
 32 38  1  0  0  0
 47 44  1  0  0  0
 49 45  1  0  0  0
 45 43  1  0  0  0
 38 34  2  0  0  0
 38 33  1  0  0  0
 44 43  1  0  0  0
 44 55  1  0  0  0
 43 48  1  0  0  0
 34 35  1  0  0  0
 33 37  2  0  0  0
 56 55  1  0  0  0
 35 36  2  0  0  0
 37 36  1  0  0  0
 17 23  1  0  0  0
 40 41  1  0  0  0
 21 24  1  0  0  0
  3  9  1  0  0  0
 12 13  1  0  0  0
  7 10  1  0  0  0
 56 57  1  0  0  0
 48 52  1  0  0  0
 49 53  1  0  0  0
 51 54  1  0  0  0
M  END
> <minimizedAffinity>
-9.60305

$$$$
5O9P_9P8_A_601


 57 61  0  0  0  0  0  0  0  0999 V2000
   17.6324    9.6108  -21.7177 C   0  0  0  0  0  0  0  0  0  0  0  0
   17.7646    8.5671  -20.5987 C   0  0  0  0  0  0  0  0  0  0  0  0
   16.6625    8.6844  -19.6441 O   0  0  0  0  0  0  0  0  0  0  0  0
   18.7738    9.5585  -22.5853 O   0  0  0  0  0  0  0  0  0  0  0  0
   19.9320    9.9607  -21.8050 C   0  0  0  0  0  0  0  0  0  0  0  0
   20.2318    8.8758  -20.8031 C   0  0  0  0  0  0  0  0  0  0  0  0
   21.4290    9.2131  -20.0805 O   0  0  0  0  0  0  0  0  0  0  0  0
   19.0767    8.7578  -19.8325 C   0  0  0  0  0  0  0  0  0  0  0  0
   16.6863    9.5607  -19.2288 H   0  0  0  0  0  0  0  0  0  0  0  0
   21.3018   10.0573  -19.6201 H   0  0  0  0  0  0  0  0  0  0  0  0
   21.1278   10.1116  -22.7308 C   0  0  0  0  0  0  0  0  0  0  0  0
   20.6143   10.1390  -24.0643 O   0  0  0  0  0  0  0  0  0  0  0  0
   19.9917   10.8772  -24.1559 H   0  0  0  0  0  0  0  0  0  0  0  0
   16.4230    9.3468  -22.4638 O   0  0  0  0  0  0  0  0  0  0  0  0
   13.5128   11.7311  -22.7302 C   0  0  0  0  0  0  0  0  0  0  0  0
   14.3274   10.5397  -22.2467 C   0  0  0  0  0  0  0  0  0  0  0  0
   14.4703   10.6141  -20.8187 O   0  0  0  0  0  0  0  0  0  0  0  0
   13.4458   11.6896  -24.1408 O   0  0  0  0  0  0  0  0  0  0  0  0
   14.6981   11.8214  -24.7888 C   0  0  0  0  0  0  0  0  0  0  0  0
   15.6377   10.6737  -24.4216 C   0  0  0  0  0  0  0  0  0  0  0  0
   16.9515   10.9485  -24.9915 O   0  0  0  0  0  0  0  0  0  0  0  0
   15.7366   10.5482  -22.8873 C   0  0  0  0  0  0  0  0  0  0  0  0
   14.9319   11.4338  -20.5822 H   0  0  0  0  0  0  0  0  0  0  0  0
   17.2898   11.7850  -24.6355 H   0  0  0  0  0  0  0  0  0  0  0  0
    9.9694   11.7127  -22.3307 C   0  0  0  0  0  0  0  0  0  0  0  0
   11.0183   12.3333  -22.8499 C   0  0  0  0  0  0  0  0  0  0  0  0
   10.3923   10.6631  -21.6754 N   0  0  0  0  0  0  0  0  0  0  0  0
   11.6041   10.6326  -21.7554 N   0  0  0  0  0  0  0  0  0  0  0  0
   12.0651   11.6300  -22.4522 N   0  0  0  0  0  0  0  0  0  0  0  0
    8.4886   12.1193  -22.4399 C   0  0  0  0  0  0  0  0  0  0  0  0
    8.1783   13.2486  -21.5773 O   0  0  0  0  0  0  0  0  0  0  0  0
    8.5405   13.0579  -20.1842 C   0  0  0  0  0  0  0  0  0  0  0  0
    9.2475   15.3419  -19.7169 N   0  0  0  0  0  0  0  0  0  0  0  0
   10.7157   13.5855  -19.3080 C   0  0  0  0  0  0  0  0  0  0  0  0
   11.6432   14.5105  -18.8815 C   0  0  0  0  0  0  0  0  0  0  0  0
   11.3985   15.8817  -18.8796 C   0  0  0  0  0  0  0  0  0  0  0  0
   10.1741   16.3310  -19.3270 C   0  0  0  0  0  0  0  0  0  0  0  0
    9.4768   14.0175  -19.7435 C   0  0  0  0  0  0  0  0  0  0  0  0
   14.4011   11.9149  -26.3114 C   0  0  0  0  0  0  0  0  0  0  0  0
   13.2923   11.0416  -26.6202 O   0  0  0  0  0  0  0  0  0  0  0  0
   12.5139   11.3146  -26.1099 H   0  0  0  0  0  0  0  0  0  0  0  0
   19.2491    7.6375  -18.9705 O   0  0  0  0  0  0  0  0  0  0  0  0
   20.0240    7.0498  -14.8965 C   0  0  0  0  0  0  0  0  0  0  0  0
   21.1345    7.5192  -15.8400 C   0  0  0  0  0  0  0  0  0  0  0  0
   18.7361    7.7804  -15.2653 C   0  0  0  0  0  0  0  0  0  0  0  0
   19.5808    7.9700  -17.6067 C   0  0  0  0  0  0  0  0  0  0  0  0
   20.7784    7.2541  -17.2191 O   0  0  0  0  0  0  0  0  0  0  0  0
   20.3588    7.3693  -13.5335 O   0  0  0  0  0  0  0  0  0  0  0  0
   17.6494    7.2696  -14.4894 O   0  0  0  0  0  0  0  0  0  0  0  0
   18.4130    7.5651  -16.7173 C   0  0  0  0  0  0  0  0  0  0  0  0
   17.2272    8.3269  -17.0249 O   0  0  0  0  0  0  0  0  0  0  0  0
   20.4684    8.3289  -13.4438 H   0  0  0  0  0  0  0  0  0  0  0  0
   17.5355    6.3245  -14.6755 H   0  0  0  0  0  0  0  0  0  0  0  0
   17.3934    9.2671  -16.8536 H   0  0  0  0  0  0  0  0  0  0  0  0
   22.4261    6.7738  -15.5280 C   0  0  0  0  0  0  0  0  0  0  0  0
   23.1083    7.4194  -14.4613 O   0  0  0  0  0  0  0  0  0  0  0  0
   23.3198    8.3308  -14.7173 H   0  0  0  0  0  0  0  0  0  0  0  0
 40 39  1  0  0  0
 39 19  1  0  0  0
 21 20  1  0  0  0
 19 20  1  0  0  0
 19 18  1  0  0  0
 20 22  1  0  0  0
 12 11  1  0  0  0
 18 15  1  0  0  0
 22 14  1  0  0  0
 22 16  1  0  0  0
  4  5  1  0  0  0
  4  1  1  0  0  0
 11  5  1  0  0  0
 14  1  1  0  0  0
 15 16  1  0  0  0
 15 29  1  0  0  0
 16 17  1  0  0  0
 29 28  1  0  0  0
 29 26  1  0  0  0
  5  6  1  0  0  0
  1  2  1  0  0  0
 28 27  2  0  0  0
  6  7  1  0  0  0
  6  8  1  0  0  0
 26 25  2  0  0  0
  2  8  1  0  0  0
  2  3  1  0  0  0
 27 25  1  0  0  0
 25 30  1  0  0  0
  8 42  1  0  0  0
 42 46  1  0  0  0
 30 31  1  0  0  0
 51 50  1  0  0  0
 50 46  1  0  0  0
 50 45  1  0  0  0
 46 47  1  0  0  0
 31 32  1  0  0  0
 32 38  1  0  0  0
 47 44  1  0  0  0
 49 45  1  0  0  0
 45 43  1  0  0  0
 38 34  2  0  0  0
 38 33  1  0  0  0
 44 43  1  0  0  0
 44 55  1  0  0  0
 43 48  1  0  0  0
 34 35  1  0  0  0
 33 37  2  0  0  0
 56 55  1  0  0  0
 35 36  2  0  0  0
 37 36  1  0  0  0
 17 23  1  0  0  0
 40 41  1  0  0  0
 21 24  1  0  0  0
  3  9  1  0  0  0
 12 13  1  0  0  0
  7 10  1  0  0  0
 56 57  1  0  0  0
 48 52  1  0  0  0
 49 53  1  0  0  0
 51 54  1  0  0  0
M  END
> <minimizedAffinity>
-9.44719

$$$$
5O9P_9P8_A_601


 57 61  0  0  0  0  0  0  0  0999 V2000
   14.4634   11.1651  -21.9845 C   0  0  0  0  0  0  0  0  0  0  0  0
   13.5609   12.4078  -21.9760 C   0  0  0  0  0  0  0  0  0  0  0  0
   12.9481   12.5977  -20.6615 O   0  0  0  0  0  0  0  0  0  0  0  0
   14.9714   10.9270  -23.3049 O   0  0  0  0  0  0  0  0  0  0  0  0
   13.8386   10.5983  -24.1539 C   0  0  0  0  0  0  0  0  0  0  0  0
   13.0072   11.8408  -24.3416 C   0  0  0  0  0  0  0  0  0  0  0  0
   11.9297   11.5594  -25.2521 O   0  0  0  0  0  0  0  0  0  0  0  0
   12.4368   12.2679  -23.0064 C   0  0  0  0  0  0  0  0  0  0  0  0
   12.3909   11.8322  -20.4508 H   0  0  0  0  0  0  0  0  0  0  0  0
   11.3780   10.8483  -24.8903 H   0  0  0  0  0  0  0  0  0  0  0  0
   14.3494   10.1452  -25.5117 C   0  0  0  0  0  0  0  0  0  0  0  0
   15.6073    9.5057  -25.2852 O   0  0  0  0  0  0  0  0  0  0  0  0
   15.4858    8.7591  -24.6779 H   0  0  0  0  0  0  0  0  0  0  0  0
   15.5531   11.3714  -21.0576 O   0  0  0  0  0  0  0  0  0  0  0  0
   17.2997    8.8197  -18.8981 C   0  0  0  0  0  0  0  0  0  0  0  0
   16.4269   10.0154  -19.2523 C   0  0  0  0  0  0  0  0  0  0  0  0
   15.1111    9.8162  -18.7099 O   0  0  0  0  0  0  0  0  0  0  0  0
   18.5654    8.9900  -19.5021 O   0  0  0  0  0  0  0  0  0  0  0  0
   18.5386    9.0109  -20.9178 C   0  0  0  0  0  0  0  0  0  0  0  0
   17.7099   10.1832  -21.4411 C   0  0  0  0  0  0  0  0  0  0  0  0
   17.5922   10.0591  -22.8892 O   0  0  0  0  0  0  0  0  0  0  0  0
   16.3123   10.1693  -20.7883 C   0  0  0  0  0  0  0  0  0  0  0  0
   14.7226    9.0131  -19.0908 H   0  0  0  0  0  0  0  0  0  0  0  0
   17.1589    9.2192  -23.1075 H   0  0  0  0  0  0  0  0  0  0  0  0
   18.3392    9.1012  -15.4987 C   0  0  0  0  0  0  0  0  0  0  0  0
   18.1453    9.7289  -16.6490 C   0  0  0  0  0  0  0  0  0  0  0  0
   18.0332    7.8400  -15.6587 N   0  0  0  0  0  0  0  0  0  0  0  0
   17.6945    7.6787  -16.8142 N   0  0  0  0  0  0  0  0  0  0  0  0
   17.7459    8.7895  -17.4898 N   0  0  0  0  0  0  0  0  0  0  0  0
   18.8458    9.7020  -14.1749 C   0  0  0  0  0  0  0  0  0  0  0  0
   18.8957    8.7037  -13.1182 O   0  0  0  0  0  0  0  0  0  0  0  0
   20.2046    8.5347  -12.5126 C   0  0  0  0  0  0  0  0  0  0  0  0
   20.8238    6.7114  -11.0203 N   0  0  0  0  0  0  0  0  0  0  0  0
   20.4268    6.2635  -13.2675 C   0  0  0  0  0  0  0  0  0  0  0  0
   20.7094    4.9393  -13.0141 C   0  0  0  0  0  0  0  0  0  0  0  0
   21.0748    4.4713  -11.7541 C   0  0  0  0  0  0  0  0  0  0  0  0
   21.1591    5.3756  -10.7167 C   0  0  0  0  0  0  0  0  0  0  0  0
   20.4897    7.1807  -12.2350 C   0  0  0  0  0  0  0  0  0  0  0  0
   20.0195    9.0413  -21.3883 C   0  0  0  0  0  0  0  0  0  0  0  0
   20.8708    9.1601  -20.2271 O   0  0  0  0  0  0  0  0  0  0  0  0
   20.7221    8.4037  -19.6384 H   0  0  0  0  0  0  0  0  0  0  0  0
   11.7793   13.5264  -23.1133 O   0  0  0  0  0  0  0  0  0  0  0  0
    8.8667   12.7481  -20.2058 C   0  0  0  0  0  0  0  0  0  0  0  0
    9.4872   14.1419  -20.3320 C   0  0  0  0  0  0  0  0  0  0  0  0
    8.6184   12.2012  -21.6085 C   0  0  0  0  0  0  0  0  0  0  0  0
   10.5116   13.6058  -22.4300 C   0  0  0  0  0  0  0  0  0  0  0  0
   10.7267   14.0829  -21.0797 O   0  0  0  0  0  0  0  0  0  0  0  0
    7.6072   12.8232  -19.5128 O   0  0  0  0  0  0  0  0  0  0  0  0
    8.1607   10.8493  -21.5282 O   0  0  0  0  0  0  0  0  0  0  0  0
    9.8926   12.2147  -22.4056 C   0  0  0  0  0  0  0  0  0  0  0  0
    9.5873   11.7502  -23.7368 O   0  0  0  0  0  0  0  0  0  0  0  0
    7.0010   13.3984  -20.0054 H   0  0  0  0  0  0  0  0  0  0  0  0
    8.8371   10.3041  -21.0966 H   0  0  0  0  0  0  0  0  0  0  0  0
    8.9314   12.3387  -24.1421 H   0  0  0  0  0  0  0  0  0  0  0  0
    9.7906   14.6991  -18.9468 C   0  0  0  0  0  0  0  0  0  0  0  0
   10.2852   13.6628  -18.1093 O   0  0  0  0  0  0  0  0  0  0  0  0
    9.6179   12.9630  -18.0325 H   0  0  0  0  0  0  0  0  0  0  0  0
 40 39  1  0  0  0
 39 19  1  0  0  0
 21 20  1  0  0  0
 19 20  1  0  0  0
 19 18  1  0  0  0
 20 22  1  0  0  0
 12 11  1  0  0  0
 18 15  1  0  0  0
 22 14  1  0  0  0
 22 16  1  0  0  0
  4  5  1  0  0  0
  4  1  1  0  0  0
 11  5  1  0  0  0
 14  1  1  0  0  0
 15 16  1  0  0  0
 15 29  1  0  0  0
 16 17  1  0  0  0
 29 28  1  0  0  0
 29 26  1  0  0  0
  5  6  1  0  0  0
  1  2  1  0  0  0
 28 27  2  0  0  0
  6  7  1  0  0  0
  6  8  1  0  0  0
 26 25  2  0  0  0
  2  8  1  0  0  0
  2  3  1  0  0  0
 27 25  1  0  0  0
 25 30  1  0  0  0
  8 42  1  0  0  0
 42 46  1  0  0  0
 30 31  1  0  0  0
 51 50  1  0  0  0
 50 46  1  0  0  0
 50 45  1  0  0  0
 46 47  1  0  0  0
 31 32  1  0  0  0
 32 38  1  0  0  0
 47 44  1  0  0  0
 49 45  1  0  0  0
 45 43  1  0  0  0
 38 34  2  0  0  0
 38 33  1  0  0  0
 44 43  1  0  0  0
 44 55  1  0  0  0
 43 48  1  0  0  0
 34 35  1  0  0  0
 33 37  2  0  0  0
 56 55  1  0  0  0
 35 36  2  0  0  0
 37 36  1  0  0  0
 17 23  1  0  0  0
 40 41  1  0  0  0
 21 24  1  0  0  0
  3  9  1  0  0  0
 12 13  1  0  0  0
  7 10  1  0  0  0
 56 57  1  0  0  0
 48 52  1  0  0  0
 49 53  1  0  0  0
 51 54  1  0  0  0
M  END
> <minimizedAffinity>
-9.22557

$$$$
