4XU0_44N_A_301


 46 50  0  0  0  0  0  0  0  0999 V2000
   -4.0856   -3.3604    7.1846 O   0  0  0  0  0  0  0  0  0  0  0  0
   -3.9754   -4.8239    6.7416 S   0  0  0  0  0  0  0  0  0  0  0  0
   -5.1910   -5.1799    6.0685 O   0  0  0  0  0  0  0  0  0  0  0  0
   -2.8822   -4.9650    5.8211 O   0  0  0  0  0  0  0  0  0  0  0  0
   -4.7093   -6.5969    8.4241 C   0  0  0  0  0  0  0  0  0  0  0  0
   -5.8545   -6.5460    8.0132 O   0  0  0  0  0  0  0  0  0  0  0  0
   -3.7449   -5.7914    7.9939 N   0  0  0  0  0  0  0  0  0  0  0  0
   -2.8741   -5.7900    8.4532 H   0  0  0  0  0  0  0  0  0  0  0  0
   -4.3192   -7.6088    9.4750 C   0  0  0  0  0  0  0  0  0  0  0  0
   -3.7940   -6.8731   10.7040 C   0  0  0  0  0  0  0  0  0  0  0  0
   -4.0434   -7.6702   11.9756 C   0  0  0  0  0  0  0  0  0  0  0  0
   -3.2398   -8.9649   11.9864 C   0  0  0  0  0  0  0  0  0  0  0  0
   -2.2677  -10.5575   13.6822 C   0  0  0  0  0  0  0  0  0  0  0  0
   -0.9977  -10.0442   13.1993 N   0  0  0  0  0  0  0  0  0  0  0  0
   -0.1407   -9.8405   14.1948 C   0  0  0  0  0  0  0  0  0  0  0  0
    0.9313   -9.2602   14.0935 O   0  0  0  0  0  0  0  0  0  0  0  0
   -0.6362  -10.3184   15.3286 N   0  0  0  0  0  0  0  0  0  0  0  0
   -2.0444  -10.6177   15.1954 C   0  0  0  0  0  0  0  0  0  0  0  0
   -2.8337   -9.5610   15.9551 C   0  0  0  0  0  0  0  0  0  0  0  0
   -3.5487   -8.5559   14.7074 S   0  0  0  0  0  0  0  0  0  0  0  0
   -3.4457   -9.6542   13.3311 C   0  0  0  0  0  0  0  0  0  0  0  0
   -0.7965   -9.8688   12.2517 H   0  0  0  0  0  0  0  0  0  0  0  0
   -0.1138  -10.4517   16.1524 H   0  0  0  0  0  0  0  0  0  0  0  0
   -2.9929   -2.6319    7.7369 C   0  0  0  0  0  0  0  0  0  0  0  0
   -3.3965   -1.1639    7.6645 C   0  0  0  0  0  0  0  0  0  0  0  0
   -4.5720   -0.9186    8.4505 O   0  0  0  0  0  0  0  0  0  0  0  0
   -2.3456   -0.1898    8.1699 C   0  0  0  0  0  0  0  0  0  0  0  0
   -1.4547    0.1770    7.1149 O   0  0  0  0  0  0  0  0  0  0  0  0
   -3.2065    0.9865    8.5758 C   0  0  0  0  0  0  0  0  0  0  0  0
   -3.6088    1.6553    7.3761 O   0  0  0  0  0  0  0  0  0  0  0  0
   -2.4846    2.0082    9.4502 C   0  0  0  0  0  0  0  0  0  0  0  0
   -4.4636    0.3280    9.1537 C   0  0  0  0  0  0  0  0  0  0  0  0
   -1.9643    0.5342    6.3709 H   0  0  0  0  0  0  0  0  0  0  0  0
   -4.0722    1.0301    6.7972 H   0  0  0  0  0  0  0  0  0  0  0  0
   -7.9176   -0.3824   11.7616 C   0  0  0  0  0  0  0  0  0  0  0  0
   -5.3417   -0.4750   12.5928 C   0  0  0  0  0  0  0  0  0  0  0  0
   -5.6454   -0.1887   11.2738 C   0  0  0  0  0  0  0  0  0  0  0  0
   -6.9393   -0.1429   10.8807 N   0  0  0  0  0  0  0  0  0  0  0  0
   -3.4931   -0.1667   11.4834 C   0  0  0  0  0  0  0  0  0  0  0  0
   -7.6513   -0.6580   13.0428 N   0  0  0  0  0  0  0  0  0  0  0  0
   -6.3783   -0.7134   13.4876 C   0  0  0  0  0  0  0  0  0  0  0  0
   -4.5018    0.0115   10.6124 N   0  0  0  0  0  0  0  0  0  0  0  0
   -3.9981   -0.4531   12.7039 N   0  0  0  0  0  0  0  0  0  0  0  0
   -6.1281   -0.9999   14.7899 N   0  0  0  0  0  0  0  0  0  0  0  0
   -5.1998   -1.0405   15.1155 H   0  0  0  0  0  0  0  0  0  0  0  0
   -6.8747   -1.1672   15.4094 H   0  0  0  0  0  0  0  0  0  0  0  0
  4  2  2  0  0  0
  3  2  2  0  0  0
  2  1  1  0  0  0
  2  7  1  0  0  0
  1 24  1  0  0  0
 28 27  1  0  0  0
  7  5  1  0  0  0
 30 29  1  0  0  0
 25 24  1  0  0  0
 25 27  1  0  0  0
 25 26  1  0  0  0
 27 29  1  0  0  0
  5  6  2  0  0  0
  5  9  1  0  0  0
 26 32  1  0  0  0
 29 32  1  0  0  0
 29 31  1  0  0  0
  9 10  1  0  0  0
 32 42  1  0  0  0
 10 11  1  0  0  0
 42 37  1  0  0  0
 42 39  1  0  0  0
 38 37  2  0  0  0
 38 35  1  0  0  0
 37 36  1  0  0  0
 11 12  1  0  0  0
 39 43  2  0  0  0
 35 40  2  0  0  0
 36 43  1  0  0  0
 36 41  2  0  0  0
 12 21  1  0  0  0
 40 41  1  0  0  0
 14 13  1  0  0  0
 14 15  1  0  0  0
 41 44  1  0  0  0
 13 21  1  0  0  0
 13 18  1  0  0  0
 21 20  1  0  0  0
 15 16  2  0  0  0
 15 17  1  0  0  0
 18 17  1  0  0  0
 18 19  1  0  0  0
 20 19  1  0  0  0
 14 22  1  0  0  0
 17 23  1  0  0  0
  7  8  1  0  0  0
 28 33  1  0  0  0
 30 34  1  0  0  0
 44 45  1  0  0  0
 44 46  1  0  0  0
M  END
> <minimizedAffinity>
-13.22624

$$$$
4XU0_44N_A_301


 46 50  0  0  0  0  0  0  0  0999 V2000
   -4.5469   -3.3154    6.9043 O   0  0  0  0  0  0  0  0  0  0  0  0
   -3.3076   -4.1044    7.3422 S   0  0  0  0  0  0  0  0  0  0  0  0
   -2.7037   -4.6737    6.1722 O   0  0  0  0  0  0  0  0  0  0  0  0
   -2.3650   -3.2132    7.9584 O   0  0  0  0  0  0  0  0  0  0  0  0
   -4.5794   -6.2011    8.0491 C   0  0  0  0  0  0  0  0  0  0  0  0
   -5.2587   -6.1576    7.0393 O   0  0  0  0  0  0  0  0  0  0  0  0
   -3.6948   -5.2647    8.3725 N   0  0  0  0  0  0  0  0  0  0  0  0
   -3.2706   -5.2851    9.2607 H   0  0  0  0  0  0  0  0  0  0  0  0
   -4.7149   -7.3569    9.0114 C   0  0  0  0  0  0  0  0  0  0  0  0
   -3.9600   -7.0268   10.2956 C   0  0  0  0  0  0  0  0  0  0  0  0
   -3.9658   -8.2035   11.2599 C   0  0  0  0  0  0  0  0  0  0  0  0
   -3.2291   -7.8675   12.5508 C   0  0  0  0  0  0  0  0  0  0  0  0
   -2.3348   -9.9951   13.5660 C   0  0  0  0  0  0  0  0  0  0  0  0
   -1.0418   -9.3878   13.3038 N   0  0  0  0  0  0  0  0  0  0  0  0
   -0.1947   -9.5846   14.3092 C   0  0  0  0  0  0  0  0  0  0  0  0
    0.8966   -9.0447   14.4266 O   0  0  0  0  0  0  0  0  0  0  0  0
   -0.7230  -10.4194   15.1944 N   0  0  0  0  0  0  0  0  0  0  0  0
   -2.1376  -10.6015   14.9576 C   0  0  0  0  0  0  0  0  0  0  0  0
   -2.9052   -9.8601   16.0431 C   0  0  0  0  0  0  0  0  0  0  0  0
   -3.5683   -8.4502   15.2364 S   0  0  0  0  0  0  0  0  0  0  0  0
   -3.4781   -8.9853   13.5581 C   0  0  0  0  0  0  0  0  0  0  0  0
   -0.8201   -8.8916   12.4829 H   0  0  0  0  0  0  0  0  0  0  0  0
   -0.2182  -10.8573   15.9174 H   0  0  0  0  0  0  0  0  0  0  0  0
   -4.8713   -3.0746    5.5381 C   0  0  0  0  0  0  0  0  0  0  0  0
   -5.4803   -1.6779    5.4983 C   0  0  0  0  0  0  0  0  0  0  0  0
   -6.1927   -1.3972    6.7122 O   0  0  0  0  0  0  0  0  0  0  0  0
   -4.4752   -0.5503    5.3339 C   0  0  0  0  0  0  0  0  0  0  0  0
   -4.2273   -0.2989    3.9495 O   0  0  0  0  0  0  0  0  0  0  0  0
   -5.2246    0.6049    5.9612 C   0  0  0  0  0  0  0  0  0  0  0  0
   -6.2235    1.0241    5.0258 O   0  0  0  0  0  0  0  0  0  0  0  0
   -4.3480    1.8158    6.2692 C   0  0  0  0  0  0  0  0  0  0  0  0
   -5.9665   -0.0441    7.1343 C   0  0  0  0  0  0  0  0  0  0  0  0
   -5.0666   -0.1164    3.4986 H   0  0  0  0  0  0  0  0  0  0  0  0
   -6.7989    0.2738    4.8093 H   0  0  0  0  0  0  0  0  0  0  0  0
   -7.7227   -0.1899   11.1506 C   0  0  0  0  0  0  0  0  0  0  0  0
   -5.0606   -0.2258   10.6541 C   0  0  0  0  0  0  0  0  0  0  0  0
   -5.9694   -0.1563    9.6133 C   0  0  0  0  0  0  0  0  0  0  0  0
   -7.2949   -0.1349    9.8839 N   0  0  0  0  0  0  0  0  0  0  0  0
   -3.9808   -0.1703    8.7637 C   0  0  0  0  0  0  0  0  0  0  0  0
   -6.8653   -0.2540   12.1749 N   0  0  0  0  0  0  0  0  0  0  0  0
   -5.5330   -0.2754   11.9604 C   0  0  0  0  0  0  0  0  0  0  0  0
   -5.2900   -0.1085    8.4638 N   0  0  0  0  0  0  0  0  0  0  0  0
   -3.8290   -0.2298   10.1053 N   0  0  0  0  0  0  0  0  0  0  0  0
   -4.6791   -0.3462   13.0124 N   0  0  0  0  0  0  0  0  0  0  0  0
   -3.7070   -0.3619   12.8572 H   0  0  0  0  0  0  0  0  0  0  0  0
   -5.0315   -0.3818   13.9309 H   0  0  0  0  0  0  0  0  0  0  0  0
  4  2  2  0  0  0
  3  2  2  0  0  0
  2  1  1  0  0  0
  2  7  1  0  0  0
  1 24  1  0  0  0
 28 27  1  0  0  0
  7  5  1  0  0  0
 30 29  1  0  0  0
 25 24  1  0  0  0
 25 27  1  0  0  0
 25 26  1  0  0  0
 27 29  1  0  0  0
  5  6  2  0  0  0
  5  9  1  0  0  0
 26 32  1  0  0  0
 29 32  1  0  0  0
 29 31  1  0  0  0
  9 10  1  0  0  0
 32 42  1  0  0  0
 10 11  1  0  0  0
 42 37  1  0  0  0
 42 39  1  0  0  0
 38 37  2  0  0  0
 38 35  1  0  0  0
 37 36  1  0  0  0
 11 12  1  0  0  0
 39 43  2  0  0  0
 35 40  2  0  0  0
 36 43  1  0  0  0
 36 41  2  0  0  0
 12 21  1  0  0  0
 40 41  1  0  0  0
 14 13  1  0  0  0
 14 15  1  0  0  0
 41 44  1  0  0  0
 13 21  1  0  0  0
 13 18  1  0  0  0
 21 20  1  0  0  0
 15 16  2  0  0  0
 15 17  1  0  0  0
 18 17  1  0  0  0
 18 19  1  0  0  0
 20 19  1  0  0  0
 14 22  1  0  0  0
 17 23  1  0  0  0
  7  8  1  0  0  0
 28 33  1  0  0  0
 30 34  1  0  0  0
 44 45  1  0  0  0
 44 46  1  0  0  0
M  END
> <minimizedAffinity>
-12.88295

$$$$
4XU0_44N_A_301


 46 50  0  0  0  0  0  0  0  0999 V2000
   -4.4554   -3.1423    6.9079 O   0  0  0  0  0  0  0  0  0  0  0  0
   -3.3188   -4.0840    7.3222 S   0  0  0  0  0  0  0  0  0  0  0  0
   -2.8673   -4.7812    6.1527 O   0  0  0  0  0  0  0  0  0  0  0  0
   -2.2265   -3.3144    7.8486 O   0  0  0  0  0  0  0  0  0  0  0  0
   -4.6639   -6.1027    8.1149 C   0  0  0  0  0  0  0  0  0  0  0  0
   -5.2420   -6.1669    7.0449 O   0  0  0  0  0  0  0  0  0  0  0  0
   -3.8100   -5.1336    8.4242 N   0  0  0  0  0  0  0  0  0  0  0  0
   -3.4740   -5.0603    9.3467 H   0  0  0  0  0  0  0  0  0  0  0  0
   -4.8980   -7.1538    9.1736 C   0  0  0  0  0  0  0  0  0  0  0  0
   -3.7573   -7.1039   10.1856 C   0  0  0  0  0  0  0  0  0  0  0  0
   -3.8679   -8.2311   11.2013 C   0  0  0  0  0  0  0  0  0  0  0  0
   -3.2118   -7.8536   12.5239 C   0  0  0  0  0  0  0  0  0  0  0  0
   -2.3540   -9.9878   13.5565 C   0  0  0  0  0  0  0  0  0  0  0  0
   -1.0509   -9.3999   13.2999 N   0  0  0  0  0  0  0  0  0  0  0  0
   -0.2134   -9.6029   14.3120 C   0  0  0  0  0  0  0  0  0  0  0  0
    0.8844   -9.0775   14.4339 O   0  0  0  0  0  0  0  0  0  0  0  0
   -0.7592  -10.4255   15.1980 N   0  0  0  0  0  0  0  0  0  0  0  0
   -2.1746  -10.5892   14.9526 C   0  0  0  0  0  0  0  0  0  0  0  0
   -2.9391   -9.8314   16.0289 C   0  0  0  0  0  0  0  0  0  0  0  0
   -3.5771   -8.4169   15.2102 S   0  0  0  0  0  0  0  0  0  0  0  0
   -3.4830   -8.9623   13.5354 C   0  0  0  0  0  0  0  0  0  0  0  0
   -0.8168   -8.9113   12.4778 H   0  0  0  0  0  0  0  0  0  0  0  0
   -0.2654  -10.8664   15.9268 H   0  0  0  0  0  0  0  0  0  0  0  0
   -4.7316   -1.9164    7.5792 C   0  0  0  0  0  0  0  0  0  0  0  0
   -4.0426   -0.8321    6.7591 C   0  0  0  0  0  0  0  0  0  0  0  0
   -3.9167   -1.2330    5.3867 O   0  0  0  0  0  0  0  0  0  0  0  0
   -4.7640    0.5050    6.7387 C   0  0  0  0  0  0  0  0  0  0  0  0
   -4.3513    1.3130    7.8425 O   0  0  0  0  0  0  0  0  0  0  0  0
   -4.2661    1.0877    5.4340 C   0  0  0  0  0  0  0  0  0  0  0  0
   -2.9233    1.5331    5.6502 O   0  0  0  0  0  0  0  0  0  0  0  0
   -5.0738    2.2867    4.9447 C   0  0  0  0  0  0  0  0  0  0  0  0
   -4.1810   -0.1297    4.5074 C   0  0  0  0  0  0  0  0  0  0  0  0
   -3.3864    1.4118    7.8279 H   0  0  0  0  0  0  0  0  0  0  0  0
   -2.3828    0.7908    5.9630 H   0  0  0  0  0  0  0  0  0  0  0  0
   -5.9227   -4.0807    3.7384 C   0  0  0  0  0  0  0  0  0  0  0  0
   -6.9264   -1.7619    2.7635 C   0  0  0  0  0  0  0  0  0  0  0  0
   -5.7941   -1.7592    3.5584 C   0  0  0  0  0  0  0  0  0  0  0  0
   -5.3068   -2.9295    4.0312 N   0  0  0  0  0  0  0  0  0  0  0  0
   -6.2374    0.2880    3.0206 C   0  0  0  0  0  0  0  0  0  0  0  0
   -7.0166   -4.1114    2.9696 N   0  0  0  0  0  0  0  0  0  0  0  0
   -7.5422   -2.9730    2.4702 C   0  0  0  0  0  0  0  0  0  0  0  0
   -5.3775   -0.4968    3.6933 N   0  0  0  0  0  0  0  0  0  0  0  0
   -7.1841   -0.4794    2.4363 N   0  0  0  0  0  0  0  0  0  0  0  0
   -8.6557   -3.0240    1.6966 N   0  0  0  0  0  0  0  0  0  0  0  0
   -9.0400   -2.1942    1.3318 H   0  0  0  0  0  0  0  0  0  0  0  0
   -9.0793   -3.8907    1.5001 H   0  0  0  0  0  0  0  0  0  0  0  0
  4  2  2  0  0  0
  3  2  2  0  0  0
  2  1  1  0  0  0
  2  7  1  0  0  0
  1 24  1  0  0  0
 28 27  1  0  0  0
  7  5  1  0  0  0
 30 29  1  0  0  0
 25 24  1  0  0  0
 25 27  1  0  0  0
 25 26  1  0  0  0
 27 29  1  0  0  0
  5  6  2  0  0  0
  5  9  1  0  0  0
 26 32  1  0  0  0
 29 32  1  0  0  0
 29 31  1  0  0  0
  9 10  1  0  0  0
 32 42  1  0  0  0
 10 11  1  0  0  0
 42 37  1  0  0  0
 42 39  1  0  0  0
 38 37  2  0  0  0
 38 35  1  0  0  0
 37 36  1  0  0  0
 11 12  1  0  0  0
 39 43  2  0  0  0
 35 40  2  0  0  0
 36 43  1  0  0  0
 36 41  2  0  0  0
 12 21  1  0  0  0
 40 41  1  0  0  0
 14 13  1  0  0  0
 14 15  1  0  0  0
 41 44  1  0  0  0
 13 21  1  0  0  0
 13 18  1  0  0  0
 21 20  1  0  0  0
 15 16  2  0  0  0
 15 17  1  0  0  0
 18 17  1  0  0  0
 18 19  1  0  0  0
 20 19  1  0  0  0
 14 22  1  0  0  0
 17 23  1  0  0  0
  7  8  1  0  0  0
 28 33  1  0  0  0
 30 34  1  0  0  0
 44 45  1  0  0  0
 44 46  1  0  0  0
M  END
> <minimizedAffinity>
-11.62049

$$$$
4XU0_44N_A_301


 46 50  0  0  0  0  0  0  0  0999 V2000
   -3.9885   -2.9387    6.2589 O   0  0  0  0  0  0  0  0  0  0  0  0
   -4.0094   -4.4530    6.4968 S   0  0  0  0  0  0  0  0  0  0  0  0
   -5.2327   -4.9733    5.9578 O   0  0  0  0  0  0  0  0  0  0  0  0
   -2.9074   -5.0620    5.8059 O   0  0  0  0  0  0  0  0  0  0  0  0
   -3.9326   -6.0520    8.4843 C   0  0  0  0  0  0  0  0  0  0  0  0
   -4.1762   -7.0005    7.7603 O   0  0  0  0  0  0  0  0  0  0  0  0
   -3.9143   -4.7949    8.0561 N   0  0  0  0  0  0  0  0  0  0  0  0
   -3.8410   -4.0618    8.7091 H   0  0  0  0  0  0  0  0  0  0  0  0
   -3.6310   -6.2665    9.9483 C   0  0  0  0  0  0  0  0  0  0  0  0
   -4.6083   -7.2932   10.5128 C   0  0  0  0  0  0  0  0  0  0  0  0
   -3.8764   -8.4278   11.2140 C   0  0  0  0  0  0  0  0  0  0  0  0
   -3.2542   -7.9615   12.5245 C   0  0  0  0  0  0  0  0  0  0  0  0
   -2.3477  -10.0432   13.6206 C   0  0  0  0  0  0  0  0  0  0  0  0
   -1.0579   -9.4499   13.3142 N   0  0  0  0  0  0  0  0  0  0  0  0
   -0.1973   -9.6031   14.3156 C   0  0  0  0  0  0  0  0  0  0  0  0
    0.8959   -9.0600   14.3942 O   0  0  0  0  0  0  0  0  0  0  0  0
   -0.7140  -10.3972   15.2441 N   0  0  0  0  0  0  0  0  0  0  0  0
   -2.1319  -10.5876   15.0349 C   0  0  0  0  0  0  0  0  0  0  0  0
   -2.8840   -9.7979   16.0969 C   0  0  0  0  0  0  0  0  0  0  0  0
   -3.5570   -8.4242   15.2377 S   0  0  0  0  0  0  0  0  0  0  0  0
   -3.4902   -9.0332   13.5836 C   0  0  0  0  0  0  0  0  0  0  0  0
   -0.8470   -8.9909   12.4692 H   0  0  0  0  0  0  0  0  0  0  0  0
   -0.1997  -10.8034   15.9788 H   0  0  0  0  0  0  0  0  0  0  0  0
   -4.1405   -1.9859    7.3071 C   0  0  0  0  0  0  0  0  0  0  0  0
   -5.4268   -1.2302    6.9949 C   0  0  0  0  0  0  0  0  0  0  0  0
   -5.2889    0.1633    7.3097 O   0  0  0  0  0  0  0  0  0  0  0  0
   -5.8615   -1.2883    5.5401 C   0  0  0  0  0  0  0  0  0  0  0  0
   -6.6786   -2.4371    5.3076 O   0  0  0  0  0  0  0  0  0  0  0  0
   -6.6783   -0.0196    5.4266 C   0  0  0  0  0  0  0  0  0  0  0  0
   -7.9334   -0.2607    6.0708 O   0  0  0  0  0  0  0  0  0  0  0  0
   -6.9738    0.3986    3.9888 C   0  0  0  0  0  0  0  0  0  0  0  0
   -5.9170    0.9766    6.3075 C   0  0  0  0  0  0  0  0  0  0  0  0
   -7.4312   -2.4278    5.9195 H   0  0  0  0  0  0  0  0  0  0  0  0
   -7.7787   -0.5293    6.9900 H   0  0  0  0  0  0  0  0  0  0  0  0
   -5.7134    5.3282    5.8000 C   0  0  0  0  0  0  0  0  0  0  0  0
   -3.7752    3.6132    5.0021 C   0  0  0  0  0  0  0  0  0  0  0  0
   -4.9239    3.1419    5.6123 C   0  0  0  0  0  0  0  0  0  0  0  0
   -5.8818    4.0158    5.9990 N   0  0  0  0  0  0  0  0  0  0  0  0
   -3.6641    1.4438    5.1584 C   0  0  0  0  0  0  0  0  0  0  0  0
   -4.6143    5.8094    5.2095 N   0  0  0  0  0  0  0  0  0  0  0  0
   -3.6297    4.9810    4.8023 C   0  0  0  0  0  0  0  0  0  0  0  0
   -4.8451    1.8102    5.6866 N   0  0  0  0  0  0  0  0  0  0  0  0
   -3.0058    2.5414    4.7242 N   0  0  0  0  0  0  0  0  0  0  0  0
   -2.5196    5.4887    4.2100 N   0  0  0  0  0  0  0  0  0  0  0  0
   -1.8007    4.8853    3.9125 H   0  0  0  0  0  0  0  0  0  0  0  0
   -2.4330    6.4604    4.0776 H   0  0  0  0  0  0  0  0  0  0  0  0
  4  2  2  0  0  0
  3  2  2  0  0  0
  2  1  1  0  0  0
  2  7  1  0  0  0
  1 24  1  0  0  0
 28 27  1  0  0  0
  7  5  1  0  0  0
 30 29  1  0  0  0
 25 24  1  0  0  0
 25 27  1  0  0  0
 25 26  1  0  0  0
 27 29  1  0  0  0
  5  6  2  0  0  0
  5  9  1  0  0  0
 26 32  1  0  0  0
 29 32  1  0  0  0
 29 31  1  0  0  0
  9 10  1  0  0  0
 32 42  1  0  0  0
 10 11  1  0  0  0
 42 37  1  0  0  0
 42 39  1  0  0  0
 38 37  2  0  0  0
 38 35  1  0  0  0
 37 36  1  0  0  0
 11 12  1  0  0  0
 39 43  2  0  0  0
 35 40  2  0  0  0
 36 43  1  0  0  0
 36 41  2  0  0  0
 12 21  1  0  0  0
 40 41  1  0  0  0
 14 13  1  0  0  0
 14 15  1  0  0  0
 41 44  1  0  0  0
 13 21  1  0  0  0
 13 18  1  0  0  0
 21 20  1  0  0  0
 15 16  2  0  0  0
 15 17  1  0  0  0
 18 17  1  0  0  0
 18 19  1  0  0  0
 20 19  1  0  0  0
 14 22  1  0  0  0
 17 23  1  0  0  0
  7  8  1  0  0  0
 28 33  1  0  0  0
 30 34  1  0  0  0
 44 45  1  0  0  0
 44 46  1  0  0  0
M  END
> <minimizedAffinity>
-11.29730

$$$$
4XU0_44N_A_301


 46 50  0  0  0  0  0  0  0  0999 V2000
   -3.1043   -3.0700    7.9922 O   0  0  0  0  0  0  0  0  0  0  0  0
   -3.4524   -4.3606    7.2417 S   0  0  0  0  0  0  0  0  0  0  0  0
   -4.7087   -4.1664    6.5774 O   0  0  0  0  0  0  0  0  0  0  0  0
   -2.4458   -4.6262    6.2524 O   0  0  0  0  0  0  0  0  0  0  0  0
   -4.5637   -6.4628    8.1684 C   0  0  0  0  0  0  0  0  0  0  0  0
   -5.5388   -6.2874    7.4603 O   0  0  0  0  0  0  0  0  0  0  0  0
   -3.5545   -5.6028    8.2438 N   0  0  0  0  0  0  0  0  0  0  0  0
   -2.8581   -5.7320    8.9275 H   0  0  0  0  0  0  0  0  0  0  0  0
   -4.4522   -7.7044    9.0208 C   0  0  0  0  0  0  0  0  0  0  0  0
   -4.3139   -7.2932   10.4835 C   0  0  0  0  0  0  0  0  0  0  0  0
   -3.9433   -8.4802   11.3601 C   0  0  0  0  0  0  0  0  0  0  0  0
   -3.3296   -8.0267   12.6791 C   0  0  0  0  0  0  0  0  0  0  0  0
   -2.3114  -10.1094   13.6702 C   0  0  0  0  0  0  0  0  0  0  0  0
   -1.0551   -9.4534   13.3527 N   0  0  0  0  0  0  0  0  0  0  0  0
   -0.1614   -9.6089   14.3243 C   0  0  0  0  0  0  0  0  0  0  0  0
    0.9112   -9.0253   14.3947 O   0  0  0  0  0  0  0  0  0  0  0  0
   -0.6202  -10.4573   15.2350 N   0  0  0  0  0  0  0  0  0  0  0  0
   -2.0348  -10.6970   15.0563 C   0  0  0  0  0  0  0  0  0  0  0  0
   -2.7875   -9.9785   16.1673 C   0  0  0  0  0  0  0  0  0  0  0  0
   -3.5379   -8.6020   15.3795 S   0  0  0  0  0  0  0  0  0  0  0  0
   -3.4934   -9.1458   13.7022 C   0  0  0  0  0  0  0  0  0  0  0  0
   -0.8863   -8.9550   12.5206 H   0  0  0  0  0  0  0  0  0  0  0  0
   -0.0700  -10.8694   15.9397 H   0  0  0  0  0  0  0  0  0  0  0  0
   -2.5329   -1.9312    7.3548 C   0  0  0  0  0  0  0  0  0  0  0  0
   -3.0908   -0.7207    8.0941 C   0  0  0  0  0  0  0  0  0  0  0  0
   -3.6854    0.2084    7.1759 O   0  0  0  0  0  0  0  0  0  0  0  0
   -4.1663   -1.0412    9.1185 C   0  0  0  0  0  0  0  0  0  0  0  0
   -3.5776   -1.3338   10.3871 O   0  0  0  0  0  0  0  0  0  0  0  0
   -4.9230    0.2681    9.1695 C   0  0  0  0  0  0  0  0  0  0  0  0
   -4.1295    1.1908    9.9227 O   0  0  0  0  0  0  0  0  0  0  0  0
   -6.2839    0.1691    9.8533 C   0  0  0  0  0  0  0  0  0  0  0  0
   -4.8987    0.7528    7.7161 C   0  0  0  0  0  0  0  0  0  0  0  0
   -3.0139   -0.5932   10.6604 H   0  0  0  0  0  0  0  0  0  0  0  0
   -3.2550    1.2758    9.5117 H   0  0  0  0  0  0  0  0  0  0  0  0
   -6.6031    2.8659    4.2715 C   0  0  0  0  0  0  0  0  0  0  0  0
   -7.4349    0.4343    5.1260 C   0  0  0  0  0  0  0  0  0  0  0  0
   -6.4127    1.0981    5.7805 C   0  0  0  0  0  0  0  0  0  0  0  0
   -6.0157    2.3142    5.3396 N   0  0  0  0  0  0  0  0  0  0  0  0
   -6.7358   -0.7885    6.7870 C   0  0  0  0  0  0  0  0  0  0  0  0
   -7.5955    2.2470    3.6230 N   0  0  0  0  0  0  0  0  0  0  0  0
   -8.0314    1.0338    4.0229 C   0  0  0  0  0  0  0  0  0  0  0  0
   -6.0065    0.3409    6.8038 N   0  0  0  0  0  0  0  0  0  0  0  0
   -7.6235   -0.7357    5.7692 N   0  0  0  0  0  0  0  0  0  0  0  0
   -9.0358    0.4194    3.3488 N   0  0  0  0  0  0  0  0  0  0  0  0
   -9.3546   -0.4655    3.6396 H   0  0  0  0  0  0  0  0  0  0  0  0
   -9.4458    0.8585    2.5688 H   0  0  0  0  0  0  0  0  0  0  0  0
  4  2  2  0  0  0
  3  2  2  0  0  0
  2  1  1  0  0  0
  2  7  1  0  0  0
  1 24  1  0  0  0
 28 27  1  0  0  0
  7  5  1  0  0  0
 30 29  1  0  0  0
 25 24  1  0  0  0
 25 27  1  0  0  0
 25 26  1  0  0  0
 27 29  1  0  0  0
  5  6  2  0  0  0
  5  9  1  0  0  0
 26 32  1  0  0  0
 29 32  1  0  0  0
 29 31  1  0  0  0
  9 10  1  0  0  0
 32 42  1  0  0  0
 10 11  1  0  0  0
 42 37  1  0  0  0
 42 39  1  0  0  0
 38 37  2  0  0  0
 38 35  1  0  0  0
 37 36  1  0  0  0
 11 12  1  0  0  0
 39 43  2  0  0  0
 35 40  2  0  0  0
 36 43  1  0  0  0
 36 41  2  0  0  0
 12 21  1  0  0  0
 40 41  1  0  0  0
 14 13  1  0  0  0
 14 15  1  0  0  0
 41 44  1  0  0  0
 13 21  1  0  0  0
 13 18  1  0  0  0
 21 20  1  0  0  0
 15 16  2  0  0  0
 15 17  1  0  0  0
 18 17  1  0  0  0
 18 19  1  0  0  0
 20 19  1  0  0  0
 14 22  1  0  0  0
 17 23  1  0  0  0
  7  8  1  0  0  0
 28 33  1  0  0  0
 30 34  1  0  0  0
 44 45  1  0  0  0
 44 46  1  0  0  0
M  END
> <minimizedAffinity>
-11.27094

$$$$
4XU0_44N_A_301


 46 50  0  0  0  0  0  0  0  0999 V2000
   -4.5339   -3.1104    6.1045 O   0  0  0  0  0  0  0  0  0  0  0  0
   -3.5012   -3.8273    6.9818 S   0  0  0  0  0  0  0  0  0  0  0  0
   -2.7492   -4.7201    6.1481 O   0  0  0  0  0  0  0  0  0  0  0  0
   -2.6020   -2.8621    7.5496 O   0  0  0  0  0  0  0  0  0  0  0  0
   -4.3388   -5.9692    8.0879 C   0  0  0  0  0  0  0  0  0  0  0  0
   -4.0790   -6.6145    7.0883 O   0  0  0  0  0  0  0  0  0  0  0  0
   -4.2105   -4.6491    8.1561 N   0  0  0  0  0  0  0  0  0  0  0  0
   -4.5578   -4.1687    8.9421 H   0  0  0  0  0  0  0  0  0  0  0  0
   -4.8347   -6.6604    9.3356 C   0  0  0  0  0  0  0  0  0  0  0  0
   -3.6969   -7.4803    9.9363 C   0  0  0  0  0  0  0  0  0  0  0  0
   -4.1411   -8.2027   11.1994 C   0  0  0  0  0  0  0  0  0  0  0  0
   -3.1281   -8.0287   12.3244 C   0  0  0  0  0  0  0  0  0  0  0  0
   -2.2595  -10.0762   13.5119 C   0  0  0  0  0  0  0  0  0  0  0  0
   -0.9610   -9.4789   13.2535 N   0  0  0  0  0  0  0  0  0  0  0  0
   -0.1483   -9.6010   14.2983 C   0  0  0  0  0  0  0  0  0  0  0  0
    0.9356   -9.0466   14.4160 O   0  0  0  0  0  0  0  0  0  0  0  0
   -0.7029  -10.3776   15.2196 N   0  0  0  0  0  0  0  0  0  0  0  0
   -2.1077  -10.5853   14.9475 C   0  0  0  0  0  0  0  0  0  0  0  0
   -2.9159   -9.7775   15.9531 C   0  0  0  0  0  0  0  0  0  0  0  0
   -3.5573   -8.4303   15.0302 S   0  0  0  0  0  0  0  0  0  0  0  0
   -3.4065   -9.0773   13.3962 C   0  0  0  0  0  0  0  0  0  0  0  0
   -0.7133   -9.0380   12.4088 H   0  0  0  0  0  0  0  0  0  0  0  0
   -0.2215  -10.7619   15.9876 H   0  0  0  0  0  0  0  0  0  0  0  0
   -5.0073   -1.7952    6.3798 C   0  0  0  0  0  0  0  0  0  0  0  0
   -6.3173   -1.6588    5.6127 C   0  0  0  0  0  0  0  0  0  0  0  0
   -6.5042   -0.3104    5.1580 O   0  0  0  0  0  0  0  0  0  0  0  0
   -6.4242   -2.5349    4.3758 C   0  0  0  0  0  0  0  0  0  0  0  0
   -6.9519   -3.8183    4.7158 O   0  0  0  0  0  0  0  0  0  0  0  0
   -7.4175   -1.7513    3.5457 C   0  0  0  0  0  0  0  0  0  0  0  0
   -8.7130   -1.9660    4.1150 O   0  0  0  0  0  0  0  0  0  0  0  0
   -7.4810   -2.1867    2.0842 C   0  0  0  0  0  0  0  0  0  0  0  0
   -7.0494   -0.2914    3.8304 C   0  0  0  0  0  0  0  0  0  0  0  0
   -7.8034   -3.7086    5.1673 H   0  0  0  0  0  0  0  0  0  0  0  0
   -8.7050   -1.6978    5.0471 H   0  0  0  0  0  0  0  0  0  0  0  0
   -5.1700    3.6487    4.2540 C   0  0  0  0  0  0  0  0  0  0  0  0
   -4.6380    1.9204    2.2379 C   0  0  0  0  0  0  0  0  0  0  0  0
   -5.5526    1.5924    3.2227 C   0  0  0  0  0  0  0  0  0  0  0  0
   -5.8069    2.4725    4.2185 N   0  0  0  0  0  0  0  0  0  0  0  0
   -5.4377   -0.0656    1.8390 C   0  0  0  0  0  0  0  0  0  0  0  0
   -4.2841    3.9916    3.3127 N   0  0  0  0  0  0  0  0  0  0  0  0
   -3.9958    3.1517    2.2963 C   0  0  0  0  0  0  0  0  0  0  0  0
   -6.0430    0.3788    2.9544 N   0  0  0  0  0  0  0  0  0  0  0  0
   -4.5832    0.8778    1.3846 N   0  0  0  0  0  0  0  0  0  0  0  0
   -3.0901    3.5154    1.3539 N   0  0  0  0  0  0  0  0  0  0  0  0
   -2.8790    2.9035    0.6120 H   0  0  0  0  0  0  0  0  0  0  0  0
   -2.6440    4.3911    1.4119 H   0  0  0  0  0  0  0  0  0  0  0  0
  4  2  2  0  0  0
  3  2  2  0  0  0
  2  1  1  0  0  0
  2  7  1  0  0  0
  1 24  1  0  0  0
 28 27  1  0  0  0
  7  5  1  0  0  0
 30 29  1  0  0  0
 25 24  1  0  0  0
 25 27  1  0  0  0
 25 26  1  0  0  0
 27 29  1  0  0  0
  5  6  2  0  0  0
  5  9  1  0  0  0
 26 32  1  0  0  0
 29 32  1  0  0  0
 29 31  1  0  0  0
  9 10  1  0  0  0
 32 42  1  0  0  0
 10 11  1  0  0  0
 42 37  1  0  0  0
 42 39  1  0  0  0
 38 37  2  0  0  0
 38 35  1  0  0  0
 37 36  1  0  0  0
 11 12  1  0  0  0
 39 43  2  0  0  0
 35 40  2  0  0  0
 36 43  1  0  0  0
 36 41  2  0  0  0
 12 21  1  0  0  0
 40 41  1  0  0  0
 14 13  1  0  0  0
 14 15  1  0  0  0
 41 44  1  0  0  0
 13 21  1  0  0  0
 13 18  1  0  0  0
 21 20  1  0  0  0
 15 16  2  0  0  0
 15 17  1  0  0  0
 18 17  1  0  0  0
 18 19  1  0  0  0
 20 19  1  0  0  0
 14 22  1  0  0  0
 17 23  1  0  0  0
  7  8  1  0  0  0
 28 33  1  0  0  0
 30 34  1  0  0  0
 44 45  1  0  0  0
 44 46  1  0  0  0
M  END
> <minimizedAffinity>
-10.93842

$$$$
4XU0_44N_A_301


 46 50  0  0  0  0  0  0  0  0999 V2000
   -3.0494   -2.8730    8.2944 O   0  0  0  0  0  0  0  0  0  0  0  0
   -3.5763   -4.0742    7.5007 S   0  0  0  0  0  0  0  0  0  0  0  0
   -4.7151   -3.6438    6.7420 O   0  0  0  0  0  0  0  0  0  0  0  0
   -2.5629   -4.5289    6.5903 O   0  0  0  0  0  0  0  0  0  0  0  0
   -4.3392   -6.4599    7.9898 C   0  0  0  0  0  0  0  0  0  0  0  0
   -4.5134   -6.6721    6.8033 O   0  0  0  0  0  0  0  0  0  0  0  0
   -3.9937   -5.2724    8.4741 N   0  0  0  0  0  0  0  0  0  0  0  0
   -3.9946   -5.1275    9.4478 H   0  0  0  0  0  0  0  0  0  0  0  0
   -4.5135   -7.5706    8.9979 C   0  0  0  0  0  0  0  0  0  0  0  0
   -3.9463   -7.1184   10.3401 C   0  0  0  0  0  0  0  0  0  0  0  0
   -3.7953   -8.2886   11.3005 C   0  0  0  0  0  0  0  0  0  0  0  0
   -3.3041   -7.8262   12.6669 C   0  0  0  0  0  0  0  0  0  0  0  0
   -2.3886   -9.9761   13.6137 C   0  0  0  0  0  0  0  0  0  0  0  0
   -1.1020   -9.3781   13.3031 N   0  0  0  0  0  0  0  0  0  0  0  0
   -0.2138   -9.5970   14.2676 C   0  0  0  0  0  0  0  0  0  0  0  0
    0.8871   -9.0695   14.3442 O   0  0  0  0  0  0  0  0  0  0  0  0
   -0.7116  -10.4385   15.1641 N   0  0  0  0  0  0  0  0  0  0  0  0
   -2.1370  -10.6033   14.9872 C   0  0  0  0  0  0  0  0  0  0  0  0
   -2.8486   -9.8693   16.1150 C   0  0  0  0  0  0  0  0  0  0  0  0
   -3.5316   -8.4420   15.3569 S   0  0  0  0  0  0  0  0  0  0  0  0
   -3.5205   -8.9551   13.6693 C   0  0  0  0  0  0  0  0  0  0  0  0
   -0.9112   -8.8730   12.4799 H   0  0  0  0  0  0  0  0  0  0  0  0
   -0.1803  -10.8912   15.8584 H   0  0  0  0  0  0  0  0  0  0  0  0
   -2.2597   -1.8418    7.7092 C   0  0  0  0  0  0  0  0  0  0  0  0
   -3.1566   -0.6102    7.6638 C   0  0  0  0  0  0  0  0  0  0  0  0
   -3.1474    0.0743    8.9253 O   0  0  0  0  0  0  0  0  0  0  0  0
   -2.7627    0.4255    6.6241 C   0  0  0  0  0  0  0  0  0  0  0  0
   -3.3819    0.1357    5.3696 O   0  0  0  0  0  0  0  0  0  0  0  0
   -3.3440    1.6848    7.2290 C   0  0  0  0  0  0  0  0  0  0  0  0
   -4.7590    1.6462    7.0175 O   0  0  0  0  0  0  0  0  0  0  0  0
   -2.8210    2.9721    6.5974 C   0  0  0  0  0  0  0  0  0  0  0  0
   -3.1197    1.4965    8.7330 C   0  0  0  0  0  0  0  0  0  0  0  0
   -4.3428    0.0769    5.4892 H   0  0  0  0  0  0  0  0  0  0  0  0
   -5.1225    0.8365    7.4091 H   0  0  0  0  0  0  0  0  0  0  0  0
   -2.2255    5.3987   10.5244 C   0  0  0  0  0  0  0  0  0  0  0  0
   -0.4452    3.3657   10.3442 C   0  0  0  0  0  0  0  0  0  0  0  0
   -1.7312    3.2199    9.8555 C   0  0  0  0  0  0  0  0  0  0  0  0
   -2.6034    4.2499    9.9516 N   0  0  0  0  0  0  0  0  0  0  0  0
   -0.6722    1.3660    9.5121 C   0  0  0  0  0  0  0  0  0  0  0  0
   -0.9876    5.5667   11.0016 N   0  0  0  0  0  0  0  0  0  0  0  0
   -0.0780    4.5722   10.9286 C   0  0  0  0  0  0  0  0  0  0  0  0
   -1.8479    1.9942    9.3366 N   0  0  0  0  0  0  0  0  0  0  0  0
    0.1989    2.2029   10.1181 N   0  0  0  0  0  0  0  0  0  0  0  0
    1.1713    4.7599   11.4233 N   0  0  0  0  0  0  0  0  0  0  0  0
    1.8357    4.0352   11.3705 H   0  0  0  0  0  0  0  0  0  0  0  0
    1.4136    5.6208   11.8349 H   0  0  0  0  0  0  0  0  0  0  0  0
  4  2  2  0  0  0
  3  2  2  0  0  0
  2  1  1  0  0  0
  2  7  1  0  0  0
  1 24  1  0  0  0
 28 27  1  0  0  0
  7  5  1  0  0  0
 30 29  1  0  0  0
 25 24  1  0  0  0
 25 27  1  0  0  0
 25 26  1  0  0  0
 27 29  1  0  0  0
  5  6  2  0  0  0
  5  9  1  0  0  0
 26 32  1  0  0  0
 29 32  1  0  0  0
 29 31  1  0  0  0
  9 10  1  0  0  0
 32 42  1  0  0  0
 10 11  1  0  0  0
 42 37  1  0  0  0
 42 39  1  0  0  0
 38 37  2  0  0  0
 38 35  1  0  0  0
 37 36  1  0  0  0
 11 12  1  0  0  0
 39 43  2  0  0  0
 35 40  2  0  0  0
 36 43  1  0  0  0
 36 41  2  0  0  0
 12 21  1  0  0  0
 40 41  1  0  0  0
 14 13  1  0  0  0
 14 15  1  0  0  0
 41 44  1  0  0  0
 13 21  1  0  0  0
 13 18  1  0  0  0
 21 20  1  0  0  0
 15 16  2  0  0  0
 15 17  1  0  0  0
 18 17  1  0  0  0
 18 19  1  0  0  0
 20 19  1  0  0  0
 14 22  1  0  0  0
 17 23  1  0  0  0
  7  8  1  0  0  0
 28 33  1  0  0  0
 30 34  1  0  0  0
 44 45  1  0  0  0
 44 46  1  0  0  0
M  END
> <minimizedAffinity>
-10.57395

$$$$
