1LYX_PGA_A_401


 12 11  0  0  0  0  0  0  0  0999 V2000
   20.4959   -2.1985    9.5675 P   0  0  0  0  0  0  0  0  0  0  0  0
   21.8288   -2.8792    9.7278 O   0  0  0  0  0  0  0  0  0  0  0  0
   19.3464   -2.8997   10.2197 O   0  0  0  0  0  0  0  0  0  0  0  0
   20.5153   -0.6976    9.7224 O   0  0  0  0  0  0  0  0  0  0  0  0
   19.4208   -3.8545   10.0661 H   0  0  0  0  0  0  0  0  0  0  0  0
   21.2927   -0.3358    9.2688 H   0  0  0  0  0  0  0  0  0  0  0  0
   20.2750   -2.4097    7.9533 O   0  0  0  0  0  0  0  0  0  0  0  0
   21.1624   -1.8762    6.9605 C   0  0  0  0  0  0  0  0  0  0  0  0
   20.2675   -1.0831    6.1418 C   0  0  0  0  0  0  0  0  0  0  0  0
   20.5694   -0.2816    5.0877 O   0  0  0  0  0  0  0  0  0  0  0  0
   18.9307   -1.0013    6.3214 O   0  0  0  0  0  0  0  0  0  0  0  0
   18.5197   -1.4876    7.0088 H   0  0  0  0  0  0  0  0  0  0  0  0
  1  7  1  0  0  0
  1  2  2  0  0  0
  1  3  1  0  0  0
  1  4  1  0  0  0
  7  8  1  0  0  0
  8  9  1  0  0  0
  9 10  2  0  0  0
  9 11  1  0  0  0
  3  5  1  0  0  0
  4  6  1  0  0  0
 11 12  1  0  0  0
M  END
> <minimizedAffinity>
-6.03282

$$$$
1LYX_PGA_A_401


 12 11  0  0  0  0  0  0  0  0999 V2000
   21.3635   -2.1124    7.2554 P   0  0  0  0  0  0  0  0  0  0  0  0
   22.1768   -2.0717    8.5214 O   0  0  0  0  0  0  0  0  0  0  0  0
   21.3816   -3.4238    6.5354 O   0  0  0  0  0  0  0  0  0  0  0  0
   20.0202   -1.4290    7.3294 O   0  0  0  0  0  0  0  0  0  0  0  0
   22.2826   -3.7831    6.5405 H   0  0  0  0  0  0  0  0  0  0  0  0
   20.1094   -0.5921    7.8117 H   0  0  0  0  0  0  0  0  0  0  0  0
   22.2560   -1.0934    6.3259 O   0  0  0  0  0  0  0  0  0  0  0  0
   22.3975   -1.2427    4.9062 C   0  0  0  0  0  0  0  0  0  0  0  0
   21.6854   -0.0855    4.4024 C   0  0  0  0  0  0  0  0  0  0  0  0
   22.0955    0.8298    3.4865 O   0  0  0  0  0  0  0  0  0  0  0  0
   20.4493    0.2895    4.7993 O   0  0  0  0  0  0  0  0  0  0  0  0
   19.9876   -0.2190    5.4367 H   0  0  0  0  0  0  0  0  0  0  0  0
  1  7  1  0  0  0
  1  2  2  0  0  0
  1  3  1  0  0  0
  1  4  1  0  0  0
  7  8  1  0  0  0
  8  9  1  0  0  0
  9 10  2  0  0  0
  9 11  1  0  0  0
  3  5  1  0  0  0
  4  6  1  0  0  0
 11 12  1  0  0  0
M  END
> <minimizedAffinity>
-5.86898

$$$$
1LYX_PGA_A_401


 12 11  0  0  0  0  0  0  0  0999 V2000
   21.1104   -2.2515    7.8389 P   0  0  0  0  0  0  0  0  0  0  0  0
   20.6073   -3.6603    8.0052 O   0  0  0  0  0  0  0  0  0  0  0  0
   20.1608   -1.1851    8.2856 O   0  0  0  0  0  0  0  0  0  0  0  0
   22.5559   -2.0343    8.2135 O   0  0  0  0  0  0  0  0  0  0  0  0
   19.2621   -1.4122    7.9999 H   0  0  0  0  0  0  0  0  0  0  0  0
   23.0903   -2.7731    7.8826 H   0  0  0  0  0  0  0  0  0  0  0  0
   21.1267   -2.1603    6.1986 O   0  0  0  0  0  0  0  0  0  0  0  0
   21.9696   -1.2581    5.4684 C   0  0  0  0  0  0  0  0  0  0  0  0
   21.0519   -0.1914    5.1221 C   0  0  0  0  0  0  0  0  0  0  0  0
   19.7149   -0.1162    5.3490 O   0  0  0  0  0  0  0  0  0  0  0  0
   21.3996    0.9412    4.4720 O   0  0  0  0  0  0  0  0  0  0  0  0
   22.2914    1.0830    4.2222 H   0  0  0  0  0  0  0  0  0  0  0  0
  1  7  1  0  0  0
  1  2  2  0  0  0
  1  3  1  0  0  0
  1  4  1  0  0  0
  7  8  1  0  0  0
  8  9  1  0  0  0
  9 10  2  0  0  0
  9 11  1  0  0  0
  3  5  1  0  0  0
  4  6  1  0  0  0
 11 12  1  0  0  0
M  END
> <minimizedAffinity>
-5.82668

$$$$
1LYX_PGA_A_401


 12 11  0  0  0  0  0  0  0  0999 V2000
   20.8733   -1.9596    9.4392 P   0  0  0  0  0  0  0  0  0  0  0  0
   21.0677   -0.6203   10.0980 O   0  0  0  0  0  0  0  0  0  0  0  0
   21.1532   -3.1403   10.3144 O   0  0  0  0  0  0  0  0  0  0  0  0
   19.6516   -2.0754    8.5612 O   0  0  0  0  0  0  0  0  0  0  0  0
   21.9526   -2.9727   10.8376 H   0  0  0  0  0  0  0  0  0  0  0  0
   19.5542   -1.2667    8.0344 H   0  0  0  0  0  0  0  0  0  0  0  0
   22.1117   -1.9144    8.3606 O   0  0  0  0  0  0  0  0  0  0  0  0
   22.0223   -2.4570    7.0357 C   0  0  0  0  0  0  0  0  0  0  0  0
   23.0269   -1.6943    6.3221 C   0  0  0  0  0  0  0  0  0  0  0  0
   22.9224   -1.0703    5.1202 O   0  0  0  0  0  0  0  0  0  0  0  0
   24.2904   -1.4915    6.7563 O   0  0  0  0  0  0  0  0  0  0  0  0
   24.5661   -1.8469    7.5782 H   0  0  0  0  0  0  0  0  0  0  0  0
  1  7  1  0  0  0
  1  2  2  0  0  0
  1  3  1  0  0  0
  1  4  1  0  0  0
  7  8  1  0  0  0
  8  9  1  0  0  0
  9 10  2  0  0  0
  9 11  1  0  0  0
  3  5  1  0  0  0
  4  6  1  0  0  0
 11 12  1  0  0  0
M  END
> <minimizedAffinity>
-5.82611

$$$$
1LYX_PGA_A_401


 12 11  0  0  0  0  0  0  0  0999 V2000
   21.0428   -2.0769    9.3109 P   0  0  0  0  0  0  0  0  0  0  0  0
   19.9936   -2.8052    8.5144 O   0  0  0  0  0  0  0  0  0  0  0  0
   20.6276   -0.7338    9.8228 O   0  0  0  0  0  0  0  0  0  0  0  0
   21.8243   -2.9296   10.2800 O   0  0  0  0  0  0  0  0  0  0  0  0
   20.1341   -0.2633    9.1329 H   0  0  0  0  0  0  0  0  0  0  0  0
   22.0467   -3.7752    9.8601 H   0  0  0  0  0  0  0  0  0  0  0  0
   22.1277   -1.7707    8.1159 O   0  0  0  0  0  0  0  0  0  0  0  0
   22.0621   -2.3780    6.8180 C   0  0  0  0  0  0  0  0  0  0  0  0
   21.5220   -1.3075    6.0041 C   0  0  0  0  0  0  0  0  0  0  0  0
   22.1780   -0.4730    5.1568 O   0  0  0  0  0  0  0  0  0  0  0  0
   20.2204   -0.9455    5.9751 O   0  0  0  0  0  0  0  0  0  0  0  0
   19.5943   -1.4057    6.4987 H   0  0  0  0  0  0  0  0  0  0  0  0
  1  7  1  0  0  0
  1  2  2  0  0  0
  1  3  1  0  0  0
  1  4  1  0  0  0
  7  8  1  0  0  0
  8  9  1  0  0  0
  9 10  2  0  0  0
  9 11  1  0  0  0
  3  5  1  0  0  0
  4  6  1  0  0  0
 11 12  1  0  0  0
M  END
> <minimizedAffinity>
-5.61185

$$$$
1LYX_PGA_A_401


 12 11  0  0  0  0  0  0  0  0999 V2000
   22.5114   -1.9885    6.4836 P   0  0  0  0  0  0  0  0  0  0  0  0
   23.9668   -2.3279    6.6627 O   0  0  0  0  0  0  0  0  0  0  0  0
   22.2429   -0.7926    5.6257 O   0  0  0  0  0  0  0  0  0  0  0  0
   21.5967   -3.1678    6.2609 O   0  0  0  0  0  0  0  0  0  0  0  0
   22.8777   -0.0914    5.8406 H   0  0  0  0  0  0  0  0  0  0  0  0
   21.8476   -3.8891    6.8590 H   0  0  0  0  0  0  0  0  0  0  0  0
   22.1520   -1.5147    8.0151 O   0  0  0  0  0  0  0  0  0  0  0  0
   20.8733   -1.7328    8.6274 C   0  0  0  0  0  0  0  0  0  0  0  0
   21.2399   -2.1502    9.9658 C   0  0  0  0  0  0  0  0  0  0  0  0
   21.4664   -1.3805   11.0617 O   0  0  0  0  0  0  0  0  0  0  0  0
   21.4399   -3.4321   10.3437 O   0  0  0  0  0  0  0  0  0  0  0  0
   21.3320   -4.1258    9.7231 H   0  0  0  0  0  0  0  0  0  0  0  0
  1  7  1  0  0  0
  1  2  2  0  0  0
  1  3  1  0  0  0
  1  4  1  0  0  0
  7  8  1  0  0  0
  8  9  1  0  0  0
  9 10  2  0  0  0
  9 11  1  0  0  0
  3  5  1  0  0  0
  4  6  1  0  0  0
 11 12  1  0  0  0
M  END
> <minimizedAffinity>
-5.41006

$$$$
1LYX_PGA_A_401


 12 11  0  0  0  0  0  0  0  0999 V2000
   22.0119   -1.7378    6.1900 P   0  0  0  0  0  0  0  0  0  0  0  0
   20.9303   -0.7533    5.8343 O   0  0  0  0  0  0  0  0  0  0  0  0
   21.6921   -3.1662    5.8806 O   0  0  0  0  0  0  0  0  0  0  0  0
   23.4175   -1.2993    5.8596 O   0  0  0  0  0  0  0  0  0  0  0  0
   20.7722   -3.3520    6.1261 H   0  0  0  0  0  0  0  0  0  0  0  0
   23.5281   -0.3646    6.0942 H   0  0  0  0  0  0  0  0  0  0  0  0
   21.9551   -1.6242    7.8280 O   0  0  0  0  0  0  0  0  0  0  0  0
   20.7380   -1.7130    8.5818 C   0  0  0  0  0  0  0  0  0  0  0  0
   21.2175   -2.0821    9.8986 C   0  0  0  0  0  0  0  0  0  0  0  0
   21.4771   -1.2785   10.9623 O   0  0  0  0  0  0  0  0  0  0  0  0
   21.5116   -3.3435   10.2841 O   0  0  0  0  0  0  0  0  0  0  0  0
   21.3988   -4.0549    9.6848 H   0  0  0  0  0  0  0  0  0  0  0  0
  1  7  1  0  0  0
  1  2  2  0  0  0
  1  3  1  0  0  0
  1  4  1  0  0  0
  7  8  1  0  0  0
  8  9  1  0  0  0
  9 10  2  0  0  0
  9 11  1  0  0  0
  3  5  1  0  0  0
  4  6  1  0  0  0
 11 12  1  0  0  0
M  END
> <minimizedAffinity>
-5.37973

$$$$
1LYX_PGA_A_401


 12 11  0  0  0  0  0  0  0  0999 V2000
   20.6733   -2.5952    9.1412 P   0  0  0  0  0  0  0  0  0  0  0  0
   20.4373   -3.8367    8.3236 O   0  0  0  0  0  0  0  0  0  0  0  0
   19.4416   -1.9838    9.7306 O   0  0  0  0  0  0  0  0  0  0  0  0
   21.8764   -2.6408   10.0508 O   0  0  0  0  0  0  0  0  0  0  0  0
   18.7271   -1.9996    9.0747 H   0  0  0  0  0  0  0  0  0  0  0  0
   22.6202   -3.0516    9.5829 H   0  0  0  0  0  0  0  0  0  0  0  0
   21.1403   -1.5678    7.9472 O   0  0  0  0  0  0  0  0  0  0  0  0
   21.3252   -1.9762    6.5846 C   0  0  0  0  0  0  0  0  0  0  0  0
   22.7657   -1.9171    6.4382 C   0  0  0  0  0  0  0  0  0  0  0  0
   23.7143   -2.6398    7.0883 O   0  0  0  0  0  0  0  0  0  0  0  0
   23.4200   -1.0796    5.6035 O   0  0  0  0  0  0  0  0  0  0  0  0
   22.9373   -0.4893    5.0589 H   0  0  0  0  0  0  0  0  0  0  0  0
  1  7  1  0  0  0
  1  2  2  0  0  0
  1  3  1  0  0  0
  1  4  1  0  0  0
  7  8  1  0  0  0
  8  9  1  0  0  0
  9 10  2  0  0  0
  9 11  1  0  0  0
  3  5  1  0  0  0
  4  6  1  0  0  0
 11 12  1  0  0  0
M  END
> <minimizedAffinity>
-5.30355

$$$$
1LYX_PGA_A_401


 12 11  0  0  0  0  0  0  0  0999 V2000
   22.3876   -1.3063    5.2118 P   0  0  0  0  0  0  0  0  0  0  0  0
   23.5535   -1.3393    6.1632 O   0  0  0  0  0  0  0  0  0  0  0  0
   21.9222    0.0637    4.8309 O   0  0  0  0  0  0  0  0  0  0  0  0
   22.4442   -2.3105    4.0870 O   0  0  0  0  0  0  0  0  0  0  0  0
   21.9196    0.6340    5.6155 H   0  0  0  0  0  0  0  0  0  0  0  0
   22.7553   -3.1629    4.4299 H   0  0  0  0  0  0  0  0  0  0  0  0
   21.2164   -1.9056    6.1958 O   0  0  0  0  0  0  0  0  0  0  0  0
   21.4692   -2.8791    7.2186 C   0  0  0  0  0  0  0  0  0  0  0  0
   20.5955   -2.4373    8.2869 C   0  0  0  0  0  0  0  0  0  0  0  0
   19.8428   -3.1885    9.1319 O   0  0  0  0  0  0  0  0  0  0  0  0
   20.3704   -1.1450    8.6113 O   0  0  0  0  0  0  0  0  0  0  0  0
   20.8023   -0.4611    8.1383 H   0  0  0  0  0  0  0  0  0  0  0  0
  1  7  1  0  0  0
  1  2  2  0  0  0
  1  3  1  0  0  0
  1  4  1  0  0  0
  7  8  1  0  0  0
  8  9  1  0  0  0
  9 10  2  0  0  0
  9 11  1  0  0  0
  3  5  1  0  0  0
  4  6  1  0  0  0
 11 12  1  0  0  0
M  END
> <minimizedAffinity>
-5.26564

$$$$
1LYX_PGA_A_401


 12 11  0  0  0  0  0  0  0  0999 V2000
   21.7051   -2.0590    6.7699 P   0  0  0  0  0  0  0  0  0  0  0  0
   21.3784   -3.5077    6.5242 O   0  0  0  0  0  0  0  0  0  0  0  0
   20.5516   -1.2193    7.2201 O   0  0  0  0  0  0  0  0  0  0  0  0
   23.0120   -1.8040    7.4798 O   0  0  0  0  0  0  0  0  0  0  0  0
   19.7615   -1.4545    6.7090 H   0  0  0  0  0  0  0  0  0  0  0  0
   23.6949   -2.3922    7.1212 H   0  0  0  0  0  0  0  0  0  0  0  0
   22.0131   -1.5842    5.2276 O   0  0  0  0  0  0  0  0  0  0  0  0
   21.6376   -0.3006    4.7089 C   0  0  0  0  0  0  0  0  0  0  0  0
   22.2985   -0.2842    3.4194 C   0  0  0  0  0  0  0  0  0  0  0  0
   22.9913   -1.2803    2.8091 O   0  0  0  0  0  0  0  0  0  0  0  0
   22.3445    0.7836    2.5925 O   0  0  0  0  0  0  0  0  0  0  0  0
   21.9200    1.5829    2.8354 H   0  0  0  0  0  0  0  0  0  0  0  0
  1  7  1  0  0  0
  1  2  2  0  0  0
  1  3  1  0  0  0
  1  4  1  0  0  0
  7  8  1  0  0  0
  8  9  1  0  0  0
  9 10  2  0  0  0
  9 11  1  0  0  0
  3  5  1  0  0  0
  4  6  1  0  0  0
 11 12  1  0  0  0
M  END
> <minimizedAffinity>
-4.49953

$$$$
