5CAU_4ZR_A_1102
  RCSB PDB12061717043D
Coordinates from PDB:5CAU:A:1102 Model:1 without hydrogens
 34 37  0  0  0  0            999 V2000
  -49.6030   -1.0120  -21.9970   C 0  0  0  0  0  0  0  0  0  0  0  0
  -52.7440    1.0990  -19.7160   C 0  0  0  0  0  0  0  0  0  0  0  0
  -53.7210    2.0750  -19.8810   C 0  0  0  0  0  0  0  0  0  0  0  0
  -53.9950    1.4740  -22.1210   C 0  0  0  0  0  0  0  0  0  0  0  0
  -53.0030    0.4930  -22.0470   C 0  0  0  0  0  0  0  0  0  0  0  0
  -52.3640    0.2850  -20.8170   C 0  0  0  0  0  0  0  0  0  0  0  0
  -50.6690   -1.6110  -21.0870   C 0  0  0  0  0  0  0  0  0  0  0  0
  -51.5250   -2.7360  -21.6940   C 0  0  0  0  0  0  0  0  0  0  0  0
  -51.1770   -0.2280  -19.0130   C 0  0  0  0  0  0  0  0  0  0  0  0
  -50.1140   -0.1730  -16.7040   C 0  0  0  0  0  0  0  0  0  0  0  0
  -50.1770   -0.8640  -18.0690   C 0  0  0  0  0  0  0  0  0  0  0  0
  -51.9920    0.7190  -18.6640   N 0  0  0  0  0  0  0  0  0  0  0  0
  -54.2970    2.2230  -21.0590   N 0  0  0  0  0  0  0  0  0  0  0  0
  -51.3960   -0.5730  -20.3300   N 0  0  0  0  0  0  0  0  0  0  0  0
  -50.1770   -0.3040  -23.0390   F 0  0  0  0  0  0  0  0  0  0  0  0
  -48.8080   -0.1400  -21.2550   F 0  0  0  0  0  0  0  0  0  0  0  0
  -48.8150   -2.0260  -22.5250   F 0  0  0  0  0  0  0  0  0  0  0  0
  -54.6860    1.7850  -23.2900   N 0  0  0  0  0  0  0  0  0  0  0  0
  -54.8980    1.0050  -24.4110   C 0  0  0  0  0  0  0  0  0  0  0  0
  -56.1110    1.1230  -25.1090   C 0  0  0  0  0  0  0  0  0  0  0  0
  -56.2620    0.3410  -26.2460   C 0  0  0  0  0  0  0  0  0  0  0  0
  -55.2910   -0.4890  -26.6260   N 0  0  0  0  0  0  0  0  0  0  0  0
  -54.1490   -0.5950  -25.9380   C 0  0  0  0  0  0  0  0  0  0  0  0
  -53.9610    0.1750  -24.8650   N 0  0  0  0  0  0  0  0  0  0  0  0
  -53.0950   -1.4080  -26.3760   N 0  0  0  0  0  0  0  0  0  0  0  0
  -53.1940   -2.1540  -27.6530   C 0  0  0  0  0  0  0  0  0  0  0  0
  -51.8190   -2.2230  -28.3440   C 0  0  0  0  0  0  0  0  0  0  0  0
  -50.7440   -2.7320  -27.3600   C 0  0  0  0  0  0  0  0  0  0  0  0
  -50.6940   -1.8630  -26.0800   C 0  0  0  0  0  0  0  0  0  0  0  0
  -52.0740   -1.8560  -25.3980   C 0  0  0  0  0  0  0  0  0  0  0  0
  -50.3550   -0.5590  -26.4610   F 0  0  0  0  0  0  0  0  0  0  0  0
  -49.4770   -2.6730  -28.0180   O 0  0  0  0  0  0  0  0  0  0  0  0
  -48.5890   -3.7410  -27.6710   C 0  0  0  0  0  0  0  0  0  0  0  0
  -50.5880   -2.2060  -17.8730   O 0  0  0  0  0  0  0  0  0  0  0  0
 27 26  1  0  0  0  0
 27 28  1  0  0  0  0
 32 33  1  0  0  0  0
 32 28  1  0  0  0  0
 26 25  1  0  0  0  0
 28 29  1  0  0  0  0
 22 21  2  0  0  0  0
 22 23  1  0  0  0  0
 31 29  1  0  0  0  0
 25 23  1  0  0  0  0
 25 30  1  0  0  0  0
 21 20  1  0  0  0  0
 29 30  1  0  0  0  0
 23 24  2  0  0  0  0
 20 19  2  0  0  0  0
 24 19  1  0  0  0  0
 19 18  1  0  0  0  0
 18  4  1  0  0  0  0
 15  1  1  0  0  0  0
 17  1  1  0  0  0  0
  4  5  2  0  0  0  0
  4 13  1  0  0  0  0
  5  6  1  0  0  0  0
  1 16  1  0  0  0  0
  1  7  1  0  0  0  0
  8  7  1  0  0  0  0
  7 14  1  0  0  0  0
 13  3  2  0  0  0  0
  6 14  1  0  0  0  0
  6  2  2  0  0  0  0
 14  9  1  0  0  0  0
  3  2  1  0  0  0  0
  2 12  1  0  0  0  0
  9 12  2  0  0  0  0
  9 11  1  0  0  0  0
 11 34  1  0  0  0  0
 11 10  1  0  0  0  0
A    1
C14
A    2
C5
A    3
C6
A    4
C8
A    5
C9
A    6
C10
A    7
C12
A    8
C13
A    9
C3
A   10
C1
A   11
C2
A   12
N4
A   13
N7
A   14
N11
A   15
F15
A   16
F16
A   17
F17
A   18
N18
A   19
C19
A   20
C20
A   21
C21
A   22
N22
A   23
C23
A   24
N24
A   25
N25
A   26
C26
A   27
C27
A   28
C28
A   29
C29
A   30
C30
A   31
F31
A   32
O32
A   33
C33
A   34
O34
M  END
>  <InstanceId>
5CAU_4ZR_A_1102

>  <ChemCompId>
4ZR

>  <PdbId>
5CAU

>  <ChainId>
A

>  <ResidueNumber>
1102

>  <InsertionCode>


>  <Model>
1

>  <AltIds>


>  <MissingHeavyAtoms>
0

>  <ObservedFormula>
C21 N7 O2 F4

>  <Name>
(1R)-1-{6-({2-[(3S,4R)-3-fluoro-4-methoxypiperidin-1-yl]pyrimidin-4-yl}amino)-1-[(2S)-1,1,1-trifluoropropan-2-yl]-1H-imidazo[4,5-c]pyridin-2-yl}ethanol

>  <SystematicName>
(1R)-1-[6-[[2-[(3S,4R)-3-fluoranyl-4-methoxy-piperidin-1-yl]pyrimidin-4-yl]amino]-1-[(2S)-1,1,1-tris(fluoranyl)propan-2-yl]imidazo[4,5-c]pyridin-2-yl]ethanol

>  <Synonyms>


>  <Type>
NON-POLYMER

>  <Formula>
C21 H25 F4 N7 O2

>  <MolecularWeight>
483.463

>  <ModifiedDate>
2015-10-23

>  <Parent>


>  <OneLetterCode>


>  <SubcomponentList>


>  <AmbiguousFlag>
N

>  <InChI>
InChI=1S/C21H25F4N7O2/c1-11(33)19-28-14-9-27-18(8-15(14)32(19)12(2)21(23,24)25)29-17-4-6-26-20(30-17)31-7-5-16(34-3)13(22)10-31/h4,6,8-9,11-13,16,33H,5,7,10H2,1-3H3,(H,26,27,29,30)/t11-,12+,13+,16-/m1/s1

>  <InChIKey>
BOPSHQJEVUOWPS-LMOYCYGVSA-N

>  <SMILES>
C[C@H](c1nc2cnc(cc2n1[C@@H](C)C(F)(F)F)Nc3ccnc(n3)N4CC[C@H]([C@H](C4)F)OC)O

$$$$
