1UTN_ABN_A_246


 10 10  0  0  0  0  0  0  0  0999 V2000
   28.8004   15.9865   15.9733 C   0  0  0  0  0  0  0  0  0  0  0  0
   29.6923   14.9850   16.3188 C   0  0  0  0  0  0  0  0  0  0  0  0
   29.5941   14.1680   17.4812 C   0  0  0  0  0  0  0  0  0  0  0  0
   28.6303   14.4531   18.4991 C   0  0  0  0  0  0  0  0  0  0  0  0
   27.7587   15.4321   18.1609 C   0  0  0  0  0  0  0  0  0  0  0  0
   27.8378   16.2206   17.0047 C   0  0  0  0  0  0  0  0  0  0  0  0
   29.3645   16.0230   13.6721 N   0  0  0  0  0  0  0  0  0  0  0  0
   28.8287   16.7757   14.7598 C   0  0  0  0  0  0  0  0  0  0  0  0
   29.3736   16.6001   12.8311 H   0  0  0  0  0  0  0  0  0  0  0  0
   28.7863   15.1981   13.5121 H   0  0  0  0  0  0  0  0  0  0  0  0
  7  8  1  0  0  0
  8  1  1  0  0  0
  1  2  2  0  0  0
  1  6  1  0  0  0
  2  3  1  0  0  0
  3  4  2  0  0  0
  4  5  1  0  0  0
  5  6  2  0  0  0
  7  9  1  0  0  0
  7 10  1  0  0  0
M  END
> <minimizedAffinity>
-4.94747

$$$$
1UTN_ABN_A_246


 10 10  0  0  0  0  0  0  0  0999 V2000
   28.1726   16.2623   16.6210 C   0  0  0  0  0  0  0  0  0  0  0  0
   29.3173   15.5360   16.3382 C   0  0  0  0  0  0  0  0  0  0  0  0
   29.7460   14.3772   17.0463 C   0  0  0  0  0  0  0  0  0  0  0  0
   29.0935   13.9713   18.2529 C   0  0  0  0  0  0  0  0  0  0  0  0
   27.9746   14.6816   18.5289 C   0  0  0  0  0  0  0  0  0  0  0  0
   27.5360   15.8072   17.8179 C   0  0  0  0  0  0  0  0  0  0  0  0
   26.4404   17.8667   16.4186 N   0  0  0  0  0  0  0  0  0  0  0  0
   27.6694   17.3928   15.8692 C   0  0  0  0  0  0  0  0  0  0  0  0
   26.1078   18.6612   15.8724 H   0  0  0  0  0  0  0  0  0  0  0  0
   26.5896   18.1571   17.3850 H   0  0  0  0  0  0  0  0  0  0  0  0
  7  8  1  0  0  0
  8  1  1  0  0  0
  1  2  2  0  0  0
  1  6  1  0  0  0
  2  3  1  0  0  0
  3  4  2  0  0  0
  4  5  1  0  0  0
  5  6  2  0  0  0
  7  9  1  0  0  0
  7 10  1  0  0  0
M  END
> <minimizedAffinity>
-4.63229

$$$$
1UTN_ABN_A_246


 10 10  0  0  0  0  0  0  0  0999 V2000
   27.8580   13.7633   17.7805 C   0  0  0  0  0  0  0  0  0  0  0  0
   27.5870   15.0844   18.0953 C   0  0  0  0  0  0  0  0  0  0  0  0
   27.8934   16.2016   17.2669 C   0  0  0  0  0  0  0  0  0  0  0  0
   28.6892   16.0450   16.0885 C   0  0  0  0  0  0  0  0  0  0  0  0
   28.9538   14.7534   15.7812 C   0  0  0  0  0  0  0  0  0  0  0  0
   28.6304   13.6496   16.5823 C   0  0  0  0  0  0  0  0  0  0  0  0
   26.4789   12.9339   19.5199 N   0  0  0  0  0  0  0  0  0  0  0  0
   27.4853   12.6037   18.5634 C   0  0  0  0  0  0  0  0  0  0  0  0
   26.2345   12.1021   20.0572 H   0  0  0  0  0  0  0  0  0  0  0  0
   25.6510   13.2815   19.0360 H   0  0  0  0  0  0  0  0  0  0  0  0
  7  8  1  0  0  0
  8  1  1  0  0  0
  1  2  2  0  0  0
  1  6  1  0  0  0
  2  3  1  0  0  0
  3  4  2  0  0  0
  4  5  1  0  0  0
  5  6  2  0  0  0
  7  9  1  0  0  0
  7 10  1  0  0  0
M  END
> <minimizedAffinity>
-4.59669

$$$$
1UTN_ABN_A_246


 10 10  0  0  0  0  0  0  0  0999 V2000
   27.8998   13.6713   17.7978 C   0  0  0  0  0  0  0  0  0  0  0  0
   28.5346   13.5915   16.5696 C   0  0  0  0  0  0  0  0  0  0  0  0
   28.9715   14.7080   15.8011 C   0  0  0  0  0  0  0  0  0  0  0  0
   28.6150   16.0416   16.1762 C   0  0  0  0  0  0  0  0  0  0  0  0
   27.9946   16.1191   17.3769 C   0  0  0  0  0  0  0  0  0  0  0  0
   27.5864   15.0219   18.1479 C   0  0  0  0  0  0  0  0  0  0  0  0
   26.4507   12.9147   19.5133 N   0  0  0  0  0  0  0  0  0  0  0  0
   27.5189   12.5552   18.6379 C   0  0  0  0  0  0  0  0  0  0  0  0
   26.2017   12.1131   20.0929 H   0  0  0  0  0  0  0  0  0  0  0  0
   25.6412   13.2004   18.9625 H   0  0  0  0  0  0  0  0  0  0  0  0
  7  8  1  0  0  0
  8  1  1  0  0  0
  1  2  2  0  0  0
  1  6  1  0  0  0
  2  3  1  0  0  0
  3  4  2  0  0  0
  4  5  1  0  0  0
  5  6  2  0  0  0
  7  9  1  0  0  0
  7 10  1  0  0  0
M  END
> <minimizedAffinity>
-4.58385

$$$$
1UTN_ABN_A_246


 10 10  0  0  0  0  0  0  0  0999 V2000
   28.3563   13.4336   16.5889 C   0  0  0  0  0  0  0  0  0  0  0  0
   27.8787   13.7944   17.8377 C   0  0  0  0  0  0  0  0  0  0  0  0
   27.9645   15.1000   18.3999 C   0  0  0  0  0  0  0  0  0  0  0  0
   28.7339   16.1241   17.7629 C   0  0  0  0  0  0  0  0  0  0  0  0
   29.2004   15.7710   16.5422 C   0  0  0  0  0  0  0  0  0  0  0  0
   29.0947   14.4934   15.9752 C   0  0  0  0  0  0  0  0  0  0  0  0
   29.1378   11.9840   14.8849 N   0  0  0  0  0  0  0  0  0  0  0  0
   28.2107   12.1380   15.9590 C   0  0  0  0  0  0  0  0  0  0  0  0
   29.0151   11.0654   14.4590 H   0  0  0  0  0  0  0  0  0  0  0  0
   30.0894   12.0687   15.2424 H   0  0  0  0  0  0  0  0  0  0  0  0
  7  8  1  0  0  0
  8  1  1  0  0  0
  1  2  2  0  0  0
  1  6  1  0  0  0
  2  3  1  0  0  0
  3  4  2  0  0  0
  4  5  1  0  0  0
  5  6  2  0  0  0
  7  9  1  0  0  0
  7 10  1  0  0  0
M  END
> <minimizedAffinity>
-4.44520

$$$$
1UTN_ABN_A_246


 10 10  0  0  0  0  0  0  0  0999 V2000
   28.4652   14.7606   17.2710 C   0  0  0  0  0  0  0  0  0  0  0  0
   27.6229   14.2043   18.2191 C   0  0  0  0  0  0  0  0  0  0  0  0
   27.1688   12.8545   18.2178 C   0  0  0  0  0  0  0  0  0  0  0  0
   27.4196   11.9971   17.1005 C   0  0  0  0  0  0  0  0  0  0  0  0
   28.2430   12.5413   16.1740 C   0  0  0  0  0  0  0  0  0  0  0  0
   28.7126   13.8620   16.1864 C   0  0  0  0  0  0  0  0  0  0  0  0
   29.0870   16.6429   15.9726 N   0  0  0  0  0  0  0  0  0  0  0  0
   29.0078   16.1028   17.2913 C   0  0  0  0  0  0  0  0  0  0  0  0
   29.4715   17.5868   16.0143 H   0  0  0  0  0  0  0  0  0  0  0  0
   28.1542   16.6735   15.5612 H   0  0  0  0  0  0  0  0  0  0  0  0
  7  8  1  0  0  0
  8  1  1  0  0  0
  1  2  2  0  0  0
  1  6  1  0  0  0
  2  3  1  0  0  0
  3  4  2  0  0  0
  4  5  1  0  0  0
  5  6  2  0  0  0
  7  9  1  0  0  0
  7 10  1  0  0  0
M  END
> <minimizedAffinity>
-4.19598

$$$$
1UTN_ABN_A_246


 10 10  0  0  0  0  0  0  0  0999 V2000
   28.3508   14.7065   17.1758 C   0  0  0  0  0  0  0  0  0  0  0  0
   28.5744   13.6878   16.2647 C   0  0  0  0  0  0  0  0  0  0  0  0
   28.0318   12.3744   16.3575 C   0  0  0  0  0  0  0  0  0  0  0  0
   27.3354   11.9495   17.5327 C   0  0  0  0  0  0  0  0  0  0  0  0
   27.1170   12.9457   18.4229 C   0  0  0  0  0  0  0  0  0  0  0  0
   27.6284   14.2469   18.3211 C   0  0  0  0  0  0  0  0  0  0  0  0
   27.9719   16.8374   16.2109 N   0  0  0  0  0  0  0  0  0  0  0  0
   28.8209   16.0715   17.0649 C   0  0  0  0  0  0  0  0  0  0  0  0
   28.3239   17.7928   16.1496 H   0  0  0  0  0  0  0  0  0  0  0  0
   27.0259   16.8474   16.5921 H   0  0  0  0  0  0  0  0  0  0  0  0
  7  8  1  0  0  0
  8  1  1  0  0  0
  1  2  2  0  0  0
  1  6  1  0  0  0
  2  3  1  0  0  0
  3  4  2  0  0  0
  4  5  1  0  0  0
  5  6  2  0  0  0
  7  9  1  0  0  0
  7 10  1  0  0  0
M  END
> <minimizedAffinity>
-4.15799

$$$$
1UTN_ABN_A_246


 10 10  0  0  0  0  0  0  0  0999 V2000
   28.3825   14.2696   17.5004 C   0  0  0  0  0  0  0  0  0  0  0  0
   27.4886   13.3291   17.9845 C   0  0  0  0  0  0  0  0  0  0  0  0
   27.2539   12.0498   17.4044 C   0  0  0  0  0  0  0  0  0  0  0  0
   27.8171   11.7051   16.1354 C   0  0  0  0  0  0  0  0  0  0  0  0
   28.6908   12.6248   15.6626 C   0  0  0  0  0  0  0  0  0  0  0  0
   28.9432   13.8742   16.2458 C   0  0  0  0  0  0  0  0  0  0  0  0
   28.6648   15.4468   19.5376 N   0  0  0  0  0  0  0  0  0  0  0  0
   28.7013   15.5417   18.1140 C   0  0  0  0  0  0  0  0  0  0  0  0
   28.8924   16.3539   19.9447 H   0  0  0  0  0  0  0  0  0  0  0  0
   29.3449   14.7537   19.8497 H   0  0  0  0  0  0  0  0  0  0  0  0
  7  8  1  0  0  0
  8  1  1  0  0  0
  1  2  2  0  0  0
  1  6  1  0  0  0
  2  3  1  0  0  0
  3  4  2  0  0  0
  4  5  1  0  0  0
  5  6  2  0  0  0
  7  9  1  0  0  0
  7 10  1  0  0  0
M  END
> <minimizedAffinity>
-3.95858

$$$$
1UTN_ABN_A_246


 10 10  0  0  0  0  0  0  0  0999 V2000
   27.8829   13.2362   17.2178 C   0  0  0  0  0  0  0  0  0  0  0  0
   28.7819   13.7842   16.3181 C   0  0  0  0  0  0  0  0  0  0  0  0
   29.4164   15.0507   16.4651 C   0  0  0  0  0  0  0  0  0  0  0  0
   29.0209   15.9535   17.5019 C   0  0  0  0  0  0  0  0  0  0  0  0
   28.1421   15.4175   18.3810 C   0  0  0  0  0  0  0  0  0  0  0  0
   27.5357   14.1602   18.2525 C   0  0  0  0  0  0  0  0  0  0  0  0
   27.7982   11.0618   18.1558 N   0  0  0  0  0  0  0  0  0  0  0  0
   27.2865   11.9194   17.1363 C   0  0  0  0  0  0  0  0  0  0  0  0
   27.3632   10.1425   18.0767 H   0  0  0  0  0  0  0  0  0  0  0  0
   27.5886   11.4594   19.0714 H   0  0  0  0  0  0  0  0  0  0  0  0
  7  8  1  0  0  0
  8  1  1  0  0  0
  1  2  2  0  0  0
  1  6  1  0  0  0
  2  3  1  0  0  0
  3  4  2  0  0  0
  4  5  1  0  0  0
  5  6  2  0  0  0
  7  9  1  0  0  0
  7 10  1  0  0  0
M  END
> <minimizedAffinity>
-3.87827

$$$$
1UTN_ABN_A_246


 10 10  0  0  0  0  0  0  0  0999 V2000
   28.6427   14.1838   17.0232 C   0  0  0  0  0  0  0  0  0  0  0  0
   27.8691   13.0476   16.8547 C   0  0  0  0  0  0  0  0  0  0  0  0
   27.4165   12.2030   17.9083 C   0  0  0  0  0  0  0  0  0  0  0  0
   27.8938   12.3781   19.2454 C   0  0  0  0  0  0  0  0  0  0  0  0
   28.6500   13.4889   19.4097 C   0  0  0  0  0  0  0  0  0  0  0  0
   29.0754   14.3367   18.3776 C   0  0  0  0  0  0  0  0  0  0  0  0
   29.4003   16.3744   16.5306 N   0  0  0  0  0  0  0  0  0  0  0  0
   29.0478   15.1049   15.9821 C   0  0  0  0  0  0  0  0  0  0  0  0
   29.6812   17.0035   15.7785 H   0  0  0  0  0  0  0  0  0  0  0  0
   30.1746   16.2591   17.1845 H   0  0  0  0  0  0  0  0  0  0  0  0
  7  8  1  0  0  0
  8  1  1  0  0  0
  1  2  2  0  0  0
  1  6  1  0  0  0
  2  3  1  0  0  0
  3  4  2  0  0  0
  4  5  1  0  0  0
  5  6  2  0  0  0
  7  9  1  0  0  0
  7 10  1  0  0  0
M  END
> <minimizedAffinity>
-3.83458

$$$$
