1RR6_IMH_A_300
  RCSB PDB12061703553D
Coordinates from PDB:1RR6:A:300 Model:1 without hydrogens
 19 21  0  0  0  0            999 V2000
    1.5720   21.5590   23.5540   O 0  0  0  0  0  0  0  0  0  0  0  0
    1.5740   20.2070   23.1250   C 0  0  0  0  0  0  0  0  0  0  0  0
    2.9830   19.7470   23.0530   C 0  0  0  0  0  0  0  0  0  0  0  0
    3.6640   19.8410   24.3220   N 0  0  0  0  0  0  0  0  0  0  0  0
    3.0510   18.3220   22.5980   C 0  0  0  0  0  0  0  0  0  0  0  0
    4.0010   18.3120   21.5170   O 0  0  0  0  0  0  0  0  0  0  0  0
    3.5140   17.5610   23.8110   C 0  0  0  0  0  0  0  0  0  0  0  0
    4.5560   16.6300   23.4710   O 0  0  0  0  0  0  0  0  0  0  0  0
    4.0060   18.5610   24.8960   C 0  0  0  0  0  0  0  0  0  0  0  0
    3.2110   18.4530   26.2170   C 0  0  0  0  0  0  0  0  0  0  0  0
    3.1680   19.4400   27.1920   C 0  0  0  0  0  0  0  0  0  0  0  0
    2.4250   19.1590   28.2330   N 0  0  0  0  0  0  0  0  0  0  0  0
    1.9060   17.8950   27.9780   C 0  0  0  0  0  0  0  0  0  0  0  0
    1.0120   17.0780   28.7820   C 0  0  0  0  0  0  0  0  0  0  0  0
    0.5210   17.3670   29.8700   O 0  0  0  0  0  0  0  0  0  0  0  0
    0.7010   15.8350   28.1940   N 0  0  0  0  0  0  0  0  0  0  0  0
    1.1970   15.4030   26.9570   C 0  0  0  0  0  0  0  0  0  0  0  0
    2.0430   16.1750   26.1910   N 0  0  0  0  0  0  0  0  0  0  0  0
    2.3710   17.4170   26.7510   C 0  0  0  0  0  0  0  0  0  0  0  0
  1  2  1  0  0  0  0
  2  3  1  0  0  0  0
  3  4  1  0  0  0  0
  3  5  1  0  0  0  0
  4  9  1  0  0  0  0
  5  6  1  0  0  0  0
  5  7  1  0  0  0  0
  7  8  1  0  0  0  0
  7  9  1  0  0  0  0
  9 10  1  0  0  0  0
 10 11  2  0  0  0  0
 10 19  1  0  0  0  0
 11 12  1  0  0  0  0
 12 13  1  0  0  0  0
 13 14  1  0  0  0  0
 13 19  2  0  0  0  0
 14 15  1  0  0  0  0
 14 16  2  0  0  0  0
 16 17  1  0  0  0  0
 17 18  2  0  0  0  0
 18 19  1  0  0  0  0
A    1
O5'
A    2
C5'
A    3
C4'
A    4
N4'
A    5
C3'
A    6
O3'
A    7
C2'
A    8
O2'
A    9
C1'
A   10
C9
A   11
C8
A   12
N7
A   13
C5
A   14
C6
A   15
O6
A   16
N1
A   17
C2
A   18
N3
A   19
C4
M  END
>  <InstanceId>
1RR6_IMH_A_300

>  <ChemCompId>
IMH

>  <PdbId>
1RR6

>  <ChainId>
A

>  <ResidueNumber>
300

>  <InsertionCode>


>  <Model>
1

>  <AltIds>


>  <MissingHeavyAtoms>
0

>  <ObservedFormula>
C11 N4 O4

>  <Name>
1,4-DIDEOXY-4-AZA-1-(S)-(9-DEAZAHYPOXANTHIN-9-YL)-D-RIBITOL

>  <SystematicName>
(2R,3R,4S,5S)-2-(hydroxymethyl)-5-(4-hydroxy-5H-pyrrolo[5,4-e]pyrimidin-7-yl)pyrrolidine-3,4-diol

>  <Synonyms>


>  <Type>
NON-POLYMER

>  <Formula>
C11 H14 N4 O4

>  <MolecularWeight>
266.253

>  <ModifiedDate>
2011-06-04

>  <Parent>


>  <OneLetterCode>


>  <SubcomponentList>


>  <AmbiguousFlag>
N

>  <InChI>
InChI=1S/C11H14N4O4/c16-2-5-9(17)10(18)7(15-5)4-1-12-8-6(4)13-3-14-11(8)19/h1,3,5,7,9-10,12,15-18H,2H2,(H,13,14,19)/t5-,7+,9-,10+/m1/s1

>  <InChIKey>
IWKXDMQDITUYRK-KUBHLMPHSA-N

>  <SMILES>
c1c(c2c([nH]1)c(ncn2)O)[C@H]3[C@@H]([C@@H]([C@H](N3)CO)O)O

$$$$
