2Q8M_AMP_A_341


 29 31  0  0  0  0  0  0  0  0999 V2000
  117.2355   58.0671   19.1619 C   0  0  0  0  0  0  0  0  0  0  0  0
  117.7783   56.8329   19.7117 O   0  0  0  0  0  0  0  0  0  0  0  0
  116.4419   57.6116   17.9484 C   0  0  0  0  0  0  0  0  0  0  0  0
  116.3107   58.6528   16.9913 O   0  0  0  0  0  0  0  0  0  0  0  0
  117.3209   56.4857   17.4256 C   0  0  0  0  0  0  0  0  0  0  0  0
  118.4787   56.9907   16.7897 O   0  0  0  0  0  0  0  0  0  0  0  0
  117.7124   55.8030   18.7355 C   0  0  0  0  0  0  0  0  0  0  0  0
  117.1908   58.9738   16.7401 H   0  0  0  0  0  0  0  0  0  0  0  0
  118.9574   57.5704   17.4027 H   0  0  0  0  0  0  0  0  0  0  0  0
  116.6893   54.8459   19.1584 N   0  0  0  0  0  0  0  0  0  0  0  0
  115.8202   54.9635   20.2156 C   0  0  0  0  0  0  0  0  0  0  0  0
  114.9879   53.9552   20.3312 N   0  0  0  0  0  0  0  0  0  0  0  0
  115.3364   53.1136   19.2855 C   0  0  0  0  0  0  0  0  0  0  0  0
  114.8284   51.8766   18.8608 C   0  0  0  0  0  0  0  0  0  0  0  0
  113.8096   51.2476   19.4576 N   0  0  0  0  0  0  0  0  0  0  0  0
  115.4044   51.3005   17.7837 N   0  0  0  0  0  0  0  0  0  0  0  0
  116.4156   51.9338   17.1815 C   0  0  0  0  0  0  0  0  0  0  0  0
  116.9790   53.0988   17.4843 N   0  0  0  0  0  0  0  0  0  0  0  0
  116.3875   53.6452   18.5589 C   0  0  0  0  0  0  0  0  0  0  0  0
  113.3755   51.6501   20.2442 H   0  0  0  0  0  0  0  0  0  0  0  0
  113.4941   50.3821   19.1102 H   0  0  0  0  0  0  0  0  0  0  0  0
  116.4434   58.8052   20.2215 C   0  0  0  0  0  0  0  0  0  0  0  0
  115.0920   58.3018   20.2834 O   0  0  0  0  0  0  0  0  0  0  0  0
  114.1560   58.5681   21.5946 P   0  0  0  0  0  0  0  0  0  0  0  0
  114.8698   59.6255   22.4122 O   0  0  0  0  0  0  0  0  0  0  0  0
  112.8169   59.0459   21.0641 O   0  0  0  0  0  0  0  0  0  0  0  0
  114.0552   57.2401   22.3288 O   0  0  0  0  0  0  0  0  0  0  0  0
  112.2182   59.2200   21.8072 H   0  0  0  0  0  0  0  0  0  0  0  0
  113.5051   57.3491   23.1202 H   0  0  0  0  0  0  0  0  0  0  0  0
 24 25  2  0  0  0
 24 26  1  0  0  0
 24 27  1  0  0  0
 24 23  1  0  0  0
 23 22  1  0  0  0
 22  1  1  0  0  0
  1  2  1  0  0  0
  1  3  1  0  0  0
  2  7  1  0  0  0
  3  4  1  0  0  0
  3  5  1  0  0  0
  5  6  1  0  0  0
  5  7  1  0  0  0
  7 10  1  0  0  0
 10 11  1  0  0  0
 10 19  1  0  0  0
 11 12  2  0  0  0
 12 13  1  0  0  0
 13 14  1  0  0  0
 13 19  2  0  0  0
 14 15  1  0  0  0
 14 16  2  0  0  0
 16 17  1  0  0  0
 17 18  2  0  0  0
 18 19  1  0  0  0
 26 28  1  0  0  0
 27 29  1  0  0  0
  4  8  1  0  0  0
  6  9  1  0  0  0
 15 20  1  0  0  0
 15 21  1  0  0  0
M  END
> <minimizedAffinity>
-9.20432

$$$$
2Q8M_AMP_A_341


 29 31  0  0  0  0  0  0  0  0999 V2000
  116.6633   51.9993   17.5083 C   0  0  0  0  0  0  0  0  0  0  0  0
  117.2043   52.5298   18.7517 O   0  0  0  0  0  0  0  0  0  0  0  0
  115.2101   52.4440   17.5199 C   0  0  0  0  0  0  0  0  0  0  0  0
  114.3992   51.5943   16.7212 O   0  0  0  0  0  0  0  0  0  0  0  0
  114.8705   52.3069   18.9962 C   0  0  0  0  0  0  0  0  0  0  0  0
  114.7178   50.9501   19.3645 O   0  0  0  0  0  0  0  0  0  0  0  0
  116.1414   52.8701   19.6307 C   0  0  0  0  0  0  0  0  0  0  0  0
  114.4928   50.6781   17.0259 H   0  0  0  0  0  0  0  0  0  0  0  0
  115.5206   50.4590   19.1294 H   0  0  0  0  0  0  0  0  0  0  0  0
  116.0832   54.3294   19.7238 N   0  0  0  0  0  0  0  0  0  0  0  0
  116.8401   55.2424   19.0307 C   0  0  0  0  0  0  0  0  0  0  0  0
  116.5407   56.4916   19.3003 N   0  0  0  0  0  0  0  0  0  0  0  0
  115.5244   56.3958   20.2390 C   0  0  0  0  0  0  0  0  0  0  0  0
  114.7757   57.3667   20.9211 C   0  0  0  0  0  0  0  0  0  0  0  0
  114.9351   58.6838   20.7491 N   0  0  0  0  0  0  0  0  0  0  0  0
  113.8398   56.9355   21.7940 N   0  0  0  0  0  0  0  0  0  0  0  0
  113.6737   55.6196   21.9584 C   0  0  0  0  0  0  0  0  0  0  0  0
  114.3125   54.6111   21.3743 N   0  0  0  0  0  0  0  0  0  0  0  0
  115.2368   55.0705   20.5153 C   0  0  0  0  0  0  0  0  0  0  0  0
  115.6117   59.0194   20.1176 H   0  0  0  0  0  0  0  0  0  0  0  0
  114.3758   59.3174   21.2540 H   0  0  0  0  0  0  0  0  0  0  0  0
  117.4863   52.4854   16.3330 C   0  0  0  0  0  0  0  0  0  0  0  0
  117.0540   53.8004   15.9236 O   0  0  0  0  0  0  0  0  0  0  0  0
  118.0098   54.7490   15.0004 P   0  0  0  0  0  0  0  0  0  0  0  0
  118.5967   55.7886   15.9336 O   0  0  0  0  0  0  0  0  0  0  0  0
  119.0655   53.8326   14.4097 O   0  0  0  0  0  0  0  0  0  0  0  0
  117.1101   55.3657   13.9406 O   0  0  0  0  0  0  0  0  0  0  0  0
  119.6645   54.3491   13.8482 H   0  0  0  0  0  0  0  0  0  0  0  0
  117.6369   55.9413   13.3643 H   0  0  0  0  0  0  0  0  0  0  0  0
 24 25  2  0  0  0
 24 26  1  0  0  0
 24 27  1  0  0  0
 24 23  1  0  0  0
 23 22  1  0  0  0
 22  1  1  0  0  0
  1  2  1  0  0  0
  1  3  1  0  0  0
  2  7  1  0  0  0
  3  4  1  0  0  0
  3  5  1  0  0  0
  5  6  1  0  0  0
  5  7  1  0  0  0
  7 10  1  0  0  0
 10 11  1  0  0  0
 10 19  1  0  0  0
 11 12  2  0  0  0
 12 13  1  0  0  0
 13 14  1  0  0  0
 13 19  2  0  0  0
 14 15  1  0  0  0
 14 16  2  0  0  0
 16 17  1  0  0  0
 17 18  2  0  0  0
 18 19  1  0  0  0
 26 28  1  0  0  0
 27 29  1  0  0  0
  4  8  1  0  0  0
  6  9  1  0  0  0
 15 20  1  0  0  0
 15 21  1  0  0  0
M  END
> <minimizedAffinity>
-8.12231

$$$$
2Q8M_AMP_A_341


 29 31  0  0  0  0  0  0  0  0999 V2000
  116.9987   58.0456   19.5220 C   0  0  0  0  0  0  0  0  0  0  0  0
  117.4325   56.8199   20.1776 O   0  0  0  0  0  0  0  0  0  0  0  0
  116.3605   57.5652   18.2290 C   0  0  0  0  0  0  0  0  0  0  0  0
  116.3833   58.5751   17.2305 O   0  0  0  0  0  0  0  0  0  0  0  0
  117.2716   56.4034   17.8632 C   0  0  0  0  0  0  0  0  0  0  0  0
  118.5157   56.8614   17.3708 O   0  0  0  0  0  0  0  0  0  0  0  0
  117.4694   55.7584   19.2343 C   0  0  0  0  0  0  0  0  0  0  0  0
  117.2969   58.8685   17.0882 H   0  0  0  0  0  0  0  0  0  0  0  0
  118.9241   57.4517   18.0231 H   0  0  0  0  0  0  0  0  0  0  0  0
  116.3753   54.8385   19.5479 N   0  0  0  0  0  0  0  0  0  0  0  0
  115.3470   55.0344   20.4373 C   0  0  0  0  0  0  0  0  0  0  0  0
  114.4905   54.0409   20.4833 N   0  0  0  0  0  0  0  0  0  0  0  0
  114.9914   53.1262   19.5692 C   0  0  0  0  0  0  0  0  0  0  0  0
  114.5395   51.8650   19.1524 C   0  0  0  0  0  0  0  0  0  0  0  0
  113.4266   51.2846   19.6154 N   0  0  0  0  0  0  0  0  0  0  0  0
  115.2743   51.2118   18.2266 N   0  0  0  0  0  0  0  0  0  0  0  0
  116.3806   51.7962   17.7568 C   0  0  0  0  0  0  0  0  0  0  0  0
  116.9060   52.9768   18.0676 N   0  0  0  0  0  0  0  0  0  0  0  0
  116.1558   53.6003   18.9905 C   0  0  0  0  0  0  0  0  0  0  0  0
  112.8763   51.7435   20.2906 H   0  0  0  0  0  0  0  0  0  0  0  0
  113.1579   50.3985   19.2809 H   0  0  0  0  0  0  0  0  0  0  0  0
  116.0931   58.8366   20.4434 C   0  0  0  0  0  0  0  0  0  0  0  0
  116.5733   60.1908   20.5826 O   0  0  0  0  0  0  0  0  0  0  0  0
  117.2005   60.7183   21.9948 P   0  0  0  0  0  0  0  0  0  0  0  0
  116.1439   60.4538   23.0483 O   0  0  0  0  0  0  0  0  0  0  0  0
  118.4649   59.9099   22.2204 O   0  0  0  0  0  0  0  0  0  0  0  0
  117.4786   62.2027   21.8150 O   0  0  0  0  0  0  0  0  0  0  0  0
  118.8806   60.1853   23.0524 H   0  0  0  0  0  0  0  0  0  0  0  0
  117.8546   62.5627   22.6335 H   0  0  0  0  0  0  0  0  0  0  0  0
 24 25  2  0  0  0
 24 26  1  0  0  0
 24 27  1  0  0  0
 24 23  1  0  0  0
 23 22  1  0  0  0
 22  1  1  0  0  0
  1  2  1  0  0  0
  1  3  1  0  0  0
  2  7  1  0  0  0
  3  4  1  0  0  0
  3  5  1  0  0  0
  5  6  1  0  0  0
  5  7  1  0  0  0
  7 10  1  0  0  0
 10 11  1  0  0  0
 10 19  1  0  0  0
 11 12  2  0  0  0
 12 13  1  0  0  0
 13 14  1  0  0  0
 13 19  2  0  0  0
 14 15  1  0  0  0
 14 16  2  0  0  0
 16 17  1  0  0  0
 17 18  2  0  0  0
 18 19  1  0  0  0
 26 28  1  0  0  0
 27 29  1  0  0  0
  4  8  1  0  0  0
  6  9  1  0  0  0
 15 20  1  0  0  0
 15 21  1  0  0  0
M  END
> <minimizedAffinity>
-7.83734

$$$$
2Q8M_AMP_A_341


 29 31  0  0  0  0  0  0  0  0999 V2000
  117.4165   58.1452   20.2381 C   0  0  0  0  0  0  0  0  0  0  0  0
  118.4324   57.3923   19.5160 O   0  0  0  0  0  0  0  0  0  0  0  0
  117.2584   59.4211   19.4274 C   0  0  0  0  0  0  0  0  0  0  0  0
  116.7615   60.4863   20.2247 O   0  0  0  0  0  0  0  0  0  0  0  0
  118.6939   59.6760   18.9940 C   0  0  0  0  0  0  0  0  0  0  0  0
  119.4767   60.1597   20.0678 O   0  0  0  0  0  0  0  0  0  0  0  0
  119.1359   58.2577   18.6360 C   0  0  0  0  0  0  0  0  0  0  0  0
  117.3465   60.6199   20.9868 H   0  0  0  0  0  0  0  0  0  0  0  0
  119.4266   59.5376   20.8104 H   0  0  0  0  0  0  0  0  0  0  0  0
  118.7531   57.9153   17.2657 N   0  0  0  0  0  0  0  0  0  0  0  0
  118.8950   58.6891   16.1396 C   0  0  0  0  0  0  0  0  0  0  0  0
  118.4891   58.1010   15.0387 N   0  0  0  0  0  0  0  0  0  0  0  0
  118.0431   56.8602   15.4684 C   0  0  0  0  0  0  0  0  0  0  0  0
  117.4942   55.7658   14.7831 C   0  0  0  0  0  0  0  0  0  0  0  0
  117.3005   55.7395   13.4597 N   0  0  0  0  0  0  0  0  0  0  0  0
  117.1512   54.6807   15.5102 N   0  0  0  0  0  0  0  0  0  0  0  0
  117.3540   54.7032   16.8310 C   0  0  0  0  0  0  0  0  0  0  0  0
  117.8638   55.6694   17.5880 N   0  0  0  0  0  0  0  0  0  0  0  0
  118.1925   56.7341   16.8386 C   0  0  0  0  0  0  0  0  0  0  0  0
  117.5436   56.5200   12.9110 H   0  0  0  0  0  0  0  0  0  0  0  0
  116.9148   54.9398   13.0344 H   0  0  0  0  0  0  0  0  0  0  0  0
  116.1622   57.3103   20.3942 C   0  0  0  0  0  0  0  0  0  0  0  0
  114.9860   58.1317   20.2348 O   0  0  0  0  0  0  0  0  0  0  0  0
  114.0513   58.5178   21.5167 P   0  0  0  0  0  0  0  0  0  0  0  0
  112.7904   59.1349   20.9462 O   0  0  0  0  0  0  0  0  0  0  0  0
  113.7842   57.2155   22.2486 O   0  0  0  0  0  0  0  0  0  0  0  0
  114.8516   59.5055   22.3515 O   0  0  0  0  0  0  0  0  0  0  0  0
  113.2289   57.3888   23.0247 H   0  0  0  0  0  0  0  0  0  0  0  0
  114.3338   59.7655   23.1294 H   0  0  0  0  0  0  0  0  0  0  0  0
 24 25  2  0  0  0
 24 26  1  0  0  0
 24 27  1  0  0  0
 24 23  1  0  0  0
 23 22  1  0  0  0
 22  1  1  0  0  0
  1  2  1  0  0  0
  1  3  1  0  0  0
  2  7  1  0  0  0
  3  4  1  0  0  0
  3  5  1  0  0  0
  5  6  1  0  0  0
  5  7  1  0  0  0
  7 10  1  0  0  0
 10 11  1  0  0  0
 10 19  1  0  0  0
 11 12  2  0  0  0
 12 13  1  0  0  0
 13 14  1  0  0  0
 13 19  2  0  0  0
 14 15  1  0  0  0
 14 16  2  0  0  0
 16 17  1  0  0  0
 17 18  2  0  0  0
 18 19  1  0  0  0
 26 28  1  0  0  0
 27 29  1  0  0  0
  4  8  1  0  0  0
  6  9  1  0  0  0
 15 20  1  0  0  0
 15 21  1  0  0  0
M  END
> <minimizedAffinity>
-7.52901

$$$$
2Q8M_AMP_A_341


 29 31  0  0  0  0  0  0  0  0999 V2000
  117.3283   58.0299   20.0109 C   0  0  0  0  0  0  0  0  0  0  0  0
  118.3576   57.2282   19.3643 O   0  0  0  0  0  0  0  0  0  0  0  0
  117.0178   59.1180   18.9963 C   0  0  0  0  0  0  0  0  0  0  0  0
  116.4836   60.2760   19.6216 O   0  0  0  0  0  0  0  0  0  0  0  0
  118.3991   59.3871   18.4190 C   0  0  0  0  0  0  0  0  0  0  0  0
  119.2023   60.1159   19.3267 O   0  0  0  0  0  0  0  0  0  0  0  0
  118.9339   57.9612   18.2926 C   0  0  0  0  0  0  0  0  0  0  0  0
  117.1001   60.5897   20.3016 H   0  0  0  0  0  0  0  0  0  0  0  0
  119.2478   59.6411   20.1714 H   0  0  0  0  0  0  0  0  0  0  0  0
  118.4994   57.3435   17.0391 N   0  0  0  0  0  0  0  0  0  0  0  0
  117.6975   56.2390   16.8850 C   0  0  0  0  0  0  0  0  0  0  0  0
  117.4499   55.9353   15.6323 N   0  0  0  0  0  0  0  0  0  0  0  0
  118.1405   56.8989   14.9128 C   0  0  0  0  0  0  0  0  0  0  0  0
  118.2779   57.1297   13.5357 C   0  0  0  0  0  0  0  0  0  0  0  0
  117.6935   56.3793   12.5949 N   0  0  0  0  0  0  0  0  0  0  0  0
  119.0410   58.1749   13.1498 N   0  0  0  0  0  0  0  0  0  0  0  0
  119.6167   58.9305   14.0900 C   0  0  0  0  0  0  0  0  0  0  0  0
  119.5602   58.8164   15.4129 N   0  0  0  0  0  0  0  0  0  0  0  0
  118.7977   57.7688   15.7653 C   0  0  0  0  0  0  0  0  0  0  0  0
  117.1331   55.6126   12.8545 H   0  0  0  0  0  0  0  0  0  0  0  0
  117.8238   56.5938   11.6429 H   0  0  0  0  0  0  0  0  0  0  0  0
  116.1582   57.1533   20.4079 C   0  0  0  0  0  0  0  0  0  0  0  0
  114.9124   57.8563   20.2144 O   0  0  0  0  0  0  0  0  0  0  0  0
  114.0533   58.4087   21.4884 P   0  0  0  0  0  0  0  0  0  0  0  0
  112.8232   59.0761   20.9075 O   0  0  0  0  0  0  0  0  0  0  0  0
  113.7150   57.1897   22.3265 O   0  0  0  0  0  0  0  0  0  0  0  0
  114.9530   59.3920   22.2209 O   0  0  0  0  0  0  0  0  0  0  0  0
  113.2009   57.4632   23.1022 H   0  0  0  0  0  0  0  0  0  0  0  0
  114.4827   59.7490   22.9905 H   0  0  0  0  0  0  0  0  0  0  0  0
 24 25  2  0  0  0
 24 26  1  0  0  0
 24 27  1  0  0  0
 24 23  1  0  0  0
 23 22  1  0  0  0
 22  1  1  0  0  0
  1  2  1  0  0  0
  1  3  1  0  0  0
  2  7  1  0  0  0
  3  4  1  0  0  0
  3  5  1  0  0  0
  5  6  1  0  0  0
  5  7  1  0  0  0
  7 10  1  0  0  0
 10 11  1  0  0  0
 10 19  1  0  0  0
 11 12  2  0  0  0
 12 13  1  0  0  0
 13 14  1  0  0  0
 13 19  2  0  0  0
 14 15  1  0  0  0
 14 16  2  0  0  0
 16 17  1  0  0  0
 17 18  2  0  0  0
 18 19  1  0  0  0
 26 28  1  0  0  0
 27 29  1  0  0  0
  4  8  1  0  0  0
  6  9  1  0  0  0
 15 20  1  0  0  0
 15 21  1  0  0  0
M  END
> <minimizedAffinity>
-7.25625

$$$$
2Q8M_AMP_A_341


 29 31  0  0  0  0  0  0  0  0999 V2000
  118.3755   60.1818   20.0187 C   0  0  0  0  0  0  0  0  0  0  0  0
  117.1439   59.7856   19.3504 O   0  0  0  0  0  0  0  0  0  0  0  0
  118.3822   59.3584   21.2962 C   0  0  0  0  0  0  0  0  0  0  0  0
  119.1620   59.9763   22.3098 O   0  0  0  0  0  0  0  0  0  0  0  0
  116.9043   59.3589   21.6562 C   0  0  0  0  0  0  0  0  0  0  0  0
  116.5013   60.6128   22.1712 O   0  0  0  0  0  0  0  0  0  0  0  0
  116.2790   59.1460   20.2783 C   0  0  0  0  0  0  0  0  0  0  0  0
  118.8330   60.8750   22.4681 H   0  0  0  0  0  0  0  0  0  0  0  0
  116.7198   61.3098   21.5329 H   0  0  0  0  0  0  0  0  0  0  0  0
  116.2244   57.7240   19.9371 N   0  0  0  0  0  0  0  0  0  0  0  0
  116.9966   57.0538   19.0198 C   0  0  0  0  0  0  0  0  0  0  0  0
  116.7425   55.7679   18.9528 N   0  0  0  0  0  0  0  0  0  0  0  0
  115.7305   55.5791   19.8819 C   0  0  0  0  0  0  0  0  0  0  0  0
  115.0246   54.4369   20.2889 C   0  0  0  0  0  0  0  0  0  0  0  0
  115.2460   53.2125   19.7973 N   0  0  0  0  0  0  0  0  0  0  0  0
  114.0743   54.5932   21.2356 N   0  0  0  0  0  0  0  0  0  0  0  0
  113.8601   55.8147   21.7340 C   0  0  0  0  0  0  0  0  0  0  0  0
  114.4592   56.9628   21.4350 N   0  0  0  0  0  0  0  0  0  0  0  0
  115.3957   56.7760   20.4909 C   0  0  0  0  0  0  0  0  0  0  0  0
  115.9341   53.0764   19.1065 H   0  0  0  0  0  0  0  0  0  0  0  0
  114.7206   52.4476   20.1262 H   0  0  0  0  0  0  0  0  0  0  0  0
  119.5594   59.9690   19.0977 C   0  0  0  0  0  0  0  0  0  0  0  0
  119.2915   60.5282   17.7942 O   0  0  0  0  0  0  0  0  0  0  0  0
  119.0410   59.5625   16.5016 P   0  0  0  0  0  0  0  0  0  0  0  0
  119.6553   58.2227   16.8532 O   0  0  0  0  0  0  0  0  0  0  0  0
  117.5362   59.4853   16.3210 O   0  0  0  0  0  0  0  0  0  0  0  0
  119.7389   60.2275   15.3253 O   0  0  0  0  0  0  0  0  0  0  0  0
  117.3305   58.9194   15.5605 H   0  0  0  0  0  0  0  0  0  0  0  0
  119.6170   59.6868   14.5293 H   0  0  0  0  0  0  0  0  0  0  0  0
 24 25  2  0  0  0
 24 26  1  0  0  0
 24 27  1  0  0  0
 24 23  1  0  0  0
 23 22  1  0  0  0
 22  1  1  0  0  0
  1  2  1  0  0  0
  1  3  1  0  0  0
  2  7  1  0  0  0
  3  4  1  0  0  0
  3  5  1  0  0  0
  5  6  1  0  0  0
  5  7  1  0  0  0
  7 10  1  0  0  0
 10 11  1  0  0  0
 10 19  1  0  0  0
 11 12  2  0  0  0
 12 13  1  0  0  0
 13 14  1  0  0  0
 13 19  2  0  0  0
 14 15  1  0  0  0
 14 16  2  0  0  0
 16 17  1  0  0  0
 17 18  2  0  0  0
 18 19  1  0  0  0
 26 28  1  0  0  0
 27 29  1  0  0  0
  4  8  1  0  0  0
  6  9  1  0  0  0
 15 20  1  0  0  0
 15 21  1  0  0  0
M  END
> <minimizedAffinity>
-7.00829

$$$$
2Q8M_AMP_A_341


 29 31  0  0  0  0  0  0  0  0999 V2000
  118.6585   59.5859   19.0269 C   0  0  0  0  0  0  0  0  0  0  0  0
  117.2385   59.2657   19.0653 O   0  0  0  0  0  0  0  0  0  0  0  0
  119.2739   58.6532   20.0571 C   0  0  0  0  0  0  0  0  0  0  0  0
  120.4969   59.1696   20.5621 O   0  0  0  0  0  0  0  0  0  0  0  0
  118.1935   58.6407   21.1277 C   0  0  0  0  0  0  0  0  0  0  0  0
  118.1834   59.8494   21.8617 O   0  0  0  0  0  0  0  0  0  0  0  0
  116.9384   58.5579   20.2599 C   0  0  0  0  0  0  0  0  0  0  0  0
  120.3471   60.0549   20.9290 H   0  0  0  0  0  0  0  0  0  0  0  0
  118.0819   60.5971   21.2521 H   0  0  0  0  0  0  0  0  0  0  0  0
  116.6365   57.1722   19.8989 N   0  0  0  0  0  0  0  0  0  0  0  0
  117.2910   56.3850   18.9831 C   0  0  0  0  0  0  0  0  0  0  0  0
  116.8127   55.1659   18.8954 N   0  0  0  0  0  0  0  0  0  0  0  0
  115.7689   55.1507   19.8083 C   0  0  0  0  0  0  0  0  0  0  0  0
  114.8644   54.1485   20.1904 C   0  0  0  0  0  0  0  0  0  0  0  0
  114.8715   52.9097   19.6853 N   0  0  0  0  0  0  0  0  0  0  0  0
  113.9425   54.4617   21.1262 N   0  0  0  0  0  0  0  0  0  0  0  0
  113.9418   55.6963   21.6380 C   0  0  0  0  0  0  0  0  0  0  0  0
  114.7406   56.7222   21.3626 N   0  0  0  0  0  0  0  0  0  0  0  0
  115.6434   56.3814   20.4287 C   0  0  0  0  0  0  0  0  0  0  0  0
  115.5351   52.6605   19.0021 H   0  0  0  0  0  0  0  0  0  0  0  0
  114.2131   52.2473   19.9968 H   0  0  0  0  0  0  0  0  0  0  0  0
  119.1872   59.4401   17.6148 C   0  0  0  0  0  0  0  0  0  0  0  0
  118.1933   59.8639   16.6575 O   0  0  0  0  0  0  0  0  0  0  0  0
  117.3832   58.7746   15.7502 P   0  0  0  0  0  0  0  0  0  0  0  0
  117.2501   59.3918   14.3726 O   0  0  0  0  0  0  0  0  0  0  0  0
  118.2325   57.5170   15.7466 O   0  0  0  0  0  0  0  0  0  0  0  0
  116.0355   58.5696   16.4244 O   0  0  0  0  0  0  0  0  0  0  0  0
  117.7940   56.8323   15.2177 H   0  0  0  0  0  0  0  0  0  0  0  0
  115.5152   57.9263   15.9181 H   0  0  0  0  0  0  0  0  0  0  0  0
 24 25  2  0  0  0
 24 26  1  0  0  0
 24 27  1  0  0  0
 24 23  1  0  0  0
 23 22  1  0  0  0
 22  1  1  0  0  0
  1  2  1  0  0  0
  1  3  1  0  0  0
  2  7  1  0  0  0
  3  4  1  0  0  0
  3  5  1  0  0  0
  5  6  1  0  0  0
  5  7  1  0  0  0
  7 10  1  0  0  0
 10 11  1  0  0  0
 10 19  1  0  0  0
 11 12  2  0  0  0
 12 13  1  0  0  0
 13 14  1  0  0  0
 13 19  2  0  0  0
 14 15  1  0  0  0
 14 16  2  0  0  0
 16 17  1  0  0  0
 17 18  2  0  0  0
 18 19  1  0  0  0
 26 28  1  0  0  0
 27 29  1  0  0  0
  4  8  1  0  0  0
  6  9  1  0  0  0
 15 20  1  0  0  0
 15 21  1  0  0  0
M  END
> <minimizedAffinity>
-6.93043

$$$$
2Q8M_AMP_A_341


 29 31  0  0  0  0  0  0  0  0999 V2000
  118.2366   58.3530   17.3293 C   0  0  0  0  0  0  0  0  0  0  0  0
  118.7612   57.0345   17.6553 O   0  0  0  0  0  0  0  0  0  0  0  0
  116.8868   58.0649   16.6928 C   0  0  0  0  0  0  0  0  0  0  0  0
  116.4824   59.1184   15.8303 O   0  0  0  0  0  0  0  0  0  0  0  0
  117.1927   56.7959   15.9120 C   0  0  0  0  0  0  0  0  0  0  0  0
  117.9577   57.0757   14.7559 O   0  0  0  0  0  0  0  0  0  0  0  0
  118.0530   56.0425   16.9256 C   0  0  0  0  0  0  0  0  0  0  0  0
  117.1668   59.2679   15.1594 H   0  0  0  0  0  0  0  0  0  0  0  0
  118.7652   57.5497   15.0094 H   0  0  0  0  0  0  0  0  0  0  0  0
  117.2227   55.2946   17.8705 N   0  0  0  0  0  0  0  0  0  0  0  0
  116.8101   55.6934   19.1186 C   0  0  0  0  0  0  0  0  0  0  0  0
  116.0416   54.8199   19.7261 N   0  0  0  0  0  0  0  0  0  0  0  0
  115.9476   53.7727   18.8219 C   0  0  0  0  0  0  0  0  0  0  0  0
  115.2722   52.5437   18.8687 C   0  0  0  0  0  0  0  0  0  0  0  0
  114.5226   52.1471   19.9033 N   0  0  0  0  0  0  0  0  0  0  0  0
  115.3879   51.7254   17.8006 N   0  0  0  0  0  0  0  0  0  0  0  0
  116.1287   52.1261   16.7628 C   0  0  0  0  0  0  0  0  0  0  0  0
  116.8078   53.2569   16.6000 N   0  0  0  0  0  0  0  0  0  0  0  0
  116.6757   54.0474   17.6774 C   0  0  0  0  0  0  0  0  0  0  0  0
  114.4249   52.7284   20.6918 H   0  0  0  0  0  0  0  0  0  0  0  0
  114.0685   51.2740   19.8761 H   0  0  0  0  0  0  0  0  0  0  0  0
  118.2020   59.2212   18.5702 C   0  0  0  0  0  0  0  0  0  0  0  0
  116.8387   59.5107   18.9459 O   0  0  0  0  0  0  0  0  0  0  0  0
  116.3880   59.5388   20.5151 P   0  0  0  0  0  0  0  0  0  0  0  0
  114.8888   59.3191   20.5252 O   0  0  0  0  0  0  0  0  0  0  0  0
  117.1476   58.4117   21.1900 O   0  0  0  0  0  0  0  0  0  0  0  0
  116.7751   60.9089   21.0500 O   0  0  0  0  0  0  0  0  0  0  0  0
  116.9151   58.3834   22.1313 H   0  0  0  0  0  0  0  0  0  0  0  0
  116.5254   60.9732   21.9851 H   0  0  0  0  0  0  0  0  0  0  0  0
 24 25  2  0  0  0
 24 26  1  0  0  0
 24 27  1  0  0  0
 24 23  1  0  0  0
 23 22  1  0  0  0
 22  1  1  0  0  0
  1  2  1  0  0  0
  1  3  1  0  0  0
  2  7  1  0  0  0
  3  4  1  0  0  0
  3  5  1  0  0  0
  5  6  1  0  0  0
  5  7  1  0  0  0
  7 10  1  0  0  0
 10 11  1  0  0  0
 10 19  1  0  0  0
 11 12  2  0  0  0
 12 13  1  0  0  0
 13 14  1  0  0  0
 13 19  2  0  0  0
 14 15  1  0  0  0
 14 16  2  0  0  0
 16 17  1  0  0  0
 17 18  2  0  0  0
 18 19  1  0  0  0
 26 28  1  0  0  0
 27 29  1  0  0  0
  4  8  1  0  0  0
  6  9  1  0  0  0
 15 20  1  0  0  0
 15 21  1  0  0  0
M  END
> <minimizedAffinity>
-6.81208

$$$$
2Q8M_AMP_A_341


 29 31  0  0  0  0  0  0  0  0999 V2000
  116.6797   52.3705   17.5193 C   0  0  0  0  0  0  0  0  0  0  0  0
  117.0332   52.7860   18.8693 O   0  0  0  0  0  0  0  0  0  0  0  0
  115.1701   52.5386   17.4660 C   0  0  0  0  0  0  0  0  0  0  0  0
  114.5865   51.6942   16.4842 O   0  0  0  0  0  0  0  0  0  0  0  0
  114.7749   52.1105   18.8710 C   0  0  0  0  0  0  0  0  0  0  0  0
  114.8631   50.7074   19.0246 O   0  0  0  0  0  0  0  0  0  0  0  0
  115.8739   52.7857   19.6904 C   0  0  0  0  0  0  0  0  0  0  0  0
  114.8354   50.7734   16.6605 H   0  0  0  0  0  0  0  0  0  0  0  0
  115.7578   50.4125   18.7933 H   0  0  0  0  0  0  0  0  0  0  0  0
  115.5317   54.1771   19.9876 N   0  0  0  0  0  0  0  0  0  0  0  0
  114.4239   54.6419   20.6537 C   0  0  0  0  0  0  0  0  0  0  0  0
  114.4028   55.9461   20.8001 N   0  0  0  0  0  0  0  0  0  0  0  0
  115.5702   56.3698   20.1830 C   0  0  0  0  0  0  0  0  0  0  0  0
  116.1319   57.6423   19.9996 C   0  0  0  0  0  0  0  0  0  0  0  0
  115.5733   58.7724   20.4475 N   0  0  0  0  0  0  0  0  0  0  0  0
  117.3063   57.7180   19.3371 N   0  0  0  0  0  0  0  0  0  0  0  0
  117.8693   56.5881   18.8984 C   0  0  0  0  0  0  0  0  0  0  0  0
  117.4409   55.3351   19.0115 N   0  0  0  0  0  0  0  0  0  0  0  0
  116.2722   55.2923   19.6714 C   0  0  0  0  0  0  0  0  0  0  0  0
  114.7174   58.7397   20.9329 H   0  0  0  0  0  0  0  0  0  0  0  0
  116.0181   59.6368   20.2917 H   0  0  0  0  0  0  0  0  0  0  0  0
  117.4634   53.1768   16.5042 C   0  0  0  0  0  0  0  0  0  0  0  0
  116.6314   54.2043   15.9248 O   0  0  0  0  0  0  0  0  0  0  0  0
  117.2912   55.4835   15.1538 P   0  0  0  0  0  0  0  0  0  0  0  0
  116.6893   56.7169   15.7961 O   0  0  0  0  0  0  0  0  0  0  0  0
  118.7888   55.3811   15.3769 O   0  0  0  0  0  0  0  0  0  0  0  0
  116.9066   55.3486   13.6886 O   0  0  0  0  0  0  0  0  0  0  0  0
  119.2327   56.1225   14.9364 H   0  0  0  0  0  0  0  0  0  0  0  0
  117.2785   56.0910   13.1870 H   0  0  0  0  0  0  0  0  0  0  0  0
 24 25  2  0  0  0
 24 26  1  0  0  0
 24 27  1  0  0  0
 24 23  1  0  0  0
 23 22  1  0  0  0
 22  1  1  0  0  0
  1  2  1  0  0  0
  1  3  1  0  0  0
  2  7  1  0  0  0
  3  4  1  0  0  0
  3  5  1  0  0  0
  5  6  1  0  0  0
  5  7  1  0  0  0
  7 10  1  0  0  0
 10 11  1  0  0  0
 10 19  1  0  0  0
 11 12  2  0  0  0
 12 13  1  0  0  0
 13 14  1  0  0  0
 13 19  2  0  0  0
 14 15  1  0  0  0
 14 16  2  0  0  0
 16 17  1  0  0  0
 17 18  2  0  0  0
 18 19  1  0  0  0
 26 28  1  0  0  0
 27 29  1  0  0  0
  4  8  1  0  0  0
  6  9  1  0  0  0
 15 20  1  0  0  0
 15 21  1  0  0  0
M  END
> <minimizedAffinity>
-6.56674

$$$$
2Q8M_AMP_A_341


 29 31  0  0  0  0  0  0  0  0999 V2000
  116.2053   55.5403   18.8970 C   0  0  0  0  0  0  0  0  0  0  0  0
  116.0759   56.9110   19.3709 O   0  0  0  0  0  0  0  0  0  0  0  0
  117.5086   55.5427   18.1152 C   0  0  0  0  0  0  0  0  0  0  0  0
  117.5342   54.5081   17.1425 O   0  0  0  0  0  0  0  0  0  0  0  0
  117.4597   56.9158   17.4627 C   0  0  0  0  0  0  0  0  0  0  0  0
  116.5308   56.9454   16.3968 O   0  0  0  0  0  0  0  0  0  0  0  0
  116.9349   57.7602   18.6231 C   0  0  0  0  0  0  0  0  0  0  0  0
  116.7675   54.5975   16.5551 H   0  0  0  0  0  0  0  0  0  0  0  0
  115.6599   56.6653   16.7190 H   0  0  0  0  0  0  0  0  0  0  0  0
  118.0250   58.1855   19.5020 N   0  0  0  0  0  0  0  0  0  0  0  0
  118.3569   57.6711   20.7317 C   0  0  0  0  0  0  0  0  0  0  0  0
  119.4100   58.2357   21.2748 N   0  0  0  0  0  0  0  0  0  0  0  0
  119.7932   59.1906   20.3451 C   0  0  0  0  0  0  0  0  0  0  0  0
  120.8430   60.1213   20.3267 C   0  0  0  0  0  0  0  0  0  0  0  0
  121.7451   60.2428   21.3071 N   0  0  0  0  0  0  0  0  0  0  0  0
  120.9420   60.9311   19.2505 N   0  0  0  0  0  0  0  0  0  0  0  0
  120.0467   60.8028   18.2666 C   0  0  0  0  0  0  0  0  0  0  0  0
  119.0191   59.9658   18.1674 N   0  0  0  0  0  0  0  0  0  0  0  0
  118.9453   59.1766   19.2513 C   0  0  0  0  0  0  0  0  0  0  0  0
  121.6911   59.6624   22.1004 H   0  0  0  0  0  0  0  0  0  0  0  0
  122.4629   60.9128   21.2352 H   0  0  0  0  0  0  0  0  0  0  0  0
  116.1455   54.5776   20.0651 C   0  0  0  0  0  0  0  0  0  0  0  0
  116.2074   53.2131   19.5982 O   0  0  0  0  0  0  0  0  0  0  0  0
  114.8809   52.4670   19.0070 P   0  0  0  0  0  0  0  0  0  0  0  0
  114.9226   52.6643   17.5051 O   0  0  0  0  0  0  0  0  0  0  0  0
  115.0061   51.0086   19.4077 O   0  0  0  0  0  0  0  0  0  0  0  0
  113.6816   53.1494   19.6466 O   0  0  0  0  0  0  0  0  0  0  0  0
  114.2379   50.5159   19.0790 H   0  0  0  0  0  0  0  0  0  0  0  0
  112.8650   52.7375   19.3236 H   0  0  0  0  0  0  0  0  0  0  0  0
 24 25  2  0  0  0
 24 26  1  0  0  0
 24 27  1  0  0  0
 24 23  1  0  0  0
 23 22  1  0  0  0
 22  1  1  0  0  0
  1  2  1  0  0  0
  1  3  1  0  0  0
  2  7  1  0  0  0
  3  4  1  0  0  0
  3  5  1  0  0  0
  5  6  1  0  0  0
  5  7  1  0  0  0
  7 10  1  0  0  0
 10 11  1  0  0  0
 10 19  1  0  0  0
 11 12  2  0  0  0
 12 13  1  0  0  0
 13 14  1  0  0  0
 13 19  2  0  0  0
 14 15  1  0  0  0
 14 16  2  0  0  0
 16 17  1  0  0  0
 17 18  2  0  0  0
 18 19  1  0  0  0
 26 28  1  0  0  0
 27 29  1  0  0  0
  4  8  1  0  0  0
  6  9  1  0  0  0
 15 20  1  0  0  0
 15 21  1  0  0  0
M  END
> <minimizedAffinity>
-6.31489

$$$$
