2Q8M_AMP_A_341
  RCSB PDB12061706453D
Coordinates from PDB:2Q8M:A:341 Model:1 without hydrogens
 23 25  0  0  0  0            999 V2000
  114.2750   58.8120   21.5190   P 0  0  0  0  0  0  0  0  0  0  0  0
  113.7420   59.8080   20.5090   O 0  0  0  0  0  0  0  0  0  0  0  0
  113.2740   57.7190   21.8450   O 0  0  0  0  0  0  0  0  0  0  0  0
  114.8280   59.4900   22.7630   O 0  0  0  0  0  0  0  0  0  0  0  0
  115.5370   58.0680   20.7980   O 0  0  0  0  0  0  0  0  0  0  0  0
  116.6740   58.8230   20.3280   C 0  0  0  0  0  0  0  0  0  0  0  0
  117.3150   58.1320   19.1420   C 0  0  0  0  0  0  0  0  0  0  0  0
  117.9040   56.8670   19.5580   O 0  0  0  0  0  0  0  0  0  0  0  0
  116.3680   57.7450   18.0180   C 0  0  0  0  0  0  0  0  0  0  0  0
  116.1330   58.8340   17.1370   O 0  0  0  0  0  0  0  0  0  0  0  0
  117.1570   56.6390   17.3340   C 0  0  0  0  0  0  0  0  0  0  0  0
  118.2330   57.1650   16.5820   O 0  0  0  0  0  0  0  0  0  0  0  0
  117.7000   55.8880   18.5490   C 0  0  0  0  0  0  0  0  0  0  0  0
  116.7240   54.9200   19.0510   N 0  0  0  0  0  0  0  0  0  0  0  0
  115.9210   55.0400   20.1590   C 0  0  0  0  0  0  0  0  0  0  0  0
  115.1170   54.0190   20.3430   N 0  0  0  0  0  0  0  0  0  0  0  0
  115.4150   53.1660   19.2910   C 0  0  0  0  0  0  0  0  0  0  0  0
  114.9050   51.9130   18.9190   C 0  0  0  0  0  0  0  0  0  0  0  0
  113.9380   51.2760   19.5890   N 0  0  0  0  0  0  0  0  0  0  0  0
  115.4230   51.3290   17.8170   N 0  0  0  0  0  0  0  0  0  0  0  0
  116.3820   51.9700   17.1420   C 0  0  0  0  0  0  0  0  0  0  0  0
  116.9410   53.1500   17.3900   N 0  0  0  0  0  0  0  0  0  0  0  0
  116.4080   53.7040   18.4910   C 0  0  0  0  0  0  0  0  0  0  0  0
  1  2  2  0  0  0  0
  1  3  1  0  0  0  0
  1  4  1  0  0  0  0
  1  5  1  0  0  0  0
  5  6  1  0  0  0  0
  6  7  1  0  0  0  0
  7  8  1  0  0  0  0
  7  9  1  0  0  0  0
  8 13  1  0  0  0  0
  9 10  1  0  0  0  0
  9 11  1  0  0  0  0
 11 12  1  0  0  0  0
 11 13  1  0  0  0  0
 13 14  1  0  0  0  0
 14 15  1  0  0  0  0
 14 23  1  0  0  0  0
 15 16  2  0  0  0  0
 16 17  1  0  0  0  0
 17 18  1  0  0  0  0
 17 23  2  0  0  0  0
 18 19  1  0  0  0  0
 18 20  2  0  0  0  0
 20 21  1  0  0  0  0
 21 22  2  0  0  0  0
 22 23  1  0  0  0  0
A    1
P
A    2
O1P
A    3
O2P
A    4
O3P
A    5
O5'
A    6
C5'
A    7
C4'
A    8
O4'
A    9
C3'
A   10
O3'
A   11
C2'
A   12
O2'
A   13
C1'
A   14
N9
A   15
C8
A   16
N7
A   17
C5
A   18
C6
A   19
N6
A   20
N1
A   21
C2
A   22
N3
A   23
C4
M  END
>  <InstanceId>
2Q8M_AMP_A_341

>  <ChemCompId>
AMP

>  <PdbId>
2Q8M

>  <ChainId>
A

>  <ResidueNumber>
341

>  <InsertionCode>


>  <Model>
1

>  <AltIds>


>  <MissingHeavyAtoms>
0

>  <ObservedFormula>
C10 N5 O7 P

>  <Name>
ADENOSINE MONOPHOSPHATE

>  <SystematicName>
[(2R,3S,4R,5R)-5-(6-aminopurin-9-yl)-3,4-bis(oxidanyl)oxolan-2-yl]methyl dihydrogen phosphate

>  <Synonyms>


>  <Type>
NON-POLYMER

>  <Formula>
C10 H14 N5 O7 P

>  <MolecularWeight>
347.221

>  <ModifiedDate>
2011-12-08

>  <Parent>


>  <OneLetterCode>


>  <SubcomponentList>


>  <AmbiguousFlag>
N

>  <InChI>
InChI=1S/C10H14N5O7P/c11-8-5-9(13-2-12-8)15(3-14-5)10-7(17)6(16)4(22-10)1-21-23(18,19)20/h2-4,6-7,10,16-17H,1H2,(H2,11,12,13)(H2,18,19,20)/t4-,6-,7-,10-/m1/s1

>  <InChIKey>
UDMBCSSLTHHNCD-KQYNXXCUSA-N

>  <SMILES>
c1nc(c2c(n1)n(cn2)[C@H]3[C@@H]([C@@H]([C@H](O3)COP(=O)(O)O)O)O)N

$$$$
