4UOF_DAT_A_1152
  RCSB PDB12061715173D
Coordinates from PDB:4UOF:A:1152 Model:1 without hydrogens
 26 28  0  0  0  0            999 V2000
    5.5510  -54.1320    5.5930   P 0  0  0  0  0  0  0  0  0  0  0  0
    5.0450  -52.6870    5.5680   O 0  0  0  0  0  0  0  0  0  0  0  0
    6.3270  -54.3740    6.9210   O 0  0  0  0  0  0  0  0  0  0  0  0
    4.4270  -55.1240    5.4410   O 0  0  0  0  0  0  0  0  0  0  0  0
    7.0940  -55.6930    3.9030   P 0  0  0  0  0  0  0  0  0  0  0  0
    6.0460  -56.7660    4.2170   O 0  0  0  0  0  0  0  0  0  0  0  0
    7.3340  -55.6860    2.4500   O 0  0  0  0  0  0  0  0  0  0  0  0
    6.5290  -54.3220    4.3500   O 0  0  0  0  0  0  0  0  0  0  0  0
    8.4250  -55.9590    4.6950   O 0  0  0  0  0  0  0  0  0  0  0  0
    8.3920  -56.6400    5.9380   C 0  0  0  0  0  0  0  0  0  0  0  0
    9.6100  -56.1500    6.7750   C 0  0  0  0  0  0  0  0  0  0  0  0
   10.7110  -56.2880    6.0880   O 0  0  0  0  0  0  0  0  0  0  0  0
    9.4980  -54.6340    6.9700   C 0  0  0  0  0  0  0  0  0  0  0  0
    8.6890  -54.3470    8.0340   O 0  0  0  0  0  0  0  0  0  0  0  0
   10.9600  -54.2080    7.1580   C 0  0  0  0  0  0  0  0  0  0  0  0
   11.6810  -55.1160    6.5140   C 0  0  0  0  0  0  0  0  0  0  0  0
   12.3110  -54.5710    5.3300   N 0  0  0  0  0  0  0  0  0  0  0  0
   11.3360  -54.3740    4.3830   C 0  0  0  0  0  0  0  0  0  0  0  0
   11.9060  -53.8510    3.2740   N 0  0  0  0  0  0  0  0  0  0  0  0
   13.2430  -53.7370    3.5130   C 0  0  0  0  0  0  0  0  0  0  0  0
   14.2630  -53.2750    2.7370   C 0  0  0  0  0  0  0  0  0  0  0  0
   14.2630  -52.7750    1.4060   N 0  0  0  0  0  0  0  0  0  0  0  0
   15.5160  -53.2570    3.2260   N 0  0  0  0  0  0  0  0  0  0  0  0
   15.7580  -53.7060    4.4950   C 0  0  0  0  0  0  0  0  0  0  0  0
   14.7360  -54.1600    5.2610   N 0  0  0  0  0  0  0  0  0  0  0  0
   13.4890  -54.1830    4.7830   C 0  0  0  0  0  0  0  0  0  0  0  0
  1  2  2  0  0  0  0
  1  3  1  0  0  0  0
  1  4  1  0  0  0  0
  1  8  1  0  0  0  0
  5  6  2  0  0  0  0
  5  7  1  0  0  0  0
  5  8  1  0  0  0  0
  5  9  1  0  0  0  0
  9 10  1  0  0  0  0
 10 11  1  0  0  0  0
 11 12  1  0  0  0  0
 11 13  1  0  0  0  0
 12 16  1  0  0  0  0
 13 14  1  0  0  0  0
 13 15  1  0  0  0  0
 15 16  1  0  0  0  0
 16 17  1  0  0  0  0
 17 18  1  0  0  0  0
 17 26  1  0  0  0  0
 18 19  2  0  0  0  0
 19 20  1  0  0  0  0
 20 21  1  0  0  0  0
 20 26  2  0  0  0  0
 21 22  1  0  0  0  0
 21 23  2  0  0  0  0
 23 24  1  0  0  0  0
 24 25  2  0  0  0  0
 25 26  1  0  0  0  0
A    1
PB
A    2
O1B
A    3
O2B
A    4
O3B
A    5
PA
A    6
O1A
A    7
O2A
A    8
O3A
A    9
O5'
A   10
C5'
A   11
C4'
A   12
O4'
A   13
C3'
A   14
O3'
A   15
C2'
A   16
C1'
A   17
N9
A   18
C8
A   19
N7
A   20
C5
A   21
C6
A   22
N6
A   23
N1
A   24
C2
A   25
N3
A   26
C4
M  END
>  <InstanceId>
4UOF_DAT_A_1152

>  <ChemCompId>
DAT

>  <PdbId>
4UOF

>  <ChainId>
A

>  <ResidueNumber>
1152

>  <InsertionCode>


>  <Model>
1

>  <AltIds>


>  <MissingHeavyAtoms>
0

>  <ObservedFormula>
C10 N5 O9 P2

>  <Name>
2'-DEOXYADENOSINE-5'-DIPHOSPHATE

>  <SystematicName>
[(2R,3S,5R)-5-(6-aminopurin-9-yl)-3-hydroxy-oxolan-2-yl]methyl phosphono hydrogen phosphate

>  <Synonyms>
DADP

>  <Type>
NON-POLYMER

>  <Formula>
C10 H15 N5 O9 P2

>  <MolecularWeight>
411.202

>  <ModifiedDate>
2011-06-04

>  <Parent>


>  <OneLetterCode>


>  <SubcomponentList>


>  <AmbiguousFlag>
N

>  <InChI>
InChI=1S/C10H15N5O9P2/c11-9-8-10(13-3-12-9)15(4-14-8)7-1-5(16)6(23-7)2-22-26(20,21)24-25(17,18)19/h3-7,16H,1-2H2,(H,20,21)(H2,11,12,13)(H2,17,18,19)/t5-,6+,7+/m0/s1

>  <InChIKey>
DAEAPNUQQAICNR-RRKCRQDMSA-N

>  <SMILES>
c1nc(c2c(n1)n(cn2)[C@H]3C[C@@H]([C@H](O3)CO[P@](=O)(O)OP(=O)(O)O)O)N

$$$$
