4HA5_13W_A_502


 25 27  0  0  0  0  0  0  0  0999 V2000
   25.3572   11.5340   19.8306 C   0  0  0  0  0  0  0  0  0  0  0  0
   24.4843   10.8372   20.7009 C   0  0  0  0  0  0  0  0  0  0  0  0
   23.1403   11.0463   20.3807 C   0  0  0  0  0  0  0  0  0  0  0  0
   22.9925   12.0825   19.0434 S   0  0  0  0  0  0  0  0  0  0  0  0
   24.6576   12.2670   18.8598 C   0  0  0  0  0  0  0  0  0  0  0  0
   21.9132   10.4634   21.0912 C   0  0  0  0  0  0  0  0  0  0  0  0
   21.0117   11.6245   21.5780 C   0  0  0  0  0  0  0  0  0  0  0  0
   21.5526   12.3059   22.8620 C   0  0  0  0  0  0  0  0  0  0  0  0
   22.3187   11.5064   23.7213 N   0  0  0  0  0  0  0  0  0  0  0  0
   22.5498   10.1539   23.5005 C   0  0  0  0  0  0  0  0  0  0  0  0
   22.3383    9.6336   22.2456 N   0  0  0  0  0  0  0  0  0  0  0  0
   22.9728    9.3508   24.4815 N   0  0  0  0  0  0  0  0  0  0  0  0
   21.1477    9.5484   20.1147 C   0  0  0  0  0  0  0  0  0  0  0  0
   22.8883   12.2055   24.9145 C   0  0  0  0  0  0  0  0  0  0  0  0
   21.3097   13.4912   23.0774 O   0  0  0  0  0  0  0  0  0  0  0  0
   22.4749    8.6686   22.1068 H   0  0  0  0  0  0  0  0  0  0  0  0
   23.1300    8.3956   24.3024 H   0  0  0  0  0  0  0  0  0  0  0  0
   29.1067   11.9170   19.0582 C   0  0  0  0  0  0  0  0  0  0  0  0
   29.6882   11.3946   20.2376 C   0  0  0  0  0  0  0  0  0  0  0  0
   28.8460   10.9232   21.2708 C   0  0  0  0  0  0  0  0  0  0  0  0
   27.4434   10.9694   21.1334 C   0  0  0  0  0  0  0  0  0  0  0  0
   26.8307   11.4883   19.9533 C   0  0  0  0  0  0  0  0  0  0  0  0
   27.6925   11.9666   18.9158 C   0  0  0  0  0  0  0  0  0  0  0  0
   29.4059   10.3860   22.4839 C   0  0  0  0  0  0  0  0  0  0  0  0
   29.8481    9.9239   23.4505 N   0  0  0  0  0  0  0  0  0  0  0  0
 18 23  2  0  0  0
 18 19  1  0  0  0
 23 22  1  0  0  0
  5  4  1  0  0  0
  5  1  2  0  0  0
  4  3  1  0  0  0
 19 20  2  0  0  0
 22  1  1  0  0  0
 22 21  2  0  0  0
  1  2  1  0  0  0
  3  2  2  0  0  0
  3  6  1  0  0  0
 13  6  1  0  0  0
 20 21  1  0  0  0
 20 24  1  0  0  0
  6  7  1  0  0  0
  6 11  1  0  0  0
 24 25  3  0  0  0
  7  8  1  0  0  0
 11 10  1  0  0  0
  8 15  2  0  0  0
  8  9  1  0  0  0
 10  9  1  0  0  0
 10 12  2  0  0  0
  9 14  1  0  0  0
 11 16  1  0  0  0
 12 17  1  0  0  0
M  END
> <minimizedAffinity>
-7.82281

$$$$
4HA5_13W_A_502


 25 27  0  0  0  0  0  0  0  0999 V2000
   20.7715   12.6045   22.5482 C   0  0  0  0  0  0  0  0  0  0  0  0
   19.9944   11.8836   23.4870 C   0  0  0  0  0  0  0  0  0  0  0  0
   19.5428   12.6932   24.5325 C   0  0  0  0  0  0  0  0  0  0  0  0
   20.0844   14.2907   24.3361 S   0  0  0  0  0  0  0  0  0  0  0  0
   20.9002   13.9569   22.8997 C   0  0  0  0  0  0  0  0  0  0  0  0
   18.6811   12.2731   25.7289 C   0  0  0  0  0  0  0  0  0  0  0  0
   18.7075   13.3992   26.7914 C   0  0  0  0  0  0  0  0  0  0  0  0
   20.0199   13.4135   27.6177 C   0  0  0  0  0  0  0  0  0  0  0  0
   20.6766   12.1850   27.7733 N   0  0  0  0  0  0  0  0  0  0  0  0
   20.1759   10.9852   27.2822 C   0  0  0  0  0  0  0  0  0  0  0  0
   19.2003   11.0121   26.3138 N   0  0  0  0  0  0  0  0  0  0  0  0
   20.6232    9.8086   27.7311 N   0  0  0  0  0  0  0  0  0  0  0  0
   17.2404   12.0072   25.2488 C   0  0  0  0  0  0  0  0  0  0  0  0
   21.9761   12.2384   28.5120 C   0  0  0  0  0  0  0  0  0  0  0  0
   20.4379   14.4688   28.0889 O   0  0  0  0  0  0  0  0  0  0  0  0
   18.8300   10.1576   25.9947 H   0  0  0  0  0  0  0  0  0  0  0  0
   20.2541    8.9709   27.3688 H   0  0  0  0  0  0  0  0  0  0  0  0
   21.8024   10.0181   19.8930 C   0  0  0  0  0  0  0  0  0  0  0  0
   22.5532   10.8198   19.0009 C   0  0  0  0  0  0  0  0  0  0  0  0
   22.7131   12.1967   19.2797 C   0  0  0  0  0  0  0  0  0  0  0  0
   22.1348   12.7697   20.4310 C   0  0  0  0  0  0  0  0  0  0  0  0
   21.3754   11.9836   21.3489 C   0  0  0  0  0  0  0  0  0  0  0  0
   21.2165   10.5921   21.0548 C   0  0  0  0  0  0  0  0  0  0  0  0
   23.4708   13.0401   18.3920 C   0  0  0  0  0  0  0  0  0  0  0  0
   24.0577   13.7419   17.6804 N   0  0  0  0  0  0  0  0  0  0  0  0
 18 23  2  0  0  0
 18 19  1  0  0  0
 23 22  1  0  0  0
  5  4  1  0  0  0
  5  1  2  0  0  0
  4  3  1  0  0  0
 19 20  2  0  0  0
 22  1  1  0  0  0
 22 21  2  0  0  0
  1  2  1  0  0  0
  3  2  2  0  0  0
  3  6  1  0  0  0
 13  6  1  0  0  0
 20 21  1  0  0  0
 20 24  1  0  0  0
  6  7  1  0  0  0
  6 11  1  0  0  0
 24 25  3  0  0  0
  7  8  1  0  0  0
 11 10  1  0  0  0
  8 15  2  0  0  0
  8  9  1  0  0  0
 10  9  1  0  0  0
 10 12  2  0  0  0
  9 14  1  0  0  0
 11 16  1  0  0  0
 12 17  1  0  0  0
M  END
> <minimizedAffinity>
-7.70732

$$$$
4HA5_13W_A_502


 25 27  0  0  0  0  0  0  0  0999 V2000
   21.4899   11.3736   21.3744 C   0  0  0  0  0  0  0  0  0  0  0  0
   21.4537   12.5253   22.1973 C   0  0  0  0  0  0  0  0  0  0  0  0
   20.4808   12.4314   23.1959 C   0  0  0  0  0  0  0  0  0  0  0  0
   19.6483   10.9550   23.0906 S   0  0  0  0  0  0  0  0  0  0  0  0
   20.5366   10.4196   21.7622 C   0  0  0  0  0  0  0  0  0  0  0  0
   20.1461   13.4735   24.2694 C   0  0  0  0  0  0  0  0  0  0  0  0
   21.3515   13.6140   25.2310 C   0  0  0  0  0  0  0  0  0  0  0  0
   21.4436   12.4498   26.2516 C   0  0  0  0  0  0  0  0  0  0  0  0
   20.2378   11.8289   26.6053 N   0  0  0  0  0  0  0  0  0  0  0  0
   18.9983   12.2477   26.1364 C   0  0  0  0  0  0  0  0  0  0  0  0
   18.9398   13.0567   25.0264 N   0  0  0  0  0  0  0  0  0  0  0  0
   17.8648   11.8801   26.7415 N   0  0  0  0  0  0  0  0  0  0  0  0
   19.8287   14.8199   23.5889 C   0  0  0  0  0  0  0  0  0  0  0  0
   20.3618   10.6635   27.5345 C   0  0  0  0  0  0  0  0  0  0  0  0
   22.5366   12.1098   26.6990 O   0  0  0  0  0  0  0  0  0  0  0  0
   18.0593   13.3733   24.7204 H   0  0  0  0  0  0  0  0  0  0  0  0
   16.9977   12.1887   26.3920 H   0  0  0  0  0  0  0  0  0  0  0  0
   23.7483    9.8068   18.6822 C   0  0  0  0  0  0  0  0  0  0  0  0
   24.2307   10.9597   18.0188 C   0  0  0  0  0  0  0  0  0  0  0  0
   23.8113   12.2355   18.4611 C   0  0  0  0  0  0  0  0  0  0  0  0
   22.9242   12.3641   19.5495 C   0  0  0  0  0  0  0  0  0  0  0  0
   22.4248   11.2182   20.2384 C   0  0  0  0  0  0  0  0  0  0  0  0
   22.8525    9.9319   19.7797 C   0  0  0  0  0  0  0  0  0  0  0  0
   24.2834   13.4286   17.8073 C   0  0  0  0  0  0  0  0  0  0  0  0
   24.6351   14.4033   17.2882 N   0  0  0  0  0  0  0  0  0  0  0  0
 18 23  2  0  0  0
 18 19  1  0  0  0
 23 22  1  0  0  0
  5  4  1  0  0  0
  5  1  2  0  0  0
  4  3  1  0  0  0
 19 20  2  0  0  0
 22  1  1  0  0  0
 22 21  2  0  0  0
  1  2  1  0  0  0
  3  2  2  0  0  0
  3  6  1  0  0  0
 13  6  1  0  0  0
 20 21  1  0  0  0
 20 24  1  0  0  0
  6  7  1  0  0  0
  6 11  1  0  0  0
 24 25  3  0  0  0
  7  8  1  0  0  0
 11 10  1  0  0  0
  8 15  2  0  0  0
  8  9  1  0  0  0
 10  9  1  0  0  0
 10 12  2  0  0  0
  9 14  1  0  0  0
 11 16  1  0  0  0
 12 17  1  0  0  0
M  END
> <minimizedAffinity>
-7.55189

$$$$
4HA5_13W_A_502


 25 27  0  0  0  0  0  0  0  0999 V2000
   20.3583   11.3440   23.1967 C   0  0  0  0  0  0  0  0  0  0  0  0
   21.0786   11.5603   24.3964 C   0  0  0  0  0  0  0  0  0  0  0  0
   20.2383   11.6465   25.5095 C   0  0  0  0  0  0  0  0  0  0  0  0
   18.6122   11.4681   25.0536 S   0  0  0  0  0  0  0  0  0  0  0  0
   18.9747   11.2718   23.4195 C   0  0  0  0  0  0  0  0  0  0  0  0
   20.6483   11.8748   26.9691 C   0  0  0  0  0  0  0  0  0  0  0  0
   19.7350   12.9619   27.5868 C   0  0  0  0  0  0  0  0  0  0  0  0
   20.1303   14.3966   27.1497 C   0  0  0  0  0  0  0  0  0  0  0  0
   21.4792   14.6060   26.8315 N   0  0  0  0  0  0  0  0  0  0  0  0
   22.4525   13.6212   26.9505 C   0  0  0  0  0  0  0  0  0  0  0  0
   22.0668   12.3046   27.0393 N   0  0  0  0  0  0  0  0  0  0  0  0
   23.7530   13.9278   26.9798 N   0  0  0  0  0  0  0  0  0  0  0  0
   20.5228   10.5487   27.7453 C   0  0  0  0  0  0  0  0  0  0  0  0
   21.8204   15.9783   26.3440 C   0  0  0  0  0  0  0  0  0  0  0  0
   19.2757   15.2775   27.0877 O   0  0  0  0  0  0  0  0  0  0  0  0
   22.7619   11.6170   27.1545 H   0  0  0  0  0  0  0  0  0  0  0  0
   24.4253   13.2136   27.0647 H   0  0  0  0  0  0  0  0  0  0  0  0
   21.6224    9.9008   19.8618 C   0  0  0  0  0  0  0  0  0  0  0  0
   22.2667   11.0273   19.2979 C   0  0  0  0  0  0  0  0  0  0  0  0
   22.2798   12.2451   20.0163 C   0  0  0  0  0  0  0  0  0  0  0  0
   21.6611   12.3420   21.2797 C   0  0  0  0  0  0  0  0  0  0  0  0
   21.0070   11.2207   21.8729 C   0  0  0  0  0  0  0  0  0  0  0  0
   20.9961    9.9944   21.1352 C   0  0  0  0  0  0  0  0  0  0  0  0
   22.9265   13.4101   19.4703 C   0  0  0  0  0  0  0  0  0  0  0  0
   23.4530   14.3311   19.0036 N   0  0  0  0  0  0  0  0  0  0  0  0
 18 23  2  0  0  0
 18 19  1  0  0  0
 23 22  1  0  0  0
  5  4  1  0  0  0
  5  1  2  0  0  0
  4  3  1  0  0  0
 19 20  2  0  0  0
 22  1  1  0  0  0
 22 21  2  0  0  0
  1  2  1  0  0  0
  3  2  2  0  0  0
  3  6  1  0  0  0
 13  6  1  0  0  0
 20 21  1  0  0  0
 20 24  1  0  0  0
  6  7  1  0  0  0
  6 11  1  0  0  0
 24 25  3  0  0  0
  7  8  1  0  0  0
 11 10  1  0  0  0
  8 15  2  0  0  0
  8  9  1  0  0  0
 10  9  1  0  0  0
 10 12  2  0  0  0
  9 14  1  0  0  0
 11 16  1  0  0  0
 12 17  1  0  0  0
M  END
> <minimizedAffinity>
-7.47724

$$$$
4HA5_13W_A_502


 25 27  0  0  0  0  0  0  0  0999 V2000
   20.8460   12.4092   22.8990 C   0  0  0  0  0  0  0  0  0  0  0  0
   21.6486   13.3180   23.6301 C   0  0  0  0  0  0  0  0  0  0  0  0
   21.0012   13.7940   24.7733 C   0  0  0  0  0  0  0  0  0  0  0  0
   19.4464   13.1247   24.9092 S   0  0  0  0  0  0  0  0  0  0  0  0
   19.5940   12.2108   23.5010 C   0  0  0  0  0  0  0  0  0  0  0  0
   21.5472   14.7866   25.8063 C   0  0  0  0  0  0  0  0  0  0  0  0
   22.6432   14.0885   26.6483 C   0  0  0  0  0  0  0  0  0  0  0  0
   22.0577   13.1392   27.7262 C   0  0  0  0  0  0  0  0  0  0  0  0
   20.7865   13.4607   28.2214 N   0  0  0  0  0  0  0  0  0  0  0  0
   20.0837   14.5967   27.8380 C   0  0  0  0  0  0  0  0  0  0  0  0
   20.4521   15.2574   26.6900 N   0  0  0  0  0  0  0  0  0  0  0  0
   19.0591   15.0584   28.5613 N   0  0  0  0  0  0  0  0  0  0  0  0
   22.1195   16.0173   25.0751 C   0  0  0  0  0  0  0  0  0  0  0  0
   20.2145   12.4906   29.2057 C   0  0  0  0  0  0  0  0  0  0  0  0
   22.7002   12.1591   28.0962 O   0  0  0  0  0  0  0  0  0  0  0  0
   19.9682   16.0785   26.4434 H   0  0  0  0  0  0  0  0  0  0  0  0
   18.5755   15.8652   28.2707 H   0  0  0  0  0  0  0  0  0  0  0  0
   21.3955    9.8062   20.1196 C   0  0  0  0  0  0  0  0  0  0  0  0
   22.1623   10.5490   19.1908 C   0  0  0  0  0  0  0  0  0  0  0  0
   22.4903   11.8923   19.4860 C   0  0  0  0  0  0  0  0  0  0  0  0
   22.0624   12.4898   20.6894 C   0  0  0  0  0  0  0  0  0  0  0  0
   21.2907   11.7627   21.6448 C   0  0  0  0  0  0  0  0  0  0  0  0
   20.9609   10.4053   21.3340 C   0  0  0  0  0  0  0  0  0  0  0  0
   23.2688   12.6757   18.5620 C   0  0  0  0  0  0  0  0  0  0  0  0
   23.8683   13.3121   17.8011 N   0  0  0  0  0  0  0  0  0  0  0  0
 18 23  2  0  0  0
 18 19  1  0  0  0
 23 22  1  0  0  0
  5  4  1  0  0  0
  5  1  2  0  0  0
  4  3  1  0  0  0
 19 20  2  0  0  0
 22  1  1  0  0  0
 22 21  2  0  0  0
  1  2  1  0  0  0
  3  2  2  0  0  0
  3  6  1  0  0  0
 13  6  1  0  0  0
 20 21  1  0  0  0
 20 24  1  0  0  0
  6  7  1  0  0  0
  6 11  1  0  0  0
 24 25  3  0  0  0
  7  8  1  0  0  0
 11 10  1  0  0  0
  8 15  2  0  0  0
  8  9  1  0  0  0
 10  9  1  0  0  0
 10 12  2  0  0  0
  9 14  1  0  0  0
 11 16  1  0  0  0
 12 17  1  0  0  0
M  END
> <minimizedAffinity>
-7.44649

$$$$
4HA5_13W_A_502


 25 27  0  0  0  0  0  0  0  0999 V2000
   23.2523   12.2468   20.2249 C   0  0  0  0  0  0  0  0  0  0  0  0
   24.5435   12.6946   20.5953 C   0  0  0  0  0  0  0  0  0  0  0  0
   25.4372   12.6785   19.5212 C   0  0  0  0  0  0  0  0  0  0  0  0
   24.6762   12.1156   18.1113 S   0  0  0  0  0  0  0  0  0  0  0  0
   23.1871   11.8933   18.8684 C   0  0  0  0  0  0  0  0  0  0  0  0
   26.9141   13.0894   19.5338 C   0  0  0  0  0  0  0  0  0  0  0  0
   27.7173   12.1167   18.6358 C   0  0  0  0  0  0  0  0  0  0  0  0
   27.9904   10.7533   19.3228 C   0  0  0  0  0  0  0  0  0  0  0  0
   28.0688   10.7606   20.7222 N   0  0  0  0  0  0  0  0  0  0  0  0
   27.9757   11.9185   21.4851 C   0  0  0  0  0  0  0  0  0  0  0  0
   27.4421   13.0526   20.9200 N   0  0  0  0  0  0  0  0  0  0  0  0
   28.3932   11.9513   22.7543 N   0  0  0  0  0  0  0  0  0  0  0  0
   27.0425   14.5384   19.0231 C   0  0  0  0  0  0  0  0  0  0  0  0
   28.2605    9.4230   21.3635 C   0  0  0  0  0  0  0  0  0  0  0  0
   28.1165    9.7371   18.6432 O   0  0  0  0  0  0  0  0  0  0  0  0
   27.4090   13.8761   21.4585 H   0  0  0  0  0  0  0  0  0  0  0  0
   28.3175   12.7828   23.2760 H   0  0  0  0  0  0  0  0  0  0  0  0
   20.3742   10.8640   22.3713 C   0  0  0  0  0  0  0  0  0  0  0  0
   19.9365   12.0338   23.0362 C   0  0  0  0  0  0  0  0  0  0  0  0
   20.5885   13.2606   22.7735 C   0  0  0  0  0  0  0  0  0  0  0  0
   21.6615   13.3244   21.8608 C   0  0  0  0  0  0  0  0  0  0  0  0
   22.1210   12.1605   21.1742 C   0  0  0  0  0  0  0  0  0  0  0  0
   21.4568   10.9235   21.4508 C   0  0  0  0  0  0  0  0  0  0  0  0
   20.1678   14.4692   23.4338 C   0  0  0  0  0  0  0  0  0  0  0  0
   19.8498   15.4588   23.9465 N   0  0  0  0  0  0  0  0  0  0  0  0
 18 23  2  0  0  0
 18 19  1  0  0  0
 23 22  1  0  0  0
  5  4  1  0  0  0
  5  1  2  0  0  0
  4  3  1  0  0  0
 19 20  2  0  0  0
 22  1  1  0  0  0
 22 21  2  0  0  0
  1  2  1  0  0  0
  3  2  2  0  0  0
  3  6  1  0  0  0
 13  6  1  0  0  0
 20 21  1  0  0  0
 20 24  1  0  0  0
  6  7  1  0  0  0
  6 11  1  0  0  0
 24 25  3  0  0  0
  7  8  1  0  0  0
 11 10  1  0  0  0
  8 15  2  0  0  0
  8  9  1  0  0  0
 10  9  1  0  0  0
 10 12  2  0  0  0
  9 14  1  0  0  0
 11 16  1  0  0  0
 12 17  1  0  0  0
M  END
> <minimizedAffinity>
-7.42730

$$$$
4HA5_13W_A_502


 25 27  0  0  0  0  0  0  0  0999 V2000
   21.6602   10.9993   20.8995 C   0  0  0  0  0  0  0  0  0  0  0  0
   21.4480   12.0406   21.8352 C   0  0  0  0  0  0  0  0  0  0  0  0
   20.4513   11.7239   22.7620 C   0  0  0  0  0  0  0  0  0  0  0  0
   19.8104   10.1813   22.4557 S   0  0  0  0  0  0  0  0  0  0  0  0
   20.8144    9.9037   21.1308 C   0  0  0  0  0  0  0  0  0  0  0  0
   19.9456   12.5944   23.9182 C   0  0  0  0  0  0  0  0  0  0  0  0
   20.3323   14.0691   23.6475 C   0  0  0  0  0  0  0  0  0  0  0  0
   21.8247   14.3631   23.9505 C   0  0  0  0  0  0  0  0  0  0  0  0
   22.4335   13.5694   24.9324 N   0  0  0  0  0  0  0  0  0  0  0  0
   21.7518   12.6033   25.6626 C   0  0  0  0  0  0  0  0  0  0  0  0
   20.5435   12.1404   25.1980 N   0  0  0  0  0  0  0  0  0  0  0  0
   22.2466   12.1161   26.8045 N   0  0  0  0  0  0  0  0  0  0  0  0
   18.4160   12.4426   24.0370 C   0  0  0  0  0  0  0  0  0  0  0  0
   23.8906   13.8243   25.1542 C   0  0  0  0  0  0  0  0  0  0  0  0
   22.4140   15.2482   23.3344 O   0  0  0  0  0  0  0  0  0  0  0  0
   20.0536   11.4788   25.7381 H   0  0  0  0  0  0  0  0  0  0  0  0
   21.7463   11.4319   27.3054 H   0  0  0  0  0  0  0  0  0  0  0  0
   24.1875   10.0134   18.1713 C   0  0  0  0  0  0  0  0  0  0  0  0
   24.5751   11.2824   17.6799 C   0  0  0  0  0  0  0  0  0  0  0  0
   24.0049   12.4449   18.2478 C   0  0  0  0  0  0  0  0  0  0  0  0
   23.0618   12.3477   19.2916 C   0  0  0  0  0  0  0  0  0  0  0  0
   22.6555   11.0807   19.8081 C   0  0  0  0  0  0  0  0  0  0  0  0
   23.2358    9.9107   19.2232 C   0  0  0  0  0  0  0  0  0  0  0  0
   24.3776   13.7513   17.7702 C   0  0  0  0  0  0  0  0  0  0  0  0
   24.6738   14.7922   17.3553 N   0  0  0  0  0  0  0  0  0  0  0  0
 18 23  2  0  0  0
 18 19  1  0  0  0
 23 22  1  0  0  0
  5  4  1  0  0  0
  5  1  2  0  0  0
  4  3  1  0  0  0
 19 20  2  0  0  0
 22  1  1  0  0  0
 22 21  2  0  0  0
  1  2  1  0  0  0
  3  2  2  0  0  0
  3  6  1  0  0  0
 13  6  1  0  0  0
 20 21  1  0  0  0
 20 24  1  0  0  0
  6  7  1  0  0  0
  6 11  1  0  0  0
 24 25  3  0  0  0
  7  8  1  0  0  0
 11 10  1  0  0  0
  8 15  2  0  0  0
  8  9  1  0  0  0
 10  9  1  0  0  0
 10 12  2  0  0  0
  9 14  1  0  0  0
 11 16  1  0  0  0
 12 17  1  0  0  0
M  END
> <minimizedAffinity>
-7.30803

$$$$
4HA5_13W_A_502


 25 27  0  0  0  0  0  0  0  0999 V2000
   21.4900   11.9847   21.3478 C   0  0  0  0  0  0  0  0  0  0  0  0
   20.7010   12.5168   22.3963 C   0  0  0  0  0  0  0  0  0  0  0  0
   19.9637   11.5301   23.0563 C   0  0  0  0  0  0  0  0  0  0  0  0
   20.2535   10.0023   22.3740 S   0  0  0  0  0  0  0  0  0  0  0  0
   21.3359   10.5952   21.2264 C   0  0  0  0  0  0  0  0  0  0  0  0
   19.0018   11.7199   24.2349 C   0  0  0  0  0  0  0  0  0  0  0  0
   19.0888   13.1852   24.7277 C   0  0  0  0  0  0  0  0  0  0  0  0
   20.3507   13.4547   25.5882 C   0  0  0  0  0  0  0  0  0  0  0  0
   20.8678   12.3646   26.3016 N   0  0  0  0  0  0  0  0  0  0  0  0
   20.2723   11.1090   26.3129 C   0  0  0  0  0  0  0  0  0  0  0  0
   19.3566   10.7925   25.3374 N   0  0  0  0  0  0  0  0  0  0  0  0
   20.5715   10.2051   27.2508 N   0  0  0  0  0  0  0  0  0  0  0  0
   17.5684   11.3793   23.7807 C   0  0  0  0  0  0  0  0  0  0  0  0
   22.1255   12.6331   27.0655 C   0  0  0  0  0  0  0  0  0  0  0  0
   20.8502   14.5773   25.6117 O   0  0  0  0  0  0  0  0  0  0  0  0
   18.9172    9.9121   25.3719 H   0  0  0  0  0  0  0  0  0  0  0  0
   20.1372    9.3217   27.2393 H   0  0  0  0  0  0  0  0  0  0  0  0
   23.4891   13.2720   18.3231 C   0  0  0  0  0  0  0  0  0  0  0  0
   24.0458   14.4637   18.8446 C   0  0  0  0  0  0  0  0  0  0  0  0
   23.7605   14.8309   20.1799 C   0  0  0  0  0  0  0  0  0  0  0  0
   22.9328   14.0235   20.9871 C   0  0  0  0  0  0  0  0  0  0  0  0
   22.3608   12.8152   20.4872 C   0  0  0  0  0  0  0  0  0  0  0  0
   22.6529   12.4553   19.1333 C   0  0  0  0  0  0  0  0  0  0  0  0
   24.3109   16.0375   20.7409 C   0  0  0  0  0  0  0  0  0  0  0  0
   24.7468   17.0243   21.1646 N   0  0  0  0  0  0  0  0  0  0  0  0
 18 23  2  0  0  0
 18 19  1  0  0  0
 23 22  1  0  0  0
  5  4  1  0  0  0
  5  1  2  0  0  0
  4  3  1  0  0  0
 19 20  2  0  0  0
 22  1  1  0  0  0
 22 21  2  0  0  0
  1  2  1  0  0  0
  3  2  2  0  0  0
  3  6  1  0  0  0
 13  6  1  0  0  0
 20 21  1  0  0  0
 20 24  1  0  0  0
  6  7  1  0  0  0
  6 11  1  0  0  0
 24 25  3  0  0  0
  7  8  1  0  0  0
 11 10  1  0  0  0
  8 15  2  0  0  0
  8  9  1  0  0  0
 10  9  1  0  0  0
 10 12  2  0  0  0
  9 14  1  0  0  0
 11 16  1  0  0  0
 12 17  1  0  0  0
M  END
> <minimizedAffinity>
-7.14102

$$$$
4HA5_13W_A_502


 25 27  0  0  0  0  0  0  0  0999 V2000
   21.8421   11.0711   21.9016 C   0  0  0  0  0  0  0  0  0  0  0  0
   22.2789   11.6280   20.6752 C   0  0  0  0  0  0  0  0  0  0  0  0
   23.4997   11.0926   20.2563 C   0  0  0  0  0  0  0  0  0  0  0  0
   24.0683    9.9428   21.3692 S   0  0  0  0  0  0  0  0  0  0  0  0
   22.7451   10.1184   22.3980 C   0  0  0  0  0  0  0  0  0  0  0  0
   24.2835   11.4453   18.9868 C   0  0  0  0  0  0  0  0  0  0  0  0
   25.7040   11.9165   19.3839 C   0  0  0  0  0  0  0  0  0  0  0  0
   25.7253   13.3723   19.9184 C   0  0  0  0  0  0  0  0  0  0  0  0
   24.7297   14.2326   19.4354 N   0  0  0  0  0  0  0  0  0  0  0  0
   23.7944   13.8555   18.4792 C   0  0  0  0  0  0  0  0  0  0  0  0
   23.5845   12.5184   18.2373 N   0  0  0  0  0  0  0  0  0  0  0  0
   23.0963   14.7646   17.7919 N   0  0  0  0  0  0  0  0  0  0  0  0
   24.3535   10.2061   18.0723 C   0  0  0  0  0  0  0  0  0  0  0  0
   24.7284   15.6090   20.0206 C   0  0  0  0  0  0  0  0  0  0  0  0
   26.5809   13.7161   20.7310 O   0  0  0  0  0  0  0  0  0  0  0  0
   22.9425   12.2618   17.5364 H   0  0  0  0  0  0  0  0  0  0  0  0
   22.4386   14.4746   17.1191 H   0  0  0  0  0  0  0  0  0  0  0  0
   18.3595   10.9212   23.5298 C   0  0  0  0  0  0  0  0  0  0  0  0
   18.1573   12.2774   23.8791 C   0  0  0  0  0  0  0  0  0  0  0  0
   19.1632   13.2241   23.5770 C   0  0  0  0  0  0  0  0  0  0  0  0
   20.3547   12.8282   22.9351 C   0  0  0  0  0  0  0  0  0  0  0  0
   20.5829   11.4677   22.5691 C   0  0  0  0  0  0  0  0  0  0  0  0
   19.5601   10.5174   22.8833 C   0  0  0  0  0  0  0  0  0  0  0  0
   18.9888   14.6119   23.9194 C   0  0  0  0  0  0  0  0  0  0  0  0
   18.8166   15.7234   24.1993 N   0  0  0  0  0  0  0  0  0  0  0  0
 18 23  2  0  0  0
 18 19  1  0  0  0
 23 22  1  0  0  0
  5  4  1  0  0  0
  5  1  2  0  0  0
  4  3  1  0  0  0
 19 20  2  0  0  0
 22  1  1  0  0  0
 22 21  2  0  0  0
  1  2  1  0  0  0
  3  2  2  0  0  0
  3  6  1  0  0  0
 13  6  1  0  0  0
 20 21  1  0  0  0
 20 24  1  0  0  0
  6  7  1  0  0  0
  6 11  1  0  0  0
 24 25  3  0  0  0
  7  8  1  0  0  0
 11 10  1  0  0  0
  8 15  2  0  0  0
  8  9  1  0  0  0
 10  9  1  0  0  0
 10 12  2  0  0  0
  9 14  1  0  0  0
 11 16  1  0  0  0
 12 17  1  0  0  0
M  END
> <minimizedAffinity>
-7.10944

$$$$
4HA5_13W_A_502


 25 27  0  0  0  0  0  0  0  0999 V2000
   22.8269   11.5733   21.2592 C   0  0  0  0  0  0  0  0  0  0  0  0
   21.5456   11.8824   21.7766 C   0  0  0  0  0  0  0  0  0  0  0  0
   21.2389   11.1302   22.9136 C   0  0  0  0  0  0  0  0  0  0  0  0
   22.5132   10.0772   23.3025 S   0  0  0  0  0  0  0  0  0  0  0  0
   23.4747   10.5839   22.0146 C   0  0  0  0  0  0  0  0  0  0  0  0
   19.9525   11.1847   23.7459 C   0  0  0  0  0  0  0  0  0  0  0  0
   19.6303   12.6613   24.0827 C   0  0  0  0  0  0  0  0  0  0  0  0
   20.5116   13.2209   25.2297 C   0  0  0  0  0  0  0  0  0  0  0  0
   20.9764   12.2940   26.1729 N   0  0  0  0  0  0  0  0  0  0  0  0
   20.6346   10.9471   26.1509 C   0  0  0  0  0  0  0  0  0  0  0  0
   20.1208   10.4046   24.9968 N   0  0  0  0  0  0  0  0  0  0  0  0
   20.7955   10.1705   27.2266 N   0  0  0  0  0  0  0  0  0  0  0  0
   18.8021   10.5422   22.9455 C   0  0  0  0  0  0  0  0  0  0  0  0
   21.8826   12.8468   27.2266 C   0  0  0  0  0  0  0  0  0  0  0  0
   20.7763   14.4203   25.2721 O   0  0  0  0  0  0  0  0  0  0  0  0
   19.8528    9.4573   25.0006 H   0  0  0  0  0  0  0  0  0  0  0  0
   20.5465    9.2188   27.1883 H   0  0  0  0  0  0  0  0  0  0  0  0
   23.1748   13.6832   18.0608 C   0  0  0  0  0  0  0  0  0  0  0  0
   24.5368   13.4760   17.7380 C   0  0  0  0  0  0  0  0  0  0  0  0
   25.3242   12.6480   18.5708 C   0  0  0  0  0  0  0  0  0  0  0  0
   24.7650   12.0329   19.7098 C   0  0  0  0  0  0  0  0  0  0  0  0
   23.3936   12.2225   20.0567 C   0  0  0  0  0  0  0  0  0  0  0  0
   22.6070   13.0657   19.2093 C   0  0  0  0  0  0  0  0  0  0  0  0
   26.7135   12.4171   18.2704 C   0  0  0  0  0  0  0  0  0  0  0  0
   27.8255   12.1993   18.0267 N   0  0  0  0  0  0  0  0  0  0  0  0
 18 23  2  0  0  0
 18 19  1  0  0  0
 23 22  1  0  0  0
  5  4  1  0  0  0
  5  1  2  0  0  0
  4  3  1  0  0  0
 19 20  2  0  0  0
 22  1  1  0  0  0
 22 21  2  0  0  0
  1  2  1  0  0  0
  3  2  2  0  0  0
  3  6  1  0  0  0
 13  6  1  0  0  0
 20 21  1  0  0  0
 20 24  1  0  0  0
  6  7  1  0  0  0
  6 11  1  0  0  0
 24 25  3  0  0  0
  7  8  1  0  0  0
 11 10  1  0  0  0
  8 15  2  0  0  0
  8  9  1  0  0  0
 10  9  1  0  0  0
 10 12  2  0  0  0
  9 14  1  0  0  0
 11 16  1  0  0  0
 12 17  1  0  0  0
M  END
> <minimizedAffinity>
-6.98172

$$$$
