3NEX_G24_A_126


 30 32  0  0  0  0  0  0  0  0999 V2000
   -0.3882   -0.9916    7.5716 C   0  0  0  0  0  0  0  0  0  0  0  0
   -0.7765   -0.3419    6.4236 C   0  0  0  0  0  0  0  0  0  0  0  0
    0.7727   -1.7491    7.5646 C   0  0  0  0  0  0  0  0  0  0  0  0
    1.1079   -2.3652    8.7231 O   0  0  0  0  0  0  0  0  0  0  0  0
    1.5361   -1.8529    6.3960 C   0  0  0  0  0  0  0  0  0  0  0  0
    1.1179   -1.1968    5.2261 C   0  0  0  0  0  0  0  0  0  0  0  0
   -0.0478   -0.4276    5.2625 C   0  0  0  0  0  0  0  0  0  0  0  0
    0.5651   -2.2663    9.4805 H   0  0  0  0  0  0  0  0  0  0  0  0
   -1.2577   -0.8232    8.8162 C   0  0  0  0  0  0  0  0  0  0  0  0
   -0.1883    0.0473   10.9230 C   0  0  0  0  0  0  0  0  0  0  0  0
    0.3187    1.0936   11.6651 C   0  0  0  0  0  0  0  0  0  0  0  0
    0.3606    2.3786   11.1372 C   0  0  0  0  0  0  0  0  0  0  0  0
   -0.1327    2.6623    9.8776 C   0  0  0  0  0  0  0  0  0  0  0  0
   -0.6558    1.6168    9.1312 C   0  0  0  0  0  0  0  0  0  0  0  0
   -0.6841    0.3242    9.6549 C   0  0  0  0  0  0  0  0  0  0  0  0
   -0.6403    0.3529    4.1003 C   0  0  0  0  0  0  0  0  0  0  0  0
   -0.2259   -0.0661    2.6843 C   0  0  0  0  0  0  0  0  0  0  0  0
   -0.7031   -1.2170    2.0642 C   0  0  0  0  0  0  0  0  0  0  0  0
   -1.6467   -2.1597    2.8099 C   0  0  0  0  0  0  0  0  0  0  0  0
   -0.3232   -1.5479    0.7672 C   0  0  0  0  0  0  0  0  0  0  0  0
    0.6125    0.7587    1.9444 C   0  0  0  0  0  0  0  0  0  0  0  0
    1.1440    2.0391    2.5798 C   0  0  0  0  0  0  0  0  0  0  0  0
    1.0005    0.4505    0.6454 C   0  0  0  0  0  0  0  0  0  0  0  0
    0.5319   -0.7136    0.0541 C   0  0  0  0  0  0  0  0  0  0  0  0
    0.9202   -1.0323   -1.2166 O   0  0  0  0  0  0  0  0  0  0  0  0
   -0.2047   -1.0332   -2.1363 C   0  0  0  0  0  0  0  0  0  0  0  0
   -0.9709    0.2988   -2.2513 C   0  0  0  0  0  0  0  0  0  0  0  0
   -0.3979    1.2860   -2.7659 O   0  0  0  0  0  0  0  0  0  0  0  0
   -2.1308    0.3518   -1.7862 O   0  0  0  0  0  0  0  0  0  0  0  0
    0.4725    1.1998   -3.1019 H   0  0  0  0  0  0  0  0  0  0  0  0
 10 11  2  0  0  0
 10 15  1  0  0  0
 11 12  1  0  0  0
 12 13  2  0  0  0
 13 14  1  0  0  0
 14 15  2  0  0  0
 15  9  1  0  0  0
  9  1  1  0  0  0
  1  2  2  0  0  0
  1  3  1  0  0  0
  2  7  1  0  0  0
  3  4  1  0  0  0
  3  5  2  0  0  0
  5  6  1  0  0  0
  6  7  2  0  0  0
  7 16  1  0  0  0
 16 17  1  0  0  0
 17 18  2  0  0  0
 17 21  1  0  0  0
 18 19  1  0  0  0
 18 20  1  0  0  0
 20 24  2  0  0  0
 21 22  1  0  0  0
 21 23  2  0  0  0
 23 24  1  0  0  0
 24 25  1  0  0  0
 25 26  1  0  0  0
 26 27  1  0  0  0
 27 28  1  0  0  0
 27 29  2  0  0  0
  4  8  1  0  0  0
 28 30  1  0  0  0
M  END
> <minimizedAffinity>
-9.02456

$$$$
3NEX_G24_A_126


 30 32  0  0  0  0  0  0  0  0999 V2000
    0.4218    0.9660    7.6219 C   0  0  0  0  0  0  0  0  0  0  0  0
    0.8371    0.3431    6.4685 C   0  0  0  0  0  0  0  0  0  0  0  0
   -0.7568    1.6956    7.6140 C   0  0  0  0  0  0  0  0  0  0  0  0
   -1.1184    2.2861    8.7780 O   0  0  0  0  0  0  0  0  0  0  0  0
   -1.5108    1.7986    6.4392 C   0  0  0  0  0  0  0  0  0  0  0  0
   -1.0652    1.1703    5.2642 C   0  0  0  0  0  0  0  0  0  0  0  0
    0.1182    0.4288    5.3014 C   0  0  0  0  0  0  0  0  0  0  0  0
   -0.5810    2.1889    9.5393 H   0  0  0  0  0  0  0  0  0  0  0  0
    1.2826    0.7999    8.8729 C   0  0  0  0  0  0  0  0  0  0  0  0
    0.2290   -0.0718   10.9871 C   0  0  0  0  0  0  0  0  0  0  0  0
   -0.2840   -1.1163   11.7275 C   0  0  0  0  0  0  0  0  0  0  0  0
   -0.3537   -2.3959   11.1896 C   0  0  0  0  0  0  0  0  0  0  0  0
    0.1174   -2.6765    9.9208 C   0  0  0  0  0  0  0  0  0  0  0  0
    0.6466   -1.6330    9.1759 C   0  0  0  0  0  0  0  0  0  0  0  0
    0.7027   -0.3456    9.7100 C   0  0  0  0  0  0  0  0  0  0  0  0
    0.7409   -0.3199    4.1340 C   0  0  0  0  0  0  0  0  0  0  0  0
    0.3009    0.0836    2.7212 C   0  0  0  0  0  0  0  0  0  0  0  0
    0.7797    1.2185    2.0733 C   0  0  0  0  0  0  0  0  0  0  0  0
    1.7523    2.1590    2.7837 C   0  0  0  0  0  0  0  0  0  0  0  0
    0.3757    1.5352    0.7801 C   0  0  0  0  0  0  0  0  0  0  0  0
   -0.5647   -0.7404    2.0125 C   0  0  0  0  0  0  0  0  0  0  0  0
   -1.0993   -2.0038    2.6789 C   0  0  0  0  0  0  0  0  0  0  0  0
   -0.9774   -0.4463    0.7179 C   0  0  0  0  0  0  0  0  0  0  0  0
   -0.5062    0.7022    0.0988 C   0  0  0  0  0  0  0  0  0  0  0  0
   -0.9183    1.0073   -1.1678 O   0  0  0  0  0  0  0  0  0  0  0  0
    0.1914    1.0121   -2.1057 C   0  0  0  0  0  0  0  0  0  0  0  0
    0.9768   -0.3093   -2.2138 C   0  0  0  0  0  0  0  0  0  0  0  0
    2.1428   -0.3610   -1.7607 O   0  0  0  0  0  0  0  0  0  0  0  0
    0.4276   -1.2740   -2.7902 O   0  0  0  0  0  0  0  0  0  0  0  0
    2.5139    0.3872   -1.3359 H   0  0  0  0  0  0  0  0  0  0  0  0
 10 11  2  0  0  0
 10 15  1  0  0  0
 11 12  1  0  0  0
 12 13  2  0  0  0
 13 14  1  0  0  0
 14 15  2  0  0  0
 15  9  1  0  0  0
  9  1  1  0  0  0
  1  2  2  0  0  0
  1  3  1  0  0  0
  2  7  1  0  0  0
  3  4  1  0  0  0
  3  5  2  0  0  0
  5  6  1  0  0  0
  6  7  2  0  0  0
  7 16  1  0  0  0
 16 17  1  0  0  0
 17 18  2  0  0  0
 17 21  1  0  0  0
 18 19  1  0  0  0
 18 20  1  0  0  0
 20 24  2  0  0  0
 21 22  1  0  0  0
 21 23  2  0  0  0
 23 24  1  0  0  0
 24 25  1  0  0  0
 25 26  1  0  0  0
 26 27  1  0  0  0
 27 28  1  0  0  0
 27 29  2  0  0  0
  4  8  1  0  0  0
 28 30  1  0  0  0
M  END
> <minimizedAffinity>
-9.01053

$$$$
3NEX_G24_A_126


 30 32  0  0  0  0  0  0  0  0999 V2000
    0.4964    0.8798    7.3934 C   0  0  0  0  0  0  0  0  0  0  0  0
    0.8730    0.2899    6.2099 C   0  0  0  0  0  0  0  0  0  0  0  0
   -0.6870    1.5996    7.4480 C   0  0  0  0  0  0  0  0  0  0  0  0
   -1.0093    2.1573    8.6394 O   0  0  0  0  0  0  0  0  0  0  0  0
   -1.4850    1.7260    6.3050 C   0  0  0  0  0  0  0  0  0  0  0  0
   -1.0790    1.1315    5.0985 C   0  0  0  0  0  0  0  0  0  0  0  0
    0.1104    0.3991    5.0728 C   0  0  0  0  0  0  0  0  0  0  0  0
   -0.4431    2.0453    9.3776 H   0  0  0  0  0  0  0  0  0  0  0  0
    1.4045    0.6892    8.6070 C   0  0  0  0  0  0  0  0  0  0  0  0
    0.3673   -0.0510   10.7787 C   0  0  0  0  0  0  0  0  0  0  0  0
   -0.1743   -1.0413   11.5714 C   0  0  0  0  0  0  0  0  0  0  0  0
   -0.3176   -2.3355   11.0855 C   0  0  0  0  0  0  0  0  0  0  0  0
    0.1064   -2.6858    9.8174 C   0  0  0  0  0  0  0  0  0  0  0  0
    0.6639   -1.6976    9.0198 C   0  0  0  0  0  0  0  0  0  0  0  0
    0.7940   -0.3950    9.5019 C   0  0  0  0  0  0  0  0  0  0  0  0
    0.6947   -0.3145    3.8642 C   0  0  0  0  0  0  0  0  0  0  0  0
    0.1255    0.0481    2.4870 C   0  0  0  0  0  0  0  0  0  0  0  0
    0.5269    1.1734    1.7732 C   0  0  0  0  0  0  0  0  0  0  0  0
    1.5429    2.1447    2.3728 C   0  0  0  0  0  0  0  0  0  0  0  0
    0.0054    1.4527    0.5138 C   0  0  0  0  0  0  0  0  0  0  0  0
   -0.7858   -0.8051    1.8769 C   0  0  0  0  0  0  0  0  0  0  0  0
   -1.2390   -2.0592    2.6170 C   0  0  0  0  0  0  0  0  0  0  0  0
   -1.3155   -0.5486    0.6174 C   0  0  0  0  0  0  0  0  0  0  0  0
   -0.9194    0.5909   -0.0674 C   0  0  0  0  0  0  0  0  0  0  0  0
   -1.4463    0.8591   -1.2993 O   0  0  0  0  0  0  0  0  0  0  0  0
   -1.6204   -0.3520   -2.0828 C   0  0  0  0  0  0  0  0  0  0  0  0
   -3.0157   -0.5452   -2.7078 C   0  0  0  0  0  0  0  0  0  0  0  0
   -3.3171   -1.6624   -3.1859 O   0  0  0  0  0  0  0  0  0  0  0  0
   -3.7834    0.4415   -2.7482 O   0  0  0  0  0  0  0  0  0  0  0  0
   -2.7098   -2.3740   -3.1327 H   0  0  0  0  0  0  0  0  0  0  0  0
 10 11  2  0  0  0
 10 15  1  0  0  0
 11 12  1  0  0  0
 12 13  2  0  0  0
 13 14  1  0  0  0
 14 15  2  0  0  0
 15  9  1  0  0  0
  9  1  1  0  0  0
  1  2  2  0  0  0
  1  3  1  0  0  0
  2  7  1  0  0  0
  3  4  1  0  0  0
  3  5  2  0  0  0
  5  6  1  0  0  0
  6  7  2  0  0  0
  7 16  1  0  0  0
 16 17  1  0  0  0
 17 18  2  0  0  0
 17 21  1  0  0  0
 18 19  1  0  0  0
 18 20  1  0  0  0
 20 24  2  0  0  0
 21 22  1  0  0  0
 21 23  2  0  0  0
 23 24  1  0  0  0
 24 25  1  0  0  0
 25 26  1  0  0  0
 26 27  1  0  0  0
 27 28  1  0  0  0
 27 29  2  0  0  0
  4  8  1  0  0  0
 28 30  1  0  0  0
M  END
> <minimizedAffinity>
-8.99265

$$$$
3NEX_G24_A_126


 30 32  0  0  0  0  0  0  0  0999 V2000
    0.4178    0.9418    7.6155 C   0  0  0  0  0  0  0  0  0  0  0  0
    0.8829    0.2991    6.4924 C   0  0  0  0  0  0  0  0  0  0  0  0
   -0.7707    1.6522    7.5492 C   0  0  0  0  0  0  0  0  0  0  0  0
   -1.1819    2.2637    8.6856 O   0  0  0  0  0  0  0  0  0  0  0  0
   -1.4842    1.7160    6.3467 C   0  0  0  0  0  0  0  0  0  0  0  0
   -0.9881    1.0678    5.2032 C   0  0  0  0  0  0  0  0  0  0  0  0
    0.2043    0.3462    5.2992 C   0  0  0  0  0  0  0  0  0  0  0  0
   -0.6703    2.1927    9.4673 H   0  0  0  0  0  0  0  0  0  0  0  0
    1.2364    0.8184    8.8994 C   0  0  0  0  0  0  0  0  0  0  0  0
    0.1717   -0.0699   11.0011 C   0  0  0  0  0  0  0  0  0  0  0  0
   -0.3350   -1.1222   11.7349 C   0  0  0  0  0  0  0  0  0  0  0  0
   -0.3810   -2.4021   11.1950 C   0  0  0  0  0  0  0  0  0  0  0  0
    0.1079   -2.6748    9.9313 C   0  0  0  0  0  0  0  0  0  0  0  0
    0.6308   -1.6233    9.1932 C   0  0  0  0  0  0  0  0  0  0  0  0
    0.6632   -0.3358    9.7290 C   0  0  0  0  0  0  0  0  0  0  0  0
    0.8790   -0.4192    4.1723 C   0  0  0  0  0  0  0  0  0  0  0  0
    0.4864   -0.0525    2.7358 C   0  0  0  0  0  0  0  0  0  0  0  0
   -0.4629   -0.7610    2.0051 C   0  0  0  0  0  0  0  0  0  0  0  0
   -1.1336   -1.9958    2.6054 C   0  0  0  0  0  0  0  0  0  0  0  0
   -0.8106   -0.3793    0.7130 C   0  0  0  0  0  0  0  0  0  0  0  0
    1.0437    1.0722    2.1399 C   0  0  0  0  0  0  0  0  0  0  0  0
    2.0751    1.8877    2.9127 C   0  0  0  0  0  0  0  0  0  0  0  0
    0.7071    1.4749    0.8526 C   0  0  0  0  0  0  0  0  0  0  0  0
   -0.2245    0.7411    0.1326 C   0  0  0  0  0  0  0  0  0  0  0  0
   -0.5501    1.1205   -1.1390 O   0  0  0  0  0  0  0  0  0  0  0  0
    0.6198    1.1722   -1.9990 C   0  0  0  0  0  0  0  0  0  0  0  0
    1.3171   -0.1779   -2.2554 C   0  0  0  0  0  0  0  0  0  0  0  0
    2.5239   -0.3058   -1.9474 O   0  0  0  0  0  0  0  0  0  0  0  0
    0.6545   -1.0871   -2.8020 O   0  0  0  0  0  0  0  0  0  0  0  0
    2.9808    0.4030   -1.5390 H   0  0  0  0  0  0  0  0  0  0  0  0
 10 11  2  0  0  0
 10 15  1  0  0  0
 11 12  1  0  0  0
 12 13  2  0  0  0
 13 14  1  0  0  0
 14 15  2  0  0  0
 15  9  1  0  0  0
  9  1  1  0  0  0
  1  2  2  0  0  0
  1  3  1  0  0  0
  2  7  1  0  0  0
  3  4  1  0  0  0
  3  5  2  0  0  0
  5  6  1  0  0  0
  6  7  2  0  0  0
  7 16  1  0  0  0
 16 17  1  0  0  0
 17 18  2  0  0  0
 17 21  1  0  0  0
 18 19  1  0  0  0
 18 20  1  0  0  0
 20 24  2  0  0  0
 21 22  1  0  0  0
 21 23  2  0  0  0
 23 24  1  0  0  0
 24 25  1  0  0  0
 25 26  1  0  0  0
 26 27  1  0  0  0
 27 28  1  0  0  0
 27 29  2  0  0  0
  4  8  1  0  0  0
 28 30  1  0  0  0
M  END
> <minimizedAffinity>
-8.92536

$$$$
3NEX_G24_A_126


 30 32  0  0  0  0  0  0  0  0999 V2000
    0.5575    0.8063    7.3081 C   0  0  0  0  0  0  0  0  0  0  0  0
    0.9823    0.2446    6.1271 C   0  0  0  0  0  0  0  0  0  0  0  0
   -0.6560    1.4753    7.3450 C   0  0  0  0  0  0  0  0  0  0  0  0
   -1.0254    2.0070    8.5346 O   0  0  0  0  0  0  0  0  0  0  0  0
   -1.4355    1.5797    6.1871 C   0  0  0  0  0  0  0  0  0  0  0  0
   -0.9806    1.0148    4.9838 C   0  0  0  0  0  0  0  0  0  0  0  0
    0.2388    0.3332    4.9757 C   0  0  0  0  0  0  0  0  0  0  0  0
   -0.4700    1.9113    9.2832 H   0  0  0  0  0  0  0  0  0  0  0  0
    1.4482    0.6417    8.5382 C   0  0  0  0  0  0  0  0  0  0  0  0
    0.6929   -1.7194    8.9797 C   0  0  0  0  0  0  0  0  0  0  0  0
    0.1213   -2.6583    9.8128 C   0  0  0  0  0  0  0  0  0  0  0  0
   -0.2794   -2.3116   11.0977 C   0  0  0  0  0  0  0  0  0  0  0  0
   -0.1570   -1.0192   11.5723 C   0  0  0  0  0  0  0  0  0  0  0  0
    0.4051   -0.0673   10.7348 C   0  0  0  0  0  0  0  0  0  0  0  0
    0.8213   -0.4185    9.4505 C   0  0  0  0  0  0  0  0  0  0  0  0
    0.8768   -0.3431    3.7729 C   0  0  0  0  0  0  0  0  0  0  0  0
    0.2209   -0.1162    2.4052 C   0  0  0  0  0  0  0  0  0  0  0  0
   -0.7239   -0.9833    1.8644 C   0  0  0  0  0  0  0  0  0  0  0  0
   -1.1189   -2.2563    2.6118 C   0  0  0  0  0  0  0  0  0  0  0  0
   -1.3156   -0.7272    0.6314 C   0  0  0  0  0  0  0  0  0  0  0  0
    0.5206    1.0335    1.6848 C   0  0  0  0  0  0  0  0  0  0  0  0
    1.5376    2.0196    2.2497 C   0  0  0  0  0  0  0  0  0  0  0  0
   -0.0624    1.3121    0.4538 C   0  0  0  0  0  0  0  0  0  0  0  0
   -0.9847    0.4228   -0.0783 C   0  0  0  0  0  0  0  0  0  0  0  0
   -1.5514    0.6807   -1.2946 O   0  0  0  0  0  0  0  0  0  0  0  0
   -2.3236   -0.4516   -1.7768 C   0  0  0  0  0  0  0  0  0  0  0  0
   -3.1356   -0.2036   -3.0628 C   0  0  0  0  0  0  0  0  0  0  0  0
   -2.7241   -0.6854   -4.1427 O   0  0  0  0  0  0  0  0  0  0  0  0
   -4.1609    0.5082   -2.9825 O   0  0  0  0  0  0  0  0  0  0  0  0
   -1.9503   -1.2137   -4.1553 H   0  0  0  0  0  0  0  0  0  0  0  0
 10 11  2  0  0  0
 10 15  1  0  0  0
 11 12  1  0  0  0
 12 13  2  0  0  0
 13 14  1  0  0  0
 14 15  2  0  0  0
 15  9  1  0  0  0
  9  1  1  0  0  0
  1  2  2  0  0  0
  1  3  1  0  0  0
  2  7  1  0  0  0
  3  4  1  0  0  0
  3  5  2  0  0  0
  5  6  1  0  0  0
  6  7  2  0  0  0
  7 16  1  0  0  0
 16 17  1  0  0  0
 17 18  2  0  0  0
 17 21  1  0  0  0
 18 19  1  0  0  0
 18 20  1  0  0  0
 20 24  2  0  0  0
 21 22  1  0  0  0
 21 23  2  0  0  0
 23 24  1  0  0  0
 24 25  1  0  0  0
 25 26  1  0  0  0
 26 27  1  0  0  0
 27 28  1  0  0  0
 27 29  2  0  0  0
  4  8  1  0  0  0
 28 30  1  0  0  0
M  END
> <minimizedAffinity>
-8.86314

$$$$
3NEX_G24_A_126


 30 32  0  0  0  0  0  0  0  0999 V2000
   -0.4072   -0.9848    7.4907 C   0  0  0  0  0  0  0  0  0  0  0  0
   -0.8101   -0.3622    6.3328 C   0  0  0  0  0  0  0  0  0  0  0  0
    0.7693   -1.7179    7.4946 C   0  0  0  0  0  0  0  0  0  0  0  0
    1.1184   -2.3079    8.6626 O   0  0  0  0  0  0  0  0  0  0  0  0
    1.5337   -1.8247    6.3269 C   0  0  0  0  0  0  0  0  0  0  0  0
    1.1008   -1.1966    5.1470 C   0  0  0  0  0  0  0  0  0  0  0  0
   -0.0807   -0.4515    5.1724 C   0  0  0  0  0  0  0  0  0  0  0  0
    0.5744   -2.2081    9.4189 H   0  0  0  0  0  0  0  0  0  0  0  0
   -1.2789   -0.8145    8.7336 C   0  0  0  0  0  0  0  0  0  0  0  0
   -0.6829    1.6129    9.0375 C   0  0  0  0  0  0  0  0  0  0  0  0
   -0.1567    2.6301    9.8062 C   0  0  0  0  0  0  0  0  0  0  0  0
    0.3040    2.3771   11.0928 C   0  0  0  0  0  0  0  0  0  0  0  0
    0.2881    1.1046   11.6323 C   0  0  0  0  0  0  0  0  0  0  0  0
   -0.2277    0.0749   10.8595 C   0  0  0  0  0  0  0  0  0  0  0  0
   -0.7041    0.3314    9.5738 C   0  0  0  0  0  0  0  0  0  0  0  0
   -0.6905    0.2974    3.9984 C   0  0  0  0  0  0  0  0  0  0  0  0
   -0.0533    0.0872    2.6192 C   0  0  0  0  0  0  0  0  0  0  0  0
   -0.3572   -0.9969    1.8011 C   0  0  0  0  0  0  0  0  0  0  0  0
   -1.3279   -2.0757    2.2798 C   0  0  0  0  0  0  0  0  0  0  0  0
    0.2231   -1.1371    0.5443 C   0  0  0  0  0  0  0  0  0  0  0  0
    0.8209    1.0430    2.1164 C   0  0  0  0  0  0  0  0  0  0  0  0
    1.1672    2.2561    2.9732 C   0  0  0  0  0  0  0  0  0  0  0  0
    1.4080    0.9260    0.8617 C   0  0  0  0  0  0  0  0  0  0  0  0
    1.1094   -0.1744    0.0715 C   0  0  0  0  0  0  0  0  0  0  0  0
    1.6934   -0.3056   -1.1568 O   0  0  0  0  0  0  0  0  0  0  0  0
    2.1894    0.9668   -1.6529 C   0  0  0  0  0  0  0  0  0  0  0  0
    3.6428    0.9603   -2.1649 C   0  0  0  0  0  0  0  0  0  0  0  0
    3.8514    0.9129   -3.3986 O   0  0  0  0  0  0  0  0  0  0  0  0
    4.5641    0.9627   -1.3189 O   0  0  0  0  0  0  0  0  0  0  0  0
    3.1296    0.9131   -3.9961 H   0  0  0  0  0  0  0  0  0  0  0  0
 10 11  2  0  0  0
 10 15  1  0  0  0
 11 12  1  0  0  0
 12 13  2  0  0  0
 13 14  1  0  0  0
 14 15  2  0  0  0
 15  9  1  0  0  0
  9  1  1  0  0  0
  1  2  2  0  0  0
  1  3  1  0  0  0
  2  7  1  0  0  0
  3  4  1  0  0  0
  3  5  2  0  0  0
  5  6  1  0  0  0
  6  7  2  0  0  0
  7 16  1  0  0  0
 16 17  1  0  0  0
 17 18  2  0  0  0
 17 21  1  0  0  0
 18 19  1  0  0  0
 18 20  1  0  0  0
 20 24  2  0  0  0
 21 22  1  0  0  0
 21 23  2  0  0  0
 23 24  1  0  0  0
 24 25  1  0  0  0
 25 26  1  0  0  0
 26 27  1  0  0  0
 27 28  1  0  0  0
 27 29  2  0  0  0
  4  8  1  0  0  0
 28 30  1  0  0  0
M  END
> <minimizedAffinity>
-8.81009

$$$$
3NEX_G24_A_126


 30 32  0  0  0  0  0  0  0  0999 V2000
    0.9534    1.3738    1.0367 C   0  0  0  0  0  0  0  0  0  0  0  0
    0.3748    0.5550    1.9777 C   0  0  0  0  0  0  0  0  0  0  0  0
    2.2873    1.7263    1.1700 C   0  0  0  0  0  0  0  0  0  0  0  0
    2.8054    2.5329    0.2134 O   0  0  0  0  0  0  0  0  0  0  0  0
    3.0327    1.2548    2.2570 C   0  0  0  0  0  0  0  0  0  0  0  0
    2.4234    0.4323    3.2194 C   0  0  0  0  0  0  0  0  0  0  0  0
    1.0817    0.0793    3.0550 C   0  0  0  0  0  0  0  0  0  0  0  0
    2.2671    2.8235   -0.4964 H   0  0  0  0  0  0  0  0  0  0  0  0
    0.0884    1.8395   -0.1332 C   0  0  0  0  0  0  0  0  0  0  0  0
    0.7340   -0.0386   -1.6810 C   0  0  0  0  0  0  0  0  0  0  0  0
    0.3884   -1.1335   -2.4454 C   0  0  0  0  0  0  0  0  0  0  0  0
   -0.9265   -1.5821   -2.4827 C   0  0  0  0  0  0  0  0  0  0  0  0
   -1.9343   -0.9340   -1.7936 C   0  0  0  0  0  0  0  0  0  0  0  0
   -1.5957    0.1755   -1.0333 C   0  0  0  0  0  0  0  0  0  0  0  0
   -0.2733    0.6169   -0.9837 C   0  0  0  0  0  0  0  0  0  0  0  0
    0.2691   -0.8039    3.9880 C   0  0  0  0  0  0  0  0  0  0  0  0
    0.3698   -0.5225    5.4923 C   0  0  0  0  0  0  0  0  0  0  0  0
   -0.3233    0.5092    6.1186 C   0  0  0  0  0  0  0  0  0  0  0  0
   -1.1977    1.4584    5.3003 C   0  0  0  0  0  0  0  0  0  0  0  0
   -0.2256    0.7146    7.4913 C   0  0  0  0  0  0  0  0  0  0  0  0
    1.1311   -1.3621    6.2961 C   0  0  0  0  0  0  0  0  0  0  0  0
    1.8926   -2.5161    5.6526 C   0  0  0  0  0  0  0  0  0  0  0  0
    1.2387   -1.1788    7.6700 C   0  0  0  0  0  0  0  0  0  0  0  0
    0.5579   -0.1301    8.2712 C   0  0  0  0  0  0  0  0  0  0  0  0
    0.6700    0.0669    9.6186 O   0  0  0  0  0  0  0  0  0  0  0  0
   -0.3250    1.0063   10.1073 C   0  0  0  0  0  0  0  0  0  0  0  0
    0.2318    2.3047   10.7227 C   0  0  0  0  0  0  0  0  0  0  0  0
   -0.1579    3.4058   10.2717 O   0  0  0  0  0  0  0  0  0  0  0  0
    1.0877    2.2056   11.6293 O   0  0  0  0  0  0  0  0  0  0  0  0
   -0.8018    3.4319    9.5915 H   0  0  0  0  0  0  0  0  0  0  0  0
 10 11  2  0  0  0
 10 15  1  0  0  0
 11 12  1  0  0  0
 12 13  2  0  0  0
 13 14  1  0  0  0
 14 15  2  0  0  0
 15  9  1  0  0  0
  9  1  1  0  0  0
  1  2  2  0  0  0
  1  3  1  0  0  0
  2  7  1  0  0  0
  3  4  1  0  0  0
  3  5  2  0  0  0
  5  6  1  0  0  0
  6  7  2  0  0  0
  7 16  1  0  0  0
 16 17  1  0  0  0
 17 18  2  0  0  0
 17 21  1  0  0  0
 18 19  1  0  0  0
 18 20  1  0  0  0
 20 24  2  0  0  0
 21 22  1  0  0  0
 21 23  2  0  0  0
 23 24  1  0  0  0
 24 25  1  0  0  0
 25 26  1  0  0  0
 26 27  1  0  0  0
 27 28  1  0  0  0
 27 29  2  0  0  0
  4  8  1  0  0  0
 28 30  1  0  0  0
M  END
> <minimizedAffinity>
-8.71873

$$$$
3NEX_G24_A_126


 30 32  0  0  0  0  0  0  0  0999 V2000
   -0.8508   -1.3599    1.0608 C   0  0  0  0  0  0  0  0  0  0  0  0
   -0.2578   -0.5602    2.0092 C   0  0  0  0  0  0  0  0  0  0  0  0
   -2.1881   -1.6985    1.1967 C   0  0  0  0  0  0  0  0  0  0  0  0
   -2.7205   -2.4866    0.2326 O   0  0  0  0  0  0  0  0  0  0  0  0
   -2.9221   -1.2325    2.2937 C   0  0  0  0  0  0  0  0  0  0  0  0
   -2.2983   -0.4297    3.2633 C   0  0  0  0  0  0  0  0  0  0  0  0
   -0.9534   -0.0903    3.0963 C   0  0  0  0  0  0  0  0  0  0  0  0
   -2.1894   -2.7742   -0.4837 H   0  0  0  0  0  0  0  0  0  0  0  0
    0.0025   -1.8205   -0.1197 C   0  0  0  0  0  0  0  0  0  0  0  0
   -0.7242   -0.1411   -1.8491 C   0  0  0  0  0  0  0  0  0  0  0  0
   -0.4508    0.9470   -2.6515 C   0  0  0  0  0  0  0  0  0  0  0  0
    0.7887    1.5730   -2.5942 C   0  0  0  0  0  0  0  0  0  0  0  0
    1.7969    1.1124   -1.7684 C   0  0  0  0  0  0  0  0  0  0  0  0
    1.5328    0.0106   -0.9685 C   0  0  0  0  0  0  0  0  0  0  0  0
    0.2836   -0.6086   -1.0148 C   0  0  0  0  0  0  0  0  0  0  0  0
   -0.1256    0.7712    4.0362 C   0  0  0  0  0  0  0  0  0  0  0  0
   -0.3293    0.5689    5.5429 C   0  0  0  0  0  0  0  0  0  0  0  0
   -1.1624    1.3775    6.3104 C   0  0  0  0  0  0  0  0  0  0  0  0
   -1.8883    2.5615    5.6730 C   0  0  0  0  0  0  0  0  0  0  0  0
   -1.3411    1.1439    7.6704 C   0  0  0  0  0  0  0  0  0  0  0  0
    0.2852   -0.5029    6.1787 C   0  0  0  0  0  0  0  0  0  0  0  0
    1.1924   -1.4246    5.3705 C   0  0  0  0  0  0  0  0  0  0  0  0
    0.1166   -0.7582    7.5348 C   0  0  0  0  0  0  0  0  0  0  0  0
   -0.6999    0.0739    8.2868 C   0  0  0  0  0  0  0  0  0  0  0  0
   -0.8594   -0.1602    9.6235 O   0  0  0  0  0  0  0  0  0  0  0  0
    0.2024   -1.0002   10.1508 C   0  0  0  0  0  0  0  0  0  0  0  0
   -0.2504   -2.3430   10.7563 C   0  0  0  0  0  0  0  0  0  0  0  0
    0.2248   -3.4066   10.2975 O   0  0  0  0  0  0  0  0  0  0  0  0
   -1.1115   -2.3182   11.6632 O   0  0  0  0  0  0  0  0  0  0  0  0
    0.8687   -3.3770    9.6174 H   0  0  0  0  0  0  0  0  0  0  0  0
 10 11  2  0  0  0
 10 15  1  0  0  0
 11 12  1  0  0  0
 12 13  2  0  0  0
 13 14  1  0  0  0
 14 15  2  0  0  0
 15  9  1  0  0  0
  9  1  1  0  0  0
  1  2  2  0  0  0
  1  3  1  0  0  0
  2  7  1  0  0  0
  3  4  1  0  0  0
  3  5  2  0  0  0
  5  6  1  0  0  0
  6  7  2  0  0  0
  7 16  1  0  0  0
 16 17  1  0  0  0
 17 18  2  0  0  0
 17 21  1  0  0  0
 18 19  1  0  0  0
 18 20  1  0  0  0
 20 24  2  0  0  0
 21 22  1  0  0  0
 21 23  2  0  0  0
 23 24  1  0  0  0
 24 25  1  0  0  0
 25 26  1  0  0  0
 26 27  1  0  0  0
 27 28  1  0  0  0
 27 29  2  0  0  0
  4  8  1  0  0  0
 28 30  1  0  0  0
M  END
> <minimizedAffinity>
-8.70191

$$$$
3NEX_G24_A_126


 30 32  0  0  0  0  0  0  0  0999 V2000
   -1.4069   -0.6256    1.0331 C   0  0  0  0  0  0  0  0  0  0  0  0
   -0.3578   -0.5497    1.9188 C   0  0  0  0  0  0  0  0  0  0  0  0
   -2.5619   -1.2968    1.4032 C   0  0  0  0  0  0  0  0  0  0  0  0
   -3.5635   -1.3384    0.4926 O   0  0  0  0  0  0  0  0  0  0  0  0
   -2.6525   -1.8945    2.6656 C   0  0  0  0  0  0  0  0  0  0  0  0
   -1.5661   -1.8228    3.5537 C   0  0  0  0  0  0  0  0  0  0  0  0
   -0.4186   -1.1282    3.1629 C   0  0  0  0  0  0  0  0  0  0  0  0
   -3.4568   -0.9232   -0.3406 H   0  0  0  0  0  0  0  0  0  0  0  0
   -1.2489    0.0624   -0.3216 C   0  0  0  0  0  0  0  0  0  0  0  0
    0.3257    1.9143    0.3348 C   0  0  0  0  0  0  0  0  0  0  0  0
    1.5712    2.5041    0.2781 C   0  0  0  0  0  0  0  0  0  0  0  0
    2.6042    1.9058   -0.4337 C   0  0  0  0  0  0  0  0  0  0  0  0
    2.4161    0.7300   -1.1355 C   0  0  0  0  0  0  0  0  0  0  0  0
    1.1624    0.1385   -1.0932 C   0  0  0  0  0  0  0  0  0  0  0  0
    0.1296    0.7309   -0.3664 C   0  0  0  0  0  0  0  0  0  0  0  0
    0.8407   -0.9432    3.9943 C   0  0  0  0  0  0  0  0  0  0  0  0
    0.6634   -0.6718    5.4933 C   0  0  0  0  0  0  0  0  0  0  0  0
   -0.0936    0.3863    5.9878 C   0  0  0  0  0  0  0  0  0  0  0  0
   -0.7556    1.3748    5.0287 C   0  0  0  0  0  0  0  0  0  0  0  0
   -0.2518    0.5824    7.3562 C   0  0  0  0  0  0  0  0  0  0  0  0
    1.2217   -1.5460    6.4178 C   0  0  0  0  0  0  0  0  0  0  0  0
    2.0441   -2.7291    5.9181 C   0  0  0  0  0  0  0  0  0  0  0  0
    1.0721   -1.3723    7.7890 C   0  0  0  0  0  0  0  0  0  0  0  0
    0.3327   -0.2978    8.2614 C   0  0  0  0  0  0  0  0  0  0  0  0
    0.1930   -0.1105    9.6077 O   0  0  0  0  0  0  0  0  0  0  0  0
   -0.6136    1.0609    9.9049 C   0  0  0  0  0  0  0  0  0  0  0  0
    0.1128    2.1969   10.6510 C   0  0  0  0  0  0  0  0  0  0  0  0
   -0.1398    3.3838   10.3430 O   0  0  0  0  0  0  0  0  0  0  0  0
    0.9620    1.8841   11.5144 O   0  0  0  0  0  0  0  0  0  0  0  0
   -0.7847    3.5713    9.6896 H   0  0  0  0  0  0  0  0  0  0  0  0
 10 11  2  0  0  0
 10 15  1  0  0  0
 11 12  1  0  0  0
 12 13  2  0  0  0
 13 14  1  0  0  0
 14 15  2  0  0  0
 15  9  1  0  0  0
  9  1  1  0  0  0
  1  2  2  0  0  0
  1  3  1  0  0  0
  2  7  1  0  0  0
  3  4  1  0  0  0
  3  5  2  0  0  0
  5  6  1  0  0  0
  6  7  2  0  0  0
  7 16  1  0  0  0
 16 17  1  0  0  0
 17 18  2  0  0  0
 17 21  1  0  0  0
 18 19  1  0  0  0
 18 20  1  0  0  0
 20 24  2  0  0  0
 21 22  1  0  0  0
 21 23  2  0  0  0
 23 24  1  0  0  0
 24 25  1  0  0  0
 25 26  1  0  0  0
 26 27  1  0  0  0
 27 28  1  0  0  0
 27 29  2  0  0  0
  4  8  1  0  0  0
 28 30  1  0  0  0
M  END
> <minimizedAffinity>
-8.52062

$$$$
3NEX_G24_A_126


 30 32  0  0  0  0  0  0  0  0999 V2000
    0.2447    0.7213    2.4787 C   0  0  0  0  0  0  0  0  0  0  0  0
    0.7001    0.9935    3.7473 C   0  0  0  0  0  0  0  0  0  0  0  0
   -0.4070   -0.4772    2.2329 C   0  0  0  0  0  0  0  0  0  0  0  0
   -0.8359   -0.6916    0.9663 O   0  0  0  0  0  0  0  0  0  0  0  0
   -0.5926   -1.4005    3.2683 C   0  0  0  0  0  0  0  0  0  0  0  0
   -0.1071   -1.1156    4.5556 C   0  0  0  0  0  0  0  0  0  0  0  0
    0.5334    0.1052    4.7815 C   0  0  0  0  0  0  0  0  0  0  0  0
   -0.6887   -0.0435    0.3058 H   0  0  0  0  0  0  0  0  0  0  0  0
    0.4653    1.7788    1.3986 C   0  0  0  0  0  0  0  0  0  0  0  0
    2.3691    2.3657   -0.1411 C   0  0  0  0  0  0  0  0  0  0  0  0
    3.7205    2.4047   -0.4143 C   0  0  0  0  0  0  0  0  0  0  0  0
    4.6438    1.9584    0.5239 C   0  0  0  0  0  0  0  0  0  0  0  0
    4.2473    1.4293    1.7377 C   0  0  0  0  0  0  0  0  0  0  0  0
    2.8890    1.3752    2.0132 C   0  0  0  0  0  0  0  0  0  0  0  0
    1.9629    1.8371    1.0779 C   0  0  0  0  0  0  0  0  0  0  0  0
    1.1099    0.5806    6.1053 C   0  0  0  0  0  0  0  0  0  0  0  0
    0.4012    0.1269    7.3876 C   0  0  0  0  0  0  0  0  0  0  0  0
   -0.7943    0.6848    7.8309 C   0  0  0  0  0  0  0  0  0  0  0  0
   -1.4394    1.8368    7.0616 C   0  0  0  0  0  0  0  0  0  0  0  0
   -1.4196    0.2261    8.9861 C   0  0  0  0  0  0  0  0  0  0  0  0
    0.9245   -0.9307    8.1211 C   0  0  0  0  0  0  0  0  0  0  0  0
    2.2239   -1.5827    7.6602 C   0  0  0  0  0  0  0  0  0  0  0  0
    0.3138   -1.4087    9.2749 C   0  0  0  0  0  0  0  0  0  0  0  0
   -0.8652   -0.8231    9.7124 C   0  0  0  0  0  0  0  0  0  0  0  0
   -1.4644   -1.2762   10.8538 O   0  0  0  0  0  0  0  0  0  0  0  0
   -0.5035   -1.4545   11.9290 C   0  0  0  0  0  0  0  0  0  0  0  0
   -0.2614   -0.2182   12.8166 C   0  0  0  0  0  0  0  0  0  0  0  0
   -0.9175   -0.0938   13.8757 O   0  0  0  0  0  0  0  0  0  0  0  0
    0.5593    0.6384   12.4202 O   0  0  0  0  0  0  0  0  0  0  0  0
   -1.5219   -0.7618   14.1336 H   0  0  0  0  0  0  0  0  0  0  0  0
 10 11  2  0  0  0
 10 15  1  0  0  0
 11 12  1  0  0  0
 12 13  2  0  0  0
 13 14  1  0  0  0
 14 15  2  0  0  0
 15  9  1  0  0  0
  9  1  1  0  0  0
  1  2  2  0  0  0
  1  3  1  0  0  0
  2  7  1  0  0  0
  3  4  1  0  0  0
  3  5  2  0  0  0
  5  6  1  0  0  0
  6  7  2  0  0  0
  7 16  1  0  0  0
 16 17  1  0  0  0
 17 18  2  0  0  0
 17 21  1  0  0  0
 18 19  1  0  0  0
 18 20  1  0  0  0
 20 24  2  0  0  0
 21 22  1  0  0  0
 21 23  2  0  0  0
 23 24  1  0  0  0
 24 25  1  0  0  0
 25 26  1  0  0  0
 26 27  1  0  0  0
 27 28  1  0  0  0
 27 29  2  0  0  0
  4  8  1  0  0  0
 28 30  1  0  0  0
M  END
> <minimizedAffinity>
-8.46429

$$$$
