2CGR_GAS_H_215
  RCSB PDB12061705153D
Coordinates from PDB:2CGR:H:215 Model:1 without hydrogens
 29 31  0  0  0  0            999 V2000
  -13.2130   38.0430   17.6180   C 0  0  0  0  0  0  0  0  0  0  0  0
  -13.5670   36.7070   17.7870   C 0  0  0  0  0  0  0  0  0  0  0  0
  -12.6920   35.8270   18.3990   C 0  0  0  0  0  0  0  0  0  0  0  0
  -11.4720   36.2840   18.8470   C 0  0  0  0  0  0  0  0  0  0  0  0
  -11.1260   37.6090   18.6800   C 0  0  0  0  0  0  0  0  0  0  0  0
  -11.9820   38.5000   18.0620   C 0  0  0  0  0  0  0  0  0  0  0  0
  -11.5100   39.7830   17.7770   C 0  0  0  0  0  0  0  0  0  0  0  0
  -10.1870   39.7640   17.1580   N 0  0  0  0  0  0  0  0  0  0  0  0
  -12.4370   40.6120   17.1420   C 0  0  0  0  0  0  0  0  0  0  0  0
  -12.7060   40.4490   15.7790   C 0  0  0  0  0  0  0  0  0  0  0  0
  -13.4270   41.4020   15.1020   C 0  0  0  0  0  0  0  0  0  0  0  0
  -13.8940   42.5270   15.7650   C 0  0  0  0  0  0  0  0  0  0  0  0
  -13.6540   42.7010   17.1140   C 0  0  0  0  0  0  0  0  0  0  0  0
  -12.9320   41.7480   17.8050   C 0  0  0  0  0  0  0  0  0  0  0  0
   -9.2360   40.6660   17.3360   C 0  0  0  0  0  0  0  0  0  0  0  0
   -9.5480   41.8890   17.7320   N 0  0  0  0  0  0  0  0  0  0  0  0
   -8.7980   42.6710   18.7040   C 0  0  0  0  0  0  0  0  0  0  0  0
   -9.5590   43.6100   19.6140   C 0  0  0  0  0  0  0  0  0  0  0  0
   -8.9230   44.4930   20.2310   O 0  0  0  0  0  0  0  0  0  0  0  0
  -10.8020   43.6590   19.4680   O 0  0  0  0  0  0  0  0  0  0  0  0
   -8.1020   40.4520   16.7530   N 0  0  0  0  0  0  0  0  0  0  0  0
   -7.2430   39.2550   16.5650   C 0  0  0  0  0  0  0  0  0  0  0  0
   -7.2560   38.2220   17.4790   C 0  0  0  0  0  0  0  0  0  0  0  0
   -6.4310   37.1250   17.2950   C 0  0  0  0  0  0  0  0  0  0  0  0
   -5.5980   37.0630   16.1940   C 0  0  0  0  0  0  0  0  0  0  0  0
   -4.6970   35.8720   15.9680   C 0  0  0  0  0  0  0  0  0  0  0  0
   -4.0060   34.9580   15.8000   N 0  0  0  0  0  0  0  0  0  0  0  0
   -5.5960   38.0830   15.2910   C 0  0  0  0  0  0  0  0  0  0  0  0
   -6.4200   39.1790   15.4720   C 0  0  0  0  0  0  0  0  0  0  0  0
  1  2  1  0  0  0  0
  1  6  2  0  0  0  0
  2  3  2  0  0  0  0
  3  4  1  0  0  0  0
  4  5  2  0  0  0  0
  5  6  1  0  0  0  0
  6  7  1  0  0  0  0
  7  8  1  0  0  0  0
  7  9  1  0  0  0  0
  8 15  1  0  0  0  0
  9 10  2  0  0  0  0
  9 14  1  0  0  0  0
 10 11  1  0  0  0  0
 11 12  2  0  0  0  0
 12 13  1  0  0  0  0
 13 14  2  0  0  0  0
 15 16  2  0  0  0  0
 15 21  1  0  0  0  0
 16 17  1  0  0  0  0
 17 18  1  0  0  0  0
 18 19  2  0  0  0  0
 18 20  1  0  0  0  0
 21 22  1  0  0  0  0
 22 23  1  0  0  0  0
 22 29  2  0  0  0  0
 23 24  2  0  0  0  0
 24 25  1  0  0  0  0
 25 26  1  0  0  0  0
 25 28  2  0  0  0  0
 26 27  3  0  0  0  0
 28 29  1  0  0  0  0
A    1
C1
A    2
C2
A    3
C3
A    4
C4
A    5
C5
A    6
C6
A    7
C7
A    8
N7
A    9
C1A
A   10
C2A
A   11
C3A
A   12
C4A
A   13
C5A
A   14
C6A
A   15
C8
A   16
N8
A   17
C9
A   18
C10
A   19
O1
A   20
O2
A   21
N11
A   22
C1B
A   23
C2B
A   24
C3B
A   25
C4B
A   26
C7B
A   27
N7B
A   28
C5B
A   29
C6B
M  END
>  <InstanceId>
2CGR_GAS_H_215

>  <ChemCompId>
GAS

>  <PdbId>
2CGR

>  <ChainId>
H

>  <ResidueNumber>
215

>  <InsertionCode>


>  <Model>
1

>  <AltIds>


>  <MissingHeavyAtoms>
0

>  <ObservedFormula>
C23 N4 O2

>  <Name>
N-(P-CYANOPHENYL)-N'-DIPHENYLMETHYL-GUANIDINE-ACETIC ACID

>  <SystematicName>
2-[[(benzhydrylamino)-[(4-cyanophenyl)amino]methylidene]amino]ethanoic acid

>  <Synonyms>


>  <Type>
NON-POLYMER

>  <Formula>
C23 H20 N4 O2

>  <MolecularWeight>
384.431

>  <ModifiedDate>
2011-06-04

>  <Parent>


>  <OneLetterCode>


>  <SubcomponentList>


>  <AmbiguousFlag>
N

>  <InChI>
InChI=1S/C23H20N4O2/c24-15-17-11-13-20(14-12-17)26-23(25-16-21(28)29)27-22(18-7-3-1-4-8-18)19-9-5-2-6-10-19/h1-14,22H,16H2,(H,28,29)(H2,25,26,27)

>  <InChIKey>
KGHMYJFHUHFOGL-UHFFFAOYSA-N

>  <SMILES>
c1ccc(cc1)C(c2ccccc2)NC(=NCC(=O)O)Nc3ccc(cc3)C#N

$$$$
