1LBF_137_A_300


 30 30  0  0  0  0  0  0  0  0999 V2000
   -5.7320  -21.0323   30.9301 C   0  0  0  0  0  0  0  0  0  0  0  0
   -5.0953  -19.7891   30.8793 O   0  0  0  0  0  0  0  0  0  0  0  0
   -4.1477  -19.9039   31.0519 H   0  0  0  0  0  0  0  0  0  0  0  0
   -5.4624  -22.0310   29.7644 C   0  0  0  0  0  0  0  0  0  0  0  0
   -4.4980  -21.3909   28.9372 O   0  0  0  0  0  0  0  0  0  0  0  0
   -4.8604  -20.5543   28.6059 H   0  0  0  0  0  0  0  0  0  0  0  0
   -6.6888  -22.2699   28.8440 C   0  0  0  0  0  0  0  0  0  0  0  0
   -7.8732  -22.4362   29.6578 O   0  0  0  0  0  0  0  0  0  0  0  0
   -7.7603  -23.2039   30.2399 H   0  0  0  0  0  0  0  0  0  0  0  0
   -6.4879  -23.5366   27.9900 C   0  0  0  0  0  0  0  0  0  0  0  0
   -5.4428  -23.6028   27.2604 O   0  0  0  0  0  0  0  0  0  0  0  0
   -5.2510  -23.3038   25.8114 P   0  0  0  0  0  0  0  0  0  0  0  0
   -6.5262  -23.2681   25.0797 O   0  0  0  0  0  0  0  0  0  0  0  0
   -4.3280  -24.3385   25.2552 O   0  0  0  0  0  0  0  0  0  0  0  0
   -4.7054  -21.9639   25.8381 O   0  0  0  0  0  0  0  0  0  0  0  0
   -4.1841  -24.1694   24.3110 H   0  0  0  0  0  0  0  0  0  0  0  0
   -4.5394  -21.6642   24.9306 H   0  0  0  0  0  0  0  0  0  0  0  0
   -5.5726  -21.5914   32.3186 C   0  0  0  0  0  0  0  0  0  0  0  0
   -6.7471  -22.3385   32.6729 N   0  0  0  0  0  0  0  0  0  0  0  0
   -7.0485  -23.0947   32.1193 H   0  0  0  0  0  0  0  0  0  0  0  0
   -8.5930  -21.1013   33.7352 C   0  0  0  0  0  0  0  0  0  0  0  0
   -7.4526  -21.9679   33.8208 C   0  0  0  0  0  0  0  0  0  0  0  0
   -6.9637  -22.4331   35.0719 C   0  0  0  0  0  0  0  0  0  0  0  0
   -7.6101  -22.0303   36.2383 C   0  0  0  0  0  0  0  0  0  0  0  0
   -8.7336  -21.1637   36.1698 C   0  0  0  0  0  0  0  0  0  0  0  0
   -9.2157  -20.7104   34.9371 C   0  0  0  0  0  0  0  0  0  0  0  0
   -9.2324  -20.6725   32.4767 C   0  0  0  0  0  0  0  0  0  0  0  0
   -9.4044  -19.4950   32.1923 O   0  0  0  0  0  0  0  0  0  0  0  0
   -9.5879  -21.5323   31.6736 O   0  0  0  0  0  0  0  0  0  0  0  0
   -9.1401  -18.8248   32.7914 H   0  0  0  0  0  0  0  0  0  0  0  0
 12 13  2  0  0  0
 12 14  1  0  0  0
 12 15  1  0  0  0
 12 11  1  0  0  0
 11 10  1  0  0  0
 10  7  1  0  0  0
  7  8  1  0  0  0
  7  4  1  0  0  0
  4  5  1  0  0  0
  4  1  1  0  0  0
  1  2  1  0  0  0
  1 18  1  0  0  0
 18 19  1  0  0  0
 19 22  1  0  0  0
 21 22  2  0  0  0
 21 26  1  0  0  0
 21 27  1  0  0  0
 22 23  1  0  0  0
 23 24  2  0  0  0
 24 25  1  0  0  0
 25 26  2  0  0  0
 27 28  1  0  0  0
 27 29  2  0  0  0
 14 16  1  0  0  0
 15 17  1  0  0  0
  8  9  1  0  0  0
  5  6  1  0  0  0
  2  3  1  0  0  0
 19 20  1  0  0  0
 28 30  1  0  0  0
M  END
> <minimizedAffinity>
-9.34920

$$$$
1LBF_137_A_300


 30 30  0  0  0  0  0  0  0  0999 V2000
   -7.1199  -20.1983   32.5925 C   0  0  0  0  0  0  0  0  0  0  0  0
   -6.3232  -19.3280   33.3417 O   0  0  0  0  0  0  0  0  0  0  0  0
   -6.1753  -19.7035   34.2238 H   0  0  0  0  0  0  0  0  0  0  0  0
   -6.4756  -21.5322   32.1080 C   0  0  0  0  0  0  0  0  0  0  0  0
   -5.8208  -22.0697   33.2510 O   0  0  0  0  0  0  0  0  0  0  0  0
   -5.1456  -21.4457   33.5600 H   0  0  0  0  0  0  0  0  0  0  0  0
   -5.3541  -21.3424   31.0523 C   0  0  0  0  0  0  0  0  0  0  0  0
   -5.1958  -19.9325   30.7699 O   0  0  0  0  0  0  0  0  0  0  0  0
   -6.0266  -19.5784   30.4159 H   0  0  0  0  0  0  0  0  0  0  0  0
   -5.7095  -22.0766   29.7451 C   0  0  0  0  0  0  0  0  0  0  0  0
   -6.9228  -22.4336   29.5740 O   0  0  0  0  0  0  0  0  0  0  0  0
   -7.6544  -22.8198   28.3324 P   0  0  0  0  0  0  0  0  0  0  0  0
   -6.7793  -22.8173   27.1505 O   0  0  0  0  0  0  0  0  0  0  0  0
   -8.7987  -21.8733   28.1698 O   0  0  0  0  0  0  0  0  0  0  0  0
   -8.0398  -24.1867   28.6089 O   0  0  0  0  0  0  0  0  0  0  0  0
   -9.2947  -22.1004   27.3678 H   0  0  0  0  0  0  0  0  0  0  0  0
   -8.5313  -24.5434   27.8525 H   0  0  0  0  0  0  0  0  0  0  0  0
   -8.4544  -20.3287   33.2765 C   0  0  0  0  0  0  0  0  0  0  0  0
   -8.9520  -21.6654   33.1069 N   0  0  0  0  0  0  0  0  0  0  0  0
   -8.3839  -22.3680   32.7160 H   0  0  0  0  0  0  0  0  0  0  0  0
  -11.1151  -22.7728   32.7058 C   0  0  0  0  0  0  0  0  0  0  0  0
  -10.2604  -21.9464   33.5091 C   0  0  0  0  0  0  0  0  0  0  0  0
  -10.7253  -21.3378   34.7068 C   0  0  0  0  0  0  0  0  0  0  0  0
  -12.0443  -21.5505   35.1009 C   0  0  0  0  0  0  0  0  0  0  0  0
  -12.9054  -22.3572   34.3099 C   0  0  0  0  0  0  0  0  0  0  0  0
  -12.4446  -22.9585   33.1337 C   0  0  0  0  0  0  0  0  0  0  0  0
  -10.6786  -23.5333   31.5193 C   0  0  0  0  0  0  0  0  0  0  0  0
   -9.7889  -23.1422   30.7759 O   0  0  0  0  0  0  0  0  0  0  0  0
  -11.2168  -24.6121   31.2801 O   0  0  0  0  0  0  0  0  0  0  0  0
   -9.3665  -22.3224   30.9417 H   0  0  0  0  0  0  0  0  0  0  0  0
 12 13  2  0  0  0
 12 14  1  0  0  0
 12 15  1  0  0  0
 12 11  1  0  0  0
 11 10  1  0  0  0
 10  7  1  0  0  0
  7  8  1  0  0  0
  7  4  1  0  0  0
  4  5  1  0  0  0
  4  1  1  0  0  0
  1  2  1  0  0  0
  1 18  1  0  0  0
 18 19  1  0  0  0
 19 22  1  0  0  0
 21 22  2  0  0  0
 21 26  1  0  0  0
 21 27  1  0  0  0
 22 23  1  0  0  0
 23 24  2  0  0  0
 24 25  1  0  0  0
 25 26  2  0  0  0
 27 28  1  0  0  0
 27 29  2  0  0  0
 14 16  1  0  0  0
 15 17  1  0  0  0
  8  9  1  0  0  0
  5  6  1  0  0  0
  2  3  1  0  0  0
 19 20  1  0  0  0
 28 30  1  0  0  0
M  END
> <minimizedAffinity>
-8.98165

$$$$
1LBF_137_A_300


 30 30  0  0  0  0  0  0  0  0999 V2000
   -6.8294  -21.5690   31.7920 C   0  0  0  0  0  0  0  0  0  0  0  0
   -6.2565  -22.6173   32.5175 O   0  0  0  0  0  0  0  0  0  0  0  0
   -6.8418  -23.3901   32.4861 H   0  0  0  0  0  0  0  0  0  0  0  0
   -6.8638  -21.6985   30.2391 C   0  0  0  0  0  0  0  0  0  0  0  0
   -8.1963  -22.0847   29.9241 O   0  0  0  0  0  0  0  0  0  0  0  0
   -8.3970  -22.9321   30.3515 H   0  0  0  0  0  0  0  0  0  0  0  0
   -5.9706  -22.8391   29.6828 C   0  0  0  0  0  0  0  0  0  0  0  0
   -4.5887  -22.4113   29.6882 O   0  0  0  0  0  0  0  0  0  0  0  0
   -4.4904  -21.6286   29.1236 H   0  0  0  0  0  0  0  0  0  0  0  0
   -6.3782  -23.1928   28.2396 C   0  0  0  0  0  0  0  0  0  0  0  0
   -5.4530  -23.5173   27.4225 O   0  0  0  0  0  0  0  0  0  0  0  0
   -5.2623  -23.1680   25.9847 P   0  0  0  0  0  0  0  0  0  0  0  0
   -4.5930  -21.8697   25.8142 O   0  0  0  0  0  0  0  0  0  0  0  0
   -6.6074  -23.1815   25.3346 O   0  0  0  0  0  0  0  0  0  0  0  0
   -4.3635  -24.2055   25.5274 O   0  0  0  0  0  0  0  0  0  0  0  0
   -6.5148  -22.9571   24.3955 H   0  0  0  0  0  0  0  0  0  0  0  0
   -4.1687  -24.0729   24.5864 H   0  0  0  0  0  0  0  0  0  0  0  0
   -8.1336  -21.1964   32.4449 C   0  0  0  0  0  0  0  0  0  0  0  0
   -8.8282  -22.3885   32.8442 N   0  0  0  0  0  0  0  0  0  0  0  0
   -8.4236  -23.2758   32.7090 H   0  0  0  0  0  0  0  0  0  0  0  0
  -11.2386  -22.8949   32.8459 C   0  0  0  0  0  0  0  0  0  0  0  0
  -10.0910  -22.2609   33.4289 C   0  0  0  0  0  0  0  0  0  0  0  0
  -10.2015  -21.4365   34.5817 C   0  0  0  0  0  0  0  0  0  0  0  0
  -11.4580  -21.2413   35.1507 C   0  0  0  0  0  0  0  0  0  0  0  0
  -12.6047  -21.8535   34.5780 C   0  0  0  0  0  0  0  0  0  0  0  0
  -12.4930  -22.6678   33.4458 C   0  0  0  0  0  0  0  0  0  0  0  0
  -11.1926  -23.8558   31.7274 C   0  0  0  0  0  0  0  0  0  0  0  0
  -11.9454  -24.8174   31.6527 O   0  0  0  0  0  0  0  0  0  0  0  0
  -10.3788  -23.6710   30.8251 O   0  0  0  0  0  0  0  0  0  0  0  0
  -12.5727  -24.9750   32.3306 H   0  0  0  0  0  0  0  0  0  0  0  0
 12 13  2  0  0  0
 12 14  1  0  0  0
 12 15  1  0  0  0
 12 11  1  0  0  0
 11 10  1  0  0  0
 10  7  1  0  0  0
  7  8  1  0  0  0
  7  4  1  0  0  0
  4  5  1  0  0  0
  4  1  1  0  0  0
  1  2  1  0  0  0
  1 18  1  0  0  0
 18 19  1  0  0  0
 19 22  1  0  0  0
 21 22  2  0  0  0
 21 26  1  0  0  0
 21 27  1  0  0  0
 22 23  1  0  0  0
 23 24  2  0  0  0
 24 25  1  0  0  0
 25 26  2  0  0  0
 27 28  1  0  0  0
 27 29  2  0  0  0
 14 16  1  0  0  0
 15 17  1  0  0  0
  8  9  1  0  0  0
  5  6  1  0  0  0
  2  3  1  0  0  0
 19 20  1  0  0  0
 28 30  1  0  0  0
M  END
> <minimizedAffinity>
-8.54590

$$$$
1LBF_137_A_300


 30 30  0  0  0  0  0  0  0  0999 V2000
   -6.0059  -21.1677   31.7272 C   0  0  0  0  0  0  0  0  0  0  0  0
   -4.6985  -21.4674   32.1202 O   0  0  0  0  0  0  0  0  0  0  0  0
   -4.6081  -22.4259   32.2383 H   0  0  0  0  0  0  0  0  0  0  0  0
   -6.4351  -21.5626   30.2819 C   0  0  0  0  0  0  0  0  0  0  0  0
   -7.6232  -22.3292   30.4394 O   0  0  0  0  0  0  0  0  0  0  0  0
   -7.4326  -23.1146   30.9759 H   0  0  0  0  0  0  0  0  0  0  0  0
   -5.4358  -22.5093   29.5652 C   0  0  0  0  0  0  0  0  0  0  0  0
   -4.2960  -21.7451   29.1077 O   0  0  0  0  0  0  0  0  0  0  0  0
   -4.5924  -21.0658   28.4819 H   0  0  0  0  0  0  0  0  0  0  0  0
   -6.1033  -23.1852   28.3521 C   0  0  0  0  0  0  0  0  0  0  0  0
   -5.3457  -23.6185   27.4208 O   0  0  0  0  0  0  0  0  0  0  0  0
   -5.3338  -23.3151   25.9602 P   0  0  0  0  0  0  0  0  0  0  0  0
   -6.6855  -23.3268   25.3810 O   0  0  0  0  0  0  0  0  0  0  0  0
   -4.4445  -24.3167   25.2983 O   0  0  0  0  0  0  0  0  0  0  0  0
   -4.8376  -21.9564   25.9270 O   0  0  0  0  0  0  0  0  0  0  0  0
   -4.4170  -24.1440   24.3442 H   0  0  0  0  0  0  0  0  0  0  0  0
   -4.7886  -21.6524   25.0072 H   0  0  0  0  0  0  0  0  0  0  0  0
   -6.9421  -21.5952   32.8258 C   0  0  0  0  0  0  0  0  0  0  0  0
   -7.8505  -20.5239   33.1261 N   0  0  0  0  0  0  0  0  0  0  0  0
   -7.6541  -19.6026   32.8403 H   0  0  0  0  0  0  0  0  0  0  0  0
   -9.1404  -20.4882   35.2240 C   0  0  0  0  0  0  0  0  0  0  0  0
   -9.0194  -20.8186   33.8329 C   0  0  0  0  0  0  0  0  0  0  0  0
  -10.0522  -21.5057   33.1386 C   0  0  0  0  0  0  0  0  0  0  0  0
  -11.2043  -21.8669   33.8333 C   0  0  0  0  0  0  0  0  0  0  0  0
  -11.3336  -21.5564   35.2134 C   0  0  0  0  0  0  0  0  0  0  0  0
  -10.3176  -20.8764   35.8937 C   0  0  0  0  0  0  0  0  0  0  0  0
   -8.1713  -19.6762   35.9842 C   0  0  0  0  0  0  0  0  0  0  0  0
   -7.6252  -18.6881   35.5126 O   0  0  0  0  0  0  0  0  0  0  0  0
   -7.9181  -19.9941   37.1442 O   0  0  0  0  0  0  0  0  0  0  0  0
   -7.8053  -18.4297   34.6301 H   0  0  0  0  0  0  0  0  0  0  0  0
 12 13  2  0  0  0
 12 14  1  0  0  0
 12 15  1  0  0  0
 12 11  1  0  0  0
 11 10  1  0  0  0
 10  7  1  0  0  0
  7  8  1  0  0  0
  7  4  1  0  0  0
  4  5  1  0  0  0
  4  1  1  0  0  0
  1  2  1  0  0  0
  1 18  1  0  0  0
 18 19  1  0  0  0
 19 22  1  0  0  0
 21 22  2  0  0  0
 21 26  1  0  0  0
 21 27  1  0  0  0
 22 23  1  0  0  0
 23 24  2  0  0  0
 24 25  1  0  0  0
 25 26  2  0  0  0
 27 28  1  0  0  0
 27 29  2  0  0  0
 14 16  1  0  0  0
 15 17  1  0  0  0
  8  9  1  0  0  0
  5  6  1  0  0  0
  2  3  1  0  0  0
 19 20  1  0  0  0
 28 30  1  0  0  0
M  END
> <minimizedAffinity>
-8.33416

$$$$
1LBF_137_A_300


 30 30  0  0  0  0  0  0  0  0999 V2000
   -5.4971  -20.7318   31.6608 C   0  0  0  0  0  0  0  0  0  0  0  0
   -5.0733  -21.6392   32.6357 O   0  0  0  0  0  0  0  0  0  0  0  0
   -5.8457  -22.0036   33.0957 H   0  0  0  0  0  0  0  0  0  0  0  0
   -6.1990  -21.3072   30.3937 C   0  0  0  0  0  0  0  0  0  0  0  0
   -7.5324  -21.5919   30.7999 O   0  0  0  0  0  0  0  0  0  0  0  0
   -7.5192  -22.2421   31.5196 H   0  0  0  0  0  0  0  0  0  0  0  0
   -5.6227  -22.6673   29.9180 C   0  0  0  0  0  0  0  0  0  0  0  0
   -4.1952  -22.6905   30.1512 O   0  0  0  0  0  0  0  0  0  0  0  0
   -3.7739  -21.9755   29.6491 H   0  0  0  0  0  0  0  0  0  0  0  0
   -5.8862  -22.8720   28.4137 C   0  0  0  0  0  0  0  0  0  0  0  0
   -6.9646  -22.3926   27.9279 O   0  0  0  0  0  0  0  0  0  0  0  0
   -8.3209  -22.9989   27.7923 P   0  0  0  0  0  0  0  0  0  0  0  0
   -8.4522  -24.2415   28.5678 O   0  0  0  0  0  0  0  0  0  0  0  0
   -8.5681  -23.2315   26.3374 O   0  0  0  0  0  0  0  0  0  0  0  0
   -9.1732  -21.9963   28.3939 O   0  0  0  0  0  0  0  0  0  0  0  0
   -9.4459  -23.6266   26.2177 H   0  0  0  0  0  0  0  0  0  0  0  0
  -10.0960  -22.2932   28.3590 H   0  0  0  0  0  0  0  0  0  0  0  0
   -6.2130  -19.5985   32.3455 C   0  0  0  0  0  0  0  0  0  0  0  0
   -7.4450  -20.0784   32.9067 N   0  0  0  0  0  0  0  0  0  0  0  0
   -8.2352  -20.2219   32.3373 H   0  0  0  0  0  0  0  0  0  0  0  0
   -7.6745  -21.6742   34.7688 C   0  0  0  0  0  0  0  0  0  0  0  0
   -7.4971  -20.3372   34.2790 C   0  0  0  0  0  0  0  0  0  0  0  0
   -7.4265  -19.2247   35.1611 C   0  0  0  0  0  0  0  0  0  0  0  0
   -7.5371  -19.4456   36.5320 C   0  0  0  0  0  0  0  0  0  0  0  0
   -7.7241  -20.7624   37.0309 C   0  0  0  0  0  0  0  0  0  0  0  0
   -7.7891  -21.8563   36.1612 C   0  0  0  0  0  0  0  0  0  0  0  0
   -7.6385  -22.8892   33.9328 C   0  0  0  0  0  0  0  0  0  0  0  0
   -6.7578  -23.7326   34.0328 O   0  0  0  0  0  0  0  0  0  0  0  0
   -8.5403  -23.0704   33.1176 O   0  0  0  0  0  0  0  0  0  0  0  0
   -6.0618  -23.6125   34.6485 H   0  0  0  0  0  0  0  0  0  0  0  0
 12 13  2  0  0  0
 12 14  1  0  0  0
 12 15  1  0  0  0
 12 11  1  0  0  0
 11 10  1  0  0  0
 10  7  1  0  0  0
  7  8  1  0  0  0
  7  4  1  0  0  0
  4  5  1  0  0  0
  4  1  1  0  0  0
  1  2  1  0  0  0
  1 18  1  0  0  0
 18 19  1  0  0  0
 19 22  1  0  0  0
 21 22  2  0  0  0
 21 26  1  0  0  0
 21 27  1  0  0  0
 22 23  1  0  0  0
 23 24  2  0  0  0
 24 25  1  0  0  0
 25 26  2  0  0  0
 27 28  1  0  0  0
 27 29  2  0  0  0
 14 16  1  0  0  0
 15 17  1  0  0  0
  8  9  1  0  0  0
  5  6  1  0  0  0
  2  3  1  0  0  0
 19 20  1  0  0  0
 28 30  1  0  0  0
M  END
> <minimizedAffinity>
-8.11939

$$$$
1LBF_137_A_300


 30 30  0  0  0  0  0  0  0  0999 V2000
   -7.1920  -21.8563   34.0475 C   0  0  0  0  0  0  0  0  0  0  0  0
   -7.0295  -22.7201   32.9609 O   0  0  0  0  0  0  0  0  0  0  0  0
   -7.6002  -22.4327   32.2311 H   0  0  0  0  0  0  0  0  0  0  0  0
   -6.6039  -20.4183   33.9225 C   0  0  0  0  0  0  0  0  0  0  0  0
   -7.5491  -19.5693   34.5627 O   0  0  0  0  0  0  0  0  0  0  0  0
   -8.4046  -19.6391   34.1109 H   0  0  0  0  0  0  0  0  0  0  0  0
   -6.5178  -19.8984   32.4628 C   0  0  0  0  0  0  0  0  0  0  0  0
   -7.7831  -20.1235   31.7988 O   0  0  0  0  0  0  0  0  0  0  0  0
   -7.9766  -21.0739   31.7851 H   0  0  0  0  0  0  0  0  0  0  0  0
   -5.4092  -20.6368   31.6883 C   0  0  0  0  0  0  0  0  0  0  0  0
   -5.5639  -20.7919   30.4309 O   0  0  0  0  0  0  0  0  0  0  0  0
   -5.5037  -22.0235   29.5910 P   0  0  0  0  0  0  0  0  0  0  0  0
   -6.7738  -22.2831   28.8967 O   0  0  0  0  0  0  0  0  0  0  0  0
   -5.1236  -23.1601   30.4829 O   0  0  0  0  0  0  0  0  0  0  0  0
   -4.5073  -21.6779   28.6003 O   0  0  0  0  0  0  0  0  0  0  0  0
   -5.0763  -23.9775   29.9627 H   0  0  0  0  0  0  0  0  0  0  0  0
   -4.3862  -22.4222   27.9902 H   0  0  0  0  0  0  0  0  0  0  0  0
   -8.6221  -21.9386   34.5102 C   0  0  0  0  0  0  0  0  0  0  0  0
   -9.4962  -21.5488   33.4391 N   0  0  0  0  0  0  0  0  0  0  0  0
   -9.2166  -20.8699   32.7832 H   0  0  0  0  0  0  0  0  0  0  0  0
  -11.0841  -22.9961   32.2349 C   0  0  0  0  0  0  0  0  0  0  0  0
  -10.7522  -22.1546   33.3487 C   0  0  0  0  0  0  0  0  0  0  0  0
  -11.6996  -21.8589   34.3664 C   0  0  0  0  0  0  0  0  0  0  0  0
  -12.9798  -22.3996   34.2708 C   0  0  0  0  0  0  0  0  0  0  0  0
  -13.3263  -23.2255   33.1681 C   0  0  0  0  0  0  0  0  0  0  0  0
  -12.3910  -23.5185   32.1698 C   0  0  0  0  0  0  0  0  0  0  0  0
  -10.1284  -23.4460   31.2049 C   0  0  0  0  0  0  0  0  0  0  0  0
   -9.1040  -22.8308   30.9421 O   0  0  0  0  0  0  0  0  0  0  0  0
  -10.3613  -24.4911   30.6014 O   0  0  0  0  0  0  0  0  0  0  0  0
   -8.9089  -22.0320   31.3915 H   0  0  0  0  0  0  0  0  0  0  0  0
 12 13  2  0  0  0
 12 14  1  0  0  0
 12 15  1  0  0  0
 12 11  1  0  0  0
 11 10  1  0  0  0
 10  7  1  0  0  0
  7  8  1  0  0  0
  7  4  1  0  0  0
  4  5  1  0  0  0
  4  1  1  0  0  0
  1  2  1  0  0  0
  1 18  1  0  0  0
 18 19  1  0  0  0
 19 22  1  0  0  0
 21 22  2  0  0  0
 21 26  1  0  0  0
 21 27  1  0  0  0
 22 23  1  0  0  0
 23 24  2  0  0  0
 24 25  1  0  0  0
 25 26  2  0  0  0
 27 28  1  0  0  0
 27 29  2  0  0  0
 14 16  1  0  0  0
 15 17  1  0  0  0
  8  9  1  0  0  0
  5  6  1  0  0  0
  2  3  1  0  0  0
 19 20  1  0  0  0
 28 30  1  0  0  0
M  END
> <minimizedAffinity>
-7.78890

$$$$
1LBF_137_A_300


 30 30  0  0  0  0  0  0  0  0999 V2000
   -9.3275  -24.1897   28.9784 C   0  0  0  0  0  0  0  0  0  0  0  0
  -10.0645  -24.7180   27.9148 O   0  0  0  0  0  0  0  0  0  0  0  0
  -10.7993  -24.1213   27.7028 H   0  0  0  0  0  0  0  0  0  0  0  0
   -8.4536  -22.9300   28.6975 C   0  0  0  0  0  0  0  0  0  0  0  0
   -8.4096  -22.8121   27.2803 O   0  0  0  0  0  0  0  0  0  0  0  0
   -8.0077  -23.6097   26.9019 H   0  0  0  0  0  0  0  0  0  0  0  0
   -6.9727  -23.0809   29.1362 C   0  0  0  0  0  0  0  0  0  0  0  0
   -6.7564  -22.3350   30.3567 O   0  0  0  0  0  0  0  0  0  0  0  0
   -6.9458  -21.3967   30.2000 H   0  0  0  0  0  0  0  0  0  0  0  0
   -6.0262  -22.5412   28.0468 C   0  0  0  0  0  0  0  0  0  0  0  0
   -5.5048  -23.3827   27.2413 O   0  0  0  0  0  0  0  0  0  0  0  0
   -5.2193  -23.2788   25.7807 P   0  0  0  0  0  0  0  0  0  0  0  0
   -6.4469  -23.3219   24.9720 O   0  0  0  0  0  0  0  0  0  0  0  0
   -4.2871  -24.3899   25.4226 O   0  0  0  0  0  0  0  0  0  0  0  0
   -4.6475  -21.9545   25.6673 O   0  0  0  0  0  0  0  0  0  0  0  0
   -4.0827  -24.3478   24.4753 H   0  0  0  0  0  0  0  0  0  0  0  0
   -4.4205  -21.7785   24.7408 H   0  0  0  0  0  0  0  0  0  0  0  0
  -10.2258  -24.1053   30.1834 C   0  0  0  0  0  0  0  0  0  0  0  0
   -9.7364  -23.0926   31.0767 N   0  0  0  0  0  0  0  0  0  0  0  0
   -8.8375  -22.7090   30.9585 H   0  0  0  0  0  0  0  0  0  0  0  0
  -10.1829  -21.5635   32.9552 C   0  0  0  0  0  0  0  0  0  0  0  0
  -10.5647  -22.6640   32.1174 C   0  0  0  0  0  0  0  0  0  0  0  0
  -11.7629  -23.3936   32.3472 C   0  0  0  0  0  0  0  0  0  0  0  0
  -12.5785  -23.0276   33.4156 C   0  0  0  0  0  0  0  0  0  0  0  0
  -12.2079  -21.9473   34.2602 C   0  0  0  0  0  0  0  0  0  0  0  0
  -11.0303  -21.2281   34.0298 C   0  0  0  0  0  0  0  0  0  0  0  0
   -9.0229  -20.6843   32.7143 C   0  0  0  0  0  0  0  0  0  0  0  0
   -7.8733  -21.1020   32.6870 O   0  0  0  0  0  0  0  0  0  0  0  0
   -9.2220  -19.4882   32.5131 O   0  0  0  0  0  0  0  0  0  0  0  0
   -7.7012  -22.0106   32.8380 H   0  0  0  0  0  0  0  0  0  0  0  0
 12 13  2  0  0  0
 12 14  1  0  0  0
 12 15  1  0  0  0
 12 11  1  0  0  0
 11 10  1  0  0  0
 10  7  1  0  0  0
  7  8  1  0  0  0
  7  4  1  0  0  0
  4  5  1  0  0  0
  4  1  1  0  0  0
  1  2  1  0  0  0
  1 18  1  0  0  0
 18 19  1  0  0  0
 19 22  1  0  0  0
 21 22  2  0  0  0
 21 26  1  0  0  0
 21 27  1  0  0  0
 22 23  1  0  0  0
 23 24  2  0  0  0
 24 25  1  0  0  0
 25 26  2  0  0  0
 27 28  1  0  0  0
 27 29  2  0  0  0
 14 16  1  0  0  0
 15 17  1  0  0  0
  8  9  1  0  0  0
  5  6  1  0  0  0
  2  3  1  0  0  0
 19 20  1  0  0  0
 28 30  1  0  0  0
M  END
> <minimizedAffinity>
-7.68220

$$$$
1LBF_137_A_300


 30 30  0  0  0  0  0  0  0  0999 V2000
   -6.1724  -21.7508   31.6700 C   0  0  0  0  0  0  0  0  0  0  0  0
   -7.3220  -21.0155   31.3679 O   0  0  0  0  0  0  0  0  0  0  0  0
   -7.2092  -20.1005   31.6694 H   0  0  0  0  0  0  0  0  0  0  0  0
   -4.8852  -21.4525   30.8433 C   0  0  0  0  0  0  0  0  0  0  0  0
   -5.0441  -20.1207   30.3688 O   0  0  0  0  0  0  0  0  0  0  0  0
   -5.8378  -20.0677   29.8138 H   0  0  0  0  0  0  0  0  0  0  0  0
   -4.7422  -22.3219   29.5658 C   0  0  0  0  0  0  0  0  0  0  0  0
   -4.3810  -21.4764   28.4490 O   0  0  0  0  0  0  0  0  0  0  0  0
   -5.0763  -20.8155   28.3056 H   0  0  0  0  0  0  0  0  0  0  0  0
   -6.0695  -23.0350   29.2434 C   0  0  0  0  0  0  0  0  0  0  0  0
   -6.9523  -22.3830   28.5919 O   0  0  0  0  0  0  0  0  0  0  0  0
   -8.4079  -22.6476   28.3995 P   0  0  0  0  0  0  0  0  0  0  0  0
   -8.8179  -22.4942   26.9955 O   0  0  0  0  0  0  0  0  0  0  0  0
   -9.1582  -21.7165   29.2950 O   0  0  0  0  0  0  0  0  0  0  0  0
   -8.5213  -24.0454   28.7553 O   0  0  0  0  0  0  0  0  0  0  0  0
  -10.1110  -21.8659   29.1913 H   0  0  0  0  0  0  0  0  0  0  0  0
   -9.4446  -24.3284   28.6643 H   0  0  0  0  0  0  0  0  0  0  0  0
   -5.9985  -21.7677   33.1652 C   0  0  0  0  0  0  0  0  0  0  0  0
   -6.9437  -22.6789   33.7479 N   0  0  0  0  0  0  0  0  0  0  0  0
   -6.8851  -23.6457   33.5714 H   0  0  0  0  0  0  0  0  0  0  0  0
   -9.2803  -21.9716   34.0733 C   0  0  0  0  0  0  0  0  0  0  0  0
   -7.9481  -22.1626   34.5708 C   0  0  0  0  0  0  0  0  0  0  0  0
   -7.5854  -21.7830   35.8919 C   0  0  0  0  0  0  0  0  0  0  0  0
   -8.5511  -21.2088   36.7154 C   0  0  0  0  0  0  0  0  0  0  0  0
   -9.8713  -21.0032   36.2330 C   0  0  0  0  0  0  0  0  0  0  0  0
  -10.2271  -21.3814   34.9339 C   0  0  0  0  0  0  0  0  0  0  0  0
   -9.7660  -22.4447   32.7630 C   0  0  0  0  0  0  0  0  0  0  0  0
   -9.7835  -23.6285   32.4544 O   0  0  0  0  0  0  0  0  0  0  0  0
  -10.1885  -21.6178   31.9577 O   0  0  0  0  0  0  0  0  0  0  0  0
   -9.4658  -24.2739   33.0548 H   0  0  0  0  0  0  0  0  0  0  0  0
 12 13  2  0  0  0
 12 14  1  0  0  0
 12 15  1  0  0  0
 12 11  1  0  0  0
 11 10  1  0  0  0
 10  7  1  0  0  0
  7  8  1  0  0  0
  7  4  1  0  0  0
  4  5  1  0  0  0
  4  1  1  0  0  0
  1  2  1  0  0  0
  1 18  1  0  0  0
 18 19  1  0  0  0
 19 22  1  0  0  0
 21 22  2  0  0  0
 21 26  1  0  0  0
 21 27  1  0  0  0
 22 23  1  0  0  0
 23 24  2  0  0  0
 24 25  1  0  0  0
 25 26  2  0  0  0
 27 28  1  0  0  0
 27 29  2  0  0  0
 14 16  1  0  0  0
 15 17  1  0  0  0
  8  9  1  0  0  0
  5  6  1  0  0  0
  2  3  1  0  0  0
 19 20  1  0  0  0
 28 30  1  0  0  0
M  END
> <minimizedAffinity>
-7.67496

$$$$
1LBF_137_A_300


 30 30  0  0  0  0  0  0  0  0999 V2000
   -9.7377  -24.5698   29.6902 C   0  0  0  0  0  0  0  0  0  0  0  0
   -9.9404  -25.9364   29.4786 O   0  0  0  0  0  0  0  0  0  0  0  0
  -10.8120  -26.0755   29.0763 H   0  0  0  0  0  0  0  0  0  0  0  0
   -9.4973  -23.6722   28.4389 C   0  0  0  0  0  0  0  0  0  0  0  0
   -9.6041  -24.5478   27.3226 O   0  0  0  0  0  0  0  0  0  0  0  0
   -8.9305  -25.2425   27.3910 H   0  0  0  0  0  0  0  0  0  0  0  0
   -8.0644  -23.0822   28.3536 C   0  0  0  0  0  0  0  0  0  0  0  0
   -7.1056  -24.1625   28.2735 O   0  0  0  0  0  0  0  0  0  0  0  0
   -7.1736  -24.7147   29.0681 H   0  0  0  0  0  0  0  0  0  0  0  0
   -7.7534  -22.2300   29.5990 C   0  0  0  0  0  0  0  0  0  0  0  0
   -6.6536  -21.5826   29.6175 O   0  0  0  0  0  0  0  0  0  0  0  0
   -5.3211  -21.9504   30.1786 P   0  0  0  0  0  0  0  0  0  0  0  0
   -4.9968  -23.3669   29.9526 O   0  0  0  0  0  0  0  0  0  0  0  0
   -5.3365  -21.6165   31.6346 O   0  0  0  0  0  0  0  0  0  0  0  0
   -4.4157  -21.1458   29.3871 O   0  0  0  0  0  0  0  0  0  0  0  0
   -4.4799  -21.8456   32.0280 H   0  0  0  0  0  0  0  0  0  0  0  0
   -3.5034  -21.3095   29.6732 H   0  0  0  0  0  0  0  0  0  0  0  0
  -10.7834  -24.0781   30.6549 C   0  0  0  0  0  0  0  0  0  0  0  0
  -10.2330  -24.0407   31.9811 N   0  0  0  0  0  0  0  0  0  0  0  0
   -9.5113  -24.6566   32.2440 H   0  0  0  0  0  0  0  0  0  0  0  0
   -9.8822  -22.1648   33.5382 C   0  0  0  0  0  0  0  0  0  0  0  0
  -10.7447  -23.1108   32.8900 C   0  0  0  0  0  0  0  0  0  0  0  0
  -12.1331  -23.1778   33.1879 C   0  0  0  0  0  0  0  0  0  0  0  0
  -12.6604  -22.3036   34.1357 C   0  0  0  0  0  0  0  0  0  0  0  0
  -11.8166  -21.3692   34.7936 C   0  0  0  0  0  0  0  0  0  0  0  0
  -10.4513  -21.3022   34.4958 C   0  0  0  0  0  0  0  0  0  0  0  0
   -8.4618  -21.9514   33.2011 C   0  0  0  0  0  0  0  0  0  0  0  0
   -7.6355  -22.8533   33.2257 O   0  0  0  0  0  0  0  0  0  0  0  0
   -8.0992  -20.8268   32.8629 O   0  0  0  0  0  0  0  0  0  0  0  0
   -7.8926  -23.7175   33.4808 H   0  0  0  0  0  0  0  0  0  0  0  0
 12 13  2  0  0  0
 12 14  1  0  0  0
 12 15  1  0  0  0
 12 11  1  0  0  0
 11 10  1  0  0  0
 10  7  1  0  0  0
  7  8  1  0  0  0
  7  4  1  0  0  0
  4  5  1  0  0  0
  4  1  1  0  0  0
  1  2  1  0  0  0
  1 18  1  0  0  0
 18 19  1  0  0  0
 19 22  1  0  0  0
 21 22  2  0  0  0
 21 26  1  0  0  0
 21 27  1  0  0  0
 22 23  1  0  0  0
 23 24  2  0  0  0
 24 25  1  0  0  0
 25 26  2  0  0  0
 27 28  1  0  0  0
 27 29  2  0  0  0
 14 16  1  0  0  0
 15 17  1  0  0  0
  8  9  1  0  0  0
  5  6  1  0  0  0
  2  3  1  0  0  0
 19 20  1  0  0  0
 28 30  1  0  0  0
M  END
> <minimizedAffinity>
-7.63275

$$$$
1LBF_137_A_300


 30 30  0  0  0  0  0  0  0  0999 V2000
   -8.8454  -22.8809   29.7754 C   0  0  0  0  0  0  0  0  0  0  0  0
   -9.7868  -23.8728   29.4870 O   0  0  0  0  0  0  0  0  0  0  0  0
  -10.5542  -23.4727   29.0489 H   0  0  0  0  0  0  0  0  0  0  0  0
   -8.0598  -22.2602   28.5809 C   0  0  0  0  0  0  0  0  0  0  0  0
   -8.7199  -22.7317   27.4121 O   0  0  0  0  0  0  0  0  0  0  0  0
   -8.6848  -23.7008   27.3896 H   0  0  0  0  0  0  0  0  0  0  0  0
   -6.6001  -22.7714   28.4541 C   0  0  0  0  0  0  0  0  0  0  0  0
   -6.5866  -24.2138   28.5631 O   0  0  0  0  0  0  0  0  0  0  0  0
   -6.9396  -24.4761   29.4277 H   0  0  0  0  0  0  0  0  0  0  0  0
   -5.7185  -22.1782   29.5699 C   0  0  0  0  0  0  0  0  0  0  0  0
   -6.1908  -21.2051   30.2475 O   0  0  0  0  0  0  0  0  0  0  0  0
   -5.7365  -20.6114   31.5385 P   0  0  0  0  0  0  0  0  0  0  0  0
   -4.9399  -19.3918   31.3373 O   0  0  0  0  0  0  0  0  0  0  0  0
   -4.9612  -21.6589   32.2691 O   0  0  0  0  0  0  0  0  0  0  0  0
   -6.9850  -20.2394   32.1682 O   0  0  0  0  0  0  0  0  0  0  0  0
   -4.6517  -21.3005   33.1156 H   0  0  0  0  0  0  0  0  0  0  0  0
   -6.8040  -19.8355   33.0313 H   0  0  0  0  0  0  0  0  0  0  0  0
   -9.4690  -21.8965   30.7284 C   0  0  0  0  0  0  0  0  0  0  0  0
   -9.4172  -22.4226   32.0639 N   0  0  0  0  0  0  0  0  0  0  0  0
   -8.5935  -22.8361   32.4102 H   0  0  0  0  0  0  0  0  0  0  0  0
  -10.5611  -21.5545   34.0649 C   0  0  0  0  0  0  0  0  0  0  0  0
  -10.5618  -22.3346   32.8606 C   0  0  0  0  0  0  0  0  0  0  0  0
  -11.6988  -23.0900   32.4639 C   0  0  0  0  0  0  0  0  0  0  0  0
  -12.8341  -23.0702   33.2709 C   0  0  0  0  0  0  0  0  0  0  0  0
  -12.8442  -22.3114   34.4717 C   0  0  0  0  0  0  0  0  0  0  0  0
  -11.7254  -21.5654   34.8581 C   0  0  0  0  0  0  0  0  0  0  0  0
   -9.4708  -20.6532   34.4839 C   0  0  0  0  0  0  0  0  0  0  0  0
   -9.1136  -19.6940   33.8135 O   0  0  0  0  0  0  0  0  0  0  0  0
   -8.9132  -20.8632   35.5589 O   0  0  0  0  0  0  0  0  0  0  0  0
   -9.5266  -19.5174   32.9912 H   0  0  0  0  0  0  0  0  0  0  0  0
 12 13  2  0  0  0
 12 14  1  0  0  0
 12 15  1  0  0  0
 12 11  1  0  0  0
 11 10  1  0  0  0
 10  7  1  0  0  0
  7  8  1  0  0  0
  7  4  1  0  0  0
  4  5  1  0  0  0
  4  1  1  0  0  0
  1  2  1  0  0  0
  1 18  1  0  0  0
 18 19  1  0  0  0
 19 22  1  0  0  0
 21 22  2  0  0  0
 21 26  1  0  0  0
 21 27  1  0  0  0
 22 23  1  0  0  0
 23 24  2  0  0  0
 24 25  1  0  0  0
 25 26  2  0  0  0
 27 28  1  0  0  0
 27 29  2  0  0  0
 14 16  1  0  0  0
 15 17  1  0  0  0
  8  9  1  0  0  0
  5  6  1  0  0  0
  2  3  1  0  0  0
 19 20  1  0  0  0
 28 30  1  0  0  0
M  END
> <minimizedAffinity>
-7.60191

$$$$
