1LBF_137_A_300
  RCSB PDB12061703103D
Coordinates from PDB:1LBF:A:300 Model:1 without hydrogens
 23 23  0  0  0  0            999 V2000
   -6.3130  -23.0150   28.0760   P 0  0  0  0  0  0  0  0  0  0  0  0
   -5.0920  -22.9280   27.2610   O 0  0  0  0  0  0  0  0  0  0  0  0
   -7.5040  -22.4980   27.3370   O 0  0  0  0  0  0  0  0  0  0  0  0
   -6.4450  -24.3750   28.5520   O 0  0  0  0  0  0  0  0  0  0  0  0
   -6.1980  -22.2390   29.3450   O 0  0  0  0  0  0  0  0  0  0  0  0
   -5.1760  -21.9580   30.0560   C 0  0  0  0  0  0  0  0  0  0  0  0
   -5.4090  -21.2230   31.3900   C 0  0  0  0  0  0  0  0  0  0  0  0
   -5.4830  -19.8010   31.1350   O 0  0  0  0  0  0  0  0  0  0  0  0
   -6.7310  -21.6960   32.0510   C 0  0  0  0  0  0  0  0  0  0  0  0
   -6.4440  -22.9900   32.5680   O 0  0  0  0  0  0  0  0  0  0  0  0
   -7.1600  -20.8460   33.2850   C 0  0  0  0  0  0  0  0  0  0  0  0
   -6.1590  -20.4380   34.1710   O 0  0  0  0  0  0  0  0  0  0  0  0
   -8.3100  -21.3940   34.0870   C 0  0  0  0  0  0  0  0  0  0  0  0
   -9.2920  -21.9510   33.1990   N 0  0  0  0  0  0  0  0  0  0  0  0
  -11.5690  -22.8590   32.9600   C 0  0  0  0  0  0  0  0  0  0  0  0
  -10.6200  -22.0160   33.6290   C 0  0  0  0  0  0  0  0  0  0  0  0
  -11.0030  -21.1760   34.7100   C 0  0  0  0  0  0  0  0  0  0  0  0
  -12.3340  -21.1740   35.1210   C 0  0  0  0  0  0  0  0  0  0  0  0
  -13.2870  -21.9950   34.4610   C 0  0  0  0  0  0  0  0  0  0  0  0
  -12.9070  -22.8240   33.4000   C 0  0  0  0  0  0  0  0  0  0  0  0
  -11.2310  -23.8430   31.9140   C 0  0  0  0  0  0  0  0  0  0  0  0
  -10.1010  -23.9610   31.4600   O 0  0  0  0  0  0  0  0  0  0  0  0
  -12.1160  -24.5870   31.4970   O 0  0  0  0  0  0  0  0  0  0  0  0
  1  2  2  0  0  0  0
  1  3  1  0  0  0  0
  1  4  1  0  0  0  0
  1  5  1  0  0  0  0
  5  6  1  0  0  0  0
  6  7  1  0  0  0  0
  7  8  1  0  0  0  0
  7  9  1  0  0  0  0
  9 10  1  0  0  0  0
  9 11  1  0  0  0  0
 11 12  1  0  0  0  0
 11 13  1  0  0  0  0
 13 14  1  0  0  0  0
 14 16  1  0  0  0  0
 15 16  2  0  0  0  0
 15 20  1  0  0  0  0
 15 21  1  0  0  0  0
 16 17  1  0  0  0  0
 17 18  2  0  0  0  0
 18 19  1  0  0  0  0
 19 20  2  0  0  0  0
 21 22  1  0  0  0  0
 21 23  2  0  0  0  0
A    1
P
A    2
O1P
A    3
O2P
A    4
O3P
A    5
O5'
A    6
C5'
A    7
C4'
A    8
O4'
A    9
C3'
A   10
O3'
A   11
C2'
A   12
O2'
A   13
C1'
A   14
NH
A   15
C1
A   16
C2
A   17
C3
A   18
C4
A   19
C5
A   20
C6
A   21
C7
A   22
O71
A   23
O72
M  END
>  <InstanceId>
1LBF_137_A_300

>  <ChemCompId>
137

>  <PdbId>
1LBF

>  <ChainId>
A

>  <ResidueNumber>
300

>  <InsertionCode>


>  <Model>
1

>  <AltIds>


>  <MissingHeavyAtoms>
0

>  <ObservedFormula>
C12 N O9 P

>  <Name>
1-(O-CARBOXY-PHENYLAMINO)-1-DEOXY-D-RIBULOSE-5-PHOSPHATE

>  <SystematicName>
2-[[(2R,3S,4R)-2,3,4-trihydroxy-5-phosphonooxy-pentyl]amino]benzoic acid

>  <Synonyms>


>  <Type>
NON-POLYMER

>  <Formula>
C12 H18 N O9 P

>  <MolecularWeight>
351.246

>  <ModifiedDate>
2011-06-04

>  <Parent>


>  <OneLetterCode>


>  <SubcomponentList>


>  <AmbiguousFlag>
N

>  <InChI>
InChI=1S/C12H18NO9P/c14-9(11(16)10(15)6-22-23(19,20)21)5-13-8-4-2-1-3-7(8)12(17)18/h1-4,9-11,13-16H,5-6H2,(H,17,18)(H2,19,20,21)/t9-,10-,11+/m1/s1

>  <InChIKey>
AULMJMUNCOBRHC-MXWKQRLJSA-N

>  <SMILES>
c1ccc(c(c1)C(=O)O)NC[C@H]([C@@H]([C@@H](COP(=O)(O)O)O)O)O

$$$$
