3AQT_RCO_A_230


 10 10  0  0  0  0  0  0  0  0999 V2000
   54.5362   30.1809   20.5674 C   0  0  0  0  0  0  0  0  0  0  0  0
   54.6575   29.0817   21.4640 C   0  0  0  0  0  0  0  0  0  0  0  0
   55.9103   28.4301   21.6384 C   0  0  0  0  0  0  0  0  0  0  0  0
   57.0285   28.8849   20.9119 C   0  0  0  0  0  0  0  0  0  0  0  0
   56.9137   29.9704   20.0232 C   0  0  0  0  0  0  0  0  0  0  0  0
   55.6624   30.6206   19.8480 C   0  0  0  0  0  0  0  0  0  0  0  0
   53.2953   30.8081   20.4162 O   0  0  0  0  0  0  0  0  0  0  0  0
   56.0447   27.3455   22.5153 O   0  0  0  0  0  0  0  0  0  0  0  0
   52.5542   30.5038   20.9022 H   0  0  0  0  0  0  0  0  0  0  0  0
   55.3032   27.0403   23.0001 H   0  0  0  0  0  0  0  0  0  0  0  0
  1  2  2  0  0  0
  1  6  1  0  0  0
  1  7  1  0  0  0
  2  3  1  0  0  0
  3  4  2  0  0  0
  3  8  1  0  0  0
  4  5  1  0  0  0
  5  6  2  0  0  0
  7  9  1  0  0  0
  8 10  1  0  0  0
M  END
> <minimizedAffinity>
-5.77651

$$$$
3AQT_RCO_A_230


 10 10  0  0  0  0  0  0  0  0999 V2000
   55.9319   28.4177   21.6410 C   0  0  0  0  0  0  0  0  0  0  0  0
   54.6698   29.0570   21.4824 C   0  0  0  0  0  0  0  0  0  0  0  0
   54.5279   30.1594   20.5941 C   0  0  0  0  0  0  0  0  0  0  0  0
   55.6520   30.6114   19.8748 C   0  0  0  0  0  0  0  0  0  0  0  0
   56.9024   29.9838   20.0289 C   0  0  0  0  0  0  0  0  0  0  0  0
   57.0445   28.8835   20.9168 C   0  0  0  0  0  0  0  0  0  0  0  0
   56.0455   27.3331   22.5166 O   0  0  0  0  0  0  0  0  0  0  0  0
   53.2928   30.8002   20.4292 O   0  0  0  0  0  0  0  0  0  0  0  0
   55.2954   27.0343   22.9920 H   0  0  0  0  0  0  0  0  0  0  0  0
   52.5431   30.5023   20.9059 H   0  0  0  0  0  0  0  0  0  0  0  0
  1  2  2  0  0  0
  1  6  1  0  0  0
  1  7  1  0  0  0
  2  3  1  0  0  0
  3  4  2  0  0  0
  3  8  1  0  0  0
  4  5  1  0  0  0
  5  6  2  0  0  0
  7  9  1  0  0  0
  8 10  1  0  0  0
M  END
> <minimizedAffinity>
-5.76933

$$$$
3AQT_RCO_A_230


 10 10  0  0  0  0  0  0  0  0999 V2000
   54.8387   28.5881   21.7685 C   0  0  0  0  0  0  0  0  0  0  0  0
   54.7015   29.7091   20.9016 C   0  0  0  0  0  0  0  0  0  0  0  0
   55.8242   30.2028   20.1803 C   0  0  0  0  0  0  0  0  0  0  0  0
   57.0733   29.5696   20.3356 C   0  0  0  0  0  0  0  0  0  0  0  0
   57.2146   28.4618   21.1923 C   0  0  0  0  0  0  0  0  0  0  0  0
   56.0938   27.9694   21.9137 C   0  0  0  0  0  0  0  0  0  0  0  0
   53.7196   28.1184   22.4634 O   0  0  0  0  0  0  0  0  0  0  0  0
   55.7053   31.3065   19.3253 O   0  0  0  0  0  0  0  0  0  0  0  0
   52.8902   28.5410   22.3564 H   0  0  0  0  0  0  0  0  0  0  0  0
   54.8762   31.7300   19.2195 H   0  0  0  0  0  0  0  0  0  0  0  0
  1  2  2  0  0  0
  1  6  1  0  0  0
  1  7  1  0  0  0
  2  3  1  0  0  0
  3  4  2  0  0  0
  3  8  1  0  0  0
  4  5  1  0  0  0
  5  6  2  0  0  0
  7  9  1  0  0  0
  8 10  1  0  0  0
M  END
> <minimizedAffinity>
-5.60397

$$$$
3AQT_RCO_A_230


 10 10  0  0  0  0  0  0  0  0999 V2000
   55.8444   30.1865   20.1840 C   0  0  0  0  0  0  0  0  0  0  0  0
   54.7070   29.7150   20.8988 C   0  0  0  0  0  0  0  0  0  0  0  0
   54.8176   28.5956   21.7701 C   0  0  0  0  0  0  0  0  0  0  0  0
   56.0660   27.9587   21.9155 C   0  0  0  0  0  0  0  0  0  0  0  0
   57.1933   28.4200   21.2102 C   0  0  0  0  0  0  0  0  0  0  0  0
   57.0828   29.5372   20.3391 C   0  0  0  0  0  0  0  0  0  0  0  0
   55.7118   31.2914   19.3370 O   0  0  0  0  0  0  0  0  0  0  0  0
   53.7067   28.1187   22.4784 O   0  0  0  0  0  0  0  0  0  0  0  0
   54.8804   31.7133   19.2440 H   0  0  0  0  0  0  0  0  0  0  0  0
   52.8749   28.5397   22.3842 H   0  0  0  0  0  0  0  0  0  0  0  0
  1  2  2  0  0  0
  1  6  1  0  0  0
  1  7  1  0  0  0
  2  3  1  0  0  0
  3  4  2  0  0  0
  3  8  1  0  0  0
  4  5  1  0  0  0
  5  6  2  0  0  0
  7  9  1  0  0  0
  8 10  1  0  0  0
M  END
> <minimizedAffinity>
-5.59969

$$$$
3AQT_RCO_A_230


 10 10  0  0  0  0  0  0  0  0999 V2000
   56.6617   29.3590   19.9200 C   0  0  0  0  0  0  0  0  0  0  0  0
   55.5265   30.2151   19.9926 C   0  0  0  0  0  0  0  0  0  0  0  0
   54.5063   29.9776   20.9555 C   0  0  0  0  0  0  0  0  0  0  0  0
   54.6325   28.8842   21.8350 C   0  0  0  0  0  0  0  0  0  0  0  0
   55.7522   28.0339   21.7667 C   0  0  0  0  0  0  0  0  0  0  0  0
   56.7706   28.2702   20.8043 C   0  0  0  0  0  0  0  0  0  0  0  0
   57.6536   29.6154   18.9681 O   0  0  0  0  0  0  0  0  0  0  0  0
   53.3821   30.8101   21.0375 O   0  0  0  0  0  0  0  0  0  0  0  0
   57.5670   30.3445   18.3859 H   0  0  0  0  0  0  0  0  0  0  0  0
   53.2948   31.5382   20.4542 H   0  0  0  0  0  0  0  0  0  0  0  0
  1  2  2  0  0  0
  1  6  1  0  0  0
  1  7  1  0  0  0
  2  3  1  0  0  0
  3  4  2  0  0  0
  3  8  1  0  0  0
  4  5  1  0  0  0
  5  6  2  0  0  0
  7  9  1  0  0  0
  8 10  1  0  0  0
M  END
> <minimizedAffinity>
-5.15812

$$$$
3AQT_RCO_A_230


 10 10  0  0  0  0  0  0  0  0999 V2000
   54.5824   28.3799   21.8709 C   0  0  0  0  0  0  0  0  0  0  0  0
   55.7842   27.6435   22.0716 C   0  0  0  0  0  0  0  0  0  0  0  0
   57.0366   28.1869   21.6709 C   0  0  0  0  0  0  0  0  0  0  0  0
   57.0726   29.4616   21.0718 C   0  0  0  0  0  0  0  0  0  0  0  0
   55.8873   30.1933   20.8699 C   0  0  0  0  0  0  0  0  0  0  0  0
   54.6362   29.6504   21.2690 C   0  0  0  0  0  0  0  0  0  0  0  0
   53.3638   27.8267   22.2772 O   0  0  0  0  0  0  0  0  0  0  0  0
   58.2276   27.4731   21.8597 O   0  0  0  0  0  0  0  0  0  0  0  0
   53.3440   26.9794   22.6767 H   0  0  0  0  0  0  0  0  0  0  0  0
   58.2074   26.6251   22.2578 H   0  0  0  0  0  0  0  0  0  0  0  0
  1  2  2  0  0  0
  1  6  1  0  0  0
  1  7  1  0  0  0
  2  3  1  0  0  0
  3  4  2  0  0  0
  3  8  1  0  0  0
  4  5  1  0  0  0
  5  6  2  0  0  0
  7  9  1  0  0  0
  8 10  1  0  0  0
M  END
> <minimizedAffinity>
-4.82789

$$$$
3AQT_RCO_A_230


 10 10  0  0  0  0  0  0  0  0999 V2000
   57.0738   28.2829   21.5170 C   0  0  0  0  0  0  0  0  0  0  0  0
   55.8534   27.7165   21.9826 C   0  0  0  0  0  0  0  0  0  0  0  0
   54.6325   28.4365   21.8592 C   0  0  0  0  0  0  0  0  0  0  0  0
   54.6463   29.7173   21.2722 C   0  0  0  0  0  0  0  0  0  0  0  0
   55.8502   30.2824   20.8114 C   0  0  0  0  0  0  0  0  0  0  0  0
   57.0699   29.5640   20.9356 C   0  0  0  0  0  0  0  0  0  0  0  0
   58.2604   27.5540   21.6451 O   0  0  0  0  0  0  0  0  0  0  0  0
   53.4240   27.8932   22.3149 O   0  0  0  0  0  0  0  0  0  0  0  0
   58.2471   26.7019   22.0346 H   0  0  0  0  0  0  0  0  0  0  0  0
   53.4110   27.0417   22.7058 H   0  0  0  0  0  0  0  0  0  0  0  0
  1  2  2  0  0  0
  1  6  1  0  0  0
  1  7  1  0  0  0
  2  3  1  0  0  0
  3  4  2  0  0  0
  3  8  1  0  0  0
  4  5  1  0  0  0
  5  6  2  0  0  0
  7  9  1  0  0  0
  8 10  1  0  0  0
M  END
> <minimizedAffinity>
-4.77874

$$$$
3AQT_RCO_A_230


 10 10  0  0  0  0  0  0  0  0999 V2000
   56.7833   29.5905   20.4901 C   0  0  0  0  0  0  0  0  0  0  0  0
   56.0254   28.8286   21.4238 C   0  0  0  0  0  0  0  0  0  0  0  0
   54.6240   29.0373   21.5541 C   0  0  0  0  0  0  0  0  0  0  0  0
   53.9960   30.0081   20.7489 C   0  0  0  0  0  0  0  0  0  0  0  0
   54.7409   30.7650   19.8251 C   0  0  0  0  0  0  0  0  0  0  0  0
   56.1406   30.5576   19.6956 C   0  0  0  0  0  0  0  0  0  0  0  0
   58.1587   29.3642   20.3769 O   0  0  0  0  0  0  0  0  0  0  0  0
   53.8653   28.2968   22.4703 O   0  0  0  0  0  0  0  0  0  0  0  0
   58.5726   28.7166   20.9129 H   0  0  0  0  0  0  0  0  0  0  0  0
   54.2795   27.6503   23.0073 H   0  0  0  0  0  0  0  0  0  0  0  0
  1  2  2  0  0  0
  1  6  1  0  0  0
  1  7  1  0  0  0
  2  3  1  0  0  0
  3  4  2  0  0  0
  3  8  1  0  0  0
  4  5  1  0  0  0
  5  6  2  0  0  0
  7  9  1  0  0  0
  8 10  1  0  0  0
M  END
> <minimizedAffinity>
-4.57239

$$$$
3AQT_RCO_A_230


 10 10  0  0  0  0  0  0  0  0999 V2000
   56.8431   28.3223   21.5666 C   0  0  0  0  0  0  0  0  0  0  0  0
   56.9445   29.4350   20.6843 C   0  0  0  0  0  0  0  0  0  0  0  0
   55.7878   30.1887   20.3405 C   0  0  0  0  0  0  0  0  0  0  0  0
   54.5408   29.8195   20.8825 C   0  0  0  0  0  0  0  0  0  0  0  0
   54.4347   28.7195   21.7543 C   0  0  0  0  0  0  0  0  0  0  0  0
   55.5896   27.9659   22.0969 C   0  0  0  0  0  0  0  0  0  0  0  0
   57.9950   27.5996   21.8933 O   0  0  0  0  0  0  0  0  0  0  0  0
   55.8715   31.2849   19.4717 O   0  0  0  0  0  0  0  0  0  0  0  0
   58.8228   27.8491   21.5321 H   0  0  0  0  0  0  0  0  0  0  0  0
   56.6991   31.5333   19.1093 H   0  0  0  0  0  0  0  0  0  0  0  0
  1  2  2  0  0  0
  1  6  1  0  0  0
  1  7  1  0  0  0
  2  3  1  0  0  0
  3  4  2  0  0  0
  3  8  1  0  0  0
  4  5  1  0  0  0
  5  6  2  0  0  0
  7  9  1  0  0  0
  8 10  1  0  0  0
M  END
> <minimizedAffinity>
-4.50505

$$$$
3AQT_RCO_A_230


 10 10  0  0  0  0  0  0  0  0999 V2000
   55.7672   30.1560   20.4702 C   0  0  0  0  0  0  0  0  0  0  0  0
   56.9268   29.3844   20.7648 C   0  0  0  0  0  0  0  0  0  0  0  0
   56.8363   28.2428   21.6092 C   0  0  0  0  0  0  0  0  0  0  0  0
   55.5856   27.8864   22.1513 C   0  0  0  0  0  0  0  0  0  0  0  0
   54.4363   28.6466   21.8642 C   0  0  0  0  0  0  0  0  0  0  0  0
   54.5266   29.7874   21.0219 C   0  0  0  0  0  0  0  0  0  0  0  0
   55.8805   31.2713   19.6340 O   0  0  0  0  0  0  0  0  0  0  0  0
   57.9691   27.4750   21.9101 O   0  0  0  0  0  0  0  0  0  0  0  0
   56.7136   31.5043   19.2741 H   0  0  0  0  0  0  0  0  0  0  0  0
   58.8025   27.7090   21.5514 H   0  0  0  0  0  0  0  0  0  0  0  0
  1  2  2  0  0  0
  1  6  1  0  0  0
  1  7  1  0  0  0
  2  3  1  0  0  0
  3  4  2  0  0  0
  3  8  1  0  0  0
  4  5  1  0  0  0
  5  6  2  0  0  0
  7  9  1  0  0  0
  8 10  1  0  0  0
M  END
> <minimizedAffinity>
-4.48419

$$$$
