3AQT_RCO_A_230
  RCSB PDB12061707553D
Coordinates from PDB:3AQT:A:230 Model:1 without hydrogens
  8  8  0  0  0  0            999 V2000
   54.5300   28.4260   21.8790   C 0  0  0  0  0  0  0  0  0  0  0  0
   54.4670   29.5730   21.0380   C 0  0  0  0  0  0  0  0  0  0  0  0
   55.6090   29.9850   20.2960   C 0  0  0  0  0  0  0  0  0  0  0  0
   56.8030   29.2450   20.4050   C 0  0  0  0  0  0  0  0  0  0  0  0
   56.8710   28.1110   21.2360   C 0  0  0  0  0  0  0  0  0  0  0  0
   55.7310   27.7000   21.9780   C 0  0  0  0  0  0  0  0  0  0  0  0
   53.3930   28.0380   22.5950   O 0  0  0  0  0  0  0  0  0  0  0  0
   55.5630   31.1130   19.4660   O 0  0  0  0  0  0  0  0  0  0  0  0
  1  2  2  0  0  0  0
  1  6  1  0  0  0  0
  1  7  1  0  0  0  0
  2  3  1  0  0  0  0
  3  4  2  0  0  0  0
  3  8  1  0  0  0  0
  4  5  1  0  0  0  0
  5  6  2  0  0  0  0
A    1
C1
A    2
C2
A    3
C3
A    4
C4
A    5
C5
A    6
C6
A    7
O1
A    8
O3
M  END
>  <InstanceId>
3AQT_RCO_A_230

>  <ChemCompId>
RCO

>  <PdbId>
3AQT

>  <ChainId>
A

>  <ResidueNumber>
230

>  <InsertionCode>


>  <Model>
1

>  <AltIds>


>  <MissingHeavyAtoms>
0

>  <ObservedFormula>
C6 O2

>  <Name>
RESORCINOL

>  <SystematicName>
benzene-1,3-diol

>  <Synonyms>
1,3-BENZENEDIOL; 1,3-DIHYDROXYBENZENE

>  <Type>
NON-POLYMER

>  <Formula>
C6 H6 O2

>  <MolecularWeight>
110.111

>  <ModifiedDate>
2011-06-04

>  <Parent>


>  <OneLetterCode>


>  <SubcomponentList>


>  <AmbiguousFlag>
N

>  <InChI>
InChI=1S/C6H6O2/c7-5-2-1-3-6(8)4-5/h1-4,7-8H

>  <InChIKey>
GHMLBKRAJCXXBS-UHFFFAOYSA-N

>  <SMILES>
c1cc(cc(c1)O)O

$$$$
