1AVN_HSM_A_264


 11 11  0  0  0  0  0  0  0  0999 V2000
   -4.3555    3.0065   13.6276 C   0  0  0  0  0  0  0  0  0  0  0  0
   -5.5627    3.4610   14.1059 N   0  0  0  0  0  0  0  0  0  0  0  0
   -3.4874    4.0104   13.8922 C   0  0  0  0  0  0  0  0  0  0  0  0
   -5.4578    4.6537   14.6459 C   0  0  0  0  0  0  0  0  0  0  0  0
   -4.1972    5.0058   14.5328 N   0  0  0  0  0  0  0  0  0  0  0  0
   -3.8155    5.8536   14.8568 H   0  0  0  0  0  0  0  0  0  0  0  0
   -4.2007    1.6786   12.9663 C   0  0  0  0  0  0  0  0  0  0  0  0
   -5.7912    2.2578   11.1346 N   0  0  0  0  0  0  0  0  0  0  0  0
   -4.7946    1.2898   11.6197 C   0  0  0  0  0  0  0  0  0  0  0  0
   -6.1545    1.9488   10.2330 H   0  0  0  0  0  0  0  0  0  0  0  0
   -5.3531    3.1728   11.0292 H   0  0  0  0  0  0  0  0  0  0  0  0
  8  9  1  0  0  0
  9  7  1  0  0  0
  7  1  1  0  0  0
  1  2  1  0  0  0
  1  3  2  0  0  0
  2  4  2  0  0  0
  3  5  1  0  0  0
  4  5  1  0  0  0
  8 10  1  0  0  0
  8 11  1  0  0  0
  5  6  1  0  0  0
M  END
> <minimizedAffinity>
-3.70440

$$$$
1AVN_HSM_A_264


 11 11  0  0  0  0  0  0  0  0999 V2000
   -3.1840    3.3466   12.2972 C   0  0  0  0  0  0  0  0  0  0  0  0
   -3.4148    2.1912   13.0075 N   0  0  0  0  0  0  0  0  0  0  0  0
   -4.0860    3.3096   11.2890 C   0  0  0  0  0  0  0  0  0  0  0  0
   -4.3993    1.4893   12.4942 C   0  0  0  0  0  0  0  0  0  0  0  0
   -4.8288    2.1573   11.4477 N   0  0  0  0  0  0  0  0  0  0  0  0
   -5.5703    1.8774   10.8635 H   0  0  0  0  0  0  0  0  0  0  0  0
   -2.1189    4.3215   12.6710 C   0  0  0  0  0  0  0  0  0  0  0  0
   -1.5448    3.8777   15.0572 N   0  0  0  0  0  0  0  0  0  0  0  0
   -1.9029    4.9009   14.0620 C   0  0  0  0  0  0  0  0  0  0  0  0
   -1.4126    4.3198   15.9669 H   0  0  0  0  0  0  0  0  0  0  0  0
   -0.6802    3.4163   14.7744 H   0  0  0  0  0  0  0  0  0  0  0  0
  8  9  1  0  0  0
  9  7  1  0  0  0
  7  1  1  0  0  0
  1  2  1  0  0  0
  1  3  2  0  0  0
  2  4  2  0  0  0
  3  5  1  0  0  0
  4  5  1  0  0  0
  8 10  1  0  0  0
  8 11  1  0  0  0
  5  6  1  0  0  0
M  END
> <minimizedAffinity>
-3.63100

$$$$
1AVN_HSM_A_264


 11 11  0  0  0  0  0  0  0  0999 V2000
   -5.2073    3.0924   14.3887 C   0  0  0  0  0  0  0  0  0  0  0  0
   -4.9959    2.9641   13.0354 N   0  0  0  0  0  0  0  0  0  0  0  0
   -4.6372    1.9889   14.9261 C   0  0  0  0  0  0  0  0  0  0  0  0
   -4.3281    1.8708   12.7456 C   0  0  0  0  0  0  0  0  0  0  0  0
   -4.0923    1.2632   13.8862 N   0  0  0  0  0  0  0  0  0  0  0  0
   -3.6001    0.4163   13.9847 H   0  0  0  0  0  0  0  0  0  0  0  0
   -5.9420    4.2467   14.9823 C   0  0  0  0  0  0  0  0  0  0  0  0
   -5.2356    6.0104   13.3665 N   0  0  0  0  0  0  0  0  0  0  0  0
   -5.6052    5.7146   14.7598 C   0  0  0  0  0  0  0  0  0  0  0  0
   -5.0210    7.0034   13.2752 H   0  0  0  0  0  0  0  0  0  0  0  0
   -6.0131    5.7726   12.7506 H   0  0  0  0  0  0  0  0  0  0  0  0
  8  9  1  0  0  0
  9  7  1  0  0  0
  7  1  1  0  0  0
  1  2  1  0  0  0
  1  3  2  0  0  0
  2  4  2  0  0  0
  3  5  1  0  0  0
  4  5  1  0  0  0
  8 10  1  0  0  0
  8 11  1  0  0  0
  5  6  1  0  0  0
M  END
> <minimizedAffinity>
-3.57339

$$$$
1AVN_HSM_A_264


 11 11  0  0  0  0  0  0  0  0999 V2000
   -4.3275    3.5202   14.4797 C   0  0  0  0  0  0  0  0  0  0  0  0
   -3.8793    2.3010   14.9331 N   0  0  0  0  0  0  0  0  0  0  0  0
   -5.6354    3.5498   14.8263 C   0  0  0  0  0  0  0  0  0  0  0  0
   -4.8298    1.6227   15.5344 C   0  0  0  0  0  0  0  0  0  0  0  0
   -5.9096    2.3696   15.4871 N   0  0  0  0  0  0  0  0  0  0  0  0
   -6.7842    2.1239   15.8666 H   0  0  0  0  0  0  0  0  0  0  0  0
   -3.4459    4.4847   13.7607 C   0  0  0  0  0  0  0  0  0  0  0  0
   -1.4752    3.9050   15.1752 N   0  0  0  0  0  0  0  0  0  0  0  0
   -1.9656    4.7033   14.0404 C   0  0  0  0  0  0  0  0  0  0  0  0
   -0.4822    4.0899   15.3171 H   0  0  0  0  0  0  0  0  0  0  0  0
   -1.6117    2.9137   14.9777 H   0  0  0  0  0  0  0  0  0  0  0  0
  8  9  1  0  0  0
  9  7  1  0  0  0
  7  1  1  0  0  0
  1  2  1  0  0  0
  1  3  2  0  0  0
  2  4  2  0  0  0
  3  5  1  0  0  0
  4  5  1  0  0  0
  8 10  1  0  0  0
  8 11  1  0  0  0
  5  6  1  0  0  0
M  END
> <minimizedAffinity>
-3.53312

$$$$
1AVN_HSM_A_264


 11 11  0  0  0  0  0  0  0  0999 V2000
   -3.8988    4.0711   13.1144 C   0  0  0  0  0  0  0  0  0  0  0  0
   -4.9186    3.2223   13.4779 N   0  0  0  0  0  0  0  0  0  0  0  0
   -3.0550    4.0585   14.1724 C   0  0  0  0  0  0  0  0  0  0  0  0
   -4.7220    2.7020   14.6678 C   0  0  0  0  0  0  0  0  0  0  0  0
   -3.5859    3.1935   15.1078 N   0  0  0  0  0  0  0  0  0  0  0  0
   -3.1743    2.9771   15.9756 H   0  0  0  0  0  0  0  0  0  0  0  0
   -3.8794    4.7927   11.8092 C   0  0  0  0  0  0  0  0  0  0  0  0
   -4.7868    2.9187   10.4361 N   0  0  0  0  0  0  0  0  0  0  0  0
   -3.9609    4.1366   10.4379 C   0  0  0  0  0  0  0  0  0  0  0  0
   -4.8064    2.5226    9.4964 H   0  0  0  0  0  0  0  0  0  0  0  0
   -5.7364    3.1514   10.7269 H   0  0  0  0  0  0  0  0  0  0  0  0
  8  9  1  0  0  0
  9  7  1  0  0  0
  7  1  1  0  0  0
  1  2  1  0  0  0
  1  3  2  0  0  0
  2  4  2  0  0  0
  3  5  1  0  0  0
  4  5  1  0  0  0
  8 10  1  0  0  0
  8 11  1  0  0  0
  5  6  1  0  0  0
M  END
> <minimizedAffinity>
-3.43923

$$$$
1AVN_HSM_A_264


 11 11  0  0  0  0  0  0  0  0999 V2000
   -3.5818    4.2133   14.4473 C   0  0  0  0  0  0  0  0  0  0  0  0
   -3.5683    2.8834   14.7993 N   0  0  0  0  0  0  0  0  0  0  0  0
   -4.8946    4.5399   14.4102 C   0  0  0  0  0  0  0  0  0  0  0  0
   -4.7807    2.4140   14.9860 C   0  0  0  0  0  0  0  0  0  0  0  0
   -5.6064    3.4106   14.7607 N   0  0  0  0  0  0  0  0  0  0  0  0
   -6.5871    3.3595   14.8313 H   0  0  0  0  0  0  0  0  0  0  0  0
   -2.3354    4.9867   14.1775 C   0  0  0  0  0  0  0  0  0  0  0  0
   -1.1101    3.4177   12.6751 N   0  0  0  0  0  0  0  0  0  0  0  0
   -1.4439    4.8234   12.9544 C   0  0  0  0  0  0  0  0  0  0  0  0
   -0.5138    3.3675   11.8491 H   0  0  0  0  0  0  0  0  0  0  0  0
   -1.9677    2.8914   12.5078 H   0  0  0  0  0  0  0  0  0  0  0  0
  8  9  1  0  0  0
  9  7  1  0  0  0
  7  1  1  0  0  0
  1  2  1  0  0  0
  1  3  2  0  0  0
  2  4  2  0  0  0
  3  5  1  0  0  0
  4  5  1  0  0  0
  8 10  1  0  0  0
  8 11  1  0  0  0
  5  6  1  0  0  0
M  END
> <minimizedAffinity>
-3.33859

$$$$
1AVN_HSM_A_264


 11 11  0  0  0  0  0  0  0  0999 V2000
   -2.8598    4.0963   13.8758 C   0  0  0  0  0  0  0  0  0  0  0  0
   -2.5477    3.3334   12.7743 N   0  0  0  0  0  0  0  0  0  0  0  0
   -1.8328    4.9711   13.9833 C   0  0  0  0  0  0  0  0  0  0  0  0
   -1.4181    3.7116   12.2210 C   0  0  0  0  0  0  0  0  0  0  0  0
   -0.9675    4.7153   12.9389 N   0  0  0  0  0  0  0  0  0  0  0  0
   -0.1363    5.2112   12.7588 H   0  0  0  0  0  0  0  0  0  0  0  0
   -4.0916    3.8725   14.6865 C   0  0  0  0  0  0  0  0  0  0  0  0
   -4.1813    1.3876   14.4928 N   0  0  0  0  0  0  0  0  0  0  0  0
   -4.9634    2.6255   14.6395 C   0  0  0  0  0  0  0  0  0  0  0  0
   -4.8132    0.5873   14.4670 H   0  0  0  0  0  0  0  0  0  0  0  0
   -3.5441    1.2923   15.2835 H   0  0  0  0  0  0  0  0  0  0  0  0
  8  9  1  0  0  0
  9  7  1  0  0  0
  7  1  1  0  0  0
  1  2  1  0  0  0
  1  3  2  0  0  0
  2  4  2  0  0  0
  3  5  1  0  0  0
  4  5  1  0  0  0
  8 10  1  0  0  0
  8 11  1  0  0  0
  5  6  1  0  0  0
M  END
> <minimizedAffinity>
-3.33157

$$$$
1AVN_HSM_A_264


 11 11  0  0  0  0  0  0  0  0999 V2000
   -3.1968    4.0564   11.2126 C   0  0  0  0  0  0  0  0  0  0  0  0
   -3.0777    3.7329    9.8807 N   0  0  0  0  0  0  0  0  0  0  0  0
   -3.0150    5.3969   11.2526 C   0  0  0  0  0  0  0  0  0  0  0  0
   -2.8549    4.7927    9.1375 C   0  0  0  0  0  0  0  0  0  0  0  0
   -2.8198    5.8214    9.9539 N   0  0  0  0  0  0  0  0  0  0  0  0
   -2.6756    6.7560    9.6800 H   0  0  0  0  0  0  0  0  0  0  0  0
   -3.4517    3.0347   12.2689 C   0  0  0  0  0  0  0  0  0  0  0  0
   -5.5306    2.2305   11.1500 N   0  0  0  0  0  0  0  0  0  0  0  0
   -4.5837    2.0169   12.2560 C   0  0  0  0  0  0  0  0  0  0  0  0
   -6.2648    1.5236   11.1897 H   0  0  0  0  0  0  0  0  0  0  0  0
   -5.0365    2.1579   10.2606 H   0  0  0  0  0  0  0  0  0  0  0  0
  8  9  1  0  0  0
  9  7  1  0  0  0
  7  1  1  0  0  0
  1  2  1  0  0  0
  1  3  2  0  0  0
  2  4  2  0  0  0
  3  5  1  0  0  0
  4  5  1  0  0  0
  8 10  1  0  0  0
  8 11  1  0  0  0
  5  6  1  0  0  0
M  END
> <minimizedAffinity>
-3.14512

$$$$
1AVN_HSM_A_264


 11 11  0  0  0  0  0  0  0  0999 V2000
   -3.0667    3.8113   13.2497 C   0  0  0  0  0  0  0  0  0  0  0  0
   -2.9468    4.8773   14.1110 N   0  0  0  0  0  0  0  0  0  0  0  0
   -1.9236    3.8314   12.5256 C   0  0  0  0  0  0  0  0  0  0  0  0
   -1.8066    5.5096   13.9519 C   0  0  0  0  0  0  0  0  0  0  0  0
   -1.1624    4.8835   12.9933 N   0  0  0  0  0  0  0  0  0  0  0  0
   -0.2696    5.1283   12.6584 H   0  0  0  0  0  0  0  0  0  0  0  0
   -4.2681    2.9277   13.2256 C   0  0  0  0  0  0  0  0  0  0  0  0
   -5.3638    2.4330   11.0404 N   0  0  0  0  0  0  0  0  0  0  0  0
   -4.5762    1.8877   12.1575 C   0  0  0  0  0  0  0  0  0  0  0  0
   -5.5404    1.6964   10.3574 H   0  0  0  0  0  0  0  0  0  0  0  0
   -4.8449    3.1908   10.5966 H   0  0  0  0  0  0  0  0  0  0  0  0
  8  9  1  0  0  0
  9  7  1  0  0  0
  7  1  1  0  0  0
  1  2  1  0  0  0
  1  3  2  0  0  0
  2  4  2  0  0  0
  3  5  1  0  0  0
  4  5  1  0  0  0
  8 10  1  0  0  0
  8 11  1  0  0  0
  5  6  1  0  0  0
M  END
> <minimizedAffinity>
-3.12000

$$$$
1AVN_HSM_A_264


 11 11  0  0  0  0  0  0  0  0999 V2000
   -3.9383    3.5524   11.0516 C   0  0  0  0  0  0  0  0  0  0  0  0
   -4.8956    2.5650   11.0163 N   0  0  0  0  0  0  0  0  0  0  0  0
   -3.2252    3.2923   12.1720 C   0  0  0  0  0  0  0  0  0  0  0  0
   -4.7819    1.7365   12.0292 C   0  0  0  0  0  0  0  0  0  0  0  0
   -3.7635    2.1576   12.7444 N   0  0  0  0  0  0  0  0  0  0  0  0
   -3.4335    1.7277   13.5662 H   0  0  0  0  0  0  0  0  0  0  0  0
   -3.8471    4.6218   10.0158 C   0  0  0  0  0  0  0  0  0  0  0  0
   -5.9186    5.9968    9.8194 N   0  0  0  0  0  0  0  0  0  0  0  0
   -4.4775    6.0037   10.1175 C   0  0  0  0  0  0  0  0  0  0  0  0
   -6.2874    6.9442    9.9022 H   0  0  0  0  0  0  0  0  0  0  0  0
   -6.3995    5.3858   10.4796 H   0  0  0  0  0  0  0  0  0  0  0  0
  8  9  1  0  0  0
  9  7  1  0  0  0
  7  1  1  0  0  0
  1  2  1  0  0  0
  1  3  2  0  0  0
  2  4  2  0  0  0
  3  5  1  0  0  0
  4  5  1  0  0  0
  8 10  1  0  0  0
  8 11  1  0  0  0
  5  6  1  0  0  0
M  END
> <minimizedAffinity>
-3.11168

$$$$
