2C80_GTX_A_1212


 33 32  0  0  0  0  0  0  0  0999 V2000
   -9.0562   29.8727   -3.9264 C   0  0  0  0  0  0  0  0  0  0  0  0
   -9.8823   27.5944   -3.5648 C   0  0  0  0  0  0  0  0  0  0  0  0
   -8.6165   27.1208   -3.1784 O   0  0  0  0  0  0  0  0  0  0  0  0
  -10.1151   28.8769   -3.8542 N   0  0  0  0  0  0  0  0  0  0  0  0
  -11.0420   29.1609   -4.0260 H   0  0  0  0  0  0  0  0  0  0  0  0
  -11.0487   26.6393   -3.6658 C   0  0  0  0  0  0  0  0  0  0  0  0
  -12.2369   27.3130   -4.3603 C   0  0  0  0  0  0  0  0  0  0  0  0
  -14.6026   27.9024   -4.1563 N   0  0  0  0  0  0  0  0  0  0  0  0
  -13.4500   27.3951   -3.4369 C   0  0  0  0  0  0  0  0  0  0  0  0
  -15.4028   27.9507   -3.5256 H   0  0  0  0  0  0  0  0  0  0  0  0
  -14.8196   27.2788   -4.9337 H   0  0  0  0  0  0  0  0  0  0  0  0
  -14.3960   28.8344   -4.5154 H   0  0  0  0  0  0  0  0  0  0  0  0
  -13.1321   28.3071   -2.2925 C   0  0  0  0  0  0  0  0  0  0  0  0
  -12.7769   29.4870   -2.4990 O   0  0  0  0  0  0  0  0  0  0  0  0
  -13.2021   27.8860   -1.1224 O   0  0  0  0  0  0  0  0  0  0  0  0
  -13.4674   27.0026   -0.9575 H   0  0  0  0  0  0  0  0  0  0  0  0
   -8.7430   30.4320   -2.5762 C   0  0  0  0  0  0  0  0  0  0  0  0
   -9.5537   31.4518   -2.0489 O   0  0  0  0  0  0  0  0  0  0  0  0
   -7.6874   29.9234   -1.9436 N   0  0  0  0  0  0  0  0  0  0  0  0
   -7.2782   29.0961   -2.2862 H   0  0  0  0  0  0  0  0  0  0  0  0
   -7.1222   30.5525   -0.7641 C   0  0  0  0  0  0  0  0  0  0  0  0
   -6.0764   29.6649   -0.1422 C   0  0  0  0  0  0  0  0  0  0  0  0
   -5.7816   28.5629   -0.6477 O   0  0  0  0  0  0  0  0  0  0  0  0
   -5.4940   30.0281    0.8993 O   0  0  0  0  0  0  0  0  0  0  0  0
   -5.7048   30.8530    1.2905 H   0  0  0  0  0  0  0  0  0  0  0  0
   -9.4008   31.0111   -4.8956 C   0  0  0  0  0  0  0  0  0  0  0  0
   -7.9411   31.9255   -5.4809 S   0  0  0  0  0  0  0  0  0  0  0  0
   -7.2289   30.4038   -6.1619 C   0  0  0  0  0  0  0  0  0  0  0  0
   -7.4759   30.2506   -7.6578 C   0  0  0  0  0  0  0  0  0  0  0  0
   -7.3533   31.6108   -8.3358 C   0  0  0  0  0  0  0  0  0  0  0  0
   -6.8097   31.4762   -9.7535 C   0  0  0  0  0  0  0  0  0  0  0  0
   -6.0229   30.1790   -9.9073 C   0  0  0  0  0  0  0  0  0  0  0  0
   -5.1782   30.1792  -11.1787 C   0  0  0  0  0  0  0  0  0  0  0  0
  8  9  1  0  0  0
  9 13  1  0  0  0
  9  7  1  0  0  0
 13 14  2  0  0  0
 13 15  1  0  0  0
  7  6  1  0  0  0
  6  2  1  0  0  0
  2  3  2  0  0  0
  2  4  1  0  0  0
  4  1  1  0  0  0
  1 17  1  0  0  0
  1 26  1  0  0  0
 17 18  2  0  0  0
 17 19  1  0  0  0
 26 27  1  0  0  0
 27 28  1  0  0  0
 28 29  1  0  0  0
 29 30  1  0  0  0
 30 31  1  0  0  0
 31 32  1  0  0  0
 32 33  1  0  0  0
 19 21  1  0  0  0
 21 22  1  0  0  0
 22 23  2  0  0  0
 22 24  1  0  0  0
  8 10  1  0  0  0
  8 11  1  0  0  0
  8 12  1  0  0  0
 15 16  1  0  0  0
  4  5  1  0  0  0
 19 20  1  0  0  0
 24 25  1  0  0  0
M  CHG 1   8   1
M  END
> <minimizedAffinity>
-7.00517

$$$$
2C80_GTX_A_1212


 33 32  0  0  0  0  0  0  0  0999 V2000
   -8.9802   29.2683   -3.9813 C   0  0  0  0  0  0  0  0  0  0  0  0
  -10.2330   27.2054   -3.5589 C   0  0  0  0  0  0  0  0  0  0  0  0
   -9.1005   26.5348   -3.0655 O   0  0  0  0  0  0  0  0  0  0  0  0
  -10.2077   28.4881   -3.9286 N   0  0  0  0  0  0  0  0  0  0  0  0
  -11.0548   28.9245   -4.1759 H   0  0  0  0  0  0  0  0  0  0  0  0
  -11.5488   26.4737   -3.6878 C   0  0  0  0  0  0  0  0  0  0  0  0
  -12.6255   27.4006   -4.2620 C   0  0  0  0  0  0  0  0  0  0  0  0
  -14.8900   28.2660   -3.9326 N   0  0  0  0  0  0  0  0  0  0  0  0
  -13.7905   27.5720   -3.2901 C   0  0  0  0  0  0  0  0  0  0  0  0
  -15.6586   28.3719   -3.2705 H   0  0  0  0  0  0  0  0  0  0  0  0
  -15.2074   27.7275   -4.7386 H   0  0  0  0  0  0  0  0  0  0  0  0
  -14.5773   29.1868   -4.2406 H   0  0  0  0  0  0  0  0  0  0  0  0
  -13.3256   28.3591   -2.1040 C   0  0  0  0  0  0  0  0  0  0  0  0
  -13.7043   28.0576   -0.9522 O   0  0  0  0  0  0  0  0  0  0  0  0
  -12.5694   29.3360   -2.2624 O   0  0  0  0  0  0  0  0  0  0  0  0
  -12.2799   29.5699   -3.1224 H   0  0  0  0  0  0  0  0  0  0  0  0
   -8.7242   29.9671   -2.6851 C   0  0  0  0  0  0  0  0  0  0  0  0
   -9.6834   30.8649   -2.1861 O   0  0  0  0  0  0  0  0  0  0  0  0
   -7.5740   29.6956   -2.0715 N   0  0  0  0  0  0  0  0  0  0  0  0
   -7.0372   28.9300   -2.3799 H   0  0  0  0  0  0  0  0  0  0  0  0
   -7.0882   30.4947   -0.9616 C   0  0  0  0  0  0  0  0  0  0  0  0
   -6.1065   29.7075   -0.1341 C   0  0  0  0  0  0  0  0  0  0  0  0
   -5.7560   28.5578   -0.4689 O   0  0  0  0  0  0  0  0  0  0  0  0
   -5.6350   30.2044    0.9083 O   0  0  0  0  0  0  0  0  0  0  0  0
   -5.8887   31.0668    1.1726 H   0  0  0  0  0  0  0  0  0  0  0  0
   -8.9934   30.2863   -5.1291 C   0  0  0  0  0  0  0  0  0  0  0  0
  -10.6544   30.9249   -5.5067 S   0  0  0  0  0  0  0  0  0  0  0  0
  -10.2103   31.1206   -7.2533 C   0  0  0  0  0  0  0  0  0  0  0  0
  -11.2554   31.8939   -8.0483 C   0  0  0  0  0  0  0  0  0  0  0  0
  -10.6312   33.1693   -8.6039 C   0  0  0  0  0  0  0  0  0  0  0  0
  -10.0438   32.9398   -9.9915 C   0  0  0  0  0  0  0  0  0  0  0  0
  -10.0864   34.2238  -10.8131 C   0  0  0  0  0  0  0  0  0  0  0  0
  -10.6163   35.3990   -9.9957 C   0  0  0  0  0  0  0  0  0  0  0  0
  8  9  1  0  0  0
  9 13  1  0  0  0
  9  7  1  0  0  0
 13 14  2  0  0  0
 13 15  1  0  0  0
  7  6  1  0  0  0
  6  2  1  0  0  0
  2  3  2  0  0  0
  2  4  1  0  0  0
  4  1  1  0  0  0
  1 17  1  0  0  0
  1 26  1  0  0  0
 17 18  2  0  0  0
 17 19  1  0  0  0
 26 27  1  0  0  0
 27 28  1  0  0  0
 28 29  1  0  0  0
 29 30  1  0  0  0
 30 31  1  0  0  0
 31 32  1  0  0  0
 32 33  1  0  0  0
 19 21  1  0  0  0
 21 22  1  0  0  0
 22 23  2  0  0  0
 22 24  1  0  0  0
  8 10  1  0  0  0
  8 11  1  0  0  0
  8 12  1  0  0  0
 15 16  1  0  0  0
  4  5  1  0  0  0
 19 20  1  0  0  0
 24 25  1  0  0  0
M  CHG 1   8   1
M  END
> <minimizedAffinity>
-6.92652

$$$$
2C80_GTX_A_1212


 33 32  0  0  0  0  0  0  0  0999 V2000
  -10.1072   30.3884   -3.3940 C   0  0  0  0  0  0  0  0  0  0  0  0
   -8.6426   31.0568   -1.5469 C   0  0  0  0  0  0  0  0  0  0  0  0
   -9.2440   32.3223   -1.4344 O   0  0  0  0  0  0  0  0  0  0  0  0
   -9.0705   30.1287   -2.4062 N   0  0  0  0  0  0  0  0  0  0  0  0
   -8.6677   29.2311   -2.3701 H   0  0  0  0  0  0  0  0  0  0  0  0
   -7.4624   30.6999   -0.6736 C   0  0  0  0  0  0  0  0  0  0  0  0
   -6.1617   30.7451   -1.4825 C   0  0  0  0  0  0  0  0  0  0  0  0
   -5.7878   28.8180   -0.0224 N   0  0  0  0  0  0  0  0  0  0  0  0
   -5.1678   29.6911   -1.0005 C   0  0  0  0  0  0  0  0  0  0  0  0
   -5.1111   28.1210    0.2885 H   0  0  0  0  0  0  0  0  0  0  0  0
   -6.5891   28.3491   -0.4448 H   0  0  0  0  0  0  0  0  0  0  0  0
   -6.0992   29.3698    0.7769 H   0  0  0  0  0  0  0  0  0  0  0  0
   -3.9886   30.3775   -0.3836 C   0  0  0  0  0  0  0  0  0  0  0  0
   -2.8379   30.1944   -0.8348 O   0  0  0  0  0  0  0  0  0  0  0  0
   -4.1472   31.1243    0.6005 O   0  0  0  0  0  0  0  0  0  0  0  0
   -5.0063   31.2678    0.9461 H   0  0  0  0  0  0  0  0  0  0  0  0
  -11.1911   29.3614   -3.3274 C   0  0  0  0  0  0  0  0  0  0  0  0
  -12.5328   29.7781   -3.2942 O   0  0  0  0  0  0  0  0  0  0  0  0
  -10.8108   28.0856   -3.2961 N   0  0  0  0  0  0  0  0  0  0  0  0
   -9.8751   27.8609   -3.5040 H   0  0  0  0  0  0  0  0  0  0  0  0
  -11.7348   27.0166   -2.9645 C   0  0  0  0  0  0  0  0  0  0  0  0
  -11.6365   25.9021   -3.9726 C   0  0  0  0  0  0  0  0  0  0  0  0
  -12.3730   25.8758   -4.9795 O   0  0  0  0  0  0  0  0  0  0  0  0
  -10.8107   24.9829   -3.8028 O   0  0  0  0  0  0  0  0  0  0  0  0
  -10.2508   24.9890   -3.0515 H   0  0  0  0  0  0  0  0  0  0  0  0
   -9.5414   30.4580   -4.8185 C   0  0  0  0  0  0  0  0  0  0  0  0
   -7.8928   29.7052   -4.9765 S   0  0  0  0  0  0  0  0  0  0  0  0
   -7.4438   30.8973   -6.2663 C   0  0  0  0  0  0  0  0  0  0  0  0
   -7.4412   30.2875   -7.6629 C   0  0  0  0  0  0  0  0  0  0  0  0
   -7.7811   31.3633   -8.6886 C   0  0  0  0  0  0  0  0  0  0  0  0
   -7.2254   31.0127  -10.0640 C   0  0  0  0  0  0  0  0  0  0  0  0
   -5.7271   30.7401   -9.9857 C   0  0  0  0  0  0  0  0  0  0  0  0
   -5.2087   30.0702  -11.2555 C   0  0  0  0  0  0  0  0  0  0  0  0
  8  9  1  0  0  0
  9 13  1  0  0  0
  9  7  1  0  0  0
 13 14  2  0  0  0
 13 15  1  0  0  0
  7  6  1  0  0  0
  6  2  1  0  0  0
  2  3  2  0  0  0
  2  4  1  0  0  0
  4  1  1  0  0  0
  1 17  1  0  0  0
  1 26  1  0  0  0
 17 18  2  0  0  0
 17 19  1  0  0  0
 26 27  1  0  0  0
 27 28  1  0  0  0
 28 29  1  0  0  0
 29 30  1  0  0  0
 30 31  1  0  0  0
 31 32  1  0  0  0
 32 33  1  0  0  0
 19 21  1  0  0  0
 21 22  1  0  0  0
 22 23  2  0  0  0
 22 24  1  0  0  0
  8 10  1  0  0  0
  8 11  1  0  0  0
  8 12  1  0  0  0
 15 16  1  0  0  0
  4  5  1  0  0  0
 19 20  1  0  0  0
 24 25  1  0  0  0
M  CHG 1   8   1
M  END
> <minimizedAffinity>
-6.85034

$$$$
2C80_GTX_A_1212


 33 32  0  0  0  0  0  0  0  0999 V2000
  -10.7517   30.8929   -4.8307 C   0  0  0  0  0  0  0  0  0  0  0  0
   -8.5743   31.1436   -3.7353 C   0  0  0  0  0  0  0  0  0  0  0  0
   -8.9436   32.3522   -3.1199 O   0  0  0  0  0  0  0  0  0  0  0  0
   -9.4190   30.4255   -4.4795 N   0  0  0  0  0  0  0  0  0  0  0  0
   -9.1280   29.5428   -4.8041 H   0  0  0  0  0  0  0  0  0  0  0  0
   -7.1719   30.6068   -3.5672 C   0  0  0  0  0  0  0  0  0  0  0  0
   -7.0983   29.6627   -2.3625 C   0  0  0  0  0  0  0  0  0  0  0  0
   -6.2843   31.7228   -1.3239 N   0  0  0  0  0  0  0  0  0  0  0  0
   -6.8948   30.4339   -1.0606 C   0  0  0  0  0  0  0  0  0  0  0  0
   -6.1556   32.2240   -0.4449 H   0  0  0  0  0  0  0  0  0  0  0  0
   -6.8892   32.2661   -1.9397 H   0  0  0  0  0  0  0  0  0  0  0  0
   -5.3785   31.5847   -1.7722 H   0  0  0  0  0  0  0  0  0  0  0  0
   -6.0101   29.6361   -0.1533 C   0  0  0  0  0  0  0  0  0  0  0  0
   -5.6259   28.4937   -0.4824 O   0  0  0  0  0  0  0  0  0  0  0  0
   -5.6660   30.1023    0.9492 O   0  0  0  0  0  0  0  0  0  0  0  0
   -5.9491   30.9582    1.2049 H   0  0  0  0  0  0  0  0  0  0  0  0
  -11.7987   29.9082   -4.4209 C   0  0  0  0  0  0  0  0  0  0  0  0
  -12.8238   30.3159   -3.5503 O   0  0  0  0  0  0  0  0  0  0  0  0
  -11.6904   28.6749   -4.9113 N   0  0  0  0  0  0  0  0  0  0  0  0
  -11.0613   28.5082   -5.6500 H   0  0  0  0  0  0  0  0  0  0  0  0
  -12.4723   27.5693   -4.3891 C   0  0  0  0  0  0  0  0  0  0  0  0
  -11.5752   26.5481   -3.7406 C   0  0  0  0  0  0  0  0  0  0  0  0
  -11.1738   25.5487   -4.3707 O   0  0  0  0  0  0  0  0  0  0  0  0
  -11.2271   26.6938   -2.5518 O   0  0  0  0  0  0  0  0  0  0  0  0
  -11.5206   27.4392   -2.0657 H   0  0  0  0  0  0  0  0  0  0  0  0
  -10.8794   31.1970   -6.3291 C   0  0  0  0  0  0  0  0  0  0  0  0
  -10.1456   32.7918   -6.8058 S   0  0  0  0  0  0  0  0  0  0  0  0
   -9.2016   31.9910   -8.1302 C   0  0  0  0  0  0  0  0  0  0  0  0
   -7.7312   31.7998   -7.7788 C   0  0  0  0  0  0  0  0  0  0  0  0
   -7.4178   30.3101   -7.6937 C   0  0  0  0  0  0  0  0  0  0  0  0
   -7.0519   29.7419   -9.0600 C   0  0  0  0  0  0  0  0  0  0  0  0
   -6.2613   30.7617   -9.8728 C   0  0  0  0  0  0  0  0  0  0  0  0
   -5.2628   30.0851  -10.8083 C   0  0  0  0  0  0  0  0  0  0  0  0
  8  9  1  0  0  0
  9 13  1  0  0  0
  9  7  1  0  0  0
 13 14  2  0  0  0
 13 15  1  0  0  0
  7  6  1  0  0  0
  6  2  1  0  0  0
  2  3  2  0  0  0
  2  4  1  0  0  0
  4  1  1  0  0  0
  1 17  1  0  0  0
  1 26  1  0  0  0
 17 18  2  0  0  0
 17 19  1  0  0  0
 26 27  1  0  0  0
 27 28  1  0  0  0
 28 29  1  0  0  0
 29 30  1  0  0  0
 30 31  1  0  0  0
 31 32  1  0  0  0
 32 33  1  0  0  0
 19 21  1  0  0  0
 21 22  1  0  0  0
 22 23  2  0  0  0
 22 24  1  0  0  0
  8 10  1  0  0  0
  8 11  1  0  0  0
  8 12  1  0  0  0
 15 16  1  0  0  0
  4  5  1  0  0  0
 19 20  1  0  0  0
 24 25  1  0  0  0
M  CHG 1   8   1
M  END
> <minimizedAffinity>
-6.67355

$$$$
2C80_GTX_A_1212


 33 32  0  0  0  0  0  0  0  0999 V2000
   -9.0507   29.3799   -4.0267 C   0  0  0  0  0  0  0  0  0  0  0  0
  -10.1559   27.2590   -3.4939 C   0  0  0  0  0  0  0  0  0  0  0  0
   -8.9750   26.6895   -2.9867 O   0  0  0  0  0  0  0  0  0  0  0  0
  -10.2217   28.5222   -3.9214 N   0  0  0  0  0  0  0  0  0  0  0  0
  -11.0992   28.8887   -4.1762 H   0  0  0  0  0  0  0  0  0  0  0  0
  -11.4202   26.4353   -3.5711 C   0  0  0  0  0  0  0  0  0  0  0  0
  -12.5245   27.2118   -4.2962 C   0  0  0  0  0  0  0  0  0  0  0  0
  -14.8441   27.9780   -4.1641 N   0  0  0  0  0  0  0  0  0  0  0  0
  -13.7505   27.4010   -3.4062 C   0  0  0  0  0  0  0  0  0  0  0  0
  -15.6538   28.0974   -3.5554 H   0  0  0  0  0  0  0  0  0  0  0  0
  -15.0876   27.3572   -4.9359 H   0  0  0  0  0  0  0  0  0  0  0  0
  -14.5601   28.8851   -4.5340 H   0  0  0  0  0  0  0  0  0  0  0  0
  -13.3940   28.3091   -2.2701 C   0  0  0  0  0  0  0  0  0  0  0  0
  -13.6042   27.9624   -1.0883 O   0  0  0  0  0  0  0  0  0  0  0  0
  -12.9006   29.4295   -2.4995 O   0  0  0  0  0  0  0  0  0  0  0  0
  -12.7393   29.6985   -3.3825 H   0  0  0  0  0  0  0  0  0  0  0  0
   -8.7862   30.0988   -2.7432 C   0  0  0  0  0  0  0  0  0  0  0  0
   -9.6345   31.1502   -2.3560 O   0  0  0  0  0  0  0  0  0  0  0  0
   -7.7355   29.6946   -2.0321 N   0  0  0  0  0  0  0  0  0  0  0  0
   -7.2978   28.8447   -2.2674 H   0  0  0  0  0  0  0  0  0  0  0  0
   -7.2163   30.4698   -0.9203 C   0  0  0  0  0  0  0  0  0  0  0  0
   -6.1705   29.6855   -0.1725 C   0  0  0  0  0  0  0  0  0  0  0  0
   -5.7011   28.6277   -0.6387 O   0  0  0  0  0  0  0  0  0  0  0  0
   -5.7650   30.0910    0.9352 O   0  0  0  0  0  0  0  0  0  0  0  0
   -6.1081   30.8838    1.2981 H   0  0  0  0  0  0  0  0  0  0  0  0
   -9.1780   30.3906   -5.1740 C   0  0  0  0  0  0  0  0  0  0  0  0
   -7.6790   31.3909   -5.4226 S   0  0  0  0  0  0  0  0  0  0  0  0
   -8.4948   32.3330   -6.7391 C   0  0  0  0  0  0  0  0  0  0  0  0
   -9.4351   31.4811   -7.5832 C   0  0  0  0  0  0  0  0  0  0  0  0
  -10.4822   32.3752   -8.2381 C   0  0  0  0  0  0  0  0  0  0  0  0
  -11.8697   32.1168   -7.6624 C   0  0  0  0  0  0  0  0  0  0  0  0
  -12.3192   33.2879   -6.7952 C   0  0  0  0  0  0  0  0  0  0  0  0
  -13.7838   33.1569   -6.3858 C   0  0  0  0  0  0  0  0  0  0  0  0
  8  9  1  0  0  0
  9 13  1  0  0  0
  9  7  1  0  0  0
 13 14  2  0  0  0
 13 15  1  0  0  0
  7  6  1  0  0  0
  6  2  1  0  0  0
  2  3  2  0  0  0
  2  4  1  0  0  0
  4  1  1  0  0  0
  1 17  1  0  0  0
  1 26  1  0  0  0
 17 18  2  0  0  0
 17 19  1  0  0  0
 26 27  1  0  0  0
 27 28  1  0  0  0
 28 29  1  0  0  0
 29 30  1  0  0  0
 30 31  1  0  0  0
 31 32  1  0  0  0
 32 33  1  0  0  0
 19 21  1  0  0  0
 21 22  1  0  0  0
 22 23  2  0  0  0
 22 24  1  0  0  0
  8 10  1  0  0  0
  8 11  1  0  0  0
  8 12  1  0  0  0
 15 16  1  0  0  0
  4  5  1  0  0  0
 19 20  1  0  0  0
 24 25  1  0  0  0
M  CHG 1   8   1
M  END
> <minimizedAffinity>
-6.62594

$$$$
2C80_GTX_A_1212


 33 32  0  0  0  0  0  0  0  0999 V2000
   -9.0732   29.9170   -3.8739 C   0  0  0  0  0  0  0  0  0  0  0  0
   -9.9217   27.6368   -3.5827 C   0  0  0  0  0  0  0  0  0  0  0  0
   -8.6553   27.1338   -3.2378 O   0  0  0  0  0  0  0  0  0  0  0  0
  -10.1433   28.9321   -3.8196 N   0  0  0  0  0  0  0  0  0  0  0  0
  -11.0694   29.2335   -3.9635 H   0  0  0  0  0  0  0  0  0  0  0  0
  -11.1019   26.7003   -3.6979 C   0  0  0  0  0  0  0  0  0  0  0  0
  -12.2849   27.4060   -4.3691 C   0  0  0  0  0  0  0  0  0  0  0  0
  -14.6498   27.9935   -4.1508 N   0  0  0  0  0  0  0  0  0  0  0  0
  -13.5012   27.4554   -3.4475 C   0  0  0  0  0  0  0  0  0  0  0  0
  -15.4522   28.0195   -3.5217 H   0  0  0  0  0  0  0  0  0  0  0  0
  -14.8655   27.4013   -4.9528 H   0  0  0  0  0  0  0  0  0  0  0  0
  -14.4394   28.9383   -4.4727 H   0  0  0  0  0  0  0  0  0  0  0  0
  -13.1852   28.3213   -2.2674 C   0  0  0  0  0  0  0  0  0  0  0  0
  -12.8935   29.5263   -2.4223 O   0  0  0  0  0  0  0  0  0  0  0  0
  -13.1929   27.8372   -1.1198 O   0  0  0  0  0  0  0  0  0  0  0  0
  -13.4103   26.9346   -0.9936 H   0  0  0  0  0  0  0  0  0  0  0  0
   -8.6480   30.3339   -2.5030 C   0  0  0  0  0  0  0  0  0  0  0  0
   -9.3916   31.3108   -1.8192 O   0  0  0  0  0  0  0  0  0  0  0  0
   -7.5622   29.7459   -2.0044 N   0  0  0  0  0  0  0  0  0  0  0  0
   -7.2004   28.9494   -2.4559 H   0  0  0  0  0  0  0  0  0  0  0  0
   -6.8964   30.2446   -0.8151 C   0  0  0  0  0  0  0  0  0  0  0  0
   -5.6165   29.4893   -0.5706 C   0  0  0  0  0  0  0  0  0  0  0  0
   -4.5071   29.9988   -0.8283 O   0  0  0  0  0  0  0  0  0  0  0  0
   -5.6579   28.3319   -0.1076 O   0  0  0  0  0  0  0  0  0  0  0  0
   -6.4836   27.9359    0.0909 H   0  0  0  0  0  0  0  0  0  0  0  0
   -9.4672   31.1512   -4.6958 C   0  0  0  0  0  0  0  0  0  0  0  0
   -9.3408   30.8912   -6.4918 S   0  0  0  0  0  0  0  0  0  0  0  0
   -7.8681   31.9457   -6.5668 C   0  0  0  0  0  0  0  0  0  0  0  0
   -6.5739   31.1748   -6.3370 C   0  0  0  0  0  0  0  0  0  0  0  0
   -5.5866   32.0530   -5.5762 C   0  0  0  0  0  0  0  0  0  0  0  0
   -5.4602   31.6132   -4.1222 C   0  0  0  0  0  0  0  0  0  0  0  0
   -5.5394   32.8155   -3.1875 C   0  0  0  0  0  0  0  0  0  0  0  0
   -6.8780   33.5387   -3.3112 C   0  0  0  0  0  0  0  0  0  0  0  0
  8  9  1  0  0  0
  9 13  1  0  0  0
  9  7  1  0  0  0
 13 14  2  0  0  0
 13 15  1  0  0  0
  7  6  1  0  0  0
  6  2  1  0  0  0
  2  3  2  0  0  0
  2  4  1  0  0  0
  4  1  1  0  0  0
  1 17  1  0  0  0
  1 26  1  0  0  0
 17 18  2  0  0  0
 17 19  1  0  0  0
 26 27  1  0  0  0
 27 28  1  0  0  0
 28 29  1  0  0  0
 29 30  1  0  0  0
 30 31  1  0  0  0
 31 32  1  0  0  0
 32 33  1  0  0  0
 19 21  1  0  0  0
 21 22  1  0  0  0
 22 23  2  0  0  0
 22 24  1  0  0  0
  8 10  1  0  0  0
  8 11  1  0  0  0
  8 12  1  0  0  0
 15 16  1  0  0  0
  4  5  1  0  0  0
 19 20  1  0  0  0
 24 25  1  0  0  0
M  CHG 1   8   1
M  END
> <minimizedAffinity>
-6.59768

$$$$
2C80_GTX_A_1212


 33 32  0  0  0  0  0  0  0  0999 V2000
   -9.9557   30.3280   -3.5338 C   0  0  0  0  0  0  0  0  0  0  0  0
   -8.6608   31.1151   -1.6084 C   0  0  0  0  0  0  0  0  0  0  0  0
   -9.3011   32.3665   -1.5995 O   0  0  0  0  0  0  0  0  0  0  0  0
   -8.9950   30.1399   -2.4570 N   0  0  0  0  0  0  0  0  0  0  0  0
   -8.5738   29.2566   -2.3497 H   0  0  0  0  0  0  0  0  0  0  0  0
   -7.5454   30.8293   -0.6300 C   0  0  0  0  0  0  0  0  0  0  0  0
   -6.2842   30.3724   -1.3708 C   0  0  0  0  0  0  0  0  0  0  0  0
   -5.6654   29.9840    0.9640 N   0  0  0  0  0  0  0  0  0  0  0  0
   -5.1654   30.0100   -0.3971 C   0  0  0  0  0  0  0  0  0  0  0  0
   -4.9064   29.7407    1.6005 H   0  0  0  0  0  0  0  0  0  0  0  0
   -6.4086   29.2896    1.0400 H   0  0  0  0  0  0  0  0  0  0  0  0
   -6.0329   30.9035    1.2089 H   0  0  0  0  0  0  0  0  0  0  0  0
   -4.0714   31.0263   -0.5099 C   0  0  0  0  0  0  0  0  0  0  0  0
   -4.2674   32.1092   -1.1014 O   0  0  0  0  0  0  0  0  0  0  0  0
   -2.9477   30.7878   -0.0283 O   0  0  0  0  0  0  0  0  0  0  0  0
   -2.7910   29.9784    0.4170 H   0  0  0  0  0  0  0  0  0  0  0  0
  -11.0973   29.3702   -3.4174 C   0  0  0  0  0  0  0  0  0  0  0  0
  -12.4099   29.8684   -3.3550 O   0  0  0  0  0  0  0  0  0  0  0  0
  -10.7939   28.0744   -3.3722 N   0  0  0  0  0  0  0  0  0  0  0  0
   -9.8799   27.7895   -3.6017 H   0  0  0  0  0  0  0  0  0  0  0  0
  -11.7708   27.0696   -2.9946 C   0  0  0  0  0  0  0  0  0  0  0  0
  -11.7389   25.9135   -3.9593 C   0  0  0  0  0  0  0  0  0  0  0  0
  -12.5959   25.7998   -4.8590 O   0  0  0  0  0  0  0  0  0  0  0  0
  -10.8466   25.0476   -3.8606 O   0  0  0  0  0  0  0  0  0  0  0  0
  -10.1961   25.1194   -3.1900 H   0  0  0  0  0  0  0  0  0  0  0  0
   -9.3041   30.1974   -4.9168 C   0  0  0  0  0  0  0  0  0  0  0  0
  -10.1505   31.1623   -6.2060 S   0  0  0  0  0  0  0  0  0  0  0  0
   -8.5848   31.9376   -6.6898 C   0  0  0  0  0  0  0  0  0  0  0  0
   -7.8568   31.1703   -7.7868 C   0  0  0  0  0  0  0  0  0  0  0  0
   -6.3538   31.2279   -7.5366 C   0  0  0  0  0  0  0  0  0  0  0  0
   -6.0463   31.4766   -6.0646 C   0  0  0  0  0  0  0  0  0  0  0  0
   -4.9600   32.5361   -5.9132 C   0  0  0  0  0  0  0  0  0  0  0  0
   -4.4669   32.6363   -4.4721 C   0  0  0  0  0  0  0  0  0  0  0  0
  8  9  1  0  0  0
  9 13  1  0  0  0
  9  7  1  0  0  0
 13 14  2  0  0  0
 13 15  1  0  0  0
  7  6  1  0  0  0
  6  2  1  0  0  0
  2  3  2  0  0  0
  2  4  1  0  0  0
  4  1  1  0  0  0
  1 17  1  0  0  0
  1 26  1  0  0  0
 17 18  2  0  0  0
 17 19  1  0  0  0
 26 27  1  0  0  0
 27 28  1  0  0  0
 28 29  1  0  0  0
 29 30  1  0  0  0
 30 31  1  0  0  0
 31 32  1  0  0  0
 32 33  1  0  0  0
 19 21  1  0  0  0
 21 22  1  0  0  0
 22 23  2  0  0  0
 22 24  1  0  0  0
  8 10  1  0  0  0
  8 11  1  0  0  0
  8 12  1  0  0  0
 15 16  1  0  0  0
  4  5  1  0  0  0
 19 20  1  0  0  0
 24 25  1  0  0  0
M  CHG 1   8   1
M  END
> <minimizedAffinity>
-6.59281

$$$$
2C80_GTX_A_1212


 33 32  0  0  0  0  0  0  0  0999 V2000
   -8.1357   29.4872   -4.4446 C   0  0  0  0  0  0  0  0  0  0  0  0
  -10.4029   29.9464   -3.6368 C   0  0  0  0  0  0  0  0  0  0  0  0
   -9.9701   30.9912   -2.8019 O   0  0  0  0  0  0  0  0  0  0  0  0
   -9.5765   29.2822   -4.4484 N   0  0  0  0  0  0  0  0  0  0  0  0
   -9.9578   28.6262   -5.0757 H   0  0  0  0  0  0  0  0  0  0  0  0
  -11.8565   29.5341   -3.6406 C   0  0  0  0  0  0  0  0  0  0  0  0
  -12.0422   28.2255   -4.4161 C   0  0  0  0  0  0  0  0  0  0  0  0
  -12.5641   27.5024   -2.1380 N   0  0  0  0  0  0  0  0  0  0  0  0
  -12.2363   27.0406   -3.4731 C   0  0  0  0  0  0  0  0  0  0  0  0
  -12.6902   26.6994   -1.5218 H   0  0  0  0  0  0  0  0  0  0  0  0
  -13.4265   28.0463   -2.1685 H   0  0  0  0  0  0  0  0  0  0  0  0
  -11.8062   28.0864   -1.7846 H   0  0  0  0  0  0  0  0  0  0  0  0
  -10.9726   26.2384   -3.4299 C   0  0  0  0  0  0  0  0  0  0  0  0
  -10.8502   25.2061   -4.1229 O   0  0  0  0  0  0  0  0  0  0  0  0
  -10.0383   26.5878   -2.6839 O   0  0  0  0  0  0  0  0  0  0  0  0
  -10.1207   27.3605   -2.1603 H   0  0  0  0  0  0  0  0  0  0  0  0
   -7.5544   29.2366   -3.0905 C   0  0  0  0  0  0  0  0  0  0  0  0
   -7.5434   27.9282   -2.5779 O   0  0  0  0  0  0  0  0  0  0  0  0
   -7.0778   30.2930   -2.4349 N   0  0  0  0  0  0  0  0  0  0  0  0
   -6.9523   31.1401   -2.9207 H   0  0  0  0  0  0  0  0  0  0  0  0
   -6.7378   30.2328   -1.0252 C   0  0  0  0  0  0  0  0  0  0  0  0
   -5.5084   29.3889   -0.8142 C   0  0  0  0  0  0  0  0  0  0  0  0
   -4.3861   29.7760   -1.1983 O   0  0  0  0  0  0  0  0  0  0  0  0
   -5.6060   28.2802   -0.2511 O   0  0  0  0  0  0  0  0  0  0  0  0
   -6.4421   27.9761    0.0428 H   0  0  0  0  0  0  0  0  0  0  0  0
   -7.7524   30.8932   -4.9247 C   0  0  0  0  0  0  0  0  0  0  0  0
   -7.8791   31.0981   -6.7278 S   0  0  0  0  0  0  0  0  0  0  0  0
   -6.1313   31.5698   -6.8229 C   0  0  0  0  0  0  0  0  0  0  0  0
   -5.5410   31.9366   -5.4667 C   0  0  0  0  0  0  0  0  0  0  0  0
   -4.2832   32.7744   -5.6688 C   0  0  0  0  0  0  0  0  0  0  0  0
   -3.7265   33.2679   -4.3384 C   0  0  0  0  0  0  0  0  0  0  0  0
   -4.1528   34.7087   -4.0778 C   0  0  0  0  0  0  0  0  0  0  0  0
   -3.5412   35.6702   -5.0935 C   0  0  0  0  0  0  0  0  0  0  0  0
  8  9  1  0  0  0
  9 13  1  0  0  0
  9  7  1  0  0  0
 13 14  2  0  0  0
 13 15  1  0  0  0
  7  6  1  0  0  0
  6  2  1  0  0  0
  2  3  2  0  0  0
  2  4  1  0  0  0
  4  1  1  0  0  0
  1 17  1  0  0  0
  1 26  1  0  0  0
 17 18  2  0  0  0
 17 19  1  0  0  0
 26 27  1  0  0  0
 27 28  1  0  0  0
 28 29  1  0  0  0
 29 30  1  0  0  0
 30 31  1  0  0  0
 31 32  1  0  0  0
 32 33  1  0  0  0
 19 21  1  0  0  0
 21 22  1  0  0  0
 22 23  2  0  0  0
 22 24  1  0  0  0
  8 10  1  0  0  0
  8 11  1  0  0  0
  8 12  1  0  0  0
 15 16  1  0  0  0
  4  5  1  0  0  0
 19 20  1  0  0  0
 24 25  1  0  0  0
M  CHG 1   8   1
M  END
> <minimizedAffinity>
-6.59131

$$$$
2C80_GTX_A_1212


 33 32  0  0  0  0  0  0  0  0999 V2000
   -7.1684   30.3098   -4.5802 C   0  0  0  0  0  0  0  0  0  0  0  0
   -9.3474   29.5829   -3.7274 C   0  0  0  0  0  0  0  0  0  0  0  0
   -8.7861   28.5233   -2.9939 O   0  0  0  0  0  0  0  0  0  0  0  0
   -8.6072   30.4548   -4.4163 N   0  0  0  0  0  0  0  0  0  0  0  0
   -9.0534   31.2283   -4.8308 H   0  0  0  0  0  0  0  0  0  0  0  0
  -10.8462   29.7714   -3.7576 C   0  0  0  0  0  0  0  0  0  0  0  0
  -11.5114   28.6615   -4.5785 C   0  0  0  0  0  0  0  0  0  0  0  0
  -12.4110   28.1737   -2.3563 N   0  0  0  0  0  0  0  0  0  0  0  0
  -12.1773   27.6240   -3.6779 C   0  0  0  0  0  0  0  0  0  0  0  0
  -12.8557   27.4686   -1.7685 H   0  0  0  0  0  0  0  0  0  0  0  0
  -13.0203   28.9884   -2.4299 H   0  0  0  0  0  0  0  0  0  0  0  0
  -11.5215   28.4507   -1.9411 H   0  0  0  0  0  0  0  0  0  0  0  0
  -11.2862   26.4252   -3.5718 C   0  0  0  0  0  0  0  0  0  0  0  0
  -11.2438   25.5805   -4.4913 O   0  0  0  0  0  0  0  0  0  0  0  0
  -10.5926   26.2531   -2.5516 O   0  0  0  0  0  0  0  0  0  0  0  0
  -10.6176   26.8811   -1.8567 H   0  0  0  0  0  0  0  0  0  0  0  0
   -6.4361   30.7234   -3.3446 C   0  0  0  0  0  0  0  0  0  0  0  0
   -6.1883   32.0876   -3.1156 O   0  0  0  0  0  0  0  0  0  0  0  0
   -6.0484   29.7517   -2.5207 N   0  0  0  0  0  0  0  0  0  0  0  0
   -6.4096   28.8448   -2.6483 H   0  0  0  0  0  0  0  0  0  0  0  0
   -5.1092   29.9901   -1.4401 C   0  0  0  0  0  0  0  0  0  0  0  0
   -5.5929   29.3448   -0.1682 C   0  0  0  0  0  0  0  0  0  0  0  0
   -5.7067   28.1057   -0.0760 O   0  0  0  0  0  0  0  0  0  0  0  0
   -5.8919   30.0545    0.8129 O   0  0  0  0  0  0  0  0  0  0  0  0
   -5.8117   30.9865    0.7587 H   0  0  0  0  0  0  0  0  0  0  0  0
   -6.6434   31.0992   -5.7866 C   0  0  0  0  0  0  0  0  0  0  0  0
   -7.9630   31.6893   -6.8910 S   0  0  0  0  0  0  0  0  0  0  0  0
   -7.3462   30.6373   -8.2323 C   0  0  0  0  0  0  0  0  0  0  0  0
   -7.3765   31.3282   -9.5902 C   0  0  0  0  0  0  0  0  0  0  0  0
   -7.4783   32.8365   -9.3917 C   0  0  0  0  0  0  0  0  0  0  0  0
   -8.3597   33.4774  -10.4574 C   0  0  0  0  0  0  0  0  0  0  0  0
   -9.8193   33.0836  -10.2568 C   0  0  0  0  0  0  0  0  0  0  0  0
  -10.4501   33.8342   -9.0869 C   0  0  0  0  0  0  0  0  0  0  0  0
  8  9  1  0  0  0
  9 13  1  0  0  0
  9  7  1  0  0  0
 13 14  2  0  0  0
 13 15  1  0  0  0
  7  6  1  0  0  0
  6  2  1  0  0  0
  2  3  2  0  0  0
  2  4  1  0  0  0
  4  1  1  0  0  0
  1 17  1  0  0  0
  1 26  1  0  0  0
 17 18  2  0  0  0
 17 19  1  0  0  0
 26 27  1  0  0  0
 27 28  1  0  0  0
 28 29  1  0  0  0
 29 30  1  0  0  0
 30 31  1  0  0  0
 31 32  1  0  0  0
 32 33  1  0  0  0
 19 21  1  0  0  0
 21 22  1  0  0  0
 22 23  2  0  0  0
 22 24  1  0  0  0
  8 10  1  0  0  0
  8 11  1  0  0  0
  8 12  1  0  0  0
 15 16  1  0  0  0
  4  5  1  0  0  0
 19 20  1  0  0  0
 24 25  1  0  0  0
M  CHG 1   8   1
M  END
> <minimizedAffinity>
-6.47567

$$$$
2C80_GTX_A_1212


 33 32  0  0  0  0  0  0  0  0999 V2000
  -10.1116   30.3534   -3.4931 C   0  0  0  0  0  0  0  0  0  0  0  0
   -8.6988   31.1021   -1.6364 C   0  0  0  0  0  0  0  0  0  0  0  0
   -9.3044   32.3699   -1.5936 O   0  0  0  0  0  0  0  0  0  0  0  0
   -9.1020   30.1378   -2.4673 N   0  0  0  0  0  0  0  0  0  0  0  0
   -8.6993   29.2434   -2.3825 H   0  0  0  0  0  0  0  0  0  0  0  0
   -7.5425   30.7849   -0.7170 C   0  0  0  0  0  0  0  0  0  0  0  0
   -6.2260   30.7517   -1.5004 C   0  0  0  0  0  0  0  0  0  0  0  0
   -5.8594   29.0342    0.2029 N   0  0  0  0  0  0  0  0  0  0  0  0
   -5.2811   29.6816   -0.9589 C   0  0  0  0  0  0  0  0  0  0  0  0
   -5.2163   28.3233    0.5514 H   0  0  0  0  0  0  0  0  0  0  0  0
   -6.7428   28.5954   -0.0570 H   0  0  0  0  0  0  0  0  0  0  0  0
   -6.0260   29.7284    0.9313 H   0  0  0  0  0  0  0  0  0  0  0  0
   -3.9820   30.3231   -0.5804 C   0  0  0  0  0  0  0  0  0  0  0  0
   -3.8829   30.9852    0.4744 O   0  0  0  0  0  0  0  0  0  0  0  0
   -2.9926   30.2153   -1.3294 O   0  0  0  0  0  0  0  0  0  0  0  0
   -3.0572   29.7208   -2.1227 H   0  0  0  0  0  0  0  0  0  0  0  0
  -11.2257   29.3640   -3.3758 C   0  0  0  0  0  0  0  0  0  0  0  0
  -12.5519   29.8252   -3.3144 O   0  0  0  0  0  0  0  0  0  0  0  0
  -10.8860   28.0774   -3.3287 N   0  0  0  0  0  0  0  0  0  0  0  0
   -9.9643   27.8180   -3.5575 H   0  0  0  0  0  0  0  0  0  0  0  0
  -11.8344   27.0460   -2.9501 C   0  0  0  0  0  0  0  0  0  0  0  0
  -11.7862   25.9003   -3.9265 C   0  0  0  0  0  0  0  0  0  0  0  0
  -12.6428   25.7823   -4.8259 O   0  0  0  0  0  0  0  0  0  0  0  0
  -10.8803   25.0474   -3.8379 O   0  0  0  0  0  0  0  0  0  0  0  0
  -10.2299   25.1226   -3.1677 H   0  0  0  0  0  0  0  0  0  0  0  0
   -9.5167   30.3040   -4.9065 C   0  0  0  0  0  0  0  0  0  0  0  0
   -9.5899   31.9007   -5.7752 S   0  0  0  0  0  0  0  0  0  0  0  0
  -11.1622   31.4367   -6.5491 C   0  0  0  0  0  0  0  0  0  0  0  0
  -11.7144   32.5205   -7.4671 C   0  0  0  0  0  0  0  0  0  0  0  0
  -12.3794   33.6070   -6.6293 C   0  0  0  0  0  0  0  0  0  0  0  0
  -13.6935   33.1188   -6.0308 C   0  0  0  0  0  0  0  0  0  0  0  0
  -14.8377   34.0526   -6.4108 C   0  0  0  0  0  0  0  0  0  0  0  0
  -14.3830   35.5087   -6.4649 C   0  0  0  0  0  0  0  0  0  0  0  0
  8  9  1  0  0  0
  9 13  1  0  0  0
  9  7  1  0  0  0
 13 14  2  0  0  0
 13 15  1  0  0  0
  7  6  1  0  0  0
  6  2  1  0  0  0
  2  3  2  0  0  0
  2  4  1  0  0  0
  4  1  1  0  0  0
  1 17  1  0  0  0
  1 26  1  0  0  0
 17 18  2  0  0  0
 17 19  1  0  0  0
 26 27  1  0  0  0
 27 28  1  0  0  0
 28 29  1  0  0  0
 29 30  1  0  0  0
 30 31  1  0  0  0
 31 32  1  0  0  0
 32 33  1  0  0  0
 19 21  1  0  0  0
 21 22  1  0  0  0
 22 23  2  0  0  0
 22 24  1  0  0  0
  8 10  1  0  0  0
  8 11  1  0  0  0
  8 12  1  0  0  0
 15 16  1  0  0  0
  4  5  1  0  0  0
 19 20  1  0  0  0
 24 25  1  0  0  0
M  CHG 1   8   1
M  END
> <minimizedAffinity>
-6.46652

$$$$
