5YHE_8UX_A_604
  RCSB PDB03231823553D
Coordinates from PDB:5YHE:A:604 Model:1 without hydrogens
 23 23  0  0  0  0            999 V2000
   11.0630   23.1680   20.6730   O 0  0  0  0  0  0  0  0  0  0  0  0
   11.3310   22.6300   19.5640   C 0  0  0  0  0  0  0  0  0  0  0  0
   10.5350   22.4570   18.6230   O 0  0  0  0  0  0  0  0  0  0  0  0
   12.7820   22.3270   19.2050   C 0  0  0  0  0  0  0  0  0  0  0  0
   12.7650   20.9760   18.4860   C 0  0  0  0  0  0  0  0  0  0  0  0
   13.7580   22.2790   20.3230   N 0  0  0  0  0  0  0  0  0  0  0  0
   13.8920   21.1530   21.2950   C 0  0  0  0  0  0  0  0  0  0  0  0
   12.6460   20.6070   22.0090   C 0  0  0  0  0  0  0  0  0  0  0  0
   11.7590   21.3990   22.3960   O 0  0  0  0  0  0  0  0  0  0  0  0
   12.6660   19.3700   22.1940   O 0  0  0  0  0  0  0  0  0  0  0  0
   15.0710   21.4510   22.2700   C 0  0  0  0  0  0  0  0  0  0  0  0
   14.8650   22.8170   22.9420   C 0  0  0  0  0  0  0  0  0  0  0  0
   13.6550   22.9690   23.7590   N 0  0  0  0  0  0  0  0  0  0  0  0
   13.5300   24.3870   24.1800   C 0  0  0  0  0  0  0  0  0  0  0  0
   13.2140   25.3430   22.9850   C 0  0  0  0  0  0  0  0  0  0  0  0
   13.5060   26.5490   23.1540   O 0  0  0  0  0  0  0  0  0  0  0  0
   12.6670   24.8770   21.9450   O 0  0  0  0  0  0  0  0  0  0  0  0
   12.4340   24.5290   25.2430   C 0  0  0  0  0  0  0  0  0  0  0  0
   11.0630   24.0150   24.7690   C 0  0  0  0  0  0  0  0  0  0  0  0
    9.9960   23.9110   25.5620   C 0  0  0  0  0  0  0  0  0  0  0  0
    8.9980   23.4350   24.8150   N 0  0  0  0  0  0  0  0  0  0  0  0
    9.4620   23.2390   23.5790   C 0  0  0  0  0  0  0  0  0  0  0  0
   10.7500   23.5940   23.5430   N 0  0  0  0  0  0  0  0  0  0  0  0
 20 21  1  0  0  0  0
 20 19  2  0  0  0  0
 18 19  1  0  0  0  0
 18 14  1  0  0  0  0
 21 22  1  0  0  0  0
 19 23  1  0  0  0  0
 14 13  1  0  0  0  0
 14 15  1  0  0  0  0
 22 23  2  0  0  0  0
 13 12  1  0  0  0  0
 17 15  2  0  0  0  0
 15 16  1  0  0  0  0
 12 11  1  0  0  0  0
 10  8  2  0  0  0  0
 11  7  1  0  0  0  0
  9  8  1  0  0  0  0
  8  7  1  0  0  0  0
  7  6  1  0  0  0  0
  3  2  2  0  0  0  0
  6  4  1  0  0  0  0
  2  4  1  0  0  0  0
  2  1  1  0  0  0  0
  4  5  1  0  0  0  0
A    1
O
A    2
C
A    3
OXT
A    4
CA
A    5
CB
A    6
N
A    7
CAV
A    8
CAR
A    9
OAF
A   10
OAC
A   11
CAK
A   12
CAJ
A   13
NAN
A   14
CAW
A   15
CAS
A   16
OAG
A   17
OAD
A   18
CAL
A   19
CAT
A   20
CAI
A   21
NAM
A   22
CAH
A   23
NAP
M  END
>  <InstanceId>
5YHE_8UX_A_604

>  <ChemCompId>
8UX

>  <PdbId>
5YHE

>  <ChainId>
A

>  <ResidueNumber>
604

>  <InsertionCode>


>  <Model>
1

>  <AltIds>


>  <MissingHeavyAtoms>
0

>  <ObservedFormula>
C13 N4 O6

>  <Name>
(2~{S})-4-[[(2~{R})-3-(1~{H}-imidazol-4-yl)-1-oxidanyl-1-oxidanylidene-propan-2-yl]amino]-2-[[(2~{S})-1-oxidanyl-1-oxidanylidene-propan-2-yl]amino]butanoic acid

>  <SystematicName>
(2~{S})-4-[[(2~{R})-3-(1~{H}-imidazol-4-yl)-1-oxidanyl-1-oxidanylidene-propan-2-yl]amino]-2-[[(2~{S})-1-oxidanyl-1-oxidanylidene-propan-2-yl]amino]butanoic acid

>  <Synonyms>
staphylopine

>  <Type>
NON-POLYMER

>  <Formula>
C13 H20 N4 O6

>  <MolecularWeight>
328.321

>  <ModifiedDate>
2018-03-23

>  <Parent>


>  <OneLetterCode>


>  <SubcomponentList>


>  <AmbiguousFlag>
N

>  <InChI>
InChI=1S/C13H20N4O6/c1-7(11(18)19)17-9(12(20)21)2-3-15-10(13(22)23)4-8-5-14-6-16-8/h5-7,9-10,15,17H,2-4H2,1H3,(H,14,16)(H,18,19)(H,20,21)(H,22,23)/t7-,9-,10+/m0/s1

>  <InChIKey>
WLNNYKMTYVPSDL-UJNFCWOMSA-N

>  <SMILES>
C[C@@H](C(=O)O)N[C@@H](CCN[C@H](Cc1c[nH]cn1)C(=O)O)C(=O)O

$$$$
