3M3Z_3F5_A_401


 32 34  0  0  0  0  0  0  0  0999 V2000
   17.9940   -2.5645    2.8689 C   0  0  0  0  0  0  0  0  0  0  0  0
   17.3533   -2.5576    4.1552 O   0  0  0  0  0  0  0  0  0  0  0  0
   18.0819   -1.5840    4.9418 C   0  0  0  0  0  0  0  0  0  0  0  0
   18.7564   -0.6384    3.9175 C   0  0  0  0  0  0  0  0  0  0  0  0
   18.2466   -1.1155    2.5963 C   0  0  0  0  0  0  0  0  0  0  0  0
   19.2711   -0.9684    1.5879 O   0  0  0  0  0  0  0  0  0  0  0  0
   20.1644   -0.8096    3.9836 O   0  0  0  0  0  0  0  0  0  0  0  0
   20.0721   -1.4372    1.8700 H   0  0  0  0  0  0  0  0  0  0  0  0
   20.3844   -1.7417    3.8292 H   0  0  0  0  0  0  0  0  0  0  0  0
   17.5545   -4.7830   -1.6530 N   0  0  0  0  0  0  0  0  0  0  0  0
   18.6825   -4.2632   -1.0396 C   0  0  0  0  0  0  0  0  0  0  0  0
   18.6034   -3.7090    0.1300 N   0  0  0  0  0  0  0  0  0  0  0  0
   16.3297   -4.7423   -1.0081 C   0  0  0  0  0  0  0  0  0  0  0  0
   17.0715   -3.1453    1.9271 N   0  0  0  0  0  0  0  0  0  0  0  0
   15.7320   -3.3971    2.1288 C   0  0  0  0  0  0  0  0  0  0  0  0
   15.2519   -4.0228    1.0545 N   0  0  0  0  0  0  0  0  0  0  0  0
   16.2642   -4.2176    0.2219 C   0  0  0  0  0  0  0  0  0  0  0  0
   17.4090   -3.6614    0.7867 C   0  0  0  0  0  0  0  0  0  0  0  0
   15.2049   -5.2443   -1.6019 N   0  0  0  0  0  0  0  0  0  0  0  0
   15.2559   -5.6296   -2.5064 H   0  0  0  0  0  0  0  0  0  0  0  0
   14.3440   -5.2206   -1.1248 H   0  0  0  0  0  0  0  0  0  0  0  0
   15.0724   -3.0400    3.2374 N   0  0  0  0  0  0  0  0  0  0  0  0
   14.2532   -4.0540    3.9751 C   0  0  0  0  0  0  0  0  0  0  0  0
   15.1255   -2.1138    3.5669 H   0  0  0  0  0  0  0  0  0  0  0  0
   17.0595   -0.8231    5.7655 C   0  0  0  0  0  0  0  0  0  0  0  0
   15.8204   -0.8554    5.0684 O   0  0  0  0  0  0  0  0  0  0  0  0
   15.2341    0.4388    5.0176 C   0  0  0  0  0  0  0  0  0  0  0  0
   15.1258    0.8502    3.5579 C   0  0  0  0  0  0  0  0  0  0  0  0
   15.0515   -0.0093    2.6814 O   0  0  0  0  0  0  0  0  0  0  0  0
   15.0839    2.1227    3.2349 N   0  0  0  0  0  0  0  0  0  0  0  0
   15.1434    2.8108    3.9364 H   0  0  0  0  0  0  0  0  0  0  0  0
   14.9930    2.3882    2.2913 H   0  0  0  0  0  0  0  0  0  0  0  0
 10 11  2  0  0  0
 10 13  1  0  0  0
 11 12  1  0  0  0
 12 18  2  0  0  0
 13 17  2  0  0  0
 13 19  1  0  0  0
 14 15  1  0  0  0
 14 18  1  0  0  0
 14  1  1  0  0  0
 15 16  2  0  0  0
 15 22  1  0  0  0
 16 17  1  0  0  0
 17 18  1  0  0  0
  1  2  1  0  0  0
  1  5  1  0  0  0
  2  3  1  0  0  0
  3  4  1  0  0  0
  3 25  1  0  0  0
  4  5  1  0  0  0
  4  7  1  0  0  0
  5  6  1  0  0  0
 25 26  1  0  0  0
 26 27  1  0  0  0
 22 23  1  0  0  0
 27 28  1  0  0  0
 28 29  2  0  0  0
 28 30  1  0  0  0
 19 20  1  0  0  0
 19 21  1  0  0  0
  6  8  1  0  0  0
  7  9  1  0  0  0
 22 24  1  0  0  0
 30 31  1  0  0  0
 30 32  1  0  0  0
M  END
> <minimizedAffinity>
-8.08503

$$$$
3M3Z_3F5_A_401


 32 34  0  0  0  0  0  0  0  0999 V2000
   16.2968   -2.7866    1.8852 C   0  0  0  0  0  0  0  0  0  0  0  0
   16.2618   -1.3669    2.1051 O   0  0  0  0  0  0  0  0  0  0  0  0
   15.3522   -1.1727    3.2152 C   0  0  0  0  0  0  0  0  0  0  0  0
   15.3306   -2.5195    3.9794 C   0  0  0  0  0  0  0  0  0  0  0  0
   16.3466   -3.3537    3.2685 C   0  0  0  0  0  0  0  0  0  0  0  0
   15.9301   -4.7373    3.2562 O   0  0  0  0  0  0  0  0  0  0  0  0
   14.0448   -3.1075    3.8493 O   0  0  0  0  0  0  0  0  0  0  0  0
   15.0476   -4.8058    2.8595 H   0  0  0  0  0  0  0  0  0  0  0  0
   13.8301   -3.2108    2.9090 H   0  0  0  0  0  0  0  0  0  0  0  0
   18.1713   -5.3563   -2.0449 N   0  0  0  0  0  0  0  0  0  0  0  0
   16.8824   -5.3517   -1.5373 C   0  0  0  0  0  0  0  0  0  0  0  0
   16.5829   -4.6350   -0.4990 N   0  0  0  0  0  0  0  0  0  0  0  0
   19.1515   -4.5693   -1.4641 C   0  0  0  0  0  0  0  0  0  0  0  0
   17.4885   -3.0801    1.1308 N   0  0  0  0  0  0  0  0  0  0  0  0
   18.7258   -2.4916    1.2762 C   0  0  0  0  0  0  0  0  0  0  0  0
   19.5363   -2.9702    0.3328 N   0  0  0  0  0  0  0  0  0  0  0  0
   18.8235   -3.7902   -0.4258 C   0  0  0  0  0  0  0  0  0  0  0  0
   17.5303   -3.8482    0.0872 C   0  0  0  0  0  0  0  0  0  0  0  0
   20.4305   -4.5671   -1.9478 N   0  0  0  0  0  0  0  0  0  0  0  0
   20.6690   -5.1410   -2.7114 H   0  0  0  0  0  0  0  0  0  0  0  0
   21.1128   -3.9916   -1.5326 H   0  0  0  0  0  0  0  0  0  0  0  0
   19.0113   -1.5996    2.2325 N   0  0  0  0  0  0  0  0  0  0  0  0
   20.4331   -1.1932    2.4707 C   0  0  0  0  0  0  0  0  0  0  0  0
   18.2890   -1.2119    2.7776 H   0  0  0  0  0  0  0  0  0  0  0  0
   15.9435   -0.0821    4.0889 C   0  0  0  0  0  0  0  0  0  0  0  0
   17.3540   -0.0892    3.9078 O   0  0  0  0  0  0  0  0  0  0  0  0
   18.0230    0.1895    5.1310 C   0  0  0  0  0  0  0  0  0  0  0  0
   18.7218    1.5325    4.9905 C   0  0  0  0  0  0  0  0  0  0  0  0
   18.0599    2.5539    4.8137 O   0  0  0  0  0  0  0  0  0  0  0  0
   20.0298    1.6060    5.0853 N   0  0  0  0  0  0  0  0  0  0  0  0
   20.5598    0.7885    5.2268 H   0  0  0  0  0  0  0  0  0  0  0  0
   20.4802    2.4786    5.0149 H   0  0  0  0  0  0  0  0  0  0  0  0
 10 11  2  0  0  0
 10 13  1  0  0  0
 11 12  1  0  0  0
 12 18  2  0  0  0
 13 17  2  0  0  0
 13 19  1  0  0  0
 14 15  1  0  0  0
 14 18  1  0  0  0
 14  1  1  0  0  0
 15 16  2  0  0  0
 15 22  1  0  0  0
 16 17  1  0  0  0
 17 18  1  0  0  0
  1  2  1  0  0  0
  1  5  1  0  0  0
  2  3  1  0  0  0
  3  4  1  0  0  0
  3 25  1  0  0  0
  4  5  1  0  0  0
  4  7  1  0  0  0
  5  6  1  0  0  0
 25 26  1  0  0  0
 26 27  1  0  0  0
 22 23  1  0  0  0
 27 28  1  0  0  0
 28 29  2  0  0  0
 28 30  1  0  0  0
 19 20  1  0  0  0
 19 21  1  0  0  0
  6  8  1  0  0  0
  7  9  1  0  0  0
 22 24  1  0  0  0
 30 31  1  0  0  0
 30 32  1  0  0  0
M  END
> <minimizedAffinity>
-7.56886

$$$$
3M3Z_3F5_A_401


 32 34  0  0  0  0  0  0  0  0999 V2000
   16.5362   -0.2733    3.0917 C   0  0  0  0  0  0  0  0  0  0  0  0
   15.9066   -1.4861    2.6468 O   0  0  0  0  0  0  0  0  0  0  0  0
   16.9658   -2.2707    2.0468 C   0  0  0  0  0  0  0  0  0  0  0  0
   18.2816   -1.7460    2.6727 C   0  0  0  0  0  0  0  0  0  0  0  0
   17.8255   -0.7459    3.6851 C   0  0  0  0  0  0  0  0  0  0  0  0
   18.7692    0.3457    3.7627 O   0  0  0  0  0  0  0  0  0  0  0  0
   19.0499   -1.1014    1.6676 O   0  0  0  0  0  0  0  0  0  0  0  0
   18.8875    0.7341    2.8818 H   0  0  0  0  0  0  0  0  0  0  0  0
   18.5240   -0.3944    1.2621 H   0  0  0  0  0  0  0  0  0  0  0  0
   13.5254    3.6662    4.0806 N   0  0  0  0  0  0  0  0  0  0  0  0
   14.3038    3.4193    2.9617 C   0  0  0  0  0  0  0  0  0  0  0  0
   15.0351    2.3512    2.8872 N   0  0  0  0  0  0  0  0  0  0  0  0
   13.4972    2.7563    5.1241 C   0  0  0  0  0  0  0  0  0  0  0  0
   15.6715    0.3305    4.0730 N   0  0  0  0  0  0  0  0  0  0  0  0
   15.2647   -0.2207    5.2684 C   0  0  0  0  0  0  0  0  0  0  0  0
   14.3982    0.6111    5.8457 N   0  0  0  0  0  0  0  0  0  0  0  0
   14.2123    1.6293    5.0182 C   0  0  0  0  0  0  0  0  0  0  0  0
   15.0203    1.4382    3.9003 C   0  0  0  0  0  0  0  0  0  0  0  0
   12.7400    2.9874    6.2390 N   0  0  0  0  0  0  0  0  0  0  0  0
   12.2151    3.8169    6.3143 H   0  0  0  0  0  0  0  0  0  0  0  0
   12.7197    2.3242    6.9664 H   0  0  0  0  0  0  0  0  0  0  0  0
   15.7082   -1.3971    5.7278 N   0  0  0  0  0  0  0  0  0  0  0  0
   14.7923   -2.5820    5.7465 C   0  0  0  0  0  0  0  0  0  0  0  0
   16.6337   -1.4832    6.0525 H   0  0  0  0  0  0  0  0  0  0  0  0
   16.7317   -3.7150    2.4494 C   0  0  0  0  0  0  0  0  0  0  0  0
   16.0477   -4.3635    1.3847 O   0  0  0  0  0  0  0  0  0  0  0  0
   16.8226   -4.3348    0.1931 C   0  0  0  0  0  0  0  0  0  0  0  0
   15.9110   -4.6906   -0.9706 C   0  0  0  0  0  0  0  0  0  0  0  0
   14.7448   -5.0191   -0.7592 O   0  0  0  0  0  0  0  0  0  0  0  0
   16.3603   -4.6207   -2.2028 N   0  0  0  0  0  0  0  0  0  0  0  0
   17.2938   -4.3578   -2.3723 H   0  0  0  0  0  0  0  0  0  0  0  0
   15.7636   -4.8313   -2.9570 H   0  0  0  0  0  0  0  0  0  0  0  0
 10 11  2  0  0  0
 10 13  1  0  0  0
 11 12  1  0  0  0
 12 18  2  0  0  0
 13 17  2  0  0  0
 13 19  1  0  0  0
 14 15  1  0  0  0
 14 18  1  0  0  0
 14  1  1  0  0  0
 15 16  2  0  0  0
 15 22  1  0  0  0
 16 17  1  0  0  0
 17 18  1  0  0  0
  1  2  1  0  0  0
  1  5  1  0  0  0
  2  3  1  0  0  0
  3  4  1  0  0  0
  3 25  1  0  0  0
  4  5  1  0  0  0
  4  7  1  0  0  0
  5  6  1  0  0  0
 25 26  1  0  0  0
 26 27  1  0  0  0
 22 23  1  0  0  0
 27 28  1  0  0  0
 28 29  2  0  0  0
 28 30  1  0  0  0
 19 20  1  0  0  0
 19 21  1  0  0  0
  6  8  1  0  0  0
  7  9  1  0  0  0
 22 24  1  0  0  0
 30 31  1  0  0  0
 30 32  1  0  0  0
M  END
> <minimizedAffinity>
-7.56556

$$$$
3M3Z_3F5_A_401


 32 34  0  0  0  0  0  0  0  0999 V2000
   16.2336   -2.8558    2.0604 C   0  0  0  0  0  0  0  0  0  0  0  0
   16.3168   -1.4680    2.4238 O   0  0  0  0  0  0  0  0  0  0  0  0
   15.4702   -1.3252    3.5901 C   0  0  0  0  0  0  0  0  0  0  0  0
   15.3758   -2.7391    4.2147 C   0  0  0  0  0  0  0  0  0  0  0  0
   16.2952   -3.5660    3.3755 C   0  0  0  0  0  0  0  0  0  0  0  0
   15.7733   -4.9071    3.2436 O   0  0  0  0  0  0  0  0  0  0  0  0
   14.0444   -3.2158    4.0877 O   0  0  0  0  0  0  0  0  0  0  0  0
   14.8730   -4.8698    2.8847 H   0  0  0  0  0  0  0  0  0  0  0  0
   13.7847   -3.2047    3.1531 H   0  0  0  0  0  0  0  0  0  0  0  0
   17.7851   -5.3206   -2.0725 N   0  0  0  0  0  0  0  0  0  0  0  0
   16.5297   -5.2974   -1.4874 C   0  0  0  0  0  0  0  0  0  0  0  0
   16.3163   -4.6144   -0.4061 N   0  0  0  0  0  0  0  0  0  0  0  0
   18.8234   -4.5877   -1.5227 C   0  0  0  0  0  0  0  0  0  0  0  0
   17.3679   -3.1547    1.2240 N   0  0  0  0  0  0  0  0  0  0  0  0
   18.6303   -2.6102    1.3162 C   0  0  0  0  0  0  0  0  0  0  0  0
   19.3669   -3.0747    0.3075 N   0  0  0  0  0  0  0  0  0  0  0  0
   18.5837   -3.8414   -0.4372 C   0  0  0  0  0  0  0  0  0  0  0  0
   17.3222   -3.8810    0.1511 C   0  0  0  0  0  0  0  0  0  0  0  0
   20.0706   -4.6047   -2.0831 N   0  0  0  0  0  0  0  0  0  0  0  0
   20.2442   -5.1543   -2.8812 H   0  0  0  0  0  0  0  0  0  0  0  0
   20.7950   -4.0673   -1.6884 H   0  0  0  0  0  0  0  0  0  0  0  0
   19.0013   -1.7666    2.2869 N   0  0  0  0  0  0  0  0  0  0  0  0
   20.4056   -1.2470    2.3248 C   0  0  0  0  0  0  0  0  0  0  0  0
   18.3532   -1.4884    2.9738 H   0  0  0  0  0  0  0  0  0  0  0  0
   16.1783   -0.3772    4.5401 C   0  0  0  0  0  0  0  0  0  0  0  0
   16.3217    0.8769    3.8851 O   0  0  0  0  0  0  0  0  0  0  0  0
   15.7173    1.9164    4.6437 C   0  0  0  0  0  0  0  0  0  0  0  0
   14.6632    2.5827    3.7740 C   0  0  0  0  0  0  0  0  0  0  0  0
   14.8962    2.8034    2.5867 O   0  0  0  0  0  0  0  0  0  0  0  0
   13.4940    2.8975    4.2831 N   0  0  0  0  0  0  0  0  0  0  0  0
   13.3073    2.7208    5.2335 H   0  0  0  0  0  0  0  0  0  0  0  0
   12.8044    3.3100    3.7144 H   0  0  0  0  0  0  0  0  0  0  0  0
 10 11  2  0  0  0
 10 13  1  0  0  0
 11 12  1  0  0  0
 12 18  2  0  0  0
 13 17  2  0  0  0
 13 19  1  0  0  0
 14 15  1  0  0  0
 14 18  1  0  0  0
 14  1  1  0  0  0
 15 16  2  0  0  0
 15 22  1  0  0  0
 16 17  1  0  0  0
 17 18  1  0  0  0
  1  2  1  0  0  0
  1  5  1  0  0  0
  2  3  1  0  0  0
  3  4  1  0  0  0
  3 25  1  0  0  0
  4  5  1  0  0  0
  4  7  1  0  0  0
  5  6  1  0  0  0
 25 26  1  0  0  0
 26 27  1  0  0  0
 22 23  1  0  0  0
 27 28  1  0  0  0
 28 29  2  0  0  0
 28 30  1  0  0  0
 19 20  1  0  0  0
 19 21  1  0  0  0
  6  8  1  0  0  0
  7  9  1  0  0  0
 22 24  1  0  0  0
 30 31  1  0  0  0
 30 32  1  0  0  0
M  END
> <minimizedAffinity>
-7.31411

$$$$
3M3Z_3F5_A_401


 32 34  0  0  0  0  0  0  0  0999 V2000
   16.8181   -2.7872    1.4348 C   0  0  0  0  0  0  0  0  0  0  0  0
   16.4679   -1.4165    1.6874 O   0  0  0  0  0  0  0  0  0  0  0  0
   15.2269   -1.4683    2.4322 C   0  0  0  0  0  0  0  0  0  0  0  0
   15.1909   -2.8704    3.0889 C   0  0  0  0  0  0  0  0  0  0  0  0
   16.5113   -3.4708    2.7295 C   0  0  0  0  0  0  0  0  0  0  0  0
   16.3680   -4.8935    2.5211 O   0  0  0  0  0  0  0  0  0  0  0  0
   14.1402   -3.6289    2.5086 O   0  0  0  0  0  0  0  0  0  0  0  0
   15.6891   -5.0548    1.8473 H   0  0  0  0  0  0  0  0  0  0  0  0
   14.2652   -3.6722    1.5476 H   0  0  0  0  0  0  0  0  0  0  0  0
   20.2741   -4.5639   -1.7997 N   0  0  0  0  0  0  0  0  0  0  0  0
   18.9079   -4.7905   -1.7676 C   0  0  0  0  0  0  0  0  0  0  0  0
   18.1707   -4.2588   -0.8429 N   0  0  0  0  0  0  0  0  0  0  0  0
   20.8658   -3.7397   -0.8573 C   0  0  0  0  0  0  0  0  0  0  0  0
   18.2224   -2.8251    1.1157 N   0  0  0  0  0  0  0  0  0  0  0  0
   19.2287   -2.1066    1.7235 C   0  0  0  0  0  0  0  0  0  0  0  0
   20.3710   -2.3510    1.0820 N   0  0  0  0  0  0  0  0  0  0  0  0
   20.0918   -3.1502    0.0626 C   0  0  0  0  0  0  0  0  0  0  0  0
   18.7301   -3.4397    0.0933 C   0  0  0  0  0  0  0  0  0  0  0  0
   22.2138   -3.5107   -0.8699 N   0  0  0  0  0  0  0  0  0  0  0  0
   22.7806   -3.9454   -1.5474 H   0  0  0  0  0  0  0  0  0  0  0  0
   22.6176   -2.9112   -0.2015 H   0  0  0  0  0  0  0  0  0  0  0  0
   19.0337   -1.3169    2.7865 N   0  0  0  0  0  0  0  0  0  0  0  0
   20.2112   -0.7548    3.5221 C   0  0  0  0  0  0  0  0  0  0  0  0
   18.1192   -1.1062    3.0840 H   0  0  0  0  0  0  0  0  0  0  0  0
   15.3026   -0.3906    3.4978 C   0  0  0  0  0  0  0  0  0  0  0  0
   15.0163    0.8586    2.8817 O   0  0  0  0  0  0  0  0  0  0  0  0
   14.8335    1.8750    3.8588 C   0  0  0  0  0  0  0  0  0  0  0  0
   14.5674    3.1842    3.1330 C   0  0  0  0  0  0  0  0  0  0  0  0
   15.4326    3.6708    2.4068 O   0  0  0  0  0  0  0  0  0  0  0  0
   13.4043    3.7813    3.2592 N   0  0  0  0  0  0  0  0  0  0  0  0
   12.7116    3.3919    3.8404 H   0  0  0  0  0  0  0  0  0  0  0  0
   13.2253    4.6182    2.7727 H   0  0  0  0  0  0  0  0  0  0  0  0
 10 11  2  0  0  0
 10 13  1  0  0  0
 11 12  1  0  0  0
 12 18  2  0  0  0
 13 17  2  0  0  0
 13 19  1  0  0  0
 14 15  1  0  0  0
 14 18  1  0  0  0
 14  1  1  0  0  0
 15 16  2  0  0  0
 15 22  1  0  0  0
 16 17  1  0  0  0
 17 18  1  0  0  0
  1  2  1  0  0  0
  1  5  1  0  0  0
  2  3  1  0  0  0
  3  4  1  0  0  0
  3 25  1  0  0  0
  4  5  1  0  0  0
  4  7  1  0  0  0
  5  6  1  0  0  0
 25 26  1  0  0  0
 26 27  1  0  0  0
 22 23  1  0  0  0
 27 28  1  0  0  0
 28 29  2  0  0  0
 28 30  1  0  0  0
 19 20  1  0  0  0
 19 21  1  0  0  0
  6  8  1  0  0  0
  7  9  1  0  0  0
 22 24  1  0  0  0
 30 31  1  0  0  0
 30 32  1  0  0  0
M  END
> <minimizedAffinity>
-7.11304

$$$$
3M3Z_3F5_A_401


 32 34  0  0  0  0  0  0  0  0999 V2000
   17.7398    0.1913    3.9179 C   0  0  0  0  0  0  0  0  0  0  0  0
   17.5526   -0.6739    2.7858 O   0  0  0  0  0  0  0  0  0  0  0  0
   18.8854   -1.0715    2.3821 C   0  0  0  0  0  0  0  0  0  0  0  0
   19.7744   -0.8914    3.6374 C   0  0  0  0  0  0  0  0  0  0  0  0
   18.8105   -0.4926    4.7075 C   0  0  0  0  0  0  0  0  0  0  0  0
   19.4365    0.4422    5.6143 O   0  0  0  0  0  0  0  0  0  0  0  0
   20.7008    0.1590    3.4043 O   0  0  0  0  0  0  0  0  0  0  0  0
   19.7734    1.2018    5.1138 H   0  0  0  0  0  0  0  0  0  0  0  0
   20.2199    0.9684    3.1708 H   0  0  0  0  0  0  0  0  0  0  0  0
   14.0283    3.2378    5.5008 N   0  0  0  0  0  0  0  0  0  0  0  0
   15.1989    3.5590    4.8335 C   0  0  0  0  0  0  0  0  0  0  0  0
   16.0544    2.6373    4.5176 N   0  0  0  0  0  0  0  0  0  0  0  0
   13.7440    1.9191    5.8133 C   0  0  0  0  0  0  0  0  0  0  0  0
   16.4890    0.2514    4.6302 N   0  0  0  0  0  0  0  0  0  0  0  0
   15.7480   -0.8143    5.0923 C   0  0  0  0  0  0  0  0  0  0  0  0
   14.6143   -0.3474    5.6146 N   0  0  0  0  0  0  0  0  0  0  0  0
   14.6053    0.9657    5.4368 C   0  0  0  0  0  0  0  0  0  0  0  0
   15.7942    1.3309    4.8107 C   0  0  0  0  0  0  0  0  0  0  0  0
   12.5965    1.5850    6.4779 N   0  0  0  0  0  0  0  0  0  0  0  0
   11.9649    2.2881    6.7536 H   0  0  0  0  0  0  0  0  0  0  0  0
   12.4020    0.6414    6.6806 H   0  0  0  0  0  0  0  0  0  0  0  0
   16.1550   -2.0869    5.0116 N   0  0  0  0  0  0  0  0  0  0  0  0
   15.2061   -3.1947    5.3518 C   0  0  0  0  0  0  0  0  0  0  0  0
   17.0751   -2.2940    4.7296 H   0  0  0  0  0  0  0  0  0  0  0  0
   18.8139   -2.5369    1.9946 C   0  0  0  0  0  0  0  0  0  0  0  0
   17.6511   -3.0945    2.5939 O   0  0  0  0  0  0  0  0  0  0  0  0
   17.0494   -4.0545    1.7350 C   0  0  0  0  0  0  0  0  0  0  0  0
   15.6650   -3.5497    1.3606 C   0  0  0  0  0  0  0  0  0  0  0  0
   14.9377   -4.2297    0.6386 O   0  0  0  0  0  0  0  0  0  0  0  0
   15.2349   -2.4009    1.8301 N   0  0  0  0  0  0  0  0  0  0  0  0
   15.8170   -1.8564    2.4081 H   0  0  0  0  0  0  0  0  0  0  0  0
   14.3306   -2.0842    1.6041 H   0  0  0  0  0  0  0  0  0  0  0  0
 10 11  2  0  0  0
 10 13  1  0  0  0
 11 12  1  0  0  0
 12 18  2  0  0  0
 13 17  2  0  0  0
 13 19  1  0  0  0
 14 15  1  0  0  0
 14 18  1  0  0  0
 14  1  1  0  0  0
 15 16  2  0  0  0
 15 22  1  0  0  0
 16 17  1  0  0  0
 17 18  1  0  0  0
  1  2  1  0  0  0
  1  5  1  0  0  0
  2  3  1  0  0  0
  3  4  1  0  0  0
  3 25  1  0  0  0
  4  5  1  0  0  0
  4  7  1  0  0  0
  5  6  1  0  0  0
 25 26  1  0  0  0
 26 27  1  0  0  0
 22 23  1  0  0  0
 27 28  1  0  0  0
 28 29  2  0  0  0
 28 30  1  0  0  0
 19 20  1  0  0  0
 19 21  1  0  0  0
  6  8  1  0  0  0
  7  9  1  0  0  0
 22 24  1  0  0  0
 30 31  1  0  0  0
 30 32  1  0  0  0
M  END
> <minimizedAffinity>
-7.03987

$$$$
3M3Z_3F5_A_401


 32 34  0  0  0  0  0  0  0  0999 V2000
   16.1292   -1.1846    3.3874 C   0  0  0  0  0  0  0  0  0  0  0  0
   16.1121    0.2429    3.2224 O   0  0  0  0  0  0  0  0  0  0  0  0
   15.4379    0.7571    4.3965 C   0  0  0  0  0  0  0  0  0  0  0  0
   15.5939   -0.3368    5.4816 C   0  0  0  0  0  0  0  0  0  0  0  0
   16.4636   -1.3653    4.8342 C   0  0  0  0  0  0  0  0  0  0  0  0
   16.0789   -2.6869    5.2743 O   0  0  0  0  0  0  0  0  0  0  0  0
   14.3191   -0.8922    5.7688 O   0  0  0  0  0  0  0  0  0  0  0  0
   15.1366   -2.8269    5.0917 H   0  0  0  0  0  0  0  0  0  0  0  0
   13.9237   -1.2337    4.9515 H   0  0  0  0  0  0  0  0  0  0  0  0
   17.0904   -4.4027   -0.3917 N   0  0  0  0  0  0  0  0  0  0  0  0
   15.9029   -4.1780    0.2852 C   0  0  0  0  0  0  0  0  0  0  0  0
   15.8453   -3.3151    1.2513 N   0  0  0  0  0  0  0  0  0  0  0  0
   18.2271   -3.6838   -0.0618 C   0  0  0  0  0  0  0  0  0  0  0  0
   17.1523   -1.7100    2.5200 N   0  0  0  0  0  0  0  0  0  0  0  0
   18.4532   -1.2689    2.4130 C   0  0  0  0  0  0  0  0  0  0  0  0
   19.0529   -1.9506    1.4374 N   0  0  0  0  0  0  0  0  0  0  0  0
   18.1481   -2.7559    0.9001 C   0  0  0  0  0  0  0  0  0  0  0  0
   16.9505   -2.5918    1.5912 C   0  0  0  0  0  0  0  0  0  0  0  0
   19.4093   -3.8978   -0.7148 N   0  0  0  0  0  0  0  0  0  0  0  0
   19.4645   -4.5808   -1.4217 H   0  0  0  0  0  0  0  0  0  0  0  0
   20.2051   -3.3689   -0.4780 H   0  0  0  0  0  0  0  0  0  0  0  0
   18.9764   -0.3163    3.1942 N   0  0  0  0  0  0  0  0  0  0  0  0
   20.3927   -0.4358    3.6666 C   0  0  0  0  0  0  0  0  0  0  0  0
   18.4319    0.4606    3.4574 H   0  0  0  0  0  0  0  0  0  0  0  0
   16.1708    2.0188    4.8130 C   0  0  0  0  0  0  0  0  0  0  0  0
   15.2436    3.0966    4.7834 O   0  0  0  0  0  0  0  0  0  0  0  0
   13.9309    2.6278    4.5038 C   0  0  0  0  0  0  0  0  0  0  0  0
   13.1389    2.6422    5.8015 C   0  0  0  0  0  0  0  0  0  0  0  0
   12.5588    1.6254    6.1785 O   0  0  0  0  0  0  0  0  0  0  0  0
   13.0967    3.7318    6.5339 N   0  0  0  0  0  0  0  0  0  0  0  0
   13.5610    4.5459    6.2323 H   0  0  0  0  0  0  0  0  0  0  0  0
   12.6009    3.7344    7.3844 H   0  0  0  0  0  0  0  0  0  0  0  0
 10 11  2  0  0  0
 10 13  1  0  0  0
 11 12  1  0  0  0
 12 18  2  0  0  0
 13 17  2  0  0  0
 13 19  1  0  0  0
 14 15  1  0  0  0
 14 18  1  0  0  0
 14  1  1  0  0  0
 15 16  2  0  0  0
 15 22  1  0  0  0
 16 17  1  0  0  0
 17 18  1  0  0  0
  1  2  1  0  0  0
  1  5  1  0  0  0
  2  3  1  0  0  0
  3  4  1  0  0  0
  3 25  1  0  0  0
  4  5  1  0  0  0
  4  7  1  0  0  0
  5  6  1  0  0  0
 25 26  1  0  0  0
 26 27  1  0  0  0
 22 23  1  0  0  0
 27 28  1  0  0  0
 28 29  2  0  0  0
 28 30  1  0  0  0
 19 20  1  0  0  0
 19 21  1  0  0  0
  6  8  1  0  0  0
  7  9  1  0  0  0
 22 24  1  0  0  0
 30 31  1  0  0  0
 30 32  1  0  0  0
M  END
> <minimizedAffinity>
-7.03863

$$$$
3M3Z_3F5_A_401


 32 34  0  0  0  0  0  0  0  0999 V2000
   17.2330   -1.9129    2.9399 C   0  0  0  0  0  0  0  0  0  0  0  0
   17.5609   -2.7486    4.0620 O   0  0  0  0  0  0  0  0  0  0  0  0
   17.6512   -1.8516    5.1954 C   0  0  0  0  0  0  0  0  0  0  0  0
   16.8103   -0.6084    4.8135 C   0  0  0  0  0  0  0  0  0  0  0  0
   16.2118   -0.9699    3.4927 C   0  0  0  0  0  0  0  0  0  0  0  0
   16.1120    0.2043    2.6564 O   0  0  0  0  0  0  0  0  0  0  0  0
   17.6736    0.5090    4.6642 O   0  0  0  0  0  0  0  0  0  0  0  0
   16.9865    0.6148    2.5698 H   0  0  0  0  0  0  0  0  0  0  0  0
   18.3553    0.3051    4.0049 H   0  0  0  0  0  0  0  0  0  0  0  0
   18.2823   -4.4124   -1.3279 N   0  0  0  0  0  0  0  0  0  0  0  0
   19.1004   -3.5874   -0.5737 C   0  0  0  0  0  0  0  0  0  0  0  0
   18.6509   -3.0094    0.4965 N   0  0  0  0  0  0  0  0  0  0  0  0
   16.9781   -4.6531   -0.9293 C   0  0  0  0  0  0  0  0  0  0  0  0
   16.6922   -2.7618    1.9093 N   0  0  0  0  0  0  0  0  0  0  0  0
   15.4410   -3.3382    1.8841 C   0  0  0  0  0  0  0  0  0  0  0  0
   15.3577   -4.1238    0.8109 N   0  0  0  0  0  0  0  0  0  0  0  0
   16.5362   -4.0968    0.2055 C   0  0  0  0  0  0  0  0  0  0  0  0
   17.3714   -3.2349    0.9116 C   0  0  0  0  0  0  0  0  0  0  0  0
   16.1546   -5.4590   -1.6656 N   0  0  0  0  0  0  0  0  0  0  0  0
   16.4821   -5.8668   -2.4997 H   0  0  0  0  0  0  0  0  0  0  0  0
   15.2342   -5.6315   -1.3616 H   0  0  0  0  0  0  0  0  0  0  0  0
   14.5010   -3.1031    2.8076 N   0  0  0  0  0  0  0  0  0  0  0  0
   14.3135   -4.0649    3.9404 C   0  0  0  0  0  0  0  0  0  0  0  0
   13.9347   -2.3004    2.7425 H   0  0  0  0  0  0  0  0  0  0  0  0
   17.0253   -2.5660    6.3788 C   0  0  0  0  0  0  0  0  0  0  0  0
   17.6105   -3.8587    6.4724 O   0  0  0  0  0  0  0  0  0  0  0  0
   17.8544   -4.2071    7.8291 C   0  0  0  0  0  0  0  0  0  0  0  0
   18.4417   -5.6092    7.8573 C   0  0  0  0  0  0  0  0  0  0  0  0
   19.5152   -5.8368    7.3020 O   0  0  0  0  0  0  0  0  0  0  0  0
   17.8170   -6.5709    8.4977 N   0  0  0  0  0  0  0  0  0  0  0  0
   16.9576   -6.3889    8.9422 H   0  0  0  0  0  0  0  0  0  0  0  0
   18.2081   -7.4737    8.5331 H   0  0  0  0  0  0  0  0  0  0  0  0
 10 11  2  0  0  0
 10 13  1  0  0  0
 11 12  1  0  0  0
 12 18  2  0  0  0
 13 17  2  0  0  0
 13 19  1  0  0  0
 14 15  1  0  0  0
 14 18  1  0  0  0
 14  1  1  0  0  0
 15 16  2  0  0  0
 15 22  1  0  0  0
 16 17  1  0  0  0
 17 18  1  0  0  0
  1  2  1  0  0  0
  1  5  1  0  0  0
  2  3  1  0  0  0
  3  4  1  0  0  0
  3 25  1  0  0  0
  4  5  1  0  0  0
  4  7  1  0  0  0
  5  6  1  0  0  0
 25 26  1  0  0  0
 26 27  1  0  0  0
 22 23  1  0  0  0
 27 28  1  0  0  0
 28 29  2  0  0  0
 28 30  1  0  0  0
 19 20  1  0  0  0
 19 21  1  0  0  0
  6  8  1  0  0  0
  7  9  1  0  0  0
 22 24  1  0  0  0
 30 31  1  0  0  0
 30 32  1  0  0  0
M  END
> <minimizedAffinity>
-6.98801

$$$$
3M3Z_3F5_A_401


 32 34  0  0  0  0  0  0  0  0999 V2000
   17.8787   -2.5380    2.8749 C   0  0  0  0  0  0  0  0  0  0  0  0
   17.2019   -2.4793    4.1412 O   0  0  0  0  0  0  0  0  0  0  0  0
   17.9227   -1.4907    4.9163 C   0  0  0  0  0  0  0  0  0  0  0  0
   18.6403   -0.5893    3.8815 C   0  0  0  0  0  0  0  0  0  0  0  0
   18.1610   -1.1026    2.5624 C   0  0  0  0  0  0  0  0  0  0  0  0
   19.2158   -1.0036    1.5797 O   0  0  0  0  0  0  0  0  0  0  0  0
   20.0431   -0.7783    3.9937 O   0  0  0  0  0  0  0  0  0  0  0  0
   20.0012   -1.4742    1.8999 H   0  0  0  0  0  0  0  0  0  0  0  0
   20.2531   -1.7180    3.8763 H   0  0  0  0  0  0  0  0  0  0  0  0
   17.5186   -4.7847   -1.6401 N   0  0  0  0  0  0  0  0  0  0  0  0
   18.6326   -4.2460   -1.0175 C   0  0  0  0  0  0  0  0  0  0  0  0
   18.5333   -3.6872    0.1484 N   0  0  0  0  0  0  0  0  0  0  0  0
   16.2866   -4.7583   -1.0084 C   0  0  0  0  0  0  0  0  0  0  0  0
   16.9746   -3.1365    1.9264 N   0  0  0  0  0  0  0  0  0  0  0  0
   15.6367   -3.4062    2.1152 C   0  0  0  0  0  0  0  0  0  0  0  0
   15.1769   -4.0439    1.0391 N   0  0  0  0  0  0  0  0  0  0  0  0
   16.2006   -4.2285    0.2182 C   0  0  0  0  0  0  0  0  0  0  0  0
   17.3314   -3.6533    0.7922 C   0  0  0  0  0  0  0  0  0  0  0  0
   15.1753   -5.2791   -1.6114 N   0  0  0  0  0  0  0  0  0  0  0  0
   15.2413   -5.6680   -2.5134 H   0  0  0  0  0  0  0  0  0  0  0  0
   14.3092   -5.2652   -1.1435 H   0  0  0  0  0  0  0  0  0  0  0  0
   14.9604   -3.0531    3.2149 N   0  0  0  0  0  0  0  0  0  0  0  0
   14.1733   -4.0818    3.9671 C   0  0  0  0  0  0  0  0  0  0  0  0
   14.9802   -2.1201    3.5285 H   0  0  0  0  0  0  0  0  0  0  0  0
   16.8891   -0.6884    5.6848 C   0  0  0  0  0  0  0  0  0  0  0  0
   15.6256   -1.3176    5.5116 O   0  0  0  0  0  0  0  0  0  0  0  0
   15.0791   -1.7095    6.7642 C   0  0  0  0  0  0  0  0  0  0  0  0
   13.8806   -0.8202    7.0544 C   0  0  0  0  0  0  0  0  0  0  0  0
   12.9439   -1.2511    7.7249 O   0  0  0  0  0  0  0  0  0  0  0  0
   13.8574    0.4166    6.6128 N   0  0  0  0  0  0  0  0  0  0  0  0
   14.6071    0.7618    6.0761 H   0  0  0  0  0  0  0  0  0  0  0  0
   13.0904    0.9985    6.8186 H   0  0  0  0  0  0  0  0  0  0  0  0
 10 11  2  0  0  0
 10 13  1  0  0  0
 11 12  1  0  0  0
 12 18  2  0  0  0
 13 17  2  0  0  0
 13 19  1  0  0  0
 14 15  1  0  0  0
 14 18  1  0  0  0
 14  1  1  0  0  0
 15 16  2  0  0  0
 15 22  1  0  0  0
 16 17  1  0  0  0
 17 18  1  0  0  0
  1  2  1  0  0  0
  1  5  1  0  0  0
  2  3  1  0  0  0
  3  4  1  0  0  0
  3 25  1  0  0  0
  4  5  1  0  0  0
  4  7  1  0  0  0
  5  6  1  0  0  0
 25 26  1  0  0  0
 26 27  1  0  0  0
 22 23  1  0  0  0
 27 28  1  0  0  0
 28 29  2  0  0  0
 28 30  1  0  0  0
 19 20  1  0  0  0
 19 21  1  0  0  0
  6  8  1  0  0  0
  7  9  1  0  0  0
 22 24  1  0  0  0
 30 31  1  0  0  0
 30 32  1  0  0  0
M  END
> <minimizedAffinity>
-6.98706

$$$$
3M3Z_3F5_A_401


 32 34  0  0  0  0  0  0  0  0999 V2000
   19.0141   -1.2579    4.3631 C   0  0  0  0  0  0  0  0  0  0  0  0
   18.1973   -0.7993    3.2733 O   0  0  0  0  0  0  0  0  0  0  0  0
   17.0260   -1.6509    3.2865 C   0  0  0  0  0  0  0  0  0  0  0  0
   16.9245   -2.2010    4.7306 C   0  0  0  0  0  0  0  0  0  0  0  0
   18.0273   -1.5045    5.4600 C   0  0  0  0  0  0  0  0  0  0  0  0
   18.5961   -2.3848    6.4548 O   0  0  0  0  0  0  0  0  0  0  0  0
   17.1640   -3.6004    4.7131 O   0  0  0  0  0  0  0  0  0  0  0  0
   18.8902   -3.2057    6.0299 H   0  0  0  0  0  0  0  0  0  0  0  0
   18.0283   -3.7755    4.3090 H   0  0  0  0  0  0  0  0  0  0  0  0
   23.8645   -0.1429    5.2537 N   0  0  0  0  0  0  0  0  0  0  0  0
   23.2812   -1.3748    5.0068 C   0  0  0  0  0  0  0  0  0  0  0  0
   22.0027   -1.4748    4.8147 N   0  0  0  0  0  0  0  0  0  0  0  0
   23.0891    1.0043    5.2694 C   0  0  0  0  0  0  0  0  0  0  0  0
   19.9392   -0.2022    4.6871 N   0  0  0  0  0  0  0  0  0  0  0  0
   19.6658    1.1467    4.7512 C   0  0  0  0  0  0  0  0  0  0  0  0
   20.8033    1.7988    4.9902 N   0  0  0  0  0  0  0  0  0  0  0  0
   21.7782    0.9017    5.0169 C   0  0  0  0  0  0  0  0  0  0  0  0
   21.2192   -0.3584    4.8208 C   0  0  0  0  0  0  0  0  0  0  0  0
   23.6472    2.2275    5.5185 N   0  0  0  0  0  0  0  0  0  0  0  0
   24.6113    2.3001    5.7038 H   0  0  0  0  0  0  0  0  0  0  0  0
   23.0848    3.0356    5.5125 H   0  0  0  0  0  0  0  0  0  0  0  0
   18.4386    1.6593    4.6003 N   0  0  0  0  0  0  0  0  0  0  0  0
   18.1764    3.0855    4.9755 C   0  0  0  0  0  0  0  0  0  0  0  0
   17.7106    1.1007    4.2437 H   0  0  0  0  0  0  0  0  0  0  0  0
   15.8314   -0.7686    2.9751 C   0  0  0  0  0  0  0  0  0  0  0  0
   16.1211    0.5444    3.4382 O   0  0  0  0  0  0  0  0  0  0  0  0
   15.0610    1.0424    4.2441 C   0  0  0  0  0  0  0  0  0  0  0  0
   14.6401    2.3930    3.6870 C   0  0  0  0  0  0  0  0  0  0  0  0
   15.1109    2.7927    2.6234 O   0  0  0  0  0  0  0  0  0  0  0  0
   13.7534    3.1207    4.3270 N   0  0  0  0  0  0  0  0  0  0  0  0
   13.3764    2.8010    5.1784 H   0  0  0  0  0  0  0  0  0  0  0  0
   13.4659    3.9858    3.9553 H   0  0  0  0  0  0  0  0  0  0  0  0
 10 11  2  0  0  0
 10 13  1  0  0  0
 11 12  1  0  0  0
 12 18  2  0  0  0
 13 17  2  0  0  0
 13 19  1  0  0  0
 14 15  1  0  0  0
 14 18  1  0  0  0
 14  1  1  0  0  0
 15 16  2  0  0  0
 15 22  1  0  0  0
 16 17  1  0  0  0
 17 18  1  0  0  0
  1  2  1  0  0  0
  1  5  1  0  0  0
  2  3  1  0  0  0
  3  4  1  0  0  0
  3 25  1  0  0  0
  4  5  1  0  0  0
  4  7  1  0  0  0
  5  6  1  0  0  0
 25 26  1  0  0  0
 26 27  1  0  0  0
 22 23  1  0  0  0
 27 28  1  0  0  0
 28 29  2  0  0  0
 28 30  1  0  0  0
 19 20  1  0  0  0
 19 21  1  0  0  0
  6  8  1  0  0  0
  7  9  1  0  0  0
 22 24  1  0  0  0
 30 31  1  0  0  0
 30 32  1  0  0  0
M  END
> <minimizedAffinity>
-6.84871

$$$$
