3I5Z_Z48_A_401
  RCSB PDB12061709013D
Coordinates from PDB:3I5Z:A:401 Model:1 without hydrogens
 31 34  0  0  0  0            999 V2000
    7.6000   -0.5660   47.8710   C 0  0  0  0  0  0  0  0  0  0  0  0
    6.4970   -0.9340   46.9140   C 0  0  0  0  0  0  0  0  0  0  0  0
    5.2170   -0.4830   47.1830   C 0  0  0  0  0  0  0  0  0  0  0  0
    4.2290   -0.7780   46.3510   N 0  0  0  0  0  0  0  0  0  0  0  0
    4.4240   -1.5120   45.2620   C 0  0  0  0  0  0  0  0  0  0  0  0
    3.3250   -1.7810   44.4450   N 0  0  0  0  0  0  0  0  0  0  0  0
    3.2600   -2.6250   43.3230   C 0  0  0  0  0  0  0  0  0  0  0  0
    4.3020   -2.7290   42.3980   C 0  0  0  0  0  0  0  0  0  0  0  0
    4.1910   -3.5720   41.3000   C 0  0  0  0  0  0  0  0  0  0  0  0
    3.0250   -4.3150   41.1270   C 0  0  0  0  0  0  0  0  0  0  0  0
    1.9810   -4.2200   42.0400   C 0  0  0  0  0  0  0  0  0  0  0  0
    2.1010   -3.3730   43.1300   C 0  0  0  0  0  0  0  0  0  0  0  0
    5.6330   -1.9500   44.9650   N 0  0  0  0  0  0  0  0  0  0  0  0
    6.6930   -1.7050   45.7420   C 0  0  0  0  0  0  0  0  0  0  0  0
    8.0090   -2.2350   45.2820   C 0  0  0  0  0  0  0  0  0  0  0  0
    8.2430   -2.6300   43.9890   C 0  0  0  0  0  0  0  0  0  0  0  0
    9.5180   -3.0280   43.8690   N 0  0  0  0  0  0  0  0  0  0  0  0
   10.1390   -2.9050   45.0850   C 0  0  0  0  0  0  0  0  0  0  0  0
    9.2320   -2.4000   45.9790   C 0  0  0  0  0  0  0  0  0  0  0  0
   11.5590   -3.2390   45.2780   C 0  0  0  0  0  0  0  0  0  0  0  0
   12.2200   -2.6840   46.1480   O 0  0  0  0  0  0  0  0  0  0  0  0
   12.0930   -4.1480   44.4260   N 0  0  0  0  0  0  0  0  0  0  0  0
   13.5080   -4.5580   44.4270   C 0  0  0  0  0  0  0  0  0  0  0  0
   13.8610   -4.9560   42.9810   C 0  0  0  0  0  0  0  0  0  0  0  0
   13.4680   -3.9030   42.0760   O 0  0  0  0  0  0  0  0  0  0  0  0
   13.8150   -5.6820   45.3890   C 0  0  0  0  0  0  0  0  0  0  0  0
   12.8010   -6.4900   45.9010   C 0  0  0  0  0  0  0  0  0  0  0  0
   13.1140   -7.5170   46.7740   C 0  0  0  0  0  0  0  0  0  0  0  0
   14.4320   -7.7380   47.1450   C 0  0  0  0  0  0  0  0  0  0  0  0
   15.4390   -6.9350   46.6380   C 0  0  0  0  0  0  0  0  0  0  0  0
   15.1350   -5.9040   45.7600   C 0  0  0  0  0  0  0  0  0  0  0  0
  1  2  1  0  0  0  0
  3  2  2  0  0  0  0
  2 14  1  0  0  0  0
  3  4  1  0  0  0  0
  4  5  2  0  0  0  0
  6  5  1  0  0  0  0
  5 13  1  0  0  0  0
  6  7  1  0  0  0  0
  8  7  2  0  0  0  0
  7 12  1  0  0  0  0
  8  9  1  0  0  0  0
  9 10  2  0  0  0  0
 10 11  1  0  0  0  0
 12 11  2  0  0  0  0
 13 14  2  0  0  0  0
 14 15  1  0  0  0  0
 15 19  1  0  0  0  0
 15 16  2  0  0  0  0
 16 17  1  0  0  0  0
 18 17  1  0  0  0  0
 19 18  2  0  0  0  0
 18 20  1  0  0  0  0
 21 20  2  0  0  0  0
 20 22  1  0  0  0  0
 22 23  1  0  0  0  0
 23 24  1  0  0  0  0
 23 26  1  0  0  0  0
 25 24  1  0  0  0  0
 26 31  2  0  0  0  0
 26 27  1  0  0  0  0
 27 28  2  0  0  0  0
 28 29  1  0  0  0  0
 30 29  2  0  0  0  0
 31 30  1  0  0  0  0
A    1
C1
A    2
C2
A    3
C3
A    4
N4
A    5
C5
A    6
N6
A    7
C7
A    8
C8
A    9
C9
A   10
C10
A   11
C11
A   12
C12
A   13
N13
A   14
C14
A   15
C15
A   16
C16
A   17
N17
A   18
C19
A   19
C20
A   20
C21
A   21
O22
A   22
N23
A   23
C24
A   24
C26
A   25
O27
A   26
C28
A   27
C29
A   28
C30
A   29
C31
A   30
C32
A   31
C33
M  END
>  <InstanceId>
3I5Z_Z48_A_401

>  <ChemCompId>
Z48

>  <PdbId>
3I5Z

>  <ChainId>
A

>  <ResidueNumber>
401

>  <InsertionCode>


>  <Model>
1

>  <AltIds>


>  <MissingHeavyAtoms>
0

>  <ObservedFormula>
C24 N5 O2

>  <Name>
N-[(1S)-2-hydroxy-1-phenylethyl]-4-[5-methyl-2-(phenylamino)pyrimidin-4-yl]-1H-pyrrole-2-carboxamide

>  <SystematicName>
N-[(1S)-2-hydroxy-1-phenyl-ethyl]-4-(5-methyl-2-phenylazanyl-pyrimidin-4-yl)-1H-pyrrole-2-carboxamide

>  <Synonyms>


>  <Type>
NON-POLYMER

>  <Formula>
C24 H23 N5 O2

>  <MolecularWeight>
413.472

>  <ModifiedDate>
2011-06-04

>  <Parent>


>  <OneLetterCode>


>  <SubcomponentList>


>  <AmbiguousFlag>
N

>  <InChI>
InChI=1S/C24H23N5O2/c1-16-13-26-24(27-19-10-6-3-7-11-19)29-22(16)18-12-20(25-14-18)23(31)28-21(15-30)17-8-4-2-5-9-17/h2-14,21,25,30H,15H2,1H3,(H,28,31)(H,26,27,29)/t21-/m1/s1

>  <InChIKey>
PFHKAGAZRDERTK-OAQYLSRUSA-N

>  <SMILES>
Cc1cnc(nc1c2cc([nH]c2)C(=O)N[C@H](CO)c3ccccc3)Nc4ccccc4

$$$$
