2F81_017_A_302


 42 45  0  0  0  0  0  0  0  0999 V2000
   12.7734   61.7429   18.1278 C   0  0  0  0  0  0  0  0  0  0  0  0
   13.4698   60.7069   18.8360 O   0  0  0  0  0  0  0  0  0  0  0  0
   13.5776   60.9661   19.7645 H   0  0  0  0  0  0  0  0  0  0  0  0
   13.6266   63.0480   18.2362 C   0  0  0  0  0  0  0  0  0  0  0  0
   13.1256   64.1025   17.3357 N   0  0  0  0  0  0  0  0  0  0  0  0
   12.5295   65.5701   18.1955 S   0  0  0  0  0  0  0  0  0  0  0  0
   11.7584   65.0797   19.4440 O   0  0  0  0  0  0  0  0  0  0  0  0
   11.7055   66.3375   17.1334 O   0  0  0  0  0  0  0  0  0  0  0  0
   17.0942   68.9030   19.5994 N   0  0  0  0  0  0  0  0  0  0  0  0
   16.0962   68.0642   19.3155 C   0  0  0  0  0  0  0  0  0  0  0  0
   15.0215   68.6446   18.6497 C   0  0  0  0  0  0  0  0  0  0  0  0
   13.9483   67.8540   18.3209 C   0  0  0  0  0  0  0  0  0  0  0  0
   14.0140   66.5015   18.6794 C   0  0  0  0  0  0  0  0  0  0  0  0
   15.0841   65.9143   19.3473 C   0  0  0  0  0  0  0  0  0  0  0  0
   16.1876   66.7195   19.6898 C   0  0  0  0  0  0  0  0  0  0  0  0
   17.0313   69.8497   19.3366 H   0  0  0  0  0  0  0  0  0  0  0  0
   17.8934   68.5752   20.0717 H   0  0  0  0  0  0  0  0  0  0  0  0
   13.7108   64.3514   15.9904 C   0  0  0  0  0  0  0  0  0  0  0  0
   15.2408   64.0818   16.0552 C   0  0  0  0  0  0  0  0  0  0  0  0
   15.5608   63.0142   15.0260 C   0  0  0  0  0  0  0  0  0  0  0  0
   15.9763   65.3620   15.7479 C   0  0  0  0  0  0  0  0  0  0  0  0
   11.3735   61.9319   18.8048 C   0  0  0  0  0  0  0  0  0  0  0  0
   10.4594   61.1300   18.0467 N   0  0  0  0  0  0  0  0  0  0  0  0
    9.8164   61.5485   16.9427 C   0  0  0  0  0  0  0  0  0  0  0  0
    9.8937   62.7043   16.4440 O   0  0  0  0  0  0  0  0  0  0  0  0
   10.2907   60.2104   18.3552 H   0  0  0  0  0  0  0  0  0  0  0  0
    9.0602   60.4343   16.4889 O   0  0  0  0  0  0  0  0  0  0  0  0
    8.6806   60.5584   15.0558 C   0  0  0  0  0  0  0  0  0  0  0  0
    9.9254   59.9884   14.3326 C   0  0  0  0  0  0  0  0  0  0  0  0
    9.8438   58.5529   14.4519 O   0  0  0  0  0  0  0  0  0  0  0  0
    8.4637   58.2415   14.5595 C   0  0  0  0  0  0  0  0  0  0  0  0
    8.1881   57.2939   15.6109 O   0  0  0  0  0  0  0  0  0  0  0  0
    7.3565   58.0122   16.5133 C   0  0  0  0  0  0  0  0  0  0  0  0
    6.5736   59.0392   15.6712 C   0  0  0  0  0  0  0  0  0  0  0  0
    7.6663   59.4646   14.7020 C   0  0  0  0  0  0  0  0  0  0  0  0
   11.3097   61.5213   20.3096 C   0  0  0  0  0  0  0  0  0  0  0  0
    8.8905   60.8952   20.9937 C   0  0  0  0  0  0  0  0  0  0  0  0
    7.6068   61.2304   21.5288 C   0  0  0  0  0  0  0  0  0  0  0  0
    7.4040   62.5441   21.9377 C   0  0  0  0  0  0  0  0  0  0  0  0
    8.3998   63.5104   21.8413 C   0  0  0  0  0  0  0  0  0  0  0  0
    9.6333   63.1488   21.3141 C   0  0  0  0  0  0  0  0  0  0  0  0
    9.9063   61.8496   20.8867 C   0  0  0  0  0  0  0  0  0  0  0  0
  9 10  1  0  0  0
 10 11  2  0  0  0
 10 15  1  0  0  0
 11 12  1  0  0  0
 12 13  2  0  0  0
 13 14  1  0  0  0
 13  6  1  0  0  0
 14 15  2  0  0  0
  6  7  2  0  0  0
  6  8  2  0  0  0
  6  5  1  0  0  0
  5 18  1  0  0  0
  5  4  1  0  0  0
 18 19  1  0  0  0
 19 20  1  0  0  0
 19 21  1  0  0  0
  4  1  1  0  0  0
  1  2  1  0  0  0
  1 22  1  0  0  0
 22 23  1  0  0  0
 22 36  1  0  0  0
 23 24  1  0  0  0
 24 25  2  0  0  0
 24 27  1  0  0  0
 27 28  1  0  0  0
 28 29  1  0  0  0
 28 35  1  0  0  0
 29 30  1  0  0  0
 30 31  1  0  0  0
 31 32  1  0  0  0
 31 35  1  0  0  0
 32 33  1  0  0  0
 33 34  1  0  0  0
 34 35  1  0  0  0
 36 42  1  0  0  0
 37 38  2  0  0  0
 37 42  1  0  0  0
 38 39  1  0  0  0
 39 40  2  0  0  0
 40 41  1  0  0  0
 41 42  2  0  0  0
  9 16  1  0  0  0
  9 17  1  0  0  0
  2  3  1  0  0  0
 23 26  1  0  0  0
M  END
> <minimizedAffinity>
-10.46612

$$$$
2F81_017_A_302


 42 45  0  0  0  0  0  0  0  0999 V2000
   12.7778   62.4894   16.4069 C   0  0  0  0  0  0  0  0  0  0  0  0
   13.5184   61.9904   17.5305 O   0  0  0  0  0  0  0  0  0  0  0  0
   13.0699   62.2447   18.3521 H   0  0  0  0  0  0  0  0  0  0  0  0
   12.7118   64.0457   16.5353 C   0  0  0  0  0  0  0  0  0  0  0  0
   14.0491   64.6325   16.7381 N   0  0  0  0  0  0  0  0  0  0  0  0
   14.4093   65.0453   18.4551 S   0  0  0  0  0  0  0  0  0  0  0  0
   15.0185   63.7804   19.1051 O   0  0  0  0  0  0  0  0  0  0  0  0
   13.0583   65.5342   19.0312 O   0  0  0  0  0  0  0  0  0  0  0  0
   18.0081   69.6236   18.3945 N   0  0  0  0  0  0  0  0  0  0  0  0
   17.2591   68.5195   18.3835 C   0  0  0  0  0  0  0  0  0  0  0  0
   15.9119   68.7290   18.6597 C   0  0  0  0  0  0  0  0  0  0  0  0
   15.0681   67.6460   18.6722 C   0  0  0  0  0  0  0  0  0  0  0  0
   15.6292   66.3922   18.3985 C   0  0  0  0  0  0  0  0  0  0  0  0
   16.9758   66.1744   18.1238 C   0  0  0  0  0  0  0  0  0  0  0  0
   17.8478   67.2802   18.1114 C   0  0  0  0  0  0  0  0  0  0  0  0
   17.5953   70.4966   18.5859 H   0  0  0  0  0  0  0  0  0  0  0  0
   18.9736   69.5652   18.2112 H   0  0  0  0  0  0  0  0  0  0  0  0
   15.2288   64.2382   15.9214 C   0  0  0  0  0  0  0  0  0  0  0  0
   15.4409   65.3014   14.8068 C   0  0  0  0  0  0  0  0  0  0  0  0
   16.9121   65.2890   14.4373 C   0  0  0  0  0  0  0  0  0  0  0  0
   14.5853   64.9413   13.6182 C   0  0  0  0  0  0  0  0  0  0  0  0
   11.3433   61.8624   16.4588 C   0  0  0  0  0  0  0  0  0  0  0  0
   10.6975   62.4529   17.5936 N   0  0  0  0  0  0  0  0  0  0  0  0
    9.8329   61.8087   18.3965 C   0  0  0  0  0  0  0  0  0  0  0  0
    9.4404   60.6196   18.2462 O   0  0  0  0  0  0  0  0  0  0  0  0
   10.9008   63.3940   17.7991 H   0  0  0  0  0  0  0  0  0  0  0  0
    9.4775   62.7397   19.4095 O   0  0  0  0  0  0  0  0  0  0  0  0
   10.4454   62.7384   20.5393 C   0  0  0  0  0  0  0  0  0  0  0  0
   10.6309   64.2500   20.8188 C   0  0  0  0  0  0  0  0  0  0  0  0
    9.4581   64.6771   21.5425 O   0  0  0  0  0  0  0  0  0  0  0  0
    8.9846   63.5358   22.2398 C   0  0  0  0  0  0  0  0  0  0  0  0
    7.5586   63.3609   22.1161 O   0  0  0  0  0  0  0  0  0  0  0  0
    7.4207   62.1143   21.4463 C   0  0  0  0  0  0  0  0  0  0  0  0
    8.6429   61.2620   21.8422 C   0  0  0  0  0  0  0  0  0  0  0  0
    9.7210   62.3353   21.8289 C   0  0  0  0  0  0  0  0  0  0  0  0
   10.4770   62.0950   15.1811 C   0  0  0  0  0  0  0  0  0  0  0  0
    8.1875   60.9150   14.9016 C   0  0  0  0  0  0  0  0  0  0  0  0
    7.3927   59.7512   14.6559 C   0  0  0  0  0  0  0  0  0  0  0  0
    8.0608   58.5518   14.4338 C   0  0  0  0  0  0  0  0  0  0  0  0
    9.4491   58.4662   14.4430 C   0  0  0  0  0  0  0  0  0  0  0  0
   10.1881   59.6169   14.6876 C   0  0  0  0  0  0  0  0  0  0  0  0
    9.5840   60.8530   14.9161 C   0  0  0  0  0  0  0  0  0  0  0  0
  9 10  1  0  0  0
 10 11  2  0  0  0
 10 15  1  0  0  0
 11 12  1  0  0  0
 12 13  2  0  0  0
 13 14  1  0  0  0
 13  6  1  0  0  0
 14 15  2  0  0  0
  6  7  2  0  0  0
  6  8  2  0  0  0
  6  5  1  0  0  0
  5 18  1  0  0  0
  5  4  1  0  0  0
 18 19  1  0  0  0
 19 20  1  0  0  0
 19 21  1  0  0  0
  4  1  1  0  0  0
  1  2  1  0  0  0
  1 22  1  0  0  0
 22 23  1  0  0  0
 22 36  1  0  0  0
 23 24  1  0  0  0
 24 25  2  0  0  0
 24 27  1  0  0  0
 27 28  1  0  0  0
 28 29  1  0  0  0
 28 35  1  0  0  0
 29 30  1  0  0  0
 30 31  1  0  0  0
 31 32  1  0  0  0
 31 35  1  0  0  0
 32 33  1  0  0  0
 33 34  1  0  0  0
 34 35  1  0  0  0
 36 42  1  0  0  0
 37 38  2  0  0  0
 37 42  1  0  0  0
 38 39  1  0  0  0
 39 40  2  0  0  0
 40 41  1  0  0  0
 41 42  2  0  0  0
  9 16  1  0  0  0
  9 17  1  0  0  0
  2  3  1  0  0  0
 23 26  1  0  0  0
M  END
> <minimizedAffinity>
-9.77358

$$$$
2F81_017_A_302


 42 45  0  0  0  0  0  0  0  0999 V2000
   12.7038   62.4252   16.8478 C   0  0  0  0  0  0  0  0  0  0  0  0
   13.9063   62.0919   17.5569 O   0  0  0  0  0  0  0  0  0  0  0  0
   14.0527   62.7371   18.2663 H   0  0  0  0  0  0  0  0  0  0  0  0
   12.8850   63.8596   16.2541 C   0  0  0  0  0  0  0  0  0  0  0  0
   14.3045   64.2555   16.2102 N   0  0  0  0  0  0  0  0  0  0  0  0
   15.1825   63.6542   14.7555 S   0  0  0  0  0  0  0  0  0  0  0  0
   14.1183   63.3865   13.6648 O   0  0  0  0  0  0  0  0  0  0  0  0
   15.9779   62.4256   15.2593 O   0  0  0  0  0  0  0  0  0  0  0  0
   19.0608   67.7635   13.3458 N   0  0  0  0  0  0  0  0  0  0  0  0
   18.1062   66.8724   13.6191 C   0  0  0  0  0  0  0  0  0  0  0  0
   18.5107   65.8195   14.4332 C   0  0  0  0  0  0  0  0  0  0  0  0
   17.5920   64.8538   14.7626 C   0  0  0  0  0  0  0  0  0  0  0  0
   16.2955   65.0012   14.2532 C   0  0  0  0  0  0  0  0  0  0  0  0
   15.8841   66.0499   13.4365 C   0  0  0  0  0  0  0  0  0  0  0  0
   16.8216   67.0431   13.0926 C   0  0  0  0  0  0  0  0  0  0  0  0
   19.9655   67.6449   13.7156 H   0  0  0  0  0  0  0  0  0  0  0  0
   18.8606   68.5398   12.7743 H   0  0  0  0  0  0  0  0  0  0  0  0
   14.7908   65.5537   16.7509 C   0  0  0  0  0  0  0  0  0  0  0  0
   14.0319   65.8582   18.0735 C   0  0  0  0  0  0  0  0  0  0  0  0
   14.7375   65.1094   19.1882 C   0  0  0  0  0  0  0  0  0  0  0  0
   14.0609   67.3452   18.3228 C   0  0  0  0  0  0  0  0  0  0  0  0
   11.5165   62.3882   17.8689 C   0  0  0  0  0  0  0  0  0  0  0  0
   10.5744   61.4461   17.3416 N   0  0  0  0  0  0  0  0  0  0  0  0
    9.6271   61.7446   16.4356 C   0  0  0  0  0  0  0  0  0  0  0  0
    9.4084   62.8898   15.9548 O   0  0  0  0  0  0  0  0  0  0  0  0
   10.6242   60.5174   17.6645 H   0  0  0  0  0  0  0  0  0  0  0  0
    8.9567   60.5225   16.1589 O   0  0  0  0  0  0  0  0  0  0  0  0
    8.5369   60.4212   14.7353 C   0  0  0  0  0  0  0  0  0  0  0  0
    9.7933   59.8175   14.0613 C   0  0  0  0  0  0  0  0  0  0  0  0
    9.7931   58.4115   14.3849 O   0  0  0  0  0  0  0  0  0  0  0  0
    8.4350   58.0491   14.5787 C   0  0  0  0  0  0  0  0  0  0  0  0
    8.2367   57.2488   15.7617 O   0  0  0  0  0  0  0  0  0  0  0  0
    7.3889   58.0456   16.5790 C   0  0  0  0  0  0  0  0  0  0  0  0
    6.5312   58.9007   15.6252 C   0  0  0  0  0  0  0  0  0  0  0  0
    7.5757   59.2381   14.5718 C   0  0  0  0  0  0  0  0  0  0  0  0
   11.9117   61.9787   19.3227 C   0  0  0  0  0  0  0  0  0  0  0  0
   10.0055   61.8582   21.0732 C   0  0  0  0  0  0  0  0  0  0  0  0
    9.1057   62.4744   21.9990 C   0  0  0  0  0  0  0  0  0  0  0  0
    9.1742   63.8563   22.1389 C   0  0  0  0  0  0  0  0  0  0  0  0
   10.0785   64.6285   21.4174 C   0  0  0  0  0  0  0  0  0  0  0  0
   10.9353   63.9956   20.5255 C   0  0  0  0  0  0  0  0  0  0  0  0
   10.9225   62.6138   20.3367 C   0  0  0  0  0  0  0  0  0  0  0  0
  9 10  1  0  0  0
 10 11  2  0  0  0
 10 15  1  0  0  0
 11 12  1  0  0  0
 12 13  2  0  0  0
 13 14  1  0  0  0
 13  6  1  0  0  0
 14 15  2  0  0  0
  6  7  2  0  0  0
  6  8  2  0  0  0
  6  5  1  0  0  0
  5 18  1  0  0  0
  5  4  1  0  0  0
 18 19  1  0  0  0
 19 20  1  0  0  0
 19 21  1  0  0  0
  4  1  1  0  0  0
  1  2  1  0  0  0
  1 22  1  0  0  0
 22 23  1  0  0  0
 22 36  1  0  0  0
 23 24  1  0  0  0
 24 25  2  0  0  0
 24 27  1  0  0  0
 27 28  1  0  0  0
 28 29  1  0  0  0
 28 35  1  0  0  0
 29 30  1  0  0  0
 30 31  1  0  0  0
 31 32  1  0  0  0
 31 35  1  0  0  0
 32 33  1  0  0  0
 33 34  1  0  0  0
 34 35  1  0  0  0
 36 42  1  0  0  0
 37 38  2  0  0  0
 37 42  1  0  0  0
 38 39  1  0  0  0
 39 40  2  0  0  0
 40 41  1  0  0  0
 41 42  2  0  0  0
  9 16  1  0  0  0
  9 17  1  0  0  0
  2  3  1  0  0  0
 23 26  1  0  0  0
M  END
> <minimizedAffinity>
-9.67544

$$$$
2F81_017_A_302


 42 45  0  0  0  0  0  0  0  0999 V2000
   10.3759   63.7969   19.2640 C   0  0  0  0  0  0  0  0  0  0  0  0
   10.4670   63.9122   17.8363 O   0  0  0  0  0  0  0  0  0  0  0  0
   10.8146   63.0855   17.4667 H   0  0  0  0  0  0  0  0  0  0  0  0
   11.8129   63.5150   19.8101 C   0  0  0  0  0  0  0  0  0  0  0  0
   12.8521   63.9534   18.8605 N   0  0  0  0  0  0  0  0  0  0  0  0
   13.4893   62.6289   17.8174 S   0  0  0  0  0  0  0  0  0  0  0  0
   12.3724   61.5639   17.7077 O   0  0  0  0  0  0  0  0  0  0  0  0
   14.8010   62.1841   18.5085 O   0  0  0  0  0  0  0  0  0  0  0  0
   14.9383   65.1427   12.7680 N   0  0  0  0  0  0  0  0  0  0  0  0
   14.5200   64.5467   13.8859 C   0  0  0  0  0  0  0  0  0  0  0  0
   15.4353   64.5690   14.9333 C   0  0  0  0  0  0  0  0  0  0  0  0
   15.0881   63.9752   16.1215 C   0  0  0  0  0  0  0  0  0  0  0  0
   13.8198   63.3855   16.1976 C   0  0  0  0  0  0  0  0  0  0  0  0
   12.9001   63.3570   15.1540 C   0  0  0  0  0  0  0  0  0  0  0  0
   13.2500   63.9622   13.9314 C   0  0  0  0  0  0  0  0  0  0  0  0
   15.8319   65.5545   12.7344 H   0  0  0  0  0  0  0  0  0  0  0  0
   14.3533   65.1707   11.9766 H   0  0  0  0  0  0  0  0  0  0  0  0
   12.8475   65.3040   18.2358 C   0  0  0  0  0  0  0  0  0  0  0  0
   13.7448   66.2485   19.0848 C   0  0  0  0  0  0  0  0  0  0  0  0
   15.0569   65.5295   19.3350 C   0  0  0  0  0  0  0  0  0  0  0  0
   13.9706   67.5276   18.3186 C   0  0  0  0  0  0  0  0  0  0  0  0
    9.4100   62.6078   19.5906 C   0  0  0  0  0  0  0  0  0  0  0  0
    9.5986   61.6495   18.5420 N   0  0  0  0  0  0  0  0  0  0  0  0
    8.6458   60.8117   18.0977 C   0  0  0  0  0  0  0  0  0  0  0  0
    7.4757   60.7220   18.5597 O   0  0  0  0  0  0  0  0  0  0  0  0
   10.4860   61.6015   18.1183 H   0  0  0  0  0  0  0  0  0  0  0  0
    9.2386   60.0802   17.0333 O   0  0  0  0  0  0  0  0  0  0  0  0
    8.9663   60.6967   15.7071 C   0  0  0  0  0  0  0  0  0  0  0  0
   10.3017   60.4720   14.9564 C   0  0  0  0  0  0  0  0  0  0  0  0
   10.3126   59.0875   14.5504 O   0  0  0  0  0  0  0  0  0  0  0  0
    8.9538   58.7067   14.4029 C   0  0  0  0  0  0  0  0  0  0  0  0
    8.6631   57.4349   15.0172 O   0  0  0  0  0  0  0  0  0  0  0  0
    7.7139   57.7490   16.0280 C   0  0  0  0  0  0  0  0  0  0  0  0
    6.9297   58.9798   15.5312 C   0  0  0  0  0  0  0  0  0  0  0  0
    8.0631   59.7659   14.8896 C   0  0  0  0  0  0  0  0  0  0  0  0
    9.6498   61.9265   20.9746 C   0  0  0  0  0  0  0  0  0  0  0  0
    7.1939   62.3311   21.6941 C   0  0  0  0  0  0  0  0  0  0  0  0
    5.9585   61.8853   22.2611 C   0  0  0  0  0  0  0  0  0  0  0  0
    5.8915   60.5677   22.7009 C   0  0  0  0  0  0  0  0  0  0  0  0
    6.9729   59.6987   22.5997 C   0  0  0  0  0  0  0  0  0  0  0  0
    8.1576   60.1676   22.0458 C   0  0  0  0  0  0  0  0  0  0  0  0
    8.2942   61.4760   21.5825 C   0  0  0  0  0  0  0  0  0  0  0  0
  9 10  1  0  0  0
 10 11  2  0  0  0
 10 15  1  0  0  0
 11 12  1  0  0  0
 12 13  2  0  0  0
 13 14  1  0  0  0
 13  6  1  0  0  0
 14 15  2  0  0  0
  6  7  2  0  0  0
  6  8  2  0  0  0
  6  5  1  0  0  0
  5 18  1  0  0  0
  5  4  1  0  0  0
 18 19  1  0  0  0
 19 20  1  0  0  0
 19 21  1  0  0  0
  4  1  1  0  0  0
  1  2  1  0  0  0
  1 22  1  0  0  0
 22 23  1  0  0  0
 22 36  1  0  0  0
 23 24  1  0  0  0
 24 25  2  0  0  0
 24 27  1  0  0  0
 27 28  1  0  0  0
 28 29  1  0  0  0
 28 35  1  0  0  0
 29 30  1  0  0  0
 30 31  1  0  0  0
 31 32  1  0  0  0
 31 35  1  0  0  0
 32 33  1  0  0  0
 33 34  1  0  0  0
 34 35  1  0  0  0
 36 42  1  0  0  0
 37 38  2  0  0  0
 37 42  1  0  0  0
 38 39  1  0  0  0
 39 40  2  0  0  0
 40 41  1  0  0  0
 41 42  2  0  0  0
  9 16  1  0  0  0
  9 17  1  0  0  0
  2  3  1  0  0  0
 23 26  1  0  0  0
M  END
> <minimizedAffinity>
-9.53213

$$$$
2F81_017_A_302


 42 45  0  0  0  0  0  0  0  0999 V2000
   12.7088   62.1463   16.2683 C   0  0  0  0  0  0  0  0  0  0  0  0
   13.3985   61.8121   17.4818 O   0  0  0  0  0  0  0  0  0  0  0  0
   12.9730   62.2602   18.2295 H   0  0  0  0  0  0  0  0  0  0  0  0
   12.7838   63.6974   16.0914 C   0  0  0  0  0  0  0  0  0  0  0  0
   14.1761   64.1818   16.1182 N   0  0  0  0  0  0  0  0  0  0  0  0
   15.1349   63.7199   14.6636 S   0  0  0  0  0  0  0  0  0  0  0  0
   14.1287   63.5164   13.5060 O   0  0  0  0  0  0  0  0  0  0  0  0
   15.9392   62.4734   15.1055 O   0  0  0  0  0  0  0  0  0  0  0  0
   18.3568   68.3776   13.3068 N   0  0  0  0  0  0  0  0  0  0  0  0
   17.6889   67.2841   13.6788 C   0  0  0  0  0  0  0  0  0  0  0  0
   16.4777   67.0920   13.0221 C   0  0  0  0  0  0  0  0  0  0  0  0
   15.7225   65.9920   13.3457 C   0  0  0  0  0  0  0  0  0  0  0  0
   16.2332   65.1281   14.3230 C   0  0  0  0  0  0  0  0  0  0  0  0
   17.4422   65.3148   14.9858 C   0  0  0  0  0  0  0  0  0  0  0  0
   18.2213   66.4421   14.6607 C   0  0  0  0  0  0  0  0  0  0  0  0
   17.9834   68.9712   12.6159 H   0  0  0  0  0  0  0  0  0  0  0  0
   19.2230   68.5908   13.7232 H   0  0  0  0  0  0  0  0  0  0  0  0
   14.5623   65.4744   16.7461 C   0  0  0  0  0  0  0  0  0  0  0  0
   15.3866   65.1776   18.0308 C   0  0  0  0  0  0  0  0  0  0  0  0
   16.1702   66.4312   18.3708 C   0  0  0  0  0  0  0  0  0  0  0  0
   14.4392   64.8166   19.1472 C   0  0  0  0  0  0  0  0  0  0  0  0
   11.2232   61.6708   16.4121 C   0  0  0  0  0  0  0  0  0  0  0  0
   10.6791   62.4102   17.5124 N   0  0  0  0  0  0  0  0  0  0  0  0
    9.7691   61.9279   18.3763 C   0  0  0  0  0  0  0  0  0  0  0  0
    9.2407   60.7841   18.3209 O   0  0  0  0  0  0  0  0  0  0  0  0
   10.9929   63.3340   17.6445 H   0  0  0  0  0  0  0  0  0  0  0  0
    9.5485   62.9628   19.3248 O   0  0  0  0  0  0  0  0  0  0  0  0
   10.5914   62.9852   20.3855 C   0  0  0  0  0  0  0  0  0  0  0  0
   10.7522   64.5004   20.6605 C   0  0  0  0  0  0  0  0  0  0  0  0
    9.6201   64.8905   21.4654 O   0  0  0  0  0  0  0  0  0  0  0  0
    9.2285   63.7332   22.1868 C   0  0  0  0  0  0  0  0  0  0  0  0
    7.8030   63.5175   22.1601 O   0  0  0  0  0  0  0  0  0  0  0  0
    7.6553   62.2701   21.4940 C   0  0  0  0  0  0  0  0  0  0  0  0
    8.9257   61.4521   21.8002 C   0  0  0  0  0  0  0  0  0  0  0  0
    9.9691   62.5562   21.7193 C   0  0  0  0  0  0  0  0  0  0  0  0
   10.3378   61.8866   15.1446 C   0  0  0  0  0  0  0  0  0  0  0  0
    9.9842   59.3773   14.6050 C   0  0  0  0  0  0  0  0  0  0  0  0
    9.1397   58.2439   14.3843 C   0  0  0  0  0  0  0  0  0  0  0  0
    7.7656   58.4394   14.4726 C   0  0  0  0  0  0  0  0  0  0  0  0
    7.2129   59.6815   14.7664 C   0  0  0  0  0  0  0  0  0  0  0  0
    8.0642   60.7600   14.9723 C   0  0  0  0  0  0  0  0  0  0  0  0
    9.4515   60.6354   14.9012 C   0  0  0  0  0  0  0  0  0  0  0  0
  9 10  1  0  0  0
 10 11  2  0  0  0
 10 15  1  0  0  0
 11 12  1  0  0  0
 12 13  2  0  0  0
 13 14  1  0  0  0
 13  6  1  0  0  0
 14 15  2  0  0  0
  6  7  2  0  0  0
  6  8  2  0  0  0
  6  5  1  0  0  0
  5 18  1  0  0  0
  5  4  1  0  0  0
 18 19  1  0  0  0
 19 20  1  0  0  0
 19 21  1  0  0  0
  4  1  1  0  0  0
  1  2  1  0  0  0
  1 22  1  0  0  0
 22 23  1  0  0  0
 22 36  1  0  0  0
 23 24  1  0  0  0
 24 25  2  0  0  0
 24 27  1  0  0  0
 27 28  1  0  0  0
 28 29  1  0  0  0
 28 35  1  0  0  0
 29 30  1  0  0  0
 30 31  1  0  0  0
 31 32  1  0  0  0
 31 35  1  0  0  0
 32 33  1  0  0  0
 33 34  1  0  0  0
 34 35  1  0  0  0
 36 42  1  0  0  0
 37 38  2  0  0  0
 37 42  1  0  0  0
 38 39  1  0  0  0
 39 40  2  0  0  0
 40 41  1  0  0  0
 41 42  2  0  0  0
  9 16  1  0  0  0
  9 17  1  0  0  0
  2  3  1  0  0  0
 23 26  1  0  0  0
M  END
> <minimizedAffinity>
-9.45831

$$$$
2F81_017_A_302


 42 45  0  0  0  0  0  0  0  0999 V2000
   10.7993   63.1702   17.0549 C   0  0  0  0  0  0  0  0  0  0  0  0
   10.5896   64.1098   15.9905 O   0  0  0  0  0  0  0  0  0  0  0  0
   10.8688   63.7140   15.1501 H   0  0  0  0  0  0  0  0  0  0  0  0
   12.3237   62.8269   17.0915 C   0  0  0  0  0  0  0  0  0  0  0  0
   13.1471   64.0284   17.3196 N   0  0  0  0  0  0  0  0  0  0  0  0
   13.4683   64.3702   19.0598 S   0  0  0  0  0  0  0  0  0  0  0  0
   13.7035   65.8943   19.1844 O   0  0  0  0  0  0  0  0  0  0  0  0
   14.6633   63.4559   19.4235 O   0  0  0  0  0  0  0  0  0  0  0  0
    8.4787   63.1600   21.8083 N   0  0  0  0  0  0  0  0  0  0  0  0
    9.6529   63.3491   21.2037 C   0  0  0  0  0  0  0  0  0  0  0  0
    9.8152   64.6063   20.6308 C   0  0  0  0  0  0  0  0  0  0  0  0
   10.9938   64.8861   19.9844 C   0  0  0  0  0  0  0  0  0  0  0  0
   11.9628   63.8753   19.9509 C   0  0  0  0  0  0  0  0  0  0  0  0
   11.8070   62.6149   20.5194 C   0  0  0  0  0  0  0  0  0  0  0  0
   10.5999   62.3198   21.1821 C   0  0  0  0  0  0  0  0  0  0  0  0
    7.8111   63.8834   21.8243 H   0  0  0  0  0  0  0  0  0  0  0  0
    8.2798   62.2971   22.2385 H   0  0  0  0  0  0  0  0  0  0  0  0
   14.2230   64.4515   16.3827 C   0  0  0  0  0  0  0  0  0  0  0  0
   14.2672   63.4531   15.1914 C   0  0  0  0  0  0  0  0  0  0  0  0
   13.8732   64.2159   13.9408 C   0  0  0  0  0  0  0  0  0  0  0  0
   15.6655   62.9023   15.0667 C   0  0  0  0  0  0  0  0  0  0  0  0
    9.9456   61.8938   16.7457 C   0  0  0  0  0  0  0  0  0  0  0  0
    9.0383   61.7524   17.8458 N   0  0  0  0  0  0  0  0  0  0  0  0
    8.6920   60.5771   18.3990 C   0  0  0  0  0  0  0  0  0  0  0  0
    9.0797   59.4419   18.0100 O   0  0  0  0  0  0  0  0  0  0  0  0
    8.6417   62.5712   18.2218 H   0  0  0  0  0  0  0  0  0  0  0  0
    7.8228   60.8974   19.4768 O   0  0  0  0  0  0  0  0  0  0  0  0
    7.1883   59.6877   20.0660 C   0  0  0  0  0  0  0  0  0  0  0  0
    7.8593   59.6063   21.4590 C   0  0  0  0  0  0  0  0  0  0  0  0
    7.2178   60.6053   22.2789 O   0  0  0  0  0  0  0  0  0  0  0  0
    5.9079   60.7649   21.7576 C   0  0  0  0  0  0  0  0  0  0  0  0
    5.5312   62.1496   21.6154 O   0  0  0  0  0  0  0  0  0  0  0  0
    5.3276   62.3098   20.2174 C   0  0  0  0  0  0  0  0  0  0  0  0
    4.8638   60.9419   19.6783 C   0  0  0  0  0  0  0  0  0  0  0  0
    5.7571   60.0247   20.5001 C   0  0  0  0  0  0  0  0  0  0  0  0
    9.1443   61.9467   15.4069 C   0  0  0  0  0  0  0  0  0  0  0  0
    7.5209   59.9905   14.9068 C   0  0  0  0  0  0  0  0  0  0  0  0
    7.2556   58.6569   14.4621 C   0  0  0  0  0  0  0  0  0  0  0  0
    8.3401   57.8880   14.0537 C   0  0  0  0  0  0  0  0  0  0  0  0
    9.6414   58.3793   14.0666 C   0  0  0  0  0  0  0  0  0  0  0  0
    9.8610   59.6784   14.5074 C   0  0  0  0  0  0  0  0  0  0  0  0
    8.8202   60.5056   14.9290 C   0  0  0  0  0  0  0  0  0  0  0  0
  9 10  1  0  0  0
 10 11  2  0  0  0
 10 15  1  0  0  0
 11 12  1  0  0  0
 12 13  2  0  0  0
 13 14  1  0  0  0
 13  6  1  0  0  0
 14 15  2  0  0  0
  6  7  2  0  0  0
  6  8  2  0  0  0
  6  5  1  0  0  0
  5 18  1  0  0  0
  5  4  1  0  0  0
 18 19  1  0  0  0
 19 20  1  0  0  0
 19 21  1  0  0  0
  4  1  1  0  0  0
  1  2  1  0  0  0
  1 22  1  0  0  0
 22 23  1  0  0  0
 22 36  1  0  0  0
 23 24  1  0  0  0
 24 25  2  0  0  0
 24 27  1  0  0  0
 27 28  1  0  0  0
 28 29  1  0  0  0
 28 35  1  0  0  0
 29 30  1  0  0  0
 30 31  1  0  0  0
 31 32  1  0  0  0
 31 35  1  0  0  0
 32 33  1  0  0  0
 33 34  1  0  0  0
 34 35  1  0  0  0
 36 42  1  0  0  0
 37 38  2  0  0  0
 37 42  1  0  0  0
 38 39  1  0  0  0
 39 40  2  0  0  0
 40 41  1  0  0  0
 41 42  2  0  0  0
  9 16  1  0  0  0
  9 17  1  0  0  0
  2  3  1  0  0  0
 23 26  1  0  0  0
M  END
> <minimizedAffinity>
-9.33702

$$$$
2F81_017_A_302


 42 45  0  0  0  0  0  0  0  0999 V2000
   13.4768   62.5550   17.9241 C   0  0  0  0  0  0  0  0  0  0  0  0
   13.8129   61.3224   18.5780 O   0  0  0  0  0  0  0  0  0  0  0  0
   14.0606   61.5018   19.4985 H   0  0  0  0  0  0  0  0  0  0  0  0
   14.7344   63.4813   17.9819 C   0  0  0  0  0  0  0  0  0  0  0  0
   14.4707   64.7964   17.3697 N   0  0  0  0  0  0  0  0  0  0  0  0
   14.5532   66.1699   18.5338 S   0  0  0  0  0  0  0  0  0  0  0  0
   14.5809   65.5568   19.9540 O   0  0  0  0  0  0  0  0  0  0  0  0
   13.3284   67.0505   18.1866 O   0  0  0  0  0  0  0  0  0  0  0  0
   19.3577   69.2981   17.5106 N   0  0  0  0  0  0  0  0  0  0  0  0
   18.3064   68.5030   17.7174 C   0  0  0  0  0  0  0  0  0  0  0  0
   17.1535   69.1611   18.1332 C   0  0  0  0  0  0  0  0  0  0  0  0
   16.0237   68.4185   18.3725 C   0  0  0  0  0  0  0  0  0  0  0  0
   16.1116   67.0347   18.1745 C   0  0  0  0  0  0  0  0  0  0  0  0
   17.2615   66.3691   17.7612 C   0  0  0  0  0  0  0  0  0  0  0  0
   18.4249   67.1239   17.5159 C   0  0  0  0  0  0  0  0  0  0  0  0
   19.2759   70.2690   17.6520 H   0  0  0  0  0  0  0  0  0  0  0  0
   20.2151   68.9140   17.2166 H   0  0  0  0  0  0  0  0  0  0  0  0
   14.8701   65.1247   15.9745 C   0  0  0  0  0  0  0  0  0  0  0  0
   15.5964   63.8940   15.3615 C   0  0  0  0  0  0  0  0  0  0  0  0
   14.6715   63.2881   14.3228 C   0  0  0  0  0  0  0  0  0  0  0  0
   16.8869   64.3522   14.7299 C   0  0  0  0  0  0  0  0  0  0  0  0
   12.2735   63.1966   18.6949 C   0  0  0  0  0  0  0  0  0  0  0  0
   11.1001   62.5253   18.2198 N   0  0  0  0  0  0  0  0  0  0  0  0
   10.4728   62.8157   17.0668 C   0  0  0  0  0  0  0  0  0  0  0  0
   10.7988   63.7345   16.2668 O   0  0  0  0  0  0  0  0  0  0  0  0
   10.7282   61.8025   18.7752 H   0  0  0  0  0  0  0  0  0  0  0  0
    9.4012   61.8879   16.9643 O   0  0  0  0  0  0  0  0  0  0  0  0
    9.8731   60.4775   17.0008 C   0  0  0  0  0  0  0  0  0  0  0  0
    8.8144   59.7968   17.9025 C   0  0  0  0  0  0  0  0  0  0  0  0
    7.6418   59.6089   17.0831 O   0  0  0  0  0  0  0  0  0  0  0  0
    8.1056   59.4949   15.7470 C   0  0  0  0  0  0  0  0  0  0  0  0
    7.3380   60.2917   14.8223 O   0  0  0  0  0  0  0  0  0  0  0  0
    8.2795   61.2233   14.3054 C   0  0  0  0  0  0  0  0  0  0  0  0
    9.6549   60.5277   14.3407 C   0  0  0  0  0  0  0  0  0  0  0  0
    9.5394   59.7953   15.6691 C   0  0  0  0  0  0  0  0  0  0  0  0
   12.3517   63.0813   20.2498 C   0  0  0  0  0  0  0  0  0  0  0  0
   10.1939   64.1840   21.1664 C   0  0  0  0  0  0  0  0  0  0  0  0
    8.8763   64.1050   21.7180 C   0  0  0  0  0  0  0  0  0  0  0  0
    8.3427   62.8381   21.9289 C   0  0  0  0  0  0  0  0  0  0  0  0
    9.0460   61.6788   21.6191 C   0  0  0  0  0  0  0  0  0  0  0  0
   10.3242   61.7945   21.0872 C   0  0  0  0  0  0  0  0  0  0  0  0
   10.9198   63.0326   20.8477 C   0  0  0  0  0  0  0  0  0  0  0  0
  9 10  1  0  0  0
 10 11  2  0  0  0
 10 15  1  0  0  0
 11 12  1  0  0  0
 12 13  2  0  0  0
 13 14  1  0  0  0
 13  6  1  0  0  0
 14 15  2  0  0  0
  6  7  2  0  0  0
  6  8  2  0  0  0
  6  5  1  0  0  0
  5 18  1  0  0  0
  5  4  1  0  0  0
 18 19  1  0  0  0
 19 20  1  0  0  0
 19 21  1  0  0  0
  4  1  1  0  0  0
  1  2  1  0  0  0
  1 22  1  0  0  0
 22 23  1  0  0  0
 22 36  1  0  0  0
 23 24  1  0  0  0
 24 25  2  0  0  0
 24 27  1  0  0  0
 27 28  1  0  0  0
 28 29  1  0  0  0
 28 35  1  0  0  0
 29 30  1  0  0  0
 30 31  1  0  0  0
 31 32  1  0  0  0
 31 35  1  0  0  0
 32 33  1  0  0  0
 33 34  1  0  0  0
 34 35  1  0  0  0
 36 42  1  0  0  0
 37 38  2  0  0  0
 37 42  1  0  0  0
 38 39  1  0  0  0
 39 40  2  0  0  0
 40 41  1  0  0  0
 41 42  2  0  0  0
  9 16  1  0  0  0
  9 17  1  0  0  0
  2  3  1  0  0  0
 23 26  1  0  0  0
M  END
> <minimizedAffinity>
-9.24352

$$$$
2F81_017_A_302


 42 45  0  0  0  0  0  0  0  0999 V2000
   12.3546   63.0770   17.6257 C   0  0  0  0  0  0  0  0  0  0  0  0
   13.4748   62.6709   18.4258 O   0  0  0  0  0  0  0  0  0  0  0  0
   13.5531   63.2578   19.1941 H   0  0  0  0  0  0  0  0  0  0  0  0
   12.6084   64.5491   17.1661 C   0  0  0  0  0  0  0  0  0  0  0  0
   13.9896   64.7395   16.6867 N   0  0  0  0  0  0  0  0  0  0  0  0
   14.3048   64.0104   15.0688 S   0  0  0  0  0  0  0  0  0  0  0  0
   13.0732   64.3219   14.1858 O   0  0  0  0  0  0  0  0  0  0  0  0
   14.5835   62.5161   15.3612 O   0  0  0  0  0  0  0  0  0  0  0  0
   18.7928   66.9572   12.8128 N   0  0  0  0  0  0  0  0  0  0  0  0
   17.8290   66.2252   13.3743 C   0  0  0  0  0  0  0  0  0  0  0  0
   16.5362   66.5969   13.0195 C   0  0  0  0  0  0  0  0  0  0  0  0
   15.4821   65.8983   13.5541 C   0  0  0  0  0  0  0  0  0  0  0  0
   15.7865   64.8452   14.4261 C   0  0  0  0  0  0  0  0  0  0  0  0
   17.0764   64.4692   14.7876 C   0  0  0  0  0  0  0  0  0  0  0  0
   18.1627   65.1825   14.2449 C   0  0  0  0  0  0  0  0  0  0  0  0
   18.5595   67.6914   12.1998 H   0  0  0  0  0  0  0  0  0  0  0  0
   19.7373   66.7631   13.0114 H   0  0  0  0  0  0  0  0  0  0  0  0
   14.7838   65.9591   16.9965 C   0  0  0  0  0  0  0  0  0  0  0  0
   15.7259   65.6491   18.1942 C   0  0  0  0  0  0  0  0  0  0  0  0
   17.0211   66.4048   17.9643 C   0  0  0  0  0  0  0  0  0  0  0  0
   15.0598   66.1001   19.4698 C   0  0  0  0  0  0  0  0  0  0  0  0
   11.0683   62.9822   18.5146 C   0  0  0  0  0  0  0  0  0  0  0  0
   10.2077   62.0413   17.8608 N   0  0  0  0  0  0  0  0  0  0  0  0
   10.6197   60.8791   17.3254 C   0  0  0  0  0  0  0  0  0  0  0  0
   11.8130   60.4727   17.2868 O   0  0  0  0  0  0  0  0  0  0  0  0
    9.2499   62.2608   17.7996 H   0  0  0  0  0  0  0  0  0  0  0  0
    9.4487   60.2430   16.8320 O   0  0  0  0  0  0  0  0  0  0  0  0
    9.0484   60.7600   15.4957 C   0  0  0  0  0  0  0  0  0  0  0  0
   10.2544   60.3604   14.6107 C   0  0  0  0  0  0  0  0  0  0  0  0
   10.1143   58.9493   14.3447 O   0  0  0  0  0  0  0  0  0  0  0  0
    8.7245   58.6701   14.4054 C   0  0  0  0  0  0  0  0  0  0  0  0
    8.4284   57.4861   15.1732 O   0  0  0  0  0  0  0  0  0  0  0  0
    7.6448   57.9656   16.2583 C   0  0  0  0  0  0  0  0  0  0  0  0
    6.8906   59.2081   15.7442 C   0  0  0  0  0  0  0  0  0  0  0  0
    7.9824   59.8381   14.8924 C   0  0  0  0  0  0  0  0  0  0  0  0
   11.3186   62.5303   19.9878 C   0  0  0  0  0  0  0  0  0  0  0  0
    9.4141   61.0932   20.9979 C   0  0  0  0  0  0  0  0  0  0  0  0
    8.1607   60.9602   21.6745 C   0  0  0  0  0  0  0  0  0  0  0  0
    7.5039   62.1283   22.0463 C   0  0  0  0  0  0  0  0  0  0  0  0
    8.0302   63.3885   21.7822 C   0  0  0  0  0  0  0  0  0  0  0  0
    9.2487   63.4787   21.1210 C   0  0  0  0  0  0  0  0  0  0  0  0
    9.9624   62.3491   20.7214 C   0  0  0  0  0  0  0  0  0  0  0  0
  9 10  1  0  0  0
 10 11  2  0  0  0
 10 15  1  0  0  0
 11 12  1  0  0  0
 12 13  2  0  0  0
 13 14  1  0  0  0
 13  6  1  0  0  0
 14 15  2  0  0  0
  6  7  2  0  0  0
  6  8  2  0  0  0
  6  5  1  0  0  0
  5 18  1  0  0  0
  5  4  1  0  0  0
 18 19  1  0  0  0
 19 20  1  0  0  0
 19 21  1  0  0  0
  4  1  1  0  0  0
  1  2  1  0  0  0
  1 22  1  0  0  0
 22 23  1  0  0  0
 22 36  1  0  0  0
 23 24  1  0  0  0
 24 25  2  0  0  0
 24 27  1  0  0  0
 27 28  1  0  0  0
 28 29  1  0  0  0
 28 35  1  0  0  0
 29 30  1  0  0  0
 30 31  1  0  0  0
 31 32  1  0  0  0
 31 35  1  0  0  0
 32 33  1  0  0  0
 33 34  1  0  0  0
 34 35  1  0  0  0
 36 42  1  0  0  0
 37 38  2  0  0  0
 37 42  1  0  0  0
 38 39  1  0  0  0
 39 40  2  0  0  0
 40 41  1  0  0  0
 41 42  2  0  0  0
  9 16  1  0  0  0
  9 17  1  0  0  0
  2  3  1  0  0  0
 23 26  1  0  0  0
M  END
> <minimizedAffinity>
-9.06293

$$$$
2F81_017_A_302


 42 45  0  0  0  0  0  0  0  0999 V2000
   11.6267   64.0913   18.1782 C   0  0  0  0  0  0  0  0  0  0  0  0
   10.5150   64.7604   18.7918 O   0  0  0  0  0  0  0  0  0  0  0  0
    9.8646   64.9966   18.1121 H   0  0  0  0  0  0  0  0  0  0  0  0
   12.2554   65.0728   17.1368 C   0  0  0  0  0  0  0  0  0  0  0  0
   13.7270   64.9832   17.1234 N   0  0  0  0  0  0  0  0  0  0  0  0
   14.4763   65.0814   18.7597 S   0  0  0  0  0  0  0  0  0  0  0  0
   14.9509   63.6548   19.1250 O   0  0  0  0  0  0  0  0  0  0  0  0
   13.3741   65.6928   19.6582 O   0  0  0  0  0  0  0  0  0  0  0  0
   18.9083   68.8559   18.6001 N   0  0  0  0  0  0  0  0  0  0  0  0
   17.9241   67.9566   18.5518 C   0  0  0  0  0  0  0  0  0  0  0  0
   17.0302   68.0163   19.6160 C   0  0  0  0  0  0  0  0  0  0  0  0
   15.9870   67.1242   19.6482 C   0  0  0  0  0  0  0  0  0  0  0  0
   15.8928   66.2088   18.5922 C   0  0  0  0  0  0  0  0  0  0  0  0
   16.7840   66.1413   17.5258 C   0  0  0  0  0  0  0  0  0  0  0  0
   17.8578   67.0517   17.4871 C   0  0  0  0  0  0  0  0  0  0  0  0
   18.9563   69.4935   19.3488 H   0  0  0  0  0  0  0  0  0  0  0  0
   19.5867   68.8821   17.8871 H   0  0  0  0  0  0  0  0  0  0  0  0
   14.4697   64.1538   16.1362 C   0  0  0  0  0  0  0  0  0  0  0  0
   14.2048   64.7183   14.7118 C   0  0  0  0  0  0  0  0  0  0  0  0
   15.5391   65.1564   14.1382 C   0  0  0  0  0  0  0  0  0  0  0  0
   13.5850   63.6358   13.8642 C   0  0  0  0  0  0  0  0  0  0  0  0
   11.0839   62.8014   17.4746 C   0  0  0  0  0  0  0  0  0  0  0  0
    9.9399   62.3918   18.2340 N   0  0  0  0  0  0  0  0  0  0  0  0
   10.0005   61.7868   19.4330 C   0  0  0  0  0  0  0  0  0  0  0  0
   11.0590   61.4613   20.0365 O   0  0  0  0  0  0  0  0  0  0  0  0
    9.0492   62.5652   17.8520 H   0  0  0  0  0  0  0  0  0  0  0  0
    8.6523   61.6050   19.8439 O   0  0  0  0  0  0  0  0  0  0  0  0
    8.5270   60.5990   20.9326 C   0  0  0  0  0  0  0  0  0  0  0  0
    7.4437   61.2282   21.8425 C   0  0  0  0  0  0  0  0  0  0  0  0
    6.1783   60.9955   21.1896 O   0  0  0  0  0  0  0  0  0  0  0  0
    6.3400   59.8141   20.4206 C   0  0  0  0  0  0  0  0  0  0  0  0
    5.8136   59.9443   19.0845 O   0  0  0  0  0  0  0  0  0  0  0  0
    6.9514   59.7804   18.2479 C   0  0  0  0  0  0  0  0  0  0  0  0
    7.9260   58.8548   19.0031 C   0  0  0  0  0  0  0  0  0  0  0  0
    7.7433   59.3866   20.4168 C   0  0  0  0  0  0  0  0  0  0  0  0
   10.6817   62.9883   15.9777 C   0  0  0  0  0  0  0  0  0  0  0  0
   10.7384   60.4873   15.3038 C   0  0  0  0  0  0  0  0  0  0  0  0
   10.1097   59.3039   14.8030 C   0  0  0  0  0  0  0  0  0  0  0  0
    8.7664   59.3886   14.4529 C   0  0  0  0  0  0  0  0  0  0  0  0
    8.0424   60.5695   14.5801 C   0  0  0  0  0  0  0  0  0  0  0  0
    8.6870   61.6994   15.0678 C   0  0  0  0  0  0  0  0  0  0  0  0
   10.0311   61.6854   15.4399 C   0  0  0  0  0  0  0  0  0  0  0  0
  9 10  1  0  0  0
 10 11  2  0  0  0
 10 15  1  0  0  0
 11 12  1  0  0  0
 12 13  2  0  0  0
 13 14  1  0  0  0
 13  6  1  0  0  0
 14 15  2  0  0  0
  6  7  2  0  0  0
  6  8  2  0  0  0
  6  5  1  0  0  0
  5 18  1  0  0  0
  5  4  1  0  0  0
 18 19  1  0  0  0
 19 20  1  0  0  0
 19 21  1  0  0  0
  4  1  1  0  0  0
  1  2  1  0  0  0
  1 22  1  0  0  0
 22 23  1  0  0  0
 22 36  1  0  0  0
 23 24  1  0  0  0
 24 25  2  0  0  0
 24 27  1  0  0  0
 27 28  1  0  0  0
 28 29  1  0  0  0
 28 35  1  0  0  0
 29 30  1  0  0  0
 30 31  1  0  0  0
 31 32  1  0  0  0
 31 35  1  0  0  0
 32 33  1  0  0  0
 33 34  1  0  0  0
 34 35  1  0  0  0
 36 42  1  0  0  0
 37 38  2  0  0  0
 37 42  1  0  0  0
 38 39  1  0  0  0
 39 40  2  0  0  0
 40 41  1  0  0  0
 41 42  2  0  0  0
  9 16  1  0  0  0
  9 17  1  0  0  0
  2  3  1  0  0  0
 23 26  1  0  0  0
M  END
> <minimizedAffinity>
-9.00459

$$$$
2F81_017_A_302


 42 45  0  0  0  0  0  0  0  0999 V2000
   10.8395   63.1930   17.2952 C   0  0  0  0  0  0  0  0  0  0  0  0
   10.5489   64.2326   16.3493 O   0  0  0  0  0  0  0  0  0  0  0  0
   10.7779   63.9305   15.4564 H   0  0  0  0  0  0  0  0  0  0  0  0
   12.3673   62.8775   17.1993 C   0  0  0  0  0  0  0  0  0  0  0  0
   13.1793   64.1081   17.2116 N   0  0  0  0  0  0  0  0  0  0  0  0
   13.8747   64.5044   18.8264 S   0  0  0  0  0  0  0  0  0  0  0  0
   14.8636   63.3690   19.1829 O   0  0  0  0  0  0  0  0  0  0  0  0
   12.6450   64.6640   19.7529 O   0  0  0  0  0  0  0  0  0  0  0  0
   17.0384   69.3347   18.0688 N   0  0  0  0  0  0  0  0  0  0  0  0
   16.2370   68.2850   18.2584 C   0  0  0  0  0  0  0  0  0  0  0  0
   16.8709   67.0491   18.1812 C   0  0  0  0  0  0  0  0  0  0  0  0
   16.1201   65.9138   18.3611 C   0  0  0  0  0  0  0  0  0  0  0  0
   14.7533   66.0822   18.6170 C   0  0  0  0  0  0  0  0  0  0  0  0
   14.1118   67.3146   18.6933 C   0  0  0  0  0  0  0  0  0  0  0  0
   14.8750   68.4836   18.5077 C   0  0  0  0  0  0  0  0  0  0  0  0
   17.9973   69.1966   17.8932 H   0  0  0  0  0  0  0  0  0  0  0  0
   16.6710   70.2474   18.1044 H   0  0  0  0  0  0  0  0  0  0  0  0
   13.9997   64.5377   16.0468 C   0  0  0  0  0  0  0  0  0  0  0  0
   14.0814   63.3608   15.0338 C   0  0  0  0  0  0  0  0  0  0  0  0
   13.5305   63.8576   13.7106 C   0  0  0  0  0  0  0  0  0  0  0  0
   15.5217   62.9374   14.8912 C   0  0  0  0  0  0  0  0  0  0  0  0
    9.9839   61.9387   16.9104 C   0  0  0  0  0  0  0  0  0  0  0  0
    9.0085   61.7947   17.9503 N   0  0  0  0  0  0  0  0  0  0  0  0
    8.6348   60.6189   18.4842 C   0  0  0  0  0  0  0  0  0  0  0  0
    9.0540   59.4851   18.1250 O   0  0  0  0  0  0  0  0  0  0  0  0
    8.5834   62.6121   18.2971 H   0  0  0  0  0  0  0  0  0  0  0  0
    7.6960   60.9368   19.5026 O   0  0  0  0  0  0  0  0  0  0  0  0
    7.0558   59.7226   20.0761 C   0  0  0  0  0  0  0  0  0  0  0  0
    7.6690   59.6638   21.4966 C   0  0  0  0  0  0  0  0  0  0  0  0
    6.9787   60.6597   22.2797 O   0  0  0  0  0  0  0  0  0  0  0  0
    5.6894   60.7945   21.7027 C   0  0  0  0  0  0  0  0  0  0  0  0
    5.2981   62.1718   21.5319 O   0  0  0  0  0  0  0  0  0  0  0  0
    5.1509   62.3167   20.1252 C   0  0  0  0  0  0  0  0  0  0  0  0
    4.7309   60.9372   19.5801 C   0  0  0  0  0  0  0  0  0  0  0  0
    5.6027   60.0411   20.4469 C   0  0  0  0  0  0  0  0  0  0  0  0
    9.2672   62.0306   15.5266 C   0  0  0  0  0  0  0  0  0  0  0  0
    7.5982   60.1285   14.9707 C   0  0  0  0  0  0  0  0  0  0  0  0
    7.3032   58.8097   14.5015 C   0  0  0  0  0  0  0  0  0  0  0  0
    8.3724   58.0166   14.0989 C   0  0  0  0  0  0  0  0  0  0  0  0
    9.6865   58.4708   14.1401 C   0  0  0  0  0  0  0  0  0  0  0  0
    9.9350   59.7565   14.6041 C   0  0  0  0  0  0  0  0  0  0  0  0
    8.9109   60.6064   15.0216 C   0  0  0  0  0  0  0  0  0  0  0  0
  9 10  1  0  0  0
 10 11  2  0  0  0
 10 15  1  0  0  0
 11 12  1  0  0  0
 12 13  2  0  0  0
 13 14  1  0  0  0
 13  6  1  0  0  0
 14 15  2  0  0  0
  6  7  2  0  0  0
  6  8  2  0  0  0
  6  5  1  0  0  0
  5 18  1  0  0  0
  5  4  1  0  0  0
 18 19  1  0  0  0
 19 20  1  0  0  0
 19 21  1  0  0  0
  4  1  1  0  0  0
  1  2  1  0  0  0
  1 22  1  0  0  0
 22 23  1  0  0  0
 22 36  1  0  0  0
 23 24  1  0  0  0
 24 25  2  0  0  0
 24 27  1  0  0  0
 27 28  1  0  0  0
 28 29  1  0  0  0
 28 35  1  0  0  0
 29 30  1  0  0  0
 30 31  1  0  0  0
 31 32  1  0  0  0
 31 35  1  0  0  0
 32 33  1  0  0  0
 33 34  1  0  0  0
 34 35  1  0  0  0
 36 42  1  0  0  0
 37 38  2  0  0  0
 37 42  1  0  0  0
 38 39  1  0  0  0
 39 40  2  0  0  0
 40 41  1  0  0  0
 41 42  2  0  0  0
  9 16  1  0  0  0
  9 17  1  0  0  0
  2  3  1  0  0  0
 23 26  1  0  0  0
M  END
> <minimizedAffinity>
-8.92792

$$$$
