5ULT_8FM_B_201


 43 47  0  0  0  0  0  0  0  0999 V2000
   15.5901   22.3395   18.7490 C   0  0  0  0  0  0  0  0  0  0  0  0
   14.3465   20.4545   19.8009 C   0  0  0  0  0  0  0  0  0  0  0  0
   14.4838   21.3753   18.8413 N   0  0  0  0  0  0  0  0  0  0  0  0
   15.0962   20.4206   20.7744 O   0  0  0  0  0  0  0  0  0  0  0  0
   13.7910   21.4105   18.1427 H   0  0  0  0  0  0  0  0  0  0  0  0
   13.3401   19.5526   19.6787 O   0  0  0  0  0  0  0  0  0  0  0  0
   13.5938   18.5036   18.7324 C   0  0  0  0  0  0  0  0  0  0  0  0
   12.9113   17.2392   19.2437 C   0  0  0  0  0  0  0  0  0  0  0  0
   12.5262   16.5001   17.9620 C   0  0  0  0  0  0  0  0  0  0  0  0
   11.9501   17.6457   17.1386 C   0  0  0  0  0  0  0  0  0  0  0  0
   10.6553   18.0832   17.8126 C   0  0  0  0  0  0  0  0  0  0  0  0
   10.6534   19.4972   17.9548 O   0  0  0  0  0  0  0  0  0  0  0  0
   11.9435   19.9757   17.5572 C   0  0  0  0  0  0  0  0  0  0  0  0
   12.8931   18.8042   17.4107 C   0  0  0  0  0  0  0  0  0  0  0  0
   11.6028   17.6744   19.9203 C   0  0  0  0  0  0  0  0  0  0  0  0
   10.5058   17.3749   19.0467 O   0  0  0  0  0  0  0  0  0  0  0  0
   15.3546   23.2821   17.5730 C   0  0  0  0  0  0  0  0  0  0  0  0
   14.7853   24.5114   18.0245 O   0  0  0  0  0  0  0  0  0  0  0  0
   13.9112   24.3410   18.4090 H   0  0  0  0  0  0  0  0  0  0  0  0
   14.4861   22.6950   16.4636 C   0  0  0  0  0  0  0  0  0  0  0  0
   14.9427   23.1092   15.1559 N   0  0  0  0  0  0  0  0  0  0  0  0
   16.4428   22.5943   14.7583 S   0  0  0  0  0  0  0  0  0  0  0  0
   16.5076   22.4512   13.2800 O   0  0  0  0  0  0  0  0  0  0  0  0
   16.6670   21.3022   15.4760 O   0  0  0  0  0  0  0  0  0  0  0  0
   18.8799   23.3350   15.8184 C   0  0  0  0  0  0  0  0  0  0  0  0
   17.6463   23.7462   15.3180 C   0  0  0  0  0  0  0  0  0  0  0  0
   17.3879   25.1133   15.2410 C   0  0  0  0  0  0  0  0  0  0  0  0
   18.3191   26.0490   15.6667 C   0  0  0  0  0  0  0  0  0  0  0  0
   19.8539   24.2724   16.1861 C   0  0  0  0  0  0  0  0  0  0  0  0
   19.5392   25.6349   16.1821 C   0  0  0  0  0  0  0  0  0  0  0  0
   20.4056   26.5827   16.6616 O   0  0  0  0  0  0  0  0  0  0  0  0
   21.4268   25.9268   17.4109 C   0  0  0  0  0  0  0  0  0  0  0  0
   13.9625   22.9668   14.0940 C   0  0  0  0  0  0  0  0  0  0  0  0
   13.1318   21.6897   14.2609 C   0  0  0  0  0  0  0  0  0  0  0  0
   13.6056   20.6537   13.2170 C   0  0  0  0  0  0  0  0  0  0  0  0
   11.6353   21.9610   14.0585 C   0  0  0  0  0  0  0  0  0  0  0  0
   16.9026   21.5404   18.5936 C   0  0  0  0  0  0  0  0  0  0  0  0
   17.8124   23.6873   19.5763 C   0  0  0  0  0  0  0  0  0  0  0  0
   18.8502   24.4846   20.0343 C   0  0  0  0  0  0  0  0  0  0  0  0
   20.1280   23.9534   20.1569 C   0  0  0  0  0  0  0  0  0  0  0  0
   20.3507   22.6282   19.7855 C   0  0  0  0  0  0  0  0  0  0  0  0
   19.3231   21.8379   19.2913 C   0  0  0  0  0  0  0  0  0  0  0  0
   18.0474   22.3755   19.1774 C   0  0  0  0  0  0  0  0  0  0  0  0
 40 41  2  0  0  0
 40 39  1  0  0  0
 41 42  1  0  0  0
 39 38  2  0  0  0
 42 43  2  0  0  0
 38 43  1  0  0  0
 28 30  2  0  0  0
 28 27  1  0  0  0
 31 30  1  0  0  0
 31 32  1  0  0  0
 43 37  1  0  0  0
 23 22  2  0  0  0
 30 29  1  0  0  0
 27 26  2  0  0  0
 29 25  2  0  0  0
 26 25  1  0  0  0
 26 22  1  0  0  0
 37  1  1  0  0  0
 22 24  2  0  0  0
 22 21  1  0  0  0
  1  3  1  0  0  0
  1 17  1  0  0  0
 14 13  1  0  0  0
 14 10  1  0  0  0
 14  7  1  0  0  0
 13 12  1  0  0  0
  4  2  2  0  0  0
 21 20  1  0  0  0
 21 33  1  0  0  0
 20 17  1  0  0  0
  3  2  1  0  0  0
 10 11  1  0  0  0
 10  9  1  0  0  0
  2  6  1  0  0  0
  7  6  1  0  0  0
  7  8  1  0  0  0
 17 18  1  0  0  0
 12 11  1  0  0  0
 33 34  1  0  0  0
 11 16  1  0  0  0
  9  8  1  0  0  0
  8 15  1  0  0  0
 34 36  1  0  0  0
 34 35  1  0  0  0
 16 15  1  0  0  0
 18 19  1  0  0  0
  3  5  1  0  0  0
M  END
> <minimizedAffinity>
-10.19934

$$$$
5ULT_8FM_B_201


 43 47  0  0  0  0  0  0  0  0999 V2000
   17.2948   23.3068   15.5197 C   0  0  0  0  0  0  0  0  0  0  0  0
   18.2672   25.5119   16.1509 C   0  0  0  0  0  0  0  0  0  0  0  0
   18.2536   24.4138   15.3882 N   0  0  0  0  0  0  0  0  0  0  0  0
   17.5290   25.6286   17.1268 O   0  0  0  0  0  0  0  0  0  0  0  0
   18.9381   24.3408   14.6844 H   0  0  0  0  0  0  0  0  0  0  0  0
   19.1341   26.5033   15.8243 O   0  0  0  0  0  0  0  0  0  0  0  0
   20.4092   26.0455   15.3501 C   0  0  0  0  0  0  0  0  0  0  0  0
   20.8867   27.0218   14.2801 C   0  0  0  0  0  0  0  0  0  0  0  0
   22.4086   26.9862   14.4203 C   0  0  0  0  0  0  0  0  0  0  0  0
   22.5538   27.0635   15.9352 C   0  0  0  0  0  0  0  0  0  0  0  0
   22.0942   28.4512   16.3654 C   0  0  0  0  0  0  0  0  0  0  0  0
   21.1855   28.3304   17.4513 O   0  0  0  0  0  0  0  0  0  0  0  0
   20.9119   26.9366   17.6359 C   0  0  0  0  0  0  0  0  0  0  0  0
   21.4543   26.1554   16.4564 C   0  0  0  0  0  0  0  0  0  0  0  0
   20.4297   28.4235   14.7113 C   0  0  0  0  0  0  0  0  0  0  0  0
   21.5572   29.1402   15.2322 O   0  0  0  0  0  0  0  0  0  0  0  0
   17.8818   22.2211   16.4161 C   0  0  0  0  0  0  0  0  0  0  0  0
   18.6425   21.2924   15.6430 O   0  0  0  0  0  0  0  0  0  0  0  0
   18.0573   20.8354   15.0188 H   0  0  0  0  0  0  0  0  0  0  0  0
   16.8466   21.4665   17.2460 C   0  0  0  0  0  0  0  0  0  0  0  0
   16.6648   22.0713   18.5465 N   0  0  0  0  0  0  0  0  0  0  0  0
   15.1170   22.1166   19.0716 S   0  0  0  0  0  0  0  0  0  0  0  0
   14.4556   23.3015   18.4643 O   0  0  0  0  0  0  0  0  0  0  0  0
   15.1627   22.1801   20.5644 O   0  0  0  0  0  0  0  0  0  0  0  0
   13.4366   20.5902   17.5039 C   0  0  0  0  0  0  0  0  0  0  0  0
   14.2788   20.6418   18.6126 C   0  0  0  0  0  0  0  0  0  0  0  0
   14.4713   19.4753   19.3501 C   0  0  0  0  0  0  0  0  0  0  0  0
   13.8311   18.2926   19.0102 C   0  0  0  0  0  0  0  0  0  0  0  0
   12.8400   19.3850   17.1112 C   0  0  0  0  0  0  0  0  0  0  0  0
   12.9783   18.2500   17.9162 C   0  0  0  0  0  0  0  0  0  0  0  0
   12.3053   17.0853   17.6529 O   0  0  0  0  0  0  0  0  0  0  0  0
   11.4700   16.7813   18.7684 C   0  0  0  0  0  0  0  0  0  0  0  0
   17.6241   21.6531   19.5533 C   0  0  0  0  0  0  0  0  0  0  0  0
   18.9235   22.4608   19.4642 C   0  0  0  0  0  0  0  0  0  0  0  0
   20.0565   21.6462   20.1280 C   0  0  0  0  0  0  0  0  0  0  0  0
   18.7944   23.8152   20.1734 C   0  0  0  0  0  0  0  0  0  0  0  0
   16.9844   22.7787   14.1020 C   0  0  0  0  0  0  0  0  0  0  0  0
   14.5663   23.2894   14.6442 C   0  0  0  0  0  0  0  0  0  0  0  0
   13.2167   22.9712   14.6538 C   0  0  0  0  0  0  0  0  0  0  0  0
   12.7688   21.8379   13.9867 C   0  0  0  0  0  0  0  0  0  0  0  0
   13.6950   21.0195   13.3415 C   0  0  0  0  0  0  0  0  0  0  0  0
   15.0507   21.3138   13.3613 C   0  0  0  0  0  0  0  0  0  0  0  0
   15.4890   22.4520   14.0258 C   0  0  0  0  0  0  0  0  0  0  0  0
 40 41  2  0  0  0
 40 39  1  0  0  0
 41 42  1  0  0  0
 39 38  2  0  0  0
 42 43  2  0  0  0
 38 43  1  0  0  0
 28 30  2  0  0  0
 28 27  1  0  0  0
 31 30  1  0  0  0
 31 32  1  0  0  0
 43 37  1  0  0  0
 23 22  2  0  0  0
 30 29  1  0  0  0
 27 26  2  0  0  0
 29 25  2  0  0  0
 26 25  1  0  0  0
 26 22  1  0  0  0
 37  1  1  0  0  0
 22 24  2  0  0  0
 22 21  1  0  0  0
  1  3  1  0  0  0
  1 17  1  0  0  0
 14 13  1  0  0  0
 14 10  1  0  0  0
 14  7  1  0  0  0
 13 12  1  0  0  0
  4  2  2  0  0  0
 21 20  1  0  0  0
 21 33  1  0  0  0
 20 17  1  0  0  0
  3  2  1  0  0  0
 10 11  1  0  0  0
 10  9  1  0  0  0
  2  6  1  0  0  0
  7  6  1  0  0  0
  7  8  1  0  0  0
 17 18  1  0  0  0
 12 11  1  0  0  0
 33 34  1  0  0  0
 11 16  1  0  0  0
  9  8  1  0  0  0
  8 15  1  0  0  0
 34 36  1  0  0  0
 34 35  1  0  0  0
 16 15  1  0  0  0
 18 19  1  0  0  0
  3  5  1  0  0  0
M  END
> <minimizedAffinity>
-10.18670

$$$$
5ULT_8FM_B_201


 43 47  0  0  0  0  0  0  0  0999 V2000
   17.2656   24.6828   15.9713 C   0  0  0  0  0  0  0  0  0  0  0  0
   18.7548   26.2525   14.7366 C   0  0  0  0  0  0  0  0  0  0  0  0
   18.5228   25.4126   15.7507 N   0  0  0  0  0  0  0  0  0  0  0  0
   17.8659   26.5785   13.9528 O   0  0  0  0  0  0  0  0  0  0  0  0
   19.2497   25.2720   16.3997 H   0  0  0  0  0  0  0  0  0  0  0  0
   20.0090   26.7515   14.5973 O   0  0  0  0  0  0  0  0  0  0  0  0
   20.4637   27.5354   15.7104 C   0  0  0  0  0  0  0  0  0  0  0  0
   21.6048   26.7766   16.3799 C   0  0  0  0  0  0  0  0  0  0  0  0
   22.4971   27.8895   16.9300 C   0  0  0  0  0  0  0  0  0  0  0  0
   22.5332   28.8370   15.7370 C   0  0  0  0  0  0  0  0  0  0  0  0
   23.3130   28.1413   14.6279 C   0  0  0  0  0  0  0  0  0  0  0  0
   22.5808   28.2268   13.4130 O   0  0  0  0  0  0  0  0  0  0  0  0
   21.3018   28.7963   13.7156 C   0  0  0  0  0  0  0  0  0  0  0  0
   21.1066   28.8286   15.2178 C   0  0  0  0  0  0  0  0  0  0  0  0
   22.3970   26.0769   15.2653 C   0  0  0  0  0  0  0  0  0  0  0  0
   23.6121   26.8021   15.0331 O   0  0  0  0  0  0  0  0  0  0  0  0
   17.0637   24.4447   17.4644 C   0  0  0  0  0  0  0  0  0  0  0  0
   16.0563   25.3168   17.9776 O   0  0  0  0  0  0  0  0  0  0  0  0
   16.3508   26.2370   17.8917 H   0  0  0  0  0  0  0  0  0  0  0  0
   18.3341   24.5861   18.2987 C   0  0  0  0  0  0  0  0  0  0  0  0
   18.4106   23.5718   19.3261 N   0  0  0  0  0  0  0  0  0  0  0  0
   18.5398   22.0399   18.7692 S   0  0  0  0  0  0  0  0  0  0  0  0
   19.3139   21.2491   19.7620 O   0  0  0  0  0  0  0  0  0  0  0  0
   19.2120   22.1137   17.4361 O   0  0  0  0  0  0  0  0  0  0  0  0
   16.6151   20.6217   17.3924 C   0  0  0  0  0  0  0  0  0  0  0  0
   16.9431   21.3432   18.5384 C   0  0  0  0  0  0  0  0  0  0  0  0
   15.9744   21.4825   19.5303 C   0  0  0  0  0  0  0  0  0  0  0  0
   14.7070   20.9383   19.3831 C   0  0  0  0  0  0  0  0  0  0  0  0
   15.3616   20.0093   17.2641 C   0  0  0  0  0  0  0  0  0  0  0  0
   14.3782   20.2364   18.2319 C   0  0  0  0  0  0  0  0  0  0  0  0
   13.0953   19.7759   18.0872 O   0  0  0  0  0  0  0  0  0  0  0  0
   12.7508   19.0201   19.2467 C   0  0  0  0  0  0  0  0  0  0  0  0
   19.3060   23.8839   20.4260 C   0  0  0  0  0  0  0  0  0  0  0  0
   20.5406   24.6551   19.9467 C   0  0  0  0  0  0  0  0  0  0  0  0
   21.7544   23.6989   19.9588 C   0  0  0  0  0  0  0  0  0  0  0  0
   20.8384   25.8589   20.8502 C   0  0  0  0  0  0  0  0  0  0  0  0
   17.3425   23.3580   15.1813 C   0  0  0  0  0  0  0  0  0  0  0  0
   15.8391   22.2046   13.5044 C   0  0  0  0  0  0  0  0  0  0  0  0
   14.6085   21.9909   12.9024 C   0  0  0  0  0  0  0  0  0  0  0  0
   13.4708   22.5966   13.4206 C   0  0  0  0  0  0  0  0  0  0  0  0
   13.5933   23.4383   14.5254 C   0  0  0  0  0  0  0  0  0  0  0  0
   14.8282   23.6847   15.1078 C   0  0  0  0  0  0  0  0  0  0  0  0
   15.9596   23.0703   14.5866 C   0  0  0  0  0  0  0  0  0  0  0  0
 40 41  2  0  0  0
 40 39  1  0  0  0
 41 42  1  0  0  0
 39 38  2  0  0  0
 42 43  2  0  0  0
 38 43  1  0  0  0
 28 30  2  0  0  0
 28 27  1  0  0  0
 31 30  1  0  0  0
 31 32  1  0  0  0
 43 37  1  0  0  0
 23 22  2  0  0  0
 30 29  1  0  0  0
 27 26  2  0  0  0
 29 25  2  0  0  0
 26 25  1  0  0  0
 26 22  1  0  0  0
 37  1  1  0  0  0
 22 24  2  0  0  0
 22 21  1  0  0  0
  1  3  1  0  0  0
  1 17  1  0  0  0
 14 13  1  0  0  0
 14 10  1  0  0  0
 14  7  1  0  0  0
 13 12  1  0  0  0
  4  2  2  0  0  0
 21 20  1  0  0  0
 21 33  1  0  0  0
 20 17  1  0  0  0
  3  2  1  0  0  0
 10 11  1  0  0  0
 10  9  1  0  0  0
  2  6  1  0  0  0
  7  6  1  0  0  0
  7  8  1  0  0  0
 17 18  1  0  0  0
 12 11  1  0  0  0
 33 34  1  0  0  0
 11 16  1  0  0  0
  9  8  1  0  0  0
  8 15  1  0  0  0
 34 36  1  0  0  0
 34 35  1  0  0  0
 16 15  1  0  0  0
 18 19  1  0  0  0
  3  5  1  0  0  0
M  END
> <minimizedAffinity>
-10.17790

$$$$
5ULT_8FM_B_201


 43 47  0  0  0  0  0  0  0  0999 V2000
   17.4927   24.3282   18.0531 C   0  0  0  0  0  0  0  0  0  0  0  0
   18.7063   25.4861   16.2112 C   0  0  0  0  0  0  0  0  0  0  0  0
   18.2538   25.4422   17.4685 N   0  0  0  0  0  0  0  0  0  0  0  0
   18.4097   24.6225   15.3884 O   0  0  0  0  0  0  0  0  0  0  0  0
   18.4448   26.2153   18.0475 H   0  0  0  0  0  0  0  0  0  0  0  0
   19.5028   26.5260   15.8570 O   0  0  0  0  0  0  0  0  0  0  0  0
   20.7790   26.1422   15.3237 C   0  0  0  0  0  0  0  0  0  0  0  0
   21.1553   27.1509   14.2434 C   0  0  0  0  0  0  0  0  0  0  0  0
   22.6816   27.1978   14.3172 C   0  0  0  0  0  0  0  0  0  0  0  0
   22.8885   27.2720   15.8252 C   0  0  0  0  0  0  0  0  0  0  0  0
   22.3733   28.6293   16.2881 C   0  0  0  0  0  0  0  0  0  0  0  0
   21.5208   28.4510   17.4111 O   0  0  0  0  0  0  0  0  0  0  0  0
   21.3319   27.0430   17.5940 C   0  0  0  0  0  0  0  0  0  0  0  0
   21.8639   26.3012   16.3848 C   0  0  0  0  0  0  0  0  0  0  0  0
   20.6420   28.5223   14.7075 C   0  0  0  0  0  0  0  0  0  0  0  0
   21.7505   29.2959   15.1859 O   0  0  0  0  0  0  0  0  0  0  0  0
   16.0083   24.5031   17.7487 C   0  0  0  0  0  0  0  0  0  0  0  0
   15.4920   25.6511   18.4228 O   0  0  0  0  0  0  0  0  0  0  0  0
   15.5538   25.5179   19.3817 H   0  0  0  0  0  0  0  0  0  0  0  0
   15.1519   23.2854   18.0860 C   0  0  0  0  0  0  0  0  0  0  0  0
   15.4098   22.1874   17.1816 N   0  0  0  0  0  0  0  0  0  0  0  0
   15.7909   20.7740   17.9098 S   0  0  0  0  0  0  0  0  0  0  0  0
   16.7428   21.0632   19.0145 O   0  0  0  0  0  0  0  0  0  0  0  0
   16.3745   19.8839   16.8601 O   0  0  0  0  0  0  0  0  0  0  0  0
   14.2337   19.6068   19.8653 C   0  0  0  0  0  0  0  0  0  0  0  0
   14.3397   20.0041   18.5341 C   0  0  0  0  0  0  0  0  0  0  0  0
   13.2450   19.8026   17.6960 C   0  0  0  0  0  0  0  0  0  0  0  0
   12.0819   19.2051   18.1589 C   0  0  0  0  0  0  0  0  0  0  0  0
   13.0397   19.0662   20.3600 C   0  0  0  0  0  0  0  0  0  0  0  0
   11.9870   18.7936   19.4808 C   0  0  0  0  0  0  0  0  0  0  0  0
   10.8520   18.1404   19.8857 O   0  0  0  0  0  0  0  0  0  0  0  0
   10.3498   17.3801   18.7883 C   0  0  0  0  0  0  0  0  0  0  0  0
   14.4594   22.0591   16.0911 C   0  0  0  0  0  0  0  0  0  0  0  0
   14.8807   22.8910   14.8749 C   0  0  0  0  0  0  0  0  0  0  0  0
   13.6904   22.9654   13.8924 C   0  0  0  0  0  0  0  0  0  0  0  0
   16.0872   22.2701   14.1587 C   0  0  0  0  0  0  0  0  0  0  0  0
   17.7716   24.3102   19.5720 C   0  0  0  0  0  0  0  0  0  0  0  0
   20.0359   25.0807   20.3977 C   0  0  0  0  0  0  0  0  0  0  0  0
   21.4088   24.9368   20.5291 C   0  0  0  0  0  0  0  0  0  0  0  0
   22.0255   23.7679   20.1012 C   0  0  0  0  0  0  0  0  0  0  0  0
   21.2514   22.7670   19.5157 C   0  0  0  0  0  0  0  0  0  0  0  0
   19.8830   22.9224   19.3480 C   0  0  0  0  0  0  0  0  0  0  0  0
   19.2737   24.0920   19.7839 C   0  0  0  0  0  0  0  0  0  0  0  0
 40 41  2  0  0  0
 40 39  1  0  0  0
 41 42  1  0  0  0
 39 38  2  0  0  0
 42 43  2  0  0  0
 38 43  1  0  0  0
 28 30  2  0  0  0
 28 27  1  0  0  0
 31 30  1  0  0  0
 31 32  1  0  0  0
 43 37  1  0  0  0
 23 22  2  0  0  0
 30 29  1  0  0  0
 27 26  2  0  0  0
 29 25  2  0  0  0
 26 25  1  0  0  0
 26 22  1  0  0  0
 37  1  1  0  0  0
 22 24  2  0  0  0
 22 21  1  0  0  0
  1  3  1  0  0  0
  1 17  1  0  0  0
 14 13  1  0  0  0
 14 10  1  0  0  0
 14  7  1  0  0  0
 13 12  1  0  0  0
  4  2  2  0  0  0
 21 20  1  0  0  0
 21 33  1  0  0  0
 20 17  1  0  0  0
  3  2  1  0  0  0
 10 11  1  0  0  0
 10  9  1  0  0  0
  2  6  1  0  0  0
  7  6  1  0  0  0
  7  8  1  0  0  0
 17 18  1  0  0  0
 12 11  1  0  0  0
 33 34  1  0  0  0
 11 16  1  0  0  0
  9  8  1  0  0  0
  8 15  1  0  0  0
 34 36  1  0  0  0
 34 35  1  0  0  0
 16 15  1  0  0  0
 18 19  1  0  0  0
  3  5  1  0  0  0
M  END
> <minimizedAffinity>
-10.15632

$$$$
5ULT_8FM_B_201


 43 47  0  0  0  0  0  0  0  0999 V2000
   16.1105   22.4803   17.3068 C   0  0  0  0  0  0  0  0  0  0  0  0
   14.8786   20.3629   17.7602 C   0  0  0  0  0  0  0  0  0  0  0  0
   14.9539   21.6978   17.7673 N   0  0  0  0  0  0  0  0  0  0  0  0
   15.8466   19.6638   17.4684 O   0  0  0  0  0  0  0  0  0  0  0  0
   14.1751   22.1950   18.1070 H   0  0  0  0  0  0  0  0  0  0  0  0
   13.6956   19.7900   18.0972 O   0  0  0  0  0  0  0  0  0  0  0  0
   13.7622   18.3727   18.3143 C   0  0  0  0  0  0  0  0  0  0  0  0
   13.3442   18.1016   19.7558 C   0  0  0  0  0  0  0  0  0  0  0  0
   12.6828   16.7253   19.6811 C   0  0  0  0  0  0  0  0  0  0  0  0
   11.8179   16.8955   18.4380 C   0  0  0  0  0  0  0  0  0  0  0  0
   10.7258   17.9020   18.7790 C   0  0  0  0  0  0  0  0  0  0  0  0
   10.6537   18.8835   17.7537 O   0  0  0  0  0  0  0  0  0  0  0  0
   11.7461   18.6550   16.8559 C   0  0  0  0  0  0  0  0  0  0  0  0
   12.7072   17.6598   17.4736 C   0  0  0  0  0  0  0  0  0  0  0  0
   12.2397   19.1111   20.1031 C   0  0  0  0  0  0  0  0  0  0  0  0
   10.9728   18.4397   20.0816 O   0  0  0  0  0  0  0  0  0  0  0  0
   16.9259   22.9490   18.5077 C   0  0  0  0  0  0  0  0  0  0  0  0
   16.1723   22.8012   19.7116 O   0  0  0  0  0  0  0  0  0  0  0  0
   15.3924   23.3770   19.6776 H   0  0  0  0  0  0  0  0  0  0  0  0
   17.4352   24.3838   18.3977 C   0  0  0  0  0  0  0  0  0  0  0  0
   18.8778   24.4426   18.4708 N   0  0  0  0  0  0  0  0  0  0  0  0
   19.5093   24.0153   19.9172 S   0  0  0  0  0  0  0  0  0  0  0  0
   19.7683   22.5515   19.8961 O   0  0  0  0  0  0  0  0  0  0  0  0
   18.5178   24.4133   20.9628 O   0  0  0  0  0  0  0  0  0  0  0  0
   20.9949   26.2012   20.7083 C   0  0  0  0  0  0  0  0  0  0  0  0
   20.9992   24.8993   20.2121 C   0  0  0  0  0  0  0  0  0  0  0  0
   22.2284   24.2874   19.9750 C   0  0  0  0  0  0  0  0  0  0  0  0
   23.4229   24.9542   20.2047 C   0  0  0  0  0  0  0  0  0  0  0  0
   22.1949   26.8586   21.0092 C   0  0  0  0  0  0  0  0  0  0  0  0
   23.4142   26.2576   20.6811 C   0  0  0  0  0  0  0  0  0  0  0  0
   24.6099   26.9118   20.8266 O   0  0  0  0  0  0  0  0  0  0  0  0
   25.3565   26.2691   21.8580 C   0  0  0  0  0  0  0  0  0  0  0  0
   19.5702   23.8759   17.3270 C   0  0  0  0  0  0  0  0  0  0  0  0
   19.9030   24.9464   16.2820 C   0  0  0  0  0  0  0  0  0  0  0  0
   20.1362   26.2896   17.0094 C   0  0  0  0  0  0  0  0  0  0  0  0
   18.7657   25.1142   15.2659 C   0  0  0  0  0  0  0  0  0  0  0  0
   15.5778   23.6662   16.4732 C   0  0  0  0  0  0  0  0  0  0  0  0
   13.9072   23.2930   14.6098 C   0  0  0  0  0  0  0  0  0  0  0  0
   13.5331   22.7629   13.3843 C   0  0  0  0  0  0  0  0  0  0  0  0
   14.4797   22.1342   12.5851 C   0  0  0  0  0  0  0  0  0  0  0  0
   15.7903   22.0204   13.0469 C   0  0  0  0  0  0  0  0  0  0  0  0
   16.1603   22.5161   14.2887 C   0  0  0  0  0  0  0  0  0  0  0  0
   15.2088   23.1482   15.0788 C   0  0  0  0  0  0  0  0  0  0  0  0
 40 41  2  0  0  0
 40 39  1  0  0  0
 41 42  1  0  0  0
 39 38  2  0  0  0
 42 43  2  0  0  0
 38 43  1  0  0  0
 28 30  2  0  0  0
 28 27  1  0  0  0
 31 30  1  0  0  0
 31 32  1  0  0  0
 43 37  1  0  0  0
 23 22  2  0  0  0
 30 29  1  0  0  0
 27 26  2  0  0  0
 29 25  2  0  0  0
 26 25  1  0  0  0
 26 22  1  0  0  0
 37  1  1  0  0  0
 22 24  2  0  0  0
 22 21  1  0  0  0
  1  3  1  0  0  0
  1 17  1  0  0  0
 14 13  1  0  0  0
 14 10  1  0  0  0
 14  7  1  0  0  0
 13 12  1  0  0  0
  4  2  2  0  0  0
 21 20  1  0  0  0
 21 33  1  0  0  0
 20 17  1  0  0  0
  3  2  1  0  0  0
 10 11  1  0  0  0
 10  9  1  0  0  0
  2  6  1  0  0  0
  7  6  1  0  0  0
  7  8  1  0  0  0
 17 18  1  0  0  0
 12 11  1  0  0  0
 33 34  1  0  0  0
 11 16  1  0  0  0
  9  8  1  0  0  0
  8 15  1  0  0  0
 34 36  1  0  0  0
 34 35  1  0  0  0
 16 15  1  0  0  0
 18 19  1  0  0  0
  3  5  1  0  0  0
M  END
> <minimizedAffinity>
-9.88840

$$$$
5ULT_8FM_B_201


 43 47  0  0  0  0  0  0  0  0999 V2000
   19.6340   22.8580   17.8915 C   0  0  0  0  0  0  0  0  0  0  0  0
   20.2199   24.5196   16.1302 C   0  0  0  0  0  0  0  0  0  0  0  0
   19.7738   24.2196   17.3544 N   0  0  0  0  0  0  0  0  0  0  0  0
   20.4429   23.6474   15.2933 O   0  0  0  0  0  0  0  0  0  0  0  0
   19.5193   24.9679   17.9413 H   0  0  0  0  0  0  0  0  0  0  0  0
   20.4133   25.8277   15.8258 O   0  0  0  0  0  0  0  0  0  0  0  0
   21.4844   26.0707   14.9016 C   0  0  0  0  0  0  0  0  0  0  0  0
   21.0569   27.2092   13.9813 C   0  0  0  0  0  0  0  0  0  0  0  0
   22.3742   27.9092   13.6465 C   0  0  0  0  0  0  0  0  0  0  0  0
   23.0195   27.9696   15.0257 C   0  0  0  0  0  0  0  0  0  0  0  0
   22.1977   28.9363   15.8696 C   0  0  0  0  0  0  0  0  0  0  0  0
   21.9050   28.3346   17.1233 O   0  0  0  0  0  0  0  0  0  0  0  0
   22.3543   26.9757   17.0687 C   0  0  0  0  0  0  0  0  0  0  0  0
   22.7037   26.6170   15.6387 C   0  0  0  0  0  0  0  0  0  0  0  0
   20.2316   28.1892   14.8286 C   0  0  0  0  0  0  0  0  0  0  0  0
   21.0386   29.3352   15.1318 O   0  0  0  0  0  0  0  0  0  0  0  0
   18.3380   22.2345   17.3829 C   0  0  0  0  0  0  0  0  0  0  0  0
   18.5753   21.4987   16.1824 O   0  0  0  0  0  0  0  0  0  0  0  0
   18.8716   22.1044   15.4851 H   0  0  0  0  0  0  0  0  0  0  0  0
   17.2092   23.2358   17.1528 C   0  0  0  0  0  0  0  0  0  0  0  0
   15.9265   22.5766   17.0519 N   0  0  0  0  0  0  0  0  0  0  0  0
   15.1095   22.4465   18.4622 S   0  0  0  0  0  0  0  0  0  0  0  0
   14.0772   23.5157   18.5007 O   0  0  0  0  0  0  0  0  0  0  0  0
   16.1133   22.5702   19.5630 O   0  0  0  0  0  0  0  0  0  0  0  0
   13.5420   20.3575   17.5731 C   0  0  0  0  0  0  0  0  0  0  0  0
   14.3587   20.8622   18.5828 C   0  0  0  0  0  0  0  0  0  0  0  0
   14.5977   20.0634   19.6993 C   0  0  0  0  0  0  0  0  0  0  0  0
   14.0271   18.8051   19.8222 C   0  0  0  0  0  0  0  0  0  0  0  0
   13.0170   19.0612   17.6552 C   0  0  0  0  0  0  0  0  0  0  0  0
   13.1990   18.3137   18.8229 C   0  0  0  0  0  0  0  0  0  0  0  0
   12.5932   17.0985   19.0102 O   0  0  0  0  0  0  0  0  0  0  0  0
   12.0790   17.0477   20.3397 C   0  0  0  0  0  0  0  0  0  0  0  0
   15.1108   22.9980   15.9269 C   0  0  0  0  0  0  0  0  0  0  0  0
   15.1342   21.9651   14.7949 C   0  0  0  0  0  0  0  0  0  0  0  0
   16.1821   22.4051   13.7479 C   0  0  0  0  0  0  0  0  0  0  0  0
   13.7639   21.8427   14.1159 C   0  0  0  0  0  0  0  0  0  0  0  0
   19.6626   22.9520   19.4328 C   0  0  0  0  0  0  0  0  0  0  0  0
   20.5652   25.1088   20.4003 C   0  0  0  0  0  0  0  0  0  0  0  0
   21.6006   25.9800   20.7028 C   0  0  0  0  0  0  0  0  0  0  0  0
   22.9173   25.5849   20.5028 C   0  0  0  0  0  0  0  0  0  0  0  0
   23.1736   24.3226   19.9692 C   0  0  0  0  0  0  0  0  0  0  0  0
   22.1395   23.4621   19.6300 C   0  0  0  0  0  0  0  0  0  0  0  0
   20.8262   23.8632   19.8387 C   0  0  0  0  0  0  0  0  0  0  0  0
 40 41  2  0  0  0
 40 39  1  0  0  0
 41 42  1  0  0  0
 39 38  2  0  0  0
 42 43  2  0  0  0
 38 43  1  0  0  0
 28 30  2  0  0  0
 28 27  1  0  0  0
 31 30  1  0  0  0
 31 32  1  0  0  0
 43 37  1  0  0  0
 23 22  2  0  0  0
 30 29  1  0  0  0
 27 26  2  0  0  0
 29 25  2  0  0  0
 26 25  1  0  0  0
 26 22  1  0  0  0
 37  1  1  0  0  0
 22 24  2  0  0  0
 22 21  1  0  0  0
  1  3  1  0  0  0
  1 17  1  0  0  0
 14 13  1  0  0  0
 14 10  1  0  0  0
 14  7  1  0  0  0
 13 12  1  0  0  0
  4  2  2  0  0  0
 21 20  1  0  0  0
 21 33  1  0  0  0
 20 17  1  0  0  0
  3  2  1  0  0  0
 10 11  1  0  0  0
 10  9  1  0  0  0
  2  6  1  0  0  0
  7  6  1  0  0  0
  7  8  1  0  0  0
 17 18  1  0  0  0
 12 11  1  0  0  0
 33 34  1  0  0  0
 11 16  1  0  0  0
  9  8  1  0  0  0
  8 15  1  0  0  0
 34 36  1  0  0  0
 34 35  1  0  0  0
 16 15  1  0  0  0
 18 19  1  0  0  0
  3  5  1  0  0  0
M  END
> <minimizedAffinity>
-9.71606

$$$$
5ULT_8FM_B_201


 43 47  0  0  0  0  0  0  0  0999 V2000
   15.2419   23.0930   16.9123 C   0  0  0  0  0  0  0  0  0  0  0  0
   14.6389   20.9381   18.0074 C   0  0  0  0  0  0  0  0  0  0  0  0
   14.3507   22.1981   17.6652 N   0  0  0  0  0  0  0  0  0  0  0  0
   15.7529   20.4559   17.8141 O   0  0  0  0  0  0  0  0  0  0  0  0
   13.4744   22.5540   17.9385 H   0  0  0  0  0  0  0  0  0  0  0  0
   13.6629   20.1975   18.5905 O   0  0  0  0  0  0  0  0  0  0  0  0
   13.7544   18.7878   18.3360 C   0  0  0  0  0  0  0  0  0  0  0  0
   13.2898   18.0562   19.5909 C   0  0  0  0  0  0  0  0  0  0  0  0
   12.6639   16.7734   19.0433 C   0  0  0  0  0  0  0  0  0  0  0  0
   11.8418   17.3320   17.8881 C   0  0  0  0  0  0  0  0  0  0  0  0
   10.7146   18.1609   18.4919 C   0  0  0  0  0  0  0  0  0  0  0  0
   10.6577   19.4228   17.8407 O   0  0  0  0  0  0  0  0  0  0  0  0
   11.7876   19.5112   16.9649 C   0  0  0  0  0  0  0  0  0  0  0  0
   12.7481   18.3784   17.2645 C   0  0  0  0  0  0  0  0  0  0  0  0
   12.1500   18.8857   20.2012 C   0  0  0  0  0  0  0  0  0  0  0  0
   10.9007   18.2456   19.9080 O   0  0  0  0  0  0  0  0  0  0  0  0
   15.7735   24.1855   17.8346 C   0  0  0  0  0  0  0  0  0  0  0  0
   14.7111   25.0376   18.2637 O   0  0  0  0  0  0  0  0  0  0  0  0
   14.3345   25.4962   17.4964 H   0  0  0  0  0  0  0  0  0  0  0  0
   16.8907   25.0296   17.2270 C   0  0  0  0  0  0  0  0  0  0  0  0
   18.1340   24.2952   17.1579 N   0  0  0  0  0  0  0  0  0  0  0  0
   18.6966   24.0399   15.6441 S   0  0  0  0  0  0  0  0  0  0  0  0
   17.5357   24.0153   14.7157 O   0  0  0  0  0  0  0  0  0  0  0  0
   19.4470   22.7471   15.6679 O   0  0  0  0  0  0  0  0  0  0  0  0
   19.4266   26.6503   15.1303 C   0  0  0  0  0  0  0  0  0  0  0  0
   19.8186   25.3147   15.1923 C   0  0  0  0  0  0  0  0  0  0  0  0
   21.1475   25.0033   14.9117 C   0  0  0  0  0  0  0  0  0  0  0  0
   22.0604   25.9864   14.5596 C   0  0  0  0  0  0  0  0  0  0  0  0
   20.3561   27.6586   14.8438 C   0  0  0  0  0  0  0  0  0  0  0  0
   21.6616   27.3133   14.4807 C   0  0  0  0  0  0  0  0  0  0  0  0
   22.5704   28.2485   14.0584 O   0  0  0  0  0  0  0  0  0  0  0  0
   23.1800   28.8391   15.2048 C   0  0  0  0  0  0  0  0  0  0  0  0
   19.1475   24.7208   18.1068 C   0  0  0  0  0  0  0  0  0  0  0  0
   19.1864   23.8085   19.3377 C   0  0  0  0  0  0  0  0  0  0  0  0
   18.6366   22.4203   18.9397 C   0  0  0  0  0  0  0  0  0  0  0  0
   18.3409   24.3754   20.4857 C   0  0  0  0  0  0  0  0  0  0  0  0
   14.4375   23.6771   15.7304 C   0  0  0  0  0  0  0  0  0  0  0  0
   12.6888   22.3053   14.5211 C   0  0  0  0  0  0  0  0  0  0  0  0
   12.2954   21.2217   13.7505 C   0  0  0  0  0  0  0  0  0  0  0  0
   13.2541   20.3784   13.2030 C   0  0  0  0  0  0  0  0  0  0  0  0
   14.6016   20.6214   13.4658 C   0  0  0  0  0  0  0  0  0  0  0  0
   14.9976   21.6823   14.2672 C   0  0  0  0  0  0  0  0  0  0  0  0
   14.0327   22.5238   14.8058 C   0  0  0  0  0  0  0  0  0  0  0  0
 40 41  2  0  0  0
 40 39  1  0  0  0
 41 42  1  0  0  0
 39 38  2  0  0  0
 42 43  2  0  0  0
 38 43  1  0  0  0
 28 30  2  0  0  0
 28 27  1  0  0  0
 31 30  1  0  0  0
 31 32  1  0  0  0
 43 37  1  0  0  0
 23 22  2  0  0  0
 30 29  1  0  0  0
 27 26  2  0  0  0
 29 25  2  0  0  0
 26 25  1  0  0  0
 26 22  1  0  0  0
 37  1  1  0  0  0
 22 24  2  0  0  0
 22 21  1  0  0  0
  1  3  1  0  0  0
  1 17  1  0  0  0
 14 13  1  0  0  0
 14 10  1  0  0  0
 14  7  1  0  0  0
 13 12  1  0  0  0
  4  2  2  0  0  0
 21 20  1  0  0  0
 21 33  1  0  0  0
 20 17  1  0  0  0
  3  2  1  0  0  0
 10 11  1  0  0  0
 10  9  1  0  0  0
  2  6  1  0  0  0
  7  6  1  0  0  0
  7  8  1  0  0  0
 17 18  1  0  0  0
 12 11  1  0  0  0
 33 34  1  0  0  0
 11 16  1  0  0  0
  9  8  1  0  0  0
  8 15  1  0  0  0
 34 36  1  0  0  0
 34 35  1  0  0  0
 16 15  1  0  0  0
 18 19  1  0  0  0
  3  5  1  0  0  0
M  END
> <minimizedAffinity>
-9.71341

$$$$
5ULT_8FM_B_201


 43 47  0  0  0  0  0  0  0  0999 V2000
   19.0938   26.1018   16.5162 C   0  0  0  0  0  0  0  0  0  0  0  0
   20.7799   27.0669   18.0756 C   0  0  0  0  0  0  0  0  0  0  0  0
   19.9490   26.0845   17.7121 N   0  0  0  0  0  0  0  0  0  0  0  0
   20.8053   28.1429   17.4820 O   0  0  0  0  0  0  0  0  0  0  0  0
   19.9066   25.2882   18.2895 H   0  0  0  0  0  0  0  0  0  0  0  0
   21.5980   26.8493   19.1361 O   0  0  0  0  0  0  0  0  0  0  0  0
   22.3353   25.6193   19.0752 C   0  0  0  0  0  0  0  0  0  0  0  0
   23.6999   25.9233   18.4658 C   0  0  0  0  0  0  0  0  0  0  0  0
   24.6235   24.9068   19.1373 C   0  0  0  0  0  0  0  0  0  0  0  0
   24.1628   25.0213   20.5854 C   0  0  0  0  0  0  0  0  0  0  0  0
   24.5730   26.4013   21.0848 C   0  0  0  0  0  0  0  0  0  0  0  0
   23.4635   27.0203   21.7214 O   0  0  0  0  0  0  0  0  0  0  0  0
   22.3208   26.1816   21.5155 C   0  0  0  0  0  0  0  0  0  0  0  0
   22.6514   25.1231   20.4831 C   0  0  0  0  0  0  0  0  0  0  0  0
   24.1203   27.3121   18.9700 C   0  0  0  0  0  0  0  0  0  0  0  0
   25.1116   27.1544   19.9941 O   0  0  0  0  0  0  0  0  0  0  0  0
   17.7857   25.3733   16.8081 C   0  0  0  0  0  0  0  0  0  0  0  0
   16.8828   26.2295   17.5087 O   0  0  0  0  0  0  0  0  0  0  0  0
   17.2592   26.4587   18.3728 H   0  0  0  0  0  0  0  0  0  0  0  0
   17.9546   24.0681   17.5814 C   0  0  0  0  0  0  0  0  0  0  0  0
   17.3373   22.9580   16.8911 N   0  0  0  0  0  0  0  0  0  0  0  0
   17.7213   21.4831   17.4832 S   0  0  0  0  0  0  0  0  0  0  0  0
   18.7995   21.6546   18.4924 O   0  0  0  0  0  0  0  0  0  0  0  0
   18.1430   20.6412   16.3222 O   0  0  0  0  0  0  0  0  0  0  0  0
   15.5986   19.7232   17.5743 C   0  0  0  0  0  0  0  0  0  0  0  0
   16.3078   20.7375   18.2142 C   0  0  0  0  0  0  0  0  0  0  0  0
   15.8866   21.1399   19.4800 C   0  0  0  0  0  0  0  0  0  0  0  0
   14.7798   20.5666   20.0886 C   0  0  0  0  0  0  0  0  0  0  0  0
   14.5221   19.0897   18.2086 C   0  0  0  0  0  0  0  0  0  0  0  0
   14.0648   19.5697   19.4399 C   0  0  0  0  0  0  0  0  0  0  0  0
   12.9339   19.0773   20.0377 O   0  0  0  0  0  0  0  0  0  0  0  0
   11.9449   18.8640   19.0323 C   0  0  0  0  0  0  0  0  0  0  0  0
   15.9265   23.1325   16.5943 C   0  0  0  0  0  0  0  0  0  0  0  0
   15.5792   22.6284   15.1892 C   0  0  0  0  0  0  0  0  0  0  0  0
   16.7407   22.9881   14.2356 C   0  0  0  0  0  0  0  0  0  0  0  0
   14.2837   23.2635   14.6674 C   0  0  0  0  0  0  0  0  0  0  0  0
   19.8786   25.4380   15.3635 C   0  0  0  0  0  0  0  0  0  0  0  0
   22.2238   26.2699   14.9048 C   0  0  0  0  0  0  0  0  0  0  0  0
   23.1210   27.2283   14.4586 C   0  0  0  0  0  0  0  0  0  0  0  0
   22.6521   28.3745   13.8291 C   0  0  0  0  0  0  0  0  0  0  0  0
   21.2772   28.5552   13.6842 C   0  0  0  0  0  0  0  0  0  0  0  0
   20.3746   27.6166   14.1628 C   0  0  0  0  0  0  0  0  0  0  0  0
   20.8524   26.4708   14.7858 C   0  0  0  0  0  0  0  0  0  0  0  0
 40 41  2  0  0  0
 40 39  1  0  0  0
 41 42  1  0  0  0
 39 38  2  0  0  0
 42 43  2  0  0  0
 38 43  1  0  0  0
 28 30  2  0  0  0
 28 27  1  0  0  0
 31 30  1  0  0  0
 31 32  1  0  0  0
 43 37  1  0  0  0
 23 22  2  0  0  0
 30 29  1  0  0  0
 27 26  2  0  0  0
 29 25  2  0  0  0
 26 25  1  0  0  0
 26 22  1  0  0  0
 37  1  1  0  0  0
 22 24  2  0  0  0
 22 21  1  0  0  0
  1  3  1  0  0  0
  1 17  1  0  0  0
 14 13  1  0  0  0
 14 10  1  0  0  0
 14  7  1  0  0  0
 13 12  1  0  0  0
  4  2  2  0  0  0
 21 20  1  0  0  0
 21 33  1  0  0  0
 20 17  1  0  0  0
  3  2  1  0  0  0
 10 11  1  0  0  0
 10  9  1  0  0  0
  2  6  1  0  0  0
  7  6  1  0  0  0
  7  8  1  0  0  0
 17 18  1  0  0  0
 12 11  1  0  0  0
 33 34  1  0  0  0
 11 16  1  0  0  0
  9  8  1  0  0  0
  8 15  1  0  0  0
 34 36  1  0  0  0
 34 35  1  0  0  0
 16 15  1  0  0  0
 18 19  1  0  0  0
  3  5  1  0  0  0
M  END
> <minimizedAffinity>
-9.52377

$$$$
5ULT_8FM_B_201


 43 47  0  0  0  0  0  0  0  0999 V2000
   16.6330   24.7519   16.2817 C   0  0  0  0  0  0  0  0  0  0  0  0
   18.2870   26.3071   15.2560 C   0  0  0  0  0  0  0  0  0  0  0  0
   17.7847   25.6654   16.3160 N   0  0  0  0  0  0  0  0  0  0  0  0
   17.7337   26.2720   14.1590 O   0  0  0  0  0  0  0  0  0  0  0  0
   18.2193   25.8162   17.1864 H   0  0  0  0  0  0  0  0  0  0  0  0
   19.4316   27.0161   15.4244 O   0  0  0  0  0  0  0  0  0  0  0  0
   20.6346   26.2570   15.2322 C   0  0  0  0  0  0  0  0  0  0  0  0
   21.5084   27.0122   14.2362 C   0  0  0  0  0  0  0  0  0  0  0  0
   22.9307   26.6644   14.6761 C   0  0  0  0  0  0  0  0  0  0  0  0
   22.8096   26.8397   16.1850 C   0  0  0  0  0  0  0  0  0  0  0  0
   22.6055   28.3255   16.4547 C   0  0  0  0  0  0  0  0  0  0  0  0
   21.5099   28.4962   17.3436 O   0  0  0  0  0  0  0  0  0  0  0  0
   20.8987   27.2145   17.5312 C   0  0  0  0  0  0  0  0  0  0  0  0
   21.4566   26.2362   16.5176 C   0  0  0  0  0  0  0  0  0  0  0  0
   21.3097   28.5112   14.5070 C   0  0  0  0  0  0  0  0  0  0  0  0
   22.4553   29.0126   15.2088 O   0  0  0  0  0  0  0  0  0  0  0  0
   16.2009   24.4147   17.7052 C   0  0  0  0  0  0  0  0  0  0  0  0
   15.3730   25.4507   18.2345 O   0  0  0  0  0  0  0  0  0  0  0  0
   15.8845   26.2724   18.2986 H   0  0  0  0  0  0  0  0  0  0  0  0
   17.3577   24.1462   18.6642 C   0  0  0  0  0  0  0  0  0  0  0  0
   17.5953   22.7295   18.8267 N   0  0  0  0  0  0  0  0  0  0  0  0
   19.1700   22.2901   18.7956 S   0  0  0  0  0  0  0  0  0  0  0  0
   19.5512   22.0298   17.3823 O   0  0  0  0  0  0  0  0  0  0  0  0
   19.3046   21.0810   19.6642 O   0  0  0  0  0  0  0  0  0  0  0  0
   19.6248   24.5900   20.2500 C   0  0  0  0  0  0  0  0  0  0  0  0
   20.1680   23.5662   19.4766 C   0  0  0  0  0  0  0  0  0  0  0  0
   21.5461   23.5547   19.2709 C   0  0  0  0  0  0  0  0  0  0  0  0
   22.3633   24.5423   19.8009 C   0  0  0  0  0  0  0  0  0  0  0  0
   20.4487   25.5528   20.8473 C   0  0  0  0  0  0  0  0  0  0  0  0
   21.8161   25.5708   20.5548 C   0  0  0  0  0  0  0  0  0  0  0  0
   22.6420   26.5697   21.0009 O   0  0  0  0  0  0  0  0  0  0  0  0
   21.8480   27.7171   21.2967 C   0  0  0  0  0  0  0  0  0  0  0  0
   16.8208   22.0979   19.8802 C   0  0  0  0  0  0  0  0  0  0  0  0
   15.5433   21.4528   19.3316 C   0  0  0  0  0  0  0  0  0  0  0  0
   14.9775   20.4925   20.4018 C   0  0  0  0  0  0  0  0  0  0  0  0
   15.8181   20.6663   18.0433 C   0  0  0  0  0  0  0  0  0  0  0  0
   17.0517   23.4921   15.4925 C   0  0  0  0  0  0  0  0  0  0  0  0
   14.5791   23.4848   14.9549 C   0  0  0  0  0  0  0  0  0  0  0  0
   13.4772   23.0231   14.2512 C   0  0  0  0  0  0  0  0  0  0  0  0
   13.6539   22.1502   13.1850 C   0  0  0  0  0  0  0  0  0  0  0  0
   14.9422   21.7279   12.8598 C   0  0  0  0  0  0  0  0  0  0  0  0
   16.0440   22.1578   13.5850 C   0  0  0  0  0  0  0  0  0  0  0  0
   15.8587   23.0350   14.6459 C   0  0  0  0  0  0  0  0  0  0  0  0
 40 41  2  0  0  0
 40 39  1  0  0  0
 41 42  1  0  0  0
 39 38  2  0  0  0
 42 43  2  0  0  0
 38 43  1  0  0  0
 28 30  2  0  0  0
 28 27  1  0  0  0
 31 30  1  0  0  0
 31 32  1  0  0  0
 43 37  1  0  0  0
 23 22  2  0  0  0
 30 29  1  0  0  0
 27 26  2  0  0  0
 29 25  2  0  0  0
 26 25  1  0  0  0
 26 22  1  0  0  0
 37  1  1  0  0  0
 22 24  2  0  0  0
 22 21  1  0  0  0
  1  3  1  0  0  0
  1 17  1  0  0  0
 14 13  1  0  0  0
 14 10  1  0  0  0
 14  7  1  0  0  0
 13 12  1  0  0  0
  4  2  2  0  0  0
 21 20  1  0  0  0
 21 33  1  0  0  0
 20 17  1  0  0  0
  3  2  1  0  0  0
 10 11  1  0  0  0
 10  9  1  0  0  0
  2  6  1  0  0  0
  7  6  1  0  0  0
  7  8  1  0  0  0
 17 18  1  0  0  0
 12 11  1  0  0  0
 33 34  1  0  0  0
 11 16  1  0  0  0
  9  8  1  0  0  0
  8 15  1  0  0  0
 34 36  1  0  0  0
 34 35  1  0  0  0
 16 15  1  0  0  0
 18 19  1  0  0  0
  3  5  1  0  0  0
M  END
> <minimizedAffinity>
-9.45141

$$$$
5ULT_8FM_B_201


 43 47  0  0  0  0  0  0  0  0999 V2000
   18.9802   26.1682   16.2429 C   0  0  0  0  0  0  0  0  0  0  0  0
   20.5593   27.0356   17.9635 C   0  0  0  0  0  0  0  0  0  0  0  0
   19.7198   26.0981   17.5118 N   0  0  0  0  0  0  0  0  0  0  0  0
   20.6905   28.1146   17.3896 O   0  0  0  0  0  0  0  0  0  0  0  0
   19.5866   25.2995   18.0719 H   0  0  0  0  0  0  0  0  0  0  0  0
   21.2649   26.7685   19.0913 O   0  0  0  0  0  0  0  0  0  0  0  0
   22.0495   25.5680   19.0312 C   0  0  0  0  0  0  0  0  0  0  0  0
   23.4295   25.9390   18.4983 C   0  0  0  0  0  0  0  0  0  0  0  0
   24.3569   24.9360   19.1847 C   0  0  0  0  0  0  0  0  0  0  0  0
   23.8234   24.9896   20.6111 C   0  0  0  0  0  0  0  0  0  0  0  0
   24.1579   26.3674   21.1697 C   0  0  0  0  0  0  0  0  0  0  0  0
   22.9969   26.9267   21.7687 O   0  0  0  0  0  0  0  0  0  0  0  0
   21.8973   26.0545   21.4831 C   0  0  0  0  0  0  0  0  0  0  0  0
   22.3159   25.0405   20.4380 C   0  0  0  0  0  0  0  0  0  0  0  0
   23.7735   27.3258   19.0623 C   0  0  0  0  0  0  0  0  0  0  0  0
   24.7198   27.1723   20.1287 O   0  0  0  0  0  0  0  0  0  0  0  0
   17.6188   25.4990   16.4029 C   0  0  0  0  0  0  0  0  0  0  0  0
   16.9331   26.0271   17.5386 O   0  0  0  0  0  0  0  0  0  0  0  0
   17.4306   25.8155   18.3440 H   0  0  0  0  0  0  0  0  0  0  0  0
   17.6770   23.9770   16.5045 C   0  0  0  0  0  0  0  0  0  0  0  0
   16.9880   23.4963   17.6810 N   0  0  0  0  0  0  0  0  0  0  0  0
   15.3840   23.2482   17.4831 S   0  0  0  0  0  0  0  0  0  0  0  0
   15.1054   23.1546   16.0258 O   0  0  0  0  0  0  0  0  0  0  0  0
   14.6798   24.3942   18.1354 O   0  0  0  0  0  0  0  0  0  0  0  0
   15.2160   21.5268   19.6326 C   0  0  0  0  0  0  0  0  0  0  0  0
   14.8950   21.7704   18.2988 C   0  0  0  0  0  0  0  0  0  0  0  0
   14.1413   20.8173   17.6167 C   0  0  0  0  0  0  0  0  0  0  0  0
   13.7325   19.6440   18.2333 C   0  0  0  0  0  0  0  0  0  0  0  0
   14.7496   20.3781   20.2848 C   0  0  0  0  0  0  0  0  0  0  0  0
   14.0704   19.3964   19.5564 C   0  0  0  0  0  0  0  0  0  0  0  0
   13.7138   18.1951   20.1118 O   0  0  0  0  0  0  0  0  0  0  0  0
   13.2312   17.3415   19.0760 C   0  0  0  0  0  0  0  0  0  0  0  0
   17.6718   22.4341   18.3971 C   0  0  0  0  0  0  0  0  0  0  0  0
   18.9318   22.9490   19.1015 C   0  0  0  0  0  0  0  0  0  0  0  0
   19.6523   21.7514   19.7604 C   0  0  0  0  0  0  0  0  0  0  0  0
   18.5903   23.9866   20.1790 C   0  0  0  0  0  0  0  0  0  0  0  0
   19.8368   25.4805   15.1573 C   0  0  0  0  0  0  0  0  0  0  0  0
   22.2392   26.2305   14.8960 C   0  0  0  0  0  0  0  0  0  0  0  0
   23.2028   27.1586   14.5316 C   0  0  0  0  0  0  0  0  0  0  0  0
   22.8270   28.3243   13.8760 C   0  0  0  0  0  0  0  0  0  0  0  0
   21.4755   28.5549   13.6224 C   0  0  0  0  0  0  0  0  0  0  0  0
   20.5047   27.6466   14.0189 C   0  0  0  0  0  0  0  0  0  0  0  0
   20.8899   26.4810   14.6686 C   0  0  0  0  0  0  0  0  0  0  0  0
 40 41  2  0  0  0
 40 39  1  0  0  0
 41 42  1  0  0  0
 39 38  2  0  0  0
 42 43  2  0  0  0
 38 43  1  0  0  0
 28 30  2  0  0  0
 28 27  1  0  0  0
 31 30  1  0  0  0
 31 32  1  0  0  0
 43 37  1  0  0  0
 23 22  2  0  0  0
 30 29  1  0  0  0
 27 26  2  0  0  0
 29 25  2  0  0  0
 26 25  1  0  0  0
 26 22  1  0  0  0
 37  1  1  0  0  0
 22 24  2  0  0  0
 22 21  1  0  0  0
  1  3  1  0  0  0
  1 17  1  0  0  0
 14 13  1  0  0  0
 14 10  1  0  0  0
 14  7  1  0  0  0
 13 12  1  0  0  0
  4  2  2  0  0  0
 21 20  1  0  0  0
 21 33  1  0  0  0
 20 17  1  0  0  0
  3  2  1  0  0  0
 10 11  1  0  0  0
 10  9  1  0  0  0
  2  6  1  0  0  0
  7  6  1  0  0  0
  7  8  1  0  0  0
 17 18  1  0  0  0
 12 11  1  0  0  0
 33 34  1  0  0  0
 11 16  1  0  0  0
  9  8  1  0  0  0
  8 15  1  0  0  0
 34 36  1  0  0  0
 34 35  1  0  0  0
 16 15  1  0  0  0
 18 19  1  0  0  0
  3  5  1  0  0  0
M  END
> <minimizedAffinity>
-9.35744

$$$$
