3P8O_L5T_A_188


 60 65  0  0  0  0  0  0  0  0999 V2000
   41.0085   46.3772    8.8771 C   0  0  0  0  0  0  0  0  0  0  0  0
   42.2345   46.2248    8.7639 O   0  0  0  0  0  0  0  0  0  0  0  0
   41.0543   47.8014    6.8145 C   0  0  0  0  0  0  0  0  0  0  0  0
   39.9521   48.5629    6.0418 C   0  0  0  0  0  0  0  0  0  0  0  0
   38.6766   47.7707    6.3360 C   0  0  0  0  0  0  0  0  0  0  0  0
   38.8862   47.4511    7.8164 C   0  0  0  0  0  0  0  0  0  0  0  0
   40.3263   47.1609    7.9271 N   0  0  0  0  0  0  0  0  0  0  0  0
   42.1323   48.8064    7.2973 C   0  0  0  0  0  0  0  0  0  0  0  0
   41.8967   49.6481    8.1587 O   0  0  0  0  0  0  0  0  0  0  0  0
   43.3653   48.6163    6.7020 N   0  0  0  0  0  0  0  0  0  0  0  0
   43.4006   48.1551    5.8329 H   0  0  0  0  0  0  0  0  0  0  0  0
   44.6208   49.0686    7.3031 C   0  0  0  0  0  0  0  0  0  0  0  0
   45.1881   48.1909    8.4470 C   0  0  0  0  0  0  0  0  0  0  0  0
   45.8599   48.1801    7.1071 C   0  0  0  0  0  0  0  0  0  0  0  0
   44.8788   50.5878    7.1844 C   0  0  0  0  0  0  0  0  0  0  0  0
   46.0915   50.9783    7.0536 O   0  0  0  0  0  0  0  0  0  0  0  0
   43.9178   51.3975    7.2384 O   0  0  0  0  0  0  0  0  0  0  0  0
   43.0417   51.0792    7.3345 H   0  0  0  0  0  0  0  0  0  0  0  0
   45.8815   48.7059    9.6256 C   0  0  0  0  0  0  0  0  0  0  0  0
   45.9950   48.0478   10.7900 C   0  0  0  0  0  0  0  0  0  0  0  0
   40.2168   45.7224   10.0507 C   0  0  0  0  0  0  0  0  0  0  0  0
   39.2696   43.5506    9.4086 C   0  0  0  0  0  0  0  0  0  0  0  0
   38.2007   44.0287    9.0314 O   0  0  0  0  0  0  0  0  0  0  0  0
   40.2940   44.2738    9.9039 N   0  0  0  0  0  0  0  0  0  0  0  0
   41.1189   43.8097   10.1747 H   0  0  0  0  0  0  0  0  0  0  0  0
   39.5902   42.2237    9.3895 O   0  0  0  0  0  0  0  0  0  0  0  0
   40.2889   41.7992    8.2200 C   0  0  0  0  0  0  0  0  0  0  0  0
   39.4167   41.6179    6.9962 C   0  0  0  0  0  0  0  0  0  0  0  0
   40.2974   40.7781    6.0838 C   0  0  0  0  0  0  0  0  0  0  0  0
   41.2262   40.0214    7.0149 C   0  0  0  0  0  0  0  0  0  0  0  0
   40.7670   40.3782    8.4131 C   0  0  0  0  0  0  0  0  0  0  0  0
   40.5713   46.2693   11.4968 C   0  0  0  0  0  0  0  0  0  0  0  0
   42.0820   46.0535   11.7805 C   0  0  0  0  0  0  0  0  0  0  0  0
   39.7468   45.6225   12.6430 C   0  0  0  0  0  0  0  0  0  0  0  0
   40.3194   47.8011   11.5486 C   0  0  0  0  0  0  0  0  0  0  0  0
   38.7370   46.4960    5.5981 O   0  0  0  0  0  0  0  0  0  0  0  0
   38.2475   46.4055    4.2679 C   0  0  0  0  0  0  0  0  0  0  0  0
   37.5040   47.5604    3.6906 C   0  0  0  0  0  0  0  0  0  0  0  0
   37.0170   47.4904    2.4040 C   0  0  0  0  0  0  0  0  0  0  0  0
   37.2264   46.3113    1.6744 N   0  0  0  0  0  0  0  0  0  0  0  0
   37.9078   45.1733    2.1184 C   0  0  0  0  0  0  0  0  0  0  0  0
   38.4372   45.2505    3.5288 C   0  0  0  0  0  0  0  0  0  0  0  0
   39.1833   44.0520    4.0834 C   0  0  0  0  0  0  0  0  0  0  0  0
   39.3007   42.8660    3.1446 C   0  0  0  0  0  0  0  0  0  0  0  0
   38.7912   42.8519    1.8746 C   0  0  0  0  0  0  0  0  0  0  0  0
   38.0764   44.0455    1.3716 C   0  0  0  0  0  0  0  0  0  0  0  0
   36.2944   48.5741    1.8055 C   0  0  0  0  0  0  0  0  0  0  0  0
   35.2789   48.4377    0.8746 C   0  0  0  0  0  0  0  0  0  0  0  0
   34.6877   49.9744    0.4556 S   0  0  0  0  0  0  0  0  0  0  0  0
   35.8233   50.7077    1.5150 C   0  0  0  0  0  0  0  0  0  0  0  0
   36.5969   49.8734    2.1661 N   0  0  0  0  0  0  0  0  0  0  0  0
   35.9258   52.0701    1.7189 N   0  0  0  0  0  0  0  0  0  0  0  0
   35.1879   52.8119    2.6264 C   0  0  0  0  0  0  0  0  0  0  0  0
   34.3300   52.3041    3.3637 O   0  0  0  0  0  0  0  0  0  0  0  0
   36.5820   52.5573    1.1700 H   0  0  0  0  0  0  0  0  0  0  0  0
   35.5511   54.3236    2.6215 C   0  0  0  0  0  0  0  0  0  0  0  0
   36.2595   54.7406    1.3199 C   0  0  0  0  0  0  0  0  0  0  0  0
   36.4049   54.6895    3.8464 C   0  0  0  0  0  0  0  0  0  0  0  0
   38.8523   41.7895    0.9280 O   0  0  0  0  0  0  0  0  0  0  0  0
   37.7019   41.4860    0.1130 C   0  0  0  0  0  0  0  0  0  0  0  0
 49 48  1  0  0  0
 49 50  1  0  0  0
 48 47  2  0  0  0
 59 60  1  0  0  0
 59 45  1  0  0  0
 54 53  2  0  0  0
 46 45  2  0  0  0
 46 41  1  0  0  0
 40 41  2  0  0  0
 40 39  1  0  0  0
 45 44  1  0  0  0
 47 39  1  0  0  0
 47 51  1  0  0  0
 50 52  1  0  0  0
 50 51  2  0  0  0
 41 42  1  0  0  0
 53 52  1  0  0  0
 53 56  1  0  0  0
 58 56  1  0  0  0
 39 38  2  0  0  0
 44 43  2  0  0  0
 56 57  1  0  0  0
 42 43  1  0  0  0
 42 37  2  0  0  0
 38 37  1  0  0  0
 37 36  1  0  0  0
 36  5  1  0  0  0
 29 30  1  0  0  0
 29 28  1  0  0  0
  4  5  1  0  0  0
  4  3  1  0  0  0
  5  6  1  0  0  0
 10 12  1  0  0  0
 10  8  1  0  0  0
 16 15  2  0  0  0
 30 31  1  0  0  0
  3  8  1  0  0  0
  3  7  1  0  0  0
 28 27  1  0  0  0
 14 12  1  0  0  0
 14 13  1  0  0  0
 15 12  1  0  0  0
 15 17  1  0  0  0
 12 13  1  0  0  0
  8  9  2  0  0  0
  6  7  1  0  0  0
 27 31  1  0  0  0
 27 26  1  0  0  0
  7  1  1  0  0  0
 13 19  1  0  0  0
 23 22  2  0  0  0
  2  1  2  0  0  0
  1 21  1  0  0  0
 26 22  1  0  0  0
 22 24  1  0  0  0
 19 20  2  0  0  0
 24 21  1  0  0  0
 21 32  1  0  0  0
 32 33  1  0  0  0
 32 34  1  0  0  0
 32 35  1  0  0  0
 24 25  1  0  0  0
 52 55  1  0  0  0
 10 11  1  0  0  0
 17 18  1  0  0  0
M  END
> <minimizedAffinity>
-9.18310

$$$$
3P8O_L5T_A_188


 60 65  0  0  0  0  0  0  0  0999 V2000
   40.9118   46.0983    8.7420 C   0  0  0  0  0  0  0  0  0  0  0  0
   42.1494   46.0131    8.7250 O   0  0  0  0  0  0  0  0  0  0  0  0
   41.0472   47.6104    6.7470 C   0  0  0  0  0  0  0  0  0  0  0  0
   39.9716   48.3478    5.9157 C   0  0  0  0  0  0  0  0  0  0  0  0
   38.7210   47.4802    6.0723 C   0  0  0  0  0  0  0  0  0  0  0  0
   38.8273   47.1083    7.5514 C   0  0  0  0  0  0  0  0  0  0  0  0
   40.2673   46.8867    7.7698 N   0  0  0  0  0  0  0  0  0  0  0  0
   42.0270   48.6469    7.3561 C   0  0  0  0  0  0  0  0  0  0  0  0
   41.6844   49.4211    8.2444 O   0  0  0  0  0  0  0  0  0  0  0  0
   43.3051   48.5650    6.8360 N   0  0  0  0  0  0  0  0  0  0  0  0
   43.4249   48.1587    5.9473 H   0  0  0  0  0  0  0  0  0  0  0  0
   44.4887   49.0542    7.5446 C   0  0  0  0  0  0  0  0  0  0  0  0
   45.0405   48.1414    8.6684 C   0  0  0  0  0  0  0  0  0  0  0  0
   45.7931   48.2581    7.3774 C   0  0  0  0  0  0  0  0  0  0  0  0
   44.6534   50.5909    7.5348 C   0  0  0  0  0  0  0  0  0  0  0  0
   45.8285   51.0635    7.3450 O   0  0  0  0  0  0  0  0  0  0  0  0
   43.6574   51.3338    7.7303 O   0  0  0  0  0  0  0  0  0  0  0  0
   42.8107   50.9562    7.8659 H   0  0  0  0  0  0  0  0  0  0  0  0
   45.6244   48.6212    9.9189 C   0  0  0  0  0  0  0  0  0  0  0  0
   46.3258   47.8594   10.7732 C   0  0  0  0  0  0  0  0  0  0  0  0
   40.0643   45.3545    9.8197 C   0  0  0  0  0  0  0  0  0  0  0  0
   39.5802   43.2099    8.7278 C   0  0  0  0  0  0  0  0  0  0  0  0
   38.7534   43.6899    7.9536 O   0  0  0  0  0  0  0  0  0  0  0  0
   40.2621   43.9200    9.6488 N   0  0  0  0  0  0  0  0  0  0  0  0
   40.9132   43.4561   10.2233 H   0  0  0  0  0  0  0  0  0  0  0  0
   39.9380   41.8936    8.7822 O   0  0  0  0  0  0  0  0  0  0  0  0
   39.5437   41.1244    7.6469 C   0  0  0  0  0  0  0  0  0  0  0  0
   39.2031   39.6813    7.9511 C   0  0  0  0  0  0  0  0  0  0  0  0
   39.2562   39.0320    6.5768 C   0  0  0  0  0  0  0  0  0  0  0  0
   40.2086   39.8924    5.7677 C   0  0  0  0  0  0  0  0  0  0  0  0
   40.7370   40.9258    6.7403 C   0  0  0  0  0  0  0  0  0  0  0  0
   40.2403   45.8830   11.3049 C   0  0  0  0  0  0  0  0  0  0  0  0
   39.5214   47.2497   11.4611 C   0  0  0  0  0  0  0  0  0  0  0  0
   41.7183   46.0376   11.7559 C   0  0  0  0  0  0  0  0  0  0  0  0
   39.5528   44.8991   12.2908 C   0  0  0  0  0  0  0  0  0  0  0  0
   38.9094   46.2432    5.2931 O   0  0  0  0  0  0  0  0  0  0  0  0
   38.3242   46.1015    4.0068 C   0  0  0  0  0  0  0  0  0  0  0  0
   37.5645   47.2449    3.4278 C   0  0  0  0  0  0  0  0  0  0  0  0
   36.9853   47.1257    2.1837 C   0  0  0  0  0  0  0  0  0  0  0  0
   37.1183   45.9089    1.4995 N   0  0  0  0  0  0  0  0  0  0  0  0
   37.8069   44.7776    1.9492 C   0  0  0  0  0  0  0  0  0  0  0  0
   38.4373   44.9088    3.3133 C   0  0  0  0  0  0  0  0  0  0  0  0
   39.1971   43.7207    3.8716 C   0  0  0  0  0  0  0  0  0  0  0  0
   39.2232   42.4892    2.9858 C   0  0  0  0  0  0  0  0  0  0  0  0
   38.6240   42.4272    1.7570 C   0  0  0  0  0  0  0  0  0  0  0  0
   37.8990   43.6121    1.2482 C   0  0  0  0  0  0  0  0  0  0  0  0
   36.2436   48.1966    1.5856 C   0  0  0  0  0  0  0  0  0  0  0  0
   36.7132   49.4855    1.3995 C   0  0  0  0  0  0  0  0  0  0  0  0
   35.5162   50.4169    0.6338 S   0  0  0  0  0  0  0  0  0  0  0  0
   34.4610   49.0619    0.6200 C   0  0  0  0  0  0  0  0  0  0  0  0
   34.9577   47.9639    1.1359 N   0  0  0  0  0  0  0  0  0  0  0  0
   33.1871   49.0768    0.0860 N   0  0  0  0  0  0  0  0  0  0  0  0
   32.0348   49.4666    0.7484 C   0  0  0  0  0  0  0  0  0  0  0  0
   32.0387   49.8468    1.9286 O   0  0  0  0  0  0  0  0  0  0  0  0
   33.0895   48.7843   -0.8489 H   0  0  0  0  0  0  0  0  0  0  0  0
   30.7599   49.3805   -0.1372 C   0  0  0  0  0  0  0  0  0  0  0  0
   30.6701   48.0391   -0.8872 C   0  0  0  0  0  0  0  0  0  0  0  0
   30.6916   50.5594   -1.1216 C   0  0  0  0  0  0  0  0  0  0  0  0
   38.5959   41.3201    0.8614 O   0  0  0  0  0  0  0  0  0  0  0  0
   38.0036   41.4676   -0.4451 C   0  0  0  0  0  0  0  0  0  0  0  0
 49 48  1  0  0  0
 49 50  1  0  0  0
 48 47  2  0  0  0
 59 60  1  0  0  0
 59 45  1  0  0  0
 54 53  2  0  0  0
 46 45  2  0  0  0
 46 41  1  0  0  0
 40 41  2  0  0  0
 40 39  1  0  0  0
 45 44  1  0  0  0
 47 39  1  0  0  0
 47 51  1  0  0  0
 50 52  1  0  0  0
 50 51  2  0  0  0
 41 42  1  0  0  0
 53 52  1  0  0  0
 53 56  1  0  0  0
 58 56  1  0  0  0
 39 38  2  0  0  0
 44 43  2  0  0  0
 56 57  1  0  0  0
 42 43  1  0  0  0
 42 37  2  0  0  0
 38 37  1  0  0  0
 37 36  1  0  0  0
 36  5  1  0  0  0
 29 30  1  0  0  0
 29 28  1  0  0  0
  4  5  1  0  0  0
  4  3  1  0  0  0
  5  6  1  0  0  0
 10 12  1  0  0  0
 10  8  1  0  0  0
 16 15  2  0  0  0
 30 31  1  0  0  0
  3  8  1  0  0  0
  3  7  1  0  0  0
 28 27  1  0  0  0
 14 12  1  0  0  0
 14 13  1  0  0  0
 15 12  1  0  0  0
 15 17  1  0  0  0
 12 13  1  0  0  0
  8  9  2  0  0  0
  6  7  1  0  0  0
 27 31  1  0  0  0
 27 26  1  0  0  0
  7  1  1  0  0  0
 13 19  1  0  0  0
 23 22  2  0  0  0
  2  1  2  0  0  0
  1 21  1  0  0  0
 26 22  1  0  0  0
 22 24  1  0  0  0
 19 20  2  0  0  0
 24 21  1  0  0  0
 21 32  1  0  0  0
 32 33  1  0  0  0
 32 34  1  0  0  0
 32 35  1  0  0  0
 24 25  1  0  0  0
 52 55  1  0  0  0
 10 11  1  0  0  0
 17 18  1  0  0  0
M  END
> <minimizedAffinity>
-8.52126

$$$$
3P8O_L5T_A_188


 60 65  0  0  0  0  0  0  0  0999 V2000
   36.6245   46.1285    3.4229 C   0  0  0  0  0  0  0  0  0  0  0  0
   35.3897   46.0305    3.4918 O   0  0  0  0  0  0  0  0  0  0  0  0
   36.4685   48.2663    4.7230 C   0  0  0  0  0  0  0  0  0  0  0  0
   37.5325   49.2799    5.2053 C   0  0  0  0  0  0  0  0  0  0  0  0
   38.8031   48.4412    5.3572 C   0  0  0  0  0  0  0  0  0  0  0  0
   38.6932   47.5483    4.1211 C   0  0  0  0  0  0  0  0  0  0  0  0
   37.2574   47.2326    4.0250 N   0  0  0  0  0  0  0  0  0  0  0  0
   35.4574   48.9853    3.7924 C   0  0  0  0  0  0  0  0  0  0  0  0
   34.4291   49.4981    4.2230 O   0  0  0  0  0  0  0  0  0  0  0  0
   35.8614   49.0265    2.4711 N   0  0  0  0  0  0  0  0  0  0  0  0
   36.5079   48.3537    2.1569 H   0  0  0  0  0  0  0  0  0  0  0  0
   35.3730   50.0233    1.5172 C   0  0  0  0  0  0  0  0  0  0  0  0
   35.9587   51.4509    1.6577 C   0  0  0  0  0  0  0  0  0  0  0  0
   36.3830   50.5901    0.5063 C   0  0  0  0  0  0  0  0  0  0  0  0
   33.9679   49.7295    0.9445 C   0  0  0  0  0  0  0  0  0  0  0  0
   33.8976   49.1321   -0.1861 O   0  0  0  0  0  0  0  0  0  0  0  0
   32.9411   50.0929    1.5737 O   0  0  0  0  0  0  0  0  0  0  0  0
   33.0269   50.5281    2.3990 H   0  0  0  0  0  0  0  0  0  0  0  0
   35.2087   52.6842    1.4310 C   0  0  0  0  0  0  0  0  0  0  0  0
   35.7515   53.9117    1.4070 C   0  0  0  0  0  0  0  0  0  0  0  0
   37.4809   45.0573    2.6801 C   0  0  0  0  0  0  0  0  0  0  0  0
   38.6790   43.2524    3.8346 C   0  0  0  0  0  0  0  0  0  0  0  0
   39.7915   43.6574    3.5006 O   0  0  0  0  0  0  0  0  0  0  0  0
   37.5188   43.8518    3.4995 N   0  0  0  0  0  0  0  0  0  0  0  0
   36.6717   43.4639    3.8176 H   0  0  0  0  0  0  0  0  0  0  0  0
   38.4387   42.1407    4.5897 O   0  0  0  0  0  0  0  0  0  0  0  0
   39.3305   41.9670    5.6900 C   0  0  0  0  0  0  0  0  0  0  0  0
   40.2371   40.7598    5.5815 C   0  0  0  0  0  0  0  0  0  0  0  0
   40.7249   40.5829    7.0112 C   0  0  0  0  0  0  0  0  0  0  0  0
   39.6390   41.1905    7.8793 C   0  0  0  0  0  0  0  0  0  0  0  0
   38.5372   41.5884    6.9199 C   0  0  0  0  0  0  0  0  0  0  0  0
   37.1016   44.8214    1.1581 C   0  0  0  0  0  0  0  0  0  0  0  0
   36.7520   46.1786    0.4909 C   0  0  0  0  0  0  0  0  0  0  0  0
   35.9218   43.8352    0.9404 C   0  0  0  0  0  0  0  0  0  0  0  0
   38.3311   44.2518    0.3989 C   0  0  0  0  0  0  0  0  0  0  0  0
   38.6531   47.5748    6.5403 O   0  0  0  0  0  0  0  0  0  0  0  0
   39.7832   47.2131    7.3209 C   0  0  0  0  0  0  0  0  0  0  0  0
   41.0728   47.9257    7.1002 C   0  0  0  0  0  0  0  0  0  0  0  0
   42.1817   47.5863    7.8436 C   0  0  0  0  0  0  0  0  0  0  0  0
   42.0628   46.5553    8.7867 N   0  0  0  0  0  0  0  0  0  0  0  0
   40.9049   45.8247    9.0726 C   0  0  0  0  0  0  0  0  0  0  0  0
   39.6927   46.1954    8.2549 C   0  0  0  0  0  0  0  0  0  0  0  0
   38.3996   45.4427    8.5042 C   0  0  0  0  0  0  0  0  0  0  0  0
   38.4717   44.3554    9.5598 C   0  0  0  0  0  0  0  0  0  0  0  0
   39.6060   44.0586   10.2654 C   0  0  0  0  0  0  0  0  0  0  0  0
   40.8435   44.8228    9.9948 C   0  0  0  0  0  0  0  0  0  0  0  0
   43.4443   48.2415    7.6667 C   0  0  0  0  0  0  0  0  0  0  0  0
   44.6798   47.6191    7.7174 C   0  0  0  0  0  0  0  0  0  0  0  0
   45.9008   48.7648    7.4290 S   0  0  0  0  0  0  0  0  0  0  0  0
   44.7162   49.9991    7.2771 C   0  0  0  0  0  0  0  0  0  0  0  0
   43.4751   49.5996    7.4132 N   0  0  0  0  0  0  0  0  0  0  0  0
   45.0055   51.3213    7.0012 N   0  0  0  0  0  0  0  0  0  0  0  0
   44.2343   52.4129    7.3645 C   0  0  0  0  0  0  0  0  0  0  0  0
   43.1692   52.3003    7.9894 O   0  0  0  0  0  0  0  0  0  0  0  0
   45.8339   51.5041    6.5016 H   0  0  0  0  0  0  0  0  0  0  0  0
   44.8432   53.7707    6.9142 C   0  0  0  0  0  0  0  0  0  0  0  0
   44.6176   54.8773    7.9604 C   0  0  0  0  0  0  0  0  0  0  0  0
   44.2894   54.1963    5.5447 C   0  0  0  0  0  0  0  0  0  0  0  0
   39.7665   43.0603   11.2684 O   0  0  0  0  0  0  0  0  0  0  0  0
   39.2447   43.2832   12.5942 C   0  0  0  0  0  0  0  0  0  0  0  0
 49 48  1  0  0  0
 49 50  1  0  0  0
 48 47  2  0  0  0
 59 60  1  0  0  0
 59 45  1  0  0  0
 54 53  2  0  0  0
 46 45  2  0  0  0
 46 41  1  0  0  0
 40 41  2  0  0  0
 40 39  1  0  0  0
 45 44  1  0  0  0
 47 39  1  0  0  0
 47 51  1  0  0  0
 50 52  1  0  0  0
 50 51  2  0  0  0
 41 42  1  0  0  0
 53 52  1  0  0  0
 53 56  1  0  0  0
 58 56  1  0  0  0
 39 38  2  0  0  0
 44 43  2  0  0  0
 56 57  1  0  0  0
 42 43  1  0  0  0
 42 37  2  0  0  0
 38 37  1  0  0  0
 37 36  1  0  0  0
 36  5  1  0  0  0
 29 30  1  0  0  0
 29 28  1  0  0  0
  4  5  1  0  0  0
  4  3  1  0  0  0
  5  6  1  0  0  0
 10 12  1  0  0  0
 10  8  1  0  0  0
 16 15  2  0  0  0
 30 31  1  0  0  0
  3  8  1  0  0  0
  3  7  1  0  0  0
 28 27  1  0  0  0
 14 12  1  0  0  0
 14 13  1  0  0  0
 15 12  1  0  0  0
 15 17  1  0  0  0
 12 13  1  0  0  0
  8  9  2  0  0  0
  6  7  1  0  0  0
 27 31  1  0  0  0
 27 26  1  0  0  0
  7  1  1  0  0  0
 13 19  1  0  0  0
 23 22  2  0  0  0
  2  1  2  0  0  0
  1 21  1  0  0  0
 26 22  1  0  0  0
 22 24  1  0  0  0
 19 20  2  0  0  0
 24 21  1  0  0  0
 21 32  1  0  0  0
 32 33  1  0  0  0
 32 34  1  0  0  0
 32 35  1  0  0  0
 24 25  1  0  0  0
 52 55  1  0  0  0
 10 11  1  0  0  0
 17 18  1  0  0  0
M  END
> <minimizedAffinity>
-7.77978

$$$$
3P8O_L5T_A_188


 60 65  0  0  0  0  0  0  0  0999 V2000
   32.3982   51.0918    1.0627 C   0  0  0  0  0  0  0  0  0  0  0  0
   31.7030   51.6896    1.8984 O   0  0  0  0  0  0  0  0  0  0  0  0
   34.4408   51.8919    2.2762 C   0  0  0  0  0  0  0  0  0  0  0  0
   35.9540   51.6983    2.0223 C   0  0  0  0  0  0  0  0  0  0  0  0
   36.0389   50.3616    1.2827 C   0  0  0  0  0  0  0  0  0  0  0  0
   34.8295   50.4826    0.3553 C   0  0  0  0  0  0  0  0  0  0  0  0
   33.8003   51.1381    1.1809 N   0  0  0  0  0  0  0  0  0  0  0  0
   34.1033   53.4053    2.2458 C   0  0  0  0  0  0  0  0  0  0  0  0
   33.7226   54.0064    3.2456 O   0  0  0  0  0  0  0  0  0  0  0  0
   34.3245   53.9920    1.0138 N   0  0  0  0  0  0  0  0  0  0  0  0
   34.3255   53.4178    0.2141 H   0  0  0  0  0  0  0  0  0  0  0  0
   34.5571   55.4268    0.8425 C   0  0  0  0  0  0  0  0  0  0  0  0
   33.7760   56.1155   -0.3048 C   0  0  0  0  0  0  0  0  0  0  0  0
   33.3770   56.3730    1.1168 C   0  0  0  0  0  0  0  0  0  0  0  0
   35.9270   55.9213    1.3597 C   0  0  0  0  0  0  0  0  0  0  0  0
   35.9310   56.8178    2.2743 O   0  0  0  0  0  0  0  0  0  0  0  0
   36.9903   55.4612    0.8698 O   0  0  0  0  0  0  0  0  0  0  0  0
   36.9529   54.8056    0.2015 H   0  0  0  0  0  0  0  0  0  0  0  0
   34.3016   57.1934   -1.1396 C   0  0  0  0  0  0  0  0  0  0  0  0
   33.9095   58.4750   -1.0639 C   0  0  0  0  0  0  0  0  0  0  0  0
   31.7475   50.2987   -0.1122 C   0  0  0  0  0  0  0  0  0  0  0  0
   31.8840   47.8509    0.0130 C   0  0  0  0  0  0  0  0  0  0  0  0
   32.8253   47.7747   -0.7753 O   0  0  0  0  0  0  0  0  0  0  0  0
   31.3046   49.0061    0.3968 N   0  0  0  0  0  0  0  0  0  0  0  0
   30.5599   48.9761    1.0401 H   0  0  0  0  0  0  0  0  0  0  0  0
   31.2767   46.7899    0.6207 O   0  0  0  0  0  0  0  0  0  0  0  0
   31.9214   46.3400    1.8115 C   0  0  0  0  0  0  0  0  0  0  0  0
   32.8476   47.3541    2.4480 C   0  0  0  0  0  0  0  0  0  0  0  0
   33.6872   46.4953    3.3811 C   0  0  0  0  0  0  0  0  0  0  0  0
   33.6717   45.1084    2.7660 C   0  0  0  0  0  0  0  0  0  0  0  0
   32.9184   45.2592    1.4610 C   0  0  0  0  0  0  0  0  0  0  0  0
   30.6625   51.0963   -0.9505 C   0  0  0  0  0  0  0  0  0  0  0  0
   30.3727   50.3452   -2.2776 C   0  0  0  0  0  0  0  0  0  0  0  0
   31.0604   52.5613   -1.2783 C   0  0  0  0  0  0  0  0  0  0  0  0
   29.3264   51.1421   -0.1598 C   0  0  0  0  0  0  0  0  0  0  0  0
   35.7523   49.2781    2.2401 O   0  0  0  0  0  0  0  0  0  0  0  0
   36.7931   48.4350    2.7125 C   0  0  0  0  0  0  0  0  0  0  0  0
   37.5667   48.8467    3.9174 C   0  0  0  0  0  0  0  0  0  0  0  0
   38.5833   48.0454    4.3884 C   0  0  0  0  0  0  0  0  0  0  0  0
   38.8713   46.8586    3.6992 N   0  0  0  0  0  0  0  0  0  0  0  0
   38.2103   46.3799    2.5633 C   0  0  0  0  0  0  0  0  0  0  0  0
   37.0999   47.2607    2.0469 C   0  0  0  0  0  0  0  0  0  0  0  0
   36.3395   46.8106    0.8140 C   0  0  0  0  0  0  0  0  0  0  0  0
   36.8036   45.5013    0.2040 C   0  0  0  0  0  0  0  0  0  0  0  0
   37.8257   44.7480    0.7146 C   0  0  0  0  0  0  0  0  0  0  0  0
   38.5358   45.2214    1.9230 C   0  0  0  0  0  0  0  0  0  0  0  0
   39.3567   48.3993    5.5422 C   0  0  0  0  0  0  0  0  0  0  0  0
   38.9409   49.2523    6.5502 C   0  0  0  0  0  0  0  0  0  0  0  0
   40.1584   49.3675    7.7296 S   0  0  0  0  0  0  0  0  0  0  0  0
   41.1508   48.3020    6.8190 C   0  0  0  0  0  0  0  0  0  0  0  0
   40.6188   47.8605    5.7053 N   0  0  0  0  0  0  0  0  0  0  0  0
   42.4099   47.8904    7.2109 N   0  0  0  0  0  0  0  0  0  0  0  0
   43.5514   48.6748    7.2253 C   0  0  0  0  0  0  0  0  0  0  0  0
   43.5506   49.8623    6.8684 O   0  0  0  0  0  0  0  0  0  0  0  0
   42.5044   46.9561    7.5064 H   0  0  0  0  0  0  0  0  0  0  0  0
   44.8099   47.9165    7.7335 C   0  0  0  0  0  0  0  0  0  0  0  0
   44.7356   47.6262    9.2435 C   0  0  0  0  0  0  0  0  0  0  0  0
   46.0945   48.6883    7.3908 C   0  0  0  0  0  0  0  0  0  0  0  0
   38.3278   43.5138    0.2115 O   0  0  0  0  0  0  0  0  0  0  0  0
   38.1415   42.3003    0.9680 C   0  0  0  0  0  0  0  0  0  0  0  0
 49 48  1  0  0  0
 49 50  1  0  0  0
 48 47  2  0  0  0
 59 60  1  0  0  0
 59 45  1  0  0  0
 54 53  2  0  0  0
 46 45  2  0  0  0
 46 41  1  0  0  0
 40 41  2  0  0  0
 40 39  1  0  0  0
 45 44  1  0  0  0
 47 39  1  0  0  0
 47 51  1  0  0  0
 50 52  1  0  0  0
 50 51  2  0  0  0
 41 42  1  0  0  0
 53 52  1  0  0  0
 53 56  1  0  0  0
 58 56  1  0  0  0
 39 38  2  0  0  0
 44 43  2  0  0  0
 56 57  1  0  0  0
 42 43  1  0  0  0
 42 37  2  0  0  0
 38 37  1  0  0  0
 37 36  1  0  0  0
 36  5  1  0  0  0
 29 30  1  0  0  0
 29 28  1  0  0  0
  4  5  1  0  0  0
  4  3  1  0  0  0
  5  6  1  0  0  0
 10 12  1  0  0  0
 10  8  1  0  0  0
 16 15  2  0  0  0
 30 31  1  0  0  0
  3  8  1  0  0  0
  3  7  1  0  0  0
 28 27  1  0  0  0
 14 12  1  0  0  0
 14 13  1  0  0  0
 15 12  1  0  0  0
 15 17  1  0  0  0
 12 13  1  0  0  0
  8  9  2  0  0  0
  6  7  1  0  0  0
 27 31  1  0  0  0
 27 26  1  0  0  0
  7  1  1  0  0  0
 13 19  1  0  0  0
 23 22  2  0  0  0
  2  1  2  0  0  0
  1 21  1  0  0  0
 26 22  1  0  0  0
 22 24  1  0  0  0
 19 20  2  0  0  0
 24 21  1  0  0  0
 21 32  1  0  0  0
 32 33  1  0  0  0
 32 34  1  0  0  0
 32 35  1  0  0  0
 24 25  1  0  0  0
 52 55  1  0  0  0
 10 11  1  0  0  0
 17 18  1  0  0  0
M  END
> <minimizedAffinity>
-7.48032

$$$$
3P8O_L5T_A_188


 60 65  0  0  0  0  0  0  0  0999 V2000
   39.7104   46.5659    4.6971 C   0  0  0  0  0  0  0  0  0  0  0  0
   40.3163   46.8758    3.6598 O   0  0  0  0  0  0  0  0  0  0  0  0
   38.8018   44.5609    3.4974 C   0  0  0  0  0  0  0  0  0  0  0  0
   37.8459   43.4246    3.9299 C   0  0  0  0  0  0  0  0  0  0  0  0
   38.0520   43.3208    5.4425 C   0  0  0  0  0  0  0  0  0  0  0  0
   38.1505   44.8017    5.8093 C   0  0  0  0  0  0  0  0  0  0  0  0
   38.9194   45.4012    4.7049 N   0  0  0  0  0  0  0  0  0  0  0  0
   38.1880   45.3187    2.2916 C   0  0  0  0  0  0  0  0  0  0  0  0
   38.5609   45.1177    1.1398 O   0  0  0  0  0  0  0  0  0  0  0  0
   37.1680   46.1812    2.6473 N   0  0  0  0  0  0  0  0  0  0  0  0
   37.1366   46.5141    3.5732 H   0  0  0  0  0  0  0  0  0  0  0  0
   36.1326   46.6227    1.7119 C   0  0  0  0  0  0  0  0  0  0  0  0
   35.5675   48.0476    1.9378 C   0  0  0  0  0  0  0  0  0  0  0  0
   36.4772   47.7913    0.7744 C   0  0  0  0  0  0  0  0  0  0  0  0
   35.3247   45.4772    1.0609 C   0  0  0  0  0  0  0  0  0  0  0  0
   34.6989   44.6730    1.8367 O   0  0  0  0  0  0  0  0  0  0  0  0
   35.3132   45.3443   -0.1899 O   0  0  0  0  0  0  0  0  0  0  0  0
   35.7817   45.9501   -0.7297 H   0  0  0  0  0  0  0  0  0  0  0  0
   34.1744   48.4338    1.7251 C   0  0  0  0  0  0  0  0  0  0  0  0
   33.6829   48.9034    0.5676 C   0  0  0  0  0  0  0  0  0  0  0  0
   39.8067   47.4432    5.9831 C   0  0  0  0  0  0  0  0  0  0  0  0
   41.9145   47.9501    7.1347 C   0  0  0  0  0  0  0  0  0  0  0  0
   41.5902   47.3714    8.1707 O   0  0  0  0  0  0  0  0  0  0  0  0
   41.1382   48.0351    6.0357 N   0  0  0  0  0  0  0  0  0  0  0  0
   41.4807   48.5112    5.2450 H   0  0  0  0  0  0  0  0  0  0  0  0
   43.0999   48.5956    6.9303 O   0  0  0  0  0  0  0  0  0  0  0  0
   43.9914   48.5654    8.0440 C   0  0  0  0  0  0  0  0  0  0  0  0
   44.9319   49.7482    8.1303 C   0  0  0  0  0  0  0  0  0  0  0  0
   46.0004   49.2518    9.0922 C   0  0  0  0  0  0  0  0  0  0  0  0
   45.9864   47.7407    8.9558 C   0  0  0  0  0  0  0  0  0  0  0  0
   44.9924   47.4490    7.8513 C   0  0  0  0  0  0  0  0  0  0  0  0
   38.6111   48.4629    6.1999 C   0  0  0  0  0  0  0  0  0  0  0  0
   37.7170   48.4961    4.9316 C   0  0  0  0  0  0  0  0  0  0  0  0
   39.0608   49.9108    6.5364 C   0  0  0  0  0  0  0  0  0  0  0  0
   37.7141   47.9701    7.3684 C   0  0  0  0  0  0  0  0  0  0  0  0
   39.3728   42.7166    5.6943 O   0  0  0  0  0  0  0  0  0  0  0  0
   39.5075   41.3120    5.8560 C   0  0  0  0  0  0  0  0  0  0  0  0
   39.4284   40.4346    4.6545 C   0  0  0  0  0  0  0  0  0  0  0  0
   39.5518   39.0695    4.7908 C   0  0  0  0  0  0  0  0  0  0  0  0
   39.7348   38.5412    6.0769 N   0  0  0  0  0  0  0  0  0  0  0  0
   39.8232   39.2712    7.2666 C   0  0  0  0  0  0  0  0  0  0  0  0
   39.6842   40.7657    7.1156 C   0  0  0  0  0  0  0  0  0  0  0  0
   39.7639   41.6249    8.3630 C   0  0  0  0  0  0  0  0  0  0  0  0
   39.9571   40.8686    9.6640 C   0  0  0  0  0  0  0  0  0  0  0  0
   40.0689   39.5068    9.7391 C   0  0  0  0  0  0  0  0  0  0  0  0
   39.9924   38.7079    8.4963 C   0  0  0  0  0  0  0  0  0  0  0  0
   39.4809   38.1843    3.6656 C   0  0  0  0  0  0  0  0  0  0  0  0
   39.7463   36.8261    3.7014 C   0  0  0  0  0  0  0  0  0  0  0  0
   39.5157   36.1654    2.1532 S   0  0  0  0  0  0  0  0  0  0  0  0
   39.1020   37.7173    1.5450 C   0  0  0  0  0  0  0  0  0  0  0  0
   39.1123   38.6836    2.4308 N   0  0  0  0  0  0  0  0  0  0  0  0
   38.7478   37.9667    0.2333 N   0  0  0  0  0  0  0  0  0  0  0  0
   39.6230   38.0971   -0.8322 C   0  0  0  0  0  0  0  0  0  0  0  0
   40.8527   38.0049   -0.7019 O   0  0  0  0  0  0  0  0  0  0  0  0
   37.7873   38.0601    0.0384 H   0  0  0  0  0  0  0  0  0  0  0  0
   38.9058   38.3626   -2.1857 C   0  0  0  0  0  0  0  0  0  0  0  0
   39.7917   37.9909   -3.3886 C   0  0  0  0  0  0  0  0  0  0  0  0
   38.4391   39.8240   -2.2852 C   0  0  0  0  0  0  0  0  0  0  0  0
   40.2502   38.7153   10.9092 O   0  0  0  0  0  0  0  0  0  0  0  0
   40.1049   39.3155   12.2124 C   0  0  0  0  0  0  0  0  0  0  0  0
 49 48  1  0  0  0
 49 50  1  0  0  0
 48 47  2  0  0  0
 59 60  1  0  0  0
 59 45  1  0  0  0
 54 53  2  0  0  0
 46 45  2  0  0  0
 46 41  1  0  0  0
 40 41  2  0  0  0
 40 39  1  0  0  0
 45 44  1  0  0  0
 47 39  1  0  0  0
 47 51  1  0  0  0
 50 52  1  0  0  0
 50 51  2  0  0  0
 41 42  1  0  0  0
 53 52  1  0  0  0
 53 56  1  0  0  0
 58 56  1  0  0  0
 39 38  2  0  0  0
 44 43  2  0  0  0
 56 57  1  0  0  0
 42 43  1  0  0  0
 42 37  2  0  0  0
 38 37  1  0  0  0
 37 36  1  0  0  0
 36  5  1  0  0  0
 29 30  1  0  0  0
 29 28  1  0  0  0
  4  5  1  0  0  0
  4  3  1  0  0  0
  5  6  1  0  0  0
 10 12  1  0  0  0
 10  8  1  0  0  0
 16 15  2  0  0  0
 30 31  1  0  0  0
  3  8  1  0  0  0
  3  7  1  0  0  0
 28 27  1  0  0  0
 14 12  1  0  0  0
 14 13  1  0  0  0
 15 12  1  0  0  0
 15 17  1  0  0  0
 12 13  1  0  0  0
  8  9  2  0  0  0
  6  7  1  0  0  0
 27 31  1  0  0  0
 27 26  1  0  0  0
  7  1  1  0  0  0
 13 19  1  0  0  0
 23 22  2  0  0  0
  2  1  2  0  0  0
  1 21  1  0  0  0
 26 22  1  0  0  0
 22 24  1  0  0  0
 19 20  2  0  0  0
 24 21  1  0  0  0
 21 32  1  0  0  0
 32 33  1  0  0  0
 32 34  1  0  0  0
 32 35  1  0  0  0
 24 25  1  0  0  0
 52 55  1  0  0  0
 10 11  1  0  0  0
 17 18  1  0  0  0
M  END
> <minimizedAffinity>
-7.39021

$$$$
3P8O_L5T_A_188


 60 65  0  0  0  0  0  0  0  0999 V2000
   36.5250   40.8532    3.4292 C   0  0  0  0  0  0  0  0  0  0  0  0
   35.7957   40.6353    2.4496 O   0  0  0  0  0  0  0  0  0  0  0  0
   37.7554   42.5555    2.0606 C   0  0  0  0  0  0  0  0  0  0  0  0
   38.9602   43.4752    2.3676 C   0  0  0  0  0  0  0  0  0  0  0  0
   38.8876   43.6907    3.8807 C   0  0  0  0  0  0  0  0  0  0  0  0
   38.5003   42.2850    4.3407 C   0  0  0  0  0  0  0  0  0  0  0  0
   37.5455   41.8171    3.3210 N   0  0  0  0  0  0  0  0  0  0  0  0
   38.1068   41.6278    0.8685 C   0  0  0  0  0  0  0  0  0  0  0  0
   38.9467   40.7381    0.9630 O   0  0  0  0  0  0  0  0  0  0  0  0
   37.3507   41.8767   -0.2617 N   0  0  0  0  0  0  0  0  0  0  0  0
   36.9408   42.7658   -0.3655 H   0  0  0  0  0  0  0  0  0  0  0  0
   37.1312   40.8806   -1.3113 C   0  0  0  0  0  0  0  0  0  0  0  0
   36.1992   39.6971   -0.9486 C   0  0  0  0  0  0  0  0  0  0  0  0
   35.7107   40.7595   -1.8863 C   0  0  0  0  0  0  0  0  0  0  0  0
   38.2695   40.7829   -2.3520 C   0  0  0  0  0  0  0  0  0  0  0  0
   38.0554   41.2687   -3.5175 O   0  0  0  0  0  0  0  0  0  0  0  0
   39.3542   40.2219   -2.0505 O   0  0  0  0  0  0  0  0  0  0  0  0
   39.4793   39.8767   -1.1884 H   0  0  0  0  0  0  0  0  0  0  0  0
   36.3824   38.3223   -1.4084 C   0  0  0  0  0  0  0  0  0  0  0  0
   35.4545   37.3571   -1.3111 C   0  0  0  0  0  0  0  0  0  0  0  0
   36.3334   40.0777    4.7689 C   0  0  0  0  0  0  0  0  0  0  0  0
   37.9711   38.4422    5.5868 C   0  0  0  0  0  0  0  0  0  0  0  0
   37.2106   37.4839    5.4577 O   0  0  0  0  0  0  0  0  0  0  0  0
   37.6496   39.7153    5.2812 N   0  0  0  0  0  0  0  0  0  0  0  0
   38.3238   40.4215    5.4077 H   0  0  0  0  0  0  0  0  0  0  0  0
   39.2509   38.3751    6.0573 O   0  0  0  0  0  0  0  0  0  0  0  0
   39.6550   39.4987    6.8386 C   0  0  0  0  0  0  0  0  0  0  0  0
   41.0688   39.9719    6.5771 C   0  0  0  0  0  0  0  0  0  0  0  0
   41.3595   40.8349    7.7954 C   0  0  0  0  0  0  0  0  0  0  0  0
   40.4628   40.2898    8.8912 C   0  0  0  0  0  0  0  0  0  0  0  0
   39.7830   39.0798    8.2855 C   0  0  0  0  0  0  0  0  0  0  0  0
   35.3718   40.7711    5.8228 C   0  0  0  0  0  0  0  0  0  0  0  0
   34.3473   39.7340    6.3559 C   0  0  0  0  0  0  0  0  0  0  0  0
   34.6013   42.0012    5.2704 C   0  0  0  0  0  0  0  0  0  0  0  0
   36.2014   41.2513    7.0450 C   0  0  0  0  0  0  0  0  0  0  0  0
   37.7477   44.5785    4.1726 O   0  0  0  0  0  0  0  0  0  0  0  0
   37.8962   45.9899    4.1162 C   0  0  0  0  0  0  0  0  0  0  0  0
   38.7222   46.6723    5.1515 C   0  0  0  0  0  0  0  0  0  0  0  0
   38.8745   48.0408    5.1171 C   0  0  0  0  0  0  0  0  0  0  0  0
   38.2248   48.7593    4.1031 N   0  0  0  0  0  0  0  0  0  0  0  0
   37.4297   48.2206    3.0863 C   0  0  0  0  0  0  0  0  0  0  0  0
   37.2611   46.7221    3.1279 C   0  0  0  0  0  0  0  0  0  0  0  0
   36.4074   46.0647    2.0603 C   0  0  0  0  0  0  0  0  0  0  0  0
   35.7806   47.0106    1.0533 C   0  0  0  0  0  0  0  0  0  0  0  0
   35.9641   48.3666    1.0715 C   0  0  0  0  0  0  0  0  0  0  0  0
   36.8105   48.9651    2.1269 C   0  0  0  0  0  0  0  0  0  0  0  0
   39.6575   48.7426    6.0914 C   0  0  0  0  0  0  0  0  0  0  0  0
   39.2424   49.8622    6.7918 C   0  0  0  0  0  0  0  0  0  0  0  0
   40.4729   50.3494    7.8572 S   0  0  0  0  0  0  0  0  0  0  0  0
   41.4688   49.0634    7.3058 C   0  0  0  0  0  0  0  0  0  0  0  0
   40.9290   48.2931    6.3928 N   0  0  0  0  0  0  0  0  0  0  0  0
   42.7384   48.8058    7.7852 N   0  0  0  0  0  0  0  0  0  0  0  0
   43.8497   49.6143    7.6130 C   0  0  0  0  0  0  0  0  0  0  0  0
   43.8082   50.6818    6.9834 O   0  0  0  0  0  0  0  0  0  0  0  0
   42.8647   47.9730    8.2949 H   0  0  0  0  0  0  0  0  0  0  0  0
   45.1305   49.0479    8.2880 C   0  0  0  0  0  0  0  0  0  0  0  0
   46.4111   49.6808    7.7140 C   0  0  0  0  0  0  0  0  0  0  0  0
   45.1827   47.5157    8.1731 C   0  0  0  0  0  0  0  0  0  0  0  0
   35.4181   49.3272    0.1728 O   0  0  0  0  0  0  0  0  0  0  0  0
   34.5914   50.3955    0.6780 C   0  0  0  0  0  0  0  0  0  0  0  0
 49 48  1  0  0  0
 49 50  1  0  0  0
 48 47  2  0  0  0
 59 60  1  0  0  0
 59 45  1  0  0  0
 54 53  2  0  0  0
 46 45  2  0  0  0
 46 41  1  0  0  0
 40 41  2  0  0  0
 40 39  1  0  0  0
 45 44  1  0  0  0
 47 39  1  0  0  0
 47 51  1  0  0  0
 50 52  1  0  0  0
 50 51  2  0  0  0
 41 42  1  0  0  0
 53 52  1  0  0  0
 53 56  1  0  0  0
 58 56  1  0  0  0
 39 38  2  0  0  0
 44 43  2  0  0  0
 56 57  1  0  0  0
 42 43  1  0  0  0
 42 37  2  0  0  0
 38 37  1  0  0  0
 37 36  1  0  0  0
 36  5  1  0  0  0
 29 30  1  0  0  0
 29 28  1  0  0  0
  4  5  1  0  0  0
  4  3  1  0  0  0
  5  6  1  0  0  0
 10 12  1  0  0  0
 10  8  1  0  0  0
 16 15  2  0  0  0
 30 31  1  0  0  0
  3  8  1  0  0  0
  3  7  1  0  0  0
 28 27  1  0  0  0
 14 12  1  0  0  0
 14 13  1  0  0  0
 15 12  1  0  0  0
 15 17  1  0  0  0
 12 13  1  0  0  0
  8  9  2  0  0  0
  6  7  1  0  0  0
 27 31  1  0  0  0
 27 26  1  0  0  0
  7  1  1  0  0  0
 13 19  1  0  0  0
 23 22  2  0  0  0
  2  1  2  0  0  0
  1 21  1  0  0  0
 26 22  1  0  0  0
 22 24  1  0  0  0
 19 20  2  0  0  0
 24 21  1  0  0  0
 21 32  1  0  0  0
 32 33  1  0  0  0
 32 34  1  0  0  0
 32 35  1  0  0  0
 24 25  1  0  0  0
 52 55  1  0  0  0
 10 11  1  0  0  0
 17 18  1  0  0  0
M  END
> <minimizedAffinity>
-7.27530

$$$$
3P8O_L5T_A_188


 60 65  0  0  0  0  0  0  0  0999 V2000
   36.2373   52.9504    4.4063 C   0  0  0  0  0  0  0  0  0  0  0  0
   36.6548   54.0202    3.9369 O   0  0  0  0  0  0  0  0  0  0  0  0
   35.6890   52.2094    2.0749 C   0  0  0  0  0  0  0  0  0  0  0  0
   35.0585   50.9165    1.5070 C   0  0  0  0  0  0  0  0  0  0  0  0
   35.4283   49.8415    2.5310 C   0  0  0  0  0  0  0  0  0  0  0  0
   35.2276   50.6195    3.8317 C   0  0  0  0  0  0  0  0  0  0  0  0
   35.7319   51.9706    3.5307 N   0  0  0  0  0  0  0  0  0  0  0  0
   34.8071   53.4250    1.6880 C   0  0  0  0  0  0  0  0  0  0  0  0
   33.5870   53.4105    1.8187 O   0  0  0  0  0  0  0  0  0  0  0  0
   35.5359   54.5118    1.2423 N   0  0  0  0  0  0  0  0  0  0  0  0
   36.4374   54.3550    0.8791 H   0  0  0  0  0  0  0  0  0  0  0  0
   35.0302   55.8846    1.2852 C   0  0  0  0  0  0  0  0  0  0  0  0
   35.5780   56.8507    0.2049 C   0  0  0  0  0  0  0  0  0  0  0  0
   34.1661   56.3578    0.1052 C   0  0  0  0  0  0  0  0  0  0  0  0
   34.5465   56.3474    2.6782 C   0  0  0  0  0  0  0  0  0  0  0  0
   33.3016   56.6127    2.8195 O   0  0  0  0  0  0  0  0  0  0  0  0
   35.3683   56.4734    3.6222 O   0  0  0  0  0  0  0  0  0  0  0  0
   36.2730   56.2708    3.4859 H   0  0  0  0  0  0  0  0  0  0  0  0
   35.8605   58.2678    0.4217 C   0  0  0  0  0  0  0  0  0  0  0  0
   35.3723   59.2654   -0.3323 C   0  0  0  0  0  0  0  0  0  0  0  0
   36.2588   52.6775    5.9418 C   0  0  0  0  0  0  0  0  0  0  0  0
   38.1506   51.4202    6.8725 C   0  0  0  0  0  0  0  0  0  0  0  0
   37.5067   50.3810    7.0099 O   0  0  0  0  0  0  0  0  0  0  0  0
   37.6486   52.5653    6.3682 N   0  0  0  0  0  0  0  0  0  0  0  0
   38.2382   53.3493    6.2852 H   0  0  0  0  0  0  0  0  0  0  0  0
   39.4643   51.5836    7.2062 O   0  0  0  0  0  0  0  0  0  0  0  0
   39.7200   52.6723    8.0924 C   0  0  0  0  0  0  0  0  0  0  0  0
   41.1654   53.1190    8.1408 C   0  0  0  0  0  0  0  0  0  0  0  0
   41.2163   53.9366    9.4223 C   0  0  0  0  0  0  0  0  0  0  0  0
   40.1055   53.3798   10.2930 C   0  0  0  0  0  0  0  0  0  0  0  0
   39.5427   52.2059    9.5194 C   0  0  0  0  0  0  0  0  0  0  0  0
   35.3660   53.6537    6.8171 C   0  0  0  0  0  0  0  0  0  0  0  0
   34.0422   53.9628    6.0679 C   0  0  0  0  0  0  0  0  0  0  0  0
   36.0597   54.9932    7.1863 C   0  0  0  0  0  0  0  0  0  0  0  0
   34.9759   52.9494    8.1454 C   0  0  0  0  0  0  0  0  0  0  0  0
   36.8688   49.5542    2.4082 O   0  0  0  0  0  0  0  0  0  0  0  0
   37.4205   48.3684    2.9620 C   0  0  0  0  0  0  0  0  0  0  0  0
   38.2102   48.4580    4.2223 C   0  0  0  0  0  0  0  0  0  0  0  0
   38.7577   47.3202    4.7728 C   0  0  0  0  0  0  0  0  0  0  0  0
   38.5643   46.0991    4.1109 N   0  0  0  0  0  0  0  0  0  0  0  0
   37.8434   45.9038    2.9284 C   0  0  0  0  0  0  0  0  0  0  0  0
   37.2478   47.1515    2.3252 C   0  0  0  0  0  0  0  0  0  0  0  0
   36.4559   47.0206    1.0381 C   0  0  0  0  0  0  0  0  0  0  0  0
   36.3645   45.6171    0.4692 C   0  0  0  0  0  0  0  0  0  0  0  0
   36.9345   44.5219    1.0594 C   0  0  0  0  0  0  0  0  0  0  0  0
   37.6925   44.6943    2.3181 C   0  0  0  0  0  0  0  0  0  0  0  0
   39.5262   47.3557    5.9822 C   0  0  0  0  0  0  0  0  0  0  0  0
   39.0297   47.1069    7.2503 C   0  0  0  0  0  0  0  0  0  0  0  0
   40.2892   47.2316    8.3837 S   0  0  0  0  0  0  0  0  0  0  0  0
   41.3915   47.6221    7.1260 C   0  0  0  0  0  0  0  0  0  0  0  0
   40.8757   47.6472    5.9212 N   0  0  0  0  0  0  0  0  0  0  0  0
   42.7366   47.8677    7.3227 N   0  0  0  0  0  0  0  0  0  0  0  0
   43.3104   49.1087    7.5442 C   0  0  0  0  0  0  0  0  0  0  0  0
   42.6459   50.1549    7.5818 O   0  0  0  0  0  0  0  0  0  0  0  0
   43.3415   47.0912    7.3037 H   0  0  0  0  0  0  0  0  0  0  0  0
   44.8512   49.0453    7.7414 C   0  0  0  0  0  0  0  0  0  0  0  0
   45.5117   50.4237    7.5578 C   0  0  0  0  0  0  0  0  0  0  0  0
   45.4854   48.0088    6.7997 C   0  0  0  0  0  0  0  0  0  0  0  0
   36.9017   43.1743    0.5998 O   0  0  0  0  0  0  0  0  0  0  0  0
   38.1300   42.5037    0.2513 C   0  0  0  0  0  0  0  0  0  0  0  0
 49 48  1  0  0  0
 49 50  1  0  0  0
 48 47  2  0  0  0
 59 60  1  0  0  0
 59 45  1  0  0  0
 54 53  2  0  0  0
 46 45  2  0  0  0
 46 41  1  0  0  0
 40 41  2  0  0  0
 40 39  1  0  0  0
 45 44  1  0  0  0
 47 39  1  0  0  0
 47 51  1  0  0  0
 50 52  1  0  0  0
 50 51  2  0  0  0
 41 42  1  0  0  0
 53 52  1  0  0  0
 53 56  1  0  0  0
 58 56  1  0  0  0
 39 38  2  0  0  0
 44 43  2  0  0  0
 56 57  1  0  0  0
 42 43  1  0  0  0
 42 37  2  0  0  0
 38 37  1  0  0  0
 37 36  1  0  0  0
 36  5  1  0  0  0
 29 30  1  0  0  0
 29 28  1  0  0  0
  4  5  1  0  0  0
  4  3  1  0  0  0
  5  6  1  0  0  0
 10 12  1  0  0  0
 10  8  1  0  0  0
 16 15  2  0  0  0
 30 31  1  0  0  0
  3  8  1  0  0  0
  3  7  1  0  0  0
 28 27  1  0  0  0
 14 12  1  0  0  0
 14 13  1  0  0  0
 15 12  1  0  0  0
 15 17  1  0  0  0
 12 13  1  0  0  0
  8  9  2  0  0  0
  6  7  1  0  0  0
 27 31  1  0  0  0
 27 26  1  0  0  0
  7  1  1  0  0  0
 13 19  1  0  0  0
 23 22  2  0  0  0
  2  1  2  0  0  0
  1 21  1  0  0  0
 26 22  1  0  0  0
 22 24  1  0  0  0
 19 20  2  0  0  0
 24 21  1  0  0  0
 21 32  1  0  0  0
 32 33  1  0  0  0
 32 34  1  0  0  0
 32 35  1  0  0  0
 24 25  1  0  0  0
 52 55  1  0  0  0
 10 11  1  0  0  0
 17 18  1  0  0  0
M  END
> <minimizedAffinity>
-7.25396

$$$$
3P8O_L5T_A_188


 60 65  0  0  0  0  0  0  0  0999 V2000
   37.2021   40.5168    3.0591 C   0  0  0  0  0  0  0  0  0  0  0  0
   36.1246   40.0494    2.6595 O   0  0  0  0  0  0  0  0  0  0  0  0
   37.0721   42.2255    1.2294 C   0  0  0  0  0  0  0  0  0  0  0  0
   38.0111   43.3781    0.8028 C   0  0  0  0  0  0  0  0  0  0  0  0
   38.7338   43.7663    2.0943 C   0  0  0  0  0  0  0  0  0  0  0  0
   38.9817   42.3836    2.6975 C   0  0  0  0  0  0  0  0  0  0  0  0
   37.7551   41.6267    2.3925 N   0  0  0  0  0  0  0  0  0  0  0  0
   36.9066   41.2330    0.0492 C   0  0  0  0  0  0  0  0  0  0  0  0
   35.8395   41.0982   -0.5417 O   0  0  0  0  0  0  0  0  0  0  0  0
   38.0767   40.5768   -0.2839 N   0  0  0  0  0  0  0  0  0  0  0  0
   38.7816   40.4988    0.3990 H   0  0  0  0  0  0  0  0  0  0  0  0
   38.3169   39.9927   -1.6042 C   0  0  0  0  0  0  0  0  0  0  0  0
   39.2285   38.7404   -1.6439 C   0  0  0  0  0  0  0  0  0  0  0  0
   37.7546   38.5867   -1.8691 C   0  0  0  0  0  0  0  0  0  0  0  0
   38.1787   40.9856   -2.7804 C   0  0  0  0  0  0  0  0  0  0  0  0
   39.2375   41.5818   -3.1852 O   0  0  0  0  0  0  0  0  0  0  0  0
   37.0513   41.2026   -3.2943 O   0  0  0  0  0  0  0  0  0  0  0  0
   36.2958   40.7496   -2.9749 H   0  0  0  0  0  0  0  0  0  0  0  0
   40.1819   38.4384   -2.7092 C   0  0  0  0  0  0  0  0  0  0  0  0
   41.0973   37.4580   -2.6561 C   0  0  0  0  0  0  0  0  0  0  0  0
   37.9514   39.8951    4.2776 C   0  0  0  0  0  0  0  0  0  0  0  0
   38.7248   41.3145    6.1251 C   0  0  0  0  0  0  0  0  0  0  0  0
   39.9145   41.1943    5.8364 O   0  0  0  0  0  0  0  0  0  0  0  0
   37.7143   40.7405    5.4418 N   0  0  0  0  0  0  0  0  0  0  0  0
   36.7884   40.8968    5.7377 H   0  0  0  0  0  0  0  0  0  0  0  0
   38.2374   42.0394    7.1743 O   0  0  0  0  0  0  0  0  0  0  0  0
   39.1477   43.0026    7.7032 C   0  0  0  0  0  0  0  0  0  0  0  0
   39.2852   42.9781    9.2104 C   0  0  0  0  0  0  0  0  0  0  0  0
   39.9295   44.3239    9.5057 C   0  0  0  0  0  0  0  0  0  0  0  0
   39.5161   45.2230    8.3556 C   0  0  0  0  0  0  0  0  0  0  0  0
   38.5726   44.3880    7.5156 C   0  0  0  0  0  0  0  0  0  0  0  0
   37.6989   38.3466    4.5114 C   0  0  0  0  0  0  0  0  0  0  0  0
   38.6050   37.8383    5.6646 C   0  0  0  0  0  0  0  0  0  0  0  0
   37.9399   37.4645    3.2562 C   0  0  0  0  0  0  0  0  0  0  0  0
   36.2297   38.1226    4.9632 C   0  0  0  0  0  0  0  0  0  0  0  0
   37.7784   44.4647    2.9732 O   0  0  0  0  0  0  0  0  0  0  0  0
   37.9338   45.8474    3.2579 C   0  0  0  0  0  0  0  0  0  0  0  0
   38.7715   46.2570    4.4199 C   0  0  0  0  0  0  0  0  0  0  0  0
   38.9307   47.5928    4.7157 C   0  0  0  0  0  0  0  0  0  0  0  0
   38.2768   48.5370    3.9110 N   0  0  0  0  0  0  0  0  0  0  0  0
   37.4709   48.2623    2.8013 C   0  0  0  0  0  0  0  0  0  0  0  0
   37.2948   46.7987    2.4813 C   0  0  0  0  0  0  0  0  0  0  0  0
   36.4293   46.4213    1.2943 C   0  0  0  0  0  0  0  0  0  0  0  0
   35.7995   47.5843    0.5510 C   0  0  0  0  0  0  0  0  0  0  0  0
   35.9903   48.8952    0.8945 C   0  0  0  0  0  0  0  0  0  0  0  0
   36.8481   49.2184    2.0557 C   0  0  0  0  0  0  0  0  0  0  0  0
   39.7249   48.0360    5.8236 C   0  0  0  0  0  0  0  0  0  0  0  0
   39.2342   48.6610    6.9572 C   0  0  0  0  0  0  0  0  0  0  0  0
   40.5177   48.9886    8.0211 S   0  0  0  0  0  0  0  0  0  0  0  0
   41.6273   48.3014    6.9048 C   0  0  0  0  0  0  0  0  0  0  0  0
   41.0918   47.8336    5.8036 N   0  0  0  0  0  0  0  0  0  0  0  0
   42.9872   48.2009    7.1258 N   0  0  0  0  0  0  0  0  0  0  0  0
   43.5927   47.4757    8.1387 C   0  0  0  0  0  0  0  0  0  0  0  0
   42.9459   46.8299    8.9766 O   0  0  0  0  0  0  0  0  0  0  0  0
   43.5789   48.6884    6.5082 H   0  0  0  0  0  0  0  0  0  0  0  0
   45.1449   47.5559    8.1064 C   0  0  0  0  0  0  0  0  0  0  0  0
   45.7333   47.8741    9.4930 C   0  0  0  0  0  0  0  0  0  0  0  0
   45.6226   48.5810    7.0650 C   0  0  0  0  0  0  0  0  0  0  0  0
   35.4422   50.0461    0.2593 O   0  0  0  0  0  0  0  0  0  0  0  0
   34.1087   50.4836    0.5911 C   0  0  0  0  0  0  0  0  0  0  0  0
 49 48  1  0  0  0
 49 50  1  0  0  0
 48 47  2  0  0  0
 59 60  1  0  0  0
 59 45  1  0  0  0
 54 53  2  0  0  0
 46 45  2  0  0  0
 46 41  1  0  0  0
 40 41  2  0  0  0
 40 39  1  0  0  0
 45 44  1  0  0  0
 47 39  1  0  0  0
 47 51  1  0  0  0
 50 52  1  0  0  0
 50 51  2  0  0  0
 41 42  1  0  0  0
 53 52  1  0  0  0
 53 56  1  0  0  0
 58 56  1  0  0  0
 39 38  2  0  0  0
 44 43  2  0  0  0
 56 57  1  0  0  0
 42 43  1  0  0  0
 42 37  2  0  0  0
 38 37  1  0  0  0
 37 36  1  0  0  0
 36  5  1  0  0  0
 29 30  1  0  0  0
 29 28  1  0  0  0
  4  5  1  0  0  0
  4  3  1  0  0  0
  5  6  1  0  0  0
 10 12  1  0  0  0
 10  8  1  0  0  0
 16 15  2  0  0  0
 30 31  1  0  0  0
  3  8  1  0  0  0
  3  7  1  0  0  0
 28 27  1  0  0  0
 14 12  1  0  0  0
 14 13  1  0  0  0
 15 12  1  0  0  0
 15 17  1  0  0  0
 12 13  1  0  0  0
  8  9  2  0  0  0
  6  7  1  0  0  0
 27 31  1  0  0  0
 27 26  1  0  0  0
  7  1  1  0  0  0
 13 19  1  0  0  0
 23 22  2  0  0  0
  2  1  2  0  0  0
  1 21  1  0  0  0
 26 22  1  0  0  0
 22 24  1  0  0  0
 19 20  2  0  0  0
 24 21  1  0  0  0
 21 32  1  0  0  0
 32 33  1  0  0  0
 32 34  1  0  0  0
 32 35  1  0  0  0
 24 25  1  0  0  0
 52 55  1  0  0  0
 10 11  1  0  0  0
 17 18  1  0  0  0
M  END
> <minimizedAffinity>
-7.21051

$$$$
3P8O_L5T_A_188


 60 65  0  0  0  0  0  0  0  0999 V2000
   40.3206   47.2960    6.7271 C   0  0  0  0  0  0  0  0  0  0  0  0
   41.0496   47.5393    5.7533 O   0  0  0  0  0  0  0  0  0  0  0  0
   39.1888   45.5235    5.3624 C   0  0  0  0  0  0  0  0  0  0  0  0
   38.0260   44.5499    5.6656 C   0  0  0  0  0  0  0  0  0  0  0  0
   38.0917   44.3528    7.1815 C   0  0  0  0  0  0  0  0  0  0  0  0
   38.4059   45.7797    7.6314 C   0  0  0  0  0  0  0  0  0  0  0  0
   39.3487   46.2832    6.6175 N   0  0  0  0  0  0  0  0  0  0  0  0
   38.8069   46.4218    4.1572 C   0  0  0  0  0  0  0  0  0  0  0  0
   39.5222   46.5158    3.1645 O   0  0  0  0  0  0  0  0  0  0  0  0
   37.5810   47.0436    4.3032 N   0  0  0  0  0  0  0  0  0  0  0  0
   37.2248   47.1709    5.2121 H   0  0  0  0  0  0  0  0  0  0  0  0
   36.7878   47.5216    3.1699 C   0  0  0  0  0  0  0  0  0  0  0  0
   35.9889   48.8298    3.3959 C   0  0  0  0  0  0  0  0  0  0  0  0
   37.2072   48.8516    2.5231 C   0  0  0  0  0  0  0  0  0  0  0  0
   36.3560   46.4182    2.1776 C   0  0  0  0  0  0  0  0  0  0  0  0
   35.5112   45.5464    2.5857 O   0  0  0  0  0  0  0  0  0  0  0  0
   36.8462   46.3833    1.0198 O   0  0  0  0  0  0  0  0  0  0  0  0
   37.4623   47.0366    0.7520 H   0  0  0  0  0  0  0  0  0  0  0  0
   34.6663   49.1042    2.8386 C   0  0  0  0  0  0  0  0  0  0  0  0
   34.4394   49.8639    1.7554 C   0  0  0  0  0  0  0  0  0  0  0  0
   40.4595   48.0926    8.0609 C   0  0  0  0  0  0  0  0  0  0  0  0
   42.3647   46.8636    9.0020 C   0  0  0  0  0  0  0  0  0  0  0  0
   41.7413   45.8092    9.1167 O   0  0  0  0  0  0  0  0  0  0  0  0
   41.8453   48.0043    8.5055 N   0  0  0  0  0  0  0  0  0  0  0  0
   42.4191   48.8018    8.4412 H   0  0  0  0  0  0  0  0  0  0  0  0
   43.6697   47.0504    9.3565 O   0  0  0  0  0  0  0  0  0  0  0  0
   44.3469   48.0630    8.6135 C   0  0  0  0  0  0  0  0  0  0  0  0
   45.1598   47.5493    7.4445 C   0  0  0  0  0  0  0  0  0  0  0  0
   46.0747   48.7245    7.1359 C   0  0  0  0  0  0  0  0  0  0  0  0
   46.2054   49.4804    8.4450 C   0  0  0  0  0  0  0  0  0  0  0  0
   45.4516   48.6498    9.4623 C   0  0  0  0  0  0  0  0  0  0  0  0
   39.8539   49.5586    8.0419 C   0  0  0  0  0  0  0  0  0  0  0  0
   39.2834   49.9057    9.4430 C   0  0  0  0  0  0  0  0  0  0  0  0
   38.7432   49.7760    6.9784 C   0  0  0  0  0  0  0  0  0  0  0  0
   40.9844   50.5834    7.7513 C   0  0  0  0  0  0  0  0  0  0  0  0
   39.2694   43.5235    7.4948 O   0  0  0  0  0  0  0  0  0  0  0  0
   39.3798   42.8669    8.7493 C   0  0  0  0  0  0  0  0  0  0  0  0
   39.2314   43.6649    9.9988 C   0  0  0  0  0  0  0  0  0  0  0  0
   39.3399   43.0477   11.2254 C   0  0  0  0  0  0  0  0  0  0  0  0
   39.6059   41.6712   11.2587 N   0  0  0  0  0  0  0  0  0  0  0  0
   39.7622   40.8315   10.1511 C   0  0  0  0  0  0  0  0  0  0  0  0
   39.6467   41.5100    8.8087 C   0  0  0  0  0  0  0  0  0  0  0  0
   39.8102   40.6651    7.5597 C   0  0  0  0  0  0  0  0  0  0  0  0
   40.1020   39.1959    7.8003 C   0  0  0  0  0  0  0  0  0  0  0  0
   40.2035   38.6378    9.0457 C   0  0  0  0  0  0  0  0  0  0  0  0
   40.0301   39.4978   10.2369 C   0  0  0  0  0  0  0  0  0  0  0  0
   39.2065   43.7726   12.4548 C   0  0  0  0  0  0  0  0  0  0  0  0
   38.8446   43.2198   13.6714 C   0  0  0  0  0  0  0  0  0  0  0  0
   38.8354   44.4324   14.8614 S   0  0  0  0  0  0  0  0  0  0  0  0
   39.2897   45.5991   13.6858 C   0  0  0  0  0  0  0  0  0  0  0  0
   39.4602   45.1309   12.4734 N   0  0  0  0  0  0  0  0  0  0  0  0
   39.5008   46.9361   13.9618 N   0  0  0  0  0  0  0  0  0  0  0  0
   40.6626   47.4833   14.4807 C   0  0  0  0  0  0  0  0  0  0  0  0
   41.6565   46.7974   14.7621 O   0  0  0  0  0  0  0  0  0  0  0  0
   38.7592   47.5553   13.7729 H   0  0  0  0  0  0  0  0  0  0  0  0
   40.5855   49.0252   14.6635 C   0  0  0  0  0  0  0  0  0  0  0  0
   41.8313   49.5830   15.3753 C   0  0  0  0  0  0  0  0  0  0  0  0
   39.3051   49.4283   15.4128 C   0  0  0  0  0  0  0  0  0  0  0  0
   40.4741   37.2767    9.3660 O   0  0  0  0  0  0  0  0  0  0  0  0
   39.8737   36.6802   10.5337 C   0  0  0  0  0  0  0  0  0  0  0  0
 49 48  1  0  0  0
 49 50  1  0  0  0
 48 47  2  0  0  0
 59 60  1  0  0  0
 59 45  1  0  0  0
 54 53  2  0  0  0
 46 45  2  0  0  0
 46 41  1  0  0  0
 40 41  2  0  0  0
 40 39  1  0  0  0
 45 44  1  0  0  0
 47 39  1  0  0  0
 47 51  1  0  0  0
 50 52  1  0  0  0
 50 51  2  0  0  0
 41 42  1  0  0  0
 53 52  1  0  0  0
 53 56  1  0  0  0
 58 56  1  0  0  0
 39 38  2  0  0  0
 44 43  2  0  0  0
 56 57  1  0  0  0
 42 43  1  0  0  0
 42 37  2  0  0  0
 38 37  1  0  0  0
 37 36  1  0  0  0
 36  5  1  0  0  0
 29 30  1  0  0  0
 29 28  1  0  0  0
  4  5  1  0  0  0
  4  3  1  0  0  0
  5  6  1  0  0  0
 10 12  1  0  0  0
 10  8  1  0  0  0
 16 15  2  0  0  0
 30 31  1  0  0  0
  3  8  1  0  0  0
  3  7  1  0  0  0
 28 27  1  0  0  0
 14 12  1  0  0  0
 14 13  1  0  0  0
 15 12  1  0  0  0
 15 17  1  0  0  0
 12 13  1  0  0  0
  8  9  2  0  0  0
  6  7  1  0  0  0
 27 31  1  0  0  0
 27 26  1  0  0  0
  7  1  1  0  0  0
 13 19  1  0  0  0
 23 22  2  0  0  0
  2  1  2  0  0  0
  1 21  1  0  0  0
 26 22  1  0  0  0
 22 24  1  0  0  0
 19 20  2  0  0  0
 24 21  1  0  0  0
 21 32  1  0  0  0
 32 33  1  0  0  0
 32 34  1  0  0  0
 32 35  1  0  0  0
 24 25  1  0  0  0
 52 55  1  0  0  0
 10 11  1  0  0  0
 17 18  1  0  0  0
M  END
> <minimizedAffinity>
-7.00897

$$$$
3P8O_L5T_A_188


 60 65  0  0  0  0  0  0  0  0999 V2000
   35.4613   42.6973    0.6103 C   0  0  0  0  0  0  0  0  0  0  0  0
   35.5929   42.3138   -0.5621 O   0  0  0  0  0  0  0  0  0  0  0  0
   37.9500   42.5530    0.8750 C   0  0  0  0  0  0  0  0  0  0  0  0
   38.8951   42.8295    2.0676 C   0  0  0  0  0  0  0  0  0  0  0  0
   38.1461   43.8705    2.9021 C   0  0  0  0  0  0  0  0  0  0  0  0
   36.7196   43.3297    2.8011 C   0  0  0  0  0  0  0  0  0  0  0  0
   36.6081   42.8504    1.4125 N   0  0  0  0  0  0  0  0  0  0  0  0
   38.1071   41.0770    0.4254 C   0  0  0  0  0  0  0  0  0  0  0  0
   38.6294   40.7753   -0.6432 O   0  0  0  0  0  0  0  0  0  0  0  0
   37.6526   40.1671    1.3616 N   0  0  0  0  0  0  0  0  0  0  0  0
   36.9891   40.4673    2.0240 H   0  0  0  0  0  0  0  0  0  0  0  0
   38.1117   38.7784    1.4142 C   0  0  0  0  0  0  0  0  0  0  0  0
   37.0413   37.7158    1.7687 C   0  0  0  0  0  0  0  0  0  0  0  0
   37.5515   37.8074    0.3624 C   0  0  0  0  0  0  0  0  0  0  0  0
   39.6164   38.6109    1.7245 C   0  0  0  0  0  0  0  0  0  0  0  0
   40.3831   38.2300    0.7719 O   0  0  0  0  0  0  0  0  0  0  0  0
   40.0493   38.8259    2.8858 O   0  0  0  0  0  0  0  0  0  0  0  0
   39.4618   39.1039    3.5608 H   0  0  0  0  0  0  0  0  0  0  0  0
   37.2879   36.5232    2.5762 C   0  0  0  0  0  0  0  0  0  0  0  0
   36.6634   36.2433    3.7310 C   0  0  0  0  0  0  0  0  0  0  0  0
   34.0538   43.0059    1.2075 C   0  0  0  0  0  0  0  0  0  0  0  0
   33.0423   45.1895    0.7226 C   0  0  0  0  0  0  0  0  0  0  0  0
   33.2787   45.6461    1.8402 O   0  0  0  0  0  0  0  0  0  0  0  0
   33.3763   43.9461    0.3225 N   0  0  0  0  0  0  0  0  0  0  0  0
   33.1561   43.6645   -0.5948 H   0  0  0  0  0  0  0  0  0  0  0  0
   32.4084   45.8585   -0.2844 O   0  0  0  0  0  0  0  0  0  0  0  0
   31.4693   46.8391    0.1543 C   0  0  0  0  0  0  0  0  0  0  0  0
   30.1120   46.7531   -0.5101 C   0  0  0  0  0  0  0  0  0  0  0  0
   29.5055   48.1133   -0.2012 C   0  0  0  0  0  0  0  0  0  0  0  0
   30.6900   49.0428   -0.0137 C   0  0  0  0  0  0  0  0  0  0  0  0
   31.9101   48.2025   -0.3274 C   0  0  0  0  0  0  0  0  0  0  0  0
   33.1972   41.7354    1.6175 C   0  0  0  0  0  0  0  0  0  0  0  0
   32.2481   42.1020    2.7897 C   0  0  0  0  0  0  0  0  0  0  0  0
   34.0446   40.4991    2.0241 C   0  0  0  0  0  0  0  0  0  0  0  0
   32.2955   41.3108    0.4261 C   0  0  0  0  0  0  0  0  0  0  0  0
   38.1803   45.1578    2.1849 O   0  0  0  0  0  0  0  0  0  0  0  0
   38.0999   46.3849    2.8953 C   0  0  0  0  0  0  0  0  0  0  0  0
   38.9688   46.5881    4.0885 C   0  0  0  0  0  0  0  0  0  0  0  0
   38.9023   47.7693    4.7940 C   0  0  0  0  0  0  0  0  0  0  0  0
   37.9944   48.7501    4.3693 N   0  0  0  0  0  0  0  0  0  0  0  0
   37.1367   48.6625    3.2680 C   0  0  0  0  0  0  0  0  0  0  0  0
   37.2084   47.3668    2.4989 C   0  0  0  0  0  0  0  0  0  0  0  0
   36.3035   47.1950    1.2938 C   0  0  0  0  0  0  0  0  0  0  0  0
   35.3842   48.3649    0.9970 C   0  0  0  0  0  0  0  0  0  0  0  0
   35.3586   49.5151    1.7382 C   0  0  0  0  0  0  0  0  0  0  0  0
   36.2635   49.6430    2.9015 C   0  0  0  0  0  0  0  0  0  0  0  0
   39.7163   48.0110    5.9489 C   0  0  0  0  0  0  0  0  0  0  0  0
   39.2436   48.4006    7.1904 C   0  0  0  0  0  0  0  0  0  0  0  0
   40.5474   48.5468    8.2698 S   0  0  0  0  0  0  0  0  0  0  0  0
   41.6401   48.1052    7.0206 C   0  0  0  0  0  0  0  0  0  0  0  0
   41.0852   47.8433    5.8622 N   0  0  0  0  0  0  0  0  0  0  0  0
   43.0064   47.9920    7.1900 N   0  0  0  0  0  0  0  0  0  0  0  0
   43.9058   49.0435    7.2510 C   0  0  0  0  0  0  0  0  0  0  0  0
   43.5559   50.2288    7.1492 O   0  0  0  0  0  0  0  0  0  0  0  0
   43.3736   47.0825    7.2750 H   0  0  0  0  0  0  0  0  0  0  0  0
   45.3752   48.5818    7.4620 C   0  0  0  0  0  0  0  0  0  0  0  0
   45.4864   47.4946    8.5462 C   0  0  0  0  0  0  0  0  0  0  0  0
   46.2860   49.7752    7.7933 C   0  0  0  0  0  0  0  0  0  0  0  0
   34.5335   50.6582    1.5359 O   0  0  0  0  0  0  0  0  0  0  0  0
   34.1819   51.0630    0.1972 C   0  0  0  0  0  0  0  0  0  0  0  0
 49 48  1  0  0  0
 49 50  1  0  0  0
 48 47  2  0  0  0
 59 60  1  0  0  0
 59 45  1  0  0  0
 54 53  2  0  0  0
 46 45  2  0  0  0
 46 41  1  0  0  0
 40 41  2  0  0  0
 40 39  1  0  0  0
 45 44  1  0  0  0
 47 39  1  0  0  0
 47 51  1  0  0  0
 50 52  1  0  0  0
 50 51  2  0  0  0
 41 42  1  0  0  0
 53 52  1  0  0  0
 53 56  1  0  0  0
 58 56  1  0  0  0
 39 38  2  0  0  0
 44 43  2  0  0  0
 56 57  1  0  0  0
 42 43  1  0  0  0
 42 37  2  0  0  0
 38 37  1  0  0  0
 37 36  1  0  0  0
 36  5  1  0  0  0
 29 30  1  0  0  0
 29 28  1  0  0  0
  4  5  1  0  0  0
  4  3  1  0  0  0
  5  6  1  0  0  0
 10 12  1  0  0  0
 10  8  1  0  0  0
 16 15  2  0  0  0
 30 31  1  0  0  0
  3  8  1  0  0  0
  3  7  1  0  0  0
 28 27  1  0  0  0
 14 12  1  0  0  0
 14 13  1  0  0  0
 15 12  1  0  0  0
 15 17  1  0  0  0
 12 13  1  0  0  0
  8  9  2  0  0  0
  6  7  1  0  0  0
 27 31  1  0  0  0
 27 26  1  0  0  0
  7  1  1  0  0  0
 13 19  1  0  0  0
 23 22  2  0  0  0
  2  1  2  0  0  0
  1 21  1  0  0  0
 26 22  1  0  0  0
 22 24  1  0  0  0
 19 20  2  0  0  0
 24 21  1  0  0  0
 21 32  1  0  0  0
 32 33  1  0  0  0
 32 34  1  0  0  0
 32 35  1  0  0  0
 24 25  1  0  0  0
 52 55  1  0  0  0
 10 11  1  0  0  0
 17 18  1  0  0  0
M  END
> <minimizedAffinity>
-6.94408

$$$$
