2QI5_MZ7_B_200


 43 45  0  0  0  0  0  0  0  0999 V2000
   20.2945   29.2209   15.0080 C   0  0  0  0  0  0  0  0  0  0  0  0
   20.1623   28.2486   16.0513 O   0  0  0  0  0  0  0  0  0  0  0  0
   19.2331   27.9811   16.1282 H   0  0  0  0  0  0  0  0  0  0  0  0
   19.4504   30.4387   15.3990 C   0  0  0  0  0  0  0  0  0  0  0  0
   19.6285   31.5031   14.3862 N   0  0  0  0  0  0  0  0  0  0  0  0
   18.5207   33.0308   12.8049 O   0  0  0  0  0  0  0  0  0  0  0  0
   18.2284   32.1073   13.8521 S   0  0  0  0  0  0  0  0  0  0  0  0
   17.4758   30.9896   13.3433 O   0  0  0  0  0  0  0  0  0  0  0  0
   17.3936   32.8103   15.0469 C   0  0  0  0  0  0  0  0  0  0  0  0
   16.2904   32.1302   15.5558 C   0  0  0  0  0  0  0  0  0  0  0  0
   15.5387   32.6633   16.6000 C   0  0  0  0  0  0  0  0  0  0  0  0
   17.7209   34.0498   15.6192 C   0  0  0  0  0  0  0  0  0  0  0  0
   16.9538   34.6006   16.6612 C   0  0  0  0  0  0  0  0  0  0  0  0
   15.8623   33.8921   17.1559 C   0  0  0  0  0  0  0  0  0  0  0  0
   15.2878   34.5744   18.1793 N   0  0  0  0  0  0  0  0  0  0  0  0
   17.2693   36.1027   17.4026 S   0  0  0  0  0  0  0  0  0  0  0  0
   15.9003   35.7611   18.4186 C   0  0  0  0  0  0  0  0  0  0  0  0
   20.5833   32.5459   14.7896 C   0  0  0  0  0  0  0  0  0  0  0  0
   21.8862   32.3880   13.9963 C   0  0  0  0  0  0  0  0  0  0  0  0
   22.7490   33.6470   14.1255 C   0  0  0  0  0  0  0  0  0  0  0  0
   22.5542   34.4982   15.3847 C   0  0  0  0  0  0  0  0  0  0  0  0
   22.0625   35.8984   15.0800 C   0  0  0  0  0  0  0  0  0  0  0  0
   19.9238   28.6208   13.6409 C   0  0  0  0  0  0  0  0  0  0  0  0
   21.0463   27.9034   13.0559 N   0  0  0  0  0  0  0  0  0  0  0  0
   21.9194   28.3737   12.1582 C   0  0  0  0  0  0  0  0  0  0  0  0
   21.9549   29.5049   11.7146 O   0  0  0  0  0  0  0  0  0  0  0  0
   21.1771   26.9737   13.3521 H   0  0  0  0  0  0  0  0  0  0  0  0
   22.9132   27.3462   11.6814 C   0  0  0  0  0  0  0  0  0  0  0  0
   22.4433   26.6227   10.5117 N   0  0  0  0  0  0  0  0  0  0  0  0
   21.8584   25.4319   10.6177 C   0  0  0  0  0  0  0  0  0  0  0  0
   21.6438   24.8757   11.6959 O   0  0  0  0  0  0  0  0  0  0  0  0
   21.4924   24.8206    9.2983 C   0  0  0  0  0  0  0  0  0  0  0  0
   22.5604   27.0230    9.6199 H   0  0  0  0  0  0  0  0  0  0  0  0
   24.2952   27.9126   11.4275 C   0  0  0  0  0  0  0  0  0  0  0  0
   25.2075   26.8721   10.7627 C   0  0  0  0  0  0  0  0  0  0  0  0
   24.8829   28.4082   12.7398 C   0  0  0  0  0  0  0  0  0  0  0  0
   18.7162   27.6820   13.6999 C   0  0  0  0  0  0  0  0  0  0  0  0
   18.2847   27.2780   12.3101 C   0  0  0  0  0  0  0  0  0  0  0  0
   18.3359   25.9410   11.9290 C   0  0  0  0  0  0  0  0  0  0  0  0
   17.9630   25.5607   10.6430 C   0  0  0  0  0  0  0  0  0  0  0  0
   17.5195   26.5152    9.7416 C   0  0  0  0  0  0  0  0  0  0  0  0
   17.4582   27.8521   10.1149 C   0  0  0  0  0  0  0  0  0  0  0  0
   17.8398   28.2291   11.3999 C   0  0  0  0  0  0  0  0  0  0  0  0
  6  7  2  0  0  0
  7  8  2  0  0  0
  7  5  1  0  0  0
  7  9  1  0  0  0
  9 12  2  0  0  0
  9 10  1  0  0  0
 10 11  2  0  0  0
 11 14  1  0  0  0
 12 13  1  0  0  0
 13 16  1  0  0  0
 13 14  2  0  0  0
 14 15  1  0  0  0
 15 17  2  0  0  0
 16 17  1  0  0  0
  5  4  1  0  0  0
  5 18  1  0  0  0
 18 19  1  0  0  0
 19 20  1  0  0  0
 20 21  1  0  0  0
 21 22  1  0  0  0
  4  1  1  0  0  0
  1 23  1  0  0  0
  1  2  1  0  0  0
 23 24  1  0  0  0
 23 37  1  0  0  0
 24 25  1  0  0  0
 25 26  2  0  0  0
 25 28  1  0  0  0
 28 29  1  0  0  0
 28 34  1  0  0  0
 34 35  1  0  0  0
 34 36  1  0  0  0
 29 30  1  0  0  0
 30 32  1  0  0  0
 30 31  2  0  0  0
 37 38  1  0  0  0
 38 43  2  0  0  0
 38 39  1  0  0  0
 39 40  2  0  0  0
 40 41  1  0  0  0
 41 42  2  0  0  0
 42 43  1  0  0  0
  2  3  1  0  0  0
 24 27  1  0  0  0
 29 33  1  0  0  0
M  END
> <minimizedAffinity>
-9.76074

$$$$
2QI5_MZ7_B_200


 43 45  0  0  0  0  0  0  0  0999 V2000
   19.8434   30.4206   15.9420 C   0  0  0  0  0  0  0  0  0  0  0  0
   20.1646   29.8428   17.2126 O   0  0  0  0  0  0  0  0  0  0  0  0
   21.1195   29.9139   17.3680 H   0  0  0  0  0  0  0  0  0  0  0  0
   20.5895   29.6224   14.8674 C   0  0  0  0  0  0  0  0  0  0  0  0
   20.0944   30.0200   13.5305 N   0  0  0  0  0  0  0  0  0  0  0  0
   20.6708   30.9678   11.3325 O   0  0  0  0  0  0  0  0  0  0  0  0
   21.2749   30.4987   12.5365 S   0  0  0  0  0  0  0  0  0  0  0  0
   21.9574   31.5733   13.2104 O   0  0  0  0  0  0  0  0  0  0  0  0
   22.3248   29.3020   12.2461 C   0  0  0  0  0  0  0  0  0  0  0  0
   23.5953   29.4023   12.8068 C   0  0  0  0  0  0  0  0  0  0  0  0
   24.5431   28.3993   12.6188 C   0  0  0  0  0  0  0  0  0  0  0  0
   22.0325   28.1591   11.4848 C   0  0  0  0  0  0  0  0  0  0  0  0
   22.9924   27.1527   11.2769 C   0  0  0  0  0  0  0  0  0  0  0  0
   24.2510   27.2764   11.8590 C   0  0  0  0  0  0  0  0  0  0  0  0
   25.0071   26.1860   11.5723 N   0  0  0  0  0  0  0  0  0  0  0  0
   22.7289   25.7424   10.3565 S   0  0  0  0  0  0  0  0  0  0  0  0
   24.3561   25.2985   10.7791 C   0  0  0  0  0  0  0  0  0  0  0  0
   19.1975   29.0300   12.9163 C   0  0  0  0  0  0  0  0  0  0  0  0
   17.8655   29.6965   12.5508 C   0  0  0  0  0  0  0  0  0  0  0  0
   17.1628   28.9155   11.4363 C   0  0  0  0  0  0  0  0  0  0  0  0
   17.7625   27.5586   11.0523 C   0  0  0  0  0  0  0  0  0  0  0  0
   17.5824   27.2281    9.5848 C   0  0  0  0  0  0  0  0  0  0  0  0
   20.1530   31.9273   15.9240 C   0  0  0  0  0  0  0  0  0  0  0  0
   19.0578   32.6994   16.4909 N   0  0  0  0  0  0  0  0  0  0  0  0
   18.1528   33.4207   15.8201 C   0  0  0  0  0  0  0  0  0  0  0  0
   18.0593   33.5121   14.6115 O   0  0  0  0  0  0  0  0  0  0  0  0
   18.9740   32.6899   17.4718 H   0  0  0  0  0  0  0  0  0  0  0  0
   17.2019   34.1803   16.7086 C   0  0  0  0  0  0  0  0  0  0  0  0
   17.6235   35.5545   16.9238 N   0  0  0  0  0  0  0  0  0  0  0  0
   18.3360   35.9054   17.9917 C   0  0  0  0  0  0  0  0  0  0  0  0
   18.7148   35.1037   18.8472 O   0  0  0  0  0  0  0  0  0  0  0  0
   18.6281   37.3744   18.0653 C   0  0  0  0  0  0  0  0  0  0  0  0
   17.3761   36.2420   16.2640 H   0  0  0  0  0  0  0  0  0  0  0  0
   15.7647   34.1413   16.2308 C   0  0  0  0  0  0  0  0  0  0  0  0
   14.8751   35.0668   17.0729 C   0  0  0  0  0  0  0  0  0  0  0  0
   15.2630   32.7060   16.2666 C   0  0  0  0  0  0  0  0  0  0  0  0
   21.4441   32.2883   16.6628 C   0  0  0  0  0  0  0  0  0  0  0  0
   21.7381   33.7642   16.5355 C   0  0  0  0  0  0  0  0  0  0  0  0
   21.9269   34.5351   17.6781 C   0  0  0  0  0  0  0  0  0  0  0  0
   22.1750   35.9007   17.5729 C   0  0  0  0  0  0  0  0  0  0  0  0
   22.2541   36.4942   16.3232 C   0  0  0  0  0  0  0  0  0  0  0  0
   22.0740   35.7316   15.1760 C   0  0  0  0  0  0  0  0  0  0  0  0
   21.8181   34.3673   15.2860 C   0  0  0  0  0  0  0  0  0  0  0  0
  6  7  2  0  0  0
  7  8  2  0  0  0
  7  5  1  0  0  0
  7  9  1  0  0  0
  9 12  2  0  0  0
  9 10  1  0  0  0
 10 11  2  0  0  0
 11 14  1  0  0  0
 12 13  1  0  0  0
 13 16  1  0  0  0
 13 14  2  0  0  0
 14 15  1  0  0  0
 15 17  2  0  0  0
 16 17  1  0  0  0
  5  4  1  0  0  0
  5 18  1  0  0  0
 18 19  1  0  0  0
 19 20  1  0  0  0
 20 21  1  0  0  0
 21 22  1  0  0  0
  4  1  1  0  0  0
  1 23  1  0  0  0
  1  2  1  0  0  0
 23 24  1  0  0  0
 23 37  1  0  0  0
 24 25  1  0  0  0
 25 26  2  0  0  0
 25 28  1  0  0  0
 28 29  1  0  0  0
 28 34  1  0  0  0
 34 35  1  0  0  0
 34 36  1  0  0  0
 29 30  1  0  0  0
 30 32  1  0  0  0
 30 31  2  0  0  0
 37 38  1  0  0  0
 38 43  2  0  0  0
 38 39  1  0  0  0
 39 40  2  0  0  0
 40 41  1  0  0  0
 41 42  2  0  0  0
 42 43  1  0  0  0
  2  3  1  0  0  0
 24 27  1  0  0  0
 29 33  1  0  0  0
M  END
> <minimizedAffinity>
-9.52710

$$$$
2QI5_MZ7_B_200


 43 45  0  0  0  0  0  0  0  0999 V2000
   20.0450   29.9169   14.2098 C   0  0  0  0  0  0  0  0  0  0  0  0
   19.2967   29.5277   15.3673 O   0  0  0  0  0  0  0  0  0  0  0  0
   18.3484   29.6177   15.1846 H   0  0  0  0  0  0  0  0  0  0  0  0
   19.7246   31.3878   13.9231 C   0  0  0  0  0  0  0  0  0  0  0  0
   20.0495   32.2009   15.1163 N   0  0  0  0  0  0  0  0  0  0  0  0
   22.4459   31.7739   15.4861 O   0  0  0  0  0  0  0  0  0  0  0  0
   21.5477   32.8050   15.0801 S   0  0  0  0  0  0  0  0  0  0  0  0
   21.7969   33.1812   13.7122 O   0  0  0  0  0  0  0  0  0  0  0  0
   21.6808   34.1130   16.0235 C   0  0  0  0  0  0  0  0  0  0  0  0
   21.8597   33.9129   17.3896 C   0  0  0  0  0  0  0  0  0  0  0  0
   22.0051   34.9911   18.2591 C   0  0  0  0  0  0  0  0  0  0  0  0
   21.6500   35.4354   15.5530 C   0  0  0  0  0  0  0  0  0  0  0  0
   21.7778   36.5276   16.4297 C   0  0  0  0  0  0  0  0  0  0  0  0
   21.9657   36.2955   17.7894 C   0  0  0  0  0  0  0  0  0  0  0  0
   22.1075   37.4736   18.4489 N   0  0  0  0  0  0  0  0  0  0  0  0
   21.7369   38.1622   15.9481 S   0  0  0  0  0  0  0  0  0  0  0  0
   21.9948   38.5452   17.6244 C   0  0  0  0  0  0  0  0  0  0  0  0
   19.0328   33.2148   15.4326 C   0  0  0  0  0  0  0  0  0  0  0  0
   18.0892   32.6793   16.5165 C   0  0  0  0  0  0  0  0  0  0  0  0
   16.6979   32.4140   15.9334 C   0  0  0  0  0  0  0  0  0  0  0  0
   15.6743   33.5501   16.0303 C   0  0  0  0  0  0  0  0  0  0  0  0
   15.3132   33.8986   17.4598 C   0  0  0  0  0  0  0  0  0  0  0  0
   19.7623   28.9769   13.0252 C   0  0  0  0  0  0  0  0  0  0  0  0
   20.9379   28.1922   12.6800 N   0  0  0  0  0  0  0  0  0  0  0  0
   21.9228   28.5460   11.8469 C   0  0  0  0  0  0  0  0  0  0  0  0
   22.0302   29.6122   11.2729 O   0  0  0  0  0  0  0  0  0  0  0  0
   21.0168   27.3075   13.1045 H   0  0  0  0  0  0  0  0  0  0  0  0
   22.9525   27.4673   11.6309 C   0  0  0  0  0  0  0  0  0  0  0  0
   22.6482   26.6340   10.4796 N   0  0  0  0  0  0  0  0  0  0  0  0
   22.0295   25.4631   10.6113 C   0  0  0  0  0  0  0  0  0  0  0  0
   21.6443   25.0179   11.6936 O   0  0  0  0  0  0  0  0  0  0  0  0
   21.8526   24.7260    9.3175 C   0  0  0  0  0  0  0  0  0  0  0  0
   22.9059   26.9431    9.5811 H   0  0  0  0  0  0  0  0  0  0  0  0
   24.3702   27.9934   11.5375 C   0  0  0  0  0  0  0  0  0  0  0  0
   25.3352   26.9034   11.0503 C   0  0  0  0  0  0  0  0  0  0  0  0
   24.7915   28.5426   12.8918 C   0  0  0  0  0  0  0  0  0  0  0  0
   18.5904   28.0244   13.2753 C   0  0  0  0  0  0  0  0  0  0  0  0
   18.2036   27.3073   12.0036 C   0  0  0  0  0  0  0  0  0  0  0  0
   18.2815   25.9198   11.9384 C   0  0  0  0  0  0  0  0  0  0  0  0
   17.9500   25.2505   10.7639 C   0  0  0  0  0  0  0  0  0  0  0  0
   17.5212   25.9670    9.6580 C   0  0  0  0  0  0  0  0  0  0  0  0
   17.4334   27.3524    9.7153 C   0  0  0  0  0  0  0  0  0  0  0  0
   17.7735   28.0185   10.8899 C   0  0  0  0  0  0  0  0  0  0  0  0
  6  7  2  0  0  0
  7  8  2  0  0  0
  7  5  1  0  0  0
  7  9  1  0  0  0
  9 12  2  0  0  0
  9 10  1  0  0  0
 10 11  2  0  0  0
 11 14  1  0  0  0
 12 13  1  0  0  0
 13 16  1  0  0  0
 13 14  2  0  0  0
 14 15  1  0  0  0
 15 17  2  0  0  0
 16 17  1  0  0  0
  5  4  1  0  0  0
  5 18  1  0  0  0
 18 19  1  0  0  0
 19 20  1  0  0  0
 20 21  1  0  0  0
 21 22  1  0  0  0
  4  1  1  0  0  0
  1 23  1  0  0  0
  1  2  1  0  0  0
 23 24  1  0  0  0
 23 37  1  0  0  0
 24 25  1  0  0  0
 25 26  2  0  0  0
 25 28  1  0  0  0
 28 29  1  0  0  0
 28 34  1  0  0  0
 34 35  1  0  0  0
 34 36  1  0  0  0
 29 30  1  0  0  0
 30 32  1  0  0  0
 30 31  2  0  0  0
 37 38  1  0  0  0
 38 43  2  0  0  0
 38 39  1  0  0  0
 39 40  2  0  0  0
 40 41  1  0  0  0
 41 42  2  0  0  0
 42 43  1  0  0  0
  2  3  1  0  0  0
 24 27  1  0  0  0
 29 33  1  0  0  0
M  END
> <minimizedAffinity>
-8.89111

$$$$
2QI5_MZ7_B_200


 43 45  0  0  0  0  0  0  0  0999 V2000
   20.4080   29.1870   14.6883 C   0  0  0  0  0  0  0  0  0  0  0  0
   20.2802   28.5771   15.9779 O   0  0  0  0  0  0  0  0  0  0  0  0
   20.7073   27.7062   15.9674 H   0  0  0  0  0  0  0  0  0  0  0  0
   19.6914   28.2866   13.6762 C   0  0  0  0  0  0  0  0  0  0  0  0
   18.2777   28.7090   13.5604 N   0  0  0  0  0  0  0  0  0  0  0  0
   19.2392   30.2428   11.8917 O   0  0  0  0  0  0  0  0  0  0  0  0
   18.0948   30.0816   12.7278 S   0  0  0  0  0  0  0  0  0  0  0  0
   16.9072   29.9132   11.9303 O   0  0  0  0  0  0  0  0  0  0  0  0
   17.8973   31.3494   13.7138 C   0  0  0  0  0  0  0  0  0  0  0  0
   18.7817   32.4169   13.5842 C   0  0  0  0  0  0  0  0  0  0  0  0
   18.6582   33.5512   14.3828 C   0  0  0  0  0  0  0  0  0  0  0  0
   16.8801   31.4538   14.6758 C   0  0  0  0  0  0  0  0  0  0  0  0
   16.7628   32.5893   15.4971 C   0  0  0  0  0  0  0  0  0  0  0  0
   17.6560   33.6450   15.3370 C   0  0  0  0  0  0  0  0  0  0  0  0
   17.3454   34.6531   16.1916 N   0  0  0  0  0  0  0  0  0  0  0  0
   15.5706   32.7933   16.6982 S   0  0  0  0  0  0  0  0  0  0  0  0
   16.2862   34.3520   16.9841 C   0  0  0  0  0  0  0  0  0  0  0  0
   17.3792   27.6393   13.1020 C   0  0  0  0  0  0  0  0  0  0  0  0
   18.1818   26.5877   12.3262 C   0  0  0  0  0  0  0  0  0  0  0  0
   17.8934   26.6923   10.8256 C   0  0  0  0  0  0  0  0  0  0  0  0
   17.8263   25.3805   10.0365 C   0  0  0  0  0  0  0  0  0  0  0  0
   17.1474   25.5355    8.6910 C   0  0  0  0  0  0  0  0  0  0  0  0
   21.8836   29.4555   14.3459 C   0  0  0  0  0  0  0  0  0  0  0  0
   22.4760   28.3302   13.6392 N   0  0  0  0  0  0  0  0  0  0  0  0
   22.6224   28.2005   12.3159 C   0  0  0  0  0  0  0  0  0  0  0  0
   22.3307   29.0296   11.4760 O   0  0  0  0  0  0  0  0  0  0  0  0
   22.8038   27.5854   14.1934 H   0  0  0  0  0  0  0  0  0  0  0  0
   23.1912   26.8701   11.8951 C   0  0  0  0  0  0  0  0  0  0  0  0
   22.6167   26.3917   10.6487 N   0  0  0  0  0  0  0  0  0  0  0  0
   21.8257   25.3220   10.6116 C   0  0  0  0  0  0  0  0  0  0  0  0
   21.4982   24.6860   11.6147 O   0  0  0  0  0  0  0  0  0  0  0  0
   21.3758   24.9527    9.2296 C   0  0  0  0  0  0  0  0  0  0  0  0
   22.8174   26.8702    9.8121 H   0  0  0  0  0  0  0  0  0  0  0  0
   24.7040   26.8564   11.8147 C   0  0  0  0  0  0  0  0  0  0  0  0
   25.3051   28.1117   12.4626 C   0  0  0  0  0  0  0  0  0  0  0  0
   25.1277   26.7258   10.3598 C   0  0  0  0  0  0  0  0  0  0  0  0
   22.0903   30.7236   13.5138 C   0  0  0  0  0  0  0  0  0  0  0  0
   22.1847   31.9387   14.4057 C   0  0  0  0  0  0  0  0  0  0  0  0
   21.8113   31.8485   15.7428 C   0  0  0  0  0  0  0  0  0  0  0  0
   21.8721   32.9679   16.5678 C   0  0  0  0  0  0  0  0  0  0  0  0
   22.3251   34.1756   16.0612 C   0  0  0  0  0  0  0  0  0  0  0  0
   22.7069   34.2742   14.7290 C   0  0  0  0  0  0  0  0  0  0  0  0
   22.6371   33.1536   13.9053 C   0  0  0  0  0  0  0  0  0  0  0  0
  6  7  2  0  0  0
  7  8  2  0  0  0
  7  5  1  0  0  0
  7  9  1  0  0  0
  9 12  2  0  0  0
  9 10  1  0  0  0
 10 11  2  0  0  0
 11 14  1  0  0  0
 12 13  1  0  0  0
 13 16  1  0  0  0
 13 14  2  0  0  0
 14 15  1  0  0  0
 15 17  2  0  0  0
 16 17  1  0  0  0
  5  4  1  0  0  0
  5 18  1  0  0  0
 18 19  1  0  0  0
 19 20  1  0  0  0
 20 21  1  0  0  0
 21 22  1  0  0  0
  4  1  1  0  0  0
  1 23  1  0  0  0
  1  2  1  0  0  0
 23 24  1  0  0  0
 23 37  1  0  0  0
 24 25  1  0  0  0
 25 26  2  0  0  0
 25 28  1  0  0  0
 28 29  1  0  0  0
 28 34  1  0  0  0
 34 35  1  0  0  0
 34 36  1  0  0  0
 29 30  1  0  0  0
 30 32  1  0  0  0
 30 31  2  0  0  0
 37 38  1  0  0  0
 38 43  2  0  0  0
 38 39  1  0  0  0
 39 40  2  0  0  0
 40 41  1  0  0  0
 41 42  2  0  0  0
 42 43  1  0  0  0
  2  3  1  0  0  0
 24 27  1  0  0  0
 29 33  1  0  0  0
M  END
> <minimizedAffinity>
-8.88954

$$$$
2QI5_MZ7_B_200


 43 45  0  0  0  0  0  0  0  0999 V2000
   18.2323   31.3790   14.8523 C   0  0  0  0  0  0  0  0  0  0  0  0
   17.5838   30.2761   15.4959 O   0  0  0  0  0  0  0  0  0  0  0  0
   17.9609   30.1508   16.3808 H   0  0  0  0  0  0  0  0  0  0  0  0
   19.7190   31.0309   14.7215 C   0  0  0  0  0  0  0  0  0  0  0  0
   19.9344   30.2656   13.4731 N   0  0  0  0  0  0  0  0  0  0  0  0
   20.5199   31.2496   11.2935 O   0  0  0  0  0  0  0  0  0  0  0  0
   21.1015   30.8873   12.5446 S   0  0  0  0  0  0  0  0  0  0  0  0
   21.5842   32.0563   13.2338 O   0  0  0  0  0  0  0  0  0  0  0  0
   22.3222   29.8428   12.3509 C   0  0  0  0  0  0  0  0  0  0  0  0
   23.2123   29.6806   13.4091 C   0  0  0  0  0  0  0  0  0  0  0  0
   24.2729   28.7822   13.3225 C   0  0  0  0  0  0  0  0  0  0  0  0
   22.5305   29.0733   11.1951 C   0  0  0  0  0  0  0  0  0  0  0  0
   23.6108   28.1785   11.0962 C   0  0  0  0  0  0  0  0  0  0  0  0
   24.4781   28.0306   12.1751 C   0  0  0  0  0  0  0  0  0  0  0  0
   25.4199   27.0947   11.8921 N   0  0  0  0  0  0  0  0  0  0  0  0
   23.9470   27.2182    9.7286 S   0  0  0  0  0  0  0  0  0  0  0  0
   25.2865   26.5879   10.6407 C   0  0  0  0  0  0  0  0  0  0  0  0
   20.0857   28.8190   13.6880 C   0  0  0  0  0  0  0  0  0  0  0  0
   19.3120   28.0528   12.6081 C   0  0  0  0  0  0  0  0  0  0  0  0
   17.8037   28.2526   12.7851 C   0  0  0  0  0  0  0  0  0  0  0  0
   17.1314   29.3031   11.8949 C   0  0  0  0  0  0  0  0  0  0  0  0
   16.6271   28.7314   10.5857 C   0  0  0  0  0  0  0  0  0  0  0  0
   17.9658   32.6943   15.6042 C   0  0  0  0  0  0  0  0  0  0  0  0
   19.2048   33.4024   15.8875 N   0  0  0  0  0  0  0  0  0  0  0  0
   19.4723   34.1541   16.9611 C   0  0  0  0  0  0  0  0  0  0  0  0
   18.7392   34.3323   17.9143 O   0  0  0  0  0  0  0  0  0  0  0  0
   19.9222   33.3194   15.2183 H   0  0  0  0  0  0  0  0  0  0  0  0
   20.8187   34.8289   16.9100 C   0  0  0  0  0  0  0  0  0  0  0  0
   21.6040   34.5887   18.1091 N   0  0  0  0  0  0  0  0  0  0  0  0
   21.9259   35.5768   18.9406 C   0  0  0  0  0  0  0  0  0  0  0  0
   21.5629   36.7432   18.7799 O   0  0  0  0  0  0  0  0  0  0  0  0
   22.7842   35.1416   20.0905 C   0  0  0  0  0  0  0  0  0  0  0  0
   21.9051   33.6734   18.3112 H   0  0  0  0  0  0  0  0  0  0  0  0
   21.6250   34.4788   15.6761 C   0  0  0  0  0  0  0  0  0  0  0  0
   22.8030   33.5586   16.0260 C   0  0  0  0  0  0  0  0  0  0  0  0
   22.1009   35.7595   15.0079 C   0  0  0  0  0  0  0  0  0  0  0  0
   17.0196   33.6372   14.8567 C   0  0  0  0  0  0  0  0  0  0  0  0
   16.2369   34.4892   15.8274 C   0  0  0  0  0  0  0  0  0  0  0  0
   15.3402   33.8922   16.7078 C   0  0  0  0  0  0  0  0  0  0  0  0
   14.5965   34.6701   17.5904 C   0  0  0  0  0  0  0  0  0  0  0  0
   14.7627   36.0458   17.6073 C   0  0  0  0  0  0  0  0  0  0  0  0
   15.6608   36.6508   16.7369 C   0  0  0  0  0  0  0  0  0  0  0  0
   16.3970   35.8694   15.8502 C   0  0  0  0  0  0  0  0  0  0  0  0
  6  7  2  0  0  0
  7  8  2  0  0  0
  7  5  1  0  0  0
  7  9  1  0  0  0
  9 12  2  0  0  0
  9 10  1  0  0  0
 10 11  2  0  0  0
 11 14  1  0  0  0
 12 13  1  0  0  0
 13 16  1  0  0  0
 13 14  2  0  0  0
 14 15  1  0  0  0
 15 17  2  0  0  0
 16 17  1  0  0  0
  5  4  1  0  0  0
  5 18  1  0  0  0
 18 19  1  0  0  0
 19 20  1  0  0  0
 20 21  1  0  0  0
 21 22  1  0  0  0
  4  1  1  0  0  0
  1 23  1  0  0  0
  1  2  1  0  0  0
 23 24  1  0  0  0
 23 37  1  0  0  0
 24 25  1  0  0  0
 25 26  2  0  0  0
 25 28  1  0  0  0
 28 29  1  0  0  0
 28 34  1  0  0  0
 34 35  1  0  0  0
 34 36  1  0  0  0
 29 30  1  0  0  0
 30 32  1  0  0  0
 30 31  2  0  0  0
 37 38  1  0  0  0
 38 43  2  0  0  0
 38 39  1  0  0  0
 39 40  2  0  0  0
 40 41  1  0  0  0
 41 42  2  0  0  0
 42 43  1  0  0  0
  2  3  1  0  0  0
 24 27  1  0  0  0
 29 33  1  0  0  0
M  END
> <minimizedAffinity>
-8.82641

$$$$
2QI5_MZ7_B_200


 43 45  0  0  0  0  0  0  0  0999 V2000
   20.1466   30.9230   14.9252 C   0  0  0  0  0  0  0  0  0  0  0  0
   21.0393   30.0063   15.5688 O   0  0  0  0  0  0  0  0  0  0  0  0
   21.9486   30.1855   15.2824 H   0  0  0  0  0  0  0  0  0  0  0  0
   20.2538   30.6914   13.4141 C   0  0  0  0  0  0  0  0  0  0  0  0
   19.9806   29.2676   13.1167 N   0  0  0  0  0  0  0  0  0  0  0  0
   17.7305   28.7188   13.9519 O   0  0  0  0  0  0  0  0  0  0  0  0
   18.4346   28.9863   12.7405 S   0  0  0  0  0  0  0  0  0  0  0  0
   17.9435   30.1937   12.1277 O   0  0  0  0  0  0  0  0  0  0  0  0
   18.2948   27.7628   11.6906 C   0  0  0  0  0  0  0  0  0  0  0  0
   18.1724   26.4754   12.2062 C   0  0  0  0  0  0  0  0  0  0  0  0
   18.0248   25.3766   11.3634 C   0  0  0  0  0  0  0  0  0  0  0  0
   18.2664   27.9157   10.2953 C   0  0  0  0  0  0  0  0  0  0  0  0
   18.1362   26.8072    9.4398 C   0  0  0  0  0  0  0  0  0  0  0  0
   18.0055   25.5331    9.9854 C   0  0  0  0  0  0  0  0  0  0  0  0
   17.8507   24.6156    8.9969 N   0  0  0  0  0  0  0  0  0  0  0  0
   18.1076   26.8991    7.7379 S   0  0  0  0  0  0  0  0  0  0  0  0
   17.8992   25.1730    7.7610 C   0  0  0  0  0  0  0  0  0  0  0  0
   20.9195   28.6769   12.1516 C   0  0  0  0  0  0  0  0  0  0  0  0
   22.1298   28.0994   12.8955 C   0  0  0  0  0  0  0  0  0  0  0  0
   23.3275   29.0482   12.7894 C   0  0  0  0  0  0  0  0  0  0  0  0
   24.7052   28.4098   12.5831 C   0  0  0  0  0  0  0  0  0  0  0  0
   24.8286   27.6890   11.2562 C   0  0  0  0  0  0  0  0  0  0  0  0
   20.4360   32.3718   15.3539 C   0  0  0  0  0  0  0  0  0  0  0  0
   19.2915   32.9618   16.0313 N   0  0  0  0  0  0  0  0  0  0  0  0
   18.2299   33.5398   15.4582 C   0  0  0  0  0  0  0  0  0  0  0  0
   18.0147   33.6243   14.2648 O   0  0  0  0  0  0  0  0  0  0  0  0
   19.2991   32.9326   17.0153 H   0  0  0  0  0  0  0  0  0  0  0  0
   17.2584   34.1375   16.4429 C   0  0  0  0  0  0  0  0  0  0  0  0
   17.5887   35.5117   16.7817 N   0  0  0  0  0  0  0  0  0  0  0  0
   18.2367   35.8162   17.9035 C   0  0  0  0  0  0  0  0  0  0  0  0
   18.6288   34.9715   18.7103 O   0  0  0  0  0  0  0  0  0  0  0  0
   18.4377   37.2887   18.1030 C   0  0  0  0  0  0  0  0  0  0  0  0
   17.3268   36.2345   16.1667 H   0  0  0  0  0  0  0  0  0  0  0  0
   15.8122   34.0389   16.0025 C   0  0  0  0  0  0  0  0  0  0  0  0
   14.9165   34.9748   16.8265 C   0  0  0  0  0  0  0  0  0  0  0  0
   15.3523   32.5933   16.1108 C   0  0  0  0  0  0  0  0  0  0  0  0
   21.6640   32.5010   16.2585 C   0  0  0  0  0  0  0  0  0  0  0  0
   21.9340   33.9496   16.5898 C   0  0  0  0  0  0  0  0  0  0  0  0
   22.1275   34.8710   15.5656 C   0  0  0  0  0  0  0  0  0  0  0  0
   22.4003   36.2038   15.8600 C   0  0  0  0  0  0  0  0  0  0  0  0
   22.4607   36.6214   17.1799 C   0  0  0  0  0  0  0  0  0  0  0  0
   22.2619   35.7102   18.2097 C   0  0  0  0  0  0  0  0  0  0  0  0
   21.9971   34.3763   17.9108 C   0  0  0  0  0  0  0  0  0  0  0  0
  6  7  2  0  0  0
  7  8  2  0  0  0
  7  5  1  0  0  0
  7  9  1  0  0  0
  9 12  2  0  0  0
  9 10  1  0  0  0
 10 11  2  0  0  0
 11 14  1  0  0  0
 12 13  1  0  0  0
 13 16  1  0  0  0
 13 14  2  0  0  0
 14 15  1  0  0  0
 15 17  2  0  0  0
 16 17  1  0  0  0
  5  4  1  0  0  0
  5 18  1  0  0  0
 18 19  1  0  0  0
 19 20  1  0  0  0
 20 21  1  0  0  0
 21 22  1  0  0  0
  4  1  1  0  0  0
  1 23  1  0  0  0
  1  2  1  0  0  0
 23 24  1  0  0  0
 23 37  1  0  0  0
 24 25  1  0  0  0
 25 26  2  0  0  0
 25 28  1  0  0  0
 28 29  1  0  0  0
 28 34  1  0  0  0
 34 35  1  0  0  0
 34 36  1  0  0  0
 29 30  1  0  0  0
 30 32  1  0  0  0
 30 31  2  0  0  0
 37 38  1  0  0  0
 38 43  2  0  0  0
 38 39  1  0  0  0
 39 40  2  0  0  0
 40 41  1  0  0  0
 41 42  2  0  0  0
 42 43  1  0  0  0
  2  3  1  0  0  0
 24 27  1  0  0  0
 29 33  1  0  0  0
M  END
> <minimizedAffinity>
-8.81012

$$$$
2QI5_MZ7_B_200


 43 45  0  0  0  0  0  0  0  0999 V2000
   18.5057   28.1688   13.6769 C   0  0  0  0  0  0  0  0  0  0  0  0
   17.2607   27.5788   14.0686 O   0  0  0  0  0  0  0  0  0  0  0  0
   16.5539   27.8990   13.4865 H   0  0  0  0  0  0  0  0  0  0  0  0
   18.3703   29.6869   13.8368 C   0  0  0  0  0  0  0  0  0  0  0  0
   18.5155   30.0433   15.2659 N   0  0  0  0  0  0  0  0  0  0  0  0
   20.0638   29.7997   17.1647 O   0  0  0  0  0  0  0  0  0  0  0  0
   20.0535   30.0538   15.7610 S   0  0  0  0  0  0  0  0  0  0  0  0
   20.7123   28.9880   15.0507 O   0  0  0  0  0  0  0  0  0  0  0  0
   20.7791   31.4563   15.4069 C   0  0  0  0  0  0  0  0  0  0  0  0
   21.4971   31.5336   14.2166 C   0  0  0  0  0  0  0  0  0  0  0  0
   22.1280   32.7152   13.8354 C   0  0  0  0  0  0  0  0  0  0  0  0
   20.7142   32.6065   16.2094 C   0  0  0  0  0  0  0  0  0  0  0  0
   21.3651   33.7963   15.8375 C   0  0  0  0  0  0  0  0  0  0  0  0
   22.0670   33.8459   14.6363 C   0  0  0  0  0  0  0  0  0  0  0  0
   22.5810   35.0880   14.4470 N   0  0  0  0  0  0  0  0  0  0  0  0
   21.3516   35.2320   16.7563 S   0  0  0  0  0  0  0  0  0  0  0  0
   22.3070   35.9246   15.4793 C   0  0  0  0  0  0  0  0  0  0  0  0
   17.7851   31.2614   15.6461 C   0  0  0  0  0  0  0  0  0  0  0  0
   17.1947   31.9216   14.3942 C   0  0  0  0  0  0  0  0  0  0  0  0
   17.6608   33.3765   14.2844 C   0  0  0  0  0  0  0  0  0  0  0  0
   16.5914   34.4634   14.4362 C   0  0  0  0  0  0  0  0  0  0  0  0
   15.6422   34.2005   15.5873 C   0  0  0  0  0  0  0  0  0  0  0  0
   18.9069   27.7265   12.2592 C   0  0  0  0  0  0  0  0  0  0  0  0
   20.3199   27.3863   12.1910 N   0  0  0  0  0  0  0  0  0  0  0  0
   21.3153   28.1727   11.7666 C   0  0  0  0  0  0  0  0  0  0  0  0
   21.2146   29.3312   11.4125 O   0  0  0  0  0  0  0  0  0  0  0  0
   20.5698   26.4818   12.4887 H   0  0  0  0  0  0  0  0  0  0  0  0
   22.6574   27.4886   11.7324 C   0  0  0  0  0  0  0  0  0  0  0  0
   22.8447   26.6968   10.5281 N   0  0  0  0  0  0  0  0  0  0  0  0
   22.5364   25.4027   10.4903 C   0  0  0  0  0  0  0  0  0  0  0  0
   22.0470   24.7944   11.4435 O   0  0  0  0  0  0  0  0  0  0  0  0
   22.8505   24.7463    9.1792 C   0  0  0  0  0  0  0  0  0  0  0  0
   23.2082   27.1280    9.7212 H   0  0  0  0  0  0  0  0  0  0  0  0
   23.8246   28.4352   11.9246 C   0  0  0  0  0  0  0  0  0  0  0  0
   25.1426   27.7889   11.4751 C   0  0  0  0  0  0  0  0  0  0  0  0
   23.8865   28.8659   13.3819 C   0  0  0  0  0  0  0  0  0  0  0  0
   18.0893   26.5405   11.7415 C   0  0  0  0  0  0  0  0  0  0  0  0
   18.2556   26.3877   10.2482 C   0  0  0  0  0  0  0  0  0  0  0  0
   18.9478   25.2953    9.7355 C   0  0  0  0  0  0  0  0  0  0  0  0
   19.1272   25.1570    8.3622 C   0  0  0  0  0  0  0  0  0  0  0  0
   18.5975   26.1016    7.4977 C   0  0  0  0  0  0  0  0  0  0  0  0
   17.8986   27.1925    7.9996 C   0  0  0  0  0  0  0  0  0  0  0  0
   17.7282   27.3310    9.3746 C   0  0  0  0  0  0  0  0  0  0  0  0
  6  7  2  0  0  0
  7  8  2  0  0  0
  7  5  1  0  0  0
  7  9  1  0  0  0
  9 12  2  0  0  0
  9 10  1  0  0  0
 10 11  2  0  0  0
 11 14  1  0  0  0
 12 13  1  0  0  0
 13 16  1  0  0  0
 13 14  2  0  0  0
 14 15  1  0  0  0
 15 17  2  0  0  0
 16 17  1  0  0  0
  5  4  1  0  0  0
  5 18  1  0  0  0
 18 19  1  0  0  0
 19 20  1  0  0  0
 20 21  1  0  0  0
 21 22  1  0  0  0
  4  1  1  0  0  0
  1 23  1  0  0  0
  1  2  1  0  0  0
 23 24  1  0  0  0
 23 37  1  0  0  0
 24 25  1  0  0  0
 25 26  2  0  0  0
 25 28  1  0  0  0
 28 29  1  0  0  0
 28 34  1  0  0  0
 34 35  1  0  0  0
 34 36  1  0  0  0
 29 30  1  0  0  0
 30 32  1  0  0  0
 30 31  2  0  0  0
 37 38  1  0  0  0
 38 43  2  0  0  0
 38 39  1  0  0  0
 39 40  2  0  0  0
 40 41  1  0  0  0
 41 42  2  0  0  0
 42 43  1  0  0  0
  2  3  1  0  0  0
 24 27  1  0  0  0
 29 33  1  0  0  0
M  END
> <minimizedAffinity>
-8.65695

$$$$
2QI5_MZ7_B_200


 43 45  0  0  0  0  0  0  0  0999 V2000
   18.4960   28.8152   13.7193 C   0  0  0  0  0  0  0  0  0  0  0  0
   17.5893   27.9460   14.4075 O   0  0  0  0  0  0  0  0  0  0  0  0
   16.8072   27.7916   13.8549 H   0  0  0  0  0  0  0  0  0  0  0  0
   17.7744   30.1466   13.4845 C   0  0  0  0  0  0  0  0  0  0  0  0
   18.4436   31.2104   14.2662 N   0  0  0  0  0  0  0  0  0  0  0  0
   16.6473   30.5824   15.8285 O   0  0  0  0  0  0  0  0  0  0  0  0
   17.8073   31.4077   15.7383 S   0  0  0  0  0  0  0  0  0  0  0  0
   18.8119   30.9696   16.6729 O   0  0  0  0  0  0  0  0  0  0  0  0
   17.4545   32.9604   16.0266 C   0  0  0  0  0  0  0  0  0  0  0  0
   16.3122   33.4883   15.4308 C   0  0  0  0  0  0  0  0  0  0  0  0
   15.9336   34.8101   15.6525 C   0  0  0  0  0  0  0  0  0  0  0  0
   18.2113   33.8041   16.8552 C   0  0  0  0  0  0  0  0  0  0  0  0
   17.8431   35.1447   17.0671 C   0  0  0  0  0  0  0  0  0  0  0  0
   16.6898   35.6410   16.4657 C   0  0  0  0  0  0  0  0  0  0  0  0
   16.4927   36.9338   16.8299 N   0  0  0  0  0  0  0  0  0  0  0  0
   18.7097   36.2413   18.0428 S   0  0  0  0  0  0  0  0  0  0  0  0
   17.4757   37.3987   17.6414 C   0  0  0  0  0  0  0  0  0  0  0  0
   19.9089   31.0911   14.2890 C   0  0  0  0  0  0  0  0  0  0  0  0
   20.5424   32.4328   13.9013 C   0  0  0  0  0  0  0  0  0  0  0  0
   21.6319   32.8216   14.9053 C   0  0  0  0  0  0  0  0  0  0  0  0
   22.3441   34.1590   14.6765 C   0  0  0  0  0  0  0  0  0  0  0  0
   23.7023   34.0000   14.0244 C   0  0  0  0  0  0  0  0  0  0  0  0
   19.0238   28.1588   12.4320 C   0  0  0  0  0  0  0  0  0  0  0  0
   20.4460   27.8686   12.5306 N   0  0  0  0  0  0  0  0  0  0  0  0
   21.4387   28.4897   11.8841 C   0  0  0  0  0  0  0  0  0  0  0  0
   21.3249   29.4434   11.1388 O   0  0  0  0  0  0  0  0  0  0  0  0
   20.7052   27.1378   13.1373 H   0  0  0  0  0  0  0  0  0  0  0  0
   22.7971   27.8876   12.1345 C   0  0  0  0  0  0  0  0  0  0  0  0
   23.3408   27.2376   10.9537 N   0  0  0  0  0  0  0  0  0  0  0  0
   23.2203   25.9261   10.7627 C   0  0  0  0  0  0  0  0  0  0  0  0
   22.6218   25.1801   11.5395 O   0  0  0  0  0  0  0  0  0  0  0  0
   23.8919   25.4343    9.5154 C   0  0  0  0  0  0  0  0  0  0  0  0
   23.8093   27.7805   10.2791 H   0  0  0  0  0  0  0  0  0  0  0  0
   23.8006   28.8714   12.7006 C   0  0  0  0  0  0  0  0  0  0  0  0
   25.1823   28.2223   12.8637 C   0  0  0  0  0  0  0  0  0  0  0  0
   23.2816   29.4116   14.0242 C   0  0  0  0  0  0  0  0  0  0  0  0
   18.2829   26.8715   12.0620 C   0  0  0  0  0  0  0  0  0  0  0  0
   18.4741   26.5461   10.5996 C   0  0  0  0  0  0  0  0  0  0  0  0
   17.7112   27.2006    9.6378 C   0  0  0  0  0  0  0  0  0  0  0  0
   17.8627   26.8915    8.2891 C   0  0  0  0  0  0  0  0  0  0  0  0
   18.7918   25.9406    7.8984 C   0  0  0  0  0  0  0  0  0  0  0  0
   19.5634   25.2864    8.8508 C   0  0  0  0  0  0  0  0  0  0  0  0
   19.4030   25.5931   10.1996 C   0  0  0  0  0  0  0  0  0  0  0  0
  6  7  2  0  0  0
  7  8  2  0  0  0
  7  5  1  0  0  0
  7  9  1  0  0  0
  9 12  2  0  0  0
  9 10  1  0  0  0
 10 11  2  0  0  0
 11 14  1  0  0  0
 12 13  1  0  0  0
 13 16  1  0  0  0
 13 14  2  0  0  0
 14 15  1  0  0  0
 15 17  2  0  0  0
 16 17  1  0  0  0
  5  4  1  0  0  0
  5 18  1  0  0  0
 18 19  1  0  0  0
 19 20  1  0  0  0
 20 21  1  0  0  0
 21 22  1  0  0  0
  4  1  1  0  0  0
  1 23  1  0  0  0
  1  2  1  0  0  0
 23 24  1  0  0  0
 23 37  1  0  0  0
 24 25  1  0  0  0
 25 26  2  0  0  0
 25 28  1  0  0  0
 28 29  1  0  0  0
 28 34  1  0  0  0
 34 35  1  0  0  0
 34 36  1  0  0  0
 29 30  1  0  0  0
 30 32  1  0  0  0
 30 31  2  0  0  0
 37 38  1  0  0  0
 38 43  2  0  0  0
 38 39  1  0  0  0
 39 40  2  0  0  0
 40 41  1  0  0  0
 41 42  2  0  0  0
 42 43  1  0  0  0
  2  3  1  0  0  0
 24 27  1  0  0  0
 29 33  1  0  0  0
M  END
> <minimizedAffinity>
-8.60073

$$$$
2QI5_MZ7_B_200


 43 45  0  0  0  0  0  0  0  0999 V2000
   20.5150   29.2142   14.3622 C   0  0  0  0  0  0  0  0  0  0  0  0
   21.0530   28.2848   15.3099 O   0  0  0  0  0  0  0  0  0  0  0  0
   21.7183   27.7286   14.8754 H   0  0  0  0  0  0  0  0  0  0  0  0
   19.8442   28.4043   13.2475 C   0  0  0  0  0  0  0  0  0  0  0  0
   18.5938   29.0806   12.8358 N   0  0  0  0  0  0  0  0  0  0  0  0
   17.0215   27.2449   13.3047 O   0  0  0  0  0  0  0  0  0  0  0  0
   17.4931   28.0619   12.2347 S   0  0  0  0  0  0  0  0  0  0  0  0
   16.4269   28.8808   11.7176 O   0  0  0  0  0  0  0  0  0  0  0  0
   18.1078   27.1690   11.0332 C   0  0  0  0  0  0  0  0  0  0  0  0
   18.8748   26.0588   11.3759 C   0  0  0  0  0  0  0  0  0  0  0  0
   19.4163   25.2312   10.3954 C   0  0  0  0  0  0  0  0  0  0  0  0
   17.9006   27.4269    9.6687 C   0  0  0  0  0  0  0  0  0  0  0  0
   18.4608   26.6046    8.6749 C   0  0  0  0  0  0  0  0  0  0  0  0
   19.2148   25.4957    9.0489 C   0  0  0  0  0  0  0  0  0  0  0  0
   19.6251   24.8170    7.9471 N   0  0  0  0  0  0  0  0  0  0  0  0
   18.2736   26.8516    6.9987 S   0  0  0  0  0  0  0  0  0  0  0  0
   19.2263   25.4114    6.7946 C   0  0  0  0  0  0  0  0  0  0  0  0
   18.0422   29.9752   13.8641 C   0  0  0  0  0  0  0  0  0  0  0  0
   18.0105   31.4139   13.3340 C   0  0  0  0  0  0  0  0  0  0  0  0
   17.3779   32.3522   14.3662 C   0  0  0  0  0  0  0  0  0  0  0  0
   16.7703   31.7049   15.6152 C   0  0  0  0  0  0  0  0  0  0  0  0
   15.5532   32.4455   16.1306 C   0  0  0  0  0  0  0  0  0  0  0  0
   21.5987   30.1837   13.8601 C   0  0  0  0  0  0  0  0  0  0  0  0
   21.4709   31.4907   14.4864 N   0  0  0  0  0  0  0  0  0  0  0  0
   20.9167   31.7612   15.6735 C   0  0  0  0  0  0  0  0  0  0  0  0
   20.4696   30.9488   16.4596 O   0  0  0  0  0  0  0  0  0  0  0  0
   21.8301   32.2570   13.9834 H   0  0  0  0  0  0  0  0  0  0  0  0
   20.8573   33.2321   15.9951 C   0  0  0  0  0  0  0  0  0  0  0  0
   19.9212   33.5270   17.0670 N   0  0  0  0  0  0  0  0  0  0  0  0
   18.9362   34.4078   16.9090 C   0  0  0  0  0  0  0  0  0  0  0  0
   18.7245   35.0057   15.8526 O   0  0  0  0  0  0  0  0  0  0  0  0
   18.1098   34.6159   18.1428 C   0  0  0  0  0  0  0  0  0  0  0  0
   20.0181   33.0642   17.9305 H   0  0  0  0  0  0  0  0  0  0  0  0
   22.2111   33.8407   16.2988 C   0  0  0  0  0  0  0  0  0  0  0  0
   22.3336   34.2073   17.7845 C   0  0  0  0  0  0  0  0  0  0  0  0
   22.4265   35.0545   15.4081 C   0  0  0  0  0  0  0  0  0  0  0  0
   23.0224   29.6677   14.0835 C   0  0  0  0  0  0  0  0  0  0  0  0
   23.5497   28.9972   12.8372 C   0  0  0  0  0  0  0  0  0  0  0  0
   22.8754   29.1486   11.6298 C   0  0  0  0  0  0  0  0  0  0  0  0
   23.3395   28.5159   10.4802 C   0  0  0  0  0  0  0  0  0  0  0  0
   24.4906   27.7461   10.5321 C   0  0  0  0  0  0  0  0  0  0  0  0
   25.1750   27.5945   11.7316 C   0  0  0  0  0  0  0  0  0  0  0  0
   24.7028   28.2228   12.8810 C   0  0  0  0  0  0  0  0  0  0  0  0
  6  7  2  0  0  0
  7  8  2  0  0  0
  7  5  1  0  0  0
  7  9  1  0  0  0
  9 12  2  0  0  0
  9 10  1  0  0  0
 10 11  2  0  0  0
 11 14  1  0  0  0
 12 13  1  0  0  0
 13 16  1  0  0  0
 13 14  2  0  0  0
 14 15  1  0  0  0
 15 17  2  0  0  0
 16 17  1  0  0  0
  5  4  1  0  0  0
  5 18  1  0  0  0
 18 19  1  0  0  0
 19 20  1  0  0  0
 20 21  1  0  0  0
 21 22  1  0  0  0
  4  1  1  0  0  0
  1 23  1  0  0  0
  1  2  1  0  0  0
 23 24  1  0  0  0
 23 37  1  0  0  0
 24 25  1  0  0  0
 25 26  2  0  0  0
 25 28  1  0  0  0
 28 29  1  0  0  0
 28 34  1  0  0  0
 34 35  1  0  0  0
 34 36  1  0  0  0
 29 30  1  0  0  0
 30 32  1  0  0  0
 30 31  2  0  0  0
 37 38  1  0  0  0
 38 43  2  0  0  0
 38 39  1  0  0  0
 39 40  2  0  0  0
 40 41  1  0  0  0
 41 42  2  0  0  0
 42 43  1  0  0  0
  2  3  1  0  0  0
 24 27  1  0  0  0
 29 33  1  0  0  0
M  END
> <minimizedAffinity>
-8.52678

$$$$
2QI5_MZ7_B_200


 43 45  0  0  0  0  0  0  0  0999 V2000
   19.8638   32.4798   15.6990 C   0  0  0  0  0  0  0  0  0  0  0  0
   20.7633   31.9803   16.6954 O   0  0  0  0  0  0  0  0  0  0  0  0
   21.4645   32.6316   16.8535 H   0  0  0  0  0  0  0  0  0  0  0  0
   20.6656   32.6799   14.4085 C   0  0  0  0  0  0  0  0  0  0  0  0
   20.8341   31.3755   13.7298 N   0  0  0  0  0  0  0  0  0  0  0  0
   18.7169   32.0662   12.6798 O   0  0  0  0  0  0  0  0  0  0  0  0
   19.8099   31.1678   12.4975 S   0  0  0  0  0  0  0  0  0  0  0  0
   20.5435   31.5018   11.3038 O   0  0  0  0  0  0  0  0  0  0  0  0
   19.3061   29.6331   12.3996 C   0  0  0  0  0  0  0  0  0  0  0  0
   18.0736   29.3168   12.9646 C   0  0  0  0  0  0  0  0  0  0  0  0
   17.5656   28.0218   12.8981 C   0  0  0  0  0  0  0  0  0  0  0  0
   20.0192   28.6044   11.7636 C   0  0  0  0  0  0  0  0  0  0  0  0
   19.5187   27.2913   11.7102 C   0  0  0  0  0  0  0  0  0  0  0  0
   18.2784   27.0080   12.2754 C   0  0  0  0  0  0  0  0  0  0  0  0
   17.9635   25.7021   12.0796 N   0  0  0  0  0  0  0  0  0  0  0  0
   20.3224   25.9809   10.9736 S   0  0  0  0  0  0  0  0  0  0  0  0
   18.9418   25.0258   11.4267 C   0  0  0  0  0  0  0  0  0  0  0  0
   22.2276   31.0742   13.3708 C   0  0  0  0  0  0  0  0  0  0  0  0
   22.6087   29.6860   13.8996 C   0  0  0  0  0  0  0  0  0  0  0  0
   23.8156   29.1334   13.1354 C   0  0  0  0  0  0  0  0  0  0  0  0
   23.5913   27.8681   12.3008 C   0  0  0  0  0  0  0  0  0  0  0  0
   23.6674   28.1238   10.8095 C   0  0  0  0  0  0  0  0  0  0  0  0
   19.1451   33.7492   16.1874 C   0  0  0  0  0  0  0  0  0  0  0  0
   20.0666   34.8697   16.2978 N   0  0  0  0  0  0  0  0  0  0  0  0
   20.0574   35.8275   17.2316 C   0  0  0  0  0  0  0  0  0  0  0  0
   19.3044   35.8958   18.1835 O   0  0  0  0  0  0  0  0  0  0  0  0
   20.7713   34.9293   15.6130 H   0  0  0  0  0  0  0  0  0  0  0  0
   21.0923   36.9004   17.0115 C   0  0  0  0  0  0  0  0  0  0  0  0
   20.4956   38.1995   16.7493 N   0  0  0  0  0  0  0  0  0  0  0  0
   20.8293   38.9160   15.6785 C   0  0  0  0  0  0  0  0  0  0  0  0
   21.6291   38.5277   14.8255 O   0  0  0  0  0  0  0  0  0  0  0  0
   20.1484   40.2502   15.6099 C   0  0  0  0  0  0  0  0  0  0  0  0
   19.8289   38.5579   17.3787 H   0  0  0  0  0  0  0  0  0  0  0  0
   22.1044   37.0050   18.1340 C   0  0  0  0  0  0  0  0  0  0  0  0
   23.3908   37.6947   17.6583 C   0  0  0  0  0  0  0  0  0  0  0  0
   22.3900   35.6156   18.6828 C   0  0  0  0  0  0  0  0  0  0  0  0
   17.9726   34.1620   15.2940 C   0  0  0  0  0  0  0  0  0  0  0  0
   16.7596   34.5018   16.1271 C   0  0  0  0  0  0  0  0  0  0  0  0
   16.1052   33.5021   16.8396 C   0  0  0  0  0  0  0  0  0  0  0  0
   14.9724   33.8000   17.5916 C   0  0  0  0  0  0  0  0  0  0  0  0
   14.5034   35.1027   17.6478 C   0  0  0  0  0  0  0  0  0  0  0  0
   15.1540   36.1094   16.9454 C   0  0  0  0  0  0  0  0  0  0  0  0
   16.2823   35.8055   16.1879 C   0  0  0  0  0  0  0  0  0  0  0  0
  6  7  2  0  0  0
  7  8  2  0  0  0
  7  5  1  0  0  0
  7  9  1  0  0  0
  9 12  2  0  0  0
  9 10  1  0  0  0
 10 11  2  0  0  0
 11 14  1  0  0  0
 12 13  1  0  0  0
 13 16  1  0  0  0
 13 14  2  0  0  0
 14 15  1  0  0  0
 15 17  2  0  0  0
 16 17  1  0  0  0
  5  4  1  0  0  0
  5 18  1  0  0  0
 18 19  1  0  0  0
 19 20  1  0  0  0
 20 21  1  0  0  0
 21 22  1  0  0  0
  4  1  1  0  0  0
  1 23  1  0  0  0
  1  2  1  0  0  0
 23 24  1  0  0  0
 23 37  1  0  0  0
 24 25  1  0  0  0
 25 26  2  0  0  0
 25 28  1  0  0  0
 28 29  1  0  0  0
 28 34  1  0  0  0
 34 35  1  0  0  0
 34 36  1  0  0  0
 29 30  1  0  0  0
 30 32  1  0  0  0
 30 31  2  0  0  0
 37 38  1  0  0  0
 38 43  2  0  0  0
 38 39  1  0  0  0
 39 40  2  0  0  0
 40 41  1  0  0  0
 41 42  2  0  0  0
 42 43  1  0  0  0
  2  3  1  0  0  0
 24 27  1  0  0  0
 29 33  1  0  0  0
M  END
> <minimizedAffinity>
-8.34829

$$$$
