3D51_GOX_A_1048


 19 19  0  0  0  0  0  0  0  0999 V2000
   30.1160   65.9167    9.8621 C   0  0  0  0  0  0  0  0  0  0  0  0
   29.7486   65.8755   11.1224 N   0  0  0  0  0  0  0  0  0  0  0  0
   31.4086   65.3182    9.3666 C   0  0  0  0  0  0  0  0  0  0  0  0
   29.2905   66.4874    8.9286 N   0  0  0  0  0  0  0  0  0  0  0  0
   28.5481   66.4564   11.4247 O   0  0  0  0  0  0  0  0  0  0  0  0
   32.3326   65.0166   10.4003 O   0  0  0  0  0  0  0  0  0  0  0  0
   32.0210   66.2859    8.3637 C   0  0  0  0  0  0  0  0  0  0  0  0
   33.2698   65.7019    7.9755 O   0  0  0  0  0  0  0  0  0  0  0  0
   31.1008   66.3196    7.1435 C   0  0  0  0  0  0  0  0  0  0  0  0
   31.5437   67.2688    6.1929 O   0  0  0  0  0  0  0  0  0  0  0  0
   29.6298   66.6724    7.4916 C   0  0  0  0  0  0  0  0  0  0  0  0
   28.4069   66.7983    9.2314 H   0  0  0  0  0  0  0  0  0  0  0  0
   28.2368   66.4560   12.3085 H   0  0  0  0  0  0  0  0  0  0  0  0
   32.5814   65.8337   10.8601 H   0  0  0  0  0  0  0  0  0  0  0  0
   33.1146   64.8119    7.6223 H   0  0  0  0  0  0  0  0  0  0  0  0
   31.4997   68.1577    6.5788 H   0  0  0  0  0  0  0  0  0  0  0  0
   28.6679   65.9264    6.5768 C   0  0  0  0  0  0  0  0  0  0  0  0
   27.5865   65.4448    7.4024 O   0  0  0  0  0  0  0  0  0  0  0  0
   27.9415   64.8655    8.0947 H   0  0  0  0  0  0  0  0  0  0  0  0
  1  2  2  0  0  0
  1  3  1  0  0  0
  1  4  1  0  0  0
  2  5  1  0  0  0
  3  6  1  0  0  0
  3  7  1  0  0  0
  4 11  1  0  0  0
  7  8  1  0  0  0
  7  9  1  0  0  0
  9 10  1  0  0  0
  9 11  1  0  0  0
 11 17  1  0  0  0
 17 18  1  0  0  0
  4 12  1  0  0  0
  5 13  1  0  0  0
  6 14  1  0  0  0
  8 15  1  0  0  0
 10 16  1  0  0  0
 18 19  1  0  0  0
M  END
> <minimizedAffinity>
-7.96998

$$$$
3D51_GOX_A_1048


 19 19  0  0  0  0  0  0  0  0999 V2000
   29.5182   66.2870    7.6451 C   0  0  0  0  0  0  0  0  0  0  0  0
   28.6420   66.4429    6.6792 N   0  0  0  0  0  0  0  0  0  0  0  0
   30.9675   66.6805    7.5065 C   0  0  0  0  0  0  0  0  0  0  0  0
   29.1179   65.7838    8.8555 N   0  0  0  0  0  0  0  0  0  0  0  0
   27.3622   66.0444    6.9496 O   0  0  0  0  0  0  0  0  0  0  0  0
   31.3724   66.9096    6.1660 O   0  0  0  0  0  0  0  0  0  0  0  0
   31.8145   65.5886    8.1446 C   0  0  0  0  0  0  0  0  0  0  0  0
   33.1756   65.9792    7.9297 O   0  0  0  0  0  0  0  0  0  0  0  0
   31.5338   65.6143    9.6471 C   0  0  0  0  0  0  0  0  0  0  0  0
   32.2102   64.5660   10.3136 O   0  0  0  0  0  0  0  0  0  0  0  0
   30.0268   65.4801    9.9939 C   0  0  0  0  0  0  0  0  0  0  0  0
   28.1570   65.6101    8.9811 H   0  0  0  0  0  0  0  0  0  0  0  0
   26.6961   66.1327    6.2965 H   0  0  0  0  0  0  0  0  0  0  0  0
   31.2728   66.0918    5.6539 H   0  0  0  0  0  0  0  0  0  0  0  0
   33.3214   66.8623    8.3037 H   0  0  0  0  0  0  0  0  0  0  0  0
   31.8737   63.7124    9.9988 H   0  0  0  0  0  0  0  0  0  0  0  0
   29.6856   66.2991   11.2315 C   0  0  0  0  0  0  0  0  0  0  0  0
   29.2963   65.3665   12.2618 O   0  0  0  0  0  0  0  0  0  0  0  0
   28.5357   64.8472   11.9573 H   0  0  0  0  0  0  0  0  0  0  0  0
  1  2  2  0  0  0
  1  3  1  0  0  0
  1  4  1  0  0  0
  2  5  1  0  0  0
  3  6  1  0  0  0
  3  7  1  0  0  0
  4 11  1  0  0  0
  7  8  1  0  0  0
  7  9  1  0  0  0
  9 10  1  0  0  0
  9 11  1  0  0  0
 11 17  1  0  0  0
 17 18  1  0  0  0
  4 12  1  0  0  0
  5 13  1  0  0  0
  6 14  1  0  0  0
  8 15  1  0  0  0
 10 16  1  0  0  0
 18 19  1  0  0  0
M  END
> <minimizedAffinity>
-7.20139

$$$$
3D51_GOX_A_1048


 19 19  0  0  0  0  0  0  0  0999 V2000
   28.6528   65.9979    9.9519 C   0  0  0  0  0  0  0  0  0  0  0  0
   27.6267   66.1991   10.7467 N   0  0  0  0  0  0  0  0  0  0  0  0
   29.8229   65.1252   10.3312 C   0  0  0  0  0  0  0  0  0  0  0  0
   28.6695   66.5611    8.7025 N   0  0  0  0  0  0  0  0  0  0  0  0
   26.6368   67.0116   10.2672 O   0  0  0  0  0  0  0  0  0  0  0  0
   29.8850   64.8220   11.7160 O   0  0  0  0  0  0  0  0  0  0  0  0
   31.0969   65.8227    9.8760 C   0  0  0  0  0  0  0  0  0  0  0  0
   32.1738   64.9868   10.3152 O   0  0  0  0  0  0  0  0  0  0  0  0
   31.0865   65.8375    8.3474 C   0  0  0  0  0  0  0  0  0  0  0  0
   32.1932   66.5531    7.8336 O   0  0  0  0  0  0  0  0  0  0  0  0
   29.8073   66.4797    7.7469 C   0  0  0  0  0  0  0  0  0  0  0  0
   27.8686   67.0568    8.4157 H   0  0  0  0  0  0  0  0  0  0  0  0
   25.8814   67.1896   10.7921 H   0  0  0  0  0  0  0  0  0  0  0  0
   29.9950   65.6422   12.2219 H   0  0  0  0  0  0  0  0  0  0  0  0
   32.0597   64.0948    9.9517 H   0  0  0  0  0  0  0  0  0  0  0  0
   32.1316   67.4823    8.1049 H   0  0  0  0  0  0  0  0  0  0  0  0
   29.4156   65.7845    6.4500 C   0  0  0  0  0  0  0  0  0  0  0  0
   29.9951   64.4632    6.4865 O   0  0  0  0  0  0  0  0  0  0  0  0
   30.9584   64.5350    6.5756 H   0  0  0  0  0  0  0  0  0  0  0  0
  1  2  2  0  0  0
  1  3  1  0  0  0
  1  4  1  0  0  0
  2  5  1  0  0  0
  3  6  1  0  0  0
  3  7  1  0  0  0
  4 11  1  0  0  0
  7  8  1  0  0  0
  7  9  1  0  0  0
  9 10  1  0  0  0
  9 11  1  0  0  0
 11 17  1  0  0  0
 17 18  1  0  0  0
  4 12  1  0  0  0
  5 13  1  0  0  0
  6 14  1  0  0  0
  8 15  1  0  0  0
 10 16  1  0  0  0
 18 19  1  0  0  0
M  END
> <minimizedAffinity>
-7.02957

$$$$
3D51_GOX_A_1048


 19 19  0  0  0  0  0  0  0  0999 V2000
   29.0899   65.4290   10.8570 C   0  0  0  0  0  0  0  0  0  0  0  0
   28.5741   65.1786   12.0387 N   0  0  0  0  0  0  0  0  0  0  0  0
   28.3872   66.2670    9.8184 C   0  0  0  0  0  0  0  0  0  0  0  0
   30.3360   64.9538   10.5412 N   0  0  0  0  0  0  0  0  0  0  0  0
   29.3275   64.4067   12.8793 O   0  0  0  0  0  0  0  0  0  0  0  0
   27.0091   66.4730   10.0864 O   0  0  0  0  0  0  0  0  0  0  0  0
   28.5772   65.5960    8.4654 C   0  0  0  0  0  0  0  0  0  0  0  0
   27.8408   66.3935    7.5311 O   0  0  0  0  0  0  0  0  0  0  0  0
   30.0627   65.6873    8.1166 C   0  0  0  0  0  0  0  0  0  0  0  0
   30.3501   65.0032    6.9123 O   0  0  0  0  0  0  0  0  0  0  0  0
   30.9896   65.0953    9.2119 C   0  0  0  0  0  0  0  0  0  0  0  0
   30.8363   64.4836   11.2468 H   0  0  0  0  0  0  0  0  0  0  0  0
   29.0082   64.1968   13.7348 H   0  0  0  0  0  0  0  0  0  0  0  0
   26.5491   65.6190   10.0892 H   0  0  0  0  0  0  0  0  0  0  0  0
   28.1588   67.3093    7.5666 H   0  0  0  0  0  0  0  0  0  0  0  0
   30.1653   64.0578    7.0256 H   0  0  0  0  0  0  0  0  0  0  0  0
   32.2913   65.8809    9.2959 C   0  0  0  0  0  0  0  0  0  0  0  0
   32.9818   65.6906    8.0429 O   0  0  0  0  0  0  0  0  0  0  0  0
   33.1449   64.7445    7.9040 H   0  0  0  0  0  0  0  0  0  0  0  0
  1  2  2  0  0  0
  1  3  1  0  0  0
  1  4  1  0  0  0
  2  5  1  0  0  0
  3  6  1  0  0  0
  3  7  1  0  0  0
  4 11  1  0  0  0
  7  8  1  0  0  0
  7  9  1  0  0  0
  9 10  1  0  0  0
  9 11  1  0  0  0
 11 17  1  0  0  0
 17 18  1  0  0  0
  4 12  1  0  0  0
  5 13  1  0  0  0
  6 14  1  0  0  0
  8 15  1  0  0  0
 10 16  1  0  0  0
 18 19  1  0  0  0
M  END
> <minimizedAffinity>
-6.97087

$$$$
3D51_GOX_A_1048


 19 19  0  0  0  0  0  0  0  0999 V2000
   26.4249   62.8032   10.8935 C   0  0  0  0  0  0  0  0  0  0  0  0
   26.2599   62.3220    9.6825 N   0  0  0  0  0  0  0  0  0  0  0  0
   27.6381   63.6026   11.2980 C   0  0  0  0  0  0  0  0  0  0  0  0
   25.4506   62.6197   11.8398 N   0  0  0  0  0  0  0  0  0  0  0  0
   25.1080   61.6197    9.4595 O   0  0  0  0  0  0  0  0  0  0  0  0
   28.7191   63.5037   10.3841 O   0  0  0  0  0  0  0  0  0  0  0  0
   28.0634   63.1427   12.6853 C   0  0  0  0  0  0  0  0  0  0  0  0
   29.2497   63.8842   12.9921 O   0  0  0  0  0  0  0  0  0  0  0  0
   26.9634   63.5615   13.6608 C   0  0  0  0  0  0  0  0  0  0  0  0
   27.2299   63.0906   14.9677 O   0  0  0  0  0  0  0  0  0  0  0  0
   25.5569   63.0387   13.2637 C   0  0  0  0  0  0  0  0  0  0  0  0
   24.6180   62.1775   11.5562 H   0  0  0  0  0  0  0  0  0  0  0  0
   24.9386   61.2540    8.6137 H   0  0  0  0  0  0  0  0  0  0  0  0
   29.0172   62.5820   10.3345 H   0  0  0  0  0  0  0  0  0  0  0  0
   29.0624   64.8339   12.9304 H   0  0  0  0  0  0  0  0  0  0  0  0
   27.2257   62.1206   14.9690 H   0  0  0  0  0  0  0  0  0  0  0  0
   24.4819   64.0478   13.6441 C   0  0  0  0  0  0  0  0  0  0  0  0
   24.2414   63.8965   15.0591 O   0  0  0  0  0  0  0  0  0  0  0  0
   23.9580   62.9873   15.2435 H   0  0  0  0  0  0  0  0  0  0  0  0
  1  2  2  0  0  0
  1  3  1  0  0  0
  1  4  1  0  0  0
  2  5  1  0  0  0
  3  6  1  0  0  0
  3  7  1  0  0  0
  4 11  1  0  0  0
  7  8  1  0  0  0
  7  9  1  0  0  0
  9 10  1  0  0  0
  9 11  1  0  0  0
 11 17  1  0  0  0
 17 18  1  0  0  0
  4 12  1  0  0  0
  5 13  1  0  0  0
  6 14  1  0  0  0
  8 15  1  0  0  0
 10 16  1  0  0  0
 18 19  1  0  0  0
M  END
> <minimizedAffinity>
-6.43670

$$$$
3D51_GOX_A_1048


 19 19  0  0  0  0  0  0  0  0999 V2000
   30.9399   65.2192    9.2864 C   0  0  0  0  0  0  0  0  0  0  0  0
   32.2514   65.1706    9.3375 N   0  0  0  0  0  0  0  0  0  0  0  0
   30.1783   65.4295    8.0017 C   0  0  0  0  0  0  0  0  0  0  0  0
   30.2047   65.0347   10.4283 N   0  0  0  0  0  0  0  0  0  0  0  0
   32.8043   64.9699   10.5720 O   0  0  0  0  0  0  0  0  0  0  0  0
   30.9816   65.9010    6.9313 O   0  0  0  0  0  0  0  0  0  0  0  0
   29.0375   66.3968    8.2842 C   0  0  0  0  0  0  0  0  0  0  0  0
   28.3899   66.6099    7.0246 O   0  0  0  0  0  0  0  0  0  0  0  0
   28.0588   65.6859    9.2188 C   0  0  0  0  0  0  0  0  0  0  0  0
   27.0079   66.5468    9.6127 O   0  0  0  0  0  0  0  0  0  0  0  0
   28.7239   65.1522   10.5159 C   0  0  0  0  0  0  0  0  0  0  0  0
   30.6930   64.8074   11.2524 H   0  0  0  0  0  0  0  0  0  0  0  0
   33.7355   64.9267   10.6668 H   0  0  0  0  0  0  0  0  0  0  0  0
   31.3511   66.7678    7.1618 H   0  0  0  0  0  0  0  0  0  0  0  0
   28.1047   65.7577    6.6594 H   0  0  0  0  0  0  0  0  0  0  0  0
   27.3704   67.2858   10.1260 H   0  0  0  0  0  0  0  0  0  0  0  0
   28.0723   63.8483   10.9561 C   0  0  0  0  0  0  0  0  0  0  0  0
   26.9582   63.6117   10.0696 O   0  0  0  0  0  0  0  0  0  0  0  0
   26.3384   64.3559   10.1236 H   0  0  0  0  0  0  0  0  0  0  0  0
  1  2  2  0  0  0
  1  3  1  0  0  0
  1  4  1  0  0  0
  2  5  1  0  0  0
  3  6  1  0  0  0
  3  7  1  0  0  0
  4 11  1  0  0  0
  7  8  1  0  0  0
  7  9  1  0  0  0
  9 10  1  0  0  0
  9 11  1  0  0  0
 11 17  1  0  0  0
 17 18  1  0  0  0
  4 12  1  0  0  0
  5 13  1  0  0  0
  6 14  1  0  0  0
  8 15  1  0  0  0
 10 16  1  0  0  0
 18 19  1  0  0  0
M  END
> <minimizedAffinity>
-6.35141

$$$$
3D51_GOX_A_1048


 19 19  0  0  0  0  0  0  0  0999 V2000
   26.3567   63.9763    9.6662 C   0  0  0  0  0  0  0  0  0  0  0  0
   25.4262   63.4492    8.9035 N   0  0  0  0  0  0  0  0  0  0  0  0
   26.6743   65.4506    9.6690 C   0  0  0  0  0  0  0  0  0  0  0  0
   27.0582   63.1819   10.5353 N   0  0  0  0  0  0  0  0  0  0  0  0
   25.2464   62.0979    9.0104 O   0  0  0  0  0  0  0  0  0  0  0  0
   26.1357   66.1538    8.5605 O   0  0  0  0  0  0  0  0  0  0  0  0
   28.1876   65.6057    9.7201 C   0  0  0  0  0  0  0  0  0  0  0  0
   28.4346   67.0151    9.6565 O   0  0  0  0  0  0  0  0  0  0  0  0
   28.6520   65.0928   11.0832 C   0  0  0  0  0  0  0  0  0  0  0  0
   30.0626   65.1112   11.1851 O   0  0  0  0  0  0  0  0  0  0  0  0
   28.1901   63.6418   11.3847 C   0  0  0  0  0  0  0  0  0  0  0  0
   26.7933   62.2361   10.6027 H   0  0  0  0  0  0  0  0  0  0  0  0
   24.5961   61.6691    8.4896 H   0  0  0  0  0  0  0  0  0  0  0  0
   26.5176   65.8051    7.7398 H   0  0  0  0  0  0  0  0  0  0  0  0
   27.9668   67.4584   10.3814 H   0  0  0  0  0  0  0  0  0  0  0  0
   30.4420   64.5017   10.5329 H   0  0  0  0  0  0  0  0  0  0  0  0
   27.8976   63.4689   12.8690 C   0  0  0  0  0  0  0  0  0  0  0  0
   29.1694   63.4468   13.5510 O   0  0  0  0  0  0  0  0  0  0  0  0
   29.7083   62.7175   13.2066 H   0  0  0  0  0  0  0  0  0  0  0  0
  1  2  2  0  0  0
  1  3  1  0  0  0
  1  4  1  0  0  0
  2  5  1  0  0  0
  3  6  1  0  0  0
  3  7  1  0  0  0
  4 11  1  0  0  0
  7  8  1  0  0  0
  7  9  1  0  0  0
  9 10  1  0  0  0
  9 11  1  0  0  0
 11 17  1  0  0  0
 17 18  1  0  0  0
  4 12  1  0  0  0
  5 13  1  0  0  0
  6 14  1  0  0  0
  8 15  1  0  0  0
 10 16  1  0  0  0
 18 19  1  0  0  0
M  END
> <minimizedAffinity>
-6.25717

$$$$
3D51_GOX_A_1048


 19 19  0  0  0  0  0  0  0  0999 V2000
   28.4091   64.2764   11.7305 C   0  0  0  0  0  0  0  0  0  0  0  0
   29.0879   63.8994   12.7898 N   0  0  0  0  0  0  0  0  0  0  0  0
   29.0610   64.8881   10.5158 C   0  0  0  0  0  0  0  0  0  0  0  0
   27.0533   64.0814   11.6833 N   0  0  0  0  0  0  0  0  0  0  0  0
   28.3631   63.3569   13.8146 O   0  0  0  0  0  0  0  0  0  0  0  0
   30.3913   65.3276   10.7410 O   0  0  0  0  0  0  0  0  0  0  0  0
   28.1868   66.0410   10.0432 C   0  0  0  0  0  0  0  0  0  0  0  0
   28.8804   66.6230    8.9334 O   0  0  0  0  0  0  0  0  0  0  0  0
   26.8763   65.4399    9.5351 C   0  0  0  0  0  0  0  0  0  0  0  0
   25.9597   66.4499    9.1603 O   0  0  0  0  0  0  0  0  0  0  0  0
   26.1647   64.5414   10.5819 C   0  0  0  0  0  0  0  0  0  0  0  0
   26.6359   63.6010   12.4345 H   0  0  0  0  0  0  0  0  0  0  0  0
   28.7963   63.0707   14.5946 H   0  0  0  0  0  0  0  0  0  0  0  0
   30.3919   66.0232   11.4170 H   0  0  0  0  0  0  0  0  0  0  0  0
   29.0385   65.9440    8.2589 H   0  0  0  0  0  0  0  0  0  0  0  0
   25.7217   66.9760    9.9398 H   0  0  0  0  0  0  0  0  0  0  0  0
   25.4538   63.3810    9.8988 C   0  0  0  0  0  0  0  0  0  0  0  0
   25.5668   63.5943    8.4759 O   0  0  0  0  0  0  0  0  0  0  0  0
   25.1639   64.4455    8.2436 H   0  0  0  0  0  0  0  0  0  0  0  0
  1  2  2  0  0  0
  1  3  1  0  0  0
  1  4  1  0  0  0
  2  5  1  0  0  0
  3  6  1  0  0  0
  3  7  1  0  0  0
  4 11  1  0  0  0
  7  8  1  0  0  0
  7  9  1  0  0  0
  9 10  1  0  0  0
  9 11  1  0  0  0
 11 17  1  0  0  0
 17 18  1  0  0  0
  4 12  1  0  0  0
  5 13  1  0  0  0
  6 14  1  0  0  0
  8 15  1  0  0  0
 10 16  1  0  0  0
 18 19  1  0  0  0
M  END
> <minimizedAffinity>
-6.10662

$$$$
3D51_GOX_A_1048


 19 19  0  0  0  0  0  0  0  0999 V2000
   27.1099   65.0330    9.8098 C   0  0  0  0  0  0  0  0  0  0  0  0
   26.6951   65.2045    8.5754 N   0  0  0  0  0  0  0  0  0  0  0  0
   27.8706   66.0893   10.5716 C   0  0  0  0  0  0  0  0  0  0  0  0
   26.8191   63.8690   10.4724 N   0  0  0  0  0  0  0  0  0  0  0  0
   26.0140   64.1607    8.0128 O   0  0  0  0  0  0  0  0  0  0  0  0
   28.3872   67.1255    9.7514 O   0  0  0  0  0  0  0  0  0  0  0  0
   28.9914   65.4011   11.3379 C   0  0  0  0  0  0  0  0  0  0  0  0
   29.7166   66.4508   11.9886 O   0  0  0  0  0  0  0  0  0  0  0  0
   28.3400   64.5254   12.4083 C   0  0  0  0  0  0  0  0  0  0  0  0
   29.3073   63.7711   13.1126 O   0  0  0  0  0  0  0  0  0  0  0  0
   27.3045   63.5211   11.8354 C   0  0  0  0  0  0  0  0  0  0  0  0
   26.2462   63.2140   10.0121 H   0  0  0  0  0  0  0  0  0  0  0  0
   25.6951   64.2286    7.1344 H   0  0  0  0  0  0  0  0  0  0  0  0
   29.0203   66.7518    9.1186 H   0  0  0  0  0  0  0  0  0  0  0  0
   29.1118   66.9632   12.5477 H   0  0  0  0  0  0  0  0  0  0  0  0
   29.7453   63.1570   12.5027 H   0  0  0  0  0  0  0  0  0  0  0  0
   26.1571   63.3154   12.8152 C   0  0  0  0  0  0  0  0  0  0  0  0
   26.6654   62.5082   13.8983 O   0  0  0  0  0  0  0  0  0  0  0  0
   26.9902   61.6641   13.5476 H   0  0  0  0  0  0  0  0  0  0  0  0
  1  2  2  0  0  0
  1  3  1  0  0  0
  1  4  1  0  0  0
  2  5  1  0  0  0
  3  6  1  0  0  0
  3  7  1  0  0  0
  4 11  1  0  0  0
  7  8  1  0  0  0
  7  9  1  0  0  0
  9 10  1  0  0  0
  9 11  1  0  0  0
 11 17  1  0  0  0
 17 18  1  0  0  0
  4 12  1  0  0  0
  5 13  1  0  0  0
  6 14  1  0  0  0
  8 15  1  0  0  0
 10 16  1  0  0  0
 18 19  1  0  0  0
M  END
> <minimizedAffinity>
-6.06469

$$$$
3D51_GOX_A_1048


 19 19  0  0  0  0  0  0  0  0999 V2000
   29.4596   65.0303   10.1546 C   0  0  0  0  0  0  0  0  0  0  0  0
   30.4555   64.6889    9.3692 N   0  0  0  0  0  0  0  0  0  0  0  0
   28.0485   65.2126    9.6545 C   0  0  0  0  0  0  0  0  0  0  0  0
   29.6753   65.1963   11.4979 N   0  0  0  0  0  0  0  0  0  0  0  0
   31.6799   64.5564    9.9633 O   0  0  0  0  0  0  0  0  0  0  0  0
   27.9510   65.3176    8.2428 O   0  0  0  0  0  0  0  0  0  0  0  0
   27.4671   66.4483   10.3268 C   0  0  0  0  0  0  0  0  0  0  0  0
   26.1569   66.6107    9.7716 O   0  0  0  0  0  0  0  0  0  0  0  0
   27.3273   66.1330   11.8161 C   0  0  0  0  0  0  0  0  0  0  0  0
   26.8797   67.2627   12.5400 O   0  0  0  0  0  0  0  0  0  0  0  0
   28.6532   65.6641   12.4730 C   0  0  0  0  0  0  0  0  0  0  0  0
   30.5739   64.9907   11.8436 H   0  0  0  0  0  0  0  0  0  0  0  0
   32.4258   64.3146    9.4504 H   0  0  0  0  0  0  0  0  0  0  0  0
   28.4387   66.1004    7.9424 H   0  0  0  0  0  0  0  0  0  0  0  0
   25.6416   65.8019    9.9170 H   0  0  0  0  0  0  0  0  0  0  0  0
   27.5439   67.9674   12.4827 H   0  0  0  0  0  0  0  0  0  0  0  0
   28.3795   64.6282   13.5549 C   0  0  0  0  0  0  0  0  0  0  0  0
   29.4055   63.6193   13.4439 O   0  0  0  0  0  0  0  0  0  0  0  0
   29.3771   63.2254   12.5580 H   0  0  0  0  0  0  0  0  0  0  0  0
  1  2  2  0  0  0
  1  3  1  0  0  0
  1  4  1  0  0  0
  2  5  1  0  0  0
  3  6  1  0  0  0
  3  7  1  0  0  0
  4 11  1  0  0  0
  7  8  1  0  0  0
  7  9  1  0  0  0
  9 10  1  0  0  0
  9 11  1  0  0  0
 11 17  1  0  0  0
 17 18  1  0  0  0
  4 12  1  0  0  0
  5 13  1  0  0  0
  6 14  1  0  0  0
  8 15  1  0  0  0
 10 16  1  0  0  0
 18 19  1  0  0  0
M  END
> <minimizedAffinity>
-5.95636

$$$$
