1ZS0_EIN_A_994


 29 30  0  0  0  0  0  0  0  0999 V2000
   10.3278   24.1619   14.1072 S   0  0  0  0  0  0  0  0  0  0  0  0
   10.1937   24.0702   15.6205 O   0  0  0  0  0  0  0  0  0  0  0  0
    9.3828   25.2666   13.5533 O   0  0  0  0  0  0  0  0  0  0  0  0
    9.1755   20.0818   12.1300 C   0  0  0  0  0  0  0  0  0  0  0  0
    8.4133   21.3114   11.8644 C   0  0  0  0  0  0  0  0  0  0  0  0
    8.7846   22.5521   12.4750 C   0  0  0  0  0  0  0  0  0  0  0  0
    9.9119   22.6201   13.3736 C   0  0  0  0  0  0  0  0  0  0  0  0
   10.6991   21.4162   13.6669 C   0  0  0  0  0  0  0  0  0  0  0  0
   10.3332   20.1539   13.0533 C   0  0  0  0  0  0  0  0  0  0  0  0
    8.7700   18.7973   11.4870 C   0  0  0  0  0  0  0  0  0  0  0  0
    7.6436   18.7631   10.5276 C   0  0  0  0  0  0  0  0  0  0  0  0
    7.2450   17.5293    9.9134 C   0  0  0  0  0  0  0  0  0  0  0  0
    7.9739   16.2588   10.2427 C   0  0  0  0  0  0  0  0  0  0  0  0
    9.0854   16.2980   11.1835 C   0  0  0  0  0  0  0  0  0  0  0  0
    9.4778   17.5496   11.7979 C   0  0  0  0  0  0  0  0  0  0  0  0
    7.6038   14.9615    9.6421 O   0  0  0  0  0  0  0  0  0  0  0  0
    8.1078   13.8232   10.3638 C   0  0  0  0  0  0  0  0  0  0  0  0
   11.9633   24.5203   13.6832 N   0  0  0  0  0  0  0  0  0  0  0  0
   11.9392   25.4650   13.2994 H   0  0  0  0  0  0  0  0  0  0  0  0
   13.1074   24.5046   14.5896 C   0  0  0  0  0  0  0  0  0  0  0  0
   14.4739   23.6389   13.8025 P   0  0  0  0  0  0  0  0  0  0  0  0
   15.5450   22.9190   14.9009 O   0  0  0  0  0  0  0  0  0  0  0  0
   15.5391   24.5362   12.7958 O   0  0  0  0  0  0  0  0  0  0  0  0
   14.0117   22.3235   12.9344 O   0  0  0  0  0  0  0  0  0  0  0  0
   15.8406   25.3278   13.2684 H   0  0  0  0  0  0  0  0  0  0  0  0
   13.4056   21.7828   13.4647 H   0  0  0  0  0  0  0  0  0  0  0  0
   13.5897   25.9830   14.9242 C   0  0  0  0  0  0  0  0  0  0  0  0
   14.8687   26.0631   15.8016 C   0  0  0  0  0  0  0  0  0  0  0  0
   12.6045   26.6487   15.8662 C   0  0  0  0  0  0  0  0  0  0  0  0
 10 11  1  0  0  0
 10 15  2  0  0  0
 10  4  1  0  0  0
 11 12  2  0  0  0
 12 13  1  0  0  0
 13 14  2  0  0  0
 13 16  1  0  0  0
 14 15  1  0  0  0
 16 17  1  0  0  0
  4  5  1  0  0  0
  4  9  2  0  0  0
  5  6  2  0  0  0
  6  7  1  0  0  0
  7  8  2  0  0  0
  7  1  1  0  0  0
  8  9  1  0  0  0
  1  2  2  0  0  0
  1  3  2  0  0  0
  1 18  1  0  0  0
 18 20  1  0  0  0
 20 27  1  0  0  0
 20 21  1  0  0  0
 27 28  1  0  0  0
 27 29  1  0  0  0
 21 22  2  0  0  0
 21 23  1  0  0  0
 21 24  1  0  0  0
 18 19  1  0  0  0
 23 25  1  0  0  0
 24 26  1  0  0  0
M  END
> <minimizedAffinity>
-10.36044

$$$$
1ZS0_EIN_A_994


 29 30  0  0  0  0  0  0  0  0999 V2000
   10.4063   24.2009   13.9886 S   0  0  0  0  0  0  0  0  0  0  0  0
    9.3855   25.2580   13.5923 O   0  0  0  0  0  0  0  0  0  0  0  0
   11.8207   24.6093   13.4859 O   0  0  0  0  0  0  0  0  0  0  0  0
    9.1903   20.0967   12.1015 C   0  0  0  0  0  0  0  0  0  0  0  0
    8.4472   21.3319   11.8089 C   0  0  0  0  0  0  0  0  0  0  0  0
    8.8379   22.5798   12.3921 C   0  0  0  0  0  0  0  0  0  0  0  0
    9.9663   22.6500   13.2891 C   0  0  0  0  0  0  0  0  0  0  0  0
   10.7348   21.4408   13.6088 C   0  0  0  0  0  0  0  0  0  0  0  0
   10.3493   20.1712   13.0231 C   0  0  0  0  0  0  0  0  0  0  0  0
    8.7647   18.8049   11.4868 C   0  0  0  0  0  0  0  0  0  0  0  0
    7.6062   18.7591   10.5671 C   0  0  0  0  0  0  0  0  0  0  0  0
    7.1885   17.5182    9.9804 C   0  0  0  0  0  0  0  0  0  0  0  0
    7.9299   16.2521   10.2984 C   0  0  0  0  0  0  0  0  0  0  0  0
    9.0730   16.3027   11.2000 C   0  0  0  0  0  0  0  0  0  0  0  0
    9.4845   17.5614   11.7870 C   0  0  0  0  0  0  0  0  0  0  0  0
    7.5413   14.9479    9.7251 O   0  0  0  0  0  0  0  0  0  0  0  0
    8.1175   13.8195   10.4070 C   0  0  0  0  0  0  0  0  0  0  0  0
   10.4234   24.0158   15.7058 N   0  0  0  0  0  0  0  0  0  0  0  0
   10.7430   23.0610   15.8687 H   0  0  0  0  0  0  0  0  0  0  0  0
   11.1751   24.8374   16.6496 C   0  0  0  0  0  0  0  0  0  0  0  0
   10.1780   25.1096   18.1219 P   0  0  0  0  0  0  0  0  0  0  0  0
   10.3303   23.8834   19.2819 O   0  0  0  0  0  0  0  0  0  0  0  0
    8.4728   25.2281   17.9445 O   0  0  0  0  0  0  0  0  0  0  0  0
   10.6451   26.4127   19.0058 O   0  0  0  0  0  0  0  0  0  0  0  0
    8.1486   24.4752   17.4259 H   0  0  0  0  0  0  0  0  0  0  0  0
   11.6064   26.3894   19.1330 H   0  0  0  0  0  0  0  0  0  0  0  0
   12.5187   24.1107   17.0932 C   0  0  0  0  0  0  0  0  0  0  0  0
   13.7777   24.5297   16.2860 C   0  0  0  0  0  0  0  0  0  0  0  0
   12.4630   22.6426   16.7153 C   0  0  0  0  0  0  0  0  0  0  0  0
 10 11  1  0  0  0
 10 15  2  0  0  0
 10  4  1  0  0  0
 11 12  2  0  0  0
 12 13  1  0  0  0
 13 14  2  0  0  0
 13 16  1  0  0  0
 14 15  1  0  0  0
 16 17  1  0  0  0
  4  5  1  0  0  0
  4  9  2  0  0  0
  5  6  2  0  0  0
  6  7  1  0  0  0
  7  8  2  0  0  0
  7  1  1  0  0  0
  8  9  1  0  0  0
  1  2  2  0  0  0
  1  3  2  0  0  0
  1 18  1  0  0  0
 18 20  1  0  0  0
 20 27  1  0  0  0
 20 21  1  0  0  0
 27 28  1  0  0  0
 27 29  1  0  0  0
 21 22  2  0  0  0
 21 23  1  0  0  0
 21 24  1  0  0  0
 18 19  1  0  0  0
 23 25  1  0  0  0
 24 26  1  0  0  0
M  END
> <minimizedAffinity>
-10.31923

$$$$
1ZS0_EIN_A_994


 29 30  0  0  0  0  0  0  0  0999 V2000
   12.0179   25.1647   14.5991 S   0  0  0  0  0  0  0  0  0  0  0  0
   11.2707   26.4474   14.2630 O   0  0  0  0  0  0  0  0  0  0  0  0
   13.4754   25.2388   14.0603 O   0  0  0  0  0  0  0  0  0  0  0  0
    9.8915   21.4704   12.6717 C   0  0  0  0  0  0  0  0  0  0  0  0
   11.3249   21.4517   13.0011 C   0  0  0  0  0  0  0  0  0  0  0  0
   11.9569   22.5906   13.5955 C   0  0  0  0  0  0  0  0  0  0  0  0
   11.2005   23.7873   13.8760 C   0  0  0  0  0  0  0  0  0  0  0  0
    9.7678   23.8486   13.5621 C   0  0  0  0  0  0  0  0  0  0  0  0
    9.1163   22.7007   12.9608 C   0  0  0  0  0  0  0  0  0  0  0  0
    9.2520   20.2744   12.0485 C   0  0  0  0  0  0  0  0  0  0  0  0
    8.0983   20.4328   11.1351 C   0  0  0  0  0  0  0  0  0  0  0  0
    7.4753   19.2854   10.5402 C   0  0  0  0  0  0  0  0  0  0  0  0
    7.9945   17.9097   10.8432 C   0  0  0  0  0  0  0  0  0  0  0  0
    9.1336   17.7588   11.7385 C   0  0  0  0  0  0  0  0  0  0  0  0
    9.7535   18.9248   12.3338 C   0  0  0  0  0  0  0  0  0  0  0  0
    7.3895   16.6949   10.2610 O   0  0  0  0  0  0  0  0  0  0  0  0
    8.0727   15.4793   10.6160 C   0  0  0  0  0  0  0  0  0  0  0  0
   12.0348   24.9260   16.3096 N   0  0  0  0  0  0  0  0  0  0  0  0
   13.0027   25.0811   16.5918 H   0  0  0  0  0  0  0  0  0  0  0  0
   11.2303   25.6550   17.2853 C   0  0  0  0  0  0  0  0  0  0  0  0
    9.9045   24.5904   17.8727 P   0  0  0  0  0  0  0  0  0  0  0  0
   10.2751   23.7746   19.3112 O   0  0  0  0  0  0  0  0  0  0  0  0
    9.3742   23.3089   16.8579 O   0  0  0  0  0  0  0  0  0  0  0  0
    8.5559   25.4063   18.3342 O   0  0  0  0  0  0  0  0  0  0  0  0
   10.1407   22.7953   16.5583 H   0  0  0  0  0  0  0  0  0  0  0  0
    8.8062   26.1439   18.9123 H   0  0  0  0  0  0  0  0  0  0  0  0
   12.1080   26.0850   18.5403 C   0  0  0  0  0  0  0  0  0  0  0  0
   11.4821   27.2065   19.4136 C   0  0  0  0  0  0  0  0  0  0  0  0
   13.3589   26.8062   18.0752 C   0  0  0  0  0  0  0  0  0  0  0  0
 10 11  1  0  0  0
 10 15  2  0  0  0
 10  4  1  0  0  0
 11 12  2  0  0  0
 12 13  1  0  0  0
 13 14  2  0  0  0
 13 16  1  0  0  0
 14 15  1  0  0  0
 16 17  1  0  0  0
  4  5  1  0  0  0
  4  9  2  0  0  0
  5  6  2  0  0  0
  6  7  1  0  0  0
  7  8  2  0  0  0
  7  1  1  0  0  0
  8  9  1  0  0  0
  1  2  2  0  0  0
  1  3  2  0  0  0
  1 18  1  0  0  0
 18 20  1  0  0  0
 20 27  1  0  0  0
 20 21  1  0  0  0
 27 28  1  0  0  0
 27 29  1  0  0  0
 21 22  2  0  0  0
 21 23  1  0  0  0
 21 24  1  0  0  0
 18 19  1  0  0  0
 23 25  1  0  0  0
 24 26  1  0  0  0
M  END
> <minimizedAffinity>
-9.34299

$$$$
1ZS0_EIN_A_994


 29 30  0  0  0  0  0  0  0  0999 V2000
   11.2563   24.3583   14.4874 S   0  0  0  0  0  0  0  0  0  0  0  0
   10.8033   25.6381   13.7995 O   0  0  0  0  0  0  0  0  0  0  0  0
   12.8084   24.2565   14.4578 O   0  0  0  0  0  0  0  0  0  0  0  0
    9.4632   20.6108   12.3368 C   0  0  0  0  0  0  0  0  0  0  0  0
   10.6558   20.5135   13.1922 C   0  0  0  0  0  0  0  0  0  0  0  0
   11.1869   21.6711   13.8464 C   0  0  0  0  0  0  0  0  0  0  0  0
   10.5668   22.9625   13.6721 C   0  0  0  0  0  0  0  0  0  0  0  0
    9.3755   23.1041   12.8261 C   0  0  0  0  0  0  0  0  0  0  0  0
    8.8277   21.9384   12.1592 C   0  0  0  0  0  0  0  0  0  0  0  0
    8.9274   19.3931   11.6601 C   0  0  0  0  0  0  0  0  0  0  0  0
    7.7559   19.4905   10.7610 C   0  0  0  0  0  0  0  0  0  0  0  0
    7.2323   18.3213   10.1148 C   0  0  0  0  0  0  0  0  0  0  0  0
    7.8750   16.9849   10.3489 C   0  0  0  0  0  0  0  0  0  0  0  0
    9.0312   16.8945   11.2304 C   0  0  0  0  0  0  0  0  0  0  0  0
    9.5500   18.0819   11.8778 C   0  0  0  0  0  0  0  0  0  0  0  0
    7.3756   15.7497    9.7121 O   0  0  0  0  0  0  0  0  0  0  0  0
    8.0850   14.5633   10.1116 C   0  0  0  0  0  0  0  0  0  0  0  0
   10.6970   24.3404   16.1215 N   0  0  0  0  0  0  0  0  0  0  0  0
   10.2803   23.4185   16.2515 H   0  0  0  0  0  0  0  0  0  0  0  0
   11.5145   24.5620   17.3103 C   0  0  0  0  0  0  0  0  0  0  0  0
   12.0664   26.2740   17.3381 P   0  0  0  0  0  0  0  0  0  0  0  0
   13.2825   26.5774   18.4787 O   0  0  0  0  0  0  0  0  0  0  0  0
   10.9166   27.4981   17.7028 O   0  0  0  0  0  0  0  0  0  0  0  0
   12.8274   26.7464   15.9614 O   0  0  0  0  0  0  0  0  0  0  0  0
   10.4391   27.2619   18.5133 H   0  0  0  0  0  0  0  0  0  0  0  0
   13.4901   26.0826   15.7142 H   0  0  0  0  0  0  0  0  0  0  0  0
   10.6771   24.2940   18.6358 C   0  0  0  0  0  0  0  0  0  0  0  0
    9.2143   24.8142   18.5930 C   0  0  0  0  0  0  0  0  0  0  0  0
   11.2092   25.1526   19.7675 C   0  0  0  0  0  0  0  0  0  0  0  0
 10 11  1  0  0  0
 10 15  2  0  0  0
 10  4  1  0  0  0
 11 12  2  0  0  0
 12 13  1  0  0  0
 13 14  2  0  0  0
 13 16  1  0  0  0
 14 15  1  0  0  0
 16 17  1  0  0  0
  4  5  1  0  0  0
  4  9  2  0  0  0
  5  6  2  0  0  0
  6  7  1  0  0  0
  7  8  2  0  0  0
  7  1  1  0  0  0
  8  9  1  0  0  0
  1  2  2  0  0  0
  1  3  2  0  0  0
  1 18  1  0  0  0
 18 20  1  0  0  0
 20 27  1  0  0  0
 20 21  1  0  0  0
 27 28  1  0  0  0
 27 29  1  0  0  0
 21 22  2  0  0  0
 21 23  1  0  0  0
 21 24  1  0  0  0
 18 19  1  0  0  0
 23 25  1  0  0  0
 24 26  1  0  0  0
M  END
> <minimizedAffinity>
-9.00199

$$$$
1ZS0_EIN_A_994


 29 30  0  0  0  0  0  0  0  0999 V2000
   10.7572   24.4223   14.1027 S   0  0  0  0  0  0  0  0  0  0  0  0
    9.8617   25.5406   13.5889 O   0  0  0  0  0  0  0  0  0  0  0  0
   12.2354   24.6949   13.7017 O   0  0  0  0  0  0  0  0  0  0  0  0
    9.3478   20.3528   12.2759 C   0  0  0  0  0  0  0  0  0  0  0  0
    8.5906   21.5965   12.0677 C   0  0  0  0  0  0  0  0  0  0  0  0
    9.0409   22.8336   12.6306 C   0  0  0  0  0  0  0  0  0  0  0  0
   10.2453   22.8842   13.4241 C   0  0  0  0  0  0  0  0  0  0  0  0
   11.0304   21.6659   13.6574 C   0  0  0  0  0  0  0  0  0  0  0  0
   10.5849   20.4071   13.0912 C   0  0  0  0  0  0  0  0  0  0  0  0
    8.8596   19.0725   11.6841 C   0  0  0  0  0  0  0  0  0  0  0  0
    9.5312   17.7939   12.0078 C   0  0  0  0  0  0  0  0  0  0  0  0
    9.0705   16.5619   11.4348 C   0  0  0  0  0  0  0  0  0  0  0  0
    7.8970   16.5638   10.4984 C   0  0  0  0  0  0  0  0  0  0  0  0
    7.2356   17.8238   10.1869 C   0  0  0  0  0  0  0  0  0  0  0  0
    7.7107   19.0613   10.7708 C   0  0  0  0  0  0  0  0  0  0  0  0
    7.3834   15.3258    9.8785 O   0  0  0  0  0  0  0  0  0  0  0  0
    8.0160   14.1282   10.3643 C   0  0  0  0  0  0  0  0  0  0  0  0
   10.6257   24.3073   15.8211 N   0  0  0  0  0  0  0  0  0  0  0  0
   10.3476   23.3431   16.0040 H   0  0  0  0  0  0  0  0  0  0  0  0
   11.6867   24.5886   16.7831 C   0  0  0  0  0  0  0  0  0  0  0  0
   12.8495   23.2161   16.7999 P   0  0  0  0  0  0  0  0  0  0  0  0
   12.1092   21.6969   16.6722 O   0  0  0  0  0  0  0  0  0  0  0  0
   13.8546   23.0125   18.1789 O   0  0  0  0  0  0  0  0  0  0  0  0
   13.8412   23.1730   15.4914 O   0  0  0  0  0  0  0  0  0  0  0  0
   13.3101   23.0311   18.9814 H   0  0  0  0  0  0  0  0  0  0  0  0
   13.3159   23.2845   14.6837 H   0  0  0  0  0  0  0  0  0  0  0  0
   12.4854   25.9045   16.3821 C   0  0  0  0  0  0  0  0  0  0  0  0
   13.8621   26.0645   17.0831 C   0  0  0  0  0  0  0  0  0  0  0  0
   11.7828   27.1275   16.9402 C   0  0  0  0  0  0  0  0  0  0  0  0
 10 11  1  0  0  0
 10 15  2  0  0  0
 10  4  1  0  0  0
 11 12  2  0  0  0
 12 13  1  0  0  0
 13 14  2  0  0  0
 13 16  1  0  0  0
 14 15  1  0  0  0
 16 17  1  0  0  0
  4  5  1  0  0  0
  4  9  2  0  0  0
  5  6  2  0  0  0
  6  7  1  0  0  0
  7  8  2  0  0  0
  7  1  1  0  0  0
  8  9  1  0  0  0
  1  2  2  0  0  0
  1  3  2  0  0  0
  1 18  1  0  0  0
 18 20  1  0  0  0
 20 27  1  0  0  0
 20 21  1  0  0  0
 27 28  1  0  0  0
 27 29  1  0  0  0
 21 22  2  0  0  0
 21 23  1  0  0  0
 21 24  1  0  0  0
 18 19  1  0  0  0
 23 25  1  0  0  0
 24 26  1  0  0  0
M  END
> <minimizedAffinity>
-8.72421

$$$$
1ZS0_EIN_A_994


 29 30  0  0  0  0  0  0  0  0999 V2000
   12.2634   25.5031   15.0177 S   0  0  0  0  0  0  0  0  0  0  0  0
   11.5397   26.7818   14.6203 O   0  0  0  0  0  0  0  0  0  0  0  0
   13.7573   25.5802   14.5907 O   0  0  0  0  0  0  0  0  0  0  0  0
   10.2005   21.8431   12.9602 C   0  0  0  0  0  0  0  0  0  0  0  0
    9.4219   22.9800   13.4748 C   0  0  0  0  0  0  0  0  0  0  0  0
   10.0718   24.0938   14.0970 C   0  0  0  0  0  0  0  0  0  0  0  0
   11.5076   24.1198   14.2407 C   0  0  0  0  0  0  0  0  0  0  0  0
   12.3223   23.0053   13.7418 C   0  0  0  0  0  0  0  0  0  0  0  0
   11.6753   21.8721   13.1087 C   0  0  0  0  0  0  0  0  0  0  0  0
    9.5040   20.6895   12.3186 C   0  0  0  0  0  0  0  0  0  0  0  0
    8.3517   20.9171   11.4181 C   0  0  0  0  0  0  0  0  0  0  0  0
    7.6741   19.8107   10.8057 C   0  0  0  0  0  0  0  0  0  0  0  0
    8.1340   18.4075   11.0768 C   0  0  0  0  0  0  0  0  0  0  0  0
    9.2719   18.1883   11.9595 C   0  0  0  0  0  0  0  0  0  0  0  0
    9.9473   19.3135   12.5727 C   0  0  0  0  0  0  0  0  0  0  0  0
    7.4714   17.2327   10.4755 O   0  0  0  0  0  0  0  0  0  0  0  0
    8.1391   15.9875   10.7478 C   0  0  0  0  0  0  0  0  0  0  0  0
   12.1511   25.2715   16.7256 N   0  0  0  0  0  0  0  0  0  0  0  0
   11.3110   25.7756   17.0092 H   0  0  0  0  0  0  0  0  0  0  0  0
   12.0769   23.9864   17.4138 C   0  0  0  0  0  0  0  0  0  0  0  0
   13.7428   23.3665   17.6906 P   0  0  0  0  0  0  0  0  0  0  0  0
   14.1759   23.2894   19.3273 O   0  0  0  0  0  0  0  0  0  0  0  0
   15.0615   24.2326   17.0093 O   0  0  0  0  0  0  0  0  0  0  0  0
   13.9449   21.7954   17.2567 O   0  0  0  0  0  0  0  0  0  0  0  0
   14.9852   25.1717   17.2399 H   0  0  0  0  0  0  0  0  0  0  0  0
   13.2198   21.2636   17.6207 H   0  0  0  0  0  0  0  0  0  0  0  0
   11.3674   24.1381   18.8293 C   0  0  0  0  0  0  0  0  0  0  0  0
    9.8152   24.1211   18.7799 C   0  0  0  0  0  0  0  0  0  0  0  0
   11.5799   25.5402   19.3679 C   0  0  0  0  0  0  0  0  0  0  0  0
 10 11  1  0  0  0
 10 15  2  0  0  0
 10  4  1  0  0  0
 11 12  2  0  0  0
 12 13  1  0  0  0
 13 14  2  0  0  0
 13 16  1  0  0  0
 14 15  1  0  0  0
 16 17  1  0  0  0
  4  5  1  0  0  0
  4  9  2  0  0  0
  5  6  2  0  0  0
  6  7  1  0  0  0
  7  8  2  0  0  0
  7  1  1  0  0  0
  8  9  1  0  0  0
  1  2  2  0  0  0
  1  3  2  0  0  0
  1 18  1  0  0  0
 18 20  1  0  0  0
 20 27  1  0  0  0
 20 21  1  0  0  0
 27 28  1  0  0  0
 27 29  1  0  0  0
 21 22  2  0  0  0
 21 23  1  0  0  0
 21 24  1  0  0  0
 18 19  1  0  0  0
 23 25  1  0  0  0
 24 26  1  0  0  0
M  END
> <minimizedAffinity>
-8.58990

$$$$
1ZS0_EIN_A_994


 29 30  0  0  0  0  0  0  0  0999 V2000
   12.0298   25.0455   14.5563 S   0  0  0  0  0  0  0  0  0  0  0  0
   11.1853   26.3034   14.4110 O   0  0  0  0  0  0  0  0  0  0  0  0
   13.4030   25.2396   13.8516 O   0  0  0  0  0  0  0  0  0  0  0  0
    9.8578   21.3718   12.6403 C   0  0  0  0  0  0  0  0  0  0  0  0
   11.2733   21.3124   13.0356 C   0  0  0  0  0  0  0  0  0  0  0  0
   11.9194   22.4458   13.6255 C   0  0  0  0  0  0  0  0  0  0  0  0
   11.1956   23.6764   13.8364 C   0  0  0  0  0  0  0  0  0  0  0  0
    9.7817   23.7788   13.4554 C   0  0  0  0  0  0  0  0  0  0  0  0
    9.1161   22.6369   12.8581 C   0  0  0  0  0  0  0  0  0  0  0  0
    9.2035   20.1808   12.0231 C   0  0  0  0  0  0  0  0  0  0  0  0
    9.6994   18.8177   12.3168 C   0  0  0  0  0  0  0  0  0  0  0  0
    9.0787   17.6704   11.7193 C   0  0  0  0  0  0  0  0  0  0  0  0
    7.9152   17.8485   10.7874 C   0  0  0  0  0  0  0  0  0  0  0  0
    7.4269   19.1916   10.5052 C   0  0  0  0  0  0  0  0  0  0  0  0
    8.0625   20.3421   11.1138 C   0  0  0  0  0  0  0  0  0  0  0  0
    7.2413   16.7033   10.1430 O   0  0  0  0  0  0  0  0  0  0  0  0
    8.0213   15.4942   10.1466 C   0  0  0  0  0  0  0  0  0  0  0  0
   12.2724   24.6912   16.2294 N   0  0  0  0  0  0  0  0  0  0  0  0
   12.3556   23.6758   16.2784 H   0  0  0  0  0  0  0  0  0  0  0  0
   13.3520   25.2045   17.0669 C   0  0  0  0  0  0  0  0  0  0  0  0
   12.7688   26.6512   17.9631 P   0  0  0  0  0  0  0  0  0  0  0  0
   13.9200   27.8897   18.0767 O   0  0  0  0  0  0  0  0  0  0  0  0
   12.2839   26.4584   19.6004 O   0  0  0  0  0  0  0  0  0  0  0  0
   11.5484   27.4499   17.2079 O   0  0  0  0  0  0  0  0  0  0  0  0
   12.9773   25.9888   20.0898 H   0  0  0  0  0  0  0  0  0  0  0  0
   11.7777   27.5829   16.2748 H   0  0  0  0  0  0  0  0  0  0  0  0
   13.8115   24.1178   18.1337 C   0  0  0  0  0  0  0  0  0  0  0  0
   15.1918   24.3976   18.7886 C   0  0  0  0  0  0  0  0  0  0  0  0
   14.1323   22.8097   17.4358 C   0  0  0  0  0  0  0  0  0  0  0  0
 10 11  1  0  0  0
 10 15  2  0  0  0
 10  4  1  0  0  0
 11 12  2  0  0  0
 12 13  1  0  0  0
 13 14  2  0  0  0
 13 16  1  0  0  0
 14 15  1  0  0  0
 16 17  1  0  0  0
  4  5  1  0  0  0
  4  9  2  0  0  0
  5  6  2  0  0  0
  6  7  1  0  0  0
  7  8  2  0  0  0
  7  1  1  0  0  0
  8  9  1  0  0  0
  1  2  2  0  0  0
  1  3  2  0  0  0
  1 18  1  0  0  0
 18 20  1  0  0  0
 20 27  1  0  0  0
 20 21  1  0  0  0
 27 28  1  0  0  0
 27 29  1  0  0  0
 21 22  2  0  0  0
 21 23  1  0  0  0
 21 24  1  0  0  0
 18 19  1  0  0  0
 23 25  1  0  0  0
 24 26  1  0  0  0
M  END
> <minimizedAffinity>
-8.55161

$$$$
1ZS0_EIN_A_994


 29 30  0  0  0  0  0  0  0  0999 V2000
    7.9255   18.2525   10.7667 S   0  0  0  0  0  0  0  0  0  0  0  0
    6.9581   18.8194    9.7375 O   0  0  0  0  0  0  0  0  0  0  0  0
    7.1439   17.4666   11.8582 O   0  0  0  0  0  0  0  0  0  0  0  0
   10.3003   21.7614   12.7497 C   0  0  0  0  0  0  0  0  0  0  0  0
    9.2387   22.0082   11.7620 C   0  0  0  0  0  0  0  0  0  0  0  0
    8.5193   20.9212   11.1697 C   0  0  0  0  0  0  0  0  0  0  0  0
    8.8281   19.5566   11.5237 C   0  0  0  0  0  0  0  0  0  0  0  0
    9.8809   19.2658   12.5044 C   0  0  0  0  0  0  0  0  0  0  0  0
   10.6158   20.3587   13.1120 C   0  0  0  0  0  0  0  0  0  0  0  0
   11.0417   22.9079   13.3526 C   0  0  0  0  0  0  0  0  0  0  0  0
   12.5156   22.9863   13.2449 C   0  0  0  0  0  0  0  0  0  0  0  0
   13.2331   24.0823   13.8300 C   0  0  0  0  0  0  0  0  0  0  0  0
   12.4871   25.1623   14.5588 C   0  0  0  0  0  0  0  0  0  0  0  0
   11.0359   25.0839   14.6578 C   0  0  0  0  0  0  0  0  0  0  0  0
   10.3228   23.9718   14.0638 C   0  0  0  0  0  0  0  0  0  0  0  0
   13.1754   26.3106   15.1819 O   0  0  0  0  0  0  0  0  0  0  0  0
   12.5321   26.7952   16.3742 C   0  0  0  0  0  0  0  0  0  0  0  0
    9.0625   17.2088    9.9913 N   0  0  0  0  0  0  0  0  0  0  0  0
    9.9513   17.3870   10.4590 H   0  0  0  0  0  0  0  0  0  0  0  0
    8.9655   15.7556    9.8948 C   0  0  0  0  0  0  0  0  0  0  0  0
    9.9952   15.0081   11.1664 P   0  0  0  0  0  0  0  0  0  0  0  0
   11.6439   15.3644   11.0020 O   0  0  0  0  0  0  0  0  0  0  0  0
   10.0088   13.2953   11.3057 O   0  0  0  0  0  0  0  0  0  0  0  0
    9.7147   15.5949   12.6746 O   0  0  0  0  0  0  0  0  0  0  0  0
   10.1721   12.9014   10.4345 H   0  0  0  0  0  0  0  0  0  0  0  0
    9.6980   16.5643   12.6465 H   0  0  0  0  0  0  0  0  0  0  0  0
    7.4690   15.2678   10.1247 C   0  0  0  0  0  0  0  0  0  0  0  0
    7.3211   13.7493   10.4155 C   0  0  0  0  0  0  0  0  0  0  0  0
    6.6933   15.3446    8.8234 C   0  0  0  0  0  0  0  0  0  0  0  0
 10 11  1  0  0  0
 10 15  2  0  0  0
 10  4  1  0  0  0
 11 12  2  0  0  0
 12 13  1  0  0  0
 13 14  2  0  0  0
 13 16  1  0  0  0
 14 15  1  0  0  0
 16 17  1  0  0  0
  4  5  1  0  0  0
  4  9  2  0  0  0
  5  6  2  0  0  0
  6  7  1  0  0  0
  7  8  2  0  0  0
  7  1  1  0  0  0
  8  9  1  0  0  0
  1  2  2  0  0  0
  1  3  2  0  0  0
  1 18  1  0  0  0
 18 20  1  0  0  0
 20 27  1  0  0  0
 20 21  1  0  0  0
 27 28  1  0  0  0
 27 29  1  0  0  0
 21 22  2  0  0  0
 21 23  1  0  0  0
 21 24  1  0  0  0
 18 19  1  0  0  0
 23 25  1  0  0  0
 24 26  1  0  0  0
M  END
> <minimizedAffinity>
-8.52317

$$$$
1ZS0_EIN_A_994


 29 30  0  0  0  0  0  0  0  0999 V2000
   13.2140   25.5002   16.5970 S   0  0  0  0  0  0  0  0  0  0  0  0
   13.3410   26.8548   15.9148 O   0  0  0  0  0  0  0  0  0  0  0  0
   14.6254   24.9096   16.8785 O   0  0  0  0  0  0  0  0  0  0  0  0
   10.8133   22.5189   13.9076 C   0  0  0  0  0  0  0  0  0  0  0  0
   10.9738   22.2980   15.3529 C   0  0  0  0  0  0  0  0  0  0  0  0
   11.7079   23.2247   16.1606 C   0  0  0  0  0  0  0  0  0  0  0  0
   12.3152   24.3931   15.5700 C   0  0  0  0  0  0  0  0  0  0  0  0
   12.1802   24.6510   14.1312 C   0  0  0  0  0  0  0  0  0  0  0  0
   11.4379   23.7200   13.3030 C   0  0  0  0  0  0  0  0  0  0  0  0
   10.0479   21.5390   13.0821 C   0  0  0  0  0  0  0  0  0  0  0  0
   10.3809   20.0978   13.1303 C   0  0  0  0  0  0  0  0  0  0  0  0
    9.6532   19.1533   12.3322 C   0  0  0  0  0  0  0  0  0  0  0  0
    8.5429   19.6256   11.4389 C   0  0  0  0  0  0  0  0  0  0  0  0
    8.2149   21.0443   11.3986 C   0  0  0  0  0  0  0  0  0  0  0  0
    8.9575   21.9884   12.2082 C   0  0  0  0  0  0  0  0  0  0  0  0
    7.7639   18.6975   10.5948 O   0  0  0  0  0  0  0  0  0  0  0  0
    8.5285   17.5844   10.0980 C   0  0  0  0  0  0  0  0  0  0  0  0
   12.3408   25.6681   18.0778 N   0  0  0  0  0  0  0  0  0  0  0  0
   13.0013   26.0887   18.7315 H   0  0  0  0  0  0  0  0  0  0  0  0
   11.0968   26.4094   18.2605 C   0  0  0  0  0  0  0  0  0  0  0  0
    9.8642   25.3246   18.9953 P   0  0  0  0  0  0  0  0  0  0  0  0
    8.8015   26.1193   20.0495 O   0  0  0  0  0  0  0  0  0  0  0  0
   10.4039   24.0050   19.9549 O   0  0  0  0  0  0  0  0  0  0  0  0
    8.7972   24.7051   17.9111 O   0  0  0  0  0  0  0  0  0  0  0  0
   11.0401   24.3235   20.6142 H   0  0  0  0  0  0  0  0  0  0  0  0
    8.4630   25.4171   17.3435 H   0  0  0  0  0  0  0  0  0  0  0  0
   11.3087   27.6460   19.2383 C   0  0  0  0  0  0  0  0  0  0  0  0
   12.2427   28.7562   18.6841 C   0  0  0  0  0  0  0  0  0  0  0  0
   12.1242   27.2194   20.4442 C   0  0  0  0  0  0  0  0  0  0  0  0
 10 11  1  0  0  0
 10 15  2  0  0  0
 10  4  1  0  0  0
 11 12  2  0  0  0
 12 13  1  0  0  0
 13 14  2  0  0  0
 13 16  1  0  0  0
 14 15  1  0  0  0
 16 17  1  0  0  0
  4  5  1  0  0  0
  4  9  2  0  0  0
  5  6  2  0  0  0
  6  7  1  0  0  0
  7  8  2  0  0  0
  7  1  1  0  0  0
  8  9  1  0  0  0
  1  2  2  0  0  0
  1  3  2  0  0  0
  1 18  1  0  0  0
 18 20  1  0  0  0
 20 27  1  0  0  0
 20 21  1  0  0  0
 27 28  1  0  0  0
 27 29  1  0  0  0
 21 22  2  0  0  0
 21 23  1  0  0  0
 21 24  1  0  0  0
 18 19  1  0  0  0
 23 25  1  0  0  0
 24 26  1  0  0  0
M  END
> <minimizedAffinity>
-8.36988

$$$$
1ZS0_EIN_A_994


 29 30  0  0  0  0  0  0  0  0999 V2000
   13.6572   25.5162   16.1061 S   0  0  0  0  0  0  0  0  0  0  0  0
   14.4884   26.3214   15.1176 O   0  0  0  0  0  0  0  0  0  0  0  0
   14.5893   24.7377   17.0782 O   0  0  0  0  0  0  0  0  0  0  0  0
   10.9732   22.4854   13.7620 C   0  0  0  0  0  0  0  0  0  0  0  0
   12.2178   23.0194   13.1881 C   0  0  0  0  0  0  0  0  0  0  0  0
   13.0289   23.9423   13.9232 C   0  0  0  0  0  0  0  0  0  0  0  0
   12.6360   24.3762   15.2424 C   0  0  0  0  0  0  0  0  0  0  0  0
   11.4007   23.8687   15.8519 C   0  0  0  0  0  0  0  0  0  0  0  0
   10.5716   22.9324   15.1173 C   0  0  0  0  0  0  0  0  0  0  0  0
   10.1393   21.5274   12.9780 C   0  0  0  0  0  0  0  0  0  0  0  0
    9.0410   22.0210   12.1176 C   0  0  0  0  0  0  0  0  0  0  0  0
    8.2316   21.1031   11.3686 C   0  0  0  0  0  0  0  0  0  0  0  0
    8.4971   19.6279   11.4544 C   0  0  0  0  0  0  0  0  0  0  0  0
    9.5826   19.1470   12.2984 C   0  0  0  0  0  0  0  0  0  0  0  0
   10.3922   20.0834   13.0506 C   0  0  0  0  0  0  0  0  0  0  0  0
    7.6934   18.6394   10.7077 O   0  0  0  0  0  0  0  0  0  0  0  0
    8.2074   17.2976   10.7835 C   0  0  0  0  0  0  0  0  0  0  0  0
   12.6240   26.5720   17.0013 N   0  0  0  0  0  0  0  0  0  0  0  0
   11.6759   26.3135   16.7280 H   0  0  0  0  0  0  0  0  0  0  0  0
   12.5816   26.7013   18.4546 C   0  0  0  0  0  0  0  0  0  0  0  0
   13.6331   28.0715   18.9577 P   0  0  0  0  0  0  0  0  0  0  0  0
   15.0271   28.2420   18.0092 O   0  0  0  0  0  0  0  0  0  0  0  0
   14.2792   28.0648   20.5501 O   0  0  0  0  0  0  0  0  0  0  0  0
   12.9456   29.5473   18.7412 O   0  0  0  0  0  0  0  0  0  0  0  0
   14.6984   27.2078   20.7253 H   0  0  0  0  0  0  0  0  0  0  0  0
   12.5647   29.5991   17.8506 H   0  0  0  0  0  0  0  0  0  0  0  0
   11.1034   27.0060   18.9567 C   0  0  0  0  0  0  0  0  0  0  0  0
   10.9453   27.0720   20.5003 C   0  0  0  0  0  0  0  0  0  0  0  0
   10.2033   25.8193   18.6689 C   0  0  0  0  0  0  0  0  0  0  0  0
 10 11  1  0  0  0
 10 15  2  0  0  0
 10  4  1  0  0  0
 11 12  2  0  0  0
 12 13  1  0  0  0
 13 14  2  0  0  0
 13 16  1  0  0  0
 14 15  1  0  0  0
 16 17  1  0  0  0
  4  5  1  0  0  0
  4  9  2  0  0  0
  5  6  2  0  0  0
  6  7  1  0  0  0
  7  8  2  0  0  0
  7  1  1  0  0  0
  8  9  1  0  0  0
  1  2  2  0  0  0
  1  3  2  0  0  0
  1 18  1  0  0  0
 18 20  1  0  0  0
 20 27  1  0  0  0
 20 21  1  0  0  0
 27 28  1  0  0  0
 27 29  1  0  0  0
 21 22  2  0  0  0
 21 23  1  0  0  0
 21 24  1  0  0  0
 18 19  1  0  0  0
 23 25  1  0  0  0
 24 26  1  0  0  0
M  END
> <minimizedAffinity>
-7.59549

$$$$
