4NWC_2QE_A_905


 20 19  0  0  0  0  0  0  0  0999 V2000
    4.0288   27.2431   15.3618 C   0  0  0  0  0  0  0  0  0  0  0  0
    3.1615   26.0019   15.1121 C   0  0  0  0  0  0  0  0  0  0  0  0
    2.1509   26.1196   14.3897 O   0  0  0  0  0  0  0  0  0  0  0  0
    3.5426   24.9310   15.6506 O   0  0  0  0  0  0  0  0  0  0  0  0
    4.3147   24.9224   16.1814 H   0  0  0  0  0  0  0  0  0  0  0  0
    3.2065   28.5131   15.0583 C   0  0  0  0  0  0  0  0  0  0  0  0
    3.6851   29.2777   13.8196 C   0  0  0  0  0  0  0  0  0  0  0  0
    4.9997   29.9224   14.0300 N   0  0  0  0  0  0  0  0  0  0  0  0
    4.9202   30.6245   14.7656 H   0  0  0  0  0  0  0  0  0  0  0  0
    5.3015   30.3695   13.1644 H   0  0  0  0  0  0  0  0  0  0  0  0
    1.4754   30.0856   13.5854 O   0  0  0  0  0  0  0  0  0  0  0  0
    2.6792   30.3409   13.3876 C   0  0  0  0  0  0  0  0  0  0  0  0
    3.1391   31.3959   12.8995 O   0  0  0  0  0  0  0  0  0  0  0  0
    4.0641   31.4965   12.7887 H   0  0  0  0  0  0  0  0  0  0  0  0
    4.5716   27.2745   16.8011 C   0  0  0  0  0  0  0  0  0  0  0  0
    5.9305   27.9912   16.9434 C   0  0  0  0  0  0  0  0  0  0  0  0
    6.9264   27.4806   15.8844 C   0  0  0  0  0  0  0  0  0  0  0  0
    7.2327   26.2785   15.8548 O   0  0  0  0  0  0  0  0  0  0  0  0
    7.4099   28.4408   15.0515 O   0  0  0  0  0  0  0  0  0  0  0  0
    8.4830   29.2190   15.5755 C   0  0  0  0  0  0  0  0  0  0  0  0
 11 12  2  0  0  0
  8  7  1  0  0  0
 12  7  1  0  0  0
 12 13  1  0  0  0
  7  6  1  0  0  0
  3  2  2  0  0  0
  4  2  1  0  0  0
  2  1  1  0  0  0
  6  1  1  0  0  0
  1 15  1  0  0  0
 20 19  1  0  0  0
 19 17  1  0  0  0
 18 17  2  0  0  0
 17 16  1  0  0  0
 15 16  1  0  0  0
 13 14  1  0  0  0
  8  9  1  0  0  0
  8 10  1  0  0  0
  4  5  1  0  0  0
M  END
> <minimizedAffinity>
-7.89306

$$$$
4NWC_2QE_A_905


 20 19  0  0  0  0  0  0  0  0999 V2000
    4.2845   25.5292   15.1487 C   0  0  0  0  0  0  0  0  0  0  0  0
    3.4071   24.3789   15.6607 C   0  0  0  0  0  0  0  0  0  0  0  0
    2.1696   24.4735   15.5314 O   0  0  0  0  0  0  0  0  0  0  0  0
    4.0062   23.3981   16.1716 O   0  0  0  0  0  0  0  0  0  0  0  0
    4.9412   23.4007   16.2338 H   0  0  0  0  0  0  0  0  0  0  0  0
    3.6734   26.8760   15.5892 C   0  0  0  0  0  0  0  0  0  0  0  0
    3.0117   27.6567   14.4488 C   0  0  0  0  0  0  0  0  0  0  0  0
    2.8963   26.8546   13.2114 N   0  0  0  0  0  0  0  0  0  0  0  0
    3.8284   26.6189   12.8708 H   0  0  0  0  0  0  0  0  0  0  0  0
    2.4013   27.3943   12.5013 H   0  0  0  0  0  0  0  0  0  0  0  0
    4.5134   29.3895   15.0255 O   0  0  0  0  0  0  0  0  0  0  0  0
    3.7673   28.9443   14.1320 C   0  0  0  0  0  0  0  0  0  0  0  0
    3.6055   29.4347   12.9935 O   0  0  0  0  0  0  0  0  0  0  0  0
    3.0198   29.0266   12.3865 H   0  0  0  0  0  0  0  0  0  0  0  0
    5.7351   25.3991   15.6445 C   0  0  0  0  0  0  0  0  0  0  0  0
    6.4542   26.7499   15.8415 C   0  0  0  0  0  0  0  0  0  0  0  0
    7.8962   26.6801   15.3034 C   0  0  0  0  0  0  0  0  0  0  0  0
    8.5179   25.6070   15.3426 O   0  0  0  0  0  0  0  0  0  0  0  0
    8.3808   27.8579   14.8264 O   0  0  0  0  0  0  0  0  0  0  0  0
    8.1049   29.0016   15.6310 C   0  0  0  0  0  0  0  0  0  0  0  0
 11 12  2  0  0  0
  8  7  1  0  0  0
 12  7  1  0  0  0
 12 13  1  0  0  0
  7  6  1  0  0  0
  3  2  2  0  0  0
  4  2  1  0  0  0
  2  1  1  0  0  0
  6  1  1  0  0  0
  1 15  1  0  0  0
 20 19  1  0  0  0
 19 17  1  0  0  0
 18 17  2  0  0  0
 17 16  1  0  0  0
 15 16  1  0  0  0
 13 14  1  0  0  0
  8  9  1  0  0  0
  8 10  1  0  0  0
  4  5  1  0  0  0
M  END
> <minimizedAffinity>
-7.65837

$$$$
4NWC_2QE_A_905


 20 19  0  0  0  0  0  0  0  0999 V2000
    4.3150   28.7136   14.7638 C   0  0  0  0  0  0  0  0  0  0  0  0
    3.6776   29.6461   13.7250 C   0  0  0  0  0  0  0  0  0  0  0  0
    2.4336   29.6652   13.6287 O   0  0  0  0  0  0  0  0  0  0  0  0
    4.4650   30.3484   13.0403 O   0  0  0  0  0  0  0  0  0  0  0  0
    5.3901   30.2776   13.1710 H   0  0  0  0  0  0  0  0  0  0  0  0
    5.5936   29.3697   15.3261 C   0  0  0  0  0  0  0  0  0  0  0  0
    6.5189   28.3922   16.0584 C   0  0  0  0  0  0  0  0  0  0  0  0
    6.2808   28.3791   17.5182 N   0  0  0  0  0  0  0  0  0  0  0  0
    6.4978   29.2971   17.9063 H   0  0  0  0  0  0  0  0  0  0  0  0
    6.8778   27.6761   17.9538 H   0  0  0  0  0  0  0  0  0  0  0  0
    8.8069   28.2865   16.6451 O   0  0  0  0  0  0  0  0  0  0  0  0
    7.9902   28.7066   15.8026 C   0  0  0  0  0  0  0  0  0  0  0  0
    8.2658   29.3313   14.7554 O   0  0  0  0  0  0  0  0  0  0  0  0
    7.5795   29.6077   14.1804 H   0  0  0  0  0  0  0  0  0  0  0  0
    3.3322   28.3723   15.8971 C   0  0  0  0  0  0  0  0  0  0  0  0
    3.2694   26.8695   16.2415 C   0  0  0  0  0  0  0  0  0  0  0  0
    3.1519   26.0238   14.9590 C   0  0  0  0  0  0  0  0  0  0  0  0
    2.1718   26.1692   14.2120 O   0  0  0  0  0  0  0  0  0  0  0  0
    4.1726   25.1467   14.7630 O   0  0  0  0  0  0  0  0  0  0  0  0
    5.0741   25.0053   15.8579 C   0  0  0  0  0  0  0  0  0  0  0  0
 11 12  2  0  0  0
  8  7  1  0  0  0
 12  7  1  0  0  0
 12 13  1  0  0  0
  7  6  1  0  0  0
  3  2  2  0  0  0
  4  2  1  0  0  0
  2  1  1  0  0  0
  6  1  1  0  0  0
  1 15  1  0  0  0
 20 19  1  0  0  0
 19 17  1  0  0  0
 18 17  2  0  0  0
 17 16  1  0  0  0
 15 16  1  0  0  0
 13 14  1  0  0  0
  8  9  1  0  0  0
  8 10  1  0  0  0
  4  5  1  0  0  0
M  END
> <minimizedAffinity>
-7.41308

$$$$
4NWC_2QE_A_905


 20 19  0  0  0  0  0  0  0  0999 V2000
    3.7111   29.5867   14.6871 C   0  0  0  0  0  0  0  0  0  0  0  0
    2.9470   30.2878   13.5559 C   0  0  0  0  0  0  0  0  0  0  0  0
    1.7485   29.9905   13.3761 O   0  0  0  0  0  0  0  0  0  0  0  0
    3.5879   31.1375   12.8857 O   0  0  0  0  0  0  0  0  0  0  0  0
    4.4885   31.3062   13.0816 H   0  0  0  0  0  0  0  0  0  0  0  0
    2.9565   28.3050   15.0986 C   0  0  0  0  0  0  0  0  0  0  0  0
    3.4945   27.0320   14.4368 C   0  0  0  0  0  0  0  0  0  0  0  0
    2.9717   26.8472   13.0655 N   0  0  0  0  0  0  0  0  0  0  0  0
    1.9597   26.7250   13.1011 H   0  0  0  0  0  0  0  0  0  0  0  0
    3.3994   26.0212   12.6471 H   0  0  0  0  0  0  0  0  0  0  0  0
    1.9694   25.4661   15.3382 O   0  0  0  0  0  0  0  0  0  0  0  0
    3.1710   25.7874   15.2587 C   0  0  0  0  0  0  0  0  0  0  0  0
    4.1348   25.1695   15.7607 O   0  0  0  0  0  0  0  0  0  0  0  0
    5.0077   25.4904   15.6464 H   0  0  0  0  0  0  0  0  0  0  0  0
    5.1576   29.2612   14.2765 C   0  0  0  0  0  0  0  0  0  0  0  0
    6.1859   29.4315   15.4142 C   0  0  0  0  0  0  0  0  0  0  0  0
    6.9571   28.1185   15.6491 C   0  0  0  0  0  0  0  0  0  0  0  0
    8.0428   27.9303   15.0785 O   0  0  0  0  0  0  0  0  0  0  0  0
    6.3418   27.2420   16.4873 O   0  0  0  0  0  0  0  0  0  0  0  0
    5.5511   27.8336   17.5152 C   0  0  0  0  0  0  0  0  0  0  0  0
 11 12  2  0  0  0
  8  7  1  0  0  0
 12  7  1  0  0  0
 12 13  1  0  0  0
  7  6  1  0  0  0
  3  2  2  0  0  0
  4  2  1  0  0  0
  2  1  1  0  0  0
  6  1  1  0  0  0
  1 15  1  0  0  0
 20 19  1  0  0  0
 19 17  1  0  0  0
 18 17  2  0  0  0
 17 16  1  0  0  0
 15 16  1  0  0  0
 13 14  1  0  0  0
  8  9  1  0  0  0
  8 10  1  0  0  0
  4  5  1  0  0  0
M  END
> <minimizedAffinity>
-7.32909

$$$$
4NWC_2QE_A_905


 20 19  0  0  0  0  0  0  0  0999 V2000
    3.7476   26.0594   15.3380 C   0  0  0  0  0  0  0  0  0  0  0  0
    2.8088   24.8520   15.4646 C   0  0  0  0  0  0  0  0  0  0  0  0
    1.5932   25.0190   15.2375 O   0  0  0  0  0  0  0  0  0  0  0  0
    3.3398   23.7565   15.7806 O   0  0  0  0  0  0  0  0  0  0  0  0
    4.2627   23.7107   15.9359 H   0  0  0  0  0  0  0  0  0  0  0  0
    5.1599   25.5728   14.9504 C   0  0  0  0  0  0  0  0  0  0  0  0
    6.2440   25.9522   15.9646 C   0  0  0  0  0  0  0  0  0  0  0  0
    5.8223   27.0589   16.8507 N   0  0  0  0  0  0  0  0  0  0  0  0
    5.6680   27.8998   16.2945 H   0  0  0  0  0  0  0  0  0  0  0  0
    6.5509   27.2374   17.5419 H   0  0  0  0  0  0  0  0  0  0  0  0
    8.4151   25.4513   15.1733 O   0  0  0  0  0  0  0  0  0  0  0  0
    7.5497   26.3422   15.2774 C   0  0  0  0  0  0  0  0  0  0  0  0
    7.6388   27.5116   14.8447 O   0  0  0  0  0  0  0  0  0  0  0  0
    6.9320   28.1134   14.9719 H   0  0  0  0  0  0  0  0  0  0  0  0
    3.2216   27.0809   14.3148 C   0  0  0  0  0  0  0  0  0  0  0  0
    3.1006   28.5164   14.8672 C   0  0  0  0  0  0  0  0  0  0  0  0
    4.2471   29.3994   14.3384 C   0  0  0  0  0  0  0  0  0  0  0  0
    5.3652   29.3444   14.8738 O   0  0  0  0  0  0  0  0  0  0  0  0
    3.9084   30.2038   13.2955 O   0  0  0  0  0  0  0  0  0  0  0  0
    2.5264   30.5426   13.2103 C   0  0  0  0  0  0  0  0  0  0  0  0
 11 12  2  0  0  0
  8  7  1  0  0  0
 12  7  1  0  0  0
 12 13  1  0  0  0
  7  6  1  0  0  0
  3  2  2  0  0  0
  4  2  1  0  0  0
  2  1  1  0  0  0
  6  1  1  0  0  0
  1 15  1  0  0  0
 20 19  1  0  0  0
 19 17  1  0  0  0
 18 17  2  0  0  0
 17 16  1  0  0  0
 15 16  1  0  0  0
 13 14  1  0  0  0
  8  9  1  0  0  0
  8 10  1  0  0  0
  4  5  1  0  0  0
M  END
> <minimizedAffinity>
-7.31839

$$$$
4NWC_2QE_A_905


 20 19  0  0  0  0  0  0  0  0999 V2000
    4.7088   27.4906   15.5370 C   0  0  0  0  0  0  0  0  0  0  0  0
    4.5625   26.0247   15.9671 C   0  0  0  0  0  0  0  0  0  0  0  0
    3.5111   25.4213   15.6708 O   0  0  0  0  0  0  0  0  0  0  0  0
    5.5336   25.5201   16.5869 O   0  0  0  0  0  0  0  0  0  0  0  0
    6.2913   26.0390   16.7730 H   0  0  0  0  0  0  0  0  0  0  0  0
    3.3214   28.1663   15.5375 C   0  0  0  0  0  0  0  0  0  0  0  0
    2.6851   28.2715   14.1475 C   0  0  0  0  0  0  0  0  0  0  0  0
    3.0848   27.1575   13.2604 N   0  0  0  0  0  0  0  0  0  0  0  0
    4.0912   27.1955   13.0993 H   0  0  0  0  0  0  0  0  0  0  0  0
    2.5945   27.2394   12.3697 H   0  0  0  0  0  0  0  0  0  0  0  0
    2.0936   30.3941   13.2900 O   0  0  0  0  0  0  0  0  0  0  0  0
    3.0314   29.5922   13.4655 C   0  0  0  0  0  0  0  0  0  0  0  0
    4.2300   29.7814   13.1652 O   0  0  0  0  0  0  0  0  0  0  0  0
    4.8667   29.1157   13.3368 H   0  0  0  0  0  0  0  0  0  0  0  0
    5.6880   28.2526   16.4467 C   0  0  0  0  0  0  0  0  0  0  0  0
    6.6512   29.1883   15.6867 C   0  0  0  0  0  0  0  0  0  0  0  0
    8.0456   28.5451   15.5612 C   0  0  0  0  0  0  0  0  0  0  0  0
    8.9727   29.1803   15.0351 O   0  0  0  0  0  0  0  0  0  0  0  0
    8.1314   27.2782   16.0482 O   0  0  0  0  0  0  0  0  0  0  0  0
    8.2542   26.2537   15.0648 C   0  0  0  0  0  0  0  0  0  0  0  0
 11 12  2  0  0  0
  8  7  1  0  0  0
 12  7  1  0  0  0
 12 13  1  0  0  0
  7  6  1  0  0  0
  3  2  2  0  0  0
  4  2  1  0  0  0
  2  1  1  0  0  0
  6  1  1  0  0  0
  1 15  1  0  0  0
 20 19  1  0  0  0
 19 17  1  0  0  0
 18 17  2  0  0  0
 17 16  1  0  0  0
 15 16  1  0  0  0
 13 14  1  0  0  0
  8  9  1  0  0  0
  8 10  1  0  0  0
  4  5  1  0  0  0
M  END
> <minimizedAffinity>
-7.31733

$$$$
4NWC_2QE_A_905


 20 19  0  0  0  0  0  0  0  0999 V2000
    5.2313   28.7242   15.8695 C   0  0  0  0  0  0  0  0  0  0  0  0
    6.7569   28.6448   16.0151 C   0  0  0  0  0  0  0  0  0  0  0  0
    7.4518   28.6237   14.9789 O   0  0  0  0  0  0  0  0  0  0  0  0
    7.2101   28.6196   17.1882 O   0  0  0  0  0  0  0  0  0  0  0  0
    6.6226   28.6384   17.9179 H   0  0  0  0  0  0  0  0  0  0  0  0
    4.8691   28.9640   14.3887 C   0  0  0  0  0  0  0  0  0  0  0  0
    3.3678   28.8695   14.0968 C   0  0  0  0  0  0  0  0  0  0  0  0
    3.0379   27.7326   13.2100 N   0  0  0  0  0  0  0  0  0  0  0  0
    3.4807   27.8704   12.3015 H   0  0  0  0  0  0  0  0  0  0  0  0
    2.0265   27.6769   13.0904 H   0  0  0  0  0  0  0  0  0  0  0  0
    1.5936   30.2977   13.4619 O   0  0  0  0  0  0  0  0  0  0  0  0
    2.8315   30.1538   13.4704 C   0  0  0  0  0  0  0  0  0  0  0  0
    3.6727   30.9745   13.0442 O   0  0  0  0  0  0  0  0  0  0  0  0
    4.5872   30.7765   13.0936 H   0  0  0  0  0  0  0  0  0  0  0  0
    4.5447   27.4542   16.4012 C   0  0  0  0  0  0  0  0  0  0  0  0
    5.2292   26.1419   15.9654 C   0  0  0  0  0  0  0  0  0  0  0  0
    4.1777   25.0627   15.6438 C   0  0  0  0  0  0  0  0  0  0  0  0
    4.3365   23.9039   16.0583 O   0  0  0  0  0  0  0  0  0  0  0  0
    3.1325   25.4966   14.8896 O   0  0  0  0  0  0  0  0  0  0  0  0
    1.8395   25.1949   15.4081 C   0  0  0  0  0  0  0  0  0  0  0  0
 11 12  2  0  0  0
  8  7  1  0  0  0
 12  7  1  0  0  0
 12 13  1  0  0  0
  7  6  1  0  0  0
  3  2  2  0  0  0
  4  2  1  0  0  0
  2  1  1  0  0  0
  6  1  1  0  0  0
  1 15  1  0  0  0
 20 19  1  0  0  0
 19 17  1  0  0  0
 18 17  2  0  0  0
 17 16  1  0  0  0
 15 16  1  0  0  0
 13 14  1  0  0  0
  8  9  1  0  0  0
  8 10  1  0  0  0
  4  5  1  0  0  0
M  END
> <minimizedAffinity>
-7.16987

$$$$
4NWC_2QE_A_905


 20 19  0  0  0  0  0  0  0  0999 V2000
    3.6480   29.1966   14.5327 C   0  0  0  0  0  0  0  0  0  0  0  0
    2.9693   30.1779   13.5677 C   0  0  0  0  0  0  0  0  0  0  0  0
    1.7275   30.1343   13.4529 O   0  0  0  0  0  0  0  0  0  0  0  0
    3.7222   30.9808   12.9590 O   0  0  0  0  0  0  0  0  0  0  0  0
    4.6484   30.9518   13.0984 H   0  0  0  0  0  0  0  0  0  0  0  0
    3.4239   27.7523   14.0375 C   0  0  0  0  0  0  0  0  0  0  0  0
    2.6713   26.8666   15.0361 C   0  0  0  0  0  0  0  0  0  0  0  0
    2.5952   27.4758   16.3818 N   0  0  0  0  0  0  0  0  0  0  0  0
    3.5356   27.5736   16.7644 H   0  0  0  0  0  0  0  0  0  0  0  0
    2.0393   26.8789   16.9943 H   0  0  0  0  0  0  0  0  0  0  0  0
    4.4581   25.3556   14.6972 O   0  0  0  0  0  0  0  0  0  0  0  0
    3.3068   25.4843   15.1569 C   0  0  0  0  0  0  0  0  0  0  0  0
    2.6394   24.5986   15.7338 O   0  0  0  0  0  0  0  0  0  0  0  0
    1.7774   24.7908   16.0470 H   0  0  0  0  0  0  0  0  0  0  0  0
    5.1497   29.4963   14.6819 C   0  0  0  0  0  0  0  0  0  0  0  0
    5.8401   28.6968   15.8066 C   0  0  0  0  0  0  0  0  0  0  0  0
    7.3464   28.5471   15.5194 C   0  0  0  0  0  0  0  0  0  0  0  0
    7.9280   29.3920   14.8211 O   0  0  0  0  0  0  0  0  0  0  0  0
    7.9220   27.4456   16.0714 O   0  0  0  0  0  0  0  0  0  0  0  0
    7.7686   26.2395   15.3273 C   0  0  0  0  0  0  0  0  0  0  0  0
 11 12  2  0  0  0
  8  7  1  0  0  0
 12  7  1  0  0  0
 12 13  1  0  0  0
  7  6  1  0  0  0
  3  2  2  0  0  0
  4  2  1  0  0  0
  2  1  1  0  0  0
  6  1  1  0  0  0
  1 15  1  0  0  0
 20 19  1  0  0  0
 19 17  1  0  0  0
 18 17  2  0  0  0
 17 16  1  0  0  0
 15 16  1  0  0  0
 13 14  1  0  0  0
  8  9  1  0  0  0
  8 10  1  0  0  0
  4  5  1  0  0  0
M  END
> <minimizedAffinity>
-7.13639

$$$$
4NWC_2QE_A_905


 20 19  0  0  0  0  0  0  0  0999 V2000
    5.7777   27.3823   15.4177 C   0  0  0  0  0  0  0  0  0  0  0  0
    7.2368   27.7295   15.7430 C   0  0  0  0  0  0  0  0  0  0  0  0
    7.4878   28.2713   16.8386 O   0  0  0  0  0  0  0  0  0  0  0  0
    8.0947   27.4268   14.8745 O   0  0  0  0  0  0  0  0  0  0  0  0
    7.8275   27.0207   14.0735 H   0  0  0  0  0  0  0  0  0  0  0  0
    5.3289   26.1877   16.2854 C   0  0  0  0  0  0  0  0  0  0  0  0
    5.1510   24.8849   15.4985 C   0  0  0  0  0  0  0  0  0  0  0  0
    5.1806   25.1031   14.0359 N   0  0  0  0  0  0  0  0  0  0  0  0
    4.3931   25.6915   13.7638 H   0  0  0  0  0  0  0  0  0  0  0  0
    5.1154   24.2049   13.5568 H   0  0  0  0  0  0  0  0  0  0  0  0
    2.7957   24.6867   15.4368 O   0  0  0  0  0  0  0  0  0  0  0  0
    3.8495   24.1766   15.8642 C   0  0  0  0  0  0  0  0  0  0  0  0
    3.9415   23.1256   16.5347 O   0  0  0  0  0  0  0  0  0  0  0  0
    4.7823   22.8192   16.8125 H   0  0  0  0  0  0  0  0  0  0  0  0
    4.8479   28.5899   15.6275 C   0  0  0  0  0  0  0  0  0  0  0  0
    3.3624   28.2968   15.3307 C   0  0  0  0  0  0  0  0  0  0  0  0
    3.1413   28.0934   13.8195 C   0  0  0  0  0  0  0  0  0  0  0  0
    2.7927   26.9821   13.3913 O   0  0  0  0  0  0  0  0  0  0  0  0
    3.3726   29.1969   13.0592 O   0  0  0  0  0  0  0  0  0  0  0  0
    2.5483   30.3226   13.3513 C   0  0  0  0  0  0  0  0  0  0  0  0
 11 12  2  0  0  0
  8  7  1  0  0  0
 12  7  1  0  0  0
 12 13  1  0  0  0
  7  6  1  0  0  0
  3  2  2  0  0  0
  4  2  1  0  0  0
  2  1  1  0  0  0
  6  1  1  0  0  0
  1 15  1  0  0  0
 20 19  1  0  0  0
 19 17  1  0  0  0
 18 17  2  0  0  0
 17 16  1  0  0  0
 15 16  1  0  0  0
 13 14  1  0  0  0
  8  9  1  0  0  0
  8 10  1  0  0  0
  4  5  1  0  0  0
M  END
> <minimizedAffinity>
-7.11581

$$$$
4NWC_2QE_A_905


 20 19  0  0  0  0  0  0  0  0999 V2000
    5.0164   26.8746   16.2037 C   0  0  0  0  0  0  0  0  0  0  0  0
    5.4251   25.4594   15.7731 C   0  0  0  0  0  0  0  0  0  0  0  0
    6.1111   25.3285   14.7389 O   0  0  0  0  0  0  0  0  0  0  0  0
    5.0458   24.5145   16.5115 O   0  0  0  0  0  0  0  0  0  0  0  0
    4.5313   24.6932   17.2740 H   0  0  0  0  0  0  0  0  0  0  0  0
    5.6701   27.9066   15.2608 C   0  0  0  0  0  0  0  0  0  0  0  0
    6.7546   28.7563   15.9315 C   0  0  0  0  0  0  0  0  0  0  0  0
    6.7635   30.1499   15.4360 N   0  0  0  0  0  0  0  0  0  0  0  0
    6.9930   30.1560   14.4422 H   0  0  0  0  0  0  0  0  0  0  0  0
    7.4610   30.6888   15.9493 H   0  0  0  0  0  0  0  0  0  0  0  0
    9.0021   28.4412   16.5949 O   0  0  0  0  0  0  0  0  0  0  0  0
    8.1442   28.1560   15.7370 C   0  0  0  0  0  0  0  0  0  0  0  0
    8.3066   27.4014   14.7536 O   0  0  0  0  0  0  0  0  0  0  0  0
    7.5984   27.2467   14.1598 H   0  0  0  0  0  0  0  0  0  0  0  0
    3.4871   27.0418   16.2209 C   0  0  0  0  0  0  0  0  0  0  0  0
    2.9767   28.2308   15.3803 C   0  0  0  0  0  0  0  0  0  0  0  0
    2.8755   27.8398   13.8935 C   0  0  0  0  0  0  0  0  0  0  0  0
    2.7333   26.6483   13.5774 O   0  0  0  0  0  0  0  0  0  0  0  0
    2.9697   28.8825   13.0255 O   0  0  0  0  0  0  0  0  0  0  0  0
    3.2799   30.1419   13.6165 C   0  0  0  0  0  0  0  0  0  0  0  0
 11 12  2  0  0  0
  8  7  1  0  0  0
 12  7  1  0  0  0
 12 13  1  0  0  0
  7  6  1  0  0  0
  3  2  2  0  0  0
  4  2  1  0  0  0
  2  1  1  0  0  0
  6  1  1  0  0  0
  1 15  1  0  0  0
 20 19  1  0  0  0
 19 17  1  0  0  0
 18 17  2  0  0  0
 17 16  1  0  0  0
 15 16  1  0  0  0
 13 14  1  0  0  0
  8  9  1  0  0  0
  8 10  1  0  0  0
  4  5  1  0  0  0
M  END
> <minimizedAffinity>
-6.95184

$$$$
