6G3V_FO9_A_302


 29 29  0  0  0  0  0  0  0  0999 V2000
  -19.9268   35.7993   44.8744 C   0  0  0  0  0  0  0  0  0  0  0  0
  -20.7837   35.6445   46.0847 C   0  0  0  0  0  0  0  0  0  0  0  0
  -22.1427   35.8796   45.9695 N   0  0  0  0  0  0  0  0  0  0  0  0
  -22.7236   35.6889   47.1528 C   0  0  0  0  0  0  0  0  0  0  0  0
  -21.6775   35.2276   48.4299 S   0  0  0  0  0  0  0  0  0  0  0  0
  -20.3624   35.2888   47.3190 C   0  0  0  0  0  0  0  0  0  0  0  0
  -21.9250   33.9915   48.9403 H   0  0  0  0  0  0  0  0  0  0  0  0
  -24.0980   38.1520   47.2895 N   0  0  0  0  0  0  0  0  0  0  0  0
  -24.0569   35.8391   47.3793 N   0  0  0  0  0  0  0  0  0  0  0  0
  -24.7405   37.0138   47.4494 C   0  0  0  0  0  0  0  0  0  0  0  0
  -26.0364   37.0002   47.6764 N   0  0  0  0  0  0  0  0  0  0  0  0
  -23.1282   38.1502   47.1200 H   0  0  0  0  0  0  0  0  0  0  0  0
  -24.5874   39.0048   47.3394 H   0  0  0  0  0  0  0  0  0  0  0  0
  -26.5360   37.8469   47.7281 H   0  0  0  0  0  0  0  0  0  0  0  0
  -26.5064   36.1433   47.7947 H   0  0  0  0  0  0  0  0  0  0  0  0
  -20.3572   37.2391   43.8592 S   0  0  0  0  0  0  0  0  0  0  0  0
  -18.7824   37.5823   43.0273 C   0  0  0  0  0  0  0  0  0  0  0  0
  -18.8839   37.4727   41.5202 C   0  0  0  0  0  0  0  0  0  0  0  0
  -17.2512   35.5778   41.6642 N   0  0  0  0  0  0  0  0  0  0  0  0
  -17.8054   36.6301   40.9317 C   0  0  0  0  0  0  0  0  0  0  0  0
  -17.3806   36.9108   39.6800 N   0  0  0  0  0  0  0  0  0  0  0  0
  -17.7834   37.6566   39.1791 H   0  0  0  0  0  0  0  0  0  0  0  0
  -16.6684   36.3695   39.2689 H   0  0  0  0  0  0  0  0  0  0  0  0
  -17.3256   33.1215   42.1689 O   0  0  0  0  0  0  0  0  0  0  0  0
  -16.8380   34.0153   41.1529 S   0  0  0  0  0  0  0  0  0  0  0  0
  -17.3213   33.9343   39.8005 O   0  0  0  0  0  0  0  0  0  0  0  0
  -15.2230   33.9736   41.1777 N   0  0  0  0  0  0  0  0  0  0  0  0
  -14.9020   33.0529   40.8783 H   0  0  0  0  0  0  0  0  0  0  0  0
  -14.8926   34.1572   42.1251 H   0  0  0  0  0  0  0  0  0  0  0  0
 18 17  1  0  0  0
 18 20  1  0  0  0
 17 16  1  0  0  0
  8 10  1  0  0  0
 24 25  2  0  0  0
 25 26  2  0  0  0
 25 27  1  0  0  0
 25 19  1  0  0  0
 19 20  2  0  0  0
 20 21  1  0  0  0
 16  1  1  0  0  0
  1  2  1  0  0  0
  2  3  2  0  0  0
  2  6  1  0  0  0
  3  4  1  0  0  0
  4  5  2  0  0  0
  5  6  1  0  0  0
  9 10  2  0  0  0
 10 11  1  0  0  0
  4  9  1  0  0  0
  8 12  1  0  0  0
  8 13  1  0  0  0
 27 28  1  0  0  0
 27 29  1  0  0  0
 21 22  1  0  0  0
 21 23  1  0  0  0
  5  7  1  0  0  0
 11 14  1  0  0  0
 11 15  1  0  0  0
M  END
> <minimizedAffinity>
-5.98081

$$$$
6G3V_FO9_A_302


 29 29  0  0  0  0  0  0  0  0999 V2000
  -21.4819   36.5371   45.1549 C   0  0  0  0  0  0  0  0  0  0  0  0
  -20.4789   36.3970   46.2494 C   0  0  0  0  0  0  0  0  0  0  0  0
  -20.1420   35.1260   46.6812 N   0  0  0  0  0  0  0  0  0  0  0  0
  -19.2386   35.2180   47.6556 C   0  0  0  0  0  0  0  0  0  0  0  0
  -18.7662   36.8088   48.0850 S   0  0  0  0  0  0  0  0  0  0  0  0
  -19.8453   37.4087   46.8837 C   0  0  0  0  0  0  0  0  0  0  0  0
  -17.4556   37.0878   47.8527 H   0  0  0  0  0  0  0  0  0  0  0  0
  -20.5371   33.6512   49.6135 N   0  0  0  0  0  0  0  0  0  0  0  0
  -18.6985   34.1461   48.2967 N   0  0  0  0  0  0  0  0  0  0  0  0
  -19.3039   33.3769   49.2422 C   0  0  0  0  0  0  0  0  0  0  0  0
  -18.6507   32.3672   49.7758 N   0  0  0  0  0  0  0  0  0  0  0  0
  -21.0163   34.4093   49.2074 H   0  0  0  0  0  0  0  0  0  0  0  0
  -20.9799   33.0982   50.2972 H   0  0  0  0  0  0  0  0  0  0  0  0
  -19.0837   31.8074   50.4602 H   0  0  0  0  0  0  0  0  0  0  0  0
  -17.7289   32.1715   49.4907 H   0  0  0  0  0  0  0  0  0  0  0  0
  -20.8965   37.5325   43.7566 S   0  0  0  0  0  0  0  0  0  0  0  0
  -19.3110   36.7359   43.3805 C   0  0  0  0  0  0  0  0  0  0  0  0
  -18.4793   37.5303   42.3953 C   0  0  0  0  0  0  0  0  0  0  0  0
  -16.9642   35.6154   41.8342 N   0  0  0  0  0  0  0  0  0  0  0  0
  -17.7802   36.6646   41.4047 C   0  0  0  0  0  0  0  0  0  0  0  0
  -17.9548   36.9215   40.0896 N   0  0  0  0  0  0  0  0  0  0  0  0
  -18.5339   37.6655   39.8061 H   0  0  0  0  0  0  0  0  0  0  0  0
  -17.5031   36.3647   39.4150 H   0  0  0  0  0  0  0  0  0  0  0  0
  -17.3425   33.1699   42.2467 O   0  0  0  0  0  0  0  0  0  0  0  0
  -16.8309   34.0402   41.2221 S   0  0  0  0  0  0  0  0  0  0  0  0
  -17.4480   34.0998   39.9241 O   0  0  0  0  0  0  0  0  0  0  0  0
  -15.2438   33.7728   41.0799 N   0  0  0  0  0  0  0  0  0  0  0  0
  -15.0888   32.8337   40.7131 H   0  0  0  0  0  0  0  0  0  0  0  0
  -14.8013   33.8577   41.9950 H   0  0  0  0  0  0  0  0  0  0  0  0
 18 17  1  0  0  0
 18 20  1  0  0  0
 17 16  1  0  0  0
  8 10  1  0  0  0
 24 25  2  0  0  0
 25 26  2  0  0  0
 25 27  1  0  0  0
 25 19  1  0  0  0
 19 20  2  0  0  0
 20 21  1  0  0  0
 16  1  1  0  0  0
  1  2  1  0  0  0
  2  3  2  0  0  0
  2  6  1  0  0  0
  3  4  1  0  0  0
  4  5  2  0  0  0
  5  6  1  0  0  0
  9 10  2  0  0  0
 10 11  1  0  0  0
  4  9  1  0  0  0
  8 12  1  0  0  0
  8 13  1  0  0  0
 27 28  1  0  0  0
 27 29  1  0  0  0
 21 22  1  0  0  0
 21 23  1  0  0  0
  5  7  1  0  0  0
 11 14  1  0  0  0
 11 15  1  0  0  0
M  END
> <minimizedAffinity>
-5.90868

$$$$
6G3V_FO9_A_302


 29 29  0  0  0  0  0  0  0  0999 V2000
  -20.1993   37.7029   45.8450 C   0  0  0  0  0  0  0  0  0  0  0  0
  -19.8134   36.7686   46.9411 C   0  0  0  0  0  0  0  0  0  0  0  0
  -18.4700   36.6057   47.2314 N   0  0  0  0  0  0  0  0  0  0  0  0
  -18.3389   35.7372   48.2327 C   0  0  0  0  0  0  0  0  0  0  0  0
  -19.8001   35.0919   48.8546 S   0  0  0  0  0  0  0  0  0  0  0  0
  -20.6607   36.0420   47.7038 C   0  0  0  0  0  0  0  0  0  0  0  0
  -20.0507   35.4167   50.1513 H   0  0  0  0  0  0  0  0  0  0  0  0
  -16.7394   37.2931   49.9633 N   0  0  0  0  0  0  0  0  0  0  0  0
  -17.1431   35.3575   48.7593 N   0  0  0  0  0  0  0  0  0  0  0  0
  -16.3556   36.0889   49.5943 C   0  0  0  0  0  0  0  0  0  0  0  0
  -15.2186   35.5852   50.0239 N   0  0  0  0  0  0  0  0  0  0  0  0
  -17.5923   37.6599   49.6356 H   0  0  0  0  0  0  0  0  0  0  0  0
  -16.1736   37.8267   50.5669 H   0  0  0  0  0  0  0  0  0  0  0  0
  -14.6449   36.1098   50.6280 H   0  0  0  0  0  0  0  0  0  0  0  0
  -14.9415   34.6838   49.7412 H   0  0  0  0  0  0  0  0  0  0  0  0
  -20.7305   36.8628   44.3281 S   0  0  0  0  0  0  0  0  0  0  0  0
  -19.1408   36.3607   43.6137 C   0  0  0  0  0  0  0  0  0  0  0  0
  -18.7785   37.1600   42.3795 C   0  0  0  0  0  0  0  0  0  0  0  0
  -16.9845   35.4461   42.0312 N   0  0  0  0  0  0  0  0  0  0  0  0
  -17.7934   36.4583   41.5095 C   0  0  0  0  0  0  0  0  0  0  0  0
  -17.7040   36.8264   40.2124 N   0  0  0  0  0  0  0  0  0  0  0  0
  -18.2826   37.5421   39.8628 H   0  0  0  0  0  0  0  0  0  0  0  0
  -17.0602   36.3789   39.6170 H   0  0  0  0  0  0  0  0  0  0  0  0
  -15.1192   33.9468   41.2785 O   0  0  0  0  0  0  0  0  0  0  0  0
  -16.5560   33.9555   41.3471 S   0  0  0  0  0  0  0  0  0  0  0  0
  -17.2665   32.9782   42.1276 O   0  0  0  0  0  0  0  0  0  0  0  0
  -17.1324   33.9992   39.8383 N   0  0  0  0  0  0  0  0  0  0  0  0
  -16.9083   33.1249   39.3633 H   0  0  0  0  0  0  0  0  0  0  0  0
  -16.7082   34.7782   39.3348 H   0  0  0  0  0  0  0  0  0  0  0  0
 18 17  1  0  0  0
 18 20  1  0  0  0
 17 16  1  0  0  0
  8 10  1  0  0  0
 24 25  2  0  0  0
 25 26  2  0  0  0
 25 27  1  0  0  0
 25 19  1  0  0  0
 19 20  2  0  0  0
 20 21  1  0  0  0
 16  1  1  0  0  0
  1  2  1  0  0  0
  2  3  2  0  0  0
  2  6  1  0  0  0
  3  4  1  0  0  0
  4  5  2  0  0  0
  5  6  1  0  0  0
  9 10  2  0  0  0
 10 11  1  0  0  0
  4  9  1  0  0  0
  8 12  1  0  0  0
  8 13  1  0  0  0
 27 28  1  0  0  0
 27 29  1  0  0  0
 21 22  1  0  0  0
 21 23  1  0  0  0
  5  7  1  0  0  0
 11 14  1  0  0  0
 11 15  1  0  0  0
M  END
> <minimizedAffinity>
-5.90318

$$$$
6G3V_FO9_A_302


 29 29  0  0  0  0  0  0  0  0999 V2000
  -17.6164   36.4488   47.9133 C   0  0  0  0  0  0  0  0  0  0  0  0
  -17.3910   35.3261   48.8683 C   0  0  0  0  0  0  0  0  0  0  0  0
  -18.2171   34.2180   48.7958 N   0  0  0  0  0  0  0  0  0  0  0  0
  -17.8533   33.3371   49.7262 C   0  0  0  0  0  0  0  0  0  0  0  0
  -16.5268   33.7976   50.7093 S   0  0  0  0  0  0  0  0  0  0  0  0
  -16.4382   35.2738   49.8259 C   0  0  0  0  0  0  0  0  0  0  0  0
  -15.4314   33.0013   50.5840 H   0  0  0  0  0  0  0  0  0  0  0  0
  -20.6241   32.9528   50.1128 N   0  0  0  0  0  0  0  0  0  0  0  0
  -18.4660   32.1376   49.9199 N   0  0  0  0  0  0  0  0  0  0  0  0
  -19.7974   31.9279   50.1080 C   0  0  0  0  0  0  0  0  0  0  0  0
  -20.2450   30.7032   50.2835 N   0  0  0  0  0  0  0  0  0  0  0  0
  -20.2781   33.8649   49.9805 H   0  0  0  0  0  0  0  0  0  0  0  0
  -21.5882   32.8069   50.2487 H   0  0  0  0  0  0  0  0  0  0  0  0
  -21.2071   30.5456   50.4200 H   0  0  0  0  0  0  0  0  0  0  0  0
  -19.6177   29.9444   50.2782 H   0  0  0  0  0  0  0  0  0  0  0  0
  -18.6887   36.0110   46.5178 S   0  0  0  0  0  0  0  0  0  0  0  0
  -17.7609   36.6941   45.1169 C   0  0  0  0  0  0  0  0  0  0  0  0
  -18.6021   36.8119   43.8631 C   0  0  0  0  0  0  0  0  0  0  0  0
  -17.0348   35.2729   42.6582 N   0  0  0  0  0  0  0  0  0  0  0  0
  -17.8664   36.3950   42.6367 C   0  0  0  0  0  0  0  0  0  0  0  0
  -18.0236   37.1275   41.5121 N   0  0  0  0  0  0  0  0  0  0  0  0
  -18.6141   37.9153   41.5162 H   0  0  0  0  0  0  0  0  0  0  0  0
  -17.5476   36.8735   40.6886 H   0  0  0  0  0  0  0  0  0  0  0  0
  -17.2267   32.8226   42.1552 O   0  0  0  0  0  0  0  0  0  0  0  0
  -16.8554   34.0481   41.5000 S   0  0  0  0  0  0  0  0  0  0  0  0
  -17.5795   34.5232   40.3515 O   0  0  0  0  0  0  0  0  0  0  0  0
  -15.2719   33.9910   41.1841 N   0  0  0  0  0  0  0  0  0  0  0  0
  -15.0900   33.2681   40.4879 H   0  0  0  0  0  0  0  0  0  0  0  0
  -14.7619   33.7743   42.0405 H   0  0  0  0  0  0  0  0  0  0  0  0
 18 17  1  0  0  0
 18 20  1  0  0  0
 17 16  1  0  0  0
  8 10  1  0  0  0
 24 25  2  0  0  0
 25 26  2  0  0  0
 25 27  1  0  0  0
 25 19  1  0  0  0
 19 20  2  0  0  0
 20 21  1  0  0  0
 16  1  1  0  0  0
  1  2  1  0  0  0
  2  3  2  0  0  0
  2  6  1  0  0  0
  3  4  1  0  0  0
  4  5  2  0  0  0
  5  6  1  0  0  0
  9 10  2  0  0  0
 10 11  1  0  0  0
  4  9  1  0  0  0
  8 12  1  0  0  0
  8 13  1  0  0  0
 27 28  1  0  0  0
 27 29  1  0  0  0
 21 22  1  0  0  0
 21 23  1  0  0  0
  5  7  1  0  0  0
 11 14  1  0  0  0
 11 15  1  0  0  0
M  END
> <minimizedAffinity>
-5.75692

$$$$
6G3V_FO9_A_302


 29 29  0  0  0  0  0  0  0  0999 V2000
  -21.0299   36.6962   44.5049 C   0  0  0  0  0  0  0  0  0  0  0  0
  -21.1165   36.5981   45.9903 C   0  0  0  0  0  0  0  0  0  0  0  0
  -20.8717   35.3747   46.5894 N   0  0  0  0  0  0  0  0  0  0  0  0
  -20.9985   35.4986   47.9094 C   0  0  0  0  0  0  0  0  0  0  0  0
  -21.4106   37.0637   48.4740 S   0  0  0  0  0  0  0  0  0  0  0  0
  -21.4179   37.6062   46.8390 C   0  0  0  0  0  0  0  0  0  0  0  0
  -20.4624   37.6469   49.2553 H   0  0  0  0  0  0  0  0  0  0  0  0
  -18.6988   33.8704   48.0948 N   0  0  0  0  0  0  0  0  0  0  0  0
  -20.8219   34.4767   48.7904 N   0  0  0  0  0  0  0  0  0  0  0  0
  -19.7242   33.6795   48.8984 C   0  0  0  0  0  0  0  0  0  0  0  0
  -19.6990   32.7259   49.8045 N   0  0  0  0  0  0  0  0  0  0  0  0
  -18.7286   34.5871   47.4204 H   0  0  0  0  0  0  0  0  0  0  0  0
  -17.9022   33.2966   48.1683 H   0  0  0  0  0  0  0  0  0  0  0  0
  -18.9076   32.1462   49.8871 H   0  0  0  0  0  0  0  0  0  0  0  0
  -20.4716   32.5921   50.3998 H   0  0  0  0  0  0  0  0  0  0  0  0
  -19.4922   37.4557   43.9157 S   0  0  0  0  0  0  0  0  0  0  0  0
  -18.2622   36.2162   44.4063 C   0  0  0  0  0  0  0  0  0  0  0  0
  -17.1124   36.1167   43.4257 C   0  0  0  0  0  0  0  0  0  0  0  0
  -17.6189   35.7178   41.0046 N   0  0  0  0  0  0  0  0  0  0  0  0
  -17.4071   35.2036   42.2860 C   0  0  0  0  0  0  0  0  0  0  0  0
  -17.4647   33.8748   42.5247 N   0  0  0  0  0  0  0  0  0  0  0  0
  -17.3125   33.5311   43.4346 H   0  0  0  0  0  0  0  0  0  0  0  0
  -17.6587   33.2504   41.7887 H   0  0  0  0  0  0  0  0  0  0  0  0
  -18.2069   34.5860   38.8442 O   0  0  0  0  0  0  0  0  0  0  0  0
  -17.0601   35.1416   39.5115 S   0  0  0  0  0  0  0  0  0  0  0  0
  -16.3346   36.2458   38.9427 O   0  0  0  0  0  0  0  0  0  0  0  0
  -16.0523   33.9317   39.8734 N   0  0  0  0  0  0  0  0  0  0  0  0
  -15.6751   33.5345   39.0129 H   0  0  0  0  0  0  0  0  0  0  0  0
  -16.5579   33.2104   40.3877 H   0  0  0  0  0  0  0  0  0  0  0  0
 18 17  1  0  0  0
 18 20  1  0  0  0
 17 16  1  0  0  0
  8 10  1  0  0  0
 24 25  2  0  0  0
 25 26  2  0  0  0
 25 27  1  0  0  0
 25 19  1  0  0  0
 19 20  2  0  0  0
 20 21  1  0  0  0
 16  1  1  0  0  0
  1  2  1  0  0  0
  2  3  2  0  0  0
  2  6  1  0  0  0
  3  4  1  0  0  0
  4  5  2  0  0  0
  5  6  1  0  0  0
  9 10  2  0  0  0
 10 11  1  0  0  0
  4  9  1  0  0  0
  8 12  1  0  0  0
  8 13  1  0  0  0
 27 28  1  0  0  0
 27 29  1  0  0  0
 21 22  1  0  0  0
 21 23  1  0  0  0
  5  7  1  0  0  0
 11 14  1  0  0  0
 11 15  1  0  0  0
M  END
> <minimizedAffinity>
-5.74152

$$$$
6G3V_FO9_A_302


 29 29  0  0  0  0  0  0  0  0999 V2000
  -18.3276   37.8513   45.5371 C   0  0  0  0  0  0  0  0  0  0  0  0
  -18.5524   38.8905   46.5826 C   0  0  0  0  0  0  0  0  0  0  0  0
  -17.5131   39.2027   47.4415 N   0  0  0  0  0  0  0  0  0  0  0  0
  -17.9144   40.1453   48.2926 C   0  0  0  0  0  0  0  0  0  0  0  0
  -19.5298   40.6849   48.0984 S   0  0  0  0  0  0  0  0  0  0  0  0
  -19.6970   39.5803   46.7871 C   0  0  0  0  0  0  0  0  0  0  0  0
  -19.6467   41.9939   47.7488 H   0  0  0  0  0  0  0  0  0  0  0  0
  -16.7054   38.6957   50.3930 N   0  0  0  0  0  0  0  0  0  0  0  0
  -17.1277   40.6748   49.2685 N   0  0  0  0  0  0  0  0  0  0  0  0
  -16.5350   39.9973   50.2893 C   0  0  0  0  0  0  0  0  0  0  0  0
  -15.7981   40.6498   51.1622 N   0  0  0  0  0  0  0  0  0  0  0  0
  -17.2590   38.2177   49.7340 H   0  0  0  0  0  0  0  0  0  0  0  0
  -16.2793   38.2006   51.1295 H   0  0  0  0  0  0  0  0  0  0  0  0
  -15.3670   40.1649   51.9026 H   0  0  0  0  0  0  0  0  0  0  0  0
  -15.6778   41.6230   51.0750 H   0  0  0  0  0  0  0  0  0  0  0  0
  -19.8072   36.8756   45.1531 S   0  0  0  0  0  0  0  0  0  0  0  0
  -19.6297   36.6332   43.3643 C   0  0  0  0  0  0  0  0  0  0  0  0
  -18.3778   37.2807   42.8102 C   0  0  0  0  0  0  0  0  0  0  0  0
  -16.7730   35.5382   41.9945 N   0  0  0  0  0  0  0  0  0  0  0  0
  -17.7585   36.4870   41.7121 C   0  0  0  0  0  0  0  0  0  0  0  0
  -18.1724   36.7095   40.4452 N   0  0  0  0  0  0  0  0  0  0  0  0
  -18.8683   37.3825   40.2657 H   0  0  0  0  0  0  0  0  0  0  0  0
  -17.7781   36.1988   39.7016 H   0  0  0  0  0  0  0  0  0  0  0  0
  -15.1492   33.7857   41.2291 O   0  0  0  0  0  0  0  0  0  0  0  0
  -16.5686   33.9810   41.3566 S   0  0  0  0  0  0  0  0  0  0  0  0
  -17.3601   33.1320   42.2062 O   0  0  0  0  0  0  0  0  0  0  0  0
  -17.2042   34.0433   39.8725 N   0  0  0  0  0  0  0  0  0  0  0  0
  -17.1148   33.1307   39.4257 H   0  0  0  0  0  0  0  0  0  0  0  0
  -16.7087   34.7426   39.3194 H   0  0  0  0  0  0  0  0  0  0  0  0
 18 17  1  0  0  0
 18 20  1  0  0  0
 17 16  1  0  0  0
  8 10  1  0  0  0
 24 25  2  0  0  0
 25 26  2  0  0  0
 25 27  1  0  0  0
 25 19  1  0  0  0
 19 20  2  0  0  0
 20 21  1  0  0  0
 16  1  1  0  0  0
  1  2  1  0  0  0
  2  3  2  0  0  0
  2  6  1  0  0  0
  3  4  1  0  0  0
  4  5  2  0  0  0
  5  6  1  0  0  0
  9 10  2  0  0  0
 10 11  1  0  0  0
  4  9  1  0  0  0
  8 12  1  0  0  0
  8 13  1  0  0  0
 27 28  1  0  0  0
 27 29  1  0  0  0
 21 22  1  0  0  0
 21 23  1  0  0  0
  5  7  1  0  0  0
 11 14  1  0  0  0
 11 15  1  0  0  0
M  END
> <minimizedAffinity>
-5.72402

$$$$
6G3V_FO9_A_302


 29 29  0  0  0  0  0  0  0  0999 V2000
  -19.2028   36.9593   46.6477 C   0  0  0  0  0  0  0  0  0  0  0  0
  -18.6698   36.6176   47.9977 C   0  0  0  0  0  0  0  0  0  0  0  0
  -19.1464   35.4832   48.6312 N   0  0  0  0  0  0  0  0  0  0  0  0
  -18.5493   35.3573   49.8151 C   0  0  0  0  0  0  0  0  0  0  0  0
  -17.4108   36.5769   50.2081 S   0  0  0  0  0  0  0  0  0  0  0  0
  -17.7436   37.3186   48.6894 C   0  0  0  0  0  0  0  0  0  0  0  0
  -16.1339   36.1298   50.3472 H   0  0  0  0  0  0  0  0  0  0  0  0
  -18.2354   32.6053   49.2650 N   0  0  0  0  0  0  0  0  0  0  0  0
  -18.7960   34.3431   50.6881 N   0  0  0  0  0  0  0  0  0  0  0  0
  -18.6522   33.0116   50.4461 C   0  0  0  0  0  0  0  0  0  0  0  0
  -18.9315   32.1438   51.3948 N   0  0  0  0  0  0  0  0  0  0  0  0
  -18.0294   33.2636   48.5626 H   0  0  0  0  0  0  0  0  0  0  0  0
  -18.1298   31.6433   49.0844 H   0  0  0  0  0  0  0  0  0  0  0  0
  -18.8294   31.1794   51.2254 H   0  0  0  0  0  0  0  0  0  0  0  0
  -19.2426   32.4589   52.2741 H   0  0  0  0  0  0  0  0  0  0  0  0
  -17.9363   36.9768   45.3499 S   0  0  0  0  0  0  0  0  0  0  0  0
  -18.8794   36.3988   43.9125 C   0  0  0  0  0  0  0  0  0  0  0  0
  -18.6532   37.2558   42.6845 C   0  0  0  0  0  0  0  0  0  0  0  0
  -16.9347   35.5646   42.0036 N   0  0  0  0  0  0  0  0  0  0  0  0
  -17.8401   36.5658   41.6443 C   0  0  0  0  0  0  0  0  0  0  0  0
  -18.0005   36.9333   40.3539 N   0  0  0  0  0  0  0  0  0  0  0  0
  -18.6436   37.6411   40.1199 H   0  0  0  0  0  0  0  0  0  0  0  0
  -17.4743   36.4933   39.6477 H   0  0  0  0  0  0  0  0  0  0  0  0
  -17.3860   34.0831   40.0299 O   0  0  0  0  0  0  0  0  0  0  0  0
  -16.6232   34.0787   41.2495 S   0  0  0  0  0  0  0  0  0  0  0  0
  -15.1887   33.9752   41.2259 O   0  0  0  0  0  0  0  0  0  0  0  0
  -17.2528   32.9627   42.2337 N   0  0  0  0  0  0  0  0  0  0  0  0
  -17.1000   32.0352   41.8379 H   0  0  0  0  0  0  0  0  0  0  0  0
  -18.2540   33.1272   42.3380 H   0  0  0  0  0  0  0  0  0  0  0  0
 18 17  1  0  0  0
 18 20  1  0  0  0
 17 16  1  0  0  0
  8 10  1  0  0  0
 24 25  2  0  0  0
 25 26  2  0  0  0
 25 27  1  0  0  0
 25 19  1  0  0  0
 19 20  2  0  0  0
 20 21  1  0  0  0
 16  1  1  0  0  0
  1  2  1  0  0  0
  2  3  2  0  0  0
  2  6  1  0  0  0
  3  4  1  0  0  0
  4  5  2  0  0  0
  5  6  1  0  0  0
  9 10  2  0  0  0
 10 11  1  0  0  0
  4  9  1  0  0  0
  8 12  1  0  0  0
  8 13  1  0  0  0
 27 28  1  0  0  0
 27 29  1  0  0  0
 21 22  1  0  0  0
 21 23  1  0  0  0
  5  7  1  0  0  0
 11 14  1  0  0  0
 11 15  1  0  0  0
M  END
> <minimizedAffinity>
-5.57926

$$$$
6G3V_FO9_A_302


 29 29  0  0  0  0  0  0  0  0999 V2000
  -19.4953   35.6006   45.5344 C   0  0  0  0  0  0  0  0  0  0  0  0
  -19.3198   35.8409   46.9955 C   0  0  0  0  0  0  0  0  0  0  0  0
  -18.4893   34.9963   47.7113 N   0  0  0  0  0  0  0  0  0  0  0  0
  -18.4689   35.3776   48.9872 C   0  0  0  0  0  0  0  0  0  0  0  0
  -19.4311   36.7431   49.3716 S   0  0  0  0  0  0  0  0  0  0  0  0
  -19.9029   36.8243   47.7168 C   0  0  0  0  0  0  0  0  0  0  0  0
  -18.7271   37.8215   49.8087 H   0  0  0  0  0  0  0  0  0  0  0  0
  -18.4114   32.5936   49.4566 N   0  0  0  0  0  0  0  0  0  0  0  0
  -17.7460   34.7538   49.9568 N   0  0  0  0  0  0  0  0  0  0  0  0
  -17.7024   33.4158   50.2017 C   0  0  0  0  0  0  0  0  0  0  0  0
  -16.9525   32.9575   51.1808 N   0  0  0  0  0  0  0  0  0  0  0  0
  -18.9691   32.9477   48.7267 H   0  0  0  0  0  0  0  0  0  0  0  0
  -18.3839   31.6248   49.6295 H   0  0  0  0  0  0  0  0  0  0  0  0
  -16.9172   31.9906   51.3626 H   0  0  0  0  0  0  0  0  0  0  0  0
  -16.4268   33.5815   51.7316 H   0  0  0  0  0  0  0  0  0  0  0  0
  -19.9801   37.0823   44.6079 S   0  0  0  0  0  0  0  0  0  0  0  0
  -18.3827   37.6456   43.9594 C   0  0  0  0  0  0  0  0  0  0  0  0
  -18.2490   37.4242   42.4672 C   0  0  0  0  0  0  0  0  0  0  0  0
  -17.7935   35.5148   40.9104 N   0  0  0  0  0  0  0  0  0  0  0  0
  -17.5625   36.1442   42.1358 C   0  0  0  0  0  0  0  0  0  0  0  0
  -16.7181   35.6126   43.0469 N   0  0  0  0  0  0  0  0  0  0  0  0
  -16.5680   36.0708   43.9053 H   0  0  0  0  0  0  0  0  0  0  0  0
  -16.2529   34.7670   42.8524 H   0  0  0  0  0  0  0  0  0  0  0  0
  -17.4299   33.7494   39.1653 O   0  0  0  0  0  0  0  0  0  0  0  0
  -16.6898   34.7657   39.8642 S   0  0  0  0  0  0  0  0  0  0  0  0
  -16.0674   35.8502   39.1532 O   0  0  0  0  0  0  0  0  0  0  0  0
  -15.6186   34.0357   40.8287 N   0  0  0  0  0  0  0  0  0  0  0  0
  -14.9180   33.5601   40.2602 H   0  0  0  0  0  0  0  0  0  0  0  0
  -16.0992   33.3545   41.4164 H   0  0  0  0  0  0  0  0  0  0  0  0
 18 17  1  0  0  0
 18 20  1  0  0  0
 17 16  1  0  0  0
  8 10  1  0  0  0
 24 25  2  0  0  0
 25 26  2  0  0  0
 25 27  1  0  0  0
 25 19  1  0  0  0
 19 20  2  0  0  0
 20 21  1  0  0  0
 16  1  1  0  0  0
  1  2  1  0  0  0
  2  3  2  0  0  0
  2  6  1  0  0  0
  3  4  1  0  0  0
  4  5  2  0  0  0
  5  6  1  0  0  0
  9 10  2  0  0  0
 10 11  1  0  0  0
  4  9  1  0  0  0
  8 12  1  0  0  0
  8 13  1  0  0  0
 27 28  1  0  0  0
 27 29  1  0  0  0
 21 22  1  0  0  0
 21 23  1  0  0  0
  5  7  1  0  0  0
 11 14  1  0  0  0
 11 15  1  0  0  0
M  END
> <minimizedAffinity>
-5.52603

$$$$
6G3V_FO9_A_302


 29 29  0  0  0  0  0  0  0  0999 V2000
  -19.2500   35.3616   45.5477 C   0  0  0  0  0  0  0  0  0  0  0  0
  -20.0077   35.6746   46.7933 C   0  0  0  0  0  0  0  0  0  0  0  0
  -21.2077   35.0238   47.0206 N   0  0  0  0  0  0  0  0  0  0  0  0
  -21.7216   35.4405   48.1766 C   0  0  0  0  0  0  0  0  0  0  0  0
  -20.7991   36.6119   49.0221 S   0  0  0  0  0  0  0  0  0  0  0  0
  -19.6367   36.5524   47.7521 C   0  0  0  0  0  0  0  0  0  0  0  0
  -20.3333   36.1953   50.2300 H   0  0  0  0  0  0  0  0  0  0  0  0
  -24.1751   35.3042   46.7852 N   0  0  0  0  0  0  0  0  0  0  0  0
  -22.8991   34.9933   48.6915 N   0  0  0  0  0  0  0  0  0  0  0  0
  -24.0923   34.9183   48.0414 C   0  0  0  0  0  0  0  0  0  0  0  0
  -25.1510   34.4614   48.6748 N   0  0  0  0  0  0  0  0  0  0  0  0
  -23.3764   35.6445   46.3211 H   0  0  0  0  0  0  0  0  0  0  0  0
  -25.0358   35.2524   46.3100 H   0  0  0  0  0  0  0  0  0  0  0  0
  -26.0168   34.4050   48.2095 H   0  0  0  0  0  0  0  0  0  0  0  0
  -25.0775   34.1759   49.6141 H   0  0  0  0  0  0  0  0  0  0  0  0
  -19.7144   36.3995   44.1350 S   0  0  0  0  0  0  0  0  0  0  0  0
  -18.1296   37.1760   43.7167 C   0  0  0  0  0  0  0  0  0  0  0  0
  -17.0395   36.1620   43.4388 C   0  0  0  0  0  0  0  0  0  0  0  0
  -17.5874   35.7549   41.0282 N   0  0  0  0  0  0  0  0  0  0  0  0
  -17.3793   35.2476   42.3129 C   0  0  0  0  0  0  0  0  0  0  0  0
  -17.4812   33.9244   42.5672 N   0  0  0  0  0  0  0  0  0  0  0  0
  -17.3310   33.5854   43.4793 H   0  0  0  0  0  0  0  0  0  0  0  0
  -17.7057   33.2993   41.8405 H   0  0  0  0  0  0  0  0  0  0  0  0
  -18.2322   34.5834   38.9055 O   0  0  0  0  0  0  0  0  0  0  0  0
  -17.0664   35.1429   39.5356 S   0  0  0  0  0  0  0  0  0  0  0  0
  -16.3447   36.2287   38.9279 O   0  0  0  0  0  0  0  0  0  0  0  0
  -16.0608   33.9321   39.9007 N   0  0  0  0  0  0  0  0  0  0  0  0
  -15.7060   33.5138   39.0408 H   0  0  0  0  0  0  0  0  0  0  0  0
  -16.5608   33.2261   40.4411 H   0  0  0  0  0  0  0  0  0  0  0  0
 18 17  1  0  0  0
 18 20  1  0  0  0
 17 16  1  0  0  0
  8 10  1  0  0  0
 24 25  2  0  0  0
 25 26  2  0  0  0
 25 27  1  0  0  0
 25 19  1  0  0  0
 19 20  2  0  0  0
 20 21  1  0  0  0
 16  1  1  0  0  0
  1  2  1  0  0  0
  2  3  2  0  0  0
  2  6  1  0  0  0
  3  4  1  0  0  0
  4  5  2  0  0  0
  5  6  1  0  0  0
  9 10  2  0  0  0
 10 11  1  0  0  0
  4  9  1  0  0  0
  8 12  1  0  0  0
  8 13  1  0  0  0
 27 28  1  0  0  0
 27 29  1  0  0  0
 21 22  1  0  0  0
 21 23  1  0  0  0
  5  7  1  0  0  0
 11 14  1  0  0  0
 11 15  1  0  0  0
M  END
> <minimizedAffinity>
-5.46664

$$$$
6G3V_FO9_A_302


 29 29  0  0  0  0  0  0  0  0999 V2000
  -18.5840   38.4823   45.5195 C   0  0  0  0  0  0  0  0  0  0  0  0
  -19.5818   38.2880   46.6105 C   0  0  0  0  0  0  0  0  0  0  0  0
  -20.8591   37.8741   46.2748 N   0  0  0  0  0  0  0  0  0  0  0  0
  -21.5898   37.7613   47.3827 C   0  0  0  0  0  0  0  0  0  0  0  0
  -20.7849   38.1421   48.8474 S   0  0  0  0  0  0  0  0  0  0  0  0
  -19.3655   38.4790   47.9312 C   0  0  0  0  0  0  0  0  0  0  0  0
  -20.6625   37.0973   49.7093 H   0  0  0  0  0  0  0  0  0  0  0  0
  -22.5394   35.1758   46.7599 N   0  0  0  0  0  0  0  0  0  0  0  0
  -22.8938   37.3726   47.3983 N   0  0  0  0  0  0  0  0  0  0  0  0
  -23.3746   36.1343   47.1025 C   0  0  0  0  0  0  0  0  0  0  0  0
  -24.6693   35.9076   47.1616 N   0  0  0  0  0  0  0  0  0  0  0  0
  -21.5725   35.3567   46.7190 H   0  0  0  0  0  0  0  0  0  0  0  0
  -22.8817   34.2781   46.5446 H   0  0  0  0  0  0  0  0  0  0  0  0
  -25.0228   35.0138   46.9487 H   0  0  0  0  0  0  0  0  0  0  0  0
  -25.2845   36.6319   47.4187 H   0  0  0  0  0  0  0  0  0  0  0  0
  -17.9458   36.9293   44.8341 S   0  0  0  0  0  0  0  0  0  0  0  0
  -18.9025   36.7877   43.2997 C   0  0  0  0  0  0  0  0  0  0  0  0
  -18.2282   37.4698   42.1278 C   0  0  0  0  0  0  0  0  0  0  0  0
  -16.6700   35.6298   41.4471 N   0  0  0  0  0  0  0  0  0  0  0  0
  -17.7107   36.5022   41.1202 C   0  0  0  0  0  0  0  0  0  0  0  0
  -18.2708   36.4929   39.8905 N   0  0  0  0  0  0  0  0  0  0  0  0
  -19.0035   37.1154   39.6786 H   0  0  0  0  0  0  0  0  0  0  0  0
  -17.9462   35.8637   39.2064 H   0  0  0  0  0  0  0  0  0  0  0  0
  -17.1735   33.7866   39.8213 O   0  0  0  0  0  0  0  0  0  0  0  0
  -16.4887   33.9870   41.0703 S   0  0  0  0  0  0  0  0  0  0  0  0
  -15.0768   33.7390   41.1894 O   0  0  0  0  0  0  0  0  0  0  0  0
  -17.2992   33.1952   42.2222 N   0  0  0  0  0  0  0  0  0  0  0  0
  -17.2317   32.1910   42.0563 H   0  0  0  0  0  0  0  0  0  0  0  0
  -18.2791   33.4778   42.2039 H   0  0  0  0  0  0  0  0  0  0  0  0
 18 17  1  0  0  0
 18 20  1  0  0  0
 17 16  1  0  0  0
  8 10  1  0  0  0
 24 25  2  0  0  0
 25 26  2  0  0  0
 25 27  1  0  0  0
 25 19  1  0  0  0
 19 20  2  0  0  0
 20 21  1  0  0  0
 16  1  1  0  0  0
  1  2  1  0  0  0
  2  3  2  0  0  0
  2  6  1  0  0  0
  3  4  1  0  0  0
  4  5  2  0  0  0
  5  6  1  0  0  0
  9 10  2  0  0  0
 10 11  1  0  0  0
  4  9  1  0  0  0
  8 12  1  0  0  0
  8 13  1  0  0  0
 27 28  1  0  0  0
 27 29  1  0  0  0
 21 22  1  0  0  0
 21 23  1  0  0  0
  5  7  1  0  0  0
 11 14  1  0  0  0
 11 15  1  0  0  0
M  END
> <minimizedAffinity>
-5.39225

$$$$
