6G3V_FO9_A_302
  RCSB PDB12081803553D
Coordinates from PDB:6G3V:A:302 Model:1 without hydrogens
 20 20  0  0  0  0            999 V2000
  -17.2430   35.9900   43.8460   C 0  0  0  0  0  0  0  0  0  0  0  0
  -17.9540   37.2910   43.5370   C 0  0  0  0  0  0  0  0  0  0  0  0
  -24.8690   35.6920   48.5800   N 0  0  0  0  0  0  0  0  0  0  0  0
  -17.5080   33.7020   39.5940   O 0  0  0  0  0  0  0  0  0  0  0  0
  -16.7060   34.8160   40.0240   S 0  0  0  0  0  0  0  0  0  0  0  0
  -16.5160   35.9630   39.1770   O 0  0  0  0  0  0  0  0  0  0  0  0
  -15.2810   34.2460   40.5290   N 0  0  0  0  0  0  0  0  0  0  0  0
  -17.4590   35.4280   41.4140   N 0  0  0  0  0  0  0  0  0  0  0  0
  -17.3520   34.9990   42.7390   C 0  0  0  0  0  0  0  0  0  0  0  0
  -17.3460   33.6840   43.0500   N 0  0  0  0  0  0  0  0  0  0  0  0
  -19.0620   37.8150   44.8740   S 0  0  0  0  0  0  0  0  0  0  0  0
  -20.6860   37.3850   44.1910   C 0  0  0  0  0  0  0  0  0  0  0  0
  -21.6360   36.8440   45.2050   C 0  0  0  0  0  0  0  0  0  0  0  0
  -22.5760   37.6980   45.7550   N 0  0  0  0  0  0  0  0  0  0  0  0
  -23.3210   37.0260   46.6310   C 0  0  0  0  0  0  0  0  0  0  0  0
  -22.9280   35.3690   46.8260   S 0  0  0  0  0  0  0  0  0  0  0  0
  -21.6780   35.5710   45.6580   C 0  0  0  0  0  0  0  0  0  0  0  0
  -24.3380   37.5780   47.3470   N 0  0  0  0  0  0  0  0  0  0  0  0
  -25.0970   36.9560   48.2900   C 0  0  0  0  0  0  0  0  0  0  0  0
  -26.0510   37.6240   48.9020   N 0  0  0  0  0  0  0  0  0  0  0  0
  1  2  1  0  0  0  0
  1  9  1  0  0  0  0
  2 11  1  0  0  0  0
  3 19  1  0  0  0  0
  4  5  2  0  0  0  0
  5  6  2  0  0  0  0
  5  7  1  0  0  0  0
  5  8  1  0  0  0  0
  8  9  2  0  0  0  0
  9 10  1  0  0  0  0
 11 12  1  0  0  0  0
 12 13  1  0  0  0  0
 13 14  2  0  0  0  0
 13 17  1  0  0  0  0
 14 15  1  0  0  0  0
 15 16  2  0  0  0  0
 16 17  1  0  0  0  0
 18 19  2  0  0  0  0
 19 20  1  0  0  0  0
 15 18  1  0  0  0  0
A    1
C1
A    2
C2
A    3
N2
A    4
O1
A    5
S2
A    6
O
A    7
N6
A    8
N5
A    9
C
A   10
N
A   11
S
A   12
C3
A   13
C4
A   14
N4
A   15
C6
A   16
S1
A   17
C5
A   18
N1
A   19
C7
A   20
N3
M  END
>  <InstanceId>
6G3V_FO9_A_302

>  <ChemCompId>
FO9

>  <PdbId>
6G3V

>  <ChainId>
A

>  <ResidueNumber>
302

>  <InsertionCode>


>  <Model>
1

>  <AltIds>


>  <MissingHeavyAtoms>
0

>  <ObservedFormula>
C8 N7 O2 S3

>  <Name>
famotidine

>  <SystematicName>
3-[[2-[bis(azanyl)methylideneamino]-5~{H}-1,3-thiazol-4-yl]methylsulfanyl]-~{N}'-sulfamoyl-propanimidamide

>  <Synonyms>


>  <Type>
NON-POLYMER

>  <Formula>
C8 H17 N7 O2 S3

>  <MolecularWeight>
339.461

>  <ModifiedDate>
2018-11-23

>  <Parent>


>  <OneLetterCode>


>  <SubcomponentList>


>  <AmbiguousFlag>
N

>  <InChI>
InChI=1S/C8H17N7O2S3/c9-6(15-20(12,16)17)1-2-18-3-5-4-19-8(13-5)14-7(10)11/h19H,1-4H2,(H2,9,15)(H4,10,11,14)(H2,12,16,17)

>  <InChIKey>
YFGRAZUYIUBWJO-UHFFFAOYSA-N

>  <SMILES>
C1C(=NC(=S1)N=C(N)N)CSCC/C(=N/S(=O)(=O)N)/N

$$$$
