2GZ2_A2P_A_502
  RCSB PDB12061705443D
Coordinates from PDB:2GZ2:A:502 Model:1 without hydrogens
 27 29  0  0  0  0            999 V2000
    1.4420    8.9460   53.3390   P 0  0  0  0  0  0  0  0  0  0  0  0
    0.9540    8.6710   51.8130   O 0  0  0  0  0  0  0  0  0  0  0  0
    3.0620    9.1320   53.2210   O 0  0  0  0  0  0  0  0  0  0  0  0
    1.0560    7.8390   54.2520   O 0  0  0  0  0  0  0  0  0  0  0  0
    3.8250   14.8310   50.2440   P 0  0  0  0  0  0  0  0  0  0  0  0
    3.8970   14.3170   48.7180   O 0  0  0  0  0  0  0  0  0  0  0  0
    4.2110   13.5180   51.1230   O 0  0  0  0  0  0  0  0  0  0  0  0
    4.7690   15.9330   50.4890   O 0  0  0  0  0  0  0  0  0  0  0  0
    2.2490   15.1100   50.6700   O 0  0  0  0  0  0  0  0  0  0  0  0
    1.3550   14.0000   50.9440   C 0  0  0  0  0  0  0  0  0  0  0  0
    1.0560   13.7820   52.4660   C 0  0  0  0  0  0  0  0  0  0  0  0
   -0.3910   13.5720   52.6600   O 0  0  0  0  0  0  0  0  0  0  0  0
    1.7100   12.5380   53.1060   C 0  0  0  0  0  0  0  0  0  0  0  0
    1.8720   12.7410   54.5170   O 0  0  0  0  0  0  0  0  0  0  0  0
    0.6480   11.4650   52.8860   C 0  0  0  0  0  0  0  0  0  0  0  0
    0.8170   10.3770   53.8070   O 0  0  0  0  0  0  0  0  0  0  0  0
   -0.5980   12.2540   53.2590   C 0  0  0  0  0  0  0  0  0  0  0  0
   -1.8240   11.6310   52.7050   N 0  0  0  0  0  0  0  0  0  0  0  0
   -2.0910   11.4230   51.4090   C 0  0  0  0  0  0  0  0  0  0  0  0
   -3.2900   10.8440   51.2890   N 0  0  0  0  0  0  0  0  0  0  0  0
   -3.7910   10.6800   52.5150   C 0  0  0  0  0  0  0  0  0  0  0  0
   -4.9750   10.1440   53.0160   C 0  0  0  0  0  0  0  0  0  0  0  0
   -5.8950    9.6630   52.1970   N 0  0  0  0  0  0  0  0  0  0  0  0
   -5.1840   10.1240   54.3430   N 0  0  0  0  0  0  0  0  0  0  0  0
   -4.2700   10.6120   55.1760   C 0  0  0  0  0  0  0  0  0  0  0  0
   -3.1240   11.1260   54.7360   N 0  0  0  0  0  0  0  0  0  0  0  0
   -2.8560   11.1770   53.4170   C 0  0  0  0  0  0  0  0  0  0  0  0
  1  2  2  0  0  0  0
  1  3  1  0  0  0  0
  1  4  1  0  0  0  0
  1 16  1  0  0  0  0
  5  6  2  0  0  0  0
  5  7  1  0  0  0  0
  5  8  1  0  0  0  0
  5  9  1  0  0  0  0
  9 10  1  0  0  0  0
 10 11  1  0  0  0  0
 11 12  1  0  0  0  0
 11 13  1  0  0  0  0
 12 17  1  0  0  0  0
 13 14  1  0  0  0  0
 13 15  1  0  0  0  0
 15 16  1  0  0  0  0
 15 17  1  0  0  0  0
 17 18  1  0  0  0  0
 18 19  1  0  0  0  0
 18 27  1  0  0  0  0
 19 20  2  0  0  0  0
 20 21  1  0  0  0  0
 21 22  1  0  0  0  0
 21 27  2  0  0  0  0
 22 23  1  0  0  0  0
 22 24  2  0  0  0  0
 24 25  1  0  0  0  0
 25 26  2  0  0  0  0
 26 27  1  0  0  0  0
A    1
P1
A    2
O1P
A    3
O2P
A    4
O3P
A    5
P2
A    6
O4P
A    7
O5P
A    8
O6P
A    9
O5'
A   10
C5'
A   11
C4'
A   12
O4'
A   13
C3'
A   14
O3'
A   15
C2'
A   16
O2'
A   17
C1'
A   18
N9
A   19
C8
A   20
N7
A   21
C5
A   22
C6
A   23
N6
A   24
N1
A   25
C2
A   26
N3
A   27
C4
M  END
>  <InstanceId>
2GZ2_A2P_A_502

>  <ChemCompId>
A2P

>  <PdbId>
2GZ2

>  <ChainId>
A

>  <ResidueNumber>
502

>  <InsertionCode>


>  <Model>
1

>  <AltIds>


>  <MissingHeavyAtoms>
0

>  <ObservedFormula>
C10 N5 O10 P2

>  <Name>
ADENOSINE-2'-5'-DIPHOSPHATE

>  <SystematicName>
[(2R,3R,4R,5R)-2-(6-aminopurin-9-yl)-4-hydroxy-5-(phosphonooxymethyl)oxolan-3-yl] dihydrogen phosphate

>  <Synonyms>


>  <Type>
NON-POLYMER

>  <Formula>
C10 H15 N5 O10 P2

>  <MolecularWeight>
427.201

>  <ModifiedDate>
2011-06-04

>  <Parent>


>  <OneLetterCode>


>  <SubcomponentList>


>  <AmbiguousFlag>
N

>  <InChI>
InChI=1S/C10H15N5O10P2/c11-8-5-9(13-2-12-8)15(3-14-5)10-7(25-27(20,21)22)6(16)4(24-10)1-23-26(17,18)19/h2-4,6-7,10,16H,1H2,(H2,11,12,13)(H2,17,18,19)(H2,20,21,22)/t4-,6-,7-,10-/m1/s1

>  <InChIKey>
AEOBEOJCBAYXBA-KQYNXXCUSA-N

>  <SMILES>
c1nc(c2c(n1)n(cn2)[C@H]3[C@@H]([C@@H]([C@H](O3)COP(=O)(O)O)O)OP(=O)(O)O)N

$$$$
