2GZ2_A2P_A_502


 34 36  0  0  0  0  0  0  0  0999 V2000
    0.9938   14.2602   53.1632 C   0  0  0  0  0  0  0  0  0  0  0  0
   -0.3644   13.6851   53.1439 O   0  0  0  0  0  0  0  0  0  0  0  0
    1.9168   13.0473   53.4116 C   0  0  0  0  0  0  0  0  0  0  0  0
    2.0110   12.7835   54.8187 O   0  0  0  0  0  0  0  0  0  0  0  0
    1.1416   11.9106   52.7526 C   0  0  0  0  0  0  0  0  0  0  0  0
   -0.2598   12.2303   53.2508 C   0  0  0  0  0  0  0  0  0  0  0  0
    1.1216   12.6543   55.1836 H   0  0  0  0  0  0  0  0  0  0  0  0
   -1.2973   11.5834   52.4123 N   0  0  0  0  0  0  0  0  0  0  0  0
   -1.2329   11.3773   51.0903 C   0  0  0  0  0  0  0  0  0  0  0  0
   -2.3519   10.7723   50.6792 N   0  0  0  0  0  0  0  0  0  0  0  0
   -3.1348   10.5897   51.7445 C   0  0  0  0  0  0  0  0  0  0  0  0
   -4.3928   10.0243   51.9390 C   0  0  0  0  0  0  0  0  0  0  0  0
   -5.0720    9.5278   50.9189 N   0  0  0  0  0  0  0  0  0  0  0  0
   -4.9208    9.9916   53.1740 N   0  0  0  0  0  0  0  0  0  0  0  0
   -4.2510   10.4949   54.2062 C   0  0  0  0  0  0  0  0  0  0  0  0
   -3.0443   11.0371   54.0614 N   0  0  0  0  0  0  0  0  0  0  0  0
   -2.4618   11.1021   52.8487 C   0  0  0  0  0  0  0  0  0  0  0  0
   -4.6869    9.5508   50.0132 H   0  0  0  0  0  0  0  0  0  0  0  0
   -5.9629    9.1351   51.0651 H   0  0  0  0  0  0  0  0  0  0  0  0
    1.2490   15.0476   51.8334 C   0  0  0  0  0  0  0  0  0  0  0  0
    2.4741   15.8258   51.8327 O   0  0  0  0  0  0  0  0  0  0  0  0
    2.4572   17.4153   52.2978 P   0  0  0  0  0  0  0  0  0  0  0  0
    3.7723   18.1627   51.7409 O   0  0  0  0  0  0  0  0  0  0  0  0
    2.7023   17.3258   53.9032 O   0  0  0  0  0  0  0  0  0  0  0  0
    1.2330   18.1703   51.9865 O   0  0  0  0  0  0  0  0  0  0  0  0
    2.7099   18.2198   54.2795 H   0  0  0  0  0  0  0  0  0  0  0  0
    1.3280   19.0835   52.2995 H   0  0  0  0  0  0  0  0  0  0  0  0
    1.5535   10.6375   53.2724 O   0  0  0  0  0  0  0  0  0  0  0  0
    2.1841    9.4817   52.3111 P   0  0  0  0  0  0  0  0  0  0  0  0
    3.3085    8.6842   53.1726 O   0  0  0  0  0  0  0  0  0  0  0  0
    1.0137    8.3721   52.0435 O   0  0  0  0  0  0  0  0  0  0  0  0
    2.7437   10.0410   51.0533 O   0  0  0  0  0  0  0  0  0  0  0  0
    1.3596    7.6686   51.4724 H   0  0  0  0  0  0  0  0  0  0  0  0
    3.1070    9.3218   50.5132 H   0  0  0  0  0  0  0  0  0  0  0  0
 29 30  2  0  0  0
 29 31  1  0  0  0
 29 32  1  0  0  0
 29 28  1  0  0  0
 22 23  2  0  0  0
 22 24  1  0  0  0
 22 25  1  0  0  0
 22 21  1  0  0  0
 21 20  1  0  0  0
 20  1  1  0  0  0
  1  2  1  0  0  0
  1  3  1  0  0  0
  2  6  1  0  0  0
  3  4  1  0  0  0
  3  5  1  0  0  0
  5 28  1  0  0  0
  5  6  1  0  0  0
  6  8  1  0  0  0
  8  9  1  0  0  0
  8 17  1  0  0  0
  9 10  2  0  0  0
 10 11  1  0  0  0
 11 12  1  0  0  0
 11 17  2  0  0  0
 12 13  1  0  0  0
 12 14  2  0  0  0
 14 15  1  0  0  0
 15 16  2  0  0  0
 16 17  1  0  0  0
 31 33  1  0  0  0
 32 34  1  0  0  0
 24 26  1  0  0  0
 25 27  1  0  0  0
  4  7  1  0  0  0
 13 18  1  0  0  0
 13 19  1  0  0  0
M  END
> <minimizedAffinity>
-8.81072

$$$$
2GZ2_A2P_A_502


 34 36  0  0  0  0  0  0  0  0999 V2000
    1.1631   14.3308   53.2418 C   0  0  0  0  0  0  0  0  0  0  0  0
   -0.2530   13.9543   53.4104 O   0  0  0  0  0  0  0  0  0  0  0  0
    1.9296   12.9965   53.3728 C   0  0  0  0  0  0  0  0  0  0  0  0
    2.1740   12.7058   54.7563 O   0  0  0  0  0  0  0  0  0  0  0  0
    0.9191   11.9888   52.8334 C   0  0  0  0  0  0  0  0  0  0  0  0
   -0.3426   12.4983   53.5136 C   0  0  0  0  0  0  0  0  0  0  0  0
    1.3326   12.6998   55.2390 H   0  0  0  0  0  0  0  0  0  0  0  0
   -1.5650   12.0147   52.8279 N   0  0  0  0  0  0  0  0  0  0  0  0
   -2.5263   11.2526   53.3657 C   0  0  0  0  0  0  0  0  0  0  0  0
   -3.4690   11.0125   52.4487 N   0  0  0  0  0  0  0  0  0  0  0  0
   -3.1086   11.6256   51.3195 C   0  0  0  0  0  0  0  0  0  0  0  0
   -3.6749   11.7362   50.0517 C   0  0  0  0  0  0  0  0  0  0  0  0
   -4.8221   11.1405   49.7732 N   0  0  0  0  0  0  0  0  0  0  0  0
   -3.0435   12.4489   49.1038 N   0  0  0  0  0  0  0  0  0  0  0  0
   -1.8856   13.0456   49.3694 C   0  0  0  0  0  0  0  0  0  0  0  0
   -1.3166   12.9686   50.5700 N   0  0  0  0  0  0  0  0  0  0  0  0
   -1.8985   12.2674   51.5618 C   0  0  0  0  0  0  0  0  0  0  0  0
   -5.2863   10.6178   50.4664 H   0  0  0  0  0  0  0  0  0  0  0  0
   -5.2120   11.2197   48.8727 H   0  0  0  0  0  0  0  0  0  0  0  0
    1.3461   15.0893   51.8836 C   0  0  0  0  0  0  0  0  0  0  0  0
    2.5403   15.9117   51.8218 O   0  0  0  0  0  0  0  0  0  0  0  0
    2.4949   17.4930   52.3122 P   0  0  0  0  0  0  0  0  0  0  0  0
    3.7922   18.2748   51.7608 O   0  0  0  0  0  0  0  0  0  0  0  0
    2.7501   17.3829   53.9148 O   0  0  0  0  0  0  0  0  0  0  0  0
    1.2546   18.2287   52.0192 O   0  0  0  0  0  0  0  0  0  0  0  0
    2.7424   18.2708   54.3052 H   0  0  0  0  0  0  0  0  0  0  0  0
    1.3333   19.1385   52.3462 H   0  0  0  0  0  0  0  0  0  0  0  0
    1.2123   10.6643   53.3027 O   0  0  0  0  0  0  0  0  0  0  0  0
    1.2348    9.3826   52.2956 P   0  0  0  0  0  0  0  0  0  0  0  0
    2.4502    9.6074   51.2398 O   0  0  0  0  0  0  0  0  0  0  0  0
    1.6908    8.0784   53.1696 O   0  0  0  0  0  0  0  0  0  0  0  0
   -0.0674    9.1861   51.6074 O   0  0  0  0  0  0  0  0  0  0  0  0
    1.7138    7.2966   52.5959 H   0  0  0  0  0  0  0  0  0  0  0  0
   -0.0099    8.4161   51.0204 H   0  0  0  0  0  0  0  0  0  0  0  0
 29 30  2  0  0  0
 29 31  1  0  0  0
 29 32  1  0  0  0
 29 28  1  0  0  0
 22 23  2  0  0  0
 22 24  1  0  0  0
 22 25  1  0  0  0
 22 21  1  0  0  0
 21 20  1  0  0  0
 20  1  1  0  0  0
  1  2  1  0  0  0
  1  3  1  0  0  0
  2  6  1  0  0  0
  3  4  1  0  0  0
  3  5  1  0  0  0
  5 28  1  0  0  0
  5  6  1  0  0  0
  6  8  1  0  0  0
  8  9  1  0  0  0
  8 17  1  0  0  0
  9 10  2  0  0  0
 10 11  1  0  0  0
 11 12  1  0  0  0
 11 17  2  0  0  0
 12 13  1  0  0  0
 12 14  2  0  0  0
 14 15  1  0  0  0
 15 16  2  0  0  0
 16 17  1  0  0  0
 31 33  1  0  0  0
 32 34  1  0  0  0
 24 26  1  0  0  0
 25 27  1  0  0  0
  4  7  1  0  0  0
 13 18  1  0  0  0
 13 19  1  0  0  0
M  END
> <minimizedAffinity>
-8.26445

$$$$
2GZ2_A2P_A_502


 34 36  0  0  0  0  0  0  0  0999 V2000
    0.7918   15.0644   48.7954 C   0  0  0  0  0  0  0  0  0  0  0  0
    0.4306   13.8786   49.5947 O   0  0  0  0  0  0  0  0  0  0  0  0
    1.0688   16.1614   49.8463 C   0  0  0  0  0  0  0  0  0  0  0  0
   -0.1601   16.7958   50.2279 O   0  0  0  0  0  0  0  0  0  0  0  0
    1.5881   15.3514   51.0303 C   0  0  0  0  0  0  0  0  0  0  0  0
    0.5939   14.2001   51.0120 C   0  0  0  0  0  0  0  0  0  0  0  0
   -0.7847   16.1255   50.5464 H   0  0  0  0  0  0  0  0  0  0  0  0
    1.1126   13.0200   51.7443 N   0  0  0  0  0  0  0  0  0  0  0  0
    2.4009   12.6893   51.9031 C   0  0  0  0  0  0  0  0  0  0  0  0
    2.4861   11.5611   52.6152 N   0  0  0  0  0  0  0  0  0  0  0  0
    1.2457   11.1697   52.9140 C   0  0  0  0  0  0  0  0  0  0  0  0
    0.7107   10.0948   53.6199 C   0  0  0  0  0  0  0  0  0  0  0  0
    1.5024    9.1826   54.1580 N   0  0  0  0  0  0  0  0  0  0  0  0
   -0.6222    9.9829   53.7468 N   0  0  0  0  0  0  0  0  0  0  0  0
   -1.4287   10.8893   53.2034 C   0  0  0  0  0  0  0  0  0  0  0  0
   -0.9552   11.9335   52.5276 N   0  0  0  0  0  0  0  0  0  0  0  0
    0.3712   12.1007   52.3634 C   0  0  0  0  0  0  0  0  0  0  0  0
    2.4793    9.2627   54.0662 H   0  0  0  0  0  0  0  0  0  0  0  0
    1.1150    8.4232   54.6505 H   0  0  0  0  0  0  0  0  0  0  0  0
    1.9884   14.7134   47.8475 C   0  0  0  0  0  0  0  0  0  0  0  0
    2.8509   13.6595   48.3493 O   0  0  0  0  0  0  0  0  0  0  0  0
    4.4343   13.9768   48.7172 P   0  0  0  0  0  0  0  0  0  0  0  0
    5.2969   14.1026   47.3614 O   0  0  0  0  0  0  0  0  0  0  0  0
    4.9393   12.5798   49.3799 O   0  0  0  0  0  0  0  0  0  0  0  0
    4.6763   15.1134   49.6200 O   0  0  0  0  0  0  0  0  0  0  0  0
    5.8716   12.6614   49.6348 H   0  0  0  0  0  0  0  0  0  0  0  0
    5.6299   15.2108   49.7687 H   0  0  0  0  0  0  0  0  0  0  0  0
    1.4470   16.0839   52.2567 O   0  0  0  0  0  0  0  0  0  0  0  0
    2.3891   17.3687   52.6019 P   0  0  0  0  0  0  0  0  0  0  0  0
    3.6983   17.2915   51.6415 O   0  0  0  0  0  0  0  0  0  0  0  0
    1.5961   18.7083   52.1023 O   0  0  0  0  0  0  0  0  0  0  0  0
    2.7595   17.4233   54.0399 O   0  0  0  0  0  0  0  0  0  0  0  0
    2.1334   19.4926   52.2947 H   0  0  0  0  0  0  0  0  0  0  0  0
    3.3179   18.2000   54.2007 H   0  0  0  0  0  0  0  0  0  0  0  0
 29 30  2  0  0  0
 29 31  1  0  0  0
 29 32  1  0  0  0
 29 28  1  0  0  0
 22 23  2  0  0  0
 22 24  1  0  0  0
 22 25  1  0  0  0
 22 21  1  0  0  0
 21 20  1  0  0  0
 20  1  1  0  0  0
  1  2  1  0  0  0
  1  3  1  0  0  0
  2  6  1  0  0  0
  3  4  1  0  0  0
  3  5  1  0  0  0
  5 28  1  0  0  0
  5  6  1  0  0  0
  6  8  1  0  0  0
  8  9  1  0  0  0
  8 17  1  0  0  0
  9 10  2  0  0  0
 10 11  1  0  0  0
 11 12  1  0  0  0
 11 17  2  0  0  0
 12 13  1  0  0  0
 12 14  2  0  0  0
 14 15  1  0  0  0
 15 16  2  0  0  0
 16 17  1  0  0  0
 31 33  1  0  0  0
 32 34  1  0  0  0
 24 26  1  0  0  0
 25 27  1  0  0  0
  4  7  1  0  0  0
 13 18  1  0  0  0
 13 19  1  0  0  0
M  END
> <minimizedAffinity>
-7.94373

$$$$
2GZ2_A2P_A_502


 34 36  0  0  0  0  0  0  0  0999 V2000
    1.2945   14.2861   52.8299 C   0  0  0  0  0  0  0  0  0  0  0  0
   -0.1285   13.8982   52.8467 O   0  0  0  0  0  0  0  0  0  0  0  0
    2.0477   12.9841   53.1793 C   0  0  0  0  0  0  0  0  0  0  0  0
    2.1111   12.8220   54.6035 O   0  0  0  0  0  0  0  0  0  0  0  0
    1.1247   11.9128   52.6068 C   0  0  0  0  0  0  0  0  0  0  0  0
   -0.2193   12.4556   53.0686 C   0  0  0  0  0  0  0  0  0  0  0  0
    1.2138   12.8422   54.9714 H   0  0  0  0  0  0  0  0  0  0  0  0
   -1.3374   11.8891   52.2767 N   0  0  0  0  0  0  0  0  0  0  0  0
   -1.4123   11.8308   50.9406 C   0  0  0  0  0  0  0  0  0  0  0  0
   -2.5664   11.2577   50.5843 N   0  0  0  0  0  0  0  0  0  0  0  0
   -3.2315   10.9470   51.6987 C   0  0  0  0  0  0  0  0  0  0  0  0
   -4.4599   10.3444   51.9599 C   0  0  0  0  0  0  0  0  0  0  0  0
   -5.2414    9.9529   50.9676 N   0  0  0  0  0  0  0  0  0  0  0  0
   -4.8542   10.1679   53.2320 N   0  0  0  0  0  0  0  0  0  0  0  0
   -4.0808   10.5646   54.2379 C   0  0  0  0  0  0  0  0  0  0  0  0
   -2.8982   11.1379   54.0287 N   0  0  0  0  0  0  0  0  0  0  0  0
   -2.4474   11.3449   52.7765 C   0  0  0  0  0  0  0  0  0  0  0  0
   -4.9543   10.0814   50.0348 H   0  0  0  0  0  0  0  0  0  0  0  0
   -6.1104    9.5329   51.1618 H   0  0  0  0  0  0  0  0  0  0  0  0
    1.6477   14.9247   51.4439 C   0  0  0  0  0  0  0  0  0  0  0  0
    0.7971   14.4817   50.3546 O   0  0  0  0  0  0  0  0  0  0  0  0
   -0.2454   15.5399   49.6221 P   0  0  0  0  0  0  0  0  0  0  0  0
    0.4141   16.1075   48.2653 O   0  0  0  0  0  0  0  0  0  0  0  0
   -0.2355   16.8154   50.6313 O   0  0  0  0  0  0  0  0  0  0  0  0
   -1.6145   15.0504   49.3948 O   0  0  0  0  0  0  0  0  0  0  0  0
   -0.8253   17.5044   50.2874 H   0  0  0  0  0  0  0  0  0  0  0  0
   -2.1383   15.7437   48.9636 H   0  0  0  0  0  0  0  0  0  0  0  0
    1.3644   10.6411   53.2280 O   0  0  0  0  0  0  0  0  0  0  0  0
    2.0947    9.4209   52.4310 P   0  0  0  0  0  0  0  0  0  0  0  0
    3.1036    8.6865   53.4727 O   0  0  0  0  0  0  0  0  0  0  0  0
    0.9552    8.2947   52.1054 O   0  0  0  0  0  0  0  0  0  0  0  0
    2.8028    9.8907   51.2120 O   0  0  0  0  0  0  0  0  0  0  0  0
    1.3604    7.5529   51.6296 H   0  0  0  0  0  0  0  0  0  0  0  0
    3.2215    9.1355   50.7701 H   0  0  0  0  0  0  0  0  0  0  0  0
 29 30  2  0  0  0
 29 31  1  0  0  0
 29 32  1  0  0  0
 29 28  1  0  0  0
 22 23  2  0  0  0
 22 24  1  0  0  0
 22 25  1  0  0  0
 22 21  1  0  0  0
 21 20  1  0  0  0
 20  1  1  0  0  0
  1  2  1  0  0  0
  1  3  1  0  0  0
  2  6  1  0  0  0
  3  4  1  0  0  0
  3  5  1  0  0  0
  5 28  1  0  0  0
  5  6  1  0  0  0
  6  8  1  0  0  0
  8  9  1  0  0  0
  8 17  1  0  0  0
  9 10  2  0  0  0
 10 11  1  0  0  0
 11 12  1  0  0  0
 11 17  2  0  0  0
 12 13  1  0  0  0
 12 14  2  0  0  0
 14 15  1  0  0  0
 15 16  2  0  0  0
 16 17  1  0  0  0
 31 33  1  0  0  0
 32 34  1  0  0  0
 24 26  1  0  0  0
 25 27  1  0  0  0
  4  7  1  0  0  0
 13 18  1  0  0  0
 13 19  1  0  0  0
M  END
> <minimizedAffinity>
-7.39149

$$$$
2GZ2_A2P_A_502


 34 36  0  0  0  0  0  0  0  0999 V2000
    1.3017   12.7758   53.9617 C   0  0  0  0  0  0  0  0  0  0  0  0
    2.5375   12.3402   53.2847 O   0  0  0  0  0  0  0  0  0  0  0  0
    0.8360   14.0041   53.1497 C   0  0  0  0  0  0  0  0  0  0  0  0
    1.5056   15.1834   53.6180 O   0  0  0  0  0  0  0  0  0  0  0  0
    1.3448   13.6777   51.7490 C   0  0  0  0  0  0  0  0  0  0  0  0
    2.7347   13.1632   52.0921 C   0  0  0  0  0  0  0  0  0  0  0  0
    2.4653   15.0500   53.5723 H   0  0  0  0  0  0  0  0  0  0  0  0
    3.2979   12.3407   50.9946 N   0  0  0  0  0  0  0  0  0  0  0  0
    2.6411   11.9106   49.9093 C   0  0  0  0  0  0  0  0  0  0  0  0
    3.4695   11.1941   49.1427 N   0  0  0  0  0  0  0  0  0  0  0  0
    4.6622   11.1676   49.7408 C   0  0  0  0  0  0  0  0  0  0  0  0
    5.8922   10.5935   49.4282 C   0  0  0  0  0  0  0  0  0  0  0  0
    6.0418    9.8844   48.3221 N   0  0  0  0  0  0  0  0  0  0  0  0
    6.9315   10.7575   50.2636 N   0  0  0  0  0  0  0  0  0  0  0  0
    6.7913   11.4616   51.3826 C   0  0  0  0  0  0  0  0  0  0  0  0
    5.6343   12.0307   51.7123 N   0  0  0  0  0  0  0  0  0  0  0  0
    4.5545   11.9011   50.9177 C   0  0  0  0  0  0  0  0  0  0  0  0
    5.2814    9.7630   47.7086 H   0  0  0  0  0  0  0  0  0  0  0  0
    6.9134    9.4778   48.1122 H   0  0  0  0  0  0  0  0  0  0  0  0
    0.2906   11.5814   54.0275 C   0  0  0  0  0  0  0  0  0  0  0  0
    0.3351   10.7045   52.8718 O   0  0  0  0  0  0  0  0  0  0  0  0
    1.2529    9.3262   52.9008 P   0  0  0  0  0  0  0  0  0  0  0  0
    0.7585    8.3147   51.7473 O   0  0  0  0  0  0  0  0  0  0  0  0
    0.7858    8.6088   54.2838 O   0  0  0  0  0  0  0  0  0  0  0  0
    2.7118    9.5162   52.8651 O   0  0  0  0  0  0  0  0  0  0  0  0
    1.2728    7.7776   54.3974 H   0  0  0  0  0  0  0  0  0  0  0  0
    3.1511    8.6517   52.8860 H   0  0  0  0  0  0  0  0  0  0  0  0
    1.4594   14.8666   50.9529 O   0  0  0  0  0  0  0  0  0  0  0  0
    0.1739   15.5137   50.1873 P   0  0  0  0  0  0  0  0  0  0  0  0
   -0.1746   16.9243   50.9163 O   0  0  0  0  0  0  0  0  0  0  0  0
    0.6596   15.9407   48.6857 O   0  0  0  0  0  0  0  0  0  0  0  0
   -0.9932   14.5941   50.1737 O   0  0  0  0  0  0  0  0  0  0  0  0
   -0.0863   16.3304   48.2033 H   0  0  0  0  0  0  0  0  0  0  0  0
   -1.7328   15.0172   49.7102 H   0  0  0  0  0  0  0  0  0  0  0  0
 29 30  2  0  0  0
 29 31  1  0  0  0
 29 32  1  0  0  0
 29 28  1  0  0  0
 22 23  2  0  0  0
 22 24  1  0  0  0
 22 25  1  0  0  0
 22 21  1  0  0  0
 21 20  1  0  0  0
 20  1  1  0  0  0
  1  2  1  0  0  0
  1  3  1  0  0  0
  2  6  1  0  0  0
  3  4  1  0  0  0
  3  5  1  0  0  0
  5 28  1  0  0  0
  5  6  1  0  0  0
  6  8  1  0  0  0
  8  9  1  0  0  0
  8 17  1  0  0  0
  9 10  2  0  0  0
 10 11  1  0  0  0
 11 12  1  0  0  0
 11 17  2  0  0  0
 12 13  1  0  0  0
 12 14  2  0  0  0
 14 15  1  0  0  0
 15 16  2  0  0  0
 16 17  1  0  0  0
 31 33  1  0  0  0
 32 34  1  0  0  0
 24 26  1  0  0  0
 25 27  1  0  0  0
  4  7  1  0  0  0
 13 18  1  0  0  0
 13 19  1  0  0  0
M  END
> <minimizedAffinity>
-6.98169

$$$$
2GZ2_A2P_A_502


 34 36  0  0  0  0  0  0  0  0999 V2000
    0.5908   12.5331   52.3834 C   0  0  0  0  0  0  0  0  0  0  0  0
    1.5475   12.5203   51.2609 O   0  0  0  0  0  0  0  0  0  0  0  0
    1.0640   13.7034   53.2730 C   0  0  0  0  0  0  0  0  0  0  0  0
    2.0975   13.2562   54.1619 O   0  0  0  0  0  0  0  0  0  0  0  0
    1.6769   14.6579   52.2528 C   0  0  0  0  0  0  0  0  0  0  0  0
    2.4493   13.6632   51.3994 C   0  0  0  0  0  0  0  0  0  0  0  0
    2.8205   12.8655   53.6466 H   0  0  0  0  0  0  0  0  0  0  0  0
    2.7689   14.2230   50.0643 N   0  0  0  0  0  0  0  0  0  0  0  0
    2.1778   15.2757   49.4841 C   0  0  0  0  0  0  0  0  0  0  0  0
    2.7242   15.4864   48.2823 N   0  0  0  0  0  0  0  0  0  0  0  0
    3.6703   14.5642   48.0944 C   0  0  0  0  0  0  0  0  0  0  0  0
    4.5599   14.2831   47.0601 C   0  0  0  0  0  0  0  0  0  0  0  0
    4.5643   15.0155   45.9591 N   0  0  0  0  0  0  0  0  0  0  0  0
    5.4145   13.2537   47.1824 N   0  0  0  0  0  0  0  0  0  0  0  0
    5.4141   12.5052   48.2812 C   0  0  0  0  0  0  0  0  0  0  0  0
    4.5841   12.7464   49.2932 N   0  0  0  0  0  0  0  0  0  0  0  0
    3.7020   13.7623   49.2305 C   0  0  0  0  0  0  0  0  0  0  0  0
    3.9389   15.7703   45.8675 H   0  0  0  0  0  0  0  0  0  0  0  0
    5.1929   14.8059   45.2310 H   0  0  0  0  0  0  0  0  0  0  0  0
   -0.8689   12.6491   51.8273 C   0  0  0  0  0  0  0  0  0  0  0  0
   -1.4575   11.3797   51.4418 O   0  0  0  0  0  0  0  0  0  0  0  0
   -3.0948   11.1509   51.5408 P   0  0  0  0  0  0  0  0  0  0  0  0
   -3.5081    9.8050   50.7560 O   0  0  0  0  0  0  0  0  0  0  0  0
   -3.6849   12.3484   50.6116 O   0  0  0  0  0  0  0  0  0  0  0  0
   -3.6756   11.1893   52.8923 O   0  0  0  0  0  0  0  0  0  0  0  0
   -4.6538   12.3030   50.6023 H   0  0  0  0  0  0  0  0  0  0  0  0
   -4.6333   11.0452   52.8370 H   0  0  0  0  0  0  0  0  0  0  0  0
    2.5972   15.5622   52.8819 O   0  0  0  0  0  0  0  0  0  0  0  0
    2.4298   17.1791   52.7602 P   0  0  0  0  0  0  0  0  0  0  0  0
    3.6312   17.7287   51.8131 O   0  0  0  0  0  0  0  0  0  0  0  0
    1.0693   17.4693   51.9013 O   0  0  0  0  0  0  0  0  0  0  0  0
    2.4231   17.8447   54.0887 O   0  0  0  0  0  0  0  0  0  0  0  0
    0.9417   18.4267   51.8113 H   0  0  0  0  0  0  0  0  0  0  0  0
    2.3219   18.8021   53.9702 H   0  0  0  0  0  0  0  0  0  0  0  0
 29 30  2  0  0  0
 29 31  1  0  0  0
 29 32  1  0  0  0
 29 28  1  0  0  0
 22 23  2  0  0  0
 22 24  1  0  0  0
 22 25  1  0  0  0
 22 21  1  0  0  0
 21 20  1  0  0  0
 20  1  1  0  0  0
  1  2  1  0  0  0
  1  3  1  0  0  0
  2  6  1  0  0  0
  3  4  1  0  0  0
  3  5  1  0  0  0
  5 28  1  0  0  0
  5  6  1  0  0  0
  6  8  1  0  0  0
  8  9  1  0  0  0
  8 17  1  0  0  0
  9 10  2  0  0  0
 10 11  1  0  0  0
 11 12  1  0  0  0
 11 17  2  0  0  0
 12 13  1  0  0  0
 12 14  2  0  0  0
 14 15  1  0  0  0
 15 16  2  0  0  0
 16 17  1  0  0  0
 31 33  1  0  0  0
 32 34  1  0  0  0
 24 26  1  0  0  0
 25 27  1  0  0  0
  4  7  1  0  0  0
 13 18  1  0  0  0
 13 19  1  0  0  0
M  END
> <minimizedAffinity>
-6.92508

$$$$
2GZ2_A2P_A_502


 34 36  0  0  0  0  0  0  0  0999 V2000
    3.5093   16.9583   50.7778 C   0  0  0  0  0  0  0  0  0  0  0  0
    2.4753   16.1952   51.5018 O   0  0  0  0  0  0  0  0  0  0  0  0
    4.2120   15.9037   49.8952 C   0  0  0  0  0  0  0  0  0  0  0  0
    5.2348   15.2372   50.6488 O   0  0  0  0  0  0  0  0  0  0  0  0
    3.0861   14.9124   49.6173 C   0  0  0  0  0  0  0  0  0  0  0  0
    2.4748   14.8190   51.0072 C   0  0  0  0  0  0  0  0  0  0  0  0
    4.8469   14.8520   51.4501 H   0  0  0  0  0  0  0  0  0  0  0  0
    1.0880   14.2969   50.9590 N   0  0  0  0  0  0  0  0  0  0  0  0
    0.1895   14.5226   49.9916 C   0  0  0  0  0  0  0  0  0  0  0  0
   -0.9523   13.8942   50.2893 N   0  0  0  0  0  0  0  0  0  0  0  0
   -0.7818   13.2626   51.4525 C   0  0  0  0  0  0  0  0  0  0  0  0
   -1.5952   12.4610   52.2501 C   0  0  0  0  0  0  0  0  0  0  0  0
   -2.8395   12.1963   51.8895 N   0  0  0  0  0  0  0  0  0  0  0  0
   -1.1103   11.9604   53.3986 N   0  0  0  0  0  0  0  0  0  0  0  0
    0.1365   12.2262   53.7757 C   0  0  0  0  0  0  0  0  0  0  0  0
    0.9459   12.9821   53.0377 N   0  0  0  0  0  0  0  0  0  0  0  0
    0.5185   13.5152   51.8770 C   0  0  0  0  0  0  0  0  0  0  0  0
   -3.1967   12.5622   51.0482 H   0  0  0  0  0  0  0  0  0  0  0  0
   -3.4088   11.6332   52.4624 H   0  0  0  0  0  0  0  0  0  0  0  0
    2.8415   18.1500   50.0115 C   0  0  0  0  0  0  0  0  0  0  0  0
    1.4393   17.9417   49.7005 O   0  0  0  0  0  0  0  0  0  0  0  0
    0.2652   18.7542   50.5398 P   0  0  0  0  0  0  0  0  0  0  0  0
    0.9301   19.9480   51.3947 O   0  0  0  0  0  0  0  0  0  0  0  0
   -0.1932   17.6704   51.6627 O   0  0  0  0  0  0  0  0  0  0  0  0
   -0.8857   19.2270   49.7541 O   0  0  0  0  0  0  0  0  0  0  0  0
   -0.8905   18.0545   52.2171 H   0  0  0  0  0  0  0  0  0  0  0  0
   -1.5092   19.6864   50.3382 H   0  0  0  0  0  0  0  0  0  0  0  0
    3.6103   13.6306   49.2397 O   0  0  0  0  0  0  0  0  0  0  0  0
    4.0927   13.3163   47.7146 P   0  0  0  0  0  0  0  0  0  0  0  0
    4.1894   11.7019   47.5515 O   0  0  0  0  0  0  0  0  0  0  0  0
    2.8761   13.7543   46.7140 O   0  0  0  0  0  0  0  0  0  0  0  0
    5.3778   13.9846   47.3830 O   0  0  0  0  0  0  0  0  0  0  0  0
    3.1338   13.5788   45.7955 H   0  0  0  0  0  0  0  0  0  0  0  0
    5.6267   13.7717   46.4700 H   0  0  0  0  0  0  0  0  0  0  0  0
 29 30  2  0  0  0
 29 31  1  0  0  0
 29 32  1  0  0  0
 29 28  1  0  0  0
 22 23  2  0  0  0
 22 24  1  0  0  0
 22 25  1  0  0  0
 22 21  1  0  0  0
 21 20  1  0  0  0
 20  1  1  0  0  0
  1  2  1  0  0  0
  1  3  1  0  0  0
  2  6  1  0  0  0
  3  4  1  0  0  0
  3  5  1  0  0  0
  5 28  1  0  0  0
  5  6  1  0  0  0
  6  8  1  0  0  0
  8  9  1  0  0  0
  8 17  1  0  0  0
  9 10  2  0  0  0
 10 11  1  0  0  0
 11 12  1  0  0  0
 11 17  2  0  0  0
 12 13  1  0  0  0
 12 14  2  0  0  0
 14 15  1  0  0  0
 15 16  2  0  0  0
 16 17  1  0  0  0
 31 33  1  0  0  0
 32 34  1  0  0  0
 24 26  1  0  0  0
 25 27  1  0  0  0
  4  7  1  0  0  0
 13 18  1  0  0  0
 13 19  1  0  0  0
M  END
> <minimizedAffinity>
-6.91109

$$$$
2GZ2_A2P_A_502


 34 36  0  0  0  0  0  0  0  0999 V2000
   -1.6760   10.8159   49.4072 C   0  0  0  0  0  0  0  0  0  0  0  0
   -0.9989   12.1209   49.5262 O   0  0  0  0  0  0  0  0  0  0  0  0
   -0.6261    9.7965   49.9005 C   0  0  0  0  0  0  0  0  0  0  0  0
    0.2513    9.4370   48.8237 O   0  0  0  0  0  0  0  0  0  0  0  0
    0.1621   10.6120   50.9209 C   0  0  0  0  0  0  0  0  0  0  0  0
    0.3067   11.9171   50.1528 C   0  0  0  0  0  0  0  0  0  0  0  0
    0.6558   10.2379   48.4551 H   0  0  0  0  0  0  0  0  0  0  0  0
    0.6188   13.0500   51.0568 N   0  0  0  0  0  0  0  0  0  0  0  0
    0.1614   13.2175   52.3046 C   0  0  0  0  0  0  0  0  0  0  0  0
    0.6515   14.3543   52.8094 N   0  0  0  0  0  0  0  0  0  0  0  0
    1.4272   14.9153   51.8796 C   0  0  0  0  0  0  0  0  0  0  0  0
    2.1900   16.0794   51.8253 C   0  0  0  0  0  0  0  0  0  0  0  0
    2.2342   16.9033   52.8586 N   0  0  0  0  0  0  0  0  0  0  0  0
    2.8797   16.3683   50.7091 N   0  0  0  0  0  0  0  0  0  0  0  0
    2.8367   15.5519   49.6608 C   0  0  0  0  0  0  0  0  0  0  0  0
    2.1250   14.4275   49.6769 N   0  0  0  0  0  0  0  0  0  0  0  0
    1.4101   14.0830   50.7652 C   0  0  0  0  0  0  0  0  0  0  0  0
    1.7296   16.6935   53.6775 H   0  0  0  0  0  0  0  0  0  0  0  0
    2.7718   17.7266   52.8091 H   0  0  0  0  0  0  0  0  0  0  0  0
   -3.0213   10.8479   50.2087 C   0  0  0  0  0  0  0  0  0  0  0  0
   -2.9890   10.0946   51.4488 O   0  0  0  0  0  0  0  0  0  0  0  0
   -3.0447   10.8782   52.9068 P   0  0  0  0  0  0  0  0  0  0  0  0
   -4.4308   10.5411   53.6571 O   0  0  0  0  0  0  0  0  0  0  0  0
   -3.1977   12.4386   52.4740 O   0  0  0  0  0  0  0  0  0  0  0  0
   -1.8873   10.6822   53.7943 O   0  0  0  0  0  0  0  0  0  0  0  0
   -3.2399   12.9922   53.2694 H   0  0  0  0  0  0  0  0  0  0  0  0
   -2.0211   11.1813   54.6152 H   0  0  0  0  0  0  0  0  0  0  0  0
    1.4611   10.0426   51.1422 O   0  0  0  0  0  0  0  0  0  0  0  0
    1.8561    9.3297   52.5540 P   0  0  0  0  0  0  0  0  0  0  0  0
    3.4423    9.5809   52.8056 O   0  0  0  0  0  0  0  0  0  0  0  0
    1.1171   10.1643   53.7499 O   0  0  0  0  0  0  0  0  0  0  0  0
    1.5153    7.8834   52.5676 O   0  0  0  0  0  0  0  0  0  0  0  0
    1.3337    9.7627   54.6060 H   0  0  0  0  0  0  0  0  0  0  0  0
    1.7662    7.5001   53.4226 H   0  0  0  0  0  0  0  0  0  0  0  0
 29 30  2  0  0  0
 29 31  1  0  0  0
 29 32  1  0  0  0
 29 28  1  0  0  0
 22 23  2  0  0  0
 22 24  1  0  0  0
 22 25  1  0  0  0
 22 21  1  0  0  0
 21 20  1  0  0  0
 20  1  1  0  0  0
  1  2  1  0  0  0
  1  3  1  0  0  0
  2  6  1  0  0  0
  3  4  1  0  0  0
  3  5  1  0  0  0
  5 28  1  0  0  0
  5  6  1  0  0  0
  6  8  1  0  0  0
  8  9  1  0  0  0
  8 17  1  0  0  0
  9 10  2  0  0  0
 10 11  1  0  0  0
 11 12  1  0  0  0
 11 17  2  0  0  0
 12 13  1  0  0  0
 12 14  2  0  0  0
 14 15  1  0  0  0
 15 16  2  0  0  0
 16 17  1  0  0  0
 31 33  1  0  0  0
 32 34  1  0  0  0
 24 26  1  0  0  0
 25 27  1  0  0  0
  4  7  1  0  0  0
 13 18  1  0  0  0
 13 19  1  0  0  0
M  END
> <minimizedAffinity>
-6.89496

$$$$
2GZ2_A2P_A_502


 34 36  0  0  0  0  0  0  0  0999 V2000
    4.0226   11.9270   50.6246 C   0  0  0  0  0  0  0  0  0  0  0  0
    2.6418   11.5160   50.3082 O   0  0  0  0  0  0  0  0  0  0  0  0
    3.9724   13.4704   50.6121 C   0  0  0  0  0  0  0  0  0  0  0  0
    4.1377   13.9550   49.2719 O   0  0  0  0  0  0  0  0  0  0  0  0
    2.5411   13.7510   51.0596 C   0  0  0  0  0  0  0  0  0  0  0  0
    1.8024   12.7110   50.2308 C   0  0  0  0  0  0  0  0  0  0  0  0
    3.4641   13.5568   48.6987 H   0  0  0  0  0  0  0  0  0  0  0  0
    0.4583   12.4247   50.7872 N   0  0  0  0  0  0  0  0  0  0  0  0
   -0.7148   12.7863   50.2512 C   0  0  0  0  0  0  0  0  0  0  0  0
   -1.7117   12.3581   51.0322 N   0  0  0  0  0  0  0  0  0  0  0  0
   -1.1726   11.7184   52.0720 C   0  0  0  0  0  0  0  0  0  0  0  0
   -1.6939   11.0699   53.1891 C   0  0  0  0  0  0  0  0  0  0  0  0
   -3.0005   11.0108   53.3837 N   0  0  0  0  0  0  0  0  0  0  0  0
   -0.8588   10.5074   54.0785 N   0  0  0  0  0  0  0  0  0  0  0  0
    0.4570   10.5673   53.8980 C   0  0  0  0  0  0  0  0  0  0  0  0
    0.9925   11.1718   52.8402 N   0  0  0  0  0  0  0  0  0  0  0  0
    0.2088   11.7569   51.9141 C   0  0  0  0  0  0  0  0  0  0  0  0
   -3.6142   11.4224   52.7331 H   0  0  0  0  0  0  0  0  0  0  0  0
   -3.3597   10.5552   54.1790 H   0  0  0  0  0  0  0  0  0  0  0  0
    4.4680   11.2723   51.9761 C   0  0  0  0  0  0  0  0  0  0  0  0
    5.0727    9.9613   51.8271 O   0  0  0  0  0  0  0  0  0  0  0  0
    4.2691    8.6053   52.3356 P   0  0  0  0  0  0  0  0  0  0  0  0
    4.7468    7.3301   51.4733 O   0  0  0  0  0  0  0  0  0  0  0  0
    2.7464    8.8763   51.8321 O   0  0  0  0  0  0  0  0  0  0  0  0
    4.3116    8.3284   53.7803 O   0  0  0  0  0  0  0  0  0  0  0  0
    2.1842    8.1273   52.0847 H   0  0  0  0  0  0  0  0  0  0  0  0
    3.8134    7.5178   53.9689 H   0  0  0  0  0  0  0  0  0  0  0  0
    2.1244   15.0647   50.6579 O   0  0  0  0  0  0  0  0  0  0  0  0
    1.1819   15.9941   51.6093 P   0  0  0  0  0  0  0  0  0  0  0  0
   -0.1854   16.3109   50.7890 O   0  0  0  0  0  0  0  0  0  0  0  0
    0.6961   15.0734   52.8700 O   0  0  0  0  0  0  0  0  0  0  0  0
    1.8711   17.2385   52.0388 O   0  0  0  0  0  0  0  0  0  0  0  0
    0.1313   15.6005   53.4566 H   0  0  0  0  0  0  0  0  0  0  0  0
    1.2767   17.7598   52.6008 H   0  0  0  0  0  0  0  0  0  0  0  0
 29 30  2  0  0  0
 29 31  1  0  0  0
 29 32  1  0  0  0
 29 28  1  0  0  0
 22 23  2  0  0  0
 22 24  1  0  0  0
 22 25  1  0  0  0
 22 21  1  0  0  0
 21 20  1  0  0  0
 20  1  1  0  0  0
  1  2  1  0  0  0
  1  3  1  0  0  0
  2  6  1  0  0  0
  3  4  1  0  0  0
  3  5  1  0  0  0
  5 28  1  0  0  0
  5  6  1  0  0  0
  6  8  1  0  0  0
  8  9  1  0  0  0
  8 17  1  0  0  0
  9 10  2  0  0  0
 10 11  1  0  0  0
 11 12  1  0  0  0
 11 17  2  0  0  0
 12 13  1  0  0  0
 12 14  2  0  0  0
 14 15  1  0  0  0
 15 16  2  0  0  0
 16 17  1  0  0  0
 31 33  1  0  0  0
 32 34  1  0  0  0
 24 26  1  0  0  0
 25 27  1  0  0  0
  4  7  1  0  0  0
 13 18  1  0  0  0
 13 19  1  0  0  0
M  END
> <minimizedAffinity>
-6.86582

$$$$
2GZ2_A2P_A_502


 34 36  0  0  0  0  0  0  0  0999 V2000
    1.0479   14.5623   50.2321 C   0  0  0  0  0  0  0  0  0  0  0  0
    2.4169   14.0216   50.1367 O   0  0  0  0  0  0  0  0  0  0  0  0
    0.1411   13.3135   50.1778 C   0  0  0  0  0  0  0  0  0  0  0  0
   -0.1024   12.9440   48.8130 O   0  0  0  0  0  0  0  0  0  0  0  0
    1.0206   12.2468   50.8228 C   0  0  0  0  0  0  0  0  0  0  0  0
    2.3464   12.5609   50.1462 C   0  0  0  0  0  0  0  0  0  0  0  0
    0.7439   12.8085   48.3588 H   0  0  0  0  0  0  0  0  0  0  0  0
    3.4913   12.0018   50.9042 N   0  0  0  0  0  0  0  0  0  0  0  0
    3.5336   11.7762   52.2239 C   0  0  0  0  0  0  0  0  0  0  0  0
    4.7273   11.2711   52.5510 N   0  0  0  0  0  0  0  0  0  0  0  0
    5.4511   11.1723   51.4341 C   0  0  0  0  0  0  0  0  0  0  0  0
    6.7392   10.7259   51.1486 C   0  0  0  0  0  0  0  0  0  0  0  0
    7.5266   10.2820   52.1138 N   0  0  0  0  0  0  0  0  0  0  0  0
    7.1850   10.7550   49.8815 N   0  0  0  0  0  0  0  0  0  0  0  0
    6.4056   11.2066   48.9038 C   0  0  0  0  0  0  0  0  0  0  0  0
    5.1672   11.6351   49.1359 N   0  0  0  0  0  0  0  0  0  0  0  0
    4.6629   11.6334   50.3849 C   0  0  0  0  0  0  0  0  0  0  0  0
    7.2018   10.2599   53.0429 H   0  0  0  0  0  0  0  0  0  0  0  0
    8.4376    9.9737   51.9033 H   0  0  0  0  0  0  0  0  0  0  0  0
    0.9194   15.4401   51.5230 C   0  0  0  0  0  0  0  0  0  0  0  0
    2.1905   15.8802   52.0678 O   0  0  0  0  0  0  0  0  0  0  0  0
    2.4381   17.4768   52.4324 P   0  0  0  0  0  0  0  0  0  0  0  0
    3.8327   17.9741   51.7954 O   0  0  0  0  0  0  0  0  0  0  0  0
    2.7235   17.4429   54.0333 O   0  0  0  0  0  0  0  0  0  0  0  0
    1.3360   18.3959   52.1066 O   0  0  0  0  0  0  0  0  0  0  0  0
    2.8837   18.3448   54.3523 H   0  0  0  0  0  0  0  0  0  0  0  0
    1.5831   19.2993   52.3590 H   0  0  0  0  0  0  0  0  0  0  0  0
    0.5928   10.9296   50.4454 O   0  0  0  0  0  0  0  0  0  0  0  0
   -0.0520    9.8942   51.5269 P   0  0  0  0  0  0  0  0  0  0  0  0
    0.0204   10.6010   52.9890 O   0  0  0  0  0  0  0  0  0  0  0  0
   -1.6515    9.7825   51.2075 O   0  0  0  0  0  0  0  0  0  0  0  0
    0.6295    8.5738   51.5156 O   0  0  0  0  0  0  0  0  0  0  0  0
   -2.0649    9.1711   51.8369 H   0  0  0  0  0  0  0  0  0  0  0  0
    0.2159    7.9908   52.1713 H   0  0  0  0  0  0  0  0  0  0  0  0
 29 30  2  0  0  0
 29 31  1  0  0  0
 29 32  1  0  0  0
 29 28  1  0  0  0
 22 23  2  0  0  0
 22 24  1  0  0  0
 22 25  1  0  0  0
 22 21  1  0  0  0
 21 20  1  0  0  0
 20  1  1  0  0  0
  1  2  1  0  0  0
  1  3  1  0  0  0
  2  6  1  0  0  0
  3  4  1  0  0  0
  3  5  1  0  0  0
  5 28  1  0  0  0
  5  6  1  0  0  0
  6  8  1  0  0  0
  8  9  1  0  0  0
  8 17  1  0  0  0
  9 10  2  0  0  0
 10 11  1  0  0  0
 11 12  1  0  0  0
 11 17  2  0  0  0
 12 13  1  0  0  0
 12 14  2  0  0  0
 14 15  1  0  0  0
 15 16  2  0  0  0
 16 17  1  0  0  0
 31 33  1  0  0  0
 32 34  1  0  0  0
 24 26  1  0  0  0
 25 27  1  0  0  0
  4  7  1  0  0  0
 13 18  1  0  0  0
 13 19  1  0  0  0
M  END
> <minimizedAffinity>
-6.65638

$$$$
