5TMP_Z5A_A_214


 62 66  0  0  0  0  0  0  0  0999 V2000
   17.0319  106.0943   13.6266 P   0  0  0  0  0  0  0  0  0  0  0  0
   16.9668  107.1983   14.5905 O   0  0  0  0  0  0  0  0  0  0  0  0
   17.0536  106.3294   12.1463 O   0  0  0  0  0  0  0  0  0  0  0  0
   18.2436  105.2119   13.9304 O   0  0  0  0  0  0  0  0  0  0  0  0
   19.8163  105.3692   13.8807 P   0  0  0  0  0  0  0  0  0  0  0  0
   20.2593  104.6224   12.6763 O   0  0  0  0  0  0  0  0  0  0  0  0
   20.0649  106.8396   14.0559 O   0  0  0  0  0  0  0  0  0  0  0  0
   20.3436  104.5981   15.0853 O   0  0  0  0  0  0  0  0  0  0  0  0
   20.3543  104.7641   16.5453 P   0  0  0  0  0  0  0  0  0  0  0  0
   21.2979  105.8577   16.9045 O   0  0  0  0  0  0  0  0  0  0  0  0
   18.9258  104.8914   16.9494 O   0  0  0  0  0  0  0  0  0  0  0  0
   21.0124  103.3466   16.7427 O   0  0  0  0  0  0  0  0  0  0  0  0
   20.4387  102.3074   17.4694 C   0  0  0  0  0  0  0  0  0  0  0  0
   21.5883  101.7782   18.2990 C   0  0  0  0  0  0  0  0  0  0  0  0
   22.5621  101.0423   17.5086 O   0  0  0  0  0  0  0  0  0  0  0  0
   22.3381  102.6982   19.2335 C   0  0  0  0  0  0  0  0  0  0  0  0
   23.7409  102.3588   18.8996 C   0  0  0  0  0  0  0  0  0  0  0  0
   23.6846  100.9847   18.3915 C   0  0  0  0  0  0  0  0  0  0  0  0
   24.8329  100.6712   17.5779 N   0  0  0  0  0  0  0  0  0  0  0  0
   25.8457   99.9372   18.1804 C   0  0  0  0  0  0  0  0  0  0  0  0
   25.7815   99.5930   19.3613 O   0  0  0  0  0  0  0  0  0  0  0  0
   26.8945   99.5379   17.3181 N   0  0  0  0  0  0  0  0  0  0  0  0
   26.8253   99.6102   15.9050 C   0  0  0  0  0  0  0  0  0  0  0  0
   27.6832   99.0866   15.2040 O   0  0  0  0  0  0  0  0  0  0  0  0
   25.7412  100.3634   15.3575 C   0  0  0  0  0  0  0  0  0  0  0  0
   24.8103  100.8997   16.1938 C   0  0  0  0  0  0  0  0  0  0  0  0
   25.6877  100.5932   13.8251 C   0  0  0  0  0  0  0  0  0  0  0  0
   27.7209   99.1894   17.7242 H   0  0  0  0  0  0  0  0  0  0  0  0
   22.1308  102.2529   20.6141 N   0  0  0  0  0  0  0  0  0  0  0  0
   22.4755  103.0215   21.5133 N   0  0  0  0  0  0  0  0  0  0  0  0
   22.7342  103.6100   22.4334 N   0  0  0  0  0  0  0  0  0  0  0  0
   15.8520  105.1070   13.8849 O   0  0  0  0  0  0  0  0  0  0  0  0
   14.4062  105.1703   14.4649 P   0  0  0  0  0  0  0  0  0  0  0  0
   13.6747  106.1785   13.6818 O   0  0  0  0  0  0  0  0  0  0  0  0
   14.6591  105.3854   15.8933 O   0  0  0  0  0  0  0  0  0  0  0  0
   13.6236  103.7957   14.2285 O   0  0  0  0  0  0  0  0  0  0  0  0
   12.9812  102.9454   12.9775 P   0  0  0  0  0  0  0  0  0  0  0  0
   11.5233  102.9454   13.1671 O   0  0  0  0  0  0  0  0  0  0  0  0
   13.5498  103.4312   11.6909 O   0  0  0  0  0  0  0  0  0  0  0  0
   13.4922  101.4302   13.1472 O   0  0  0  0  0  0  0  0  0  0  0  0
   12.9922  100.5884   14.1620 C   0  0  0  0  0  0  0  0  0  0  0  0
   14.0108  100.1507   15.1699 C   0  0  0  0  0  0  0  0  0  0  0  0
   14.5107  101.2446   15.9603 O   0  0  0  0  0  0  0  0  0  0  0  0
   13.4641   99.0300   16.1668 C   0  0  0  0  0  0  0  0  0  0  0  0
   14.5538   98.1502   16.5022 O   0  0  0  0  0  0  0  0  0  0  0  0
   13.0554   99.8770   17.3681 C   0  0  0  0  0  0  0  0  0  0  0  0
   12.9751   99.1811   18.6423 O   0  0  0  0  0  0  0  0  0  0  0  0
   14.0983  101.0162   17.3314 C   0  0  0  0  0  0  0  0  0  0  0  0
   15.2948   98.6711   16.8492 H   0  0  0  0  0  0  0  0  0  0  0  0
   13.8421   98.8045   18.8602 H   0  0  0  0  0  0  0  0  0  0  0  0
   13.5540  102.2429   17.9522 N   0  0  0  0  0  0  0  0  0  0  0  0
   12.2531  102.6527   18.1874 C   0  0  0  0  0  0  0  0  0  0  0  0
   12.1781  103.7299   18.9316 N   0  0  0  0  0  0  0  0  0  0  0  0
   13.5217  104.1499   18.9978 C   0  0  0  0  0  0  0  0  0  0  0  0
   14.1599  105.2756   19.5934 C   0  0  0  0  0  0  0  0  0  0  0  0
   13.4697  106.2536   20.2008 N   0  0  0  0  0  0  0  0  0  0  0  0
   15.5296  105.3056   19.5799 N   0  0  0  0  0  0  0  0  0  0  0  0
   16.1904  104.2832   19.0318 C   0  0  0  0  0  0  0  0  0  0  0  0
   15.6924  103.1407   18.5577 N   0  0  0  0  0  0  0  0  0  0  0  0
   14.3494  103.1468   18.5808 C   0  0  0  0  0  0  0  0  0  0  0  0
   12.4856  106.2295   20.2090 H   0  0  0  0  0  0  0  0  0  0  0  0
   13.9477  106.9949   20.6380 H   0  0  0  0  0  0  0  0  0  0  0  0
 19 20  1  0  0  0
 19 26  1  0  0  0
 19 18  1  0  0  0
 20 21  2  0  0  0
 20 22  1  0  0  0
 22 23  1  0  0  0
 23 24  2  0  0  0
 23 25  1  0  0  0
 25 26  2  0  0  0
 25 27  1  0  0  0
 13 12  1  0  0  0
 13 14  1  0  0  0
 12  9  1  0  0  0
 14 15  1  0  0  0
 14 16  1  0  0  0
 15 18  1  0  0  0
 16 17  1  0  0  0
 16 29  1  0  0  0
 17 18  1  0  0  0
 29 30  2  0  0  0
 30 31  2  0  0  0
  9 10  2  0  0  0
  9 11  1  0  0  0
  9  8  1  0  0  0
  8  5  1  0  0  0
  5  6  2  0  0  0
  5  7  1  0  0  0
  5  4  1  0  0  0
  4  1  1  0  0  0
  1  2  2  0  0  0
  1  3  1  0  0  0
  1 32  1  0  0  0
 32 33  1  0  0  0
 33 34  2  0  0  0
 33 35  1  0  0  0
 33 36  1  0  0  0
 36 37  1  0  0  0
 37 38  2  0  0  0
 37 39  1  0  0  0
 37 40  1  0  0  0
 40 41  1  0  0  0
 41 42  1  0  0  0
 42 43  1  0  0  0
 42 44  1  0  0  0
 43 48  1  0  0  0
 44 45  1  0  0  0
 44 46  1  0  0  0
 46 47  1  0  0  0
 46 48  1  0  0  0
 48 51  1  0  0  0
 51 52  1  0  0  0
 51 60  1  0  0  0
 52 53  2  0  0  0
 53 54  1  0  0  0
 54 55  1  0  0  0
 54 60  2  0  0  0
 55 56  1  0  0  0
 55 57  2  0  0  0
 57 58  1  0  0  0
 58 59  2  0  0  0
 59 60  1  0  0  0
 22 28  1  0  0  0
 45 49  1  0  0  0
 47 50  1  0  0  0
 56 61  1  0  0  0
 56 62  1  0  0  0
M  CHG 1   3  -1
M  CHG 1   7  -1
M  CHG 1  11  -1
M  CHG 1  30   1
M  CHG 1  31  -1
M  CHG 1  35  -1
M  CHG 1  39  -1
M  END
> <minimizedAffinity>
-11.50798

$$$$
5TMP_Z5A_A_214


 62 66  0  0  0  0  0  0  0  0999 V2000
   16.7121  106.3977   14.7265 P   0  0  0  0  0  0  0  0  0  0  0  0
   16.9081  105.3684   13.6998 O   0  0  0  0  0  0  0  0  0  0  0  0
   15.3852  106.6218   15.3869 O   0  0  0  0  0  0  0  0  0  0  0  0
   17.7180  106.1962   15.8609 O   0  0  0  0  0  0  0  0  0  0  0  0
   17.8716  105.2203   17.0957 P   0  0  0  0  0  0  0  0  0  0  0  0
   18.0053  106.0950   18.2879 O   0  0  0  0  0  0  0  0  0  0  0  0
   16.7572  104.2254   16.9449 O   0  0  0  0  0  0  0  0  0  0  0  0
   19.2200  104.5338   16.9102 O   0  0  0  0  0  0  0  0  0  0  0  0
   20.3039  104.5471   15.9181 P   0  0  0  0  0  0  0  0  0  0  0  0
   19.7764  104.0619   14.6135 O   0  0  0  0  0  0  0  0  0  0  0  0
   20.8985  105.9116   15.9853 O   0  0  0  0  0  0  0  0  0  0  0  0
   21.0766  103.4097   16.6866 O   0  0  0  0  0  0  0  0  0  0  0  0
   20.4621  102.3909   17.4089 C   0  0  0  0  0  0  0  0  0  0  0  0
   21.5868  101.8218   18.2460 C   0  0  0  0  0  0  0  0  0  0  0  0
   22.5563  101.0784   17.4574 O   0  0  0  0  0  0  0  0  0  0  0  0
   22.3421  102.7085   19.2080 C   0  0  0  0  0  0  0  0  0  0  0  0
   23.7421  102.3439   18.8893 C   0  0  0  0  0  0  0  0  0  0  0  0
   23.6635  100.9804   18.3560 C   0  0  0  0  0  0  0  0  0  0  0  0
   24.8171  100.6557   17.5543 N   0  0  0  0  0  0  0  0  0  0  0  0
   25.8156   99.9104   18.1667 C   0  0  0  0  0  0  0  0  0  0  0  0
   25.7351   99.5655   19.3464 O   0  0  0  0  0  0  0  0  0  0  0  0
   26.8693   99.5010   17.3152 N   0  0  0  0  0  0  0  0  0  0  0  0
   26.8160   99.5757   15.9015 C   0  0  0  0  0  0  0  0  0  0  0  0
   27.6757   99.0437   15.2091 O   0  0  0  0  0  0  0  0  0  0  0  0
   25.7459  100.3409   15.3434 C   0  0  0  0  0  0  0  0  0  0  0  0
   24.8118  100.8861   16.1704 C   0  0  0  0  0  0  0  0  0  0  0  0
   25.7112  100.5730   13.8109 C   0  0  0  0  0  0  0  0  0  0  0  0
   27.6875   99.1433   17.7297 H   0  0  0  0  0  0  0  0  0  0  0  0
   22.1038  102.2438   20.5772 N   0  0  0  0  0  0  0  0  0  0  0  0
   22.4499  102.9895   21.4950 N   0  0  0  0  0  0  0  0  0  0  0  0
   22.7060  103.5565   22.4292 N   0  0  0  0  0  0  0  0  0  0  0  0
   17.1483  107.7854   14.1629 O   0  0  0  0  0  0  0  0  0  0  0  0
   18.3368  108.7780   14.3450 P   0  0  0  0  0  0  0  0  0  0  0  0
   18.0789  109.9218   13.4562 O   0  0  0  0  0  0  0  0  0  0  0  0
   19.4970  107.9110   14.1155 O   0  0  0  0  0  0  0  0  0  0  0  0
   18.3665  109.3850   15.8244 O   0  0  0  0  0  0  0  0  0  0  0  0
   19.4287  110.1473   16.8201 P   0  0  0  0  0  0  0  0  0  0  0  0
   19.4763  109.3697   18.0670 O   0  0  0  0  0  0  0  0  0  0  0  0
   20.6931  110.4314   16.0885 O   0  0  0  0  0  0  0  0  0  0  0  0
   18.7819  111.5783   17.1656 O   0  0  0  0  0  0  0  0  0  0  0  0
   18.1186  111.8169   18.3869 C   0  0  0  0  0  0  0  0  0  0  0  0
   16.9378  112.7340   18.2887 C   0  0  0  0  0  0  0  0  0  0  0  0
   17.0673  113.8928   19.1322 O   0  0  0  0  0  0  0  0  0  0  0  0
   16.6567  113.2356   16.7994 C   0  0  0  0  0  0  0  0  0  0  0  0
   15.2341  113.3850   16.6318 O   0  0  0  0  0  0  0  0  0  0  0  0
   17.3518  114.5937   16.8089 C   0  0  0  0  0  0  0  0  0  0  0  0
   16.9005  115.5490   15.8099 O   0  0  0  0  0  0  0  0  0  0  0  0
   17.1424  115.0549   18.2685 C   0  0  0  0  0  0  0  0  0  0  0  0
   14.8862  113.9671   17.3253 H   0  0  0  0  0  0  0  0  0  0  0  0
   15.9559  115.7286   15.9377 H   0  0  0  0  0  0  0  0  0  0  0  0
   18.2197  115.9786   18.6841 N   0  0  0  0  0  0  0  0  0  0  0  0
   19.4827  115.7429   19.1986 C   0  0  0  0  0  0  0  0  0  0  0  0
   20.2203  116.8249   19.2717 N   0  0  0  0  0  0  0  0  0  0  0  0
   19.2938  117.8465   18.9814 C   0  0  0  0  0  0  0  0  0  0  0  0
   19.3944  119.2667   18.9402 C   0  0  0  0  0  0  0  0  0  0  0  0
   20.5193  119.9165   19.2781 N   0  0  0  0  0  0  0  0  0  0  0  0
   18.3078  119.9640   18.4818 N   0  0  0  0  0  0  0  0  0  0  0  0
   17.2284  119.2858   18.0851 C   0  0  0  0  0  0  0  0  0  0  0  0
   17.0803  117.9650   17.9763 N   0  0  0  0  0  0  0  0  0  0  0  0
   18.1600  117.3130   18.4382 C   0  0  0  0  0  0  0  0  0  0  0  0
   21.2987  119.4131   19.6072 H   0  0  0  0  0  0  0  0  0  0  0  0
   20.5650  120.8966   19.1968 H   0  0  0  0  0  0  0  0  0  0  0  0
 19 20  1  0  0  0
 19 26  1  0  0  0
 19 18  1  0  0  0
 20 21  2  0  0  0
 20 22  1  0  0  0
 22 23  1  0  0  0
 23 24  2  0  0  0
 23 25  1  0  0  0
 25 26  2  0  0  0
 25 27  1  0  0  0
 13 12  1  0  0  0
 13 14  1  0  0  0
 12  9  1  0  0  0
 14 15  1  0  0  0
 14 16  1  0  0  0
 15 18  1  0  0  0
 16 17  1  0  0  0
 16 29  1  0  0  0
 17 18  1  0  0  0
 29 30  2  0  0  0
 30 31  2  0  0  0
  9 10  2  0  0  0
  9 11  1  0  0  0
  9  8  1  0  0  0
  8  5  1  0  0  0
  5  6  2  0  0  0
  5  7  1  0  0  0
  5  4  1  0  0  0
  4  1  1  0  0  0
  1  2  2  0  0  0
  1  3  1  0  0  0
  1 32  1  0  0  0
 32 33  1  0  0  0
 33 34  2  0  0  0
 33 35  1  0  0  0
 33 36  1  0  0  0
 36 37  1  0  0  0
 37 38  2  0  0  0
 37 39  1  0  0  0
 37 40  1  0  0  0
 40 41  1  0  0  0
 41 42  1  0  0  0
 42 43  1  0  0  0
 42 44  1  0  0  0
 43 48  1  0  0  0
 44 45  1  0  0  0
 44 46  1  0  0  0
 46 47  1  0  0  0
 46 48  1  0  0  0
 48 51  1  0  0  0
 51 52  1  0  0  0
 51 60  1  0  0  0
 52 53  2  0  0  0
 53 54  1  0  0  0
 54 55  1  0  0  0
 54 60  2  0  0  0
 55 56  1  0  0  0
 55 57  2  0  0  0
 57 58  1  0  0  0
 58 59  2  0  0  0
 59 60  1  0  0  0
 22 28  1  0  0  0
 45 49  1  0  0  0
 47 50  1  0  0  0
 56 61  1  0  0  0
 56 62  1  0  0  0
M  CHG 1   3  -1
M  CHG 1   7  -1
M  CHG 1  11  -1
M  CHG 1  30   1
M  CHG 1  31  -1
M  CHG 1  35  -1
M  CHG 1  39  -1
M  END
> <minimizedAffinity>
-11.38021

$$$$
5TMP_Z5A_A_214


 62 66  0  0  0  0  0  0  0  0999 V2000
   18.4895  107.8923   14.6209 P   0  0  0  0  0  0  0  0  0  0  0  0
   19.9169  108.0245   14.3088 O   0  0  0  0  0  0  0  0  0  0  0  0
   17.4591  107.6634   13.5566 O   0  0  0  0  0  0  0  0  0  0  0  0
   18.2850  106.7803   15.6508 O   0  0  0  0  0  0  0  0  0  0  0  0
   18.8410  106.4364   17.0907 P   0  0  0  0  0  0  0  0  0  0  0  0
   19.4509  107.6911   17.5988 O   0  0  0  0  0  0  0  0  0  0  0  0
   17.7046  105.7494   17.7916 O   0  0  0  0  0  0  0  0  0  0  0  0
   19.9888  105.4590   16.8642 O   0  0  0  0  0  0  0  0  0  0  0  0
   20.4757  104.6108   15.7676 P   0  0  0  0  0  0  0  0  0  0  0  0
   19.3145  103.9559   15.1055 O   0  0  0  0  0  0  0  0  0  0  0  0
   21.3686  105.4786   14.9493 O   0  0  0  0  0  0  0  0  0  0  0  0
   21.1860  103.6368   16.7817 O   0  0  0  0  0  0  0  0  0  0  0  0
   20.5584  102.5704   17.4188 C   0  0  0  0  0  0  0  0  0  0  0  0
   21.6626  101.9549   18.2504 C   0  0  0  0  0  0  0  0  0  0  0  0
   22.6090  101.1903   17.4540 O   0  0  0  0  0  0  0  0  0  0  0  0
   22.4444  102.8046   19.2245 C   0  0  0  0  0  0  0  0  0  0  0  0
   23.8324  102.3989   18.9032 C   0  0  0  0  0  0  0  0  0  0  0  0
   23.7107  101.0454   18.3529 C   0  0  0  0  0  0  0  0  0  0  0  0
   24.8547  100.6935   17.5489 N   0  0  0  0  0  0  0  0  0  0  0  0
   25.8282   99.9100   18.1538 C   0  0  0  0  0  0  0  0  0  0  0  0
   25.7351   99.5544   19.3294 O   0  0  0  0  0  0  0  0  0  0  0  0
   26.8697   99.4773   17.2989 N   0  0  0  0  0  0  0  0  0  0  0  0
   26.8209   99.5696   15.8860 C   0  0  0  0  0  0  0  0  0  0  0  0
   27.6645   99.0187   15.1886 O   0  0  0  0  0  0  0  0  0  0  0  0
   25.7764  100.3747   15.3355 C   0  0  0  0  0  0  0  0  0  0  0  0
   24.8587  100.9397   16.1676 C   0  0  0  0  0  0  0  0  0  0  0  0
   25.7514  100.6252   13.8057 C   0  0  0  0  0  0  0  0  0  0  0  0
   27.6756   99.0892   17.7102 H   0  0  0  0  0  0  0  0  0  0  0  0
   22.1887  102.3310   20.5873 N   0  0  0  0  0  0  0  0  0  0  0  0
   22.5201  103.0719   21.5143 N   0  0  0  0  0  0  0  0  0  0  0  0
   22.7619  103.6338   22.4554 N   0  0  0  0  0  0  0  0  0  0  0  0
   18.0117  109.1473   15.4149 O   0  0  0  0  0  0  0  0  0  0  0  0
   17.7391  110.6550   15.1264 P   0  0  0  0  0  0  0  0  0  0  0  0
   16.4375  110.9780   15.7317 O   0  0  0  0  0  0  0  0  0  0  0  0
   17.9151  110.7246   13.6722 O   0  0  0  0  0  0  0  0  0  0  0  0
   18.8004  111.5912   15.8713 O   0  0  0  0  0  0  0  0  0  0  0  0
   19.3404  111.8648   17.3992 P   0  0  0  0  0  0  0  0  0  0  0  0
   19.0752  110.6412   18.1698 O   0  0  0  0  0  0  0  0  0  0  0  0
   20.7225  112.4150   17.3561 O   0  0  0  0  0  0  0  0  0  0  0  0
   18.4149  113.0308   18.0070 O   0  0  0  0  0  0  0  0  0  0  0  0
   17.4695  112.7741   19.0214 C   0  0  0  0  0  0  0  0  0  0  0  0
   17.1459  113.9530   19.8876 C   0  0  0  0  0  0  0  0  0  0  0  0
   17.7083  115.1785   19.3847 O   0  0  0  0  0  0  0  0  0  0  0  0
   15.5771  114.1734   20.0847 C   0  0  0  0  0  0  0  0  0  0  0  0
   15.3548  114.6944   21.4088 O   0  0  0  0  0  0  0  0  0  0  0  0
   15.2922  115.2334   19.0250 C   0  0  0  0  0  0  0  0  0  0  0  0
   14.0954  116.0339   19.2283 O   0  0  0  0  0  0  0  0  0  0  0  0
   16.6061  116.0461   19.0180 C   0  0  0  0  0  0  0  0  0  0  0  0
   15.8927  115.4912   21.5373 H   0  0  0  0  0  0  0  0  0  0  0  0
   14.1626  116.5074   20.0721 H   0  0  0  0  0  0  0  0  0  0  0  0
   16.8216  116.6793   17.6992 N   0  0  0  0  0  0  0  0  0  0  0  0
   17.3230  117.9206   17.3484 C   0  0  0  0  0  0  0  0  0  0  0  0
   17.5328  118.0470   16.0599 N   0  0  0  0  0  0  0  0  0  0  0  0
   16.9288  116.8861   15.5366 C   0  0  0  0  0  0  0  0  0  0  0  0
   16.7355  116.4048   14.2100 C   0  0  0  0  0  0  0  0  0  0  0  0
   17.0945  117.1155   13.1294 N   0  0  0  0  0  0  0  0  0  0  0  0
   16.2149  115.1459   14.0642 N   0  0  0  0  0  0  0  0  0  0  0  0
   15.9343  114.4348   15.1588 C   0  0  0  0  0  0  0  0  0  0  0  0
   16.1853  114.7478   16.4304 N   0  0  0  0  0  0  0  0  0  0  0  0
   16.6896  115.9881   16.5374 C   0  0  0  0  0  0  0  0  0  0  0  0
   17.4684  118.0199   13.2369 H   0  0  0  0  0  0  0  0  0  0  0  0
   16.9840  116.7324   12.2292 H   0  0  0  0  0  0  0  0  0  0  0  0
 19 20  1  0  0  0
 19 26  1  0  0  0
 19 18  1  0  0  0
 20 21  2  0  0  0
 20 22  1  0  0  0
 22 23  1  0  0  0
 23 24  2  0  0  0
 23 25  1  0  0  0
 25 26  2  0  0  0
 25 27  1  0  0  0
 13 12  1  0  0  0
 13 14  1  0  0  0
 12  9  1  0  0  0
 14 15  1  0  0  0
 14 16  1  0  0  0
 15 18  1  0  0  0
 16 17  1  0  0  0
 16 29  1  0  0  0
 17 18  1  0  0  0
 29 30  2  0  0  0
 30 31  2  0  0  0
  9 10  2  0  0  0
  9 11  1  0  0  0
  9  8  1  0  0  0
  8  5  1  0  0  0
  5  6  2  0  0  0
  5  7  1  0  0  0
  5  4  1  0  0  0
  4  1  1  0  0  0
  1  2  2  0  0  0
  1  3  1  0  0  0
  1 32  1  0  0  0
 32 33  1  0  0  0
 33 34  2  0  0  0
 33 35  1  0  0  0
 33 36  1  0  0  0
 36 37  1  0  0  0
 37 38  2  0  0  0
 37 39  1  0  0  0
 37 40  1  0  0  0
 40 41  1  0  0  0
 41 42  1  0  0  0
 42 43  1  0  0  0
 42 44  1  0  0  0
 43 48  1  0  0  0
 44 45  1  0  0  0
 44 46  1  0  0  0
 46 47  1  0  0  0
 46 48  1  0  0  0
 48 51  1  0  0  0
 51 52  1  0  0  0
 51 60  1  0  0  0
 52 53  2  0  0  0
 53 54  1  0  0  0
 54 55  1  0  0  0
 54 60  2  0  0  0
 55 56  1  0  0  0
 55 57  2  0  0  0
 57 58  1  0  0  0
 58 59  2  0  0  0
 59 60  1  0  0  0
 22 28  1  0  0  0
 45 49  1  0  0  0
 47 50  1  0  0  0
 56 61  1  0  0  0
 56 62  1  0  0  0
M  CHG 1   3  -1
M  CHG 1   7  -1
M  CHG 1  11  -1
M  CHG 1  30   1
M  CHG 1  31  -1
M  CHG 1  35  -1
M  CHG 1  39  -1
M  END
> <minimizedAffinity>
-11.32754

$$$$
5TMP_Z5A_A_214


 62 66  0  0  0  0  0  0  0  0999 V2000
   18.2320  107.4558   13.6041 P   0  0  0  0  0  0  0  0  0  0  0  0
   17.6723  106.9740   12.3366 O   0  0  0  0  0  0  0  0  0  0  0  0
   17.5172  107.2778   14.9096 O   0  0  0  0  0  0  0  0  0  0  0  0
   19.6313  106.8727   13.8076 O   0  0  0  0  0  0  0  0  0  0  0  0
   20.2531  105.4340   14.0177 P   0  0  0  0  0  0  0  0  0  0  0  0
   19.0986  104.5080   14.1360 O   0  0  0  0  0  0  0  0  0  0  0  0
   21.2900  105.2983   12.9403 O   0  0  0  0  0  0  0  0  0  0  0  0
   20.9189  105.4715   15.3886 O   0  0  0  0  0  0  0  0  0  0  0  0
   20.4851  105.5008   16.7922 P   0  0  0  0  0  0  0  0  0  0  0  0
   21.0787  106.6906   17.4611 O   0  0  0  0  0  0  0  0  0  0  0  0
   19.0017  105.3646   16.7611 O   0  0  0  0  0  0  0  0  0  0  0  0
   21.3001  104.1917   17.1140 O   0  0  0  0  0  0  0  0  0  0  0  0
   20.7336  102.9292   17.2630 C   0  0  0  0  0  0  0  0  0  0  0  0
   21.7461  102.1836   18.1049 C   0  0  0  0  0  0  0  0  0  0  0  0
   22.6675  101.3901   17.3074 O   0  0  0  0  0  0  0  0  0  0  0  0
   22.5438  102.9144   19.1592 C   0  0  0  0  0  0  0  0  0  0  0  0
   23.9101  102.4172   18.8754 C   0  0  0  0  0  0  0  0  0  0  0  0
   23.7107  101.1095   18.2433 C   0  0  0  0  0  0  0  0  0  0  0  0
   24.8611  100.7114   17.4707 N   0  0  0  0  0  0  0  0  0  0  0  0
   25.8133   99.9365   18.1190 C   0  0  0  0  0  0  0  0  0  0  0  0
   25.6970   99.6258   19.3052 O   0  0  0  0  0  0  0  0  0  0  0  0
   26.8609   99.4572   17.2968 N   0  0  0  0  0  0  0  0  0  0  0  0
   26.8347   99.4983   15.8809 C   0  0  0  0  0  0  0  0  0  0  0  0
   27.6801   98.9097   15.2173 O   0  0  0  0  0  0  0  0  0  0  0  0
   25.8110  100.2978   15.2851 C   0  0  0  0  0  0  0  0  0  0  0  0
   24.8897  100.9065   16.0816 C   0  0  0  0  0  0  0  0  0  0  0  0
   25.8129  100.4922   13.7469 C   0  0  0  0  0  0  0  0  0  0  0  0
   27.6544   99.0727   17.7345 H   0  0  0  0  0  0  0  0  0  0  0  0
   22.1876  102.3898   20.4801 N   0  0  0  0  0  0  0  0  0  0  0  0
   22.4934  103.0715   21.4599 N   0  0  0  0  0  0  0  0  0  0  0  0
   22.7015  103.5778   22.4397 N   0  0  0  0  0  0  0  0  0  0  0  0
   18.5409  108.9807   13.4909 O   0  0  0  0  0  0  0  0  0  0  0  0
   18.7747  110.1811   14.4579 P   0  0  0  0  0  0  0  0  0  0  0  0
   17.4727  110.8407   14.6437 O   0  0  0  0  0  0  0  0  0  0  0  0
   19.8762  110.8925   13.8012 O   0  0  0  0  0  0  0  0  0  0  0  0
   19.2110  109.6800   15.9127 O   0  0  0  0  0  0  0  0  0  0  0  0
   19.8308  110.3125   17.2971 P   0  0  0  0  0  0  0  0  0  0  0  0
   19.4015  109.4346   18.3955 O   0  0  0  0  0  0  0  0  0  0  0  0
   21.2796  110.6008   17.1170 O   0  0  0  0  0  0  0  0  0  0  0  0
   19.1152  111.7369   17.5070 O   0  0  0  0  0  0  0  0  0  0  0  0
   17.8775  111.8541   18.1726 C   0  0  0  0  0  0  0  0  0  0  0  0
   16.7817  112.4642   17.3529 C   0  0  0  0  0  0  0  0  0  0  0  0
   15.6624  112.8851   18.1535 O   0  0  0  0  0  0  0  0  0  0  0  0
   17.2687  113.7146   16.4879 C   0  0  0  0  0  0  0  0  0  0  0  0
   16.5272  113.7288   15.2534 O   0  0  0  0  0  0  0  0  0  0  0  0
   16.8551  114.8753   17.3876 C   0  0  0  0  0  0  0  0  0  0  0  0
   16.6866  116.1623   16.7324 O   0  0  0  0  0  0  0  0  0  0  0  0
   15.5724  114.3287   18.0529 C   0  0  0  0  0  0  0  0  0  0  0  0
   15.5768  113.7186   15.4470 H   0  0  0  0  0  0  0  0  0  0  0  0
   15.9995  116.0910   16.0514 H   0  0  0  0  0  0  0  0  0  0  0  0
   15.3600  114.9585   19.3738 N   0  0  0  0  0  0  0  0  0  0  0  0
   16.2466  115.3045   20.3785 C   0  0  0  0  0  0  0  0  0  0  0  0
   15.6944  116.0168   21.3313 N   0  0  0  0  0  0  0  0  0  0  0  0
   14.3232  115.9393   21.0152 C   0  0  0  0  0  0  0  0  0  0  0  0
   13.1493  116.4333   21.6532 C   0  0  0  0  0  0  0  0  0  0  0  0
   13.1886  117.0721   22.8331 N   0  0  0  0  0  0  0  0  0  0  0  0
   11.9600  116.2868   20.9890 N   0  0  0  0  0  0  0  0  0  0  0  0
   11.9623  115.7112   19.7843 C   0  0  0  0  0  0  0  0  0  0  0  0
   13.0123  115.3251   19.0586 N   0  0  0  0  0  0  0  0  0  0  0  0
   14.1595  115.4775   19.7404 C   0  0  0  0  0  0  0  0  0  0  0  0
   14.0446  117.1760   23.3083 H   0  0  0  0  0  0  0  0  0  0  0  0
   12.3615  117.4366   23.2233 H   0  0  0  0  0  0  0  0  0  0  0  0
 19 20  1  0  0  0
 19 26  1  0  0  0
 19 18  1  0  0  0
 20 21  2  0  0  0
 20 22  1  0  0  0
 22 23  1  0  0  0
 23 24  2  0  0  0
 23 25  1  0  0  0
 25 26  2  0  0  0
 25 27  1  0  0  0
 13 12  1  0  0  0
 13 14  1  0  0  0
 12  9  1  0  0  0
 14 15  1  0  0  0
 14 16  1  0  0  0
 15 18  1  0  0  0
 16 17  1  0  0  0
 16 29  1  0  0  0
 17 18  1  0  0  0
 29 30  2  0  0  0
 30 31  2  0  0  0
  9 10  2  0  0  0
  9 11  1  0  0  0
  9  8  1  0  0  0
  8  5  1  0  0  0
  5  6  2  0  0  0
  5  7  1  0  0  0
  5  4  1  0  0  0
  4  1  1  0  0  0
  1  2  2  0  0  0
  1  3  1  0  0  0
  1 32  1  0  0  0
 32 33  1  0  0  0
 33 34  2  0  0  0
 33 35  1  0  0  0
 33 36  1  0  0  0
 36 37  1  0  0  0
 37 38  2  0  0  0
 37 39  1  0  0  0
 37 40  1  0  0  0
 40 41  1  0  0  0
 41 42  1  0  0  0
 42 43  1  0  0  0
 42 44  1  0  0  0
 43 48  1  0  0  0
 44 45  1  0  0  0
 44 46  1  0  0  0
 46 47  1  0  0  0
 46 48  1  0  0  0
 48 51  1  0  0  0
 51 52  1  0  0  0
 51 60  1  0  0  0
 52 53  2  0  0  0
 53 54  1  0  0  0
 54 55  1  0  0  0
 54 60  2  0  0  0
 55 56  1  0  0  0
 55 57  2  0  0  0
 57 58  1  0  0  0
 58 59  2  0  0  0
 59 60  1  0  0  0
 22 28  1  0  0  0
 45 49  1  0  0  0
 47 50  1  0  0  0
 56 61  1  0  0  0
 56 62  1  0  0  0
M  CHG 1   3  -1
M  CHG 1   7  -1
M  CHG 1  11  -1
M  CHG 1  30   1
M  CHG 1  31  -1
M  CHG 1  35  -1
M  CHG 1  39  -1
M  END
> <minimizedAffinity>
-10.96907

$$$$
5TMP_Z5A_A_214


 62 66  0  0  0  0  0  0  0  0999 V2000
   18.8385  108.4145   14.0704 P   0  0  0  0  0  0  0  0  0  0  0  0
   20.0515  109.1922   14.3459 O   0  0  0  0  0  0  0  0  0  0  0  0
   18.2996  108.2438   12.6821 O   0  0  0  0  0  0  0  0  0  0  0  0
   18.9871  107.0031   14.6407 O   0  0  0  0  0  0  0  0  0  0  0  0
   19.5112  105.6058   14.1176 P   0  0  0  0  0  0  0  0  0  0  0  0
   18.3000  104.8383   13.7327 O   0  0  0  0  0  0  0  0  0  0  0  0
   20.5995  105.9412   13.1390 O   0  0  0  0  0  0  0  0  0  0  0  0
   20.0971  104.9049   15.3380 O   0  0  0  0  0  0  0  0  0  0  0  0
   20.2074  105.1713   16.7789 P   0  0  0  0  0  0  0  0  0  0  0  0
   21.0009  106.4135   16.9856 O   0  0  0  0  0  0  0  0  0  0  0  0
   18.8161  105.1158   17.3092 O   0  0  0  0  0  0  0  0  0  0  0  0
   21.0879  103.8825   16.9914 O   0  0  0  0  0  0  0  0  0  0  0  0
   20.5767  102.6164   17.2614 C   0  0  0  0  0  0  0  0  0  0  0  0
   21.6493  101.9758   18.1151 C   0  0  0  0  0  0  0  0  0  0  0  0
   22.6055  101.2061   17.3355 O   0  0  0  0  0  0  0  0  0  0  0  0
   22.4170  102.8034   19.1190 C   0  0  0  0  0  0  0  0  0  0  0  0
   23.8071  102.3808   18.8301 C   0  0  0  0  0  0  0  0  0  0  0  0
   23.6807  101.0353   18.2616 C   0  0  0  0  0  0  0  0  0  0  0  0
   24.8406  100.6754   17.4843 N   0  0  0  0  0  0  0  0  0  0  0  0
   25.8154   99.9231   18.1256 C   0  0  0  0  0  0  0  0  0  0  0  0
   25.7101   99.6009   19.3097 O   0  0  0  0  0  0  0  0  0  0  0  0
   26.8746   99.4795   17.2983 N   0  0  0  0  0  0  0  0  0  0  0  0
   26.8448   99.5298   15.8829 C   0  0  0  0  0  0  0  0  0  0  0  0
   27.7054   98.9701   15.2138 O   0  0  0  0  0  0  0  0  0  0  0  0
   25.7979  100.3043   15.2943 C   0  0  0  0  0  0  0  0  0  0  0  0
   24.8612  100.8810   16.0965 C   0  0  0  0  0  0  0  0  0  0  0  0
   25.7915  100.5095   13.7576 C   0  0  0  0  0  0  0  0  0  0  0  0
   27.6795   99.1145   17.7321 H   0  0  0  0  0  0  0  0  0  0  0  0
   22.1182  102.3188   20.4692 N   0  0  0  0  0  0  0  0  0  0  0  0
   22.4870  103.0177   21.4146 N   0  0  0  0  0  0  0  0  0  0  0  0
   22.7548  103.5433   22.3694 N   0  0  0  0  0  0  0  0  0  0  0  0
   17.6566  108.9739   14.9213 O   0  0  0  0  0  0  0  0  0  0  0  0
   17.0536  110.3675   15.2750 P   0  0  0  0  0  0  0  0  0  0  0  0
   15.6090  110.1707   15.4733 O   0  0  0  0  0  0  0  0  0  0  0  0
   17.5410  111.2005   14.1710 O   0  0  0  0  0  0  0  0  0  0  0  0
   17.6079  110.9027   16.6765 O   0  0  0  0  0  0  0  0  0  0  0  0
   18.9624  111.6184   17.2713 P   0  0  0  0  0  0  0  0  0  0  0  0
   19.9225  110.5420   17.5559 O   0  0  0  0  0  0  0  0  0  0  0  0
   19.3693  112.7442   16.3872 O   0  0  0  0  0  0  0  0  0  0  0  0
   18.5473  112.2817   18.6760 O   0  0  0  0  0  0  0  0  0  0  0  0
   17.3409  111.9484   19.3257 C   0  0  0  0  0  0  0  0  0  0  0  0
   16.6152  113.1105   19.9322 C   0  0  0  0  0  0  0  0  0  0  0  0
   17.4024  114.3152   19.9292 O   0  0  0  0  0  0  0  0  0  0  0  0
   15.2258  113.4261   19.2121 C   0  0  0  0  0  0  0  0  0  0  0  0
   14.2994  113.9072   20.2042 O   0  0  0  0  0  0  0  0  0  0  0  0
   15.6347  114.5441   18.2579 C   0  0  0  0  0  0  0  0  0  0  0  0
   14.5642  115.4132   17.7966 O   0  0  0  0  0  0  0  0  0  0  0  0
   16.7387  115.2678   19.0607 C   0  0  0  0  0  0  0  0  0  0  0  0
   14.6904  114.6610   20.6731 H   0  0  0  0  0  0  0  0  0  0  0  0
   14.1490  115.8472   18.5583 H   0  0  0  0  0  0  0  0  0  0  0  0
   17.6924  115.9376   18.1506 N   0  0  0  0  0  0  0  0  0  0  0  0
   18.0027  115.7142   16.8205 C   0  0  0  0  0  0  0  0  0  0  0  0
   18.7742  116.6425   16.3077 N   0  0  0  0  0  0  0  0  0  0  0  0
   19.1478  117.3906   17.4421 C   0  0  0  0  0  0  0  0  0  0  0  0
   20.0134  118.5063   17.6287 C   0  0  0  0  0  0  0  0  0  0  0  0
   20.7369  119.0288   16.6260 N   0  0  0  0  0  0  0  0  0  0  0  0
   20.0451  119.0804   18.8723 N   0  0  0  0  0  0  0  0  0  0  0  0
   19.2602  118.5830   19.8309 C   0  0  0  0  0  0  0  0  0  0  0  0
   18.3385  117.6251   19.7255 N   0  0  0  0  0  0  0  0  0  0  0  0
   18.3377  117.0815   18.4973 C   0  0  0  0  0  0  0  0  0  0  0  0
   20.7123  118.6144   15.7333 H   0  0  0  0  0  0  0  0  0  0  0  0
   21.2921  119.8265   16.7833 H   0  0  0  0  0  0  0  0  0  0  0  0
 19 20  1  0  0  0
 19 26  1  0  0  0
 19 18  1  0  0  0
 20 21  2  0  0  0
 20 22  1  0  0  0
 22 23  1  0  0  0
 23 24  2  0  0  0
 23 25  1  0  0  0
 25 26  2  0  0  0
 25 27  1  0  0  0
 13 12  1  0  0  0
 13 14  1  0  0  0
 12  9  1  0  0  0
 14 15  1  0  0  0
 14 16  1  0  0  0
 15 18  1  0  0  0
 16 17  1  0  0  0
 16 29  1  0  0  0
 17 18  1  0  0  0
 29 30  2  0  0  0
 30 31  2  0  0  0
  9 10  2  0  0  0
  9 11  1  0  0  0
  9  8  1  0  0  0
  8  5  1  0  0  0
  5  6  2  0  0  0
  5  7  1  0  0  0
  5  4  1  0  0  0
  4  1  1  0  0  0
  1  2  2  0  0  0
  1  3  1  0  0  0
  1 32  1  0  0  0
 32 33  1  0  0  0
 33 34  2  0  0  0
 33 35  1  0  0  0
 33 36  1  0  0  0
 36 37  1  0  0  0
 37 38  2  0  0  0
 37 39  1  0  0  0
 37 40  1  0  0  0
 40 41  1  0  0  0
 41 42  1  0  0  0
 42 43  1  0  0  0
 42 44  1  0  0  0
 43 48  1  0  0  0
 44 45  1  0  0  0
 44 46  1  0  0  0
 46 47  1  0  0  0
 46 48  1  0  0  0
 48 51  1  0  0  0
 51 52  1  0  0  0
 51 60  1  0  0  0
 52 53  2  0  0  0
 53 54  1  0  0  0
 54 55  1  0  0  0
 54 60  2  0  0  0
 55 56  1  0  0  0
 55 57  2  0  0  0
 57 58  1  0  0  0
 58 59  2  0  0  0
 59 60  1  0  0  0
 22 28  1  0  0  0
 45 49  1  0  0  0
 47 50  1  0  0  0
 56 61  1  0  0  0
 56 62  1  0  0  0
M  CHG 1   3  -1
M  CHG 1   7  -1
M  CHG 1  11  -1
M  CHG 1  30   1
M  CHG 1  31  -1
M  CHG 1  35  -1
M  CHG 1  39  -1
M  END
> <minimizedAffinity>
-10.89632

$$$$
5TMP_Z5A_A_214


 62 66  0  0  0  0  0  0  0  0999 V2000
   19.7863  107.2257   16.5253 P   0  0  0  0  0  0  0  0  0  0  0  0
   18.3937  106.8879   16.8394 O   0  0  0  0  0  0  0  0  0  0  0  0
   20.9189  106.8664   17.4391 O   0  0  0  0  0  0  0  0  0  0  0  0
   20.1588  106.6640   15.1524 O   0  0  0  0  0  0  0  0  0  0  0  0
   20.3416  105.2293   14.5130 P   0  0  0  0  0  0  0  0  0  0  0  0
   18.9861  104.8029   14.0828 O   0  0  0  0  0  0  0  0  0  0  0  0
   21.4852  105.3759   13.5512 O   0  0  0  0  0  0  0  0  0  0  0  0
   20.7367  104.3139   15.6663 O   0  0  0  0  0  0  0  0  0  0  0  0
   21.0846  102.8971   15.8415 P   0  0  0  0  0  0  0  0  0  0  0  0
   20.0715  102.0569   15.1463 O   0  0  0  0  0  0  0  0  0  0  0  0
   22.5129  102.7770   15.4347 O   0  0  0  0  0  0  0  0  0  0  0  0
   20.8034  102.9771   17.3893 O   0  0  0  0  0  0  0  0  0  0  0  0
   20.5108  101.8793   18.1934 C   0  0  0  0  0  0  0  0  0  0  0  0
   21.8197  101.5973   18.8982 C   0  0  0  0  0  0  0  0  0  0  0  0
   22.7450  100.8273   18.0825 O   0  0  0  0  0  0  0  0  0  0  0  0
   22.5895  102.7216   19.5505 C   0  0  0  0  0  0  0  0  0  0  0  0
   23.9583  102.4542   19.0513 C   0  0  0  0  0  0  0  0  0  0  0  0
   23.9825  101.0151   18.7725 C   0  0  0  0  0  0  0  0  0  0  0  0
   25.0291  100.6712   17.8422 N   0  0  0  0  0  0  0  0  0  0  0  0
   26.0443   99.8515   18.3167 C   0  0  0  0  0  0  0  0  0  0  0  0
   26.0670   99.4582   19.4837 O   0  0  0  0  0  0  0  0  0  0  0  0
   26.9820   99.4303   17.3440 N   0  0  0  0  0  0  0  0  0  0  0  0
   26.7881   99.5709   15.9477 C   0  0  0  0  0  0  0  0  0  0  0  0
   27.5430   99.0296   15.1485 O   0  0  0  0  0  0  0  0  0  0  0  0
   25.7084  100.4115   15.5355 C   0  0  0  0  0  0  0  0  0  0  0  0
   24.8941  100.9635   16.4767 C   0  0  0  0  0  0  0  0  0  0  0  0
   25.5291  100.7137   14.0254 C   0  0  0  0  0  0  0  0  0  0  0  0
   27.8184   99.0151   17.6560 H   0  0  0  0  0  0  0  0  0  0  0  0
   22.6345  102.4961   20.9977 N   0  0  0  0  0  0  0  0  0  0  0  0
   22.8255  103.4783   21.7167 N   0  0  0  0  0  0  0  0  0  0  0  0
   22.9866  104.2710   22.4948 N   0  0  0  0  0  0  0  0  0  0  0  0
   19.9070  108.7615   16.2793 O   0  0  0  0  0  0  0  0  0  0  0  0
   19.6078  110.0776   17.0598 P   0  0  0  0  0  0  0  0  0  0  0  0
   20.7097  111.0081   16.7678 O   0  0  0  0  0  0  0  0  0  0  0  0
   19.4006  109.5832   18.4247 O   0  0  0  0  0  0  0  0  0  0  0  0
   18.2876  110.7932   16.5095 O   0  0  0  0  0  0  0  0  0  0  0  0
   17.6633  112.3097   16.4040 P   0  0  0  0  0  0  0  0  0  0  0  0
   18.7220  113.1684   15.8532 O   0  0  0  0  0  0  0  0  0  0  0  0
   16.3365  112.2648   15.7315 O   0  0  0  0  0  0  0  0  0  0  0  0
   17.3831  112.7924   17.9119 O   0  0  0  0  0  0  0  0  0  0  0  0
   16.1769  112.4877   18.5760 C   0  0  0  0  0  0  0  0  0  0  0  0
   16.0325  113.1139   19.9295 C   0  0  0  0  0  0  0  0  0  0  0  0
   17.2133  113.8294   20.3355 O   0  0  0  0  0  0  0  0  0  0  0  0
   14.7910  114.1128   20.0281 C   0  0  0  0  0  0  0  0  0  0  0  0
   14.2508  114.0350   21.3608 O   0  0  0  0  0  0  0  0  0  0  0  0
   15.4736  115.4567   19.7922 C   0  0  0  0  0  0  0  0  0  0  0  0
   14.7680  116.6271   20.2889 O   0  0  0  0  0  0  0  0  0  0  0  0
   16.8613  115.2325   20.4333 C   0  0  0  0  0  0  0  0  0  0  0  0
   14.9555  114.2035   22.0057 H   0  0  0  0  0  0  0  0  0  0  0  0
   14.6489  116.5498   21.2484 H   0  0  0  0  0  0  0  0  0  0  0  0
   17.8768  116.0985   19.7968 N   0  0  0  0  0  0  0  0  0  0  0  0
   18.6992  115.8963   18.7021 C   0  0  0  0  0  0  0  0  0  0  0  0
   19.3400  116.9789   18.3313 N   0  0  0  0  0  0  0  0  0  0  0  0
   19.0670  117.8723   19.3864 C   0  0  0  0  0  0  0  0  0  0  0  0
   19.4876  119.2043   19.6655 C   0  0  0  0  0  0  0  0  0  0  0  0
   20.3688  119.8558   18.8904 N   0  0  0  0  0  0  0  0  0  0  0  0
   18.9133  119.8369   20.7365 N   0  0  0  0  0  0  0  0  0  0  0  0
   17.9869  119.1883   21.4462 C   0  0  0  0  0  0  0  0  0  0  0  0
   17.4459  117.9951   21.1978 N   0  0  0  0  0  0  0  0  0  0  0  0
   18.0345  117.4015   20.1464 C   0  0  0  0  0  0  0  0  0  0  0  0
   20.7800  119.3989   18.1214 H   0  0  0  0  0  0  0  0  0  0  0  0
   20.6038  120.7906   19.0909 H   0  0  0  0  0  0  0  0  0  0  0  0
 19 20  1  0  0  0
 19 26  1  0  0  0
 19 18  1  0  0  0
 20 21  2  0  0  0
 20 22  1  0  0  0
 22 23  1  0  0  0
 23 24  2  0  0  0
 23 25  1  0  0  0
 25 26  2  0  0  0
 25 27  1  0  0  0
 13 12  1  0  0  0
 13 14  1  0  0  0
 12  9  1  0  0  0
 14 15  1  0  0  0
 14 16  1  0  0  0
 15 18  1  0  0  0
 16 17  1  0  0  0
 16 29  1  0  0  0
 17 18  1  0  0  0
 29 30  2  0  0  0
 30 31  2  0  0  0
  9 10  2  0  0  0
  9 11  1  0  0  0
  9  8  1  0  0  0
  8  5  1  0  0  0
  5  6  2  0  0  0
  5  7  1  0  0  0
  5  4  1  0  0  0
  4  1  1  0  0  0
  1  2  2  0  0  0
  1  3  1  0  0  0
  1 32  1  0  0  0
 32 33  1  0  0  0
 33 34  2  0  0  0
 33 35  1  0  0  0
 33 36  1  0  0  0
 36 37  1  0  0  0
 37 38  2  0  0  0
 37 39  1  0  0  0
 37 40  1  0  0  0
 40 41  1  0  0  0
 41 42  1  0  0  0
 42 43  1  0  0  0
 42 44  1  0  0  0
 43 48  1  0  0  0
 44 45  1  0  0  0
 44 46  1  0  0  0
 46 47  1  0  0  0
 46 48  1  0  0  0
 48 51  1  0  0  0
 51 52  1  0  0  0
 51 60  1  0  0  0
 52 53  2  0  0  0
 53 54  1  0  0  0
 54 55  1  0  0  0
 54 60  2  0  0  0
 55 56  1  0  0  0
 55 57  2  0  0  0
 57 58  1  0  0  0
 58 59  2  0  0  0
 59 60  1  0  0  0
 22 28  1  0  0  0
 45 49  1  0  0  0
 47 50  1  0  0  0
 56 61  1  0  0  0
 56 62  1  0  0  0
M  CHG 1   3  -1
M  CHG 1   7  -1
M  CHG 1  11  -1
M  CHG 1  30   1
M  CHG 1  31  -1
M  CHG 1  35  -1
M  CHG 1  39  -1
M  END
> <minimizedAffinity>
-10.57428

$$$$
5TMP_Z5A_A_214


 62 66  0  0  0  0  0  0  0  0999 V2000
   18.5274  107.7080   13.1886 P   0  0  0  0  0  0  0  0  0  0  0  0
   18.8682  109.0992   13.5052 O   0  0  0  0  0  0  0  0  0  0  0  0
   18.4632  107.2046   11.7781 O   0  0  0  0  0  0  0  0  0  0  0  0
   19.4719  106.7612   13.9307 O   0  0  0  0  0  0  0  0  0  0  0  0
   19.9443  105.2601   13.7750 P   0  0  0  0  0  0  0  0  0  0  0  0
   18.7035  104.4605   13.6155 O   0  0  0  0  0  0  0  0  0  0  0  0
   21.0203  105.2985   12.7285 O   0  0  0  0  0  0  0  0  0  0  0  0
   20.5360  104.8745   15.1259 O   0  0  0  0  0  0  0  0  0  0  0  0
   20.2629  105.1658   16.5401 P   0  0  0  0  0  0  0  0  0  0  0  0
   20.9293  106.4438   16.9118 O   0  0  0  0  0  0  0  0  0  0  0  0
   18.7853  105.0581   16.6983 O   0  0  0  0  0  0  0  0  0  0  0  0
   21.1077  103.9193   17.0024 O   0  0  0  0  0  0  0  0  0  0  0  0
   20.5679  102.6740   17.3110 C   0  0  0  0  0  0  0  0  0  0  0  0
   21.6402  102.0228   18.1571 C   0  0  0  0  0  0  0  0  0  0  0  0
   22.5902  101.2535   17.3695 O   0  0  0  0  0  0  0  0  0  0  0  0
   22.4151  102.8402   19.1638 C   0  0  0  0  0  0  0  0  0  0  0  0
   23.8022  102.4127   18.8677 C   0  0  0  0  0  0  0  0  0  0  0  0
   23.6674  101.0716   18.2910 C   0  0  0  0  0  0  0  0  0  0  0  0
   24.8230  100.7110   17.5077 N   0  0  0  0  0  0  0  0  0  0  0  0
   25.7901   99.9387   18.1370 C   0  0  0  0  0  0  0  0  0  0  0  0
   25.6817   99.5998   19.3162 O   0  0  0  0  0  0  0  0  0  0  0  0
   26.8441   99.4963   17.3026 N   0  0  0  0  0  0  0  0  0  0  0  0
   26.8143   99.5683   15.8881 C   0  0  0  0  0  0  0  0  0  0  0  0
   27.6685   99.0095   15.2101 O   0  0  0  0  0  0  0  0  0  0  0  0
   25.7754  100.3628   15.3119 C   0  0  0  0  0  0  0  0  0  0  0  0
   24.8453  100.9373   16.1233 C   0  0  0  0  0  0  0  0  0  0  0  0
   25.7706  100.5912   13.7784 C   0  0  0  0  0  0  0  0  0  0  0  0
   27.6452   99.1162   17.7303 H   0  0  0  0  0  0  0  0  0  0  0  0
   22.1182  102.3484   20.5118 N   0  0  0  0  0  0  0  0  0  0  0  0
   22.4856  103.0438   21.4603 N   0  0  0  0  0  0  0  0  0  0  0  0
   22.7525  103.5656   22.4175 N   0  0  0  0  0  0  0  0  0  0  0  0
   17.1528  107.3488   13.8330 O   0  0  0  0  0  0  0  0  0  0  0  0
   15.6538  107.7252   13.6282 P   0  0  0  0  0  0  0  0  0  0  0  0
   14.8565  106.5933   14.1262 O   0  0  0  0  0  0  0  0  0  0  0  0
   15.6202  108.0836   12.2066 O   0  0  0  0  0  0  0  0  0  0  0  0
   15.2377  108.9733   14.5374 O   0  0  0  0  0  0  0  0  0  0  0  0
   15.6627  110.5487   14.7331 P   0  0  0  0  0  0  0  0  0  0  0  0
   16.2764  110.9840   13.4700 O   0  0  0  0  0  0  0  0  0  0  0  0
   14.5159  111.3165   15.2900 O   0  0  0  0  0  0  0  0  0  0  0  0
   16.8071  110.5745   15.8623 O   0  0  0  0  0  0  0  0  0  0  0  0
   17.9253  111.4283   15.7655 C   0  0  0  0  0  0  0  0  0  0  0  0
   18.5943  111.7334   17.0710 C   0  0  0  0  0  0  0  0  0  0  0  0
   19.4348  112.8995   17.0013 O   0  0  0  0  0  0  0  0  0  0  0  0
   17.5614  111.9396   18.2708 C   0  0  0  0  0  0  0  0  0  0  0  0
   18.1665  111.4450   19.4804 O   0  0  0  0  0  0  0  0  0  0  0  0
   17.4431  113.4604   18.3007 C   0  0  0  0  0  0  0  0  0  0  0  0
   16.9867  114.0407   19.5534 O   0  0  0  0  0  0  0  0  0  0  0  0
   18.8601  113.9043   17.8744 C   0  0  0  0  0  0  0  0  0  0  0  0
   19.0264  111.8745   19.6109 H   0  0  0  0  0  0  0  0  0  0  0  0
   17.6040  113.8042   20.2632 H   0  0  0  0  0  0  0  0  0  0  0  0
   18.8187  115.2337   17.2282 N   0  0  0  0  0  0  0  0  0  0  0  0
   18.6550  115.6062   15.9054 C   0  0  0  0  0  0  0  0  0  0  0  0
   18.4885  116.8978   15.7499 N   0  0  0  0  0  0  0  0  0  0  0  0
   18.7746  117.3998   17.0353 C   0  0  0  0  0  0  0  0  0  0  0  0
   18.8413  118.7178   17.5712 C   0  0  0  0  0  0  0  0  0  0  0  0
   18.6806  119.8112   16.8094 N   0  0  0  0  0  0  0  0  0  0  0  0
   19.0206  118.8415   18.9239 N   0  0  0  0  0  0  0  0  0  0  0  0
   19.1054  117.7347   19.6657 C   0  0  0  0  0  0  0  0  0  0  0  0
   18.9398  116.4696   19.2784 N   0  0  0  0  0  0  0  0  0  0  0  0
   18.7716  116.3842   17.9485 C   0  0  0  0  0  0  0  0  0  0  0  0
   18.5520  119.7196   15.8376 H   0  0  0  0  0  0  0  0  0  0  0  0
   18.6913  120.7049   17.2224 H   0  0  0  0  0  0  0  0  0  0  0  0
 19 20  1  0  0  0
 19 26  1  0  0  0
 19 18  1  0  0  0
 20 21  2  0  0  0
 20 22  1  0  0  0
 22 23  1  0  0  0
 23 24  2  0  0  0
 23 25  1  0  0  0
 25 26  2  0  0  0
 25 27  1  0  0  0
 13 12  1  0  0  0
 13 14  1  0  0  0
 12  9  1  0  0  0
 14 15  1  0  0  0
 14 16  1  0  0  0
 15 18  1  0  0  0
 16 17  1  0  0  0
 16 29  1  0  0  0
 17 18  1  0  0  0
 29 30  2  0  0  0
 30 31  2  0  0  0
  9 10  2  0  0  0
  9 11  1  0  0  0
  9  8  1  0  0  0
  8  5  1  0  0  0
  5  6  2  0  0  0
  5  7  1  0  0  0
  5  4  1  0  0  0
  4  1  1  0  0  0
  1  2  2  0  0  0
  1  3  1  0  0  0
  1 32  1  0  0  0
 32 33  1  0  0  0
 33 34  2  0  0  0
 33 35  1  0  0  0
 33 36  1  0  0  0
 36 37  1  0  0  0
 37 38  2  0  0  0
 37 39  1  0  0  0
 37 40  1  0  0  0
 40 41  1  0  0  0
 41 42  1  0  0  0
 42 43  1  0  0  0
 42 44  1  0  0  0
 43 48  1  0  0  0
 44 45  1  0  0  0
 44 46  1  0  0  0
 46 47  1  0  0  0
 46 48  1  0  0  0
 48 51  1  0  0  0
 51 52  1  0  0  0
 51 60  1  0  0  0
 52 53  2  0  0  0
 53 54  1  0  0  0
 54 55  1  0  0  0
 54 60  2  0  0  0
 55 56  1  0  0  0
 55 57  2  0  0  0
 57 58  1  0  0  0
 58 59  2  0  0  0
 59 60  1  0  0  0
 22 28  1  0  0  0
 45 49  1  0  0  0
 47 50  1  0  0  0
 56 61  1  0  0  0
 56 62  1  0  0  0
M  CHG 1   3  -1
M  CHG 1   7  -1
M  CHG 1  11  -1
M  CHG 1  30   1
M  CHG 1  31  -1
M  CHG 1  35  -1
M  CHG 1  39  -1
M  END
> <minimizedAffinity>
-10.51641

$$$$
5TMP_Z5A_A_214


 62 66  0  0  0  0  0  0  0  0999 V2000
   20.1511  105.3299   13.3804 P   0  0  0  0  0  0  0  0  0  0  0  0
   21.6148  105.2900   13.2894 O   0  0  0  0  0  0  0  0  0  0  0  0
   19.3237  104.0827   13.4627 O   0  0  0  0  0  0  0  0  0  0  0  0
   19.7292  106.1942   14.5696 O   0  0  0  0  0  0  0  0  0  0  0  0
   19.6255  106.0135   16.1371 P   0  0  0  0  0  0  0  0  0  0  0  0
   21.0135  105.7804   16.6097 O   0  0  0  0  0  0  0  0  0  0  0  0
   18.7965  107.1737   16.6074 O   0  0  0  0  0  0  0  0  0  0  0  0
   18.8713  104.7059   16.3500 O   0  0  0  0  0  0  0  0  0  0  0  0
   18.3533  103.9391   17.4915 P   0  0  0  0  0  0  0  0  0  0  0  0
   17.9529  104.8825   18.5709 O   0  0  0  0  0  0  0  0  0  0  0  0
   17.3251  103.0192   16.9289 O   0  0  0  0  0  0  0  0  0  0  0  0
   19.7726  103.3146   17.7686 O   0  0  0  0  0  0  0  0  0  0  0  0
   20.3090  102.2387   17.0673 C   0  0  0  0  0  0  0  0  0  0  0  0
   21.4232  101.7494   17.9668 C   0  0  0  0  0  0  0  0  0  0  0  0
   22.4470  101.0105   17.2454 O   0  0  0  0  0  0  0  0  0  0  0  0
   22.1105  102.7048   18.9139 C   0  0  0  0  0  0  0  0  0  0  0  0
   23.5334  102.3806   18.6596 C   0  0  0  0  0  0  0  0  0  0  0  0
   23.5241  100.9935   18.1848 C   0  0  0  0  0  0  0  0  0  0  0  0
   24.7168  100.6791   17.4381 N   0  0  0  0  0  0  0  0  0  0  0  0
   25.6978   99.9540   18.1011 C   0  0  0  0  0  0  0  0  0  0  0  0
   25.5698   99.6182   19.2792 O   0  0  0  0  0  0  0  0  0  0  0  0
   26.7941   99.5530   17.3010 N   0  0  0  0  0  0  0  0  0  0  0  0
   26.8027   99.6146   15.8857 C   0  0  0  0  0  0  0  0  0  0  0  0
   27.7000   99.0895   15.2371 O   0  0  0  0  0  0  0  0  0  0  0  0
   25.7475  100.3590   15.2736 C   0  0  0  0  0  0  0  0  0  0  0  0
   24.7697  100.8973   16.0531 C   0  0  0  0  0  0  0  0  0  0  0  0
   25.7777  100.5772   13.7389 C   0  0  0  0  0  0  0  0  0  0  0  0
   27.5982   99.2112   17.7547 H   0  0  0  0  0  0  0  0  0  0  0  0
   21.8405  102.2905   20.2933 N   0  0  0  0  0  0  0  0  0  0  0  0
   22.3680  102.9460   21.1934 N   0  0  0  0  0  0  0  0  0  0  0  0
   22.7721  103.4446   22.1142 N   0  0  0  0  0  0  0  0  0  0  0  0
   19.5767  106.1449   12.1806 O   0  0  0  0  0  0  0  0  0  0  0  0
   18.3077  106.9964   11.8720 P   0  0  0  0  0  0  0  0  0  0  0  0
   17.1482  106.2221   12.3421 O   0  0  0  0  0  0  0  0  0  0  0  0
   18.4732  107.2851   10.4437 O   0  0  0  0  0  0  0  0  0  0  0  0
   18.2925  108.3487   12.7256 O   0  0  0  0  0  0  0  0  0  0  0  0
   17.2407  109.2072   13.6517 P   0  0  0  0  0  0  0  0  0  0  0  0
   16.3825  109.9652   12.7295 O   0  0  0  0  0  0  0  0  0  0  0  0
   16.6143  108.3150   14.6647 O   0  0  0  0  0  0  0  0  0  0  0  0
   18.1225  110.2689   14.4766 O   0  0  0  0  0  0  0  0  0  0  0  0
   19.5188  110.3658   14.3047 C   0  0  0  0  0  0  0  0  0  0  0  0
   20.2683  110.8236   15.5186 C   0  0  0  0  0  0  0  0  0  0  0  0
   20.1513  112.2411   15.7377 O   0  0  0  0  0  0  0  0  0  0  0  0
   19.8122  110.0777   16.8544 C   0  0  0  0  0  0  0  0  0  0  0  0
   20.9625  109.9330   17.7087 O   0  0  0  0  0  0  0  0  0  0  0  0
   18.8244  111.0860   17.4333 C   0  0  0  0  0  0  0  0  0  0  0  0
   18.5780  110.9898   18.8631 O   0  0  0  0  0  0  0  0  0  0  0  0
   19.4341  112.4323   16.9832 C   0  0  0  0  0  0  0  0  0  0  0  0
   21.3704  110.8014   17.8516 H   0  0  0  0  0  0  0  0  0  0  0  0
   19.4101  111.1208   19.3441 H   0  0  0  0  0  0  0  0  0  0  0  0
   18.3838  113.4656   16.8583 N   0  0  0  0  0  0  0  0  0  0  0  0
   17.2945  113.5690   16.0110 C   0  0  0  0  0  0  0  0  0  0  0  0
   16.4830  114.5484   16.3310 N   0  0  0  0  0  0  0  0  0  0  0  0
   17.2134  115.2405   17.3177 C   0  0  0  0  0  0  0  0  0  0  0  0
   16.9602  116.4305   18.0585 C   0  0  0  0  0  0  0  0  0  0  0  0
   15.8751  117.1913   17.8453 N   0  0  0  0  0  0  0  0  0  0  0  0
   17.8430  116.7542   19.0551 N   0  0  0  0  0  0  0  0  0  0  0  0
   18.8741  115.9395   19.2911 C   0  0  0  0  0  0  0  0  0  0  0  0
   19.1304  114.7543   18.7364 N   0  0  0  0  0  0  0  0  0  0  0  0
   18.2505  114.4709   17.7620 C   0  0  0  0  0  0  0  0  0  0  0  0
   15.2424  116.9565   17.1286 H   0  0  0  0  0  0  0  0  0  0  0  0
   15.7120  117.9841   18.4057 H   0  0  0  0  0  0  0  0  0  0  0  0
 19 20  1  0  0  0
 19 26  1  0  0  0
 19 18  1  0  0  0
 20 21  2  0  0  0
 20 22  1  0  0  0
 22 23  1  0  0  0
 23 24  2  0  0  0
 23 25  1  0  0  0
 25 26  2  0  0  0
 25 27  1  0  0  0
 13 12  1  0  0  0
 13 14  1  0  0  0
 12  9  1  0  0  0
 14 15  1  0  0  0
 14 16  1  0  0  0
 15 18  1  0  0  0
 16 17  1  0  0  0
 16 29  1  0  0  0
 17 18  1  0  0  0
 29 30  2  0  0  0
 30 31  2  0  0  0
  9 10  2  0  0  0
  9 11  1  0  0  0
  9  8  1  0  0  0
  8  5  1  0  0  0
  5  6  2  0  0  0
  5  7  1  0  0  0
  5  4  1  0  0  0
  4  1  1  0  0  0
  1  2  2  0  0  0
  1  3  1  0  0  0
  1 32  1  0  0  0
 32 33  1  0  0  0
 33 34  2  0  0  0
 33 35  1  0  0  0
 33 36  1  0  0  0
 36 37  1  0  0  0
 37 38  2  0  0  0
 37 39  1  0  0  0
 37 40  1  0  0  0
 40 41  1  0  0  0
 41 42  1  0  0  0
 42 43  1  0  0  0
 42 44  1  0  0  0
 43 48  1  0  0  0
 44 45  1  0  0  0
 44 46  1  0  0  0
 46 47  1  0  0  0
 46 48  1  0  0  0
 48 51  1  0  0  0
 51 52  1  0  0  0
 51 60  1  0  0  0
 52 53  2  0  0  0
 53 54  1  0  0  0
 54 55  1  0  0  0
 54 60  2  0  0  0
 55 56  1  0  0  0
 55 57  2  0  0  0
 57 58  1  0  0  0
 58 59  2  0  0  0
 59 60  1  0  0  0
 22 28  1  0  0  0
 45 49  1  0  0  0
 47 50  1  0  0  0
 56 61  1  0  0  0
 56 62  1  0  0  0
M  CHG 1   3  -1
M  CHG 1   7  -1
M  CHG 1  11  -1
M  CHG 1  30   1
M  CHG 1  31  -1
M  CHG 1  35  -1
M  CHG 1  39  -1
M  END
> <minimizedAffinity>
-10.45181

$$$$
5TMP_Z5A_A_214


 62 66  0  0  0  0  0  0  0  0999 V2000
   19.0510  108.5186   14.5075 P   0  0  0  0  0  0  0  0  0  0  0  0
   20.4598  108.7471   14.1680 O   0  0  0  0  0  0  0  0  0  0  0  0
   17.9351  108.9224   13.5917 O   0  0  0  0  0  0  0  0  0  0  0  0
   18.8262  107.0378   14.8173 O   0  0  0  0  0  0  0  0  0  0  0  0
   19.2556  105.6561   14.1791 P   0  0  0  0  0  0  0  0  0  0  0  0
   17.9974  104.8922   13.9850 O   0  0  0  0  0  0  0  0  0  0  0  0
   20.1632  106.0203   13.0397 O   0  0  0  0  0  0  0  0  0  0  0  0
   20.0393  104.9287   15.2657 O   0  0  0  0  0  0  0  0  0  0  0  0
   20.2763  105.0877   16.7071 P   0  0  0  0  0  0  0  0  0  0  0  0
   21.1915  106.2409   16.9263 O   0  0  0  0  0  0  0  0  0  0  0  0
   18.9274  105.1159   17.3392 O   0  0  0  0  0  0  0  0  0  0  0  0
   21.0499  103.7170   16.7727 O   0  0  0  0  0  0  0  0  0  0  0  0
   20.4951  102.5213   17.2195 C   0  0  0  0  0  0  0  0  0  0  0  0
   21.5836  101.9279   18.0870 C   0  0  0  0  0  0  0  0  0  0  0  0
   22.5604  101.1670   17.3245 O   0  0  0  0  0  0  0  0  0  0  0  0
   22.3285  102.7971   19.0729 C   0  0  0  0  0  0  0  0  0  0  0  0
   23.7295  102.4052   18.7935 C   0  0  0  0  0  0  0  0  0  0  0  0
   23.6391  101.0448   18.2543 C   0  0  0  0  0  0  0  0  0  0  0  0
   24.8086  100.6989   17.4852 N   0  0  0  0  0  0  0  0  0  0  0  0
   25.7765   99.9370   18.1257 C   0  0  0  0  0  0  0  0  0  0  0  0
   25.6573   99.5952   19.3030 O   0  0  0  0  0  0  0  0  0  0  0  0
   26.8461   99.5081   17.3040 N   0  0  0  0  0  0  0  0  0  0  0  0
   26.8332   99.5817   15.8893 C   0  0  0  0  0  0  0  0  0  0  0  0
   27.7024   99.0339   15.2215 O   0  0  0  0  0  0  0  0  0  0  0  0
   25.7926  100.3649   15.3011 C   0  0  0  0  0  0  0  0  0  0  0  0
   24.8456  100.9274   16.1014 C   0  0  0  0  0  0  0  0  0  0  0  0
   25.8044  100.5954   13.7680 C   0  0  0  0  0  0  0  0  0  0  0  0
   27.6461   99.1367   17.7414 H   0  0  0  0  0  0  0  0  0  0  0  0
   22.0416  102.3342   20.4333 N   0  0  0  0  0  0  0  0  0  0  0  0
   22.4620  103.0226   21.3646 N   0  0  0  0  0  0  0  0  0  0  0  0
   22.7744  103.5425   22.3090 N   0  0  0  0  0  0  0  0  0  0  0  0
   18.7334  109.1791   15.8846 O   0  0  0  0  0  0  0  0  0  0  0  0
   19.4732  110.0656   16.9322 P   0  0  0  0  0  0  0  0  0  0  0  0
   20.7343  110.4999   16.3109 O   0  0  0  0  0  0  0  0  0  0  0  0
   19.4925  109.1939   18.1113 O   0  0  0  0  0  0  0  0  0  0  0  0
   18.6610  111.4098   17.2343 O   0  0  0  0  0  0  0  0  0  0  0  0
   18.8778  113.0337   17.1044 P   0  0  0  0  0  0  0  0  0  0  0  0
   20.1928  113.3356   17.6885 O   0  0  0  0  0  0  0  0  0  0  0  0
   18.5780  113.4743   15.7149 O   0  0  0  0  0  0  0  0  0  0  0  0
   17.7632  113.7179   18.0396 O   0  0  0  0  0  0  0  0  0  0  0  0
   17.2908  113.0902   19.2107 C   0  0  0  0  0  0  0  0  0  0  0  0
   15.7987  113.0516   19.3415 C   0  0  0  0  0  0  0  0  0  0  0  0
   15.3417  113.5688   20.6043 O   0  0  0  0  0  0  0  0  0  0  0  0
   15.0475  113.8486   18.1799 C   0  0  0  0  0  0  0  0  0  0  0  0
   13.8112  113.1695   17.8898 O   0  0  0  0  0  0  0  0  0  0  0  0
   14.7885  115.1890   18.8611 C   0  0  0  0  0  0  0  0  0  0  0  0
   13.7091  115.9894   18.3056 O   0  0  0  0  0  0  0  0  0  0  0  0
   14.5752  114.7690   20.3325 C   0  0  0  0  0  0  0  0  0  0  0  0
   13.2978  113.0694   18.7067 H   0  0  0  0  0  0  0  0  0  0  0  0
   12.8773  115.4935   18.3610 H   0  0  0  0  0  0  0  0  0  0  0  0
   14.9390  115.8715   21.2483 N   0  0  0  0  0  0  0  0  0  0  0  0
   14.3478  116.3299   22.4127 C   0  0  0  0  0  0  0  0  0  0  0  0
   15.0751  117.2196   23.0450 N   0  0  0  0  0  0  0  0  0  0  0  0
   16.0959  117.4974   22.1138 C   0  0  0  0  0  0  0  0  0  0  0  0
   17.1935  118.4052   22.1171 C   0  0  0  0  0  0  0  0  0  0  0  0
   17.3971  119.2814   23.1134 N   0  0  0  0  0  0  0  0  0  0  0  0
   18.0874  118.3194   21.0824 N   0  0  0  0  0  0  0  0  0  0  0  0
   17.8976  117.3896   20.1433 C   0  0  0  0  0  0  0  0  0  0  0  0
   16.9757  116.4266   20.1131 N   0  0  0  0  0  0  0  0  0  0  0  0
   16.1144  116.5430   21.1371 C   0  0  0  0  0  0  0  0  0  0  0  0
   16.7532  119.3411   23.8557 H   0  0  0  0  0  0  0  0  0  0  0  0
   18.1903  119.8645   23.1017 H   0  0  0  0  0  0  0  0  0  0  0  0
 19 20  1  0  0  0
 19 26  1  0  0  0
 19 18  1  0  0  0
 20 21  2  0  0  0
 20 22  1  0  0  0
 22 23  1  0  0  0
 23 24  2  0  0  0
 23 25  1  0  0  0
 25 26  2  0  0  0
 25 27  1  0  0  0
 13 12  1  0  0  0
 13 14  1  0  0  0
 12  9  1  0  0  0
 14 15  1  0  0  0
 14 16  1  0  0  0
 15 18  1  0  0  0
 16 17  1  0  0  0
 16 29  1  0  0  0
 17 18  1  0  0  0
 29 30  2  0  0  0
 30 31  2  0  0  0
  9 10  2  0  0  0
  9 11  1  0  0  0
  9  8  1  0  0  0
  8  5  1  0  0  0
  5  6  2  0  0  0
  5  7  1  0  0  0
  5  4  1  0  0  0
  4  1  1  0  0  0
  1  2  2  0  0  0
  1  3  1  0  0  0
  1 32  1  0  0  0
 32 33  1  0  0  0
 33 34  2  0  0  0
 33 35  1  0  0  0
 33 36  1  0  0  0
 36 37  1  0  0  0
 37 38  2  0  0  0
 37 39  1  0  0  0
 37 40  1  0  0  0
 40 41  1  0  0  0
 41 42  1  0  0  0
 42 43  1  0  0  0
 42 44  1  0  0  0
 43 48  1  0  0  0
 44 45  1  0  0  0
 44 46  1  0  0  0
 46 47  1  0  0  0
 46 48  1  0  0  0
 48 51  1  0  0  0
 51 52  1  0  0  0
 51 60  1  0  0  0
 52 53  2  0  0  0
 53 54  1  0  0  0
 54 55  1  0  0  0
 54 60  2  0  0  0
 55 56  1  0  0  0
 55 57  2  0  0  0
 57 58  1  0  0  0
 58 59  2  0  0  0
 59 60  1  0  0  0
 22 28  1  0  0  0
 45 49  1  0  0  0
 47 50  1  0  0  0
 56 61  1  0  0  0
 56 62  1  0  0  0
M  CHG 1   3  -1
M  CHG 1   7  -1
M  CHG 1  11  -1
M  CHG 1  30   1
M  CHG 1  31  -1
M  CHG 1  35  -1
M  CHG 1  39  -1
M  END
> <minimizedAffinity>
-10.34917

$$$$
5TMP_Z5A_A_214


 62 66  0  0  0  0  0  0  0  0999 V2000
   18.9098  108.2192   14.6540 P   0  0  0  0  0  0  0  0  0  0  0  0
   20.2038  108.8599   14.3948 O   0  0  0  0  0  0  0  0  0  0  0  0
   18.1337  107.5260   13.5751 O   0  0  0  0  0  0  0  0  0  0  0  0
   19.0523  107.2037   15.7887 O   0  0  0  0  0  0  0  0  0  0  0  0
   20.2447  106.5047   16.5570 P   0  0  0  0  0  0  0  0  0  0  0  0
   21.1485  105.9755   15.5047 O   0  0  0  0  0  0  0  0  0  0  0  0
   20.6939  107.5125   17.5754 O   0  0  0  0  0  0  0  0  0  0  0  0
   19.6316  105.2928   17.2494 O   0  0  0  0  0  0  0  0  0  0  0  0
   18.8816  104.0939   16.8502 P   0  0  0  0  0  0  0  0  0  0  0  0
   17.5530  104.1043   17.5211 O   0  0  0  0  0  0  0  0  0  0  0  0
   18.9298  104.0624   15.3613 O   0  0  0  0  0  0  0  0  0  0  0  0
   19.9000  103.1564   17.6021 O   0  0  0  0  0  0  0  0  0  0  0  0
   20.2897  101.8980   17.1530 C   0  0  0  0  0  0  0  0  0  0  0  0
   21.4634  101.5519   18.0433 C   0  0  0  0  0  0  0  0  0  0  0  0
   22.5077  100.8229   17.3415 O   0  0  0  0  0  0  0  0  0  0  0  0
   22.1192  102.6203   18.8862 C   0  0  0  0  0  0  0  0  0  0  0  0
   23.5506  102.3658   18.6022 C   0  0  0  0  0  0  0  0  0  0  0  0
   23.6151  100.9475   18.2365 C   0  0  0  0  0  0  0  0  0  0  0  0
   24.7995  100.6493   17.4702 N   0  0  0  0  0  0  0  0  0  0  0  0
   25.8061   99.9482   18.1205 C   0  0  0  0  0  0  0  0  0  0  0  0
   25.7064   99.6199   19.3034 O   0  0  0  0  0  0  0  0  0  0  0  0
   26.8949   99.5613   17.3033 N   0  0  0  0  0  0  0  0  0  0  0  0
   26.8760   99.6112   15.8876 C   0  0  0  0  0  0  0  0  0  0  0  0
   27.7710   99.0978   15.2265 O   0  0  0  0  0  0  0  0  0  0  0  0
   25.7958  100.3306   15.2894 C   0  0  0  0  0  0  0  0  0  0  0  0
   24.8226  100.8570   16.0828 C   0  0  0  0  0  0  0  0  0  0  0  0
   25.7934  100.5367   13.7527 C   0  0  0  0  0  0  0  0  0  0  0  0
   27.7135   99.2383   17.7446 H   0  0  0  0  0  0  0  0  0  0  0  0
   21.9239  102.3009   20.3030 N   0  0  0  0  0  0  0  0  0  0  0  0
   22.4525  103.0476   21.1283 N   0  0  0  0  0  0  0  0  0  0  0  0
   22.8666  103.6339   21.9913 N   0  0  0  0  0  0  0  0  0  0  0  0
   17.9310  109.2581   15.2836 O   0  0  0  0  0  0  0  0  0  0  0  0
   17.6742  110.7936   15.1990 P   0  0  0  0  0  0  0  0  0  0  0  0
   16.6681  111.1161   16.2231 O   0  0  0  0  0  0  0  0  0  0  0  0
   17.3648  110.9738   13.7770 O   0  0  0  0  0  0  0  0  0  0  0  0
   18.9786  111.6250   15.6052 O   0  0  0  0  0  0  0  0  0  0  0  0
   19.8984  111.8963   16.9398 P   0  0  0  0  0  0  0  0  0  0  0  0
   19.3475  111.0573   18.0141 O   0  0  0  0  0  0  0  0  0  0  0  0
   21.3407  111.7824   16.5917 O   0  0  0  0  0  0  0  0  0  0  0  0
   19.6591  113.4318   17.3530 O   0  0  0  0  0  0  0  0  0  0  0  0
   18.3635  113.9792   17.4539 C   0  0  0  0  0  0  0  0  0  0  0  0
   17.8453  114.1060   18.8541 C   0  0  0  0  0  0  0  0  0  0  0  0
   18.6599  114.9691   19.6680 O   0  0  0  0  0  0  0  0  0  0  0  0
   16.3419  114.6391   18.9195 C   0  0  0  0  0  0  0  0  0  0  0  0
   15.6890  114.0188   20.0433 O   0  0  0  0  0  0  0  0  0  0  0  0
   16.5667  116.1271   19.1707 C   0  0  0  0  0  0  0  0  0  0  0  0
   15.4557  116.8483   19.7706 O   0  0  0  0  0  0  0  0  0  0  0  0
   17.8545  116.1209   20.0241 C   0  0  0  0  0  0  0  0  0  0  0  0
   16.2081  114.1779   20.8471 H   0  0  0  0  0  0  0  0  0  0  0  0
   15.2450  116.4580   20.6332 H   0  0  0  0  0  0  0  0  0  0  0  0
   18.6006  117.3861   19.8530 N   0  0  0  0  0  0  0  0  0  0  0  0
   19.4821  117.8060   18.8721 C   0  0  0  0  0  0  0  0  0  0  0  0
   19.7987  119.0748   18.9718 N   0  0  0  0  0  0  0  0  0  0  0  0
   19.2470  119.4304   20.2190 C   0  0  0  0  0  0  0  0  0  0  0  0
   19.2600  120.6347   20.9796 C   0  0  0  0  0  0  0  0  0  0  0  0
   19.9433  121.7223   20.5898 N   0  0  0  0  0  0  0  0  0  0  0  0
   18.4938  120.6733   22.1148 N   0  0  0  0  0  0  0  0  0  0  0  0
   17.7686  119.6001   22.4385 C   0  0  0  0  0  0  0  0  0  0  0  0
   17.5997  118.4787   21.7370 N   0  0  0  0  0  0  0  0  0  0  0  0
   18.3677  118.4718   20.6351 C   0  0  0  0  0  0  0  0  0  0  0  0
   20.4931  121.6919   19.7737 H   0  0  0  0  0  0  0  0  0  0  0  0
   19.8947  122.5504   21.1200 H   0  0  0  0  0  0  0  0  0  0  0  0
 19 20  1  0  0  0
 19 26  1  0  0  0
 19 18  1  0  0  0
 20 21  2  0  0  0
 20 22  1  0  0  0
 22 23  1  0  0  0
 23 24  2  0  0  0
 23 25  1  0  0  0
 25 26  2  0  0  0
 25 27  1  0  0  0
 13 12  1  0  0  0
 13 14  1  0  0  0
 12  9  1  0  0  0
 14 15  1  0  0  0
 14 16  1  0  0  0
 15 18  1  0  0  0
 16 17  1  0  0  0
 16 29  1  0  0  0
 17 18  1  0  0  0
 29 30  2  0  0  0
 30 31  2  0  0  0
  9 10  2  0  0  0
  9 11  1  0  0  0
  9  8  1  0  0  0
  8  5  1  0  0  0
  5  6  2  0  0  0
  5  7  1  0  0  0
  5  4  1  0  0  0
  4  1  1  0  0  0
  1  2  2  0  0  0
  1  3  1  0  0  0
  1 32  1  0  0  0
 32 33  1  0  0  0
 33 34  2  0  0  0
 33 35  1  0  0  0
 33 36  1  0  0  0
 36 37  1  0  0  0
 37 38  2  0  0  0
 37 39  1  0  0  0
 37 40  1  0  0  0
 40 41  1  0  0  0
 41 42  1  0  0  0
 42 43  1  0  0  0
 42 44  1  0  0  0
 43 48  1  0  0  0
 44 45  1  0  0  0
 44 46  1  0  0  0
 46 47  1  0  0  0
 46 48  1  0  0  0
 48 51  1  0  0  0
 51 52  1  0  0  0
 51 60  1  0  0  0
 52 53  2  0  0  0
 53 54  1  0  0  0
 54 55  1  0  0  0
 54 60  2  0  0  0
 55 56  1  0  0  0
 55 57  2  0  0  0
 57 58  1  0  0  0
 58 59  2  0  0  0
 59 60  1  0  0  0
 22 28  1  0  0  0
 45 49  1  0  0  0
 47 50  1  0  0  0
 56 61  1  0  0  0
 56 62  1  0  0  0
M  CHG 1   3  -1
M  CHG 1   7  -1
M  CHG 1  11  -1
M  CHG 1  30   1
M  CHG 1  31  -1
M  CHG 1  35  -1
M  CHG 1  39  -1
M  END
> <minimizedAffinity>
-10.20470

$$$$
