2BQV_A1A_A_1100


 48 51  0  0  0  0  0  0  0  0999 V2000
   13.7593   25.4551    4.8292 O   0  0  0  0  0  0  0  0  0  0  0  0
   13.2942   24.2053    5.3223 C   0  0  0  0  0  0  0  0  0  0  0  0
   14.6123   25.3301    4.3846 H   0  0  0  0  0  0  0  0  0  0  0  0
   11.9047   24.3884    6.0504 C   0  0  0  0  0  0  0  0  0  0  0  0
   11.4333   23.4763    6.7579 O   0  0  0  0  0  0  0  0  0  0  0  0
   11.2349   25.5458    5.9183 N   0  0  0  0  0  0  0  0  0  0  0  0
   11.6209   26.2476    5.3458 H   0  0  0  0  0  0  0  0  0  0  0  0
    9.9500   25.8158    6.5892 C   0  0  0  0  0  0  0  0  0  0  0  0
   10.0543   26.6095    7.8632 C   0  0  0  0  0  0  0  0  0  0  0  0
    8.9077   27.4229    7.9962 C   0  0  0  0  0  0  0  0  0  0  0  0
   11.0974   26.6190    8.8463 C   0  0  0  0  0  0  0  0  0  0  0  0
   10.9463   27.4867    9.9780 C   0  0  0  0  0  0  0  0  0  0  0  0
    9.7749   28.3185   10.1132 C   0  0  0  0  0  0  0  0  0  0  0  0
    8.9054   26.6208    5.7371 C   0  0  0  0  0  0  0  0  0  0  0  0
    9.4835   27.7547    5.0790 O   0  0  0  0  0  0  0  0  0  0  0  0
    8.7394   28.2922    9.1165 C   0  0  0  0  0  0  0  0  0  0  0  0
    7.9667   27.2160    6.8171 C   0  0  0  0  0  0  0  0  0  0  0  0
    9.8890   28.3393    5.7384 H   0  0  0  0  0  0  0  0  0  0  0  0
   14.2676   23.7564    6.4872 C   0  0  0  0  0  0  0  0  0  0  0  0
   15.7114   23.4992    6.3494 N   0  0  0  0  0  0  0  0  0  0  0  0
   15.9397   21.1017    5.5527 C   0  0  0  0  0  0  0  0  0  0  0  0
   14.9650   20.5733    6.1031 O   0  0  0  0  0  0  0  0  0  0  0  0
   16.1466   22.4493    5.5143 N   0  0  0  0  0  0  0  0  0  0  0  0
   16.7061   22.7455    4.7603 H   0  0  0  0  0  0  0  0  0  0  0  0
   17.0211   20.2403    4.8207 C   0  0  0  0  0  0  0  0  0  0  0  0
   19.7410   20.2931    5.6364 O   0  0  0  0  0  0  0  0  0  0  0  0
   17.6882   19.3718    5.7846 N   0  0  0  0  0  0  0  0  0  0  0  0
   18.9841   19.4296    6.1398 C   0  0  0  0  0  0  0  0  0  0  0  0
   17.1381   18.6783    6.2155 H   0  0  0  0  0  0  0  0  0  0  0  0
   19.3266   17.1087    6.8180 C   0  0  0  0  0  0  0  0  0  0  0  0
   19.4055   18.5121    7.0499 O   0  0  0  0  0  0  0  0  0  0  0  0
   16.5443   19.3293    3.6465 C   0  0  0  0  0  0  0  0  0  0  0  0
   15.4441   19.9896    2.7692 C   0  0  0  0  0  0  0  0  0  0  0  0
   15.9847   17.9772    4.1146 C   0  0  0  0  0  0  0  0  0  0  0  0
   16.3845   23.6103    7.6858 C   0  0  0  0  0  0  0  0  0  0  0  0
   16.4634   22.3818    8.6063 C   0  0  0  0  0  0  0  0  0  0  0  0
   17.7248   21.7001    8.7242 C   0  0  0  0  0  0  0  0  0  0  0  0
   17.8556   20.5511    9.5678 C   0  0  0  0  0  0  0  0  0  0  0  0
   16.7220   20.0733   10.3041 C   0  0  0  0  0  0  0  0  0  0  0  0
   15.4587   20.7465   10.1949 C   0  0  0  0  0  0  0  0  0  0  0  0
   15.3287   21.8966    9.3493 C   0  0  0  0  0  0  0  0  0  0  0  0
   13.1189   23.2285    4.1008 C   0  0  0  0  0  0  0  0  0  0  0  0
   11.7524   23.3414    3.3767 C   0  0  0  0  0  0  0  0  0  0  0  0
   10.7636   22.3002    3.5133 C   0  0  0  0  0  0  0  0  0  0  0  0
    9.5154   22.3963    2.8161 C   0  0  0  0  0  0  0  0  0  0  0  0
    9.2421   23.5249    1.9788 C   0  0  0  0  0  0  0  0  0  0  0  0
   10.2155   24.5669    1.8388 C   0  0  0  0  0  0  0  0  0  0  0  0
   11.4650   24.4767    2.5316 C   0  0  0  0  0  0  0  0  0  0  0  0
 43 44  2  0  0  0
 43 48  1  0  0  0
 43 42  1  0  0  0
 44 45  1  0  0  0
 45 46  2  0  0  0
 46 47  1  0  0  0
 47 48  2  0  0  0
 36 37  2  0  0  0
 36 41  1  0  0  0
 36 35  1  0  0  0
 37 38  1  0  0  0
 38 39  2  0  0  0
 39 40  1  0  0  0
 40 41  2  0  0  0
 35 20  1  0  0  0
 30 31  1  0  0  0
 19  2  1  0  0  0
 19 20  1  0  0  0
 26 28  2  0  0  0
 27 28  1  0  0  0
 27 25  1  0  0  0
 42  2  1  0  0  0
  1  2  1  0  0  0
 31 28  1  0  0  0
  4  5  2  0  0  0
  4  6  1  0  0  0
  4  2  1  0  0  0
  6  8  1  0  0  0
  8  9  1  0  0  0
  8 14  1  0  0  0
  9 10  2  0  0  0
  9 11  1  0  0  0
 10 16  1  0  0  0
 10 17  1  0  0  0
 11 12  2  0  0  0
 12 13  1  0  0  0
 13 16  2  0  0  0
 14 15  1  0  0  0
 14 17  1  0  0  0
 25 32  1  0  0  0
 25 21  1  0  0  0
 32 33  1  0  0  0
 32 34  1  0  0  0
 21 22  2  0  0  0
 21 23  1  0  0  0
 20 23  1  0  0  0
 27 29  1  0  0  0
  1  3  1  0  0  0
  6  7  1  0  0  0
 15 18  1  0  0  0
 23 24  1  0  0  0
M  END
> <minimizedAffinity>
-11.62467

$$$$
2BQV_A1A_A_1100


 48 51  0  0  0  0  0  0  0  0999 V2000
   16.0738   23.6811    5.0887 O   0  0  0  0  0  0  0  0  0  0  0  0
   15.5115   22.9726    6.1857 C   0  0  0  0  0  0  0  0  0  0  0  0
   15.9731   24.6348    5.2340 H   0  0  0  0  0  0  0  0  0  0  0  0
   15.6660   21.4160    5.9672 C   0  0  0  0  0  0  0  0  0  0  0  0
   14.7393   20.6376    6.2672 O   0  0  0  0  0  0  0  0  0  0  0  0
   16.8013   20.9308    5.4369 N   0  0  0  0  0  0  0  0  0  0  0  0
   17.5237   21.5630    5.2182 H   0  0  0  0  0  0  0  0  0  0  0  0
   17.0177   19.4976    5.1665 C   0  0  0  0  0  0  0  0  0  0  0  0
   16.8429   19.0902    3.7287 C   0  0  0  0  0  0  0  0  0  0  0  0
   17.7366   18.0371    3.4348 C   0  0  0  0  0  0  0  0  0  0  0  0
   15.9531   19.6164    2.7357 C   0  0  0  0  0  0  0  0  0  0  0  0
   15.9965   19.0420    1.4223 C   0  0  0  0  0  0  0  0  0  0  0  0
   16.9105   17.9666    1.1221 C   0  0  0  0  0  0  0  0  0  0  0  0
   18.4445   18.9545    5.5333 C   0  0  0  0  0  0  0  0  0  0  0  0
   19.4978   19.8124    5.0774 O   0  0  0  0  0  0  0  0  0  0  0  0
   17.7932   17.4521    2.1333 C   0  0  0  0  0  0  0  0  0  0  0  0
   18.5596   17.6767    4.6641 C   0  0  0  0  0  0  0  0  0  0  0  0
   19.4279   19.9278    4.1169 H   0  0  0  0  0  0  0  0  0  0  0  0
   13.9451   23.1988    6.1512 C   0  0  0  0  0  0  0  0  0  0  0  0
   13.2118   23.9814    5.1414 N   0  0  0  0  0  0  0  0  0  0  0  0
   12.2806   25.7969    6.6485 C   0  0  0  0  0  0  0  0  0  0  0  0
   13.2982   26.1430    7.2625 O   0  0  0  0  0  0  0  0  0  0  0  0
   12.2970   24.9672    5.5661 N   0  0  0  0  0  0  0  0  0  0  0  0
   11.5232   25.0773    4.9676 H   0  0  0  0  0  0  0  0  0  0  0  0
   10.8665   26.3197    7.0662 C   0  0  0  0  0  0  0  0  0  0  0  0
    9.2334   27.9863    5.4472 O   0  0  0  0  0  0  0  0  0  0  0  0
    9.8825   25.9177    6.0669 N   0  0  0  0  0  0  0  0  0  0  0  0
    9.1254   26.7435    5.3226 C   0  0  0  0  0  0  0  0  0  0  0  0
    9.7612   24.9512    5.9239 H   0  0  0  0  0  0  0  0  0  0  0  0
    7.3395   26.9041    3.6649 C   0  0  0  0  0  0  0  0  0  0  0  0
    8.2577   26.1562    4.4568 O   0  0  0  0  0  0  0  0  0  0  0  0
   10.3114   25.8687    8.4534 C   0  0  0  0  0  0  0  0  0  0  0  0
    8.8555   26.3472    8.7135 C   0  0  0  0  0  0  0  0  0  0  0  0
   11.1576   26.3629    9.6367 C   0  0  0  0  0  0  0  0  0  0  0  0
   12.7570   23.0864    4.0263 C   0  0  0  0  0  0  0  0  0  0  0  0
   11.4193   23.3633    3.3214 C   0  0  0  0  0  0  0  0  0  0  0  0
   10.3290   22.4530    3.5499 C   0  0  0  0  0  0  0  0  0  0  0  0
    9.0609   22.6627    2.9198 C   0  0  0  0  0  0  0  0  0  0  0  0
    8.8718   23.7895    2.0538 C   0  0  0  0  0  0  0  0  0  0  0  0
    9.9527   24.7050    1.8195 C   0  0  0  0  0  0  0  0  0  0  0  0
   11.2222   24.4935    2.4505 C   0  0  0  0  0  0  0  0  0  0  0  0
   16.2812   23.3955    7.4916 C   0  0  0  0  0  0  0  0  0  0  0  0
   16.3584   22.2932    8.5793 C   0  0  0  0  0  0  0  0  0  0  0  0
   17.5710   21.5353    8.7684 C   0  0  0  0  0  0  0  0  0  0  0  0
   17.6249   20.4967    9.7541 C   0  0  0  0  0  0  0  0  0  0  0  0
   16.4761   20.2036   10.5565 C   0  0  0  0  0  0  0  0  0  0  0  0
   15.2676   20.9527   10.3799 C   0  0  0  0  0  0  0  0  0  0  0  0
   15.2064   21.9908    9.3961 C   0  0  0  0  0  0  0  0  0  0  0  0
 43 44  2  0  0  0
 43 48  1  0  0  0
 43 42  1  0  0  0
 44 45  1  0  0  0
 45 46  2  0  0  0
 46 47  1  0  0  0
 47 48  2  0  0  0
 36 37  2  0  0  0
 36 41  1  0  0  0
 36 35  1  0  0  0
 37 38  1  0  0  0
 38 39  2  0  0  0
 39 40  1  0  0  0
 40 41  2  0  0  0
 35 20  1  0  0  0
 30 31  1  0  0  0
 19  2  1  0  0  0
 19 20  1  0  0  0
 26 28  2  0  0  0
 27 28  1  0  0  0
 27 25  1  0  0  0
 42  2  1  0  0  0
  1  2  1  0  0  0
 31 28  1  0  0  0
  4  5  2  0  0  0
  4  6  1  0  0  0
  4  2  1  0  0  0
  6  8  1  0  0  0
  8  9  1  0  0  0
  8 14  1  0  0  0
  9 10  2  0  0  0
  9 11  1  0  0  0
 10 16  1  0  0  0
 10 17  1  0  0  0
 11 12  2  0  0  0
 12 13  1  0  0  0
 13 16  2  0  0  0
 14 15  1  0  0  0
 14 17  1  0  0  0
 25 32  1  0  0  0
 25 21  1  0  0  0
 32 33  1  0  0  0
 32 34  1  0  0  0
 21 22  2  0  0  0
 21 23  1  0  0  0
 20 23  1  0  0  0
 27 29  1  0  0  0
  1  3  1  0  0  0
  6  7  1  0  0  0
 15 18  1  0  0  0
 23 24  1  0  0  0
M  END
> <minimizedAffinity>
-11.08875

$$$$
2BQV_A1A_A_1100


 48 51  0  0  0  0  0  0  0  0999 V2000
   13.9339   21.0056    7.1281 O   0  0  0  0  0  0  0  0  0  0  0  0
   13.8588   22.4228    7.0417 C   0  0  0  0  0  0  0  0  0  0  0  0
   14.8642   20.7309    7.1336 H   0  0  0  0  0  0  0  0  0  0  0  0
   12.3501   22.8900    7.0313 C   0  0  0  0  0  0  0  0  0  0  0  0
   11.4285   22.0581    6.9163 O   0  0  0  0  0  0  0  0  0  0  0  0
   12.0597   24.1951    7.1654 N   0  0  0  0  0  0  0  0  0  0  0  0
   12.8039   24.8349    7.2435 H   0  0  0  0  0  0  0  0  0  0  0  0
   10.6806   24.7155    7.2012 C   0  0  0  0  0  0  0  0  0  0  0  0
   10.4634   25.8717    8.1392 C   0  0  0  0  0  0  0  0  0  0  0  0
    9.4803   26.7283    7.5971 C   0  0  0  0  0  0  0  0  0  0  0  0
   11.0951   26.1563    9.3940 C   0  0  0  0  0  0  0  0  0  0  0  0
   10.7012   27.3467   10.0900 C   0  0  0  0  0  0  0  0  0  0  0  0
    9.6972   28.2223    9.5353 C   0  0  0  0  0  0  0  0  0  0  0  0
   10.1281   25.2438    5.8297 C   0  0  0  0  0  0  0  0  0  0  0  0
   11.0638   26.0831    5.1419 O   0  0  0  0  0  0  0  0  0  0  0  0
    9.0746   27.9171    8.2761 C   0  0  0  0  0  0  0  0  0  0  0  0
    8.9798   26.1900    6.2635 C   0  0  0  0  0  0  0  0  0  0  0  0
   11.3038   26.8324    5.7092 H   0  0  0  0  0  0  0  0  0  0  0  0
   14.3882   22.8453    5.6108 C   0  0  0  0  0  0  0  0  0  0  0  0
   13.9270   22.2920    4.3260 N   0  0  0  0  0  0  0  0  0  0  0  0
   15.2464   20.1374    4.0980 C   0  0  0  0  0  0  0  0  0  0  0  0
   14.7858   19.4748    5.0366 O   0  0  0  0  0  0  0  0  0  0  0  0
   14.7128   21.3190    3.6742 N   0  0  0  0  0  0  0  0  0  0  0  0
   14.9146   21.5334    2.7348 H   0  0  0  0  0  0  0  0  0  0  0  0
   16.4928   19.6421    3.2926 C   0  0  0  0  0  0  0  0  0  0  0  0
   18.7377   20.0171    4.9913 O   0  0  0  0  0  0  0  0  0  0  0  0
   17.2096   18.6377    4.0711 N   0  0  0  0  0  0  0  0  0  0  0  0
   18.2742   18.8593    4.8626 C   0  0  0  0  0  0  0  0  0  0  0  0
   16.8834   17.7108    4.0115 H   0  0  0  0  0  0  0  0  0  0  0  0
   18.4203   16.4405    5.1647 C   0  0  0  0  0  0  0  0  0  0  0  0
   18.8006   17.7744    5.4897 O   0  0  0  0  0  0  0  0  0  0  0  0
   16.2411   19.0246    1.8815 C   0  0  0  0  0  0  0  0  0  0  0  0
   14.8189   18.4170    1.7255 C   0  0  0  0  0  0  0  0  0  0  0  0
   17.2389   17.9146    1.5169 C   0  0  0  0  0  0  0  0  0  0  0  0
   13.3708   23.3865    3.4634 C   0  0  0  0  0  0  0  0  0  0  0  0
   11.8784   23.3856    3.0950 C   0  0  0  0  0  0  0  0  0  0  0  0
   11.3744   24.4708    2.2963 C   0  0  0  0  0  0  0  0  0  0  0  0
    9.9933   24.5203    1.9233 C   0  0  0  0  0  0  0  0  0  0  0  0
    9.1019   23.4802    2.3465 C   0  0  0  0  0  0  0  0  0  0  0  0
    9.5943   22.3918    3.1429 C   0  0  0  0  0  0  0  0  0  0  0  0
   10.9774   22.3438    3.5164 C   0  0  0  0  0  0  0  0  0  0  0  0
   14.5855   23.0319    8.2977 C   0  0  0  0  0  0  0  0  0  0  0  0
   15.6605   22.1103    8.9297 C   0  0  0  0  0  0  0  0  0  0  0  0
   17.0086   22.1000    8.4170 C   0  0  0  0  0  0  0  0  0  0  0  0
   17.9887   21.2227    8.9854 C   0  0  0  0  0  0  0  0  0  0  0  0
   17.6363   20.3503   10.0645 C   0  0  0  0  0  0  0  0  0  0  0  0
   16.3012   20.3551   10.5842 C   0  0  0  0  0  0  0  0  0  0  0  0
   15.3167   21.2280   10.0201 C   0  0  0  0  0  0  0  0  0  0  0  0
 43 44  2  0  0  0
 43 48  1  0  0  0
 43 42  1  0  0  0
 44 45  1  0  0  0
 45 46  2  0  0  0
 46 47  1  0  0  0
 47 48  2  0  0  0
 36 37  2  0  0  0
 36 41  1  0  0  0
 36 35  1  0  0  0
 37 38  1  0  0  0
 38 39  2  0  0  0
 39 40  1  0  0  0
 40 41  2  0  0  0
 35 20  1  0  0  0
 30 31  1  0  0  0
 19  2  1  0  0  0
 19 20  1  0  0  0
 26 28  2  0  0  0
 27 28  1  0  0  0
 27 25  1  0  0  0
 42  2  1  0  0  0
  1  2  1  0  0  0
 31 28  1  0  0  0
  4  5  2  0  0  0
  4  6  1  0  0  0
  4  2  1  0  0  0
  6  8  1  0  0  0
  8  9  1  0  0  0
  8 14  1  0  0  0
  9 10  2  0  0  0
  9 11  1  0  0  0
 10 16  1  0  0  0
 10 17  1  0  0  0
 11 12  2  0  0  0
 12 13  1  0  0  0
 13 16  2  0  0  0
 14 15  1  0  0  0
 14 17  1  0  0  0
 25 32  1  0  0  0
 25 21  1  0  0  0
 32 33  1  0  0  0
 32 34  1  0  0  0
 21 22  2  0  0  0
 21 23  1  0  0  0
 20 23  1  0  0  0
 27 29  1  0  0  0
  1  3  1  0  0  0
  6  7  1  0  0  0
 15 18  1  0  0  0
 23 24  1  0  0  0
M  END
> <minimizedAffinity>
-10.57165

$$$$
2BQV_A1A_A_1100


 48 51  0  0  0  0  0  0  0  0999 V2000
   11.0588   22.4762    5.4864 O   0  0  0  0  0  0  0  0  0  0  0  0
   12.3228   22.5707    4.8424 C   0  0  0  0  0  0  0  0  0  0  0  0
   10.5029   23.2247    5.2190 H   0  0  0  0  0  0  0  0  0  0  0  0
   13.2433   21.3591    5.2658 C   0  0  0  0  0  0  0  0  0  0  0  0
   13.0071   20.7158    6.3074 O   0  0  0  0  0  0  0  0  0  0  0  0
   14.2797   21.0100    4.4850 N   0  0  0  0  0  0  0  0  0  0  0  0
   14.4538   21.5394    3.6733 H   0  0  0  0  0  0  0  0  0  0  0  0
   15.1689   19.8727    4.7848 C   0  0  0  0  0  0  0  0  0  0  0  0
   15.7530   19.1894    3.5783 C   0  0  0  0  0  0  0  0  0  0  0  0
   17.0452   18.7162    3.8956 C   0  0  0  0  0  0  0  0  0  0  0  0
   15.1840   18.9977    2.2767 C   0  0  0  0  0  0  0  0  0  0  0  0
   15.9697   18.3087    1.2946 C   0  0  0  0  0  0  0  0  0  0  0  0
   17.2904   17.8262    1.6188 C   0  0  0  0  0  0  0  0  0  0  0  0
   16.4267   20.2179    5.6589 C   0  0  0  0  0  0  0  0  0  0  0  0
   17.1020   21.4010    5.2148 O   0  0  0  0  0  0  0  0  0  0  0  0
   17.8416   18.0273    2.9311 C   0  0  0  0  0  0  0  0  0  0  0  0
   17.3981   19.0538    5.3378 C   0  0  0  0  0  0  0  0  0  0  0  0
   17.3665   21.2937    4.2877 H   0  0  0  0  0  0  0  0  0  0  0  0
   13.0718   23.8319    5.4378 C   0  0  0  0  0  0  0  0  0  0  0  0
   13.2840   24.1091    6.8689 N   0  0  0  0  0  0  0  0  0  0  0  0
   11.1036   25.2272    7.5253 C   0  0  0  0  0  0  0  0  0  0  0  0
   10.2912   24.3237    7.2890 O   0  0  0  0  0  0  0  0  0  0  0  0
   12.4558   25.0482    7.5179 N   0  0  0  0  0  0  0  0  0  0  0  0
   12.9470   25.6980    8.0708 H   0  0  0  0  0  0  0  0  0  0  0  0
   10.6247   26.6730    7.8827 C   0  0  0  0  0  0  0  0  0  0  0  0
    9.4346   27.7234    5.5277 O   0  0  0  0  0  0  0  0  0  0  0  0
    9.2049   26.8072    7.5752 N   0  0  0  0  0  0  0  0  0  0  0  0
    8.6831   27.3157    6.4447 C   0  0  0  0  0  0  0  0  0  0  0  0
    8.5690   26.4963    8.2595 H   0  0  0  0  0  0  0  0  0  0  0  0
    6.4917   27.3119    7.5223 C   0  0  0  0  0  0  0  0  0  0  0  0
    7.3267   27.3612    6.3691 O   0  0  0  0  0  0  0  0  0  0  0  0
   10.8150   27.1526    9.3557 C   0  0  0  0  0  0  0  0  0  0  0  0
   10.6888   26.0023   10.3935 C   0  0  0  0  0  0  0  0  0  0  0  0
    9.8133   28.2392    9.7755 C   0  0  0  0  0  0  0  0  0  0  0  0
   14.7523   24.1991    7.1643 C   0  0  0  0  0  0  0  0  0  0  0  0
   15.4367   23.0920    7.9820 C   0  0  0  0  0  0  0  0  0  0  0  0
   16.8707   23.1166    8.0937 C   0  0  0  0  0  0  0  0  0  0  0  0
   17.5603   22.1109    8.8434 C   0  0  0  0  0  0  0  0  0  0  0  0
   16.8183   21.0691    9.4913 C   0  0  0  0  0  0  0  0  0  0  0  0
   15.3867   21.0355    9.3875 C   0  0  0  0  0  0  0  0  0  0  0  0
   14.6975   22.0427    8.6358 C   0  0  0  0  0  0  0  0  0  0  0  0
   12.0873   22.5290    3.2870 C   0  0  0  0  0  0  0  0  0  0  0  0
   10.8057   23.2598    2.8097 C   0  0  0  0  0  0  0  0  0  0  0  0
   10.7895   24.6957    2.6742 C   0  0  0  0  0  0  0  0  0  0  0  0
    9.5921   25.3669    2.2631 C   0  0  0  0  0  0  0  0  0  0  0  0
    8.4043   24.6175    1.9855 C   0  0  0  0  0  0  0  0  0  0  0  0
    8.4101   23.1904    2.1131 C   0  0  0  0  0  0  0  0  0  0  0  0
    9.6025   22.5136    2.5246 C   0  0  0  0  0  0  0  0  0  0  0  0
 43 44  2  0  0  0
 43 48  1  0  0  0
 43 42  1  0  0  0
 44 45  1  0  0  0
 45 46  2  0  0  0
 46 47  1  0  0  0
 47 48  2  0  0  0
 36 37  2  0  0  0
 36 41  1  0  0  0
 36 35  1  0  0  0
 37 38  1  0  0  0
 38 39  2  0  0  0
 39 40  1  0  0  0
 40 41  2  0  0  0
 35 20  1  0  0  0
 30 31  1  0  0  0
 19  2  1  0  0  0
 19 20  1  0  0  0
 26 28  2  0  0  0
 27 28  1  0  0  0
 27 25  1  0  0  0
 42  2  1  0  0  0
  1  2  1  0  0  0
 31 28  1  0  0  0
  4  5  2  0  0  0
  4  6  1  0  0  0
  4  2  1  0  0  0
  6  8  1  0  0  0
  8  9  1  0  0  0
  8 14  1  0  0  0
  9 10  2  0  0  0
  9 11  1  0  0  0
 10 16  1  0  0  0
 10 17  1  0  0  0
 11 12  2  0  0  0
 12 13  1  0  0  0
 13 16  2  0  0  0
 14 15  1  0  0  0
 14 17  1  0  0  0
 25 32  1  0  0  0
 25 21  1  0  0  0
 32 33  1  0  0  0
 32 34  1  0  0  0
 21 22  2  0  0  0
 21 23  1  0  0  0
 20 23  1  0  0  0
 27 29  1  0  0  0
  1  3  1  0  0  0
  6  7  1  0  0  0
 15 18  1  0  0  0
 23 24  1  0  0  0
M  END
> <minimizedAffinity>
-10.25586

$$$$
2BQV_A1A_A_1100


 48 51  0  0  0  0  0  0  0  0999 V2000
   12.3653   21.9182    6.8948 O   0  0  0  0  0  0  0  0  0  0  0  0
   13.5308   22.7034    7.1105 C   0  0  0  0  0  0  0  0  0  0  0  0
   12.6004   20.9774    6.9182 H   0  0  0  0  0  0  0  0  0  0  0  0
   13.1680   24.2402    7.0759 C   0  0  0  0  0  0  0  0  0  0  0  0
   13.8329   25.0342    6.3816 O   0  0  0  0  0  0  0  0  0  0  0  0
   12.1217   24.6901    7.7890 N   0  0  0  0  0  0  0  0  0  0  0  0
   11.6182   24.0469    8.3386 H   0  0  0  0  0  0  0  0  0  0  0  0
   11.6911   26.1003    7.7882 C   0  0  0  0  0  0  0  0  0  0  0  0
   10.4863   26.3948    6.9364 C   0  0  0  0  0  0  0  0  0  0  0  0
    9.7374   27.4303    7.5374 C   0  0  0  0  0  0  0  0  0  0  0  0
   10.0704   25.7863    5.7070 C   0  0  0  0  0  0  0  0  0  0  0  0
    8.8607   26.2588    5.0988 C   0  0  0  0  0  0  0  0  0  0  0  0
    8.0952   27.3162    5.7136 C   0  0  0  0  0  0  0  0  0  0  0  0
   11.3012   26.6826    9.1933 C   0  0  0  0  0  0  0  0  0  0  0  0
   10.4551   25.8018    9.9425 O   0  0  0  0  0  0  0  0  0  0  0  0
    8.5312   27.9144    6.9459 C   0  0  0  0  0  0  0  0  0  0  0  0
   10.4029   27.8911    8.8271 C   0  0  0  0  0  0  0  0  0  0  0  0
    9.6524   25.6126    9.4318 H   0  0  0  0  0  0  0  0  0  0  0  0
   14.4750   22.5164    5.8536 C   0  0  0  0  0  0  0  0  0  0  0  0
   14.0519   22.0468    4.5232 N   0  0  0  0  0  0  0  0  0  0  0  0
   15.3041   19.8540    4.2810 C   0  0  0  0  0  0  0  0  0  0  0  0
   14.8092   19.1932    5.2032 O   0  0  0  0  0  0  0  0  0  0  0  0
   14.8150   21.0583    3.8677 N   0  0  0  0  0  0  0  0  0  0  0  0
   15.0369   21.2797    2.9344 H   0  0  0  0  0  0  0  0  0  0  0  0
   16.5452   19.3302    3.4855 C   0  0  0  0  0  0  0  0  0  0  0  0
   18.8297   20.0949    4.9894 O   0  0  0  0  0  0  0  0  0  0  0  0
   17.3683   18.4985    4.3568 N   0  0  0  0  0  0  0  0  0  0  0  0
   18.4478   18.9023    5.0499 C   0  0  0  0  0  0  0  0  0  0  0  0
   17.1091   17.5528    4.4457 H   0  0  0  0  0  0  0  0  0  0  0  0
   18.8949   16.5604    5.5784 C   0  0  0  0  0  0  0  0  0  0  0  0
   19.0804   17.9564    5.7934 O   0  0  0  0  0  0  0  0  0  0  0  0
   16.2749   18.4996    2.1920 C   0  0  0  0  0  0  0  0  0  0  0  0
   17.4440   17.5434    1.8248 C   0  0  0  0  0  0  0  0  0  0  0  0
   16.0104   19.3707    0.9543 C   0  0  0  0  0  0  0  0  0  0  0  0
   13.6045   23.2080    3.6849 C   0  0  0  0  0  0  0  0  0  0  0  0
   12.1310   23.3230    3.2626 C   0  0  0  0  0  0  0  0  0  0  0  0
   11.2288   22.2710    3.6485 C   0  0  0  0  0  0  0  0  0  0  0  0
    9.8459   22.3268    3.2829 C   0  0  0  0  0  0  0  0  0  0  0  0
    9.3519   23.4401    2.5266 C   0  0  0  0  0  0  0  0  0  0  0  0
   10.2432   24.4962    2.1371 C   0  0  0  0  0  0  0  0  0  0  0  0
   11.6278   24.4388    2.5032 C   0  0  0  0  0  0  0  0  0  0  0  0
   14.1169   22.3369    8.5243 C   0  0  0  0  0  0  0  0  0  0  0  0
   15.6083   21.9128    8.5131 C   0  0  0  0  0  0  0  0  0  0  0  0
   16.6522   22.9071    8.5592 C   0  0  0  0  0  0  0  0  0  0  0  0
   18.0282   22.5092    8.5166 C   0  0  0  0  0  0  0  0  0  0  0  0
   18.3757   21.1233    8.4268 C   0  0  0  0  0  0  0  0  0  0  0  0
   17.3470   20.1270    8.3843 C   0  0  0  0  0  0  0  0  0  0  0  0
   15.9704   20.5175    8.4252 C   0  0  0  0  0  0  0  0  0  0  0  0
 43 44  2  0  0  0
 43 48  1  0  0  0
 43 42  1  0  0  0
 44 45  1  0  0  0
 45 46  2  0  0  0
 46 47  1  0  0  0
 47 48  2  0  0  0
 36 37  2  0  0  0
 36 41  1  0  0  0
 36 35  1  0  0  0
 37 38  1  0  0  0
 38 39  2  0  0  0
 39 40  1  0  0  0
 40 41  2  0  0  0
 35 20  1  0  0  0
 30 31  1  0  0  0
 19  2  1  0  0  0
 19 20  1  0  0  0
 26 28  2  0  0  0
 27 28  1  0  0  0
 27 25  1  0  0  0
 42  2  1  0  0  0
  1  2  1  0  0  0
 31 28  1  0  0  0
  4  5  2  0  0  0
  4  6  1  0  0  0
  4  2  1  0  0  0
  6  8  1  0  0  0
  8  9  1  0  0  0
  8 14  1  0  0  0
  9 10  2  0  0  0
  9 11  1  0  0  0
 10 16  1  0  0  0
 10 17  1  0  0  0
 11 12  2  0  0  0
 12 13  1  0  0  0
 13 16  2  0  0  0
 14 15  1  0  0  0
 14 17  1  0  0  0
 25 32  1  0  0  0
 25 21  1  0  0  0
 32 33  1  0  0  0
 32 34  1  0  0  0
 21 22  2  0  0  0
 21 23  1  0  0  0
 20 23  1  0  0  0
 27 29  1  0  0  0
  1  3  1  0  0  0
  6  7  1  0  0  0
 15 18  1  0  0  0
 23 24  1  0  0  0
M  END
> <minimizedAffinity>
-10.14301

$$$$
2BQV_A1A_A_1100


 48 51  0  0  0  0  0  0  0  0999 V2000
   14.2941   23.5601    5.3249 O   0  0  0  0  0  0  0  0  0  0  0  0
   14.4193   22.6939    6.4453 C   0  0  0  0  0  0  0  0  0  0  0  0
   14.0743   24.4541    5.6303 H   0  0  0  0  0  0  0  0  0  0  0  0
   14.7774   21.2316    5.9677 C   0  0  0  0  0  0  0  0  0  0  0  0
   13.9124   20.3336    5.9684 O   0  0  0  0  0  0  0  0  0  0  0  0
   16.0224   20.9602    5.5409 N   0  0  0  0  0  0  0  0  0  0  0  0
   16.6917   21.6820    5.5598 H   0  0  0  0  0  0  0  0  0  0  0  0
   16.4346   19.6340    5.0457 C   0  0  0  0  0  0  0  0  0  0  0  0
   16.3190   19.4492    3.5569 C   0  0  0  0  0  0  0  0  0  0  0  0
   17.3497   18.5902    3.1165 C   0  0  0  0  0  0  0  0  0  0  0  0
   15.3661   20.0060    2.6422 C   0  0  0  0  0  0  0  0  0  0  0  0
   15.4895   19.6672    1.2543 C   0  0  0  0  0  0  0  0  0  0  0  0
   16.5434   18.7901    0.8043 C   0  0  0  0  0  0  0  0  0  0  0  0
   17.9223   19.2369    5.3527 C   0  0  0  0  0  0  0  0  0  0  0  0
   18.8476   20.2931    5.0679 O   0  0  0  0  0  0  0  0  0  0  0  0
   17.4877   18.2408    1.7388 C   0  0  0  0  0  0  0  0  0  0  0  0
   18.2134   18.1473    4.2897 C   0  0  0  0  0  0  0  0  0  0  0  0
   18.7634   20.5546    4.1376 H   0  0  0  0  0  0  0  0  0  0  0  0
   12.9827   22.5325    7.0903 C   0  0  0  0  0  0  0  0  0  0  0  0
   11.9163   23.5486    7.0786 N   0  0  0  0  0  0  0  0  0  0  0  0
   10.9545   24.3577    4.8751 C   0  0  0  0  0  0  0  0  0  0  0  0
   11.9416   24.9097    4.3720 O   0  0  0  0  0  0  0  0  0  0  0  0
   11.0118   23.5842    5.9971 N   0  0  0  0  0  0  0  0  0  0  0  0
   10.2833   22.9255    6.0648 H   0  0  0  0  0  0  0  0  0  0  0  0
    9.5359   24.4912    4.2294 C   0  0  0  0  0  0  0  0  0  0  0  0
    8.0898   26.8065    5.0129 O   0  0  0  0  0  0  0  0  0  0  0  0
    9.4354   25.7681    3.5310 N   0  0  0  0  0  0  0  0  0  0  0  0
    8.7336   26.8411    3.9376 C   0  0  0  0  0  0  0  0  0  0  0  0
    9.9274   25.8524    2.6825 H   0  0  0  0  0  0  0  0  0  0  0  0
    8.9346   27.8306    1.7141 C   0  0  0  0  0  0  0  0  0  0  0  0
    8.7648   27.9303    3.1251 O   0  0  0  0  0  0  0  0  0  0  0  0
    9.0972   23.3872    3.2171 C   0  0  0  0  0  0  0  0  0  0  0  0
    9.7839   23.5235    1.8293 C   0  0  0  0  0  0  0  0  0  0  0  0
    7.5825   23.3644    2.9609 C   0  0  0  0  0  0  0  0  0  0  0  0
   12.4586   24.8702    7.5375 C   0  0  0  0  0  0  0  0  0  0  0  0
   11.5507   25.8435    8.3063 C   0  0  0  0  0  0  0  0  0  0  0  0
   12.1665   26.7782    9.2102 C   0  0  0  0  0  0  0  0  0  0  0  0
   11.3693   27.7078    9.9513 C   0  0  0  0  0  0  0  0  0  0  0  0
    9.9444   27.7112    9.7930 C   0  0  0  0  0  0  0  0  0  0  0  0
    9.3193   26.7837    8.8928 C   0  0  0  0  0  0  0  0  0  0  0  0
   10.1186   25.8528    8.1518 C   0  0  0  0  0  0  0  0  0  0  0  0
   15.5743   23.2407    7.3639 C   0  0  0  0  0  0  0  0  0  0  0  0
   16.0570   22.2471    8.4520 C   0  0  0  0  0  0  0  0  0  0  0  0
   17.4115   21.7512    8.4411 C   0  0  0  0  0  0  0  0  0  0  0  0
   17.8414   20.8088    9.4312 C   0  0  0  0  0  0  0  0  0  0  0  0
   16.9299   20.3526   10.4365 C   0  0  0  0  0  0  0  0  0  0  0  0
   15.5833   20.8415   10.4592 C   0  0  0  0  0  0  0  0  0  0  0  0
   15.1468   21.7821    9.4722 C   0  0  0  0  0  0  0  0  0  0  0  0
 43 44  2  0  0  0
 43 48  1  0  0  0
 43 42  1  0  0  0
 44 45  1  0  0  0
 45 46  2  0  0  0
 46 47  1  0  0  0
 47 48  2  0  0  0
 36 37  2  0  0  0
 36 41  1  0  0  0
 36 35  1  0  0  0
 37 38  1  0  0  0
 38 39  2  0  0  0
 39 40  1  0  0  0
 40 41  2  0  0  0
 35 20  1  0  0  0
 30 31  1  0  0  0
 19  2  1  0  0  0
 19 20  1  0  0  0
 26 28  2  0  0  0
 27 28  1  0  0  0
 27 25  1  0  0  0
 42  2  1  0  0  0
  1  2  1  0  0  0
 31 28  1  0  0  0
  4  5  2  0  0  0
  4  6  1  0  0  0
  4  2  1  0  0  0
  6  8  1  0  0  0
  8  9  1  0  0  0
  8 14  1  0  0  0
  9 10  2  0  0  0
  9 11  1  0  0  0
 10 16  1  0  0  0
 10 17  1  0  0  0
 11 12  2  0  0  0
 12 13  1  0  0  0
 13 16  2  0  0  0
 14 15  1  0  0  0
 14 17  1  0  0  0
 25 32  1  0  0  0
 25 21  1  0  0  0
 32 33  1  0  0  0
 32 34  1  0  0  0
 21 22  2  0  0  0
 21 23  1  0  0  0
 20 23  1  0  0  0
 27 29  1  0  0  0
  1  3  1  0  0  0
  6  7  1  0  0  0
 15 18  1  0  0  0
 23 24  1  0  0  0
M  END
> <minimizedAffinity>
-10.07027

$$$$
2BQV_A1A_A_1100


 48 51  0  0  0  0  0  0  0  0999 V2000
   10.6942   23.7051    6.6403 O   0  0  0  0  0  0  0  0  0  0  0  0
   11.6375   24.1183    5.6599 C   0  0  0  0  0  0  0  0  0  0  0  0
   11.1161   23.7017    7.5137 H   0  0  0  0  0  0  0  0  0  0  0  0
   10.9684   24.1302    4.2293 C   0  0  0  0  0  0  0  0  0  0  0  0
   11.1612   23.1926    3.4303 O   0  0  0  0  0  0  0  0  0  0  0  0
   10.1707   25.1534    3.8794 N   0  0  0  0  0  0  0  0  0  0  0  0
   10.0420   25.8879    4.5221 H   0  0  0  0  0  0  0  0  0  0  0  0
    9.4787   25.2292    2.5797 C   0  0  0  0  0  0  0  0  0  0  0  0
    8.0371   24.7990    2.6028 C   0  0  0  0  0  0  0  0  0  0  0  0
    7.3116   25.5630    1.6625 C   0  0  0  0  0  0  0  0  0  0  0  0
    7.3994   23.7973    3.4056 C   0  0  0  0  0  0  0  0  0  0  0  0
    5.9912   23.5911    3.2295 C   0  0  0  0  0  0  0  0  0  0  0  0
    5.2499   24.3726    2.2693 C   0  0  0  0  0  0  0  0  0  0  0  0
    9.4273   26.6579    1.9304 C   0  0  0  0  0  0  0  0  0  0  0  0
    9.0534   27.6778    2.8648 O   0  0  0  0  0  0  0  0  0  0  0  0
    5.9094   25.3710    1.4727 C   0  0  0  0  0  0  0  0  0  0  0  0
    8.2303   26.5479    0.9522 C   0  0  0  0  0  0  0  0  0  0  0  0
    8.1901   27.4619    3.2508 H   0  0  0  0  0  0  0  0  0  0  0  0
   12.7382   22.9863    5.5457 C   0  0  0  0  0  0  0  0  0  0  0  0
   14.1795   23.1608    5.7951 N   0  0  0  0  0  0  0  0  0  0  0  0
   15.1578   21.7558    3.9232 C   0  0  0  0  0  0  0  0  0  0  0  0
   14.6413   22.2865    2.9313 O   0  0  0  0  0  0  0  0  0  0  0  0
   15.0954   22.2823    5.1799 N   0  0  0  0  0  0  0  0  0  0  0  0
   15.8291   21.9943    5.7697 H   0  0  0  0  0  0  0  0  0  0  0  0
   15.9617   20.4195    3.7996 C   0  0  0  0  0  0  0  0  0  0  0  0
   18.6320   19.8051    4.5466 O   0  0  0  0  0  0  0  0  0  0  0  0
   16.4606   20.0264    5.1130 N   0  0  0  0  0  0  0  0  0  0  0  0
   17.7377   19.7398    5.4229 C   0  0  0  0  0  0  0  0  0  0  0  0
   15.8005   19.9651    5.8409 H   0  0  0  0  0  0  0  0  0  0  0  0
   18.9462   18.3897    7.0599 C   0  0  0  0  0  0  0  0  0  0  0  0
   17.9838   19.3802    6.7103 O   0  0  0  0  0  0  0  0  0  0  0  0
   15.2165   19.1811    3.2105 C   0  0  0  0  0  0  0  0  0  0  0  0
   15.1623   17.9771    4.1921 C   0  0  0  0  0  0  0  0  0  0  0  0
   15.8392   18.6607    1.9059 C   0  0  0  0  0  0  0  0  0  0  0  0
   14.4186   23.4647    7.2448 C   0  0  0  0  0  0  0  0  0  0  0  0
   15.4412   22.6377    8.0405 C   0  0  0  0  0  0  0  0  0  0  0  0
   14.9756   21.4684    8.7374 C   0  0  0  0  0  0  0  0  0  0  0  0
   15.8843   20.6610    9.4933 C   0  0  0  0  0  0  0  0  0  0  0  0
   17.2716   21.0169    9.5576 C   0  0  0  0  0  0  0  0  0  0  0  0
   17.7475   22.1810    8.8649 C   0  0  0  0  0  0  0  0  0  0  0  0
   16.8364   22.9892    8.1089 C   0  0  0  0  0  0  0  0  0  0  0  0
   12.1202   25.5715    6.0228 C   0  0  0  0  0  0  0  0  0  0  0  0
   11.4427   26.1809    7.2774 C   0  0  0  0  0  0  0  0  0  0  0  0
   10.2123   26.9240    7.1565 C   0  0  0  0  0  0  0  0  0  0  0  0
    9.6086   27.5110    8.3159 C   0  0  0  0  0  0  0  0  0  0  0  0
   10.2227   27.3651    9.6009 C   0  0  0  0  0  0  0  0  0  0  0  0
   11.4428   26.6258    9.7332 C   0  0  0  0  0  0  0  0  0  0  0  0
   12.0520   26.0377    8.5789 C   0  0  0  0  0  0  0  0  0  0  0  0
 43 44  2  0  0  0
 43 48  1  0  0  0
 43 42  1  0  0  0
 44 45  1  0  0  0
 45 46  2  0  0  0
 46 47  1  0  0  0
 47 48  2  0  0  0
 36 37  2  0  0  0
 36 41  1  0  0  0
 36 35  1  0  0  0
 37 38  1  0  0  0
 38 39  2  0  0  0
 39 40  1  0  0  0
 40 41  2  0  0  0
 35 20  1  0  0  0
 30 31  1  0  0  0
 19  2  1  0  0  0
 19 20  1  0  0  0
 26 28  2  0  0  0
 27 28  1  0  0  0
 27 25  1  0  0  0
 42  2  1  0  0  0
  1  2  1  0  0  0
 31 28  1  0  0  0
  4  5  2  0  0  0
  4  6  1  0  0  0
  4  2  1  0  0  0
  6  8  1  0  0  0
  8  9  1  0  0  0
  8 14  1  0  0  0
  9 10  2  0  0  0
  9 11  1  0  0  0
 10 16  1  0  0  0
 10 17  1  0  0  0
 11 12  2  0  0  0
 12 13  1  0  0  0
 13 16  2  0  0  0
 14 15  1  0  0  0
 14 17  1  0  0  0
 25 32  1  0  0  0
 25 21  1  0  0  0
 32 33  1  0  0  0
 32 34  1  0  0  0
 21 22  2  0  0  0
 21 23  1  0  0  0
 20 23  1  0  0  0
 27 29  1  0  0  0
  1  3  1  0  0  0
  6  7  1  0  0  0
 15 18  1  0  0  0
 23 24  1  0  0  0
M  END
> <minimizedAffinity>
-9.91429

$$$$
2BQV_A1A_A_1100


 48 51  0  0  0  0  0  0  0  0999 V2000
   12.0413   22.5364    7.6234 O   0  0  0  0  0  0  0  0  0  0  0  0
   12.7042   23.0511    6.4757 C   0  0  0  0  0  0  0  0  0  0  0  0
   12.6406   22.5703    8.3854 H   0  0  0  0  0  0  0  0  0  0  0  0
   11.7433   23.0041    5.2232 C   0  0  0  0  0  0  0  0  0  0  0  0
   11.3438   21.9135    4.7698 O   0  0  0  0  0  0  0  0  0  0  0  0
   11.3404   24.1526    4.6537 N   0  0  0  0  0  0  0  0  0  0  0  0
   11.6775   25.0013    5.0217 H   0  0  0  0  0  0  0  0  0  0  0  0
   10.4180   24.2035    3.5045 C   0  0  0  0  0  0  0  0  0  0  0  0
    9.4997   25.3951    3.4810 C   0  0  0  0  0  0  0  0  0  0  0  0
    9.2587   25.7665    2.1400 C   0  0  0  0  0  0  0  0  0  0  0  0
    8.9128   26.1133    4.5739 C   0  0  0  0  0  0  0  0  0  0  0  0
    8.0688   27.2315    4.2674 C   0  0  0  0  0  0  0  0  0  0  0  0
    7.8235   27.6112    2.8970 C   0  0  0  0  0  0  0  0  0  0  0  0
   11.1065   24.2400    2.0939 C   0  0  0  0  0  0  0  0  0  0  0  0
   12.1897   25.1758    2.0302 O   0  0  0  0  0  0  0  0  0  0  0  0
    8.4205   26.8761    1.8155 C   0  0  0  0  0  0  0  0  0  0  0  0
   10.0013   24.8391    1.1876 C   0  0  0  0  0  0  0  0  0  0  0  0
   11.8662   26.0609    2.2601 H   0  0  0  0  0  0  0  0  0  0  0  0
   13.8604   22.0390    6.0950 C   0  0  0  0  0  0  0  0  0  0  0  0
   15.2582   22.4011    5.8038 N   0  0  0  0  0  0  0  0  0  0  0  0
   15.7078   21.0805    3.6852 C   0  0  0  0  0  0  0  0  0  0  0  0
   14.8593   21.5584    2.9212 O   0  0  0  0  0  0  0  0  0  0  0  0
   16.0030   21.6050    4.9091 N   0  0  0  0  0  0  0  0  0  0  0  0
   16.9081   21.3863    5.2289 H   0  0  0  0  0  0  0  0  0  0  0  0
   16.5426   19.8206    3.2811 C   0  0  0  0  0  0  0  0  0  0  0  0
   19.0071   18.4396    2.9897 O   0  0  0  0  0  0  0  0  0  0  0  0
   17.5511   19.5552    4.3013 N   0  0  0  0  0  0  0  0  0  0  0  0
   18.7068   18.8914    4.1199 C   0  0  0  0  0  0  0  0  0  0  0  0
   17.3686   19.8937    5.2076 H   0  0  0  0  0  0  0  0  0  0  0  0
   19.0206   18.2041    6.4422 C   0  0  0  0  0  0  0  0  0  0  0  0
   19.4999   18.7436    5.2138 O   0  0  0  0  0  0  0  0  0  0  0  0
   15.7682   18.4848    3.0533 C   0  0  0  0  0  0  0  0  0  0  0  0
   14.7841   18.5466    1.8517 C   0  0  0  0  0  0  0  0  0  0  0  0
   14.9480   18.0416    4.2746 C   0  0  0  0  0  0  0  0  0  0  0  0
   15.9562   22.8173    7.0651 C   0  0  0  0  0  0  0  0  0  0  0  0
   16.0152   21.8522    8.2601 C   0  0  0  0  0  0  0  0  0  0  0  0
   16.9559   20.7649    8.2103 C   0  0  0  0  0  0  0  0  0  0  0  0
   17.0540   19.8365    9.2955 C   0  0  0  0  0  0  0  0  0  0  0  0
   16.2099   19.9893   10.4442 C   0  0  0  0  0  0  0  0  0  0  0  0
   15.2684   21.0715   10.5050 C   0  0  0  0  0  0  0  0  0  0  0  0
   15.1705   22.0001    9.4174 C   0  0  0  0  0  0  0  0  0  0  0  0
   13.1081   24.5437    6.7684 C   0  0  0  0  0  0  0  0  0  0  0  0
   12.1457   25.2960    7.7235 C   0  0  0  0  0  0  0  0  0  0  0  0
   10.7224   25.2804    7.4898 C   0  0  0  0  0  0  0  0  0  0  0  0
    9.8419   26.0039    8.3584 C   0  0  0  0  0  0  0  0  0  0  0  0
   10.3686   26.7475    9.4626 C   0  0  0  0  0  0  0  0  0  0  0  0
   11.7803   26.7668    9.7064 C   0  0  0  0  0  0  0  0  0  0  0  0
   12.6658   26.0473    8.8418 C   0  0  0  0  0  0  0  0  0  0  0  0
 43 44  2  0  0  0
 43 48  1  0  0  0
 43 42  1  0  0  0
 44 45  1  0  0  0
 45 46  2  0  0  0
 46 47  1  0  0  0
 47 48  2  0  0  0
 36 37  2  0  0  0
 36 41  1  0  0  0
 36 35  1  0  0  0
 37 38  1  0  0  0
 38 39  2  0  0  0
 39 40  1  0  0  0
 40 41  2  0  0  0
 35 20  1  0  0  0
 30 31  1  0  0  0
 19  2  1  0  0  0
 19 20  1  0  0  0
 26 28  2  0  0  0
 27 28  1  0  0  0
 27 25  1  0  0  0
 42  2  1  0  0  0
  1  2  1  0  0  0
 31 28  1  0  0  0
  4  5  2  0  0  0
  4  6  1  0  0  0
  4  2  1  0  0  0
  6  8  1  0  0  0
  8  9  1  0  0  0
  8 14  1  0  0  0
  9 10  2  0  0  0
  9 11  1  0  0  0
 10 16  1  0  0  0
 10 17  1  0  0  0
 11 12  2  0  0  0
 12 13  1  0  0  0
 13 16  2  0  0  0
 14 15  1  0  0  0
 14 17  1  0  0  0
 25 32  1  0  0  0
 25 21  1  0  0  0
 32 33  1  0  0  0
 32 34  1  0  0  0
 21 22  2  0  0  0
 21 23  1  0  0  0
 20 23  1  0  0  0
 27 29  1  0  0  0
  1  3  1  0  0  0
  6  7  1  0  0  0
 15 18  1  0  0  0
 23 24  1  0  0  0
M  END
> <minimizedAffinity>
-9.80717

$$$$
2BQV_A1A_A_1100


 48 51  0  0  0  0  0  0  0  0999 V2000
   11.7010   23.3772    5.8961 O   0  0  0  0  0  0  0  0  0  0  0  0
   12.4351   24.2067    5.0048 C   0  0  0  0  0  0  0  0  0  0  0  0
   12.1993   23.2685    6.7211 H   0  0  0  0  0  0  0  0  0  0  0  0
   11.6390   24.3958    3.6539 C   0  0  0  0  0  0  0  0  0  0  0  0
   12.1729   24.1284    2.5593 O   0  0  0  0  0  0  0  0  0  0  0  0
   10.3687   24.8325    3.6890 N   0  0  0  0  0  0  0  0  0  0  0  0
    9.9715   25.0481    4.5637 H   0  0  0  0  0  0  0  0  0  0  0  0
    9.5408   25.0047    2.4811 C   0  0  0  0  0  0  0  0  0  0  0  0
    8.1055   24.5785    2.6302 C   0  0  0  0  0  0  0  0  0  0  0  0
    7.2909   25.4110    1.8317 C   0  0  0  0  0  0  0  0  0  0  0  0
    7.5475   23.5232    3.4237 C   0  0  0  0  0  0  0  0  0  0  0  0
    6.1264   23.3347    3.3877 C   0  0  0  0  0  0  0  0  0  0  0  0
    5.2941   24.1861    2.5724 C   0  0  0  0  0  0  0  0  0  0  0  0
    9.4351   26.4769    1.9455 C   0  0  0  0  0  0  0  0  0  0  0  0
    9.1759   27.4275    2.9858 O   0  0  0  0  0  0  0  0  0  0  0  0
    5.8743   25.2377    1.7824 C   0  0  0  0  0  0  0  0  0  0  0  0
    8.1380   26.4418    1.0981 C   0  0  0  0  0  0  0  0  0  0  0  0
    8.3572   27.1869    3.4471 H   0  0  0  0  0  0  0  0  0  0  0  0
   13.7302   23.4100    4.5642 C   0  0  0  0  0  0  0  0  0  0  0  0
   13.8686   21.9438    4.5344 N   0  0  0  0  0  0  0  0  0  0  0  0
   14.5253   21.3413    6.9094 C   0  0  0  0  0  0  0  0  0  0  0  0
   13.4912   21.6323    7.5243 O   0  0  0  0  0  0  0  0  0  0  0  0
   14.6092   21.3020    5.5486 N   0  0  0  0  0  0  0  0  0  0  0  0
   15.3222   20.7136    5.2100 H   0  0  0  0  0  0  0  0  0  0  0  0
   15.8397   20.9640    7.6693 C   0  0  0  0  0  0  0  0  0  0  0  0
   18.1878   19.4040    8.0139 O   0  0  0  0  0  0  0  0  0  0  0  0
   16.9085   20.7223    6.7062 N   0  0  0  0  0  0  0  0  0  0  0  0
   18.0088   19.9770    6.9132 C   0  0  0  0  0  0  0  0  0  0  0  0
   16.8156   21.1444    5.8216 H   0  0  0  0  0  0  0  0  0  0  0  0
   18.9202   18.7874    4.9850 C   0  0  0  0  0  0  0  0  0  0  0  0
   18.8892   19.8947    5.8809 O   0  0  0  0  0  0  0  0  0  0  0  0
   16.3918   21.9891    8.7087 C   0  0  0  0  0  0  0  0  0  0  0  0
   15.5817   22.0103   10.0351 C   0  0  0  0  0  0  0  0  0  0  0  0
   16.4187   23.4327    8.1835 C   0  0  0  0  0  0  0  0  0  0  0  0
   14.1190   21.4782    3.1302 C   0  0  0  0  0  0  0  0  0  0  0  0
   14.9079   20.1821    2.8841 C   0  0  0  0  0  0  0  0  0  0  0  0
   15.5972   20.0332    1.6301 C   0  0  0  0  0  0  0  0  0  0  0  0
   16.3476   18.8473    1.3479 C   0  0  0  0  0  0  0  0  0  0  0  0
   16.4163   17.7973    2.3216 C   0  0  0  0  0  0  0  0  0  0  0  0
   15.7333   17.9358    3.5769 C   0  0  0  0  0  0  0  0  0  0  0  0
   14.9815   19.1234    3.8580 C   0  0  0  0  0  0  0  0  0  0  0  0
   12.6389   25.6081    5.6913 C   0  0  0  0  0  0  0  0  0  0  0  0
   11.7882   25.8292    6.9688 C   0  0  0  0  0  0  0  0  0  0  0  0
   10.3730   26.0896    6.8696 C   0  0  0  0  0  0  0  0  0  0  0  0
    9.5992   26.3243    8.0526 C   0  0  0  0  0  0  0  0  0  0  0  0
   10.2254   26.3031    9.3399 C   0  0  0  0  0  0  0  0  0  0  0  0
   11.6298   26.0417    9.4504 C   0  0  0  0  0  0  0  0  0  0  0  0
   12.4090   25.8077    8.2726 C   0  0  0  0  0  0  0  0  0  0  0  0
 43 44  2  0  0  0
 43 48  1  0  0  0
 43 42  1  0  0  0
 44 45  1  0  0  0
 45 46  2  0  0  0
 46 47  1  0  0  0
 47 48  2  0  0  0
 36 37  2  0  0  0
 36 41  1  0  0  0
 36 35  1  0  0  0
 37 38  1  0  0  0
 38 39  2  0  0  0
 39 40  1  0  0  0
 40 41  2  0  0  0
 35 20  1  0  0  0
 30 31  1  0  0  0
 19  2  1  0  0  0
 19 20  1  0  0  0
 26 28  2  0  0  0
 27 28  1  0  0  0
 27 25  1  0  0  0
 42  2  1  0  0  0
  1  2  1  0  0  0
 31 28  1  0  0  0
  4  5  2  0  0  0
  4  6  1  0  0  0
  4  2  1  0  0  0
  6  8  1  0  0  0
  8  9  1  0  0  0
  8 14  1  0  0  0
  9 10  2  0  0  0
  9 11  1  0  0  0
 10 16  1  0  0  0
 10 17  1  0  0  0
 11 12  2  0  0  0
 12 13  1  0  0  0
 13 16  2  0  0  0
 14 15  1  0  0  0
 14 17  1  0  0  0
 25 32  1  0  0  0
 25 21  1  0  0  0
 32 33  1  0  0  0
 32 34  1  0  0  0
 21 22  2  0  0  0
 21 23  1  0  0  0
 20 23  1  0  0  0
 27 29  1  0  0  0
  1  3  1  0  0  0
  6  7  1  0  0  0
 15 18  1  0  0  0
 23 24  1  0  0  0
M  END
> <minimizedAffinity>
-9.58223

$$$$
2BQV_A1A_A_1100


 48 51  0  0  0  0  0  0  0  0999 V2000
   14.0777   20.5166    6.7955 O   0  0  0  0  0  0  0  0  0  0  0  0
   14.8867   21.6800    6.9106 C   0  0  0  0  0  0  0  0  0  0  0  0
   14.5082   19.7769    7.2521 H   0  0  0  0  0  0  0  0  0  0  0  0
   14.2017   22.8967    6.1723 C   0  0  0  0  0  0  0  0  0  0  0  0
   14.8908   23.8211    5.6977 O   0  0  0  0  0  0  0  0  0  0  0  0
   12.8647   22.9243    6.0410 N   0  0  0  0  0  0  0  0  0  0  0  0
   12.3402   22.1893    6.4335 H   0  0  0  0  0  0  0  0  0  0  0  0
   12.1449   24.0019    5.3376 C   0  0  0  0  0  0  0  0  0  0  0  0
   11.0445   23.5373    4.4227 C   0  0  0  0  0  0  0  0  0  0  0  0
   10.0094   24.4978    4.4198 C   0  0  0  0  0  0  0  0  0  0  0  0
   10.9563   22.3389    3.6411 C   0  0  0  0  0  0  0  0  0  0  0  0
    9.7768   22.1374    2.8507 C   0  0  0  0  0  0  0  0  0  0  0  0
    8.7188   23.1186    2.8487 C   0  0  0  0  0  0  0  0  0  0  0  0
   11.4351   25.0505    6.2660 C   0  0  0  0  0  0  0  0  0  0  0  0
   10.6976   24.4379    7.3309 O   0  0  0  0  0  0  0  0  0  0  0  0
    8.8283   24.3148    3.6384 C   0  0  0  0  0  0  0  0  0  0  0  0
   10.3615   25.6648    5.3324 C   0  0  0  0  0  0  0  0  0  0  0  0
   10.0393   23.8297    6.9601 H   0  0  0  0  0  0  0  0  0  0  0  0
   16.2063   21.4320    6.0719 C   0  0  0  0  0  0  0  0  0  0  0  0
   16.6041   20.1560    5.4530 N   0  0  0  0  0  0  0  0  0  0  0  0
   18.6119   18.9852    6.4695 C   0  0  0  0  0  0  0  0  0  0  0  0
   19.4742   19.8687    6.3799 O   0  0  0  0  0  0  0  0  0  0  0  0
   17.2858   19.1971    6.2308 N   0  0  0  0  0  0  0  0  0  0  0  0
   16.6915   18.5595    6.6885 H   0  0  0  0  0  0  0  0  0  0  0  0
   18.9875   17.5283    6.8980 C   0  0  0  0  0  0  0  0  0  0  0  0
   18.9758   15.4323    4.9816 O   0  0  0  0  0  0  0  0  0  0  0  0
   20.0977   17.0499    6.0812 N   0  0  0  0  0  0  0  0  0  0  0  0
   20.0488   16.0480    5.1853 C   0  0  0  0  0  0  0  0  0  0  0  0
   20.9641   17.5030    6.1968 H   0  0  0  0  0  0  0  0  0  0  0  0
   22.3136   15.1346    5.1909 C   0  0  0  0  0  0  0  0  0  0  0  0
   21.2082   15.7540    4.5396 O   0  0  0  0  0  0  0  0  0  0  0  0
   19.3899   17.2955    8.3879 C   0  0  0  0  0  0  0  0  0  0  0  0
   20.8868   16.9158    8.5640 C   0  0  0  0  0  0  0  0  0  0  0  0
   18.5699   16.1921    9.0738 C   0  0  0  0  0  0  0  0  0  0  0  0
   17.1405   20.3977    4.0727 C   0  0  0  0  0  0  0  0  0  0  0  0
   17.0545   19.2866    3.0139 C   0  0  0  0  0  0  0  0  0  0  0  0
   16.0279   19.3812    2.0106 C   0  0  0  0  0  0  0  0  0  0  0  0
   15.9023   18.3752    1.0001 C   0  0  0  0  0  0  0  0  0  0  0  0
   16.8066   17.2628    0.9839 C   0  0  0  0  0  0  0  0  0  0  0  0
   17.8357   17.1589    1.9796 C   0  0  0  0  0  0  0  0  0  0  0  0
   17.9600   18.1666    2.9915 C   0  0  0  0  0  0  0  0  0  0  0  0
   15.0465   22.0195    8.4390 C   0  0  0  0  0  0  0  0  0  0  0  0
   16.2082   21.2747    9.1461 C   0  0  0  0  0  0  0  0  0  0  0  0
   17.5627   21.7578    9.0344 C   0  0  0  0  0  0  0  0  0  0  0  0
   18.6353   21.0466    9.6644 C   0  0  0  0  0  0  0  0  0  0  0  0
   18.3702   19.8519   10.4074 C   0  0  0  0  0  0  0  0  0  0  0  0
   17.0281   19.3651   10.5282 C   0  0  0  0  0  0  0  0  0  0  0  0
   15.9519   20.0700    9.9003 C   0  0  0  0  0  0  0  0  0  0  0  0
 43 44  2  0  0  0
 43 48  1  0  0  0
 43 42  1  0  0  0
 44 45  1  0  0  0
 45 46  2  0  0  0
 46 47  1  0  0  0
 47 48  2  0  0  0
 36 37  2  0  0  0
 36 41  1  0  0  0
 36 35  1  0  0  0
 37 38  1  0  0  0
 38 39  2  0  0  0
 39 40  1  0  0  0
 40 41  2  0  0  0
 35 20  1  0  0  0
 30 31  1  0  0  0
 19  2  1  0  0  0
 19 20  1  0  0  0
 26 28  2  0  0  0
 27 28  1  0  0  0
 27 25  1  0  0  0
 42  2  1  0  0  0
  1  2  1  0  0  0
 31 28  1  0  0  0
  4  5  2  0  0  0
  4  6  1  0  0  0
  4  2  1  0  0  0
  6  8  1  0  0  0
  8  9  1  0  0  0
  8 14  1  0  0  0
  9 10  2  0  0  0
  9 11  1  0  0  0
 10 16  1  0  0  0
 10 17  1  0  0  0
 11 12  2  0  0  0
 12 13  1  0  0  0
 13 16  2  0  0  0
 14 15  1  0  0  0
 14 17  1  0  0  0
 25 32  1  0  0  0
 25 21  1  0  0  0
 32 33  1  0  0  0
 32 34  1  0  0  0
 21 22  2  0  0  0
 21 23  1  0  0  0
 20 23  1  0  0  0
 27 29  1  0  0  0
  1  3  1  0  0  0
  6  7  1  0  0  0
 15 18  1  0  0  0
 23 24  1  0  0  0
M  END
> <minimizedAffinity>
-9.46566

$$$$
