5OTA_AQQ_A_301


 19 18  0  0  0  0  0  0  0  0999 V2000
    3.7210   19.0985   -9.2602 C   0  0  0  0  0  0  0  0  0  0  0  0
    2.3412   18.4897   -9.5415 C   0  0  0  0  0  0  0  0  0  0  0  0
    1.2877   19.1931   -9.5435 O   0  0  0  0  0  0  0  0  0  0  0  0
    2.2443   17.2602   -9.8219 O   0  0  0  0  0  0  0  0  0  0  0  0
    1.3338   20.1064   -9.3390 H   0  0  0  0  0  0  0  0  0  0  0  0
    4.4954   18.9915  -10.4645 N   0  0  0  0  0  0  0  0  0  0  0  0
    5.4737   19.1213  -10.2067 H   0  0  0  0  0  0  0  0  0  0  0  0
    4.2064   19.9295  -11.5716 C   0  0  0  0  0  0  0  0  0  0  0  0
    3.8416   19.1401  -12.8278 C   0  0  0  0  0  0  0  0  0  0  0  0
    5.1252   22.1022  -12.1051 O   0  0  0  0  0  0  0  0  0  0  0  0
    5.3700   20.9057  -11.8768 C   0  0  0  0  0  0  0  0  0  0  0  0
    6.5765   20.5125  -11.9022 O   0  0  0  0  0  0  0  0  0  0  0  0
    6.7800   19.6137  -11.7325 H   0  0  0  0  0  0  0  0  0  0  0  0
    3.5692   20.5882   -8.8941 C   0  0  0  0  0  0  0  0  0  0  0  0
    3.6269   20.9877   -7.4242 C   0  0  0  0  0  0  0  0  0  0  0  0
    4.2778   19.8486   -6.6576 C   0  0  0  0  0  0  0  0  0  0  0  0
    4.3912   20.1327   -5.2236 N   0  0  0  0  0  0  0  0  0  0  0  0
    4.9781   20.9554   -5.0854 H   0  0  0  0  0  0  0  0  0  0  0  0
    4.8108   19.3323   -4.7506 H   0  0  0  0  0  0  0  0  0  0  0  0
  9  8  1  0  0  0
 10 11  2  0  0  0
 11 12  1  0  0  0
 11  8  1  0  0  0
  8  6  1  0  0  0
  6  1  1  0  0  0
  4  2  2  0  0  0
  1  2  1  0  0  0
  1 14  1  0  0  0
  2  3  1  0  0  0
 14 15  1  0  0  0
 15 16  1  0  0  0
 16 17  1  0  0  0
  6  7  1  0  0  0
  3  5  1  0  0  0
 17 18  1  0  0  0
 17 19  1  0  0  0
 12 13  1  0  0  0
M  END
> <minimizedAffinity>
-7.98531

$$$$
5OTA_AQQ_A_301


 19 18  0  0  0  0  0  0  0  0999 V2000
    4.5085   19.3413  -12.4184 C   0  0  0  0  0  0  0  0  0  0  0  0
    5.4368   20.5293  -12.1338 C   0  0  0  0  0  0  0  0  0  0  0  0
    6.6708   20.3714  -11.8948 O   0  0  0  0  0  0  0  0  0  0  0  0
    4.9782   21.7071  -12.1773 O   0  0  0  0  0  0  0  0  0  0  0  0
    7.0341   19.5085  -11.8575 H   0  0  0  0  0  0  0  0  0  0  0  0
    4.3438   18.6164  -11.1900 N   0  0  0  0  0  0  0  0  0  0  0  0
    3.8985   17.7284  -11.4212 H   0  0  0  0  0  0  0  0  0  0  0  0
    3.5469   19.2372  -10.1091 C   0  0  0  0  0  0  0  0  0  0  0  0
    4.4161   19.4011   -8.8633 C   0  0  0  0  0  0  0  0  0  0  0  0
    2.3037   17.2140   -9.6500 O   0  0  0  0  0  0  0  0  0  0  0  0
    2.2589   18.4509   -9.7584 C   0  0  0  0  0  0  0  0  0  0  0  0
    1.1496   19.0409   -9.5791 O   0  0  0  0  0  0  0  0  0  0  0  0
    1.0968   19.9732   -9.6568 H   0  0  0  0  0  0  0  0  0  0  0  0
    3.1319   19.8550  -12.8843 C   0  0  0  0  0  0  0  0  0  0  0  0
    2.6593   19.5025  -14.2900 C   0  0  0  0  0  0  0  0  0  0  0  0
    2.5420   17.9900  -14.3760 C   0  0  0  0  0  0  0  0  0  0  0  0
    1.6217   17.5598  -15.4332 N   0  0  0  0  0  0  0  0  0  0  0  0
    0.6870   17.9180  -15.2368 H   0  0  0  0  0  0  0  0  0  0  0  0
    1.5951   16.5407  -15.4669 H   0  0  0  0  0  0  0  0  0  0  0  0
  9  8  1  0  0  0
 10 11  2  0  0  0
 11 12  1  0  0  0
 11  8  1  0  0  0
  8  6  1  0  0  0
  6  1  1  0  0  0
  4  2  2  0  0  0
  1  2  1  0  0  0
  1 14  1  0  0  0
  2  3  1  0  0  0
 14 15  1  0  0  0
 15 16  1  0  0  0
 16 17  1  0  0  0
  6  7  1  0  0  0
  3  5  1  0  0  0
 17 18  1  0  0  0
 17 19  1  0  0  0
 12 13  1  0  0  0
M  END
> <minimizedAffinity>
-7.49072

$$$$
5OTA_AQQ_A_301


 19 18  0  0  0  0  0  0  0  0999 V2000
    3.5204   19.0908  -10.6617 C   0  0  0  0  0  0  0  0  0  0  0  0
    2.3334   18.4212   -9.9571 C   0  0  0  0  0  0  0  0  0  0  0  0
    1.3123   19.0785   -9.5966 O   0  0  0  0  0  0  0  0  0  0  0  0
    2.3442   17.1716   -9.7625 O   0  0  0  0  0  0  0  0  0  0  0  0
    1.2807   20.0054   -9.7301 H   0  0  0  0  0  0  0  0  0  0  0  0
    2.9914   19.9236  -11.7047 N   0  0  0  0  0  0  0  0  0  0  0  0
    2.0005   19.6998  -11.7961 H   0  0  0  0  0  0  0  0  0  0  0  0
    3.5888   19.8242  -13.0546 C   0  0  0  0  0  0  0  0  0  0  0  0
    3.7319   21.2222  -13.6541 C   0  0  0  0  0  0  0  0  0  0  0  0
    2.7317   17.6896  -13.8018 O   0  0  0  0  0  0  0  0  0  0  0  0
    2.7917   18.9113  -14.0197 C   0  0  0  0  0  0  0  0  0  0  0  0
    2.1950   19.3815  -15.0365 O   0  0  0  0  0  0  0  0  0  0  0  0
    2.2294   20.3004  -15.2166 H   0  0  0  0  0  0  0  0  0  0  0  0
    4.2915   19.9731   -9.6601 C   0  0  0  0  0  0  0  0  0  0  0  0
    4.5445   19.4337   -8.2570 C   0  0  0  0  0  0  0  0  0  0  0  0
    3.9661   20.4285   -7.2646 C   0  0  0  0  0  0  0  0  0  0  0  0
    2.9637   21.3079   -7.8743 N   0  0  0  0  0  0  0  0  0  0  0  0
    3.3975   21.8524   -8.6197 H   0  0  0  0  0  0  0  0  0  0  0  0
    2.5893   21.9391   -7.1658 H   0  0  0  0  0  0  0  0  0  0  0  0
  9  8  1  0  0  0
 10 11  2  0  0  0
 11 12  1  0  0  0
 11  8  1  0  0  0
  8  6  1  0  0  0
  6  1  1  0  0  0
  4  2  2  0  0  0
  1  2  1  0  0  0
  1 14  1  0  0  0
  2  3  1  0  0  0
 14 15  1  0  0  0
 15 16  1  0  0  0
 16 17  1  0  0  0
  6  7  1  0  0  0
  3  5  1  0  0  0
 17 18  1  0  0  0
 17 19  1  0  0  0
 12 13  1  0  0  0
M  END
> <minimizedAffinity>
-7.34361

$$$$
5OTA_AQQ_A_301


 19 18  0  0  0  0  0  0  0  0999 V2000
    3.9883   19.7982  -12.3063 C   0  0  0  0  0  0  0  0  0  0  0  0
    5.2258   20.6704  -12.0576 C   0  0  0  0  0  0  0  0  0  0  0  0
    6.3873   20.1731  -11.9680 O   0  0  0  0  0  0  0  0  0  0  0  0
    5.1013   21.9266  -11.9797 O   0  0  0  0  0  0  0  0  0  0  0  0
    6.5052   19.2451  -12.0227 H   0  0  0  0  0  0  0  0  0  0  0  0
    3.2267   19.7698  -11.0895 N   0  0  0  0  0  0  0  0  0  0  0  0
    3.1228   20.7349  -10.7760 H   0  0  0  0  0  0  0  0  0  0  0  0
    3.7562   18.9932   -9.9469 C   0  0  0  0  0  0  0  0  0  0  0  0
    2.7489   17.9145   -9.5519 C   0  0  0  0  0  0  0  0  0  0  0  0
    4.9234   19.4413   -7.8766 O   0  0  0  0  0  0  0  0  0  0  0  0
    4.1113   19.8647   -8.7163 C   0  0  0  0  0  0  0  0  0  0  0  0
    3.5894   21.0081   -8.5402 O   0  0  0  0  0  0  0  0  0  0  0  0
    2.9750   21.3436   -9.1631 H   0  0  0  0  0  0  0  0  0  0  0  0
    3.1260   20.4220  -13.4214 C   0  0  0  0  0  0  0  0  0  0  0  0
    2.6938   19.5415  -14.5882 C   0  0  0  0  0  0  0  0  0  0  0  0
    2.5930   18.1128  -14.0807 C   0  0  0  0  0  0  0  0  0  0  0  0
    1.8599   17.2417  -15.0046 N   0  0  0  0  0  0  0  0  0  0  0  0
    0.9055   17.5856  -15.1111 H   0  0  0  0  0  0  0  0  0  0  0  0
    1.8397   16.2921  -14.6328 H   0  0  0  0  0  0  0  0  0  0  0  0
  9  8  1  0  0  0
 10 11  2  0  0  0
 11 12  1  0  0  0
 11  8  1  0  0  0
  8  6  1  0  0  0
  6  1  1  0  0  0
  4  2  2  0  0  0
  1  2  1  0  0  0
  1 14  1  0  0  0
  2  3  1  0  0  0
 14 15  1  0  0  0
 15 16  1  0  0  0
 16 17  1  0  0  0
  6  7  1  0  0  0
  3  5  1  0  0  0
 17 18  1  0  0  0
 17 19  1  0  0  0
 12 13  1  0  0  0
M  END
> <minimizedAffinity>
-6.67339

$$$$
5OTA_AQQ_A_301


 19 18  0  0  0  0  0  0  0  0999 V2000
    3.3493   18.8872  -11.3549 C   0  0  0  0  0  0  0  0  0  0  0  0
    2.4370   18.3214  -10.2589 C   0  0  0  0  0  0  0  0  0  0  0  0
    2.7712   17.3170   -9.5631 O   0  0  0  0  0  0  0  0  0  0  0  0
    1.3362   18.8900  -10.0049 O   0  0  0  0  0  0  0  0  0  0  0  0
    3.5820   16.8789   -9.7322 H   0  0  0  0  0  0  0  0  0  0  0  0
    2.5093   19.3315  -12.4312 N   0  0  0  0  0  0  0  0  0  0  0  0
    1.5787   18.9480  -12.2656 H   0  0  0  0  0  0  0  0  0  0  0  0
    2.8908   18.9723  -13.8148 C   0  0  0  0  0  0  0  0  0  0  0  0
    2.4998   20.1049  -14.7628 C   0  0  0  0  0  0  0  0  0  0  0  0
    2.4875   17.2474  -15.4615 O   0  0  0  0  0  0  0  0  0  0  0  0
    2.2750   17.6363  -14.3008 C   0  0  0  0  0  0  0  0  0  0  0  0
    1.5517   16.9235  -13.5395 O   0  0  0  0  0  0  0  0  0  0  0  0
    1.3807   17.2010  -12.6610 H   0  0  0  0  0  0  0  0  0  0  0  0
    4.1382   20.0926  -10.8062 C   0  0  0  0  0  0  0  0  0  0  0  0
    5.1701   20.7604  -11.7076 C   0  0  0  0  0  0  0  0  0  0  0  0
    4.8048   22.2308  -11.8235 C   0  0  0  0  0  0  0  0  0  0  0  0
    3.5845   22.4436  -12.6078 N   0  0  0  0  0  0  0  0  0  0  0  0
    3.7260   22.0987  -13.5572 H   0  0  0  0  0  0  0  0  0  0  0  0
    3.3684   23.4401  -12.6368 H   0  0  0  0  0  0  0  0  0  0  0  0
  9  8  1  0  0  0
 10 11  2  0  0  0
 11 12  1  0  0  0
 11  8  1  0  0  0
  8  6  1  0  0  0
  6  1  1  0  0  0
  4  2  2  0  0  0
  1  2  1  0  0  0
  1 14  1  0  0  0
  2  3  1  0  0  0
 14 15  1  0  0  0
 15 16  1  0  0  0
 16 17  1  0  0  0
  6  7  1  0  0  0
  3  5  1  0  0  0
 17 18  1  0  0  0
 17 19  1  0  0  0
 12 13  1  0  0  0
M  END
> <minimizedAffinity>
-6.66665

$$$$
5OTA_AQQ_A_301


 19 18  0  0  0  0  0  0  0  0999 V2000
    3.0218   19.6372  -12.7081 C   0  0  0  0  0  0  0  0  0  0  0  0
    2.5715   18.4677  -13.5931 C   0  0  0  0  0  0  0  0  0  0  0  0
    1.9844   17.4531  -13.1128 O   0  0  0  0  0  0  0  0  0  0  0  0
    2.7481   18.5247  -14.8441 O   0  0  0  0  0  0  0  0  0  0  0  0
    1.8420   17.3879  -12.1890 H   0  0  0  0  0  0  0  0  0  0  0  0
    3.7937   19.0907  -11.6278 N   0  0  0  0  0  0  0  0  0  0  0  0
    3.8316   18.0807  -11.7648 H   0  0  0  0  0  0  0  0  0  0  0  0
    3.3304   19.3275  -10.2428 C   0  0  0  0  0  0  0  0  0  0  0  0
    4.4912   19.1147   -9.2724 C   0  0  0  0  0  0  0  0  0  0  0  0
    2.2304   17.2062   -9.8691 O   0  0  0  0  0  0  0  0  0  0  0  0
    2.1261   18.4437   -9.8323 C   0  0  0  0  0  0  0  0  0  0  0  0
    1.0258   18.9540   -9.4581 O   0  0  0  0  0  0  0  0  0  0  0  0
    0.9289   19.8853   -9.4241 H   0  0  0  0  0  0  0  0  0  0  0  0
    3.9118   20.5960  -13.5235 C   0  0  0  0  0  0  0  0  0  0  0  0
    3.8573   22.0865  -13.2094 C   0  0  0  0  0  0  0  0  0  0  0  0
    4.6648   22.3255  -11.9445 C   0  0  0  0  0  0  0  0  0  0  0  0
    5.8564   21.4742  -11.8728 N   0  0  0  0  0  0  0  0  0  0  0  0
    5.5740   20.4942  -11.8623 H   0  0  0  0  0  0  0  0  0  0  0  0
    6.3758   21.6875  -11.0213 H   0  0  0  0  0  0  0  0  0  0  0  0
  9  8  1  0  0  0
 10 11  2  0  0  0
 11 12  1  0  0  0
 11  8  1  0  0  0
  8  6  1  0  0  0
  6  1  1  0  0  0
  4  2  2  0  0  0
  1  2  1  0  0  0
  1 14  1  0  0  0
  2  3  1  0  0  0
 14 15  1  0  0  0
 15 16  1  0  0  0
 16 17  1  0  0  0
  6  7  1  0  0  0
  3  5  1  0  0  0
 17 18  1  0  0  0
 17 19  1  0  0  0
 12 13  1  0  0  0
M  END
> <minimizedAffinity>
-6.58320

$$$$
5OTA_AQQ_A_301


 19 18  0  0  0  0  0  0  0  0999 V2000
    4.1258   20.1545  -11.4032 C   0  0  0  0  0  0  0  0  0  0  0  0
    5.2643   21.0908  -11.8287 C   0  0  0  0  0  0  0  0  0  0  0  0
    5.0657   22.3184  -12.0697 O   0  0  0  0  0  0  0  0  0  0  0  0
    6.4459   20.6462  -11.9040 O   0  0  0  0  0  0  0  0  0  0  0  0
    4.1991   22.6714  -12.0204 H   0  0  0  0  0  0  0  0  0  0  0  0
    4.1261   19.0355  -12.3029 N   0  0  0  0  0  0  0  0  0  0  0  0
    5.0982   18.8428  -12.5443 H   0  0  0  0  0  0  0  0  0  0  0  0
    3.3751   19.1540  -13.5721 C   0  0  0  0  0  0  0  0  0  0  0  0
    2.4799   20.3911  -13.5224 C   0  0  0  0  0  0  0  0  0  0  0  0
    2.6060   17.3970  -15.0456 O   0  0  0  0  0  0  0  0  0  0  0  0
    2.5306   17.9004  -13.9122 C   0  0  0  0  0  0  0  0  0  0  0  0
    1.7561   17.3706  -13.0577 O   0  0  0  0  0  0  0  0  0  0  0  0
    1.6864   17.7366  -12.1980 H   0  0  0  0  0  0  0  0  0  0  0  0
    4.3778   19.6442   -9.9706 C   0  0  0  0  0  0  0  0  0  0  0  0
    3.1933   19.5301   -9.0180 C   0  0  0  0  0  0  0  0  0  0  0  0
    2.8687   18.0548   -8.8536 C   0  0  0  0  0  0  0  0  0  0  0  0
    2.3047   17.4672  -10.0727 N   0  0  0  0  0  0  0  0  0  0  0  0
    1.4300   17.9382  -10.3040 H   0  0  0  0  0  0  0  0  0  0  0  0
    2.1264   16.4745   -9.9206 H   0  0  0  0  0  0  0  0  0  0  0  0
  9  8  1  0  0  0
 10 11  2  0  0  0
 11 12  1  0  0  0
 11  8  1  0  0  0
  8  6  1  0  0  0
  6  1  1  0  0  0
  4  2  2  0  0  0
  1  2  1  0  0  0
  1 14  1  0  0  0
  2  3  1  0  0  0
 14 15  1  0  0  0
 15 16  1  0  0  0
 16 17  1  0  0  0
  6  7  1  0  0  0
  3  5  1  0  0  0
 17 18  1  0  0  0
 17 19  1  0  0  0
 12 13  1  0  0  0
M  END
> <minimizedAffinity>
-6.48562

$$$$
5OTA_AQQ_A_301


 19 18  0  0  0  0  0  0  0  0999 V2000
    3.1705   20.2067  -12.9833 C   0  0  0  0  0  0  0  0  0  0  0  0
    4.1367   21.3971  -12.9265 C   0  0  0  0  0  0  0  0  0  0  0  0
    3.9836   22.4183  -13.6602 O   0  0  0  0  0  0  0  0  0  0  0  0
    5.0928   21.3888  -12.0986 O   0  0  0  0  0  0  0  0  0  0  0  0
    3.2826   22.4481  -14.2812 H   0  0  0  0  0  0  0  0  0  0  0  0
    3.2162   19.6749  -14.3162 N   0  0  0  0  0  0  0  0  0  0  0  0
    3.2670   20.4679  -14.9558 H   0  0  0  0  0  0  0  0  0  0  0  0
    2.0988   18.8178  -14.7697 C   0  0  0  0  0  0  0  0  0  0  0  0
    2.5758   17.3702  -14.8754 C   0  0  0  0  0  0  0  0  0  0  0  0
    1.8174   20.3551  -16.6156 O   0  0  0  0  0  0  0  0  0  0  0  0
    1.4755   19.2712  -16.1136 C   0  0  0  0  0  0  0  0  0  0  0  0
    0.6164   18.5603  -16.7198 O   0  0  0  0  0  0  0  0  0  0  0  0
    0.3466   17.7399  -16.3562 H   0  0  0  0  0  0  0  0  0  0  0  0
    3.6272   19.1163  -11.9941 C   0  0  0  0  0  0  0  0  0  0  0  0
    2.7184   18.7690  -10.8207 C   0  0  0  0  0  0  0  0  0  0  0  0
    3.5561   18.8148   -9.5538 C   0  0  0  0  0  0  0  0  0  0  0  0
    4.7567   19.6424   -9.7069 N   0  0  0  0  0  0  0  0  0  0  0  0
    5.3490   19.2501  -10.4387 H   0  0  0  0  0  0  0  0  0  0  0  0
    5.2713   19.6611   -8.8264 H   0  0  0  0  0  0  0  0  0  0  0  0
  9  8  1  0  0  0
 10 11  2  0  0  0
 11 12  1  0  0  0
 11  8  1  0  0  0
  8  6  1  0  0  0
  6  1  1  0  0  0
  4  2  2  0  0  0
  1  2  1  0  0  0
  1 14  1  0  0  0
  2  3  1  0  0  0
 14 15  1  0  0  0
 15 16  1  0  0  0
 16 17  1  0  0  0
  6  7  1  0  0  0
  3  5  1  0  0  0
 17 18  1  0  0  0
 17 19  1  0  0  0
 12 13  1  0  0  0
M  END
> <minimizedAffinity>
-6.30816

$$$$
5OTA_AQQ_A_301


 19 18  0  0  0  0  0  0  0  0999 V2000
    2.9847   19.0571  -12.9789 C   0  0  0  0  0  0  0  0  0  0  0  0
    3.1066   20.4666  -13.5724 C   0  0  0  0  0  0  0  0  0  0  0  0
    3.3173   21.4823  -12.8453 O   0  0  0  0  0  0  0  0  0  0  0  0
    3.0384   20.6269  -14.8251 O   0  0  0  0  0  0  0  0  0  0  0  0
    3.3720   21.3890  -11.9146 H   0  0  0  0  0  0  0  0  0  0  0  0
    2.4510   19.1901  -11.6527 N   0  0  0  0  0  0  0  0  0  0  0  0
    2.2049   20.1716  -11.5235 H   0  0  0  0  0  0  0  0  0  0  0  0
    3.3043   18.7988  -10.5092 C   0  0  0  0  0  0  0  0  0  0  0  0
    2.4229   18.3663   -9.3385 C   0  0  0  0  0  0  0  0  0  0  0  0
    4.0837   20.5038   -8.9810 O   0  0  0  0  0  0  0  0  0  0  0  0
    4.2817   19.9119  -10.0554 C   0  0  0  0  0  0  0  0  0  0  0  0
    5.2865   20.2395  -10.7581 O   0  0  0  0  0  0  0  0  0  0  0  0
    5.4516   19.8040  -11.5712 H   0  0  0  0  0  0  0  0  0  0  0  0
    2.0107   18.2162  -13.8277 C   0  0  0  0  0  0  0  0  0  0  0  0
    2.5860   17.2714  -14.8765 C   0  0  0  0  0  0  0  0  0  0  0  0
    2.2462   17.8343  -16.2464 C   0  0  0  0  0  0  0  0  0  0  0  0
    0.9740   18.5632  -16.2516 N   0  0  0  0  0  0  0  0  0  0  0  0
    0.2174   17.9283  -15.9970 H   0  0  0  0  0  0  0  0  0  0  0  0
    0.8022   18.9406  -17.1834 H   0  0  0  0  0  0  0  0  0  0  0  0
  9  8  1  0  0  0
 10 11  2  0  0  0
 11 12  1  0  0  0
 11  8  1  0  0  0
  8  6  1  0  0  0
  6  1  1  0  0  0
  4  2  2  0  0  0
  1  2  1  0  0  0
  1 14  1  0  0  0
  2  3  1  0  0  0
 14 15  1  0  0  0
 15 16  1  0  0  0
 16 17  1  0  0  0
  6  7  1  0  0  0
  3  5  1  0  0  0
 17 18  1  0  0  0
 17 19  1  0  0  0
 12 13  1  0  0  0
M  END
> <minimizedAffinity>
-6.26718

$$$$
5OTA_AQQ_A_301


 19 18  0  0  0  0  0  0  0  0999 V2000
    2.5416   18.7331  -13.6770 C   0  0  0  0  0  0  0  0  0  0  0  0
    2.2804   17.3234  -14.2232 C   0  0  0  0  0  0  0  0  0  0  0  0
    1.1299   16.7945  -14.1862 O   0  0  0  0  0  0  0  0  0  0  0  0
    3.2226   16.6773  -14.7657 O   0  0  0  0  0  0  0  0  0  0  0  0
    0.4158   17.2535  -13.7896 H   0  0  0  0  0  0  0  0  0  0  0  0
    3.6776   18.6551  -12.8024 N   0  0  0  0  0  0  0  0  0  0  0  0
    3.6122   17.7692  -12.3011 H   0  0  0  0  0  0  0  0  0  0  0  0
    3.8594   19.7185  -11.7900 C   0  0  0  0  0  0  0  0  0  0  0  0
    5.2288   20.3707  -11.9744 C   0  0  0  0  0  0  0  0  0  0  0  0
    3.7472   18.0023  -10.0895 O   0  0  0  0  0  0  0  0  0  0  0  0
    3.7006   19.2200  -10.3318 C   0  0  0  0  0  0  0  0  0  0  0  0
    3.5208   20.0285   -9.3701 O   0  0  0  0  0  0  0  0  0  0  0  0
    3.4829   20.9503   -9.5339 H   0  0  0  0  0  0  0  0  0  0  0  0
    2.8705   19.6903  -14.8396 C   0  0  0  0  0  0  0  0  0  0  0  0
    1.7282   20.1981  -15.7118 C   0  0  0  0  0  0  0  0  0  0  0  0
    1.6281   19.2877  -16.9242 C   0  0  0  0  0  0  0  0  0  0  0  0
    0.3970   18.4914  -16.9254 N   0  0  0  0  0  0  0  0  0  0  0  0
    0.3805   17.8897  -16.1020 H   0  0  0  0  0  0  0  0  0  0  0  0
    0.3648   17.9165  -17.7673 H   0  0  0  0  0  0  0  0  0  0  0  0
  9  8  1  0  0  0
 10 11  2  0  0  0
 11 12  1  0  0  0
 11  8  1  0  0  0
  8  6  1  0  0  0
  6  1  1  0  0  0
  4  2  2  0  0  0
  1  2  1  0  0  0
  1 14  1  0  0  0
  2  3  1  0  0  0
 14 15  1  0  0  0
 15 16  1  0  0  0
 16 17  1  0  0  0
  6  7  1  0  0  0
  3  5  1  0  0  0
 17 18  1  0  0  0
 17 19  1  0  0  0
 12 13  1  0  0  0
M  END
> <minimizedAffinity>
-6.05799

$$$$
