5HCT_61P_A_406


 28 30  0  0  0  0  0  0  0  0999 V2000
   28.6018    5.3501   59.2882 C   0  0  0  0  0  0  0  0  0  0  0  0
   30.0732    5.5859   59.1646 N   0  0  0  0  0  0  0  0  0  0  0  0
   30.3910    6.1658   59.9412 H   0  0  0  0  0  0  0  0  0  0  0  0
   30.2686    6.0609   58.2833 H   0  0  0  0  0  0  0  0  0  0  0  0
   27.9001    7.4415   60.2381 O   0  0  0  0  0  0  0  0  0  0  0  0
   27.8957    6.7041   59.2526 C   0  0  0  0  0  0  0  0  0  0  0  0
   27.2795    7.0024   58.0882 N   0  0  0  0  0  0  0  0  0  0  0  0
   27.2944    6.3564   57.3455 H   0  0  0  0  0  0  0  0  0  0  0  0
   26.6296    8.2096   57.9365 N   0  0  0  0  0  0  0  0  0  0  0  0
   25.8360    8.2604   56.9363 C   0  0  0  0  0  0  0  0  0  0  0  0
   22.1286   10.5219   54.4850 C   0  0  0  0  0  0  0  0  0  0  0  0
   23.2701   10.5743   55.4028 C   0  0  0  0  0  0  0  0  0  0  0  0
   23.6452   11.7787   55.9922 C   0  0  0  0  0  0  0  0  0  0  0  0
   24.7011   11.8280   56.8850 C   0  0  0  0  0  0  0  0  0  0  0  0
   25.4047   10.6779   57.1934 C   0  0  0  0  0  0  0  0  0  0  0  0
   25.0668    9.4590   56.6091 C   0  0  0  0  0  0  0  0  0  0  0  0
   23.9902    9.4169   55.7179 C   0  0  0  0  0  0  0  0  0  0  0  0
   28.2523    4.5821   60.5701 C   0  0  0  0  0  0  0  0  0  0  0  0
   27.5537    3.2688   60.3449 C   0  0  0  0  0  0  0  0  0  0  0  0
   26.1528    2.9857   60.5170 C   0  0  0  0  0  0  0  0  0  0  0  0
   25.0540    3.7309   60.9334 C   0  0  0  0  0  0  0  0  0  0  0  0
   23.7974    3.1431   60.9786 C   0  0  0  0  0  0  0  0  0  0  0  0
   23.6202    1.8139   60.6161 C   0  0  0  0  0  0  0  0  0  0  0  0
   24.6965    1.0469   60.1994 C   0  0  0  0  0  0  0  0  0  0  0  0
   25.9544    1.6421   60.1500 C   0  0  0  0  0  0  0  0  0  0  0  0
   27.1733    1.1311   59.7767 N   0  0  0  0  0  0  0  0  0  0  0  0
   28.1230    2.1110   59.8973 C   0  0  0  0  0  0  0  0  0  0  0  0
   27.3379    0.2096   59.4718 H   0  0  0  0  0  0  0  0  0  0  0  0
 14 15  2  0  0  0
 14 13  1  0  0  0
 15 16  1  0  0  0
 13 12  2  0  0  0
 16 10  1  0  0  0
 16 17  2  0  0  0
 10  9  2  0  0  0
 12 17  1  0  0  0
 12 11  1  0  0  0
  9  7  1  0  0  0
  7  6  1  0  0  0
  6  1  1  0  0  0
  6  5  2  0  0  0
  1  2  1  0  0  0
  1 18  1  0  0  0
 22 21  2  0  0  0
 22 23  1  0  0  0
 21 20  1  0  0  0
 23 24  2  0  0  0
 20 19  1  0  0  0
 20 25  2  0  0  0
 18 19  1  0  0  0
 24 25  1  0  0  0
 19 27  2  0  0  0
 25 26  1  0  0  0
 27 26  1  0  0  0
 26 28  1  0  0  0
  2  3  1  0  0  0
  2  4  1  0  0  0
  7  8  1  0  0  0
M  END
> <minimizedAffinity>
-9.11133

$$$$
5HCT_61P_A_406


 28 30  0  0  0  0  0  0  0  0999 V2000
   28.6221    5.5852   59.2491 C   0  0  0  0  0  0  0  0  0  0  0  0
   30.0998    5.4442   59.0692 N   0  0  0  0  0  0  0  0  0  0  0  0
   30.5819    5.9104   59.8378 H   0  0  0  0  0  0  0  0  0  0  0  0
   30.3770    5.8710   58.1853 H   0  0  0  0  0  0  0  0  0  0  0  0
   27.3856    7.5113   59.9769 O   0  0  0  0  0  0  0  0  0  0  0  0
   28.2806    7.0740   59.2539 C   0  0  0  0  0  0  0  0  0  0  0  0
   29.0154    7.8367   58.4155 N   0  0  0  0  0  0  0  0  0  0  0  0
   29.7013    7.4190   57.8460 H   0  0  0  0  0  0  0  0  0  0  0  0
   28.8075    9.1990   58.3548 N   0  0  0  0  0  0  0  0  0  0  0  0
   29.7265    9.8985   58.9015 C   0  0  0  0  0  0  0  0  0  0  0  0
   31.9679   14.3190   59.4526 C   0  0  0  0  0  0  0  0  0  0  0  0
   30.7596   13.5199   59.2294 C   0  0  0  0  0  0  0  0  0  0  0  0
   29.5277   14.1422   59.0460 C   0  0  0  0  0  0  0  0  0  0  0  0
   28.3895   13.3943   58.8018 C   0  0  0  0  0  0  0  0  0  0  0  0
   28.4629   12.0141   58.7486 C   0  0  0  0  0  0  0  0  0  0  0  0
   29.6765   11.3583   58.9443 C   0  0  0  0  0  0  0  0  0  0  0  0
   30.8233   12.1232   59.1777 C   0  0  0  0  0  0  0  0  0  0  0  0
   28.1363    4.9063   60.5369 C   0  0  0  0  0  0  0  0  0  0  0  0
   27.5253    3.5459   60.3379 C   0  0  0  0  0  0  0  0  0  0  0  0
   26.1452    3.1759   60.5137 C   0  0  0  0  0  0  0  0  0  0  0  0
   24.9991    3.8564   60.9129 C   0  0  0  0  0  0  0  0  0  0  0  0
   23.7833    3.1891   60.9684 C   0  0  0  0  0  0  0  0  0  0  0  0
   23.6939    1.8440   60.6333 C   0  0  0  0  0  0  0  0  0  0  0  0
   24.8190    1.1402   60.2342 C   0  0  0  0  0  0  0  0  0  0  0  0
   26.0357    1.8149   60.1744 C   0  0  0  0  0  0  0  0  0  0  0  0
   27.2863    1.3768   59.8136 N   0  0  0  0  0  0  0  0  0  0  0  0
   28.1699    2.4187   59.9152 C   0  0  0  0  0  0  0  0  0  0  0  0
   27.5113    0.4619   59.5281 H   0  0  0  0  0  0  0  0  0  0  0  0
 14 15  2  0  0  0
 14 13  1  0  0  0
 15 16  1  0  0  0
 13 12  2  0  0  0
 16 10  1  0  0  0
 16 17  2  0  0  0
 10  9  2  0  0  0
 12 17  1  0  0  0
 12 11  1  0  0  0
  9  7  1  0  0  0
  7  6  1  0  0  0
  6  1  1  0  0  0
  6  5  2  0  0  0
  1  2  1  0  0  0
  1 18  1  0  0  0
 22 21  2  0  0  0
 22 23  1  0  0  0
 21 20  1  0  0  0
 23 24  2  0  0  0
 20 19  1  0  0  0
 20 25  2  0  0  0
 18 19  1  0  0  0
 24 25  1  0  0  0
 19 27  2  0  0  0
 25 26  1  0  0  0
 27 26  1  0  0  0
 26 28  1  0  0  0
  2  3  1  0  0  0
  2  4  1  0  0  0
  7  8  1  0  0  0
M  END
> <minimizedAffinity>
-9.04017

$$$$
5HCT_61P_A_406


 28 30  0  0  0  0  0  0  0  0999 V2000
   26.8260    5.6896   59.5316 C   0  0  0  0  0  0  0  0  0  0  0  0
   27.1667    5.4028   58.1042 N   0  0  0  0  0  0  0  0  0  0  0  0
   28.1744    5.4883   57.9715 H   0  0  0  0  0  0  0  0  0  0  0  0
   26.6864    6.0692   57.4995 H   0  0  0  0  0  0  0  0  0  0  0  0
   26.5044    8.0620   59.7228 O   0  0  0  0  0  0  0  0  0  0  0  0
   27.2768    7.1128   59.8545 C   0  0  0  0  0  0  0  0  0  0  0  0
   28.5560    7.2316   60.2717 N   0  0  0  0  0  0  0  0  0  0  0  0
   29.1285    6.4331   60.3326 H   0  0  0  0  0  0  0  0  0  0  0  0
   29.0625    8.4685   60.6128 N   0  0  0  0  0  0  0  0  0  0  0  0
   29.8436    8.4590   61.6240 C   0  0  0  0  0  0  0  0  0  0  0  0
   33.2332   10.7352   64.4871 C   0  0  0  0  0  0  0  0  0  0  0  0
   32.1095   10.7943   63.5479 C   0  0  0  0  0  0  0  0  0  0  0  0
   31.6140   12.0227   63.1190 C   0  0  0  0  0  0  0  0  0  0  0  0
   30.5754   12.0843   62.2069 C   0  0  0  0  0  0  0  0  0  0  0  0
   30.0091   10.9207   61.7189 C   0  0  0  0  0  0  0  0  0  0  0  0
   30.4693    9.6747   62.1396 C   0  0  0  0  0  0  0  0  0  0  0  0
   31.5278    9.6226   63.0517 C   0  0  0  0  0  0  0  0  0  0  0  0
   27.4733    4.6784   60.4875 C   0  0  0  0  0  0  0  0  0  0  0  0
   26.9599    3.2704   60.3544 C   0  0  0  0  0  0  0  0  0  0  0  0
   25.5967    2.8243   60.4769 C   0  0  0  0  0  0  0  0  0  0  0  0
   24.3886    3.4548   60.7580 C   0  0  0  0  0  0  0  0  0  0  0  0
   23.2146    2.7152   60.7921 C   0  0  0  0  0  0  0  0  0  0  0  0
   23.2284    1.3470   60.5525 C   0  0  0  0  0  0  0  0  0  0  0  0
   24.4169    0.6919   60.2720 C   0  0  0  0  0  0  0  0  0  0  0  0
   25.5916    1.4387   60.2331 C   0  0  0  0  0  0  0  0  0  0  0  0
   26.8866    1.0590   59.9785 N   0  0  0  0  0  0  0  0  0  0  0  0
   27.6971    2.1609   60.0539 C   0  0  0  0  0  0  0  0  0  0  0  0
   27.1844    0.1430   59.7747 H   0  0  0  0  0  0  0  0  0  0  0  0
 14 15  2  0  0  0
 14 13  1  0  0  0
 15 16  1  0  0  0
 13 12  2  0  0  0
 16 10  1  0  0  0
 16 17  2  0  0  0
 10  9  2  0  0  0
 12 17  1  0  0  0
 12 11  1  0  0  0
  9  7  1  0  0  0
  7  6  1  0  0  0
  6  1  1  0  0  0
  6  5  2  0  0  0
  1  2  1  0  0  0
  1 18  1  0  0  0
 22 21  2  0  0  0
 22 23  1  0  0  0
 21 20  1  0  0  0
 23 24  2  0  0  0
 20 19  1  0  0  0
 20 25  2  0  0  0
 18 19  1  0  0  0
 24 25  1  0  0  0
 19 27  2  0  0  0
 25 26  1  0  0  0
 27 26  1  0  0  0
 26 28  1  0  0  0
  2  3  1  0  0  0
  2  4  1  0  0  0
  7  8  1  0  0  0
M  END
> <minimizedAffinity>
-8.94426

$$$$
5HCT_61P_A_406


 28 30  0  0  0  0  0  0  0  0999 V2000
   28.2018    5.8269   59.5806 C   0  0  0  0  0  0  0  0  0  0  0  0
   28.5225    5.5383   58.1490 N   0  0  0  0  0  0  0  0  0  0  0  0
   29.3182    4.9018   58.1004 H   0  0  0  0  0  0  0  0  0  0  0  0
   28.7537    6.4087   57.6702 H   0  0  0  0  0  0  0  0  0  0  0  0
   30.4461    5.8146   60.4358 O   0  0  0  0  0  0  0  0  0  0  0  0
   29.4272    6.4722   60.2248 C   0  0  0  0  0  0  0  0  0  0  0  0
   29.2921    7.7786   60.5401 N   0  0  0  0  0  0  0  0  0  0  0  0
   28.4400    8.2400   60.3657 H   0  0  0  0  0  0  0  0  0  0  0  0
   30.3442    8.4683   61.1059 N   0  0  0  0  0  0  0  0  0  0  0  0
   30.2591    8.6160   62.3722 C   0  0  0  0  0  0  0  0  0  0  0  0
   32.5674   12.8357   63.6891 C   0  0  0  0  0  0  0  0  0  0  0  0
   32.4181   11.3806   63.7814 C   0  0  0  0  0  0  0  0  0  0  0  0
   33.2452   10.6396   64.6211 C   0  0  0  0  0  0  0  0  0  0  0  0
   33.0869    9.2699   64.7374 C   0  0  0  0  0  0  0  0  0  0  0  0
   32.1083    8.6191   64.0084 C   0  0  0  0  0  0  0  0  0  0  0  0
   31.2743    9.3275   63.1460 C   0  0  0  0  0  0  0  0  0  0  0  0
   31.4335   10.7129   63.0449 C   0  0  0  0  0  0  0  0  0  0  0  0
   27.7859    4.5594   60.3394 C   0  0  0  0  0  0  0  0  0  0  0  0
   26.3897    4.0815   60.0466 C   0  0  0  0  0  0  0  0  0  0  0  0
   25.8821    2.7406   60.1760 C   0  0  0  0  0  0  0  0  0  0  0  0
   26.4387    1.5221   60.5523 C   0  0  0  0  0  0  0  0  0  0  0  0
   25.6483    0.3815   60.5831 C   0  0  0  0  0  0  0  0  0  0  0  0
   24.3039    0.4379   60.2383 C   0  0  0  0  0  0  0  0  0  0  0  0
   23.7230    1.6371   59.8576 C   0  0  0  0  0  0  0  0  0  0  0  0
   24.5181    2.7800   59.8336 C   0  0  0  0  0  0  0  0  0  0  0  0
   24.2108    4.0785   59.5084 N   0  0  0  0  0  0  0  0  0  0  0  0
   25.3364    4.8486   59.6383 C   0  0  0  0  0  0  0  0  0  0  0  0
   23.3250    4.4033   59.2274 H   0  0  0  0  0  0  0  0  0  0  0  0
 14 15  2  0  0  0
 14 13  1  0  0  0
 15 16  1  0  0  0
 13 12  2  0  0  0
 16 10  1  0  0  0
 16 17  2  0  0  0
 10  9  2  0  0  0
 12 17  1  0  0  0
 12 11  1  0  0  0
  9  7  1  0  0  0
  7  6  1  0  0  0
  6  1  1  0  0  0
  6  5  2  0  0  0
  1  2  1  0  0  0
  1 18  1  0  0  0
 22 21  2  0  0  0
 22 23  1  0  0  0
 21 20  1  0  0  0
 23 24  2  0  0  0
 20 19  1  0  0  0
 20 25  2  0  0  0
 18 19  1  0  0  0
 24 25  1  0  0  0
 19 27  2  0  0  0
 25 26  1  0  0  0
 27 26  1  0  0  0
 26 28  1  0  0  0
  2  3  1  0  0  0
  2  4  1  0  0  0
  7  8  1  0  0  0
M  END
> <minimizedAffinity>
-8.91319

$$$$
5HCT_61P_A_406


 28 30  0  0  0  0  0  0  0  0999 V2000
   29.1023    6.0190   59.9424 C   0  0  0  0  0  0  0  0  0  0  0  0
   29.1744    4.7262   59.1946 N   0  0  0  0  0  0  0  0  0  0  0  0
   29.2563    4.9154   58.1957 H   0  0  0  0  0  0  0  0  0  0  0  0
   28.3281    4.1844   59.3698 H   0  0  0  0  0  0  0  0  0  0  0  0
   27.1078    7.3202   60.2542 O   0  0  0  0  0  0  0  0  0  0  0  0
   27.8757    6.7868   59.4537 C   0  0  0  0  0  0  0  0  0  0  0  0
   27.7105    6.8165   58.1134 N   0  0  0  0  0  0  0  0  0  0  0  0
   28.3500    6.3481   57.5296 H   0  0  0  0  0  0  0  0  0  0  0  0
   26.6485    7.5012   57.5602 N   0  0  0  0  0  0  0  0  0  0  0  0
   26.8998    8.7196   57.2683 C   0  0  0  0  0  0  0  0  0  0  0  0
   24.2572   12.9482   57.3274 C   0  0  0  0  0  0  0  0  0  0  0  0
   24.5896   11.6596   56.7130 C   0  0  0  0  0  0  0  0  0  0  0  0
   23.9536   11.2522   55.5434 C   0  0  0  0  0  0  0  0  0  0  0  0
   24.2872   10.0521   54.9408 C   0  0  0  0  0  0  0  0  0  0  0  0
   25.2522    9.2365   55.5035 C   0  0  0  0  0  0  0  0  0  0  0  0
   25.8964    9.6058   56.6825 C   0  0  0  0  0  0  0  0  0  0  0  0
   25.5616   10.8262   57.2769 C   0  0  0  0  0  0  0  0  0  0  0  0
   30.3785    6.8529   59.7655 C   0  0  0  0  0  0  0  0  0  0  0  0
   30.3031    8.2447   60.3319 C   0  0  0  0  0  0  0  0  0  0  0  0
   30.3237    9.4853   59.6020 C   0  0  0  0  0  0  0  0  0  0  0  0
   30.4350    9.8200   58.2560 C   0  0  0  0  0  0  0  0  0  0  0  0
   30.4091   11.1533   57.8710 C   0  0  0  0  0  0  0  0  0  0  0  0
   30.2771   12.1640   58.8148 C   0  0  0  0  0  0  0  0  0  0  0  0
   30.1665   11.8606   60.1625 C   0  0  0  0  0  0  0  0  0  0  0  0
   30.1871   10.5215   60.5437 C   0  0  0  0  0  0  0  0  0  0  0  0
   30.0916    9.9419   61.7852 N   0  0  0  0  0  0  0  0  0  0  0  0
   30.1626    8.5807   61.6480 C   0  0  0  0  0  0  0  0  0  0  0  0
   29.9887   10.4263   62.6361 H   0  0  0  0  0  0  0  0  0  0  0  0
 14 15  2  0  0  0
 14 13  1  0  0  0
 15 16  1  0  0  0
 13 12  2  0  0  0
 16 10  1  0  0  0
 16 17  2  0  0  0
 10  9  2  0  0  0
 12 17  1  0  0  0
 12 11  1  0  0  0
  9  7  1  0  0  0
  7  6  1  0  0  0
  6  1  1  0  0  0
  6  5  2  0  0  0
  1  2  1  0  0  0
  1 18  1  0  0  0
 22 21  2  0  0  0
 22 23  1  0  0  0
 21 20  1  0  0  0
 23 24  2  0  0  0
 20 19  1  0  0  0
 20 25  2  0  0  0
 18 19  1  0  0  0
 24 25  1  0  0  0
 19 27  2  0  0  0
 25 26  1  0  0  0
 27 26  1  0  0  0
 26 28  1  0  0  0
  2  3  1  0  0  0
  2  4  1  0  0  0
  7  8  1  0  0  0
M  END
> <minimizedAffinity>
-8.69611

$$$$
5HCT_61P_A_406


 28 30  0  0  0  0  0  0  0  0999 V2000
   24.4284    0.4830   56.8908 C   0  0  0  0  0  0  0  0  0  0  0  0
   25.9082    0.5703   57.0865 N   0  0  0  0  0  0  0  0  0  0  0  0
   26.1249    1.3620   57.6920 H   0  0  0  0  0  0  0  0  0  0  0  0
   26.3636    0.6986   56.1829 H   0  0  0  0  0  0  0  0  0  0  0  0
   22.8022    1.8906   55.8220 O   0  0  0  0  0  0  0  0  0  0  0  0
   23.9539    1.7820   56.2424 C   0  0  0  0  0  0  0  0  0  0  0  0
   24.8820    2.7604   56.1654 N   0  0  0  0  0  0  0  0  0  0  0  0
   25.7937    2.5994   56.5002 H   0  0  0  0  0  0  0  0  0  0  0  0
   24.5563    3.9843   55.6190 N   0  0  0  0  0  0  0  0  0  0  0  0
   24.2960    4.8939   56.4779 C   0  0  0  0  0  0  0  0  0  0  0  0
   25.5280    9.5557   55.2061 C   0  0  0  0  0  0  0  0  0  0  0  0
   24.5140    8.5346   55.4843 C   0  0  0  0  0  0  0  0  0  0  0  0
   23.1597    8.8393   55.3770 C   0  0  0  0  0  0  0  0  0  0  0  0
   22.1988    7.8704   55.6059 C   0  0  0  0  0  0  0  0  0  0  0  0
   22.5759    6.5867   55.9564 C   0  0  0  0  0  0  0  0  0  0  0  0
   23.9218    6.2519   56.0890 C   0  0  0  0  0  0  0  0  0  0  0  0
   24.8858    7.2344   55.8431 C   0  0  0  0  0  0  0  0  0  0  0  0
   23.6917    0.2281   58.2128 C   0  0  0  0  0  0  0  0  0  0  0  0
   23.5701    1.4323   59.1066 C   0  0  0  0  0  0  0  0  0  0  0  0
   24.6058    2.0323   59.9065 C   0  0  0  0  0  0  0  0  0  0  0  0
   25.9451    1.7386   60.1431 C   0  0  0  0  0  0  0  0  0  0  0  0
   26.6916    2.5491   60.9871 C   0  0  0  0  0  0  0  0  0  0  0  0
   26.1175    3.6526   61.6053 C   0  0  0  0  0  0  0  0  0  0  0  0
   24.7855    3.9682   61.3900 C   0  0  0  0  0  0  0  0  0  0  0  0
   24.0417    3.1558   60.5380 C   0  0  0  0  0  0  0  0  0  0  0  0
   22.7279    3.2345   60.1457 N   0  0  0  0  0  0  0  0  0  0  0  0
   22.4555    2.1994   59.2906 C   0  0  0  0  0  0  0  0  0  0  0  0
   22.0857    3.9233   60.4326 H   0  0  0  0  0  0  0  0  0  0  0  0
 14 15  2  0  0  0
 14 13  1  0  0  0
 15 16  1  0  0  0
 13 12  2  0  0  0
 16 10  1  0  0  0
 16 17  2  0  0  0
 10  9  2  0  0  0
 12 17  1  0  0  0
 12 11  1  0  0  0
  9  7  1  0  0  0
  7  6  1  0  0  0
  6  1  1  0  0  0
  6  5  2  0  0  0
  1  2  1  0  0  0
  1 18  1  0  0  0
 22 21  2  0  0  0
 22 23  1  0  0  0
 21 20  1  0  0  0
 23 24  2  0  0  0
 20 19  1  0  0  0
 20 25  2  0  0  0
 18 19  1  0  0  0
 24 25  1  0  0  0
 19 27  2  0  0  0
 25 26  1  0  0  0
 27 26  1  0  0  0
 26 28  1  0  0  0
  2  3  1  0  0  0
  2  4  1  0  0  0
  7  8  1  0  0  0
M  END
> <minimizedAffinity>
-8.68319

$$$$
5HCT_61P_A_406


 28 30  0  0  0  0  0  0  0  0999 V2000
   28.2360    5.4124   59.3370 C   0  0  0  0  0  0  0  0  0  0  0  0
   29.6055    5.0363   58.8694 N   0  0  0  0  0  0  0  0  0  0  0  0
   30.2448    5.0248   59.6641 H   0  0  0  0  0  0  0  0  0  0  0  0
   29.9292    5.7173   58.1825 H   0  0  0  0  0  0  0  0  0  0  0  0
   27.3013    7.4979   60.0759 O   0  0  0  0  0  0  0  0  0  0  0  0
   28.3105    6.8015   59.9681 C   0  0  0  0  0  0  0  0  0  0  0  0
   29.5407    7.1859   60.3719 N   0  0  0  0  0  0  0  0  0  0  0  0
   30.3113    6.5888   60.2344 H   0  0  0  0  0  0  0  0  0  0  0  0
   29.7207    8.4127   60.9764 N   0  0  0  0  0  0  0  0  0  0  0  0
   30.2644    9.2952   60.2292 C   0  0  0  0  0  0  0  0  0  0  0  0
   30.8665   14.1675   59.3541 C   0  0  0  0  0  0  0  0  0  0  0  0
   30.8563   13.0284   60.2764 C   0  0  0  0  0  0  0  0  0  0  0  0
   31.1096   13.2178   61.6323 C   0  0  0  0  0  0  0  0  0  0  0  0
   31.0684   12.1512   62.5128 C   0  0  0  0  0  0  0  0  0  0  0  0
   30.7854   10.8788   62.0505 C   0  0  0  0  0  0  0  0  0  0  0  0
   30.5436   10.6510   60.6974 C   0  0  0  0  0  0  0  0  0  0  0  0
   30.5747   11.7371   59.8174 C   0  0  0  0  0  0  0  0  0  0  0  0
   27.6701    4.3880   60.3298 C   0  0  0  0  0  0  0  0  0  0  0  0
   26.2737    3.9201   60.0223 C   0  0  0  0  0  0  0  0  0  0  0  0
   25.7494    2.5871   60.1660 C   0  0  0  0  0  0  0  0  0  0  0  0
   26.2864    1.3693   60.5719 C   0  0  0  0  0  0  0  0  0  0  0  0
   25.4833    0.2379   60.6090 C   0  0  0  0  0  0  0  0  0  0  0  0
   24.1453    0.3027   60.2413 C   0  0  0  0  0  0  0  0  0  0  0  0
   23.5838    1.5014   59.8309 C   0  0  0  0  0  0  0  0  0  0  0  0
   24.3917    2.6352   59.8006 C   0  0  0  0  0  0  0  0  0  0  0  0
   24.1039    3.9311   59.4486 N   0  0  0  0  0  0  0  0  0  0  0  0
   25.2356    4.6913   59.5839 C   0  0  0  0  0  0  0  0  0  0  0  0
   23.2263    4.2605   59.1477 H   0  0  0  0  0  0  0  0  0  0  0  0
 14 15  2  0  0  0
 14 13  1  0  0  0
 15 16  1  0  0  0
 13 12  2  0  0  0
 16 10  1  0  0  0
 16 17  2  0  0  0
 10  9  2  0  0  0
 12 17  1  0  0  0
 12 11  1  0  0  0
  9  7  1  0  0  0
  7  6  1  0  0  0
  6  1  1  0  0  0
  6  5  2  0  0  0
  1  2  1  0  0  0
  1 18  1  0  0  0
 22 21  2  0  0  0
 22 23  1  0  0  0
 21 20  1  0  0  0
 23 24  2  0  0  0
 20 19  1  0  0  0
 20 25  2  0  0  0
 18 19  1  0  0  0
 24 25  1  0  0  0
 19 27  2  0  0  0
 25 26  1  0  0  0
 27 26  1  0  0  0
 26 28  1  0  0  0
  2  3  1  0  0  0
  2  4  1  0  0  0
  7  8  1  0  0  0
M  END
> <minimizedAffinity>
-8.60728

$$$$
5HCT_61P_A_406


 28 30  0  0  0  0  0  0  0  0999 V2000
   26.9491    2.1354   59.8182 C   0  0  0  0  0  0  0  0  0  0  0  0
   28.0532    1.1493   59.6079 N   0  0  0  0  0  0  0  0  0  0  0  0
   28.4970    0.9400   60.5022 H   0  0  0  0  0  0  0  0  0  0  0  0
   28.7442    1.5436   58.9696 H   0  0  0  0  0  0  0  0  0  0  0  0
   27.1808    3.8223   61.5120 O   0  0  0  0  0  0  0  0  0  0  0  0
   27.5501    3.4070   60.4137 C   0  0  0  0  0  0  0  0  0  0  0  0
   28.4811    4.0176   59.6489 N   0  0  0  0  0  0  0  0  0  0  0  0
   28.7138    3.6449   58.7679 H   0  0  0  0  0  0  0  0  0  0  0  0
   29.1068    5.1618   60.0985 N   0  0  0  0  0  0  0  0  0  0  0  0
   28.7375    6.2329   59.5075 C   0  0  0  0  0  0  0  0  0  0  0  0
   30.3208   10.7649   58.1579 C   0  0  0  0  0  0  0  0  0  0  0  0
   30.0866    9.7496   59.1887 C   0  0  0  0  0  0  0  0  0  0  0  0
   30.3888   10.0163   60.5214 C   0  0  0  0  0  0  0  0  0  0  0  0
   30.1388    9.0739   61.5032 C   0  0  0  0  0  0  0  0  0  0  0  0
   29.5944    7.8477   61.1671 C   0  0  0  0  0  0  0  0  0  0  0  0
   29.2955    7.5416   59.8411 C   0  0  0  0  0  0  0  0  0  0  0  0
   29.5397    8.5051   58.8578 C   0  0  0  0  0  0  0  0  0  0  0  0
   25.8459    1.5727   60.7247 C   0  0  0  0  0  0  0  0  0  0  0  0
   24.4525    2.0116   60.3652 C   0  0  0  0  0  0  0  0  0  0  0  0
   23.5931    1.4464   59.3580 C   0  0  0  0  0  0  0  0  0  0  0  0
   23.7273    0.4178   58.4306 C   0  0  0  0  0  0  0  0  0  0  0  0
   22.6717    0.1085   57.5841 C   0  0  0  0  0  0  0  0  0  0  0  0
   21.4784    0.8168   57.6467 C   0  0  0  0  0  0  0  0  0  0  0  0
   21.3169    1.8475   58.5587 C   0  0  0  0  0  0  0  0  0  0  0  0
   22.3764    2.1508   59.4100 C   0  0  0  0  0  0  0  0  0  0  0  0
   22.4897    3.0996   60.3965 N   0  0  0  0  0  0  0  0  0  0  0  0
   23.7346    3.0087   60.9611 C   0  0  0  0  0  0  0  0  0  0  0  0
   21.7896    3.7412   60.6559 H   0  0  0  0  0  0  0  0  0  0  0  0
 14 15  2  0  0  0
 14 13  1  0  0  0
 15 16  1  0  0  0
 13 12  2  0  0  0
 16 10  1  0  0  0
 16 17  2  0  0  0
 10  9  2  0  0  0
 12 17  1  0  0  0
 12 11  1  0  0  0
  9  7  1  0  0  0
  7  6  1  0  0  0
  6  1  1  0  0  0
  6  5  2  0  0  0
  1  2  1  0  0  0
  1 18  1  0  0  0
 22 21  2  0  0  0
 22 23  1  0  0  0
 21 20  1  0  0  0
 23 24  2  0  0  0
 20 19  1  0  0  0
 20 25  2  0  0  0
 18 19  1  0  0  0
 24 25  1  0  0  0
 19 27  2  0  0  0
 25 26  1  0  0  0
 27 26  1  0  0  0
 26 28  1  0  0  0
  2  3  1  0  0  0
  2  4  1  0  0  0
  7  8  1  0  0  0
M  END
> <minimizedAffinity>
-8.47116

$$$$
5HCT_61P_A_406


 28 30  0  0  0  0  0  0  0  0999 V2000
   30.1305    6.9554   60.3763 C   0  0  0  0  0  0  0  0  0  0  0  0
   30.9401    7.4414   59.2170 N   0  0  0  0  0  0  0  0  0  0  0  0
   30.3237    7.8752   58.5298 H   0  0  0  0  0  0  0  0  0  0  0  0
   31.4267    6.6542   58.7882 H   0  0  0  0  0  0  0  0  0  0  0  0
   28.5273    6.1155   58.7974 O   0  0  0  0  0  0  0  0  0  0  0  0
   29.1215    5.9317   59.8596 C   0  0  0  0  0  0  0  0  0  0  0  0
   28.9393    4.8520   60.6504 N   0  0  0  0  0  0  0  0  0  0  0  0
   29.4299    4.7781   61.5007 H   0  0  0  0  0  0  0  0  0  0  0  0
   28.0677    3.8526   60.2703 N   0  0  0  0  0  0  0  0  0  0  0  0
   27.0257    3.7534   61.0032 C   0  0  0  0  0  0  0  0  0  0  0  0
   22.2329    2.4563   60.5396 C   0  0  0  0  0  0  0  0  0  0  0  0
   23.6553    2.1026   60.5510 C   0  0  0  0  0  0  0  0  0  0  0  0
   24.0561    0.7888   60.3238 C   0  0  0  0  0  0  0  0  0  0  0  0
   25.3988    0.4553   60.3004 C   0  0  0  0  0  0  0  0  0  0  0  0
   26.3599    1.4265   60.5148 C   0  0  0  0  0  0  0  0  0  0  0  0
   25.9933    2.7478   60.7616 C   0  0  0  0  0  0  0  0  0  0  0  0
   24.6345    3.0774   60.7706 C   0  0  0  0  0  0  0  0  0  0  0  0
   29.4216    8.1077   61.1008 C   0  0  0  0  0  0  0  0  0  0  0  0
   30.2913    8.8789   62.0561 C   0  0  0  0  0  0  0  0  0  0  0  0
   30.5691   10.2913   62.0361 C   0  0  0  0  0  0  0  0  0  0  0  0
   30.1991   11.3435   61.2043 C   0  0  0  0  0  0  0  0  0  0  0  0
   30.6439   12.6296   61.4775 C   0  0  0  0  0  0  0  0  0  0  0  0
   31.4604   12.8826   62.5725 C   0  0  0  0  0  0  0  0  0  0  0  0
   31.8466   11.8539   63.4170 C   0  0  0  0  0  0  0  0  0  0  0  0
   31.3934   10.5662   63.1425 C   0  0  0  0  0  0  0  0  0  0  0  0
   31.6100    9.3808   63.8014 N   0  0  0  0  0  0  0  0  0  0  0  0
   30.9475    8.3780   63.1439 C   0  0  0  0  0  0  0  0  0  0  0  0
   32.1535    9.2696   64.6148 H   0  0  0  0  0  0  0  0  0  0  0  0
 14 15  2  0  0  0
 14 13  1  0  0  0
 15 16  1  0  0  0
 13 12  2  0  0  0
 16 10  1  0  0  0
 16 17  2  0  0  0
 10  9  2  0  0  0
 12 17  1  0  0  0
 12 11  1  0  0  0
  9  7  1  0  0  0
  7  6  1  0  0  0
  6  1  1  0  0  0
  6  5  2  0  0  0
  1  2  1  0  0  0
  1 18  1  0  0  0
 22 21  2  0  0  0
 22 23  1  0  0  0
 21 20  1  0  0  0
 23 24  2  0  0  0
 20 19  1  0  0  0
 20 25  2  0  0  0
 18 19  1  0  0  0
 24 25  1  0  0  0
 19 27  2  0  0  0
 25 26  1  0  0  0
 27 26  1  0  0  0
 26 28  1  0  0  0
  2  3  1  0  0  0
  2  4  1  0  0  0
  7  8  1  0  0  0
M  END
> <minimizedAffinity>
-8.41327

$$$$
5HCT_61P_A_406


 28 30  0  0  0  0  0  0  0  0999 V2000
   30.0511    6.7278   60.3840 C   0  0  0  0  0  0  0  0  0  0  0  0
   30.8709    7.2768   59.2605 N   0  0  0  0  0  0  0  0  0  0  0  0
   30.2561    7.7064   58.5692 H   0  0  0  0  0  0  0  0  0  0  0  0
   31.3982    6.5209   58.8234 H   0  0  0  0  0  0  0  0  0  0  0  0
   28.8292    5.6637   58.6111 O   0  0  0  0  0  0  0  0  0  0  0  0
   29.0957    5.6819   59.8126 C   0  0  0  0  0  0  0  0  0  0  0  0
   28.5806    4.8180   60.7141 N   0  0  0  0  0  0  0  0  0  0  0  0
   28.8173    4.9028   61.6660 H   0  0  0  0  0  0  0  0  0  0  0  0
   27.7239    3.8172   60.3052 N   0  0  0  0  0  0  0  0  0  0  0  0
   26.7196    3.6346   61.0740 C   0  0  0  0  0  0  0  0  0  0  0  0
   21.9572    2.2555   60.5396 C   0  0  0  0  0  0  0  0  0  0  0  0
   23.3856    1.9276   60.5644 C   0  0  0  0  0  0  0  0  0  0  0  0
   23.8131    0.6238   60.3284 C   0  0  0  0  0  0  0  0  0  0  0  0
   25.1618    0.3151   60.3176 C   0  0  0  0  0  0  0  0  0  0  0  0
   26.1024    1.3013   60.5535 C   0  0  0  0  0  0  0  0  0  0  0  0
   25.7087    2.6130   60.8097 C   0  0  0  0  0  0  0  0  0  0  0  0
   24.3442    2.9177   60.8058 C   0  0  0  0  0  0  0  0  0  0  0  0
   29.2800    7.8315   61.1206 C   0  0  0  0  0  0  0  0  0  0  0  0
   29.9436    9.1817   61.1012 C   0  0  0  0  0  0  0  0  0  0  0  0
   29.7726   10.2231   60.1221 C   0  0  0  0  0  0  0  0  0  0  0  0
   29.0338   10.3435   58.9492 C   0  0  0  0  0  0  0  0  0  0  0  0
   29.0830   11.5232   58.2195 C   0  0  0  0  0  0  0  0  0  0  0  0
   29.8659   12.5896   58.6430 C   0  0  0  0  0  0  0  0  0  0  0  0
   30.6139   12.4976   59.8059 C   0  0  0  0  0  0  0  0  0  0  0  0
   30.5572   11.3143   60.5379 C   0  0  0  0  0  0  0  0  0  0  0  0
   31.1777   10.9549   61.7092 N   0  0  0  0  0  0  0  0  0  0  0  0
   30.8050    9.6781   62.0373 C   0  0  0  0  0  0  0  0  0  0  0  0
   31.7912   11.5230   62.2291 H   0  0  0  0  0  0  0  0  0  0  0  0
 14 15  2  0  0  0
 14 13  1  0  0  0
 15 16  1  0  0  0
 13 12  2  0  0  0
 16 10  1  0  0  0
 16 17  2  0  0  0
 10  9  2  0  0  0
 12 17  1  0  0  0
 12 11  1  0  0  0
  9  7  1  0  0  0
  7  6  1  0  0  0
  6  1  1  0  0  0
  6  5  2  0  0  0
  1  2  1  0  0  0
  1 18  1  0  0  0
 22 21  2  0  0  0
 22 23  1  0  0  0
 21 20  1  0  0  0
 23 24  2  0  0  0
 20 19  1  0  0  0
 20 25  2  0  0  0
 18 19  1  0  0  0
 24 25  1  0  0  0
 19 27  2  0  0  0
 25 26  1  0  0  0
 27 26  1  0  0  0
 26 28  1  0  0  0
  2  3  1  0  0  0
  2  4  1  0  0  0
  7  8  1  0  0  0
M  END
> <minimizedAffinity>
-8.40703

$$$$
