4P6X_HCY_A_900


 29 32  0  0  0  0  0  0  0  0999 V2000
    4.0829   32.6630   -4.1305 C   0  0  0  0  0  0  0  0  0  0  0  0
    4.3248   33.2282   -2.7333 C   0  0  0  0  0  0  0  0  0  0  0  0
    5.3996   34.2946   -2.7490 C   0  0  0  0  0  0  0  0  0  0  0  0
    5.7205   35.0215   -3.9811 C   0  0  0  0  0  0  0  0  0  0  0  0
    5.1200   34.7446   -5.1446 C   0  0  0  0  0  0  0  0  0  0  0  0
    5.4480   35.6326   -6.3109 C   0  0  0  0  0  0  0  0  0  0  0  0
    5.7439   34.8247   -7.5540 C   0  0  0  0  0  0  0  0  0  0  0  0
    4.7496   33.6902   -7.7757 C   0  0  0  0  0  0  0  0  0  0  0  0
    4.5235   32.8150   -6.5379 C   0  0  0  0  0  0  0  0  0  0  0  0
    4.0893   33.6310   -5.2979 C   0  0  0  0  0  0  0  0  0  0  0  0
    4.1885   30.7856   -8.0484 C   0  0  0  0  0  0  0  0  0  0  0  0
    3.6763   31.5379   -6.8080 C   0  0  0  0  0  0  0  0  0  0  0  0
    4.4277   31.6595   -9.2804 C   0  0  0  0  0  0  0  0  0  0  0  0
    5.3258   32.8195   -8.8725 C   0  0  0  0  0  0  0  0  0  0  0  0
    5.6425   33.4930  -10.1794 C   0  0  0  0  0  0  0  0  0  0  0  0
    5.6605   32.3738  -11.2116 C   0  0  0  0  0  0  0  0  0  0  0  0
    5.2454   31.1239  -10.4837 C   0  0  0  0  0  0  0  0  0  0  0  0
    3.0805   32.1578   -9.8084 C   0  0  0  0  0  0  0  0  0  0  0  0
    2.7275   34.3094   -5.4880 C   0  0  0  0  0  0  0  0  0  0  0  0
    6.0251   34.5576   -1.7366 O   0  0  0  0  0  0  0  0  0  0  0  0
    2.2535   31.7596   -6.9226 O   0  0  0  0  0  0  0  0  0  0  0  0
    6.4613   30.4795  -10.0535 O   0  0  0  0  0  0  0  0  0  0  0  0
    2.0727   32.3006   -7.7072 H   0  0  0  0  0  0  0  0  0  0  0  0
    6.9365   31.0620   -9.4406 H   0  0  0  0  0  0  0  0  0  0  0  0
    4.5434   30.1749  -11.4363 C   0  0  0  0  0  0  0  0  0  0  0  0
    4.2393   30.5042  -12.5781 O   0  0  0  0  0  0  0  0  0  0  0  0
    4.2027   28.8115  -10.9331 C   0  0  0  0  0  0  0  0  0  0  0  0
    2.7968   28.6110  -10.9924 O   0  0  0  0  0  0  0  0  0  0  0  0
    2.3522   29.2731  -10.4403 H   0  0  0  0  0  0  0  0  0  0  0  0
 20  3  2  0  0  0
  3  4  1  0  0  0
  3  2  1  0  0  0
  4  5  2  0  0  0
  5  6  1  0  0  0
  5 10  1  0  0  0
  6  7  1  0  0  0
  7  8  1  0  0  0
  2  1  1  0  0  0
  1 10  1  0  0  0
 10 19  1  0  0  0
 10  9  1  0  0  0
  9  8  1  0  0  0
  9 12  1  0  0  0
  8 14  1  0  0  0
 12 21  1  0  0  0
 12 11  1  0  0  0
 11 13  1  0  0  0
 13 18  1  0  0  0
 13 14  1  0  0  0
 13 17  1  0  0  0
 14 15  1  0  0  0
 15 16  1  0  0  0
 16 17  1  0  0  0
 17 22  1  0  0  0
 17 25  1  0  0  0
 25 26  2  0  0  0
 25 27  1  0  0  0
 27 28  1  0  0  0
 21 23  1  0  0  0
 22 24  1  0  0  0
 28 29  1  0  0  0
M  END
> <minimizedAffinity>
-12.27963

$$$$
4P6X_HCY_A_900


 29 32  0  0  0  0  0  0  0  0999 V2000
    5.2221   29.7591   -9.2451 C   0  0  0  0  0  0  0  0  0  0  0  0
    4.9747   28.9522  -10.5170 C   0  0  0  0  0  0  0  0  0  0  0  0
    3.5455   29.1010  -10.9944 C   0  0  0  0  0  0  0  0  0  0  0  0
    2.7387   30.2612  -10.6040 C   0  0  0  0  0  0  0  0  0  0  0  0
    3.2065   31.2047   -9.7782 C   0  0  0  0  0  0  0  0  0  0  0  0
    2.3307   32.4023   -9.5434 C   0  0  0  0  0  0  0  0  0  0  0  0
    2.2414   32.7411   -8.0728 C   0  0  0  0  0  0  0  0  0  0  0  0
    3.5934   32.6943   -7.3693 C   0  0  0  0  0  0  0  0  0  0  0  0
    4.3854   31.4095   -7.6361 C   0  0  0  0  0  0  0  0  0  0  0  0
    4.5918   31.1346   -9.1441 C   0  0  0  0  0  0  0  0  0  0  0  0
    5.3618   31.5363   -5.2818 C   0  0  0  0  0  0  0  0  0  0  0  0
    5.6655   31.2587   -6.7642 C   0  0  0  0  0  0  0  0  0  0  0  0
    4.5597   32.8108   -5.0147 C   0  0  0  0  0  0  0  0  0  0  0  0
    3.3100   32.7761   -5.8840 C   0  0  0  0  0  0  0  0  0  0  0  0
    2.5193   33.9633   -5.4071 C   0  0  0  0  0  0  0  0  0  0  0  0
    2.8484   34.0938   -3.9263 C   0  0  0  0  0  0  0  0  0  0  0  0
    3.8956   33.0532   -3.6350 C   0  0  0  0  0  0  0  0  0  0  0  0
    5.4306   34.0263   -5.3404 C   0  0  0  0  0  0  0  0  0  0  0  0
    5.4471   32.2091   -9.8257 C   0  0  0  0  0  0  0  0  0  0  0  0
    3.0382   28.2493  -11.7033 O   0  0  0  0  0  0  0  0  0  0  0  0
    6.7938   32.0538   -7.1901 O   0  0  0  0  0  0  0  0  0  0  0  0
    3.1907   31.8834   -3.1732 O   0  0  0  0  0  0  0  0  0  0  0  0
    6.5821   32.9952   -7.0902 H   0  0  0  0  0  0  0  0  0  0  0  0
    2.6065   31.5592   -3.8765 H   0  0  0  0  0  0  0  0  0  0  0  0
    4.7912   33.5178   -2.5024 C   0  0  0  0  0  0  0  0  0  0  0  0
    5.0707   32.7929   -1.5532 O   0  0  0  0  0  0  0  0  0  0  0  0
    5.3152   34.9144   -2.5593 C   0  0  0  0  0  0  0  0  0  0  0  0
    5.4606   35.4307   -1.2430 O   0  0  0  0  0  0  0  0  0  0  0  0
    4.5980   35.4334   -0.7996 H   0  0  0  0  0  0  0  0  0  0  0  0
 20  3  2  0  0  0
  3  4  1  0  0  0
  3  2  1  0  0  0
  4  5  2  0  0  0
  5  6  1  0  0  0
  5 10  1  0  0  0
  6  7  1  0  0  0
  7  8  1  0  0  0
  2  1  1  0  0  0
  1 10  1  0  0  0
 10 19  1  0  0  0
 10  9  1  0  0  0
  9  8  1  0  0  0
  9 12  1  0  0  0
  8 14  1  0  0  0
 12 21  1  0  0  0
 12 11  1  0  0  0
 11 13  1  0  0  0
 13 18  1  0  0  0
 13 14  1  0  0  0
 13 17  1  0  0  0
 14 15  1  0  0  0
 15 16  1  0  0  0
 16 17  1  0  0  0
 17 22  1  0  0  0
 17 25  1  0  0  0
 25 26  2  0  0  0
 25 27  1  0  0  0
 27 28  1  0  0  0
 21 23  1  0  0  0
 22 24  1  0  0  0
 28 29  1  0  0  0
M  END
> <minimizedAffinity>
-9.29662

$$$$
