4P6X_HCY_A_900
  RCSB PDB12061714103D
Coordinates from PDB:4P6X:A:900 Model:1 without hydrogens
 26 29  0  0  0  0            999 V2000
    3.7200   32.2140   -3.7650   C 0  0  0  0  0  0  0  0  0  0  0  0
    3.9320   32.6580   -2.3200   C 0  0  0  0  0  0  0  0  0  0  0  0
    5.0250   33.7010   -2.2190   C 0  0  0  0  0  0  0  0  0  0  0  0
    5.3930   34.5200   -3.3780   C 0  0  0  0  0  0  0  0  0  0  0  0
    4.8210   34.3510   -4.5760   C 0  0  0  0  0  0  0  0  0  0  0  0
    5.1970   35.3250   -5.6560   C 0  0  0  0  0  0  0  0  0  0  0  0
    5.5140   34.6160   -6.9530   C 0  0  0  0  0  0  0  0  0  0  0  0
    4.5070   33.5230   -7.2940   C 0  0  0  0  0  0  0  0  0  0  0  0
    4.2310   32.5540   -6.1390   C 0  0  0  0  0  0  0  0  0  0  0  0
    3.7760   33.2740   -4.8480   C 0  0  0  0  0  0  0  0  0  0  0  0
    3.9040   30.6620   -7.8200   C 0  0  0  0  0  0  0  0  0  0  0  0
    3.3700   31.3200   -6.5360   C 0  0  0  0  0  0  0  0  0  0  0  0
    4.1930   31.6290   -8.9690   C 0  0  0  0  0  0  0  0  0  0  0  0
    5.0990   32.7340   -8.4430   C 0  0  0  0  0  0  0  0  0  0  0  0
    5.4640   33.5060   -9.6810   C 0  0  0  0  0  0  0  0  0  0  0  0
    5.4920   32.4750  -10.8010   C 0  0  0  0  0  0  0  0  0  0  0  0
    5.0350   31.1780  -10.1900   C 0  0  0  0  0  0  0  0  0  0  0  0
    2.8700   32.1950   -9.4900   C 0  0  0  0  0  0  0  0  0  0  0  0
    2.4320   33.9920   -5.0180   C 0  0  0  0  0  0  0  0  0  0  0  0
    4.3440   30.3240  -11.2360   C 0  0  0  0  0  0  0  0  0  0  0  0
    3.9710   28.9290  -10.8580   C 0  0  0  0  0  0  0  0  0  0  0  0
    5.6260   33.8680   -1.1720   O 0  0  0  0  0  0  0  0  0  0  0  0
    1.9550   31.5780   -6.6700   O 0  0  0  0  0  0  0  0  0  0  0  0
    6.2270   30.4770   -9.7820   O 0  0  0  0  0  0  0  0  0  0  0  0
    4.0740   30.7530  -12.3530   O 0  0  0  0  0  0  0  0  0  0  0  0
    3.2460   28.3180  -11.9170   O 0  0  0  0  0  0  0  0  0  0  0  0
 22  3  2  0  0  0  0
  3  4  1  0  0  0  0
  3  2  1  0  0  0  0
  4  5  2  0  0  0  0
  5  6  1  0  0  0  0
  5 10  1  0  0  0  0
  6  7  1  0  0  0  0
  7  8  1  0  0  0  0
  2  1  1  0  0  0  0
  1 10  1  0  0  0  0
 10 19  1  0  0  0  0
 10  9  1  0  0  0  0
  9  8  1  0  0  0  0
  9 12  1  0  0  0  0
  8 14  1  0  0  0  0
 12 23  1  0  0  0  0
 12 11  1  0  0  0  0
 11 13  1  0  0  0  0
 13 18  1  0  0  0  0
 13 14  1  0  0  0  0
 13 17  1  0  0  0  0
 14 15  1  0  0  0  0
 15 16  1  0  0  0  0
 16 17  1  0  0  0  0
 17 24  1  0  0  0  0
 17 20  1  0  0  0  0
 20 25  2  0  0  0  0
 20 21  1  0  0  0  0
 21 26  1  0  0  0  0
A    1
C1
A    2
C2
A    3
C3
A    4
C4
A    5
C5
A    6
C6
A    7
C7
A    8
C8
A    9
C9
A   10
C10
A   11
C12
A   12
C11
A   13
C13
A   14
C14
A   15
C15
A   16
C16
A   17
C17
A   18
C18
A   19
C19
A   20
C20
A   21
C21
A   22
O1
A   23
O2
A   24
O3
A   25
O4
A   26
O5
M  END
>  <InstanceId>
4P6X_HCY_A_900

>  <ChemCompId>
HCY

>  <PdbId>
4P6X

>  <ChainId>
A

>  <ResidueNumber>
900

>  <InsertionCode>


>  <Model>
1

>  <AltIds>


>  <MissingHeavyAtoms>
0

>  <ObservedFormula>
C21 O5

>  <Name>
(11alpha,14beta)-11,17,21-trihydroxypregn-4-ene-3,20-dione

>  <SystematicName>
(8S,9S,10R,11S,13S,14S,17R)-11,17-dihydroxy-17-(2-hydroxyethanoyl)-10,13-dimethyl-2,6,7,8,9,11,12,14,15,16-decahydro-1H-cyclopenta[a]phenanthren-3-one

>  <Synonyms>
CORTISOL

>  <Type>
non-polymer

>  <Formula>
C21 H30 O5

>  <MolecularWeight>
362.46

>  <ModifiedDate>
2011-06-04

>  <Parent>


>  <OneLetterCode>


>  <SubcomponentList>


>  <AmbiguousFlag>


>  <InChI>
InChI=1S/C21H30O5/c1-19-7-5-13(23)9-12(19)3-4-14-15-6-8-21(26,17(25)11-22)20(15,2)10-16(24)18(14)19/h9,14-16,18,22,24,26H,3-8,10-11H2,1-2H3/t14-,15-,16-,18+,19-,20-,21-/m0/s1

>  <InChIKey>
JYGXADMDTFJGBT-VWUMJDOOSA-N

>  <SMILES>
C[C@]12CCC(=O)C=C1CC[C@@H]3[C@@H]2[C@H](C[C@]4([C@H]3CC[C@@]4(C(=O)CO)O)C)O

$$$$
