4MHY_PBD_A_401
  RCSB PDB12061713443D
Coordinates from PDB:4MHY:A:401 Model:1 without hydrogens
 22 23  0  0  0  0            999 V2000
  -22.3590   17.8230   -0.5950   C 0  0  0  0  0  0  0  0  0  0  0  0
  -25.3260   17.9570   -5.1250   C 0  0  0  0  0  0  0  0  0  0  0  0
  -21.7510   23.9310   -6.9020   S 0  0  0  0  0  0  0  0  0  0  0  0
  -15.2720   17.9050   -6.6260   C 0  0  0  0  0  0  0  0  0  0  0  0
  -22.0810   21.1700   -3.0850   C 0  0  0  0  0  0  0  0  0  0  0  0
  -22.1640   20.0800   -2.2160   C 0  0  0  0  0  0  0  0  0  0  0  0
  -16.1350   18.7000   -7.2610   C 0  0  0  0  0  0  0  0  0  0  0  0
  -15.4560   19.7320   -5.4880   C 0  0  0  0  0  0  0  0  0  0  0  0
  -23.7600   20.1760   -4.5240   C 0  0  0  0  0  0  0  0  0  0  0  0
  -18.4770   20.7570   -6.2550   C 0  0  0  0  0  0  0  0  0  0  0  0
  -19.3620   21.9930   -6.4270   C 0  0  0  0  0  0  0  0  0  0  0  0
  -17.0870   20.9810   -6.8630   C 0  0  0  0  0  0  0  0  0  0  0  0
  -14.8570   18.5360   -5.5220   N 0  0  0  0  0  0  0  0  0  0  0  0
  -20.6230   21.7760   -5.6880   N 0  0  0  0  0  0  0  0  0  0  0  0
  -22.8210   22.2580   -5.0870   N 0  0  0  0  0  0  0  0  0  0  0  0
  -23.2180   17.9280   -1.7340   O 0  0  0  0  0  0  0  0  0  0  0  0
  -24.6780   18.0140   -3.8480   O 0  0  0  0  0  0  0  0  0  0  0  0
  -21.7210   22.5460   -5.8220   C 0  0  0  0  0  0  0  0  0  0  0  0
  -22.8680   21.2150   -4.2440   C 0  0  0  0  0  0  0  0  0  0  0  0
  -23.0510   19.0380   -2.5100   C 0  0  0  0  0  0  0  0  0  0  0  0
  -23.8430   19.0830   -3.6570   C 0  0  0  0  0  0  0  0  0  0  0  0
  -16.2410   19.8290   -6.5560   N 0  0  0  0  0  0  0  0  0  0  0  0
  1 16  1  0  0  0  0
  2 17  1  0  0  0  0
  3 18  2  0  0  0  0
  4  7  2  0  0  0  0
  4 13  1  0  0  0  0
  5  6  2  0  0  0  0
  5 19  1  0  0  0  0
  6 20  1  0  0  0  0
  7 22  1  0  0  0  0
  8 13  2  0  0  0  0
  8 22  1  0  0  0  0
  9 19  2  0  0  0  0
  9 21  1  0  0  0  0
 10 11  1  0  0  0  0
 10 12  1  0  0  0  0
 11 14  1  0  0  0  0
 12 22  1  0  0  0  0
 14 18  1  0  0  0  0
 15 18  1  0  0  0  0
 15 19  1  0  0  0  0
 16 20  1  0  0  0  0
 17 21  1  0  0  0  0
 20 21  2  0  0  0  0
A    1
CAA
A    2
CAB
A    3
SAC
A    4
CAD
A    5
CAE
A    6
CAF
A    7
CAG
A    8
CAH
A    9
CAI
A   10
CAJ
A   11
CAK
A   12
CAL
A   13
NAM
A   14
NAN
A   15
NAO
A   16
OAP
A   17
OAQ
A   18
CAR
A   19
CAS
A   20
CAT
A   21
CAU
A   22
NAV
M  END
>  <InstanceId>
4MHY_PBD_A_401

>  <ChemCompId>
PBD

>  <PdbId>
4MHY

>  <ChainId>
A

>  <ResidueNumber>
401

>  <InsertionCode>


>  <Model>
1

>  <AltIds>


>  <MissingHeavyAtoms>
0

>  <ObservedFormula>
C15 N4 O2 S

>  <Name>
1-(3,4-dimethoxyphenyl)-3-[3-(1H-imidazol-1-yl)propyl]thiourea

>  <SystematicName>
1-(3,4-dimethoxyphenyl)-3-(3-imidazol-1-ylpropyl)thiourea

>  <Synonyms>


>  <Type>
NON-POLYMER

>  <Formula>
C15 H20 N4 O2 S

>  <MolecularWeight>
320.41

>  <ModifiedDate>
2011-06-04

>  <Parent>


>  <OneLetterCode>


>  <SubcomponentList>


>  <AmbiguousFlag>
N

>  <InChI>
InChI=1S/C15H20N4O2S/c1-20-13-5-4-12(10-14(13)21-2)18-15(22)17-6-3-8-19-9-7-16-11-19/h4-5,7,9-11H,3,6,8H2,1-2H3,(H2,17,18,22)

>  <InChIKey>
FZQXMGLQANXZRP-UHFFFAOYSA-N

>  <SMILES>
COc1ccc(cc1OC)NC(=S)NCCCn2ccnc2

$$$$
