4MHY_PBD_A_401


 24 25  0  0  0  0  0  0  0  0999 V2000
  -21.5125   22.2417   -6.6239 N   0  0  0  0  0  0  0  0  0  0  0  0
  -21.5757   21.8703   -7.5334 H   0  0  0  0  0  0  0  0  0  0  0  0
  -21.6193   21.5875   -4.3217 C   0  0  0  0  0  0  0  0  0  0  0  0
  -22.3065   20.9381   -3.2940 C   0  0  0  0  0  0  0  0  0  0  0  0
  -23.3716   21.0008   -5.8911 C   0  0  0  0  0  0  0  0  0  0  0  0
  -22.1430   21.6103   -5.6217 C   0  0  0  0  0  0  0  0  0  0  0  0
  -23.5304   20.3198   -3.5749 C   0  0  0  0  0  0  0  0  0  0  0  0
  -24.0600   20.3482   -4.8647 C   0  0  0  0  0  0  0  0  0  0  0  0
  -23.7655   18.4141   -2.1837 C   0  0  0  0  0  0  0  0  0  0  0  0
  -24.2888   19.6605   -2.6517 O   0  0  0  0  0  0  0  0  0  0  0  0
  -25.2283   18.5150   -5.8116 C   0  0  0  0  0  0  0  0  0  0  0  0
  -25.2637   19.7155   -5.0297 O   0  0  0  0  0  0  0  0  0  0  0  0
  -21.6220   24.8441   -5.9504 S   0  0  0  0  0  0  0  0  0  0  0  0
  -20.7924   23.3715   -6.4285 C   0  0  0  0  0  0  0  0  0  0  0  0
  -19.4541   23.3308   -6.5830 N   0  0  0  0  0  0  0  0  0  0  0  0
  -19.0857   23.5482   -7.4698 H   0  0  0  0  0  0  0  0  0  0  0  0
  -18.5047   22.9808   -5.5063 C   0  0  0  0  0  0  0  0  0  0  0  0
  -17.5030   21.9612   -6.0517 C   0  0  0  0  0  0  0  0  0  0  0  0
  -17.9953   20.5259   -5.8289 C   0  0  0  0  0  0  0  0  0  0  0  0
  -15.6776   17.8677   -6.4410 C   0  0  0  0  0  0  0  0  0  0  0  0
  -16.9158   18.3631   -6.4805 C   0  0  0  0  0  0  0  0  0  0  0  0
  -15.6172   19.8759   -5.6468 C   0  0  0  0  0  0  0  0  0  0  0  0
  -14.8721   18.7975   -5.9157 N   0  0  0  0  0  0  0  0  0  0  0  0
  -16.8715   19.6055   -5.9932 N   0  0  0  0  0  0  0  0  0  0  0  0
  9 10  1  0  0  0
 11 12  1  0  0  0
 13 14  2  0  0  0
 20 21  2  0  0  0
 20 23  1  0  0  0
  3  4  2  0  0  0
  3  6  1  0  0  0
  4  7  1  0  0  0
 21 24  1  0  0  0
 22 23  2  0  0  0
 22 24  1  0  0  0
  5  6  2  0  0  0
  5  8  1  0  0  0
 18 17  1  0  0  0
 18 19  1  0  0  0
 17 15  1  0  0  0
 19 24  1  0  0  0
 15 14  1  0  0  0
  1 14  1  0  0  0
  1  6  1  0  0  0
 10  7  1  0  0  0
 12  8  1  0  0  0
  7  8  2  0  0  0
 15 16  1  0  0  0
  1  2  1  0  0  0
M  END
> <minimizedAffinity>
-6.28739

$$$$
4MHY_PBD_A_401


 24 25  0  0  0  0  0  0  0  0999 V2000
  -18.9393   23.3191   -3.0533 N   0  0  0  0  0  0  0  0  0  0  0  0
  -19.4641   22.5271   -2.7953 H   0  0  0  0  0  0  0  0  0  0  0  0
  -16.5672   23.0706   -2.8276 C   0  0  0  0  0  0  0  0  0  0  0  0
  -15.3937   23.3757   -2.1349 C   0  0  0  0  0  0  0  0  0  0  0  0
  -17.8552   24.4220   -1.2808 C   0  0  0  0  0  0  0  0  0  0  0  0
  -17.7990   23.5820   -2.3965 C   0  0  0  0  0  0  0  0  0  0  0  0
  -15.4603   24.2079   -1.0116 C   0  0  0  0  0  0  0  0  0  0  0  0
  -16.6823   24.7268   -0.5846 C   0  0  0  0  0  0  0  0  0  0  0  0
  -13.6039   23.5063    0.2862 C   0  0  0  0  0  0  0  0  0  0  0  0
  -14.3812   24.5751   -0.2613 O   0  0  0  0  0  0  0  0  0  0  0  0
  -17.2866   25.0155    1.6899 C   0  0  0  0  0  0  0  0  0  0  0  0
  -16.6347   25.5317    0.5227 O   0  0  0  0  0  0  0  0  0  0  0  0
  -20.6235   25.3104   -3.7139 S   0  0  0  0  0  0  0  0  0  0  0  0
  -19.3936   24.1044   -4.0583 C   0  0  0  0  0  0  0  0  0  0  0  0
  -18.8729   23.9563   -5.2926 N   0  0  0  0  0  0  0  0  0  0  0  0
  -18.3117   24.6837   -5.6464 H   0  0  0  0  0  0  0  0  0  0  0  0
  -19.0907   22.7717   -6.1485 C   0  0  0  0  0  0  0  0  0  0  0  0
  -17.8128   21.9306   -6.1516 C   0  0  0  0  0  0  0  0  0  0  0  0
  -18.0827   20.5096   -5.6420 C   0  0  0  0  0  0  0  0  0  0  0  0
  -15.6126   18.0676   -6.5063 C   0  0  0  0  0  0  0  0  0  0  0  0
  -16.8797   18.4849   -6.4912 C   0  0  0  0  0  0  0  0  0  0  0  0
  -15.6664   19.9983   -5.5388 C   0  0  0  0  0  0  0  0  0  0  0  0
  -14.8593   18.9971   -5.9083 N   0  0  0  0  0  0  0  0  0  0  0  0
  -16.9061   19.6802   -5.8966 N   0  0  0  0  0  0  0  0  0  0  0  0
  9 10  1  0  0  0
 11 12  1  0  0  0
 13 14  2  0  0  0
 20 21  2  0  0  0
 20 23  1  0  0  0
  3  4  2  0  0  0
  3  6  1  0  0  0
  4  7  1  0  0  0
 21 24  1  0  0  0
 22 23  2  0  0  0
 22 24  1  0  0  0
  5  6  2  0  0  0
  5  8  1  0  0  0
 18 17  1  0  0  0
 18 19  1  0  0  0
 17 15  1  0  0  0
 19 24  1  0  0  0
 15 14  1  0  0  0
  1 14  1  0  0  0
  1  6  1  0  0  0
 10  7  1  0  0  0
 12  8  1  0  0  0
  7  8  2  0  0  0
 15 16  1  0  0  0
  1  2  1  0  0  0
M  END
> <minimizedAffinity>
-6.28191

$$$$
4MHY_PBD_A_401


 24 25  0  0  0  0  0  0  0  0999 V2000
  -20.8077   22.0382   -3.7791 N   0  0  0  0  0  0  0  0  0  0  0  0
  -20.2753   21.5138   -3.1382 H   0  0  0  0  0  0  0  0  0  0  0  0
  -22.1683   21.5993   -5.7015 C   0  0  0  0  0  0  0  0  0  0  0  0
  -23.2952   20.9870   -6.2541 C   0  0  0  0  0  0  0  0  0  0  0  0
  -22.7348   20.7151   -3.5163 C   0  0  0  0  0  0  0  0  0  0  0  0
  -21.8926   21.4750   -4.3328 C   0  0  0  0  0  0  0  0  0  0  0  0
  -24.1401   20.2378   -5.4271 C   0  0  0  0  0  0  0  0  0  0  0  0
  -23.8645   20.1034   -4.0667 C   0  0  0  0  0  0  0  0  0  0  0  0
  -26.3492   20.4322   -6.2664 C   0  0  0  0  0  0  0  0  0  0  0  0
  -25.2644   19.5947   -5.8567 O   0  0  0  0  0  0  0  0  0  0  0  0
  -24.2430   18.1060   -2.8462 C   0  0  0  0  0  0  0  0  0  0  0  0
  -24.7534   19.3470   -3.3496 O   0  0  0  0  0  0  0  0  0  0  0  0
  -21.5175   24.6329   -3.7412 S   0  0  0  0  0  0  0  0  0  0  0  0
  -20.4194   23.3021   -4.0705 C   0  0  0  0  0  0  0  0  0  0  0  0
  -19.1905   23.5083   -4.5841 N   0  0  0  0  0  0  0  0  0  0  0  0
  -18.5496   24.0312   -4.0501 H   0  0  0  0  0  0  0  0  0  0  0  0
  -18.7438   22.9996   -5.8975 C   0  0  0  0  0  0  0  0  0  0  0  0
  -17.6049   22.0032   -5.6729 C   0  0  0  0  0  0  0  0  0  0  0  0
  -18.0984   20.5573   -5.8064 C   0  0  0  0  0  0  0  0  0  0  0  0
  -15.6979   17.9768   -6.4320 C   0  0  0  0  0  0  0  0  0  0  0  0
  -16.9515   18.4322   -6.4672 C   0  0  0  0  0  0  0  0  0  0  0  0
  -15.7003   19.9834   -5.6317 C   0  0  0  0  0  0  0  0  0  0  0  0
  -14.9215   18.9304   -5.9056 N   0  0  0  0  0  0  0  0  0  0  0  0
  -16.9460   19.6739   -5.9761 N   0  0  0  0  0  0  0  0  0  0  0  0
  9 10  1  0  0  0
 11 12  1  0  0  0
 13 14  2  0  0  0
 20 21  2  0  0  0
 20 23  1  0  0  0
  3  4  2  0  0  0
  3  6  1  0  0  0
  4  7  1  0  0  0
 21 24  1  0  0  0
 22 23  2  0  0  0
 22 24  1  0  0  0
  5  6  2  0  0  0
  5  8  1  0  0  0
 18 17  1  0  0  0
 18 19  1  0  0  0
 17 15  1  0  0  0
 19 24  1  0  0  0
 15 14  1  0  0  0
  1 14  1  0  0  0
  1  6  1  0  0  0
 10  7  1  0  0  0
 12  8  1  0  0  0
  7  8  2  0  0  0
 15 16  1  0  0  0
  1  2  1  0  0  0
M  END
> <minimizedAffinity>
-6.07562

$$$$
4MHY_PBD_A_401


 24 25  0  0  0  0  0  0  0  0999 V2000
  -22.9232   21.8308   -4.1582 N   0  0  0  0  0  0  0  0  0  0  0  0
  -23.3000   22.5740   -3.6339 H   0  0  0  0  0  0  0  0  0  0  0  0
  -23.3446   19.8954   -2.8107 C   0  0  0  0  0  0  0  0  0  0  0  0
  -23.9188   18.6288   -2.6839 C   0  0  0  0  0  0  0  0  0  0  0  0
  -24.1535   20.0558   -5.0905 C   0  0  0  0  0  0  0  0  0  0  0  0
  -23.4502   20.6051   -4.0148 C   0  0  0  0  0  0  0  0  0  0  0  0
  -24.6110   18.0808   -3.7700 C   0  0  0  0  0  0  0  0  0  0  0  0
  -24.7268   18.7873   -4.9668 C   0  0  0  0  0  0  0  0  0  0  0  0
  -26.3518   16.7237   -2.9038 C   0  0  0  0  0  0  0  0  0  0  0  0
  -25.2133   16.8563   -3.7596 O   0  0  0  0  0  0  0  0  0  0  0  0
  -26.5796   18.8641   -6.4445 C   0  0  0  0  0  0  0  0  0  0  0  0
  -25.4268   18.1612   -5.9641 O   0  0  0  0  0  0  0  0  0  0  0  0
  -22.1313   23.1866   -6.3429 S   0  0  0  0  0  0  0  0  0  0  0  0
  -21.8916   22.0817   -4.9985 C   0  0  0  0  0  0  0  0  0  0  0  0
  -20.7004   21.4952   -4.7674 N   0  0  0  0  0  0  0  0  0  0  0  0
  -20.6988   20.6047   -4.3477 H   0  0  0  0  0  0  0  0  0  0  0  0
  -19.3966   22.1037   -5.1040 C   0  0  0  0  0  0  0  0  0  0  0  0
  -18.7531   21.2880   -6.2270 C   0  0  0  0  0  0  0  0  0  0  0  0
  -17.2231   21.3765   -6.1704 C   0  0  0  0  0  0  0  0  0  0  0  0
  -16.3647   17.9139   -6.4631 C   0  0  0  0  0  0  0  0  0  0  0  0
  -17.1636   18.9425   -6.7529 C   0  0  0  0  0  0  0  0  0  0  0  0
  -15.5745   19.6684   -5.4811 C   0  0  0  0  0  0  0  0  0  0  0  0
  -15.3852   18.3569   -5.6673 N   0  0  0  0  0  0  0  0  0  0  0  0
  -16.6678   20.0244   -6.1476 N   0  0  0  0  0  0  0  0  0  0  0  0
  9 10  1  0  0  0
 11 12  1  0  0  0
 13 14  2  0  0  0
 20 21  2  0  0  0
 20 23  1  0  0  0
  3  4  2  0  0  0
  3  6  1  0  0  0
  4  7  1  0  0  0
 21 24  1  0  0  0
 22 23  2  0  0  0
 22 24  1  0  0  0
  5  6  2  0  0  0
  5  8  1  0  0  0
 18 17  1  0  0  0
 18 19  1  0  0  0
 17 15  1  0  0  0
 19 24  1  0  0  0
 15 14  1  0  0  0
  1 14  1  0  0  0
  1  6  1  0  0  0
 10  7  1  0  0  0
 12  8  1  0  0  0
  7  8  2  0  0  0
 15 16  1  0  0  0
  1  2  1  0  0  0
M  END
> <minimizedAffinity>
-6.03405

$$$$
4MHY_PBD_A_401


 24 25  0  0  0  0  0  0  0  0999 V2000
  -21.2698   22.3336   -6.5873 N   0  0  0  0  0  0  0  0  0  0  0  0
  -21.1671   21.9668   -7.4950 H   0  0  0  0  0  0  0  0  0  0  0  0
  -23.2153   21.0482   -6.0376 C   0  0  0  0  0  0  0  0  0  0  0  0
  -23.9425   20.3263   -5.0888 C   0  0  0  0  0  0  0  0  0  0  0  0
  -21.4918   21.5082   -4.3957 C   0  0  0  0  0  0  0  0  0  0  0  0
  -21.9974   21.6492   -5.6911 C   0  0  0  0  0  0  0  0  0  0  0  0
  -23.4351   20.2000   -3.7905 C   0  0  0  0  0  0  0  0  0  0  0  0
  -22.2190   20.7882   -3.4439 C   0  0  0  0  0  0  0  0  0  0  0  0
  -24.4355   18.1705   -3.0817 C   0  0  0  0  0  0  0  0  0  0  0  0
  -24.0558   19.5173   -2.7851 O   0  0  0  0  0  0  0  0  0  0  0  0
  -21.6248   21.7968   -1.3819 C   0  0  0  0  0  0  0  0  0  0  0  0
  -21.8132   20.6010   -2.1490 O   0  0  0  0  0  0  0  0  0  0  0  0
  -21.6700   24.9098   -5.9229 S   0  0  0  0  0  0  0  0  0  0  0  0
  -20.6721   23.5108   -6.2872 C   0  0  0  0  0  0  0  0  0  0  0  0
  -19.3262   23.5726   -6.2527 N   0  0  0  0  0  0  0  0  0  0  0  0
  -18.8469   23.6632   -7.1078 H   0  0  0  0  0  0  0  0  0  0  0  0
  -18.5243   23.5130   -5.0130 C   0  0  0  0  0  0  0  0  0  0  0  0
  -17.8512   22.1414   -4.9330 C   0  0  0  0  0  0  0  0  0  0  0  0
  -17.4892   21.6189   -6.3287 C   0  0  0  0  0  0  0  0  0  0  0  0
  -16.1416   18.3029   -6.3068 C   0  0  0  0  0  0  0  0  0  0  0  0
  -17.0870   19.1715   -6.6698 C   0  0  0  0  0  0  0  0  0  0  0  0
  -15.5967   20.2436   -5.5300 C   0  0  0  0  0  0  0  0  0  0  0  0
  -15.2221   18.9606   -5.5920 N   0  0  0  0  0  0  0  0  0  0  0  0
  -16.7427   20.3696   -6.1912 N   0  0  0  0  0  0  0  0  0  0  0  0
  9 10  1  0  0  0
 11 12  1  0  0  0
 13 14  2  0  0  0
 20 21  2  0  0  0
 20 23  1  0  0  0
  3  4  2  0  0  0
  3  6  1  0  0  0
  4  7  1  0  0  0
 21 24  1  0  0  0
 22 23  2  0  0  0
 22 24  1  0  0  0
  5  6  2  0  0  0
  5  8  1  0  0  0
 18 17  1  0  0  0
 18 19  1  0  0  0
 17 15  1  0  0  0
 19 24  1  0  0  0
 15 14  1  0  0  0
  1 14  1  0  0  0
  1  6  1  0  0  0
 10  7  1  0  0  0
 12  8  1  0  0  0
  7  8  2  0  0  0
 15 16  1  0  0  0
  1  2  1  0  0  0
M  END
> <minimizedAffinity>
-6.01585

$$$$
4MHY_PBD_A_401


 24 25  0  0  0  0  0  0  0  0999 V2000
  -18.6057   23.8550   -1.9028 N   0  0  0  0  0  0  0  0  0  0  0  0
  -19.1728   23.1388   -1.5357 H   0  0  0  0  0  0  0  0  0  0  0  0
  -17.5762   25.2662   -0.2633 C   0  0  0  0  0  0  0  0  0  0  0  0
  -16.4338   25.6313    0.4521 C   0  0  0  0  0  0  0  0  0  0  0  0
  -16.3203   23.5545   -1.4339 C   0  0  0  0  0  0  0  0  0  0  0  0
  -17.5196   24.2377   -1.2139 C   0  0  0  0  0  0  0  0  0  0  0  0
  -15.2339   24.9502    0.2171 C   0  0  0  0  0  0  0  0  0  0  0  0
  -15.1752   23.9197   -0.7208 C   0  0  0  0  0  0  0  0  0  0  0  0
  -14.0465   24.9870    2.2692 C   0  0  0  0  0  0  0  0  0  0  0  0
  -14.0591   25.2181    0.8576 O   0  0  0  0  0  0  0  0  0  0  0  0
  -13.4426   23.2830   -2.2091 C   0  0  0  0  0  0  0  0  0  0  0  0
  -13.9537   23.3181   -0.8706 O   0  0  0  0  0  0  0  0  0  0  0  0
  -19.8870   25.9043   -3.0846 S   0  0  0  0  0  0  0  0  0  0  0  0
  -18.9494   24.4189   -3.0848 C   0  0  0  0  0  0  0  0  0  0  0  0
  -18.5427   23.8382   -4.2310 N   0  0  0  0  0  0  0  0  0  0  0  0
  -18.0244   24.3840   -4.8655 H   0  0  0  0  0  0  0  0  0  0  0  0
  -18.8251   22.4345   -4.5958 C   0  0  0  0  0  0  0  0  0  0  0  0
  -17.5494   21.8131   -5.1677 C   0  0  0  0  0  0  0  0  0  0  0  0
  -17.8761   20.7112   -6.1831 C   0  0  0  0  0  0  0  0  0  0  0  0
  -15.6588   17.9090   -6.3925 C   0  0  0  0  0  0  0  0  0  0  0  0
  -16.8685   18.4491   -6.5509 C   0  0  0  0  0  0  0  0  0  0  0  0
  -15.5440   19.9844   -5.8039 C   0  0  0  0  0  0  0  0  0  0  0  0
  -14.8380   18.8537   -5.9202 N   0  0  0  0  0  0  0  0  0  0  0  0
  -16.7903   19.7324   -6.1904 N   0  0  0  0  0  0  0  0  0  0  0  0
  9 10  1  0  0  0
 11 12  1  0  0  0
 13 14  2  0  0  0
 20 21  2  0  0  0
 20 23  1  0  0  0
  3  4  2  0  0  0
  3  6  1  0  0  0
  4  7  1  0  0  0
 21 24  1  0  0  0
 22 23  2  0  0  0
 22 24  1  0  0  0
  5  6  2  0  0  0
  5  8  1  0  0  0
 18 17  1  0  0  0
 18 19  1  0  0  0
 17 15  1  0  0  0
 19 24  1  0  0  0
 15 14  1  0  0  0
  1 14  1  0  0  0
  1  6  1  0  0  0
 10  7  1  0  0  0
 12  8  1  0  0  0
  7  8  2  0  0  0
 15 16  1  0  0  0
  1  2  1  0  0  0
M  END
> <minimizedAffinity>
-6.01142

$$$$
4MHY_PBD_A_401


 24 25  0  0  0  0  0  0  0  0999 V2000
  -15.4191   23.4970   -1.6638 N   0  0  0  0  0  0  0  0  0  0  0  0
  -14.4922   23.6293   -1.9680 H   0  0  0  0  0  0  0  0  0  0  0  0
  -17.6316   23.8332   -2.5190 C   0  0  0  0  0  0  0  0  0  0  0  0
  -18.5932   23.5510   -3.4915 C   0  0  0  0  0  0  0  0  0  0  0  0
  -16.0545   22.3586   -3.6218 C   0  0  0  0  0  0  0  0  0  0  0  0
  -16.3674   23.2304   -2.5750 C   0  0  0  0  0  0  0  0  0  0  0  0
  -18.2758   22.6676   -4.5297 C   0  0  0  0  0  0  0  0  0  0  0  0
  -17.0161   22.0728   -4.5949 C   0  0  0  0  0  0  0  0  0  0  0  0
  -19.6086   23.3942   -6.3513 C   0  0  0  0  0  0  0  0  0  0  0  0
  -19.1326   22.3212   -5.5338 O   0  0  0  0  0  0  0  0  0  0  0  0
  -15.7083   20.3207   -5.5125 C   0  0  0  0  0  0  0  0  0  0  0  0
  -16.8093   21.2274   -5.6527 O   0  0  0  0  0  0  0  0  0  0  0  0
  -15.8044   25.1792    0.4000 S   0  0  0  0  0  0  0  0  0  0  0  0
  -15.6919   23.5906   -0.3410 C   0  0  0  0  0  0  0  0  0  0  0  0
  -15.8935   22.4624    0.3682 N   0  0  0  0  0  0  0  0  0  0  0  0
  -16.1956   21.6608   -0.1170 H   0  0  0  0  0  0  0  0  0  0  0  0
  -15.6899   22.3520    1.8276 C   0  0  0  0  0  0  0  0  0  0  0  0
  -14.2032   22.1105    2.0957 C   0  0  0  0  0  0  0  0  0  0  0  0
  -13.6688   23.0725    3.1639 C   0  0  0  0  0  0  0  0  0  0  0  0
  -10.8576   24.3827    1.3770 C   0  0  0  0  0  0  0  0  0  0  0  0
  -11.9413   23.6065    1.4322 C   0  0  0  0  0  0  0  0  0  0  0  0
  -11.7298   24.5955    3.3419 C   0  0  0  0  0  0  0  0  0  0  0  0
  -10.7170   24.9890    2.5610 N   0  0  0  0  0  0  0  0  0  0  0  0
  -12.4787   23.7458    2.6466 N   0  0  0  0  0  0  0  0  0  0  0  0
  9 10  1  0  0  0
 11 12  1  0  0  0
 13 14  2  0  0  0
 20 21  2  0  0  0
 20 23  1  0  0  0
  3  4  2  0  0  0
  3  6  1  0  0  0
  4  7  1  0  0  0
 21 24  1  0  0  0
 22 23  2  0  0  0
 22 24  1  0  0  0
  5  6  2  0  0  0
  5  8  1  0  0  0
 18 17  1  0  0  0
 18 19  1  0  0  0
 17 15  1  0  0  0
 19 24  1  0  0  0
 15 14  1  0  0  0
  1 14  1  0  0  0
  1  6  1  0  0  0
 10  7  1  0  0  0
 12  8  1  0  0  0
  7  8  2  0  0  0
 15 16  1  0  0  0
  1  2  1  0  0  0
M  END
> <minimizedAffinity>
-5.54250

$$$$
4MHY_PBD_A_401


 24 25  0  0  0  0  0  0  0  0999 V2000
  -22.4350   22.5907   -6.1059 N   0  0  0  0  0  0  0  0  0  0  0  0
  -22.5022   23.0488   -6.9747 H   0  0  0  0  0  0  0  0  0  0  0  0
  -24.6148   22.8298   -5.1412 C   0  0  0  0  0  0  0  0  0  0  0  0
  -25.7596   22.2314   -4.6105 C   0  0  0  0  0  0  0  0  0  0  0  0
  -23.6180   20.6494   -5.5016 C   0  0  0  0  0  0  0  0  0  0  0  0
  -23.5394   22.0429   -5.5759 C   0  0  0  0  0  0  0  0  0  0  0  0
  -25.8253   20.8358   -4.5284 C   0  0  0  0  0  0  0  0  0  0  0  0
  -24.7617   20.0484   -4.9686 C   0  0  0  0  0  0  0  0  0  0  0  0
  -27.3663   20.5577   -2.7479 C   0  0  0  0  0  0  0  0  0  0  0  0
  -26.8916   20.1437   -4.0323 O   0  0  0  0  0  0  0  0  0  0  0  0
  -25.3576   18.0153   -6.0333 C   0  0  0  0  0  0  0  0  0  0  0  0
  -24.9305   18.6946   -4.8458 O   0  0  0  0  0  0  0  0  0  0  0  0
  -21.1186   22.9784   -3.7918 S   0  0  0  0  0  0  0  0  0  0  0  0
  -21.2315   22.5359   -5.4880 C   0  0  0  0  0  0  0  0  0  0  0  0
  -20.1553   22.1203   -6.1846 N   0  0  0  0  0  0  0  0  0  0  0  0
  -20.2130   21.2539   -6.6487 H   0  0  0  0  0  0  0  0  0  0  0  0
  -18.8942   22.8821   -6.2964 C   0  0  0  0  0  0  0  0  0  0  0  0
  -17.7340   21.9650   -5.9047 C   0  0  0  0  0  0  0  0  0  0  0  0
  -18.1549   20.4908   -5.9430 C   0  0  0  0  0  0  0  0  0  0  0  0
  -15.6180   18.0099   -6.4141 C   0  0  0  0  0  0  0  0  0  0  0  0
  -16.8859   18.4114   -6.5205 C   0  0  0  0  0  0  0  0  0  0  0  0
  -15.7476   20.0207   -5.6353 C   0  0  0  0  0  0  0  0  0  0  0  0
  -14.9117   18.9997   -5.8568 N   0  0  0  0  0  0  0  0  0  0  0  0
  -16.9590   19.6559   -6.0423 N   0  0  0  0  0  0  0  0  0  0  0  0
  9 10  1  0  0  0
 11 12  1  0  0  0
 13 14  2  0  0  0
 20 21  2  0  0  0
 20 23  1  0  0  0
  3  4  2  0  0  0
  3  6  1  0  0  0
  4  7  1  0  0  0
 21 24  1  0  0  0
 22 23  2  0  0  0
 22 24  1  0  0  0
  5  6  2  0  0  0
  5  8  1  0  0  0
 18 17  1  0  0  0
 18 19  1  0  0  0
 17 15  1  0  0  0
 19 24  1  0  0  0
 15 14  1  0  0  0
  1 14  1  0  0  0
  1  6  1  0  0  0
 10  7  1  0  0  0
 12  8  1  0  0  0
  7  8  2  0  0  0
 15 16  1  0  0  0
  1  2  1  0  0  0
M  END
> <minimizedAffinity>
-5.39752

$$$$
4MHY_PBD_A_401


 24 25  0  0  0  0  0  0  0  0999 V2000
  -21.6261   23.3645   -5.6030 N   0  0  0  0  0  0  0  0  0  0  0  0
  -21.5580   24.1053   -6.2478 H   0  0  0  0  0  0  0  0  0  0  0  0
  -22.7348   21.2641   -5.9168 C   0  0  0  0  0  0  0  0  0  0  0  0
  -23.9123   20.5148   -5.8688 C   0  0  0  0  0  0  0  0  0  0  0  0
  -23.9356   23.2354   -5.1752 C   0  0  0  0  0  0  0  0  0  0  0  0
  -22.7458   22.6253   -5.5824 C   0  0  0  0  0  0  0  0  0  0  0  0
  -25.1018   21.1364   -5.4717 C   0  0  0  0  0  0  0  0  0  0  0  0
  -25.1157   22.4881   -5.1288 C   0  0  0  0  0  0  0  0  0  0  0  0
  -26.6368   19.6275   -6.4664 C   0  0  0  0  0  0  0  0  0  0  0  0
  -26.3081   20.5044   -5.3850 O   0  0  0  0  0  0  0  0  0  0  0  0
  -26.8420   24.0506   -5.5765 C   0  0  0  0  0  0  0  0  0  0  0  0
  -26.3309   22.9957   -4.7520 O   0  0  0  0  0  0  0  0  0  0  0  0
  -20.9006   22.8820   -3.0576 S   0  0  0  0  0  0  0  0  0  0  0  0
  -20.5866   23.1277   -4.7683 C   0  0  0  0  0  0  0  0  0  0  0  0
  -19.3398   23.0632   -5.2760 N   0  0  0  0  0  0  0  0  0  0  0  0
  -19.2421   22.8525   -6.2327 H   0  0  0  0  0  0  0  0  0  0  0  0
  -18.1103   23.2885   -4.4881 C   0  0  0  0  0  0  0  0  0  0  0  0
  -17.1804   22.0891   -4.6816 C   0  0  0  0  0  0  0  0  0  0  0  0
  -17.3444   21.4799   -6.0794 C   0  0  0  0  0  0  0  0  0  0  0  0
  -16.5190   18.0112   -6.3942 C   0  0  0  0  0  0  0  0  0  0  0  0
  -17.3261   19.0423   -6.6499 C   0  0  0  0  0  0  0  0  0  0  0  0
  -15.6720   19.7669   -5.4631 C   0  0  0  0  0  0  0  0  0  0  0  0
  -15.4988   18.4534   -5.6507 N   0  0  0  0  0  0  0  0  0  0  0  0
  -16.7954   20.1250   -6.0763 N   0  0  0  0  0  0  0  0  0  0  0  0
  9 10  1  0  0  0
 11 12  1  0  0  0
 13 14  2  0  0  0
 20 21  2  0  0  0
 20 23  1  0  0  0
  3  4  2  0  0  0
  3  6  1  0  0  0
  4  7  1  0  0  0
 21 24  1  0  0  0
 22 23  2  0  0  0
 22 24  1  0  0  0
  5  6  2  0  0  0
  5  8  1  0  0  0
 18 17  1  0  0  0
 18 19  1  0  0  0
 17 15  1  0  0  0
 19 24  1  0  0  0
 15 14  1  0  0  0
  1 14  1  0  0  0
  1  6  1  0  0  0
 10  7  1  0  0  0
 12  8  1  0  0  0
  7  8  2  0  0  0
 15 16  1  0  0  0
  1  2  1  0  0  0
M  END
> <minimizedAffinity>
-5.38695

$$$$
4MHY_PBD_A_401


 24 25  0  0  0  0  0  0  0  0999 V2000
  -21.0026   22.5546   -4.8219 N   0  0  0  0  0  0  0  0  0  0  0  0
  -21.4319   22.3216   -3.9671 H   0  0  0  0  0  0  0  0  0  0  0  0
  -19.4675   21.2605   -6.1288 C   0  0  0  0  0  0  0  0  0  0  0  0
  -18.1571   20.8384   -6.3634 C   0  0  0  0  0  0  0  0  0  0  0  0
  -18.7250   22.5784   -4.2342 C   0  0  0  0  0  0  0  0  0  0  0  0
  -19.7555   22.1197   -5.0595 C   0  0  0  0  0  0  0  0  0  0  0  0
  -17.1327   21.2928   -5.5249 C   0  0  0  0  0  0  0  0  0  0  0  0
  -17.4132   22.1554   -4.4656 C   0  0  0  0  0  0  0  0  0  0  0  0
  -15.5287   19.5496   -5.6282 C   0  0  0  0  0  0  0  0  0  0  0  0
  -15.8188   20.9500   -5.6603 O   0  0  0  0  0  0  0  0  0  0  0  0
  -16.6492   23.3110   -2.5413 C   0  0  0  0  0  0  0  0  0  0  0  0
  -16.3381   22.5412   -3.7094 O   0  0  0  0  0  0  0  0  0  0  0  0
  -21.0084   24.8245   -6.2660 S   0  0  0  0  0  0  0  0  0  0  0  0
  -21.6913   23.3025   -5.7160 C   0  0  0  0  0  0  0  0  0  0  0  0
  -22.8727   22.8479   -6.1790 N   0  0  0  0  0  0  0  0  0  0  0  0
  -22.8836   22.4051   -7.0582 H   0  0  0  0  0  0  0  0  0  0  0  0
  -24.1524   22.9717   -5.4509 C   0  0  0  0  0  0  0  0  0  0  0  0
  -24.4724   21.6273   -4.7947 C   0  0  0  0  0  0  0  0  0  0  0  0
  -24.3606   20.4773   -5.8031 C   0  0  0  0  0  0  0  0  0  0  0  0
  -25.4126   17.2565   -4.6490 C   0  0  0  0  0  0  0  0  0  0  0  0
  -25.3833   18.2021   -5.5897 C   0  0  0  0  0  0  0  0  0  0  0  0
  -24.2364   18.9059   -3.8989 C   0  0  0  0  0  0  0  0  0  0  0  0
  -24.7123   17.6926   -3.5961 N   0  0  0  0  0  0  0  0  0  0  0  0
  -24.6513   19.2165   -5.1227 N   0  0  0  0  0  0  0  0  0  0  0  0
  9 10  1  0  0  0
 11 12  1  0  0  0
 13 14  2  0  0  0
 20 21  2  0  0  0
 20 23  1  0  0  0
  3  4  2  0  0  0
  3  6  1  0  0  0
  4  7  1  0  0  0
 21 24  1  0  0  0
 22 23  2  0  0  0
 22 24  1  0  0  0
  5  6  2  0  0  0
  5  8  1  0  0  0
 18 17  1  0  0  0
 18 19  1  0  0  0
 17 15  1  0  0  0
 19 24  1  0  0  0
 15 14  1  0  0  0
  1 14  1  0  0  0
  1  6  1  0  0  0
 10  7  1  0  0  0
 12  8  1  0  0  0
  7  8  2  0  0  0
 15 16  1  0  0  0
  1  2  1  0  0  0
M  END
> <minimizedAffinity>
-5.34839

$$$$
