1ZP8_AB2_A_200


 50 54  0  0  0  0  0  0  0  0999 V2000
   -9.5770   15.9816   30.3239 C   0  0  0  0  0  0  0  0  0  0  0  0
  -10.6005   15.1792   29.6542 N   0  0  0  0  0  0  0  0  0  0  0  0
  -10.6895   13.8219   29.4922 C   0  0  0  0  0  0  0  0  0  0  0  0
  -11.8302   13.5734   28.7565 C   0  0  0  0  0  0  0  0  0  0  0  0
  -12.4522   14.7642   28.5503 N   0  0  0  0  0  0  0  0  0  0  0  0
  -11.6910   15.6931   29.0352 N   0  0  0  0  0  0  0  0  0  0  0  0
  -12.3510   12.2229   28.3719 C   0  0  0  0  0  0  0  0  0  0  0  0
  -13.3492   11.8755   29.3233 O   0  0  0  0  0  0  0  0  0  0  0  0
  -13.1429   11.1682   30.4512 C   0  0  0  0  0  0  0  0  0  0  0  0
  -12.6209   10.0759   30.3793 O   0  0  0  0  0  0  0  0  0  0  0  0
  -13.5528   11.7518   31.6006 N   0  0  0  0  0  0  0  0  0  0  0  0
  -14.3824   11.4038   32.0006 H   0  0  0  0  0  0  0  0  0  0  0  0
  -12.8779   12.8688   32.3256 C   0  0  0  0  0  0  0  0  0  0  0  0
  -13.6863   14.1957   32.3963 C   0  0  0  0  0  0  0  0  0  0  0  0
  -13.5000   15.1526   31.3574 O   0  0  0  0  0  0  0  0  0  0  0  0
  -13.4412   14.6836   33.8170 C   0  0  0  0  0  0  0  0  0  0  0  0
  -13.1068   13.4298   34.6330 C   0  0  0  0  0  0  0  0  0  0  0  0
  -13.0865   13.2105   36.0073 C   0  0  0  0  0  0  0  0  0  0  0  0
  -12.7379   11.9549   36.5165 C   0  0  0  0  0  0  0  0  0  0  0  0
  -12.4285   10.9313   35.6357 C   0  0  0  0  0  0  0  0  0  0  0  0
  -12.4989   11.1397   34.2735 C   0  0  0  0  0  0  0  0  0  0  0  0
  -12.7928   12.3954   33.7606 C   0  0  0  0  0  0  0  0  0  0  0  0
  -12.5802   15.4606   31.3626 H   0  0  0  0  0  0  0  0  0  0  0  0
   -8.8039   16.8382   29.2566 C   0  0  0  0  0  0  0  0  0  0  0  0
   -9.6614   17.6146   28.4723 O   0  0  0  0  0  0  0  0  0  0  0  0
  -10.2567   17.0343   27.9725 H   0  0  0  0  0  0  0  0  0  0  0  0
   -7.9354   15.9031   28.3550 C   0  0  0  0  0  0  0  0  0  0  0  0
   -7.9408   16.1805   26.9112 N   0  0  0  0  0  0  0  0  0  0  0  0
   -9.2089   15.4584   25.9744 S   0  0  0  0  0  0  0  0  0  0  0  0
  -10.5254   15.9901   25.9485 O   0  0  0  0  0  0  0  0  0  0  0  0
   -9.3233   14.0566   26.2530 O   0  0  0  0  0  0  0  0  0  0  0  0
   -8.0503   15.8564   21.6441 C   0  0  0  0  0  0  0  0  0  0  0  0
   -7.8287   14.6409   22.2864 C   0  0  0  0  0  0  0  0  0  0  0  0
   -8.1547   14.5308   23.6489 C   0  0  0  0  0  0  0  0  0  0  0  0
   -8.7474   15.6009   24.2749 C   0  0  0  0  0  0  0  0  0  0  0  0
   -9.0295   16.8003   23.6210 C   0  0  0  0  0  0  0  0  0  0  0  0
   -8.6525   16.9375   22.2777 C   0  0  0  0  0  0  0  0  0  0  0  0
   -8.6750   16.1164   19.3312 C   0  0  0  0  0  0  0  0  0  0  0  0
   -7.6737   16.0069   20.3411 O   0  0  0  0  0  0  0  0  0  0  0  0
   -6.7313   16.7923   26.4036 C   0  0  0  0  0  0  0  0  0  0  0  0
   -6.6509   18.2733   26.0073 C   0  0  0  0  0  0  0  0  0  0  0  0
   -6.7066   19.2720   27.1739 C   0  0  0  0  0  0  0  0  0  0  0  0
   -5.7642   18.6226   24.8152 C   0  0  0  0  0  0  0  0  0  0  0  0
   -8.6134   15.1765   31.2731 C   0  0  0  0  0  0  0  0  0  0  0  0
   -9.1332   15.2911   32.7083 C   0  0  0  0  0  0  0  0  0  0  0  0
   -9.3183   16.5581   33.2634 C   0  0  0  0  0  0  0  0  0  0  0  0
   -9.8501   16.6304   34.5458 C   0  0  0  0  0  0  0  0  0  0  0  0
  -10.0695   15.4484   35.2350 C   0  0  0  0  0  0  0  0  0  0  0  0
   -9.8502   14.1812   34.7161 C   0  0  0  0  0  0  0  0  0  0  0  0
   -9.3646   14.1171   33.4044 C   0  0  0  0  0  0  0  0  0  0  0  0
 38 39  1  0  0  0
 39 32  1  0  0  0
 32 33  2  0  0  0
 32 37  1  0  0  0
 33 34  1  0  0  0
 34 35  2  0  0  0
 35 36  1  0  0  0
 35 29  1  0  0  0
 36 37  2  0  0  0
 29 30  2  0  0  0
 29 31  2  0  0  0
 29 28  1  0  0  0
 28 40  1  0  0  0
 28 27  1  0  0  0
 40 41  1  0  0  0
 41 42  1  0  0  0
 41 43  1  0  0  0
 27 24  1  0  0  0
 24 25  1  0  0  0
 24  1  1  0  0  0
  1 44  1  0  0  0
  1  2  1  0  0  0
 44 45  1  0  0  0
 45 46  2  0  0  0
 45 50  1  0  0  0
 46 47  1  0  0  0
 47 48  2  0  0  0
 48 49  1  0  0  0
 49 50  2  0  0  0
  2  3  1  0  0  0
  2  6  1  0  0  0
  3  4  2  0  0  0
  4  7  1  0  0  0
  4  5  1  0  0  0
  7  8  1  0  0  0
  8  9  1  0  0  0
  9 10  2  0  0  0
  9 11  1  0  0  0
 11 13  1  0  0  0
 13 14  1  0  0  0
 13 22  1  0  0  0
 14 15  1  0  0  0
 14 16  1  0  0  0
 16 17  1  0  0  0
 17 18  2  0  0  0
 17 22  1  0  0  0
 18 19  1  0  0  0
 19 20  2  0  0  0
 20 21  1  0  0  0
 21 22  2  0  0  0
  5  6  2  0  0  0
 25 26  1  0  0  0
 11 12  1  0  0  0
 15 23  1  0  0  0
M  END
> <minimizedAffinity>
-8.98714

$$$$
1ZP8_AB2_A_200


 50 54  0  0  0  0  0  0  0  0999 V2000
  -10.3608   16.0669   30.8015 C   0  0  0  0  0  0  0  0  0  0  0  0
  -11.2903   15.1417   30.1536 N   0  0  0  0  0  0  0  0  0  0  0  0
  -11.2556   13.7750   30.0664 C   0  0  0  0  0  0  0  0  0  0  0  0
  -12.3483   13.3867   29.3185 C   0  0  0  0  0  0  0  0  0  0  0  0
  -13.0659   14.5046   29.0306 N   0  0  0  0  0  0  0  0  0  0  0  0
  -12.4032   15.5223   29.4806 N   0  0  0  0  0  0  0  0  0  0  0  0
  -12.7377   11.9765   28.9983 C   0  0  0  0  0  0  0  0  0  0  0  0
  -12.2599   11.1613   30.0611 O   0  0  0  0  0  0  0  0  0  0  0  0
  -12.9403   10.1536   30.6411 C   0  0  0  0  0  0  0  0  0  0  0  0
  -12.4198    9.0621   30.7334 O   0  0  0  0  0  0  0  0  0  0  0  0
  -14.1848   10.4530   31.0788 N   0  0  0  0  0  0  0  0  0  0  0  0
  -14.9353   10.1238   30.5333 H   0  0  0  0  0  0  0  0  0  0  0  0
  -14.5382   11.2307   32.3031 C   0  0  0  0  0  0  0  0  0  0  0  0
  -13.3326   11.6480   33.1928 C   0  0  0  0  0  0  0  0  0  0  0  0
  -12.9264   10.7631   34.2327 O   0  0  0  0  0  0  0  0  0  0  0  0
  -13.6776   13.0701   33.6113 C   0  0  0  0  0  0  0  0  0  0  0  0
  -14.6168   13.6048   32.5242 C   0  0  0  0  0  0  0  0  0  0  0  0
  -15.0095   14.9028   32.2112 C   0  0  0  0  0  0  0  0  0  0  0  0
  -15.8966   15.1365   31.1549 C   0  0  0  0  0  0  0  0  0  0  0  0
  -16.3660   14.0619   30.4172 C   0  0  0  0  0  0  0  0  0  0  0  0
  -15.9346   12.7819   30.6995 C   0  0  0  0  0  0  0  0  0  0  0  0
  -15.0961   12.5359   31.7778 C   0  0  0  0  0  0  0  0  0  0  0  0
  -13.6460   10.6685   34.8762 H   0  0  0  0  0  0  0  0  0  0  0  0
   -9.9051   17.1590   29.7670 C   0  0  0  0  0  0  0  0  0  0  0  0
  -10.9862   17.7883   29.1438 O   0  0  0  0  0  0  0  0  0  0  0  0
  -11.4942   17.1339   28.6391 H   0  0  0  0  0  0  0  0  0  0  0  0
   -8.9583   16.5176   28.7021 C   0  0  0  0  0  0  0  0  0  0  0  0
   -9.3057   16.7320   27.2897 N   0  0  0  0  0  0  0  0  0  0  0  0
  -10.0264   15.4006   26.4441 S   0  0  0  0  0  0  0  0  0  0  0  0
  -11.4282   15.3071   26.2372 O   0  0  0  0  0  0  0  0  0  0  0  0
   -9.5940   14.1471   26.9893 O   0  0  0  0  0  0  0  0  0  0  0  0
   -8.4948   15.5270   22.2144 C   0  0  0  0  0  0  0  0  0  0  0  0
   -9.5455   16.3685   22.5704 C   0  0  0  0  0  0  0  0  0  0  0  0
  -10.0485   16.2995   23.8807 C   0  0  0  0  0  0  0  0  0  0  0  0
   -9.4366   15.4594   24.7797 C   0  0  0  0  0  0  0  0  0  0  0  0
   -8.3435   14.6596   24.4466 C   0  0  0  0  0  0  0  0  0  0  0  0
   -7.8747   14.6794   23.1255 C   0  0  0  0  0  0  0  0  0  0  0  0
   -8.6754   16.3598   19.9604 C   0  0  0  0  0  0  0  0  0  0  0  0
   -8.0400   15.5262   20.9278 O   0  0  0  0  0  0  0  0  0  0  0  0
   -8.7506   17.9321   26.7009 C   0  0  0  0  0  0  0  0  0  0  0  0
   -7.2417   18.2089   26.6422 C   0  0  0  0  0  0  0  0  0  0  0  0
   -6.5391   17.7622   25.3507 C   0  0  0  0  0  0  0  0  0  0  0  0
   -6.7468   19.4869   27.3142 C   0  0  0  0  0  0  0  0  0  0  0  0
   -9.1501   15.3866   31.5425 C   0  0  0  0  0  0  0  0  0  0  0  0
   -9.5166   15.2108   33.0182 C   0  0  0  0  0  0  0  0  0  0  0  0
   -9.4046   16.3030   33.8796 C   0  0  0  0  0  0  0  0  0  0  0  0
   -9.8038   16.1287   35.1997 C   0  0  0  0  0  0  0  0  0  0  0  0
  -10.1914   14.8626   35.6083 C   0  0  0  0  0  0  0  0  0  0  0  0
  -10.2672   13.7550   34.7773 C   0  0  0  0  0  0  0  0  0  0  0  0
   -9.9139   13.9525   33.4369 C   0  0  0  0  0  0  0  0  0  0  0  0
 38 39  1  0  0  0
 39 32  1  0  0  0
 32 33  2  0  0  0
 32 37  1  0  0  0
 33 34  1  0  0  0
 34 35  2  0  0  0
 35 36  1  0  0  0
 35 29  1  0  0  0
 36 37  2  0  0  0
 29 30  2  0  0  0
 29 31  2  0  0  0
 29 28  1  0  0  0
 28 40  1  0  0  0
 28 27  1  0  0  0
 40 41  1  0  0  0
 41 42  1  0  0  0
 41 43  1  0  0  0
 27 24  1  0  0  0
 24 25  1  0  0  0
 24  1  1  0  0  0
  1 44  1  0  0  0
  1  2  1  0  0  0
 44 45  1  0  0  0
 45 46  2  0  0  0
 45 50  1  0  0  0
 46 47  1  0  0  0
 47 48  2  0  0  0
 48 49  1  0  0  0
 49 50  2  0  0  0
  2  3  1  0  0  0
  2  6  1  0  0  0
  3  4  2  0  0  0
  4  7  1  0  0  0
  4  5  1  0  0  0
  7  8  1  0  0  0
  8  9  1  0  0  0
  9 10  2  0  0  0
  9 11  1  0  0  0
 11 13  1  0  0  0
 13 14  1  0  0  0
 13 22  1  0  0  0
 14 15  1  0  0  0
 14 16  1  0  0  0
 16 17  1  0  0  0
 17 18  2  0  0  0
 17 22  1  0  0  0
 18 19  1  0  0  0
 19 20  2  0  0  0
 20 21  1  0  0  0
 21 22  2  0  0  0
  5  6  2  0  0  0
 25 26  1  0  0  0
 11 12  1  0  0  0
 15 23  1  0  0  0
M  END
> <minimizedAffinity>
-8.96947

$$$$
1ZP8_AB2_A_200


 50 54  0  0  0  0  0  0  0  0999 V2000
   -7.7477   17.1860   26.1978 C   0  0  0  0  0  0  0  0  0  0  0  0
   -8.4022   17.1403   27.5052 N   0  0  0  0  0  0  0  0  0  0  0  0
   -8.1049   16.3920   28.6135 C   0  0  0  0  0  0  0  0  0  0  0  0
   -9.0482   16.6945   29.5742 C   0  0  0  0  0  0  0  0  0  0  0  0
   -9.8501   17.6686   29.0686 N   0  0  0  0  0  0  0  0  0  0  0  0
   -9.4897   17.8754   27.8419 N   0  0  0  0  0  0  0  0  0  0  0  0
   -9.0939   16.1420   30.9654 C   0  0  0  0  0  0  0  0  0  0  0  0
  -10.4497   15.8098   31.2369 O   0  0  0  0  0  0  0  0  0  0  0  0
  -10.8705   14.7042   31.8815 C   0  0  0  0  0  0  0  0  0  0  0  0
  -10.9665   14.7226   33.0903 O   0  0  0  0  0  0  0  0  0  0  0  0
  -11.1528   13.6348   31.1027 N   0  0  0  0  0  0  0  0  0  0  0  0
  -10.4919   12.9052   31.0988 H   0  0  0  0  0  0  0  0  0  0  0  0
  -12.3626   13.4462   30.2485 C   0  0  0  0  0  0  0  0  0  0  0  0
  -13.6106   14.2690   30.6781 C   0  0  0  0  0  0  0  0  0  0  0  0
  -14.5273   13.6727   31.5912 O   0  0  0  0  0  0  0  0  0  0  0  0
  -14.1899   14.7492   29.3551 C   0  0  0  0  0  0  0  0  0  0  0  0
  -13.0151   14.7649   28.3705 C   0  0  0  0  0  0  0  0  0  0  0  0
  -12.8680   15.3799   27.1307 C   0  0  0  0  0  0  0  0  0  0  0  0
  -11.6773   15.2388   26.4097 C   0  0  0  0  0  0  0  0  0  0  0  0
  -10.6439   14.4926   26.9524 C   0  0  0  0  0  0  0  0  0  0  0  0
  -10.7762   13.9267   28.2040 C   0  0  0  0  0  0  0  0  0  0  0  0
  -11.9718   14.0180   28.9027 C   0  0  0  0  0  0  0  0  0  0  0  0
  -14.9191   12.8830   31.1865 H   0  0  0  0  0  0  0  0  0  0  0  0
   -6.4588   18.0809   26.2902 C   0  0  0  0  0  0  0  0  0  0  0  0
   -6.4465   18.8831   27.4346 O   0  0  0  0  0  0  0  0  0  0  0  0
   -7.1986   19.4951   27.4085 H   0  0  0  0  0  0  0  0  0  0  0  0
   -6.3315   18.9607   25.0050 C   0  0  0  0  0  0  0  0  0  0  0  0
   -5.3248   18.5491   24.0156 N   0  0  0  0  0  0  0  0  0  0  0  0
   -5.4569   19.2300   22.4263 S   0  0  0  0  0  0  0  0  0  0  0  0
   -4.6890   20.3533   22.0196 O   0  0  0  0  0  0  0  0  0  0  0  0
   -6.8238   19.5089   22.0955 O   0  0  0  0  0  0  0  0  0  0  0  0
   -4.0724   16.0827   19.5229 C   0  0  0  0  0  0  0  0  0  0  0  0
   -3.1584   17.0385   19.9589 C   0  0  0  0  0  0  0  0  0  0  0  0
   -3.6024   18.0437   20.8348 C   0  0  0  0  0  0  0  0  0  0  0  0
   -4.9000   18.0017   21.2850 C   0  0  0  0  0  0  0  0  0  0  0  0
   -5.8036   17.0109   20.9010 C   0  0  0  0  0  0  0  0  0  0  0  0
   -5.3843   16.0396   19.9811 C   0  0  0  0  0  0  0  0  0  0  0  0
   -2.9930   15.5511   17.4350 C   0  0  0  0  0  0  0  0  0  0  0  0
   -3.6801   15.1416   18.6159 O   0  0  0  0  0  0  0  0  0  0  0  0
   -4.5140   17.4156   24.4064 C   0  0  0  0  0  0  0  0  0  0  0  0
   -2.9818   17.4752   24.4828 C   0  0  0  0  0  0  0  0  0  0  0  0
   -2.2424   16.3045   23.8166 C   0  0  0  0  0  0  0  0  0  0  0  0
   -2.3392   18.8574   24.4052 C   0  0  0  0  0  0  0  0  0  0  0  0
   -8.6832   17.5871   24.9970 C   0  0  0  0  0  0  0  0  0  0  0  0
   -8.5947   16.4991   23.9241 C   0  0  0  0  0  0  0  0  0  0  0  0
   -7.9102   15.3173   24.2113 C   0  0  0  0  0  0  0  0  0  0  0  0
   -7.9003   14.3234   23.2395 C   0  0  0  0  0  0  0  0  0  0  0  0
   -8.4790   14.5987   22.0108 C   0  0  0  0  0  0  0  0  0  0  0  0
   -9.1254   15.7834   21.6917 C   0  0  0  0  0  0  0  0  0  0  0  0
   -9.1767   16.7586   22.6951 C   0  0  0  0  0  0  0  0  0  0  0  0
 38 39  1  0  0  0
 39 32  1  0  0  0
 32 33  2  0  0  0
 32 37  1  0  0  0
 33 34  1  0  0  0
 34 35  2  0  0  0
 35 36  1  0  0  0
 35 29  1  0  0  0
 36 37  2  0  0  0
 29 30  2  0  0  0
 29 31  2  0  0  0
 29 28  1  0  0  0
 28 40  1  0  0  0
 28 27  1  0  0  0
 40 41  1  0  0  0
 41 42  1  0  0  0
 41 43  1  0  0  0
 27 24  1  0  0  0
 24 25  1  0  0  0
 24  1  1  0  0  0
  1 44  1  0  0  0
  1  2  1  0  0  0
 44 45  1  0  0  0
 45 46  2  0  0  0
 45 50  1  0  0  0
 46 47  1  0  0  0
 47 48  2  0  0  0
 48 49  1  0  0  0
 49 50  2  0  0  0
  2  3  1  0  0  0
  2  6  1  0  0  0
  3  4  2  0  0  0
  4  7  1  0  0  0
  4  5  1  0  0  0
  7  8  1  0  0  0
  8  9  1  0  0  0
  9 10  2  0  0  0
  9 11  1  0  0  0
 11 13  1  0  0  0
 13 14  1  0  0  0
 13 22  1  0  0  0
 14 15  1  0  0  0
 14 16  1  0  0  0
 16 17  1  0  0  0
 17 18  2  0  0  0
 17 22  1  0  0  0
 18 19  1  0  0  0
 19 20  2  0  0  0
 20 21  1  0  0  0
 21 22  2  0  0  0
  5  6  2  0  0  0
 25 26  1  0  0  0
 11 12  1  0  0  0
 15 23  1  0  0  0
M  END
> <minimizedAffinity>
-8.81881

$$$$
1ZP8_AB2_A_200


 50 54  0  0  0  0  0  0  0  0999 V2000
  -11.4396   14.2740   29.1500 C   0  0  0  0  0  0  0  0  0  0  0  0
  -10.4824   14.7175   30.1633 N   0  0  0  0  0  0  0  0  0  0  0  0
  -10.5754   15.7322   31.0789 C   0  0  0  0  0  0  0  0  0  0  0  0
   -9.3872   15.7583   31.7801 C   0  0  0  0  0  0  0  0  0  0  0  0
   -8.6278   14.7213   31.3381 N   0  0  0  0  0  0  0  0  0  0  0  0
   -9.2625   14.1605   30.3584 N   0  0  0  0  0  0  0  0  0  0  0  0
   -9.0546   16.6817   32.9114 C   0  0  0  0  0  0  0  0  0  0  0  0
  -10.0145   16.4488   33.9345 O   0  0  0  0  0  0  0  0  0  0  0  0
   -9.9293   15.4988   34.8858 C   0  0  0  0  0  0  0  0  0  0  0  0
   -9.2496   15.7030   35.8692 O   0  0  0  0  0  0  0  0  0  0  0  0
  -10.6253   14.3624   34.6531 N   0  0  0  0  0  0  0  0  0  0  0  0
  -10.1042   13.5753   34.3734 H   0  0  0  0  0  0  0  0  0  0  0  0
  -12.1016   14.1779   34.7764 C   0  0  0  0  0  0  0  0  0  0  0  0
  -12.9044   14.3663   33.4576 C   0  0  0  0  0  0  0  0  0  0  0  0
  -13.3920   15.6685   33.1475 O   0  0  0  0  0  0  0  0  0  0  0  0
  -13.9395   13.2517   33.5116 C   0  0  0  0  0  0  0  0  0  0  0  0
  -13.3339   12.1680   34.4110 C   0  0  0  0  0  0  0  0  0  0  0  0
  -13.6703   10.8287   34.5838 C   0  0  0  0  0  0  0  0  0  0  0  0
  -12.9550   10.0319   35.4843 C   0  0  0  0  0  0  0  0  0  0  0  0
  -11.9003   10.5893   36.1886 C   0  0  0  0  0  0  0  0  0  0  0  0
  -11.5389   11.9040   35.9766 C   0  0  0  0  0  0  0  0  0  0  0  0
  -12.2752   12.7153   35.1246 C   0  0  0  0  0  0  0  0  0  0  0  0
  -14.0261   15.9465   33.8269 H   0  0  0  0  0  0  0  0  0  0  0  0
  -10.8524   14.5535   27.7191 C   0  0  0  0  0  0  0  0  0  0  0  0
   -9.6420   13.8901   27.4997 O   0  0  0  0  0  0  0  0  0  0  0  0
   -8.9787   14.2105   28.1308 H   0  0  0  0  0  0  0  0  0  0  0  0
  -10.6779   16.0922   27.5094 C   0  0  0  0  0  0  0  0  0  0  0  0
   -9.4670   16.5328   26.8015 N   0  0  0  0  0  0  0  0  0  0  0  0
   -8.0306   16.7407   27.7506 S   0  0  0  0  0  0  0  0  0  0  0  0
   -7.2703   15.6376   28.2216 O   0  0  0  0  0  0  0  0  0  0  0  0
   -8.2727   17.5989   28.8734 O   0  0  0  0  0  0  0  0  0  0  0  0
   -4.9959   18.8031   25.1450 C   0  0  0  0  0  0  0  0  0  0  0  0
   -5.9028   19.5816   25.8596 C   0  0  0  0  0  0  0  0  0  0  0  0
   -6.8746   18.9348   26.6418 C   0  0  0  0  0  0  0  0  0  0  0  0
   -6.8461   17.5637   26.7302 C   0  0  0  0  0  0  0  0  0  0  0  0
   -5.9014   16.7810   26.0665 C   0  0  0  0  0  0  0  0  0  0  0  0
   -4.9663   17.4162   25.2373 C   0  0  0  0  0  0  0  0  0  0  0  0
   -4.5455   20.3602   23.3618 C   0  0  0  0  0  0  0  0  0  0  0  0
   -4.0910   19.4092   24.3228 O   0  0  0  0  0  0  0  0  0  0  0  0
   -9.6884   17.0073   25.4522 C   0  0  0  0  0  0  0  0  0  0  0  0
   -9.0845   16.3207   24.2190 C   0  0  0  0  0  0  0  0  0  0  0  0
   -8.3305   17.2466   23.2518 C   0  0  0  0  0  0  0  0  0  0  0  0
   -8.5480   14.9046   24.4097 C   0  0  0  0  0  0  0  0  0  0  0  0
  -12.9027   14.8271   29.3269 C   0  0  0  0  0  0  0  0  0  0  0  0
  -13.8111   13.6752   29.7638 C   0  0  0  0  0  0  0  0  0  0  0  0
  -13.2848   12.3844   29.8308 C   0  0  0  0  0  0  0  0  0  0  0  0
  -14.1170   11.3701   30.2903 C   0  0  0  0  0  0  0  0  0  0  0  0
  -15.4420   11.6761   30.5571 C   0  0  0  0  0  0  0  0  0  0  0  0
  -15.9942   12.9440   30.4543 C   0  0  0  0  0  0  0  0  0  0  0  0
  -15.1349   13.9696   30.0417 C   0  0  0  0  0  0  0  0  0  0  0  0
 38 39  1  0  0  0
 39 32  1  0  0  0
 32 33  2  0  0  0
 32 37  1  0  0  0
 33 34  1  0  0  0
 34 35  2  0  0  0
 35 36  1  0  0  0
 35 29  1  0  0  0
 36 37  2  0  0  0
 29 30  2  0  0  0
 29 31  2  0  0  0
 29 28  1  0  0  0
 28 40  1  0  0  0
 28 27  1  0  0  0
 40 41  1  0  0  0
 41 42  1  0  0  0
 41 43  1  0  0  0
 27 24  1  0  0  0
 24 25  1  0  0  0
 24  1  1  0  0  0
  1 44  1  0  0  0
  1  2  1  0  0  0
 44 45  1  0  0  0
 45 46  2  0  0  0
 45 50  1  0  0  0
 46 47  1  0  0  0
 47 48  2  0  0  0
 48 49  1  0  0  0
 49 50  2  0  0  0
  2  3  1  0  0  0
  2  6  1  0  0  0
  3  4  2  0  0  0
  4  7  1  0  0  0
  4  5  1  0  0  0
  7  8  1  0  0  0
  8  9  1  0  0  0
  9 10  2  0  0  0
  9 11  1  0  0  0
 11 13  1  0  0  0
 13 14  1  0  0  0
 13 22  1  0  0  0
 14 15  1  0  0  0
 14 16  1  0  0  0
 16 17  1  0  0  0
 17 18  2  0  0  0
 17 22  1  0  0  0
 18 19  1  0  0  0
 19 20  2  0  0  0
 20 21  1  0  0  0
 21 22  2  0  0  0
  5  6  2  0  0  0
 25 26  1  0  0  0
 11 12  1  0  0  0
 15 23  1  0  0  0
M  END
> <minimizedAffinity>
-8.77571

$$$$
1ZP8_AB2_A_200


 50 54  0  0  0  0  0  0  0  0999 V2000
   -6.5640   17.0514   25.4337 C   0  0  0  0  0  0  0  0  0  0  0  0
   -7.4433   16.4693   24.4199 N   0  0  0  0  0  0  0  0  0  0  0  0
   -8.1920   17.0788   23.4480 C   0  0  0  0  0  0  0  0  0  0  0  0
   -8.8716   16.0849   22.7739 C   0  0  0  0  0  0  0  0  0  0  0  0
   -8.4712   14.8927   23.2896 N   0  0  0  0  0  0  0  0  0  0  0  0
   -7.6795   15.1418   24.2838 N   0  0  0  0  0  0  0  0  0  0  0  0
   -9.7823   16.2827   21.6016 C   0  0  0  0  0  0  0  0  0  0  0  0
   -9.0261   16.9421   20.5938 O   0  0  0  0  0  0  0  0  0  0  0  0
   -8.2150   16.3387   19.7034 C   0  0  0  0  0  0  0  0  0  0  0  0
   -8.6970   15.8149   18.7216 O   0  0  0  0  0  0  0  0  0  0  0  0
   -6.8937   16.3646   19.9923 N   0  0  0  0  0  0  0  0  0  0  0  0
   -6.4991   15.5275   20.3283 H   0  0  0  0  0  0  0  0  0  0  0  0
   -5.9717   17.5307   19.8546 C   0  0  0  0  0  0  0  0  0  0  0  0
   -5.7783   18.3772   21.1450 C   0  0  0  0  0  0  0  0  0  0  0  0
   -6.6570   19.4766   21.3658 O   0  0  0  0  0  0  0  0  0  0  0  0
   -4.2891   18.6919   21.1413 C   0  0  0  0  0  0  0  0  0  0  0  0
   -3.6325   17.5757   20.3209 C   0  0  0  0  0  0  0  0  0  0  0  0
   -2.3045   17.1706   20.2247 C   0  0  0  0  0  0  0  0  0  0  0  0
   -1.9500   16.1071   19.3877 C   0  0  0  0  0  0  0  0  0  0  0  0
   -2.9388   15.4549   18.6691 C   0  0  0  0  0  0  0  0  0  0  0  0
   -4.2602   15.8279   18.8064 C   0  0  0  0  0  0  0  0  0  0  0  0
   -4.6142   16.9145   19.5938 C   0  0  0  0  0  0  0  0  0  0  0  0
   -6.5398   20.1311   20.6596 H   0  0  0  0  0  0  0  0  0  0  0  0
   -7.0944   16.6733   26.8642 C   0  0  0  0  0  0  0  0  0  0  0  0
   -7.0673   15.2955   27.0968 O   0  0  0  0  0  0  0  0  0  0  0  0
   -7.6530   14.8494   26.4652 H   0  0  0  0  0  0  0  0  0  0  0  0
   -8.5410   17.2316   27.0574 C   0  0  0  0  0  0  0  0  0  0  0  0
   -9.4788   16.3958   27.8214 N   0  0  0  0  0  0  0  0  0  0  0  0
  -10.3370   15.1703   26.9446 S   0  0  0  0  0  0  0  0  0  0  0  0
   -9.7603   13.9055   26.6543 O   0  0  0  0  0  0  0  0  0  0  0  0
  -10.8647   15.6875   25.7160 O   0  0  0  0  0  0  0  0  0  0  0  0
  -13.8500   13.9329   29.4704 C   0  0  0  0  0  0  0  0  0  0  0  0
  -13.9816   15.0430   28.6401 C   0  0  0  0  0  0  0  0  0  0  0  0
  -12.8712   15.4513   27.8818 C   0  0  0  0  0  0  0  0  0  0  0  0
  -11.7236   14.6972   27.9321 C   0  0  0  0  0  0  0  0  0  0  0  0
  -11.6055   13.5481   28.7139 C   0  0  0  0  0  0  0  0  0  0  0  0
  -12.6893   13.1691   29.5185 C   0  0  0  0  0  0  0  0  0  0  0  0
  -15.2990   14.4234   31.3324 C   0  0  0  0  0  0  0  0  0  0  0  0
  -14.8927   13.5634   30.2694 O   0  0  0  0  0  0  0  0  0  0  0  0
   -9.7794   16.8779   29.1526 C   0  0  0  0  0  0  0  0  0  0  0  0
   -9.4927   16.0584   30.4189 C   0  0  0  0  0  0  0  0  0  0  0  0
  -10.6702   15.9222   31.3967 C   0  0  0  0  0  0  0  0  0  0  0  0
   -8.5497   14.8672   30.2725 C   0  0  0  0  0  0  0  0  0  0  0  0
   -6.2898   18.5931   25.2733 C   0  0  0  0  0  0  0  0  0  0  0  0
   -4.8207   18.7910   24.8921 C   0  0  0  0  0  0  0  0  0  0  0  0
   -3.9732   17.6827   24.8592 C   0  0  0  0  0  0  0  0  0  0  0  0
   -2.6604   17.8848   24.4493 C   0  0  0  0  0  0  0  0  0  0  0  0
   -2.2421   19.1815   24.1962 C   0  0  0  0  0  0  0  0  0  0  0  0
   -3.0581   20.3006   24.2661 C   0  0  0  0  0  0  0  0  0  0  0  0
   -4.3926   20.0809   24.6283 C   0  0  0  0  0  0  0  0  0  0  0  0
 38 39  1  0  0  0
 39 32  1  0  0  0
 32 33  2  0  0  0
 32 37  1  0  0  0
 33 34  1  0  0  0
 34 35  2  0  0  0
 35 36  1  0  0  0
 35 29  1  0  0  0
 36 37  2  0  0  0
 29 30  2  0  0  0
 29 31  2  0  0  0
 29 28  1  0  0  0
 28 40  1  0  0  0
 28 27  1  0  0  0
 40 41  1  0  0  0
 41 42  1  0  0  0
 41 43  1  0  0  0
 27 24  1  0  0  0
 24 25  1  0  0  0
 24  1  1  0  0  0
  1 44  1  0  0  0
  1  2  1  0  0  0
 44 45  1  0  0  0
 45 46  2  0  0  0
 45 50  1  0  0  0
 46 47  1  0  0  0
 47 48  2  0  0  0
 48 49  1  0  0  0
 49 50  2  0  0  0
  2  3  1  0  0  0
  2  6  1  0  0  0
  3  4  2  0  0  0
  4  7  1  0  0  0
  4  5  1  0  0  0
  7  8  1  0  0  0
  8  9  1  0  0  0
  9 10  2  0  0  0
  9 11  1  0  0  0
 11 13  1  0  0  0
 13 14  1  0  0  0
 13 22  1  0  0  0
 14 15  1  0  0  0
 14 16  1  0  0  0
 16 17  1  0  0  0
 17 18  2  0  0  0
 17 22  1  0  0  0
 18 19  1  0  0  0
 19 20  2  0  0  0
 20 21  1  0  0  0
 21 22  2  0  0  0
  5  6  2  0  0  0
 25 26  1  0  0  0
 11 12  1  0  0  0
 15 23  1  0  0  0
M  END
> <minimizedAffinity>
-8.76094

$$$$
1ZP8_AB2_A_200


 50 54  0  0  0  0  0  0  0  0999 V2000
   -8.6793   15.8415   24.1341 C   0  0  0  0  0  0  0  0  0  0  0  0
   -9.2814   15.2695   25.3383 N   0  0  0  0  0  0  0  0  0  0  0  0
  -10.4086   15.6421   26.0219 C   0  0  0  0  0  0  0  0  0  0  0  0
  -10.5221   14.8007   27.1097 C   0  0  0  0  0  0  0  0  0  0  0  0
   -9.5165   13.8897   27.0297 N   0  0  0  0  0  0  0  0  0  0  0  0
   -8.7735   14.2140   26.0197 N   0  0  0  0  0  0  0  0  0  0  0  0
  -11.6294   14.8126   28.1180 C   0  0  0  0  0  0  0  0  0  0  0  0
  -11.6602   16.1155   28.6870 O   0  0  0  0  0  0  0  0  0  0  0  0
  -10.8958   16.5401   29.7118 C   0  0  0  0  0  0  0  0  0  0  0  0
  -10.3539   17.6225   29.6391 O   0  0  0  0  0  0  0  0  0  0  0  0
  -10.7906   15.6951   30.7630 N   0  0  0  0  0  0  0  0  0  0  0  0
   -9.9433   15.2012   30.8489 H   0  0  0  0  0  0  0  0  0  0  0  0
  -11.8261   15.4338   31.8063 C   0  0  0  0  0  0  0  0  0  0  0  0
  -12.5005   14.0342   31.7332 C   0  0  0  0  0  0  0  0  0  0  0  0
  -13.6822   13.8975   30.9492 O   0  0  0  0  0  0  0  0  0  0  0  0
  -12.6051   13.6156   33.1927 C   0  0  0  0  0  0  0  0  0  0  0  0
  -11.4992   14.3851   33.9240 C   0  0  0  0  0  0  0  0  0  0  0  0
  -10.9264   14.1937   35.1779 C   0  0  0  0  0  0  0  0  0  0  0  0
   -9.9159   15.0491   35.6301 C   0  0  0  0  0  0  0  0  0  0  0  0
   -9.4840   16.0775   34.8085 C   0  0  0  0  0  0  0  0  0  0  0  0
  -10.0199   16.2323   33.5464 C   0  0  0  0  0  0  0  0  0  0  0  0
  -11.0583   15.4211   33.1105 C   0  0  0  0  0  0  0  0  0  0  0  0
  -14.3834   14.4550   31.3214 H   0  0  0  0  0  0  0  0  0  0  0  0
   -7.8615   17.1273   24.5196 C   0  0  0  0  0  0  0  0  0  0  0  0
   -8.2766   18.2571   23.8093 O   0  0  0  0  0  0  0  0  0  0  0  0
   -8.1268   18.1161   22.8614 H   0  0  0  0  0  0  0  0  0  0  0  0
   -6.3362   16.8716   24.2963 C   0  0  0  0  0  0  0  0  0  0  0  0
   -5.4043   17.6420   25.1327 N   0  0  0  0  0  0  0  0  0  0  0  0
   -4.4386   18.8426   24.3369 S   0  0  0  0  0  0  0  0  0  0  0  0
   -3.1302   19.1737   24.7783 O   0  0  0  0  0  0  0  0  0  0  0  0
   -5.1605   20.0726   24.1903 O   0  0  0  0  0  0  0  0  0  0  0  0
   -3.6358   17.3519   20.1673 C   0  0  0  0  0  0  0  0  0  0  0  0
   -2.8510   16.8706   21.2120 C   0  0  0  0  0  0  0  0  0  0  0  0
   -3.0771   17.3667   22.5071 C   0  0  0  0  0  0  0  0  0  0  0  0
   -4.1110   18.2502   22.7049 C   0  0  0  0  0  0  0  0  0  0  0  0
   -4.9410   18.6885   21.6732 C   0  0  0  0  0  0  0  0  0  0  0  0
   -4.6832   18.2437   20.3689 C   0  0  0  0  0  0  0  0  0  0  0  0
   -3.8326   15.6502   18.4724 C   0  0  0  0  0  0  0  0  0  0  0  0
   -3.3846   16.9379   18.8915 O   0  0  0  0  0  0  0  0  0  0  0  0
   -5.2045   17.1158   26.4661 C   0  0  0  0  0  0  0  0  0  0  0  0
   -6.1031   17.4921   27.6526 C   0  0  0  0  0  0  0  0  0  0  0  0
   -6.7261   18.8953   27.5890 C   0  0  0  0  0  0  0  0  0  0  0  0
   -6.9362   16.3726   28.2709 C   0  0  0  0  0  0  0  0  0  0  0  0
   -9.6772   16.0887   22.9421 C   0  0  0  0  0  0  0  0  0  0  0  0
   -8.8814   16.1074   21.6346 C   0  0  0  0  0  0  0  0  0  0  0  0
   -9.3852   16.8177   20.5441 C   0  0  0  0  0  0  0  0  0  0  0  0
   -8.6101   16.8674   19.3912 C   0  0  0  0  0  0  0  0  0  0  0  0
   -7.4373   16.1302   19.3544 C   0  0  0  0  0  0  0  0  0  0  0  0
   -6.9425   15.3830   20.4127 C   0  0  0  0  0  0  0  0  0  0  0  0
   -7.7034   15.3818   21.5880 C   0  0  0  0  0  0  0  0  0  0  0  0
 38 39  1  0  0  0
 39 32  1  0  0  0
 32 33  2  0  0  0
 32 37  1  0  0  0
 33 34  1  0  0  0
 34 35  2  0  0  0
 35 36  1  0  0  0
 35 29  1  0  0  0
 36 37  2  0  0  0
 29 30  2  0  0  0
 29 31  2  0  0  0
 29 28  1  0  0  0
 28 40  1  0  0  0
 28 27  1  0  0  0
 40 41  1  0  0  0
 41 42  1  0  0  0
 41 43  1  0  0  0
 27 24  1  0  0  0
 24 25  1  0  0  0
 24  1  1  0  0  0
  1 44  1  0  0  0
  1  2  1  0  0  0
 44 45  1  0  0  0
 45 46  2  0  0  0
 45 50  1  0  0  0
 46 47  1  0  0  0
 47 48  2  0  0  0
 48 49  1  0  0  0
 49 50  2  0  0  0
  2  3  1  0  0  0
  2  6  1  0  0  0
  3  4  2  0  0  0
  4  7  1  0  0  0
  4  5  1  0  0  0
  7  8  1  0  0  0
  8  9  1  0  0  0
  9 10  2  0  0  0
  9 11  1  0  0  0
 11 13  1  0  0  0
 13 14  1  0  0  0
 13 22  1  0  0  0
 14 15  1  0  0  0
 14 16  1  0  0  0
 16 17  1  0  0  0
 17 18  2  0  0  0
 17 22  1  0  0  0
 18 19  1  0  0  0
 19 20  2  0  0  0
 20 21  1  0  0  0
 21 22  2  0  0  0
  5  6  2  0  0  0
 25 26  1  0  0  0
 11 12  1  0  0  0
 15 23  1  0  0  0
M  END
> <minimizedAffinity>
-8.57429

$$$$
1ZP8_AB2_A_200


 50 54  0  0  0  0  0  0  0  0999 V2000
  -10.3673   15.5523   28.7855 C   0  0  0  0  0  0  0  0  0  0  0  0
  -11.1437   14.3152   28.7051 N   0  0  0  0  0  0  0  0  0  0  0  0
  -12.0465   13.7827   29.5871 C   0  0  0  0  0  0  0  0  0  0  0  0
  -12.4728   12.5815   29.0582 C   0  0  0  0  0  0  0  0  0  0  0  0
  -11.8879   12.4399   27.8395 N   0  0  0  0  0  0  0  0  0  0  0  0
  -11.0755   13.4353   27.6767 N   0  0  0  0  0  0  0  0  0  0  0  0
  -13.4947   11.6686   29.6625 C   0  0  0  0  0  0  0  0  0  0  0  0
  -12.8208   10.8702   30.6272 O   0  0  0  0  0  0  0  0  0  0  0  0
  -13.4071    9.9902   31.4620 C   0  0  0  0  0  0  0  0  0  0  0  0
  -13.1801    8.8061   31.3308 O   0  0  0  0  0  0  0  0  0  0  0  0
  -14.2275   10.5179   32.3992 N   0  0  0  0  0  0  0  0  0  0  0  0
  -15.1948   10.4185   32.2451 H   0  0  0  0  0  0  0  0  0  0  0  0
  -13.8185   11.2355   33.6428 C   0  0  0  0  0  0  0  0  0  0  0  0
  -12.3576   10.9733   34.1077 C   0  0  0  0  0  0  0  0  0  0  0  0
  -12.1219    9.8944   35.0077 O   0  0  0  0  0  0  0  0  0  0  0  0
  -11.8780   12.3460   34.5574 C   0  0  0  0  0  0  0  0  0  0  0  0
  -12.7361   13.3565   33.7876 C   0  0  0  0  0  0  0  0  0  0  0  0
  -12.5631   14.7186   33.5601 C   0  0  0  0  0  0  0  0  0  0  0  0
  -13.5061   15.4350   32.8152 C   0  0  0  0  0  0  0  0  0  0  0  0
  -14.6040   14.7685   32.2960 C   0  0  0  0  0  0  0  0  0  0  0  0
  -14.7449   13.4085   32.4820 C   0  0  0  0  0  0  0  0  0  0  0  0
  -13.8422   12.7003   33.2629 C   0  0  0  0  0  0  0  0  0  0  0  0
  -12.5865   10.0623   35.8425 H   0  0  0  0  0  0  0  0  0  0  0  0
  -10.4261   16.2965   27.4023 C   0  0  0  0  0  0  0  0  0  0  0  0
  -11.5903   16.0029   26.6870 O   0  0  0  0  0  0  0  0  0  0  0  0
  -11.6148   15.0546   26.4844 H   0  0  0  0  0  0  0  0  0  0  0  0
   -9.1610   15.9425   26.5561 C   0  0  0  0  0  0  0  0  0  0  0  0
   -8.4830   17.0567   25.8774 N   0  0  0  0  0  0  0  0  0  0  0  0
   -7.3214   17.9532   26.8016 S   0  0  0  0  0  0  0  0  0  0  0  0
   -6.6712   17.4012   27.9370 O   0  0  0  0  0  0  0  0  0  0  0  0
   -7.8454   19.2294   27.1920 O   0  0  0  0  0  0  0  0  0  0  0  0
   -3.8078   18.7320   24.0998 C   0  0  0  0  0  0  0  0  0  0  0  0
   -4.5517   19.8161   24.5584 C   0  0  0  0  0  0  0  0  0  0  0  0
   -5.6718   19.5684   25.3699 C   0  0  0  0  0  0  0  0  0  0  0  0
   -5.9460   18.2737   25.7400 C   0  0  0  0  0  0  0  0  0  0  0  0
   -5.1681   17.1889   25.3352 C   0  0  0  0  0  0  0  0  0  0  0  0
   -4.0845   17.4228   24.4770 C   0  0  0  0  0  0  0  0  0  0  0  0
   -2.9598   18.8150   21.8456 C   0  0  0  0  0  0  0  0  0  0  0  0
   -2.7601   18.9458   23.2519 O   0  0  0  0  0  0  0  0  0  0  0  0
   -9.0675   17.4456   24.6117 C   0  0  0  0  0  0  0  0  0  0  0  0
   -8.5502   16.9278   23.2621 C   0  0  0  0  0  0  0  0  0  0  0  0
   -9.5541   16.0997   22.4449 C   0  0  0  0  0  0  0  0  0  0  0  0
   -7.5873   17.8324   22.4979 C   0  0  0  0  0  0  0  0  0  0  0  0
   -8.8981   15.3841   29.3250 C   0  0  0  0  0  0  0  0  0  0  0  0
   -8.9344   15.4022   30.8551 C   0  0  0  0  0  0  0  0  0  0  0  0
   -9.1434   16.6143   31.5144 C   0  0  0  0  0  0  0  0  0  0  0  0
   -9.2332   16.5887   32.9014 C   0  0  0  0  0  0  0  0  0  0  0  0
   -9.0103   15.3862   33.5532 C   0  0  0  0  0  0  0  0  0  0  0  0
   -8.7578   14.1800   32.9173 C   0  0  0  0  0  0  0  0  0  0  0  0
   -8.7219   14.2055   31.5178 C   0  0  0  0  0  0  0  0  0  0  0  0
 38 39  1  0  0  0
 39 32  1  0  0  0
 32 33  2  0  0  0
 32 37  1  0  0  0
 33 34  1  0  0  0
 34 35  2  0  0  0
 35 36  1  0  0  0
 35 29  1  0  0  0
 36 37  2  0  0  0
 29 30  2  0  0  0
 29 31  2  0  0  0
 29 28  1  0  0  0
 28 40  1  0  0  0
 28 27  1  0  0  0
 40 41  1  0  0  0
 41 42  1  0  0  0
 41 43  1  0  0  0
 27 24  1  0  0  0
 24 25  1  0  0  0
 24  1  1  0  0  0
  1 44  1  0  0  0
  1  2  1  0  0  0
 44 45  1  0  0  0
 45 46  2  0  0  0
 45 50  1  0  0  0
 46 47  1  0  0  0
 47 48  2  0  0  0
 48 49  1  0  0  0
 49 50  2  0  0  0
  2  3  1  0  0  0
  2  6  1  0  0  0
  3  4  2  0  0  0
  4  7  1  0  0  0
  4  5  1  0  0  0
  7  8  1  0  0  0
  8  9  1  0  0  0
  9 10  2  0  0  0
  9 11  1  0  0  0
 11 13  1  0  0  0
 13 14  1  0  0  0
 13 22  1  0  0  0
 14 15  1  0  0  0
 14 16  1  0  0  0
 16 17  1  0  0  0
 17 18  2  0  0  0
 17 22  1  0  0  0
 18 19  1  0  0  0
 19 20  2  0  0  0
 20 21  1  0  0  0
 21 22  2  0  0  0
  5  6  2  0  0  0
 25 26  1  0  0  0
 11 12  1  0  0  0
 15 23  1  0  0  0
M  END
> <minimizedAffinity>
-8.52760

$$$$
1ZP8_AB2_A_200


 50 54  0  0  0  0  0  0  0  0999 V2000
   -7.3682   16.4718   25.1916 C   0  0  0  0  0  0  0  0  0  0  0  0
   -8.1242   15.5943   26.0852 N   0  0  0  0  0  0  0  0  0  0  0  0
   -9.4644   15.3129   26.1172 C   0  0  0  0  0  0  0  0  0  0  0  0
   -9.6746   14.4513   27.1744 C   0  0  0  0  0  0  0  0  0  0  0  0
   -8.4615   14.1638   27.7159 N   0  0  0  0  0  0  0  0  0  0  0  0
   -7.5773   14.8825   27.1004 N   0  0  0  0  0  0  0  0  0  0  0  0
  -10.9865   13.8441   27.5657 C   0  0  0  0  0  0  0  0  0  0  0  0
  -11.8295   14.9097   27.9854 O   0  0  0  0  0  0  0  0  0  0  0  0
  -12.3928   15.0286   29.2034 C   0  0  0  0  0  0  0  0  0  0  0  0
  -13.4421   14.4643   29.4295 O   0  0  0  0  0  0  0  0  0  0  0  0
  -11.7227   15.7947   30.0944 N   0  0  0  0  0  0  0  0  0  0  0  0
  -12.0896   16.6915   30.2690 H   0  0  0  0  0  0  0  0  0  0  0  0
  -10.4845   15.4216   30.8404 C   0  0  0  0  0  0  0  0  0  0  0  0
   -9.3352   16.4677   30.7802 C   0  0  0  0  0  0  0  0  0  0  0  0
   -8.3792   16.3566   29.7298 O   0  0  0  0  0  0  0  0  0  0  0  0
   -8.7839   16.4692   32.1989 C   0  0  0  0  0  0  0  0  0  0  0  0
   -9.9360   15.9926   33.0908 C   0  0  0  0  0  0  0  0  0  0  0  0
  -10.1224   16.0758   34.4675 C   0  0  0  0  0  0  0  0  0  0  0  0
  -11.2791   15.5529   35.0559 C   0  0  0  0  0  0  0  0  0  0  0  0
  -12.2406   14.9660   34.2495 C   0  0  0  0  0  0  0  0  0  0  0  0
  -12.0741   14.9310   32.8801 C   0  0  0  0  0  0  0  0  0  0  0  0
  -10.9070   15.4001   32.2936 C   0  0  0  0  0  0  0  0  0  0  0  0
   -7.9014   15.5167   29.8150 H   0  0  0  0  0  0  0  0  0  0  0  0
   -6.3147   17.2857   26.0274 C   0  0  0  0  0  0  0  0  0  0  0  0
   -6.8041   17.6633   27.2808 O   0  0  0  0  0  0  0  0  0  0  0  0
   -7.5685   18.2493   27.1663 H   0  0  0  0  0  0  0  0  0  0  0  0
   -5.8539   18.5415   25.2198 C   0  0  0  0  0  0  0  0  0  0  0  0
   -4.7454   18.3519   24.2727 N   0  0  0  0  0  0  0  0  0  0  0  0
   -4.7234   19.3718   22.8704 S   0  0  0  0  0  0  0  0  0  0  0  0
   -3.9030   20.5281   22.7902 O   0  0  0  0  0  0  0  0  0  0  0  0
   -6.0503   19.7668   22.4977 O   0  0  0  0  0  0  0  0  0  0  0  0
   -3.0744   16.9364   19.4642 C   0  0  0  0  0  0  0  0  0  0  0  0
   -4.3636   16.6668   19.9161 C   0  0  0  0  0  0  0  0  0  0  0  0
   -4.8622   17.4015   21.0053 C   0  0  0  0  0  0  0  0  0  0  0  0
   -4.0882   18.4065   21.5338 C   0  0  0  0  0  0  0  0  0  0  0  0
   -2.8208   18.7235   21.0453 C   0  0  0  0  0  0  0  0  0  0  0  0
   -2.2933   17.9552   19.9979 C   0  0  0  0  0  0  0  0  0  0  0  0
   -3.3782   15.2613   17.7587 C   0  0  0  0  0  0  0  0  0  0  0  0
   -2.5445   16.1853   18.4556 O   0  0  0  0  0  0  0  0  0  0  0  0
   -3.9632   17.1523   24.4822 C   0  0  0  0  0  0  0  0  0  0  0  0
   -2.4280   17.1478   24.4741 C   0  0  0  0  0  0  0  0  0  0  0  0
   -1.7767   16.1464   23.5075 C   0  0  0  0  0  0  0  0  0  0  0  0
   -1.7318   18.4901   24.6816 C   0  0  0  0  0  0  0  0  0  0  0  0
   -8.2440   17.3876   24.2578 C   0  0  0  0  0  0  0  0  0  0  0  0
   -8.2109   16.8129   22.8395 C   0  0  0  0  0  0  0  0  0  0  0  0
   -7.8852   15.4678   22.6602 C   0  0  0  0  0  0  0  0  0  0  0  0
   -7.9243   14.9601   21.3667 C   0  0  0  0  0  0  0  0  0  0  0  0
   -8.1828   15.8353   20.3237 C   0  0  0  0  0  0  0  0  0  0  0  0
   -8.4653   17.1841   20.4784 C   0  0  0  0  0  0  0  0  0  0  0  0
   -8.4761   17.6753   21.7895 C   0  0  0  0  0  0  0  0  0  0  0  0
 38 39  1  0  0  0
 39 32  1  0  0  0
 32 33  2  0  0  0
 32 37  1  0  0  0
 33 34  1  0  0  0
 34 35  2  0  0  0
 35 36  1  0  0  0
 35 29  1  0  0  0
 36 37  2  0  0  0
 29 30  2  0  0  0
 29 31  2  0  0  0
 29 28  1  0  0  0
 28 40  1  0  0  0
 28 27  1  0  0  0
 40 41  1  0  0  0
 41 42  1  0  0  0
 41 43  1  0  0  0
 27 24  1  0  0  0
 24 25  1  0  0  0
 24  1  1  0  0  0
  1 44  1  0  0  0
  1  2  1  0  0  0
 44 45  1  0  0  0
 45 46  2  0  0  0
 45 50  1  0  0  0
 46 47  1  0  0  0
 47 48  2  0  0  0
 48 49  1  0  0  0
 49 50  2  0  0  0
  2  3  1  0  0  0
  2  6  1  0  0  0
  3  4  2  0  0  0
  4  7  1  0  0  0
  4  5  1  0  0  0
  7  8  1  0  0  0
  8  9  1  0  0  0
  9 10  2  0  0  0
  9 11  1  0  0  0
 11 13  1  0  0  0
 13 14  1  0  0  0
 13 22  1  0  0  0
 14 15  1  0  0  0
 14 16  1  0  0  0
 16 17  1  0  0  0
 17 18  2  0  0  0
 17 22  1  0  0  0
 18 19  1  0  0  0
 19 20  2  0  0  0
 20 21  1  0  0  0
 21 22  2  0  0  0
  5  6  2  0  0  0
 25 26  1  0  0  0
 11 12  1  0  0  0
 15 23  1  0  0  0
M  END
> <minimizedAffinity>
-8.50814

$$$$
1ZP8_AB2_A_200


 50 54  0  0  0  0  0  0  0  0999 V2000
  -10.4597   14.6934   30.1816 C   0  0  0  0  0  0  0  0  0  0  0  0
   -9.3272   14.9631   29.2959 N   0  0  0  0  0  0  0  0  0  0  0  0
   -8.4433   16.0096   29.2897 C   0  0  0  0  0  0  0  0  0  0  0  0
   -7.5835   15.8103   28.2289 C   0  0  0  0  0  0  0  0  0  0  0  0
   -7.9053   14.6191   27.6589 N   0  0  0  0  0  0  0  0  0  0  0  0
   -8.9586   14.1677   28.2625 N   0  0  0  0  0  0  0  0  0  0  0  0
   -6.4258   16.6857   27.8597 C   0  0  0  0  0  0  0  0  0  0  0  0
   -6.9575   17.9643   27.5359 O   0  0  0  0  0  0  0  0  0  0  0  0
   -6.9126   18.5458   26.3215 C   0  0  0  0  0  0  0  0  0  0  0  0
   -5.9834   19.2751   26.0469 O   0  0  0  0  0  0  0  0  0  0  0  0
   -7.9412   18.2624   25.4898 N   0  0  0  0  0  0  0  0  0  0  0  0
   -8.6179   18.9671   25.3691 H   0  0  0  0  0  0  0  0  0  0  0  0
   -8.1566   16.9918   24.7361 C   0  0  0  0  0  0  0  0  0  0  0  0
   -9.6204   16.4662   24.7301 C   0  0  0  0  0  0  0  0  0  0  0  0
  -10.0178   15.5719   25.7655 O   0  0  0  0  0  0  0  0  0  0  0  0
   -9.8142   15.9763   23.3022 C   0  0  0  0  0  0  0  0  0  0  0  0
   -8.8137   16.7692   22.4535 C   0  0  0  0  0  0  0  0  0  0  0  0
   -8.7365   16.9696   21.0785 C   0  0  0  0  0  0  0  0  0  0  0  0
   -7.7068   17.7455   20.5351 C   0  0  0  0  0  0  0  0  0  0  0  0
   -6.7762   18.3223   21.3839 C   0  0  0  0  0  0  0  0  0  0  0  0
   -6.8862   18.1619   22.7500 C   0  0  0  0  0  0  0  0  0  0  0  0
   -7.8732   17.3517   23.2936 C   0  0  0  0  0  0  0  0  0  0  0  0
   -9.4961   14.7563   25.7061 H   0  0  0  0  0  0  0  0  0  0  0  0
  -11.6329   14.0582   29.3505 C   0  0  0  0  0  0  0  0  0  0  0  0
  -11.7327   14.6012   28.0666 O   0  0  0  0  0  0  0  0  0  0  0  0
  -11.9297   15.5488   28.1307 H   0  0  0  0  0  0  0  0  0  0  0  0
  -12.9811   14.2282   30.1219 C   0  0  0  0  0  0  0  0  0  0  0  0
  -13.4980   13.0446   30.8244 N   0  0  0  0  0  0  0  0  0  0  0  0
  -14.4291   13.3242   32.2603 S   0  0  0  0  0  0  0  0  0  0  0  0
  -15.7615   12.8530   32.4002 O   0  0  0  0  0  0  0  0  0  0  0  0
  -14.4320   14.7141   32.6121 O   0  0  0  0  0  0  0  0  0  0  0  0
  -12.4079   11.1321   35.6310 C   0  0  0  0  0  0  0  0  0  0  0  0
  -11.6697   12.0574   34.8975 C   0  0  0  0  0  0  0  0  0  0  0  0
  -12.2912   12.7119   33.8205 C   0  0  0  0  0  0  0  0  0  0  0  0
  -13.6222   12.4696   33.5795 C   0  0  0  0  0  0  0  0  0  0  0  0
  -14.3840   11.5908   34.3495 C   0  0  0  0  0  0  0  0  0  0  0  0
  -13.7551   10.8897   35.3879 C   0  0  0  0  0  0  0  0  0  0  0  0
  -11.3948   11.1166   37.8175 C   0  0  0  0  0  0  0  0  0  0  0  0
  -11.8026   10.4325   36.6342 O   0  0  0  0  0  0  0  0  0  0  0  0
  -12.9344   11.7840   30.3906 C   0  0  0  0  0  0  0  0  0  0  0  0
  -13.7214   10.4661   30.4213 C   0  0  0  0  0  0  0  0  0  0  0  0
  -13.3107    9.4784   31.5244 C   0  0  0  0  0  0  0  0  0  0  0  0
  -15.1985   10.5343   30.0431 C   0  0  0  0  0  0  0  0  0  0  0  0
  -10.9259   15.9143   31.0590 C   0  0  0  0  0  0  0  0  0  0  0  0
  -10.4898   15.6711   32.5059 C   0  0  0  0  0  0  0  0  0  0  0  0
   -9.2672   15.0437   32.7494 C   0  0  0  0  0  0  0  0  0  0  0  0
   -8.8703   14.8929   34.0732 C   0  0  0  0  0  0  0  0  0  0  0  0
   -9.7501   15.2787   35.0720 C   0  0  0  0  0  0  0  0  0  0  0  0
  -10.9877   15.8635   34.8495 C   0  0  0  0  0  0  0  0  0  0  0  0
  -11.3562   16.0601   33.5131 C   0  0  0  0  0  0  0  0  0  0  0  0
 38 39  1  0  0  0
 39 32  1  0  0  0
 32 33  2  0  0  0
 32 37  1  0  0  0
 33 34  1  0  0  0
 34 35  2  0  0  0
 35 36  1  0  0  0
 35 29  1  0  0  0
 36 37  2  0  0  0
 29 30  2  0  0  0
 29 31  2  0  0  0
 29 28  1  0  0  0
 28 40  1  0  0  0
 28 27  1  0  0  0
 40 41  1  0  0  0
 41 42  1  0  0  0
 41 43  1  0  0  0
 27 24  1  0  0  0
 24 25  1  0  0  0
 24  1  1  0  0  0
  1 44  1  0  0  0
  1  2  1  0  0  0
 44 45  1  0  0  0
 45 46  2  0  0  0
 45 50  1  0  0  0
 46 47  1  0  0  0
 47 48  2  0  0  0
 48 49  1  0  0  0
 49 50  2  0  0  0
  2  3  1  0  0  0
  2  6  1  0  0  0
  3  4  2  0  0  0
  4  7  1  0  0  0
  4  5  1  0  0  0
  7  8  1  0  0  0
  8  9  1  0  0  0
  9 10  2  0  0  0
  9 11  1  0  0  0
 11 13  1  0  0  0
 13 14  1  0  0  0
 13 22  1  0  0  0
 14 15  1  0  0  0
 14 16  1  0  0  0
 16 17  1  0  0  0
 17 18  2  0  0  0
 17 22  1  0  0  0
 18 19  1  0  0  0
 19 20  2  0  0  0
 20 21  1  0  0  0
 21 22  2  0  0  0
  5  6  2  0  0  0
 25 26  1  0  0  0
 11 12  1  0  0  0
 15 23  1  0  0  0
M  END
> <minimizedAffinity>
-8.42944

$$$$
1ZP8_AB2_A_200


 50 54  0  0  0  0  0  0  0  0999 V2000
   -6.9236   17.6009   25.6153 C   0  0  0  0  0  0  0  0  0  0  0  0
   -7.8138   17.0247   24.6077 N   0  0  0  0  0  0  0  0  0  0  0  0
   -7.5225   16.2635   23.5067 C   0  0  0  0  0  0  0  0  0  0  0  0
   -8.7156   16.0037   22.8639 C   0  0  0  0  0  0  0  0  0  0  0  0
   -9.7120   16.5394   23.6173 N   0  0  0  0  0  0  0  0  0  0  0  0
   -9.1604   17.1763   24.6008 N   0  0  0  0  0  0  0  0  0  0  0  0
   -8.8863   15.1701   21.6314 C   0  0  0  0  0  0  0  0  0  0  0  0
   -8.0392   15.7250   20.6331 O   0  0  0  0  0  0  0  0  0  0  0  0
   -8.3240   16.8018   19.8753 C   0  0  0  0  0  0  0  0  0  0  0  0
   -9.4105   17.3303   19.9798 O   0  0  0  0  0  0  0  0  0  0  0  0
   -7.3467   17.2099   19.0337 N   0  0  0  0  0  0  0  0  0  0  0  0
   -7.4675   16.9957   18.0804 H   0  0  0  0  0  0  0  0  0  0  0  0
   -6.1041   17.9516   19.4004 C   0  0  0  0  0  0  0  0  0  0  0  0
   -5.9305   18.2419   20.9185 C   0  0  0  0  0  0  0  0  0  0  0  0
   -6.4555   19.4619   21.4340 O   0  0  0  0  0  0  0  0  0  0  0  0
   -4.4494   17.9876   21.1600 C   0  0  0  0  0  0  0  0  0  0  0  0
   -4.0125   17.0129   20.0604 C   0  0  0  0  0  0  0  0  0  0  0  0
   -2.8828   16.2079   19.9468 C   0  0  0  0  0  0  0  0  0  0  0  0
   -2.7071   15.3930   18.8232 C   0  0  0  0  0  0  0  0  0  0  0  0
   -3.6779   15.3873   17.8349 C   0  0  0  0  0  0  0  0  0  0  0  0
   -4.8198   16.1490   17.9760 C   0  0  0  0  0  0  0  0  0  0  0  0
   -4.9777   16.9991   19.0616 C   0  0  0  0  0  0  0  0  0  0  0  0
   -6.0004   20.2109   21.0184 H   0  0  0  0  0  0  0  0  0  0  0  0
   -7.7089   17.7793   26.9651 C   0  0  0  0  0  0  0  0  0  0  0  0
   -7.1545   18.7715   27.7784 O   0  0  0  0  0  0  0  0  0  0  0  0
   -6.2502   18.5206   28.0236 H   0  0  0  0  0  0  0  0  0  0  0  0
   -7.7671   16.4169   27.7281 C   0  0  0  0  0  0  0  0  0  0  0  0
   -9.0663   16.0294   28.2970 N   0  0  0  0  0  0  0  0  0  0  0  0
   -9.7401   17.0731   29.5068 S   0  0  0  0  0  0  0  0  0  0  0  0
  -10.9549   17.7798   29.3031 O   0  0  0  0  0  0  0  0  0  0  0  0
   -8.7700   18.0222   29.9692 O   0  0  0  0  0  0  0  0  0  0  0  0
  -10.7713   14.4969   33.0498 C   0  0  0  0  0  0  0  0  0  0  0  0
  -11.7448   14.7198   32.0793 C   0  0  0  0  0  0  0  0  0  0  0  0
  -11.4336   15.5563   30.9939 C   0  0  0  0  0  0  0  0  0  0  0  0
  -10.1595   16.0614   30.8932 C   0  0  0  0  0  0  0  0  0  0  0  0
   -9.1612   15.7913   31.8291 C   0  0  0  0  0  0  0  0  0  0  0  0
   -9.4819   15.0063   32.9455 C   0  0  0  0  0  0  0  0  0  0  0  0
  -12.2752   14.0202   34.8713 C   0  0  0  0  0  0  0  0  0  0  0  0
  -11.0763   13.7472   34.1484 O   0  0  0  0  0  0  0  0  0  0  0  0
   -9.4922   14.6824   27.9820 C   0  0  0  0  0  0  0  0  0  0  0  0
  -10.7864   14.3768   27.2147 C   0  0  0  0  0  0  0  0  0  0  0  0
  -11.5778   13.1586   27.7154 C   0  0  0  0  0  0  0  0  0  0  0  0
  -11.5784   15.5721   26.6917 C   0  0  0  0  0  0  0  0  0  0  0  0
   -6.1712   18.9101   25.1706 C   0  0  0  0  0  0  0  0  0  0  0  0
   -4.7254   18.5482   24.8216 C   0  0  0  0  0  0  0  0  0  0  0  0
   -3.8513   19.5591   24.4198 C   0  0  0  0  0  0  0  0  0  0  0  0
   -2.5294   19.2090   24.1698 C   0  0  0  0  0  0  0  0  0  0  0  0
   -2.1799   17.8696   24.2341 C   0  0  0  0  0  0  0  0  0  0  0  0
   -3.0450   16.8455   24.5888 C   0  0  0  0  0  0  0  0  0  0  0  0
   -4.3615   17.2143   24.8906 C   0  0  0  0  0  0  0  0  0  0  0  0
 38 39  1  0  0  0
 39 32  1  0  0  0
 32 33  2  0  0  0
 32 37  1  0  0  0
 33 34  1  0  0  0
 34 35  2  0  0  0
 35 36  1  0  0  0
 35 29  1  0  0  0
 36 37  2  0  0  0
 29 30  2  0  0  0
 29 31  2  0  0  0
 29 28  1  0  0  0
 28 40  1  0  0  0
 28 27  1  0  0  0
 40 41  1  0  0  0
 41 42  1  0  0  0
 41 43  1  0  0  0
 27 24  1  0  0  0
 24 25  1  0  0  0
 24  1  1  0  0  0
  1 44  1  0  0  0
  1  2  1  0  0  0
 44 45  1  0  0  0
 45 46  2  0  0  0
 45 50  1  0  0  0
 46 47  1  0  0  0
 47 48  2  0  0  0
 48 49  1  0  0  0
 49 50  2  0  0  0
  2  3  1  0  0  0
  2  6  1  0  0  0
  3  4  2  0  0  0
  4  7  1  0  0  0
  4  5  1  0  0  0
  7  8  1  0  0  0
  8  9  1  0  0  0
  9 10  2  0  0  0
  9 11  1  0  0  0
 11 13  1  0  0  0
 13 14  1  0  0  0
 13 22  1  0  0  0
 14 15  1  0  0  0
 14 16  1  0  0  0
 16 17  1  0  0  0
 17 18  2  0  0  0
 17 22  1  0  0  0
 18 19  1  0  0  0
 19 20  2  0  0  0
 20 21  1  0  0  0
 21 22  2  0  0  0
  5  6  2  0  0  0
 25 26  1  0  0  0
 11 12  1  0  0  0
 15 23  1  0  0  0
M  END
> <minimizedAffinity>
-8.36627

$$$$
