1ZP8_AB2_A_200
  RCSB PDB12061704543D
Coordinates from PDB:1ZP8:A:200 Model:1 without hydrogens
 47 51  0  0  0  0            999 V2000
   -6.6180   16.2430   18.1490   C 0  0  0  0  0  0  0  0  0  0  0  0
   -7.7260   16.9060   18.7550   O 0  0  0  0  0  0  0  0  0  0  0  0
   -7.9860   16.7020   20.0790   C 0  0  0  0  0  0  0  0  0  0  0  0
   -9.2780   16.8930   20.5620   C 0  0  0  0  0  0  0  0  0  0  0  0
   -9.5410   16.6050   21.9120   C 0  0  0  0  0  0  0  0  0  0  0  0
   -8.4990   16.2180   22.7200   C 0  0  0  0  0  0  0  0  0  0  0  0
   -7.1900   16.0850   22.2570   C 0  0  0  0  0  0  0  0  0  0  0  0
   -6.9320   16.3130   20.8980   C 0  0  0  0  0  0  0  0  0  0  0  0
   -8.8060   15.9020   24.4310   S 0  0  0  0  0  0  0  0  0  0  0  0
  -10.0130   15.1570   24.3620   O 0  0  0  0  0  0  0  0  0  0  0  0
   -7.7790   15.0050   24.8740   O 0  0  0  0  0  0  0  0  0  0  0  0
   -8.7070   17.4230   25.2580   N 0  0  0  0  0  0  0  0  0  0  0  0
   -7.5030   18.0780   25.7230   C 0  0  0  0  0  0  0  0  0  0  0  0
   -6.6320   17.5130   26.8540   C 0  0  0  0  0  0  0  0  0  0  0  0
   -5.6470   16.4090   26.4390   C 0  0  0  0  0  0  0  0  0  0  0  0
   -6.1870   18.4910   27.9380   C 0  0  0  0  0  0  0  0  0  0  0  0
   -9.9590   17.9730   25.7980   C 0  0  0  0  0  0  0  0  0  0  0  0
  -10.1640   17.8750   27.3440   C 0  0  0  0  0  0  0  0  0  0  0  0
  -11.1500   18.7720   27.7640   O 0  0  0  0  0  0  0  0  0  0  0  0
  -10.4920   16.3910   27.7450   C 0  0  0  0  0  0  0  0  0  0  0  0
  -12.0240   16.0510   27.6220   C 0  0  0  0  0  0  0  0  0  0  0  0
  -12.2110   14.5490   27.8500   C 0  0  0  0  0  0  0  0  0  0  0  0
  -12.0220   13.6720   26.7810   C 0  0  0  0  0  0  0  0  0  0  0  0
  -12.1380   12.3100   27.0340   C 0  0  0  0  0  0  0  0  0  0  0  0
  -12.5320   11.9070   28.3000   C 0  0  0  0  0  0  0  0  0  0  0  0
  -12.7670   12.7660   29.3630   C 0  0  0  0  0  0  0  0  0  0  0  0
  -12.5960   14.1330   29.1130   C 0  0  0  0  0  0  0  0  0  0  0  0
   -9.8940   16.0960   29.0470   N 0  0  0  0  0  0  0  0  0  0  0  0
  -10.3870   16.2980   30.3090   C 0  0  0  0  0  0  0  0  0  0  0  0
   -9.4170   15.8800   31.1970   C 0  0  0  0  0  0  0  0  0  0  0  0
   -9.5350   15.8770   32.6900   C 0  0  0  0  0  0  0  0  0  0  0  0
  -10.8310   15.3830   33.0040   O 0  0  0  0  0  0  0  0  0  0  0  0
  -11.3870   15.3690   34.2310   C 0  0  0  0  0  0  0  0  0  0  0  0
  -11.4670   16.4040   34.8580   O 0  0  0  0  0  0  0  0  0  0  0  0
  -11.8160   14.1650   34.6740   N 0  0  0  0  0  0  0  0  0  0  0  0
  -13.0490   13.4420   34.2430   C 0  0  0  0  0  0  0  0  0  0  0  0
  -13.4450   13.6400   32.7520   C 0  0  0  0  0  0  0  0  0  0  0  0
  -14.3200   14.7160   32.4260   O 0  0  0  0  0  0  0  0  0  0  0  0
  -13.8900   12.2510   32.3170   C 0  0  0  0  0  0  0  0  0  0  0  0
  -13.1720   11.2740   33.2550   C 0  0  0  0  0  0  0  0  0  0  0  0
  -12.9540    9.9030   33.1560   C 0  0  0  0  0  0  0  0  0  0  0  0
  -12.2610    9.2240   34.1640   C 0  0  0  0  0  0  0  0  0  0  0  0
  -11.7830    9.9360   35.2520   C 0  0  0  0  0  0  0  0  0  0  0  0
  -11.9580   11.3030   35.3210   C 0  0  0  0  0  0  0  0  0  0  0  0
  -12.6890   11.9760   34.3520   C 0  0  0  0  0  0  0  0  0  0  0  0
   -8.3910   15.3640   30.4700   N 0  0  0  0  0  0  0  0  0  0  0  0
   -8.6660   15.5490   29.2180   N 0  0  0  0  0  0  0  0  0  0  0  0
  1  2  1  0  0  0  0
  2  3  1  0  0  0  0
  3  4  2  0  0  0  0
  3  8  1  0  0  0  0
  4  5  1  0  0  0  0
  5  6  2  0  0  0  0
  6  7  1  0  0  0  0
  6  9  1  0  0  0  0
  7  8  2  0  0  0  0
  9 10  2  0  0  0  0
  9 11  2  0  0  0  0
  9 12  1  0  0  0  0
 12 13  1  0  0  0  0
 12 17  1  0  0  0  0
 13 14  1  0  0  0  0
 14 15  1  0  0  0  0
 14 16  1  0  0  0  0
 17 18  1  0  0  0  0
 18 19  1  0  0  0  0
 18 20  1  0  0  0  0
 20 21  1  0  0  0  0
 20 28  1  0  0  0  0
 21 22  1  0  0  0  0
 22 23  2  0  0  0  0
 22 27  1  0  0  0  0
 23 24  1  0  0  0  0
 24 25  2  0  0  0  0
 25 26  1  0  0  0  0
 26 27  2  0  0  0  0
 28 29  1  0  0  0  0
 28 47  1  0  0  0  0
 29 30  2  0  0  0  0
 30 31  1  0  0  0  0
 30 46  1  0  0  0  0
 31 32  1  0  0  0  0
 32 33  1  0  0  0  0
 33 34  2  0  0  0  0
 33 35  1  0  0  0  0
 35 36  1  0  0  0  0
 36 37  1  0  0  0  0
 36 45  1  0  0  0  0
 37 38  1  0  0  0  0
 37 39  1  0  0  0  0
 39 40  1  0  0  0  0
 40 41  2  0  0  0  0
 40 45  1  0  0  0  0
 41 42  1  0  0  0  0
 42 43  2  0  0  0  0
 43 44  1  0  0  0  0
 44 45  2  0  0  0  0
 46 47  2  0  0  0  0
A    1
C1
A    2
O1
A    3
C2
A    4
C3
A    5
C4
A    6
C5
A    7
C6
A    8
C7
A    9
S1
A   10
O2
A   11
O3
A   12
N1
A   13
C8
A   14
C9
A   15
C10
A   16
C11
A   17
C12
A   18
C13
A   19
O4
A   20
C14
A   21
C15
A   22
C16
A   23
C17
A   24
C18
A   25
C19
A   26
C20
A   27
C21
A   28
N2
A   29
C22
A   30
C23
A   31
C24
A   32
O5
A   33
C25
A   34
O6
A   35
N3
A   36
C26
A   37
C27
A   38
O7
A   39
C28
A   40
C29
A   41
C30
A   42
C31
A   43
C32
A   44
C33
A   45
C34
A   46
N4
A   47
N5
M  END
>  <InstanceId>
1ZP8_AB2_A_200

>  <ChemCompId>
AB2

>  <PdbId>
1ZP8

>  <ChainId>
A

>  <ResidueNumber>
200

>  <InsertionCode>


>  <Model>
1

>  <AltIds>


>  <MissingHeavyAtoms>
0

>  <ObservedFormula>
C34 N5 O7 S

>  <Name>
[1-((1S,2R)-1-BENZYL-2-HYDROXY-3-{ISOBUTYL[(4-METHOXYPHENYL)SULFONYL]AMINO}PROPYL)-1H-1,2,3-TRIAZOL-4-YL]METHYL (1R,2R)-2-HYDROXY-2,3-DIHYDRO-1H-INDEN-1-YLCARBAMATE

>  <SystematicName>
[1-[(2S,3R)-3-hydroxy-4-[(4-methoxyphenyl)sulfonyl-(2-methylpropyl)amino]-1-phenyl-butan-2-yl]-1,2,3-triazol-4-yl]methyl N-[(1R,2R)-2-hydroxy-2,3-dihydro-1H-inden-1-yl]carbamate

>  <Synonyms>


>  <Type>
NON-POLYMER

>  <Formula>
C34 H41 N5 O7 S

>  <MolecularWeight>
663.784

>  <ModifiedDate>
2011-06-04

>  <Parent>


>  <OneLetterCode>


>  <SubcomponentList>


>  <AmbiguousFlag>
N

>  <InChI>
InChI=1S/C34H41N5O7S/c1-23(2)19-38(47(43,44)28-15-13-27(45-3)14-16-28)21-32(41)30(17-24-9-5-4-6-10-24)39-20-26(36-37-39)22-46-34(42)35-33-29-12-8-7-11-25(29)18-31(33)40/h4-16,20,23,30-33,40-41H,17-19,21-22H2,1-3H3,(H,35,42)/t30-,31+,32+,33+/m0/s1

>  <InChIKey>
MEWAZRJLRMEJDV-LDLFXXLYSA-N

>  <SMILES>
CC(C)CN(C[C@H]([C@H](Cc1ccccc1)n2cc(nn2)COC(=O)N[C@@H]3c4ccccc4C[C@H]3O)O)S(=O)(=O)c5ccc(cc5)OC

$$$$
