3FFG_FFG_A_1
  RCSB PDB12061708353D
Coordinates from PDB:3FFG:A:1 Model:1 without hydrogens
 45 51  0  0  0  0            999 V2000
   36.6140   33.2620   19.7820   C 0  0  0  0  0  0  0  0  0  0  0  0
   36.7670   27.7520   14.2930   C 0  0  0  0  0  0  0  0  0  0  0  0
   36.8410   34.3820   22.1520   C 0  0  0  0  0  0  0  0  0  0  0  0
   33.5320   28.7330   15.2920   C 0  0  0  0  0  0  0  0  0  0  0  0
   38.6590   28.2940   12.7470   C 0  0  0  0  0  0  0  0  0  0  0  0
   35.4040   31.4060   17.9210   C 0  0  0  0  0  0  0  0  0  0  0  0
   34.9070   28.7900   15.4800   C 0  0  0  0  0  0  0  0  0  0  0  0
   33.2850   27.8510   14.2150   C 0  0  0  0  0  0  0  0  0  0  0  0
   39.0680   29.0040   11.5300   C 0  0  0  0  0  0  0  0  0  0  0  0
   35.5640   29.5850   16.4270   C 0  0  0  0  0  0  0  0  0  0  0  0
   38.9780   30.1660    9.7490   C 0  0  0  0  0  0  0  0  0  0  0  0
   35.3750   32.8400   17.6210   C 0  0  0  0  0  0  0  0  0  0  0  0
   37.2660   28.4250   13.1240   C 0  0  0  0  0  0  0  0  0  0  0  0
   33.4070   30.7870   16.6210   C 0  0  0  0  0  0  0  0  0  0  0  0
   38.9910   36.0160   21.2350   C 0  0  0  0  0  0  0  0  0  0  0  0
   38.5640   36.1660   22.6180   C 0  0  0  0  0  0  0  0  0  0  0  0
   39.0800   26.8010   14.7210   C 0  0  0  0  0  0  0  0  0  0  0  0
   38.3730   35.0780   20.3080   C 0  0  0  0  0  0  0  0  0  0  0  0
   36.6350   31.8220   20.0710   C 0  0  0  0  0  0  0  0  0  0  0  0
   35.9800   33.7680   18.5530   C 0  0  0  0  0  0  0  0  0  0  0  0
   39.5910   27.4790   13.5410   C 0  0  0  0  0  0  0  0  0  0  0  0
   37.4750   35.3360   23.0790   C 0  0  0  0  0  0  0  0  0  0  0  0
   37.6730   26.9410   15.0880   C 0  0  0  0  0  0  0  0  0  0  0  0
   36.0280   30.8860   19.1390   C 0  0  0  0  0  0  0  0  0  0  0  0
   37.2610   34.2260   20.7580   C 0  0  0  0  0  0  0  0  0  0  0  0
   32.6270   29.5410   16.1960   C 0  0  0  0  0  0  0  0  0  0  0  0
   32.2770   34.3020   22.9970   C 0  0  0  0  0  0  0  0  0  0  0  0
   33.3870   33.5270   23.6680   C 0  0  0  0  0  0  0  0  0  0  0  0
   34.0580   35.3290   22.1250   C 0  0  0  0  0  0  0  0  0  0  0  0
   32.7100   34.8070   21.6280   C 0  0  0  0  0  0  0  0  0  0  0  0
   35.7070   33.5390   22.7290   C 0  0  0  0  0  0  0  0  0  0  0  0
   31.9730   27.5320   13.5760   C 0  0  0  0  0  0  0  0  0  0  0  0
   34.4610   27.3890   13.7880   N 0  0  0  0  0  0  0  0  0  0  0  0
   40.2860   28.9960   10.9840   N 0  0  0  0  0  0  0  0  0  0  0  0
   35.4420   27.9580   14.5440   N 0  0  0  0  0  0  0  0  0  0  0  0
   38.2450   29.7700   10.7730   N 0  0  0  0  0  0  0  0  0  0  0  0
   40.2260   29.6870    9.9430   N 0  0  0  0  0  0  0  0  0  0  0  0
   34.8290   30.5730   17.0010   N 0  0  0  0  0  0  0  0  0  0  0  0
   34.5210   34.3170   23.1170   N 0  0  0  0  0  0  0  0  0  0  0  0
   36.7510   29.4060   16.7070   O 0  0  0  0  0  0  0  0  0  0  0  0
   38.5810   30.8410    8.7980   O 0  0  0  0  0  0  0  0  0  0  0  0
   31.8980   35.9070   21.1980   O 0  0  0  0  0  0  0  0  0  0  0  0
   31.0540   27.4860   14.5030   F 0  0  0  0  0  0  0  0  0  0  0  0
   31.7570   28.4830   12.6760   F 0  0  0  0  0  0  0  0  0  0  0  0
   32.0940   26.3880   12.9400   F 0  0  0  0  0  0  0  0  0  0  0  0
  1 19  2  0  0  0  0
  1 20  1  0  0  0  0
  1 25  1  0  0  0  0
  2 13  2  0  0  0  0
  2 23  1  0  0  0  0
  2 35  1  0  0  0  0
  3 22  2  0  0  0  0
  3 25  1  0  0  0  0
  3 31  1  0  0  0  0
  4  7  2  0  0  0  0
  4  8  1  0  0  0  0
  4 26  1  0  0  0  0
  5  9  1  0  0  0  0
  5 13  1  0  0  0  0
  5 21  2  0  0  0  0
  6 12  1  0  0  0  0
  6 24  2  0  0  0  0
  6 38  1  0  0  0  0
  7 10  1  0  0  0  0
  7 35  1  0  0  0  0
  8 32  1  0  0  0  0
  8 33  2  0  0  0  0
  9 34  2  0  0  0  0
  9 36  1  0  0  0  0
 10 38  1  0  0  0  0
 10 40  2  0  0  0  0
 11 36  1  0  0  0  0
 11 37  1  0  0  0  0
 11 41  2  0  0  0  0
 12 20  2  0  0  0  0
 14 26  1  0  0  0  0
 14 38  1  0  0  0  0
 15 16  2  0  0  0  0
 15 18  1  0  0  0  0
 16 22  1  0  0  0  0
 17 21  1  0  0  0  0
 17 23  2  0  0  0  0
 18 25  2  0  0  0  0
 19 24  1  0  0  0  0
 27 28  1  0  0  0  0
 27 30  1  0  0  0  0
 28 39  1  0  0  0  0
 29 30  1  0  0  0  0
 29 39  1  0  0  0  0
 30 42  1  0  0  0  0
 31 39  1  0  0  0  0
 32 43  1  0  0  0  0
 32 44  1  0  0  0  0
 32 45  1  0  0  0  0
 33 35  1  0  0  0  0
 34 37  1  0  0  0  0
A    1
C13
A    2
C18
A    3
C17
A    4
C16
A    5
C15
A    6
C19
A    7
C20
A    8
C21
A    9
C22
A   10
C23
A   11
C24
A   12
C11
A   13
C12
A   14
C27
A   15
C1
A   16
C2
A   17
C3
A   18
C4
A   19
C5
A   20
C6
A   21
C7
A   22
C8
A   23
C9
A   24
C10
A   25
C14
A   26
C25
A   27
C26
A   28
C28
A   29
C29
A   30
C30
A   31
C31
A   32
C32
A   33
N33
A   34
N34
A   35
N35
A   36
N36
A   37
N37
A   38
N38
A   39
N39
A   40
O40
A   41
O41
A   42
O42
A   43
F43
A   44
F44
A   45
F45
M  END
>  <InstanceId>
3FFG_FFG_A_1

>  <ChemCompId>
FFG

>  <PdbId>
3FFG

>  <ChainId>
A

>  <ResidueNumber>
1

>  <InsertionCode>


>  <Model>
1

>  <AltIds>


>  <MissingHeavyAtoms>
0

>  <ObservedFormula>
C32 N7 O3 F3

>  <Name>
(R)-6-(2'-((3-hydroxypyrrolidin-1-yl)methyl)biphenyl-4-yl)-1-(3-(5-oxo-4,5-dihydro-1h-1,2,4-triazol-3-yl)phenyl)-3-(trifluoromethyl)-5,6-dihydro-1h-pyrazolo[3,4-c]pyridin-7(4h)-one

>  <SystematicName>
6-[4-[2-[[(1S,3R)-3-hydroxypyrrolidin-1-yl]methyl]phenyl]phenyl]-1-[3-(5-oxo-1,4-dihydro-1,2,4-triazol-3-yl)phenyl]-3-(trifluoromethyl)-4,5-dihydropyrazolo[5,4-c]pyridin-7-one

>  <Synonyms>
6-(2'-{[(3R)-3-hydroxypyrrolidin-1-yl]methyl}biphenyl-4-yl)-1-[3-(5-oxo-4,5-dihydro-1H-1,2,4-triazol-3-yl)phenyl]-3-(trifluoromethyl)-1,4,5,6-tetrahydro-7H-pyrazolo[3,4-c]pyridin-7-one

>  <Type>
NON-POLYMER

>  <Formula>
C32 H28 F3 N7 O3

>  <MolecularWeight>
615.605

>  <ModifiedDate>
2011-06-04

>  <Parent>


>  <OneLetterCode>


>  <SubcomponentList>


>  <AmbiguousFlag>
N

>  <InChI>
InChI=1S/C32H28F3N7O3/c33-32(34,35)28-26-13-15-41(30(44)27(26)42(39-28)23-6-3-5-20(16-23)29-36-31(45)38-37-29)22-10-8-19(9-11-22)25-7-2-1-4-21(25)17-40-14-12-24(43)18-40/h1-11,16,24,43H,12-15,17-18H2,(H2,36,37,38,45)/t24-/m1/s1

>  <InChIKey>
YBWAYLVOTDFQQI-XMMPIXPASA-N

>  <SMILES>
c1ccc(c(c1)C[N@@]2CC[C@H](C2)O)c3ccc(cc3)N4CCc5c(n(nc5C(F)(F)F)c6cccc(c6)C7=NNC(=O)N7)C4=O

$$$$
