3C39_3PG_A_417


 15 14  0  0  0  0  0  0  0  0999 V2000
    5.1145    7.2858   23.4582 C   0  0  0  0  0  0  0  0  0  0  0  0
    6.3929    7.2235   22.6215 C   0  0  0  0  0  0  0  0  0  0  0  0
    6.6114    5.9404   22.0462 O   0  0  0  0  0  0  0  0  0  0  0  0
    5.8952    5.7390   21.4237 H   0  0  0  0  0  0  0  0  0  0  0  0
    6.4075    8.2982   21.5429 C   0  0  0  0  0  0  0  0  0  0  0  0
    7.4744    8.8947   21.3654 O   0  0  0  0  0  0  0  0  0  0  0  0
    5.4213    8.4716   20.8147 O   0  0  0  0  0  0  0  0  0  0  0  0
    4.6282    8.0010   20.9802 H   0  0  0  0  0  0  0  0  0  0  0  0
    4.4624    8.5591   23.3371 O   0  0  0  0  0  0  0  0  0  0  0  0
    4.6171    9.6718   24.5105 P   0  0  0  0  0  0  0  0  0  0  0  0
    5.2653    8.9723   25.6383 O   0  0  0  0  0  0  0  0  0  0  0  0
    3.1828   10.0714   24.8269 O   0  0  0  0  0  0  0  0  0  0  0  0
    5.5600   10.6441   23.8503 O   0  0  0  0  0  0  0  0  0  0  0  0
    2.7249    9.3268   25.2473 H   0  0  0  0  0  0  0  0  0  0  0  0
    6.4246   10.2222   23.7259 H   0  0  0  0  0  0  0  0  0  0  0  0
  5  6  2  0  0  0
  5  7  1  0  0  0
  5  2  1  0  0  0
  2  3  1  0  0  0
  2  1  1  0  0  0
  1  9  1  0  0  0
  9 10  1  0  0  0
 10 11  2  0  0  0
 10 12  1  0  0  0
 10 13  1  0  0  0
  7  8  1  0  0  0
  3  4  1  0  0  0
 12 14  1  0  0  0
 13 15  1  0  0  0
M  END
> <minimizedAffinity>
-6.53136

$$$$
3C39_3PG_A_417


 15 14  0  0  0  0  0  0  0  0999 V2000
    6.0158    8.4104   24.8299 C   0  0  0  0  0  0  0  0  0  0  0  0
    5.3607    9.7920   24.8362 C   0  0  0  0  0  0  0  0  0  0  0  0
    6.1136   10.7607   24.1153 O   0  0  0  0  0  0  0  0  0  0  0  0
    6.1543   10.5077   23.1798 H   0  0  0  0  0  0  0  0  0  0  0  0
    3.9313    9.7349   24.3145 C   0  0  0  0  0  0  0  0  0  0  0  0
    3.0444   10.1358   25.0748 O   0  0  0  0  0  0  0  0  0  0  0  0
    3.7023    9.4061   23.1430 O   0  0  0  0  0  0  0  0  0  0  0  0
    4.4011    9.1065   22.5953 H   0  0  0  0  0  0  0  0  0  0  0  0
    5.7257    7.6909   23.6218 O   0  0  0  0  0  0  0  0  0  0  0  0
    6.8236    7.6240   22.4264 P   0  0  0  0  0  0  0  0  0  0  0  0
    8.1405    7.6480   23.0946 O   0  0  0  0  0  0  0  0  0  0  0  0
    6.5628    8.8879   21.6193 O   0  0  0  0  0  0  0  0  0  0  0  0
    6.5240    6.2652   21.8483 O   0  0  0  0  0  0  0  0  0  0  0  0
    6.8122    9.6643   22.1446 H   0  0  0  0  0  0  0  0  0  0  0  0
    6.7502    5.5807   22.4972 H   0  0  0  0  0  0  0  0  0  0  0  0
  5  6  2  0  0  0
  5  7  1  0  0  0
  5  2  1  0  0  0
  2  3  1  0  0  0
  2  1  1  0  0  0
  1  9  1  0  0  0
  9 10  1  0  0  0
 10 11  2  0  0  0
 10 12  1  0  0  0
 10 13  1  0  0  0
  7  8  1  0  0  0
  3  4  1  0  0  0
 12 14  1  0  0  0
 13 15  1  0  0  0
M  END
> <minimizedAffinity>
-6.34609

$$$$
3C39_3PG_A_417


 15 14  0  0  0  0  0  0  0  0999 V2000
    6.2240    8.0816   23.7854 C   0  0  0  0  0  0  0  0  0  0  0  0
    5.0133    7.6776   22.9433 C   0  0  0  0  0  0  0  0  0  0  0  0
    3.8220    7.5624   23.7129 O   0  0  0  0  0  0  0  0  0  0  0  0
    3.5911    8.4288   24.0828 H   0  0  0  0  0  0  0  0  0  0  0  0
    4.8011    8.6322   21.7761 C   0  0  0  0  0  0  0  0  0  0  0  0
    3.9112    9.4791   21.9040 O   0  0  0  0  0  0  0  0  0  0  0  0
    5.5675    8.6166   20.8038 O   0  0  0  0  0  0  0  0  0  0  0  0
    6.2311    7.9582   20.7409 H   0  0  0  0  0  0  0  0  0  0  0  0
    6.3769    9.5080   23.8449 O   0  0  0  0  0  0  0  0  0  0  0  0
    5.8489   10.3335   25.1406 P   0  0  0  0  0  0  0  0  0  0  0  0
    6.3857    9.6161   26.3146 O   0  0  0  0  0  0  0  0  0  0  0  0
    4.3331   10.2323   25.0458 O   0  0  0  0  0  0  0  0  0  0  0  0
    6.5474   11.6526   24.9343 O   0  0  0  0  0  0  0  0  0  0  0  0
    4.0597    9.3153   25.2051 H   0  0  0  0  0  0  0  0  0  0  0  0
    7.5047   11.5301   25.0308 H   0  0  0  0  0  0  0  0  0  0  0  0
  5  6  2  0  0  0
  5  7  1  0  0  0
  5  2  1  0  0  0
  2  3  1  0  0  0
  2  1  1  0  0  0
  1  9  1  0  0  0
  9 10  1  0  0  0
 10 11  2  0  0  0
 10 12  1  0  0  0
 10 13  1  0  0  0
  7  8  1  0  0  0
  3  4  1  0  0  0
 12 14  1  0  0  0
 13 15  1  0  0  0
M  END
> <minimizedAffinity>
-6.19770

$$$$
3C39_3PG_A_417


 15 14  0  0  0  0  0  0  0  0999 V2000
    6.6969    7.8198   23.7624 C   0  0  0  0  0  0  0  0  0  0  0  0
    6.3866    7.0368   22.4862 C   0  0  0  0  0  0  0  0  0  0  0  0
    7.1495    7.4803   21.3699 O   0  0  0  0  0  0  0  0  0  0  0  0
    8.0914    7.3208   21.5381 H   0  0  0  0  0  0  0  0  0  0  0  0
    6.5679    5.5390   22.6917 C   0  0  0  0  0  0  0  0  0  0  0  0
    6.4824    5.1215   23.8509 O   0  0  0  0  0  0  0  0  0  0  0  0
    6.6816    4.7802   21.7199 O   0  0  0  0  0  0  0  0  0  0  0  0
    6.7439    5.1336   20.8544 H   0  0  0  0  0  0  0  0  0  0  0  0
    6.0794    9.1159   23.7533 O   0  0  0  0  0  0  0  0  0  0  0  0
    4.5586    9.3007   24.2935 P   0  0  0  0  0  0  0  0  0  0  0  0
    4.2392    8.0529   25.0162 O   0  0  0  0  0  0  0  0  0  0  0  0
    3.7358    9.4584   23.0226 O   0  0  0  0  0  0  0  0  0  0  0  0
    4.7385   10.4566   25.2431 O   0  0  0  0  0  0  0  0  0  0  0  0
    3.7281    8.6191   22.5363 H   0  0  0  0  0  0  0  0  0  0  0  0
    5.2873   10.1771   25.9925 H   0  0  0  0  0  0  0  0  0  0  0  0
  5  6  2  0  0  0
  5  7  1  0  0  0
  5  2  1  0  0  0
  2  3  1  0  0  0
  2  1  1  0  0  0
  1  9  1  0  0  0
  9 10  1  0  0  0
 10 11  2  0  0  0
 10 12  1  0  0  0
 10 13  1  0  0  0
  7  8  1  0  0  0
  3  4  1  0  0  0
 12 14  1  0  0  0
 13 15  1  0  0  0
M  END
> <minimizedAffinity>
-6.08648

$$$$
3C39_3PG_A_417


 15 14  0  0  0  0  0  0  0  0999 V2000
    5.1076    7.1132   23.6759 C   0  0  0  0  0  0  0  0  0  0  0  0
    6.3802    6.3848   23.2422 C   0  0  0  0  0  0  0  0  0  0  0  0
    6.1389    5.4091   22.2349 O   0  0  0  0  0  0  0  0  0  0  0  0
    5.8154    5.8466   21.4319 H   0  0  0  0  0  0  0  0  0  0  0  0
    7.4559    7.3620   22.7878 C   0  0  0  0  0  0  0  0  0  0  0  0
    7.3080    7.8749   21.6740 O   0  0  0  0  0  0  0  0  0  0  0  0
    8.3655    7.6984   23.5575 O   0  0  0  0  0  0  0  0  0  0  0  0
    8.4464    7.2867   24.3954 H   0  0  0  0  0  0  0  0  0  0  0  0
    5.4014    8.2430   24.5118 O   0  0  0  0  0  0  0  0  0  0  0  0
    4.7794    9.7024   24.1621 P   0  0  0  0  0  0  0  0  0  0  0  0
    4.4506    9.6597   22.7229 O   0  0  0  0  0  0  0  0  0  0  0  0
    5.9170   10.6671   24.4659 O   0  0  0  0  0  0  0  0  0  0  0  0
    3.5353    9.6862   25.0120 O   0  0  0  0  0  0  0  0  0  0  0  0
    6.6306   10.5386   23.8216 H   0  0  0  0  0  0  0  0  0  0  0  0
    2.9223    9.0142   24.6751 H   0  0  0  0  0  0  0  0  0  0  0  0
  5  6  2  0  0  0
  5  7  1  0  0  0
  5  2  1  0  0  0
  2  3  1  0  0  0
  2  1  1  0  0  0
  1  9  1  0  0  0
  9 10  1  0  0  0
 10 11  2  0  0  0
 10 12  1  0  0  0
 10 13  1  0  0  0
  7  8  1  0  0  0
  3  4  1  0  0  0
 12 14  1  0  0  0
 13 15  1  0  0  0
M  END
> <minimizedAffinity>
-5.77852

$$$$
3C39_3PG_A_417


 15 14  0  0  0  0  0  0  0  0999 V2000
    5.5264    7.1497   24.4033 C   0  0  0  0  0  0  0  0  0  0  0  0
    6.5161    6.1319   23.8354 C   0  0  0  0  0  0  0  0  0  0  0  0
    5.9279    5.2777   22.8611 O   0  0  0  0  0  0  0  0  0  0  0  0
    5.6456    5.8047   22.0973 H   0  0  0  0  0  0  0  0  0  0  0  0
    7.7533    6.8132   23.2664 C   0  0  0  0  0  0  0  0  0  0  0  0
    8.8476    6.3387   23.5872 O   0  0  0  0  0  0  0  0  0  0  0  0
    7.6432    7.7246   22.4357 O   0  0  0  0  0  0  0  0  0  0  0  0
    6.7958    8.0596   22.2174 H   0  0  0  0  0  0  0  0  0  0  0  0
    4.5560    7.5500   23.4239 O   0  0  0  0  0  0  0  0  0  0  0  0
    4.4244    9.1110   22.9939 P   0  0  0  0  0  0  0  0  0  0  0  0
    5.7311    9.7220   23.3109 O   0  0  0  0  0  0  0  0  0  0  0  0
    3.3082    9.6422   23.8822 O   0  0  0  0  0  0  0  0  0  0  0  0
    4.2263    8.9748   21.5064 O   0  0  0  0  0  0  0  0  0  0  0  0
    3.6100    9.6614   24.8039 H   0  0  0  0  0  0  0  0  0  0  0  0
    5.0356    8.6235   21.1033 H   0  0  0  0  0  0  0  0  0  0  0  0
  5  6  2  0  0  0
  5  7  1  0  0  0
  5  2  1  0  0  0
  2  3  1  0  0  0
  2  1  1  0  0  0
  1  9  1  0  0  0
  9 10  1  0  0  0
 10 11  2  0  0  0
 10 12  1  0  0  0
 10 13  1  0  0  0
  7  8  1  0  0  0
  3  4  1  0  0  0
 12 14  1  0  0  0
 13 15  1  0  0  0
M  END
> <minimizedAffinity>
-5.47569

$$$$
3C39_3PG_A_417


 15 14  0  0  0  0  0  0  0  0999 V2000
    5.8287    6.9388   22.8066 C   0  0  0  0  0  0  0  0  0  0  0  0
    5.7673    8.3923   22.3358 C   0  0  0  0  0  0  0  0  0  0  0  0
    5.4793    8.5087   20.9472 O   0  0  0  0  0  0  0  0  0  0  0  0
    4.5954    8.1508   20.7692 H   0  0  0  0  0  0  0  0  0  0  0  0
    4.7715    9.2030   23.1542 C   0  0  0  0  0  0  0  0  0  0  0  0
    5.0875   10.3665   23.4224 O   0  0  0  0  0  0  0  0  0  0  0  0
    3.6580    8.7375   23.4301 O   0  0  0  0  0  0  0  0  0  0  0  0
    3.4540    7.8496   23.2111 H   0  0  0  0  0  0  0  0  0  0  0  0
    6.1631    6.8458   24.1998 O   0  0  0  0  0  0  0  0  0  0  0  0
    5.2701    5.9234   25.1951 P   0  0  0  0  0  0  0  0  0  0  0  0
    5.2638    6.6294   26.4923 O   0  0  0  0  0  0  0  0  0  0  0  0
    6.0334    4.6079   25.2576 O   0  0  0  0  0  0  0  0  0  0  0  0
    3.9263    6.0029   24.5181 O   0  0  0  0  0  0  0  0  0  0  0  0
    6.8718    4.7425   25.7266 H   0  0  0  0  0  0  0  0  0  0  0  0
    3.5895    6.9108   24.5736 H   0  0  0  0  0  0  0  0  0  0  0  0
  5  6  2  0  0  0
  5  7  1  0  0  0
  5  2  1  0  0  0
  2  3  1  0  0  0
  2  1  1  0  0  0
  1  9  1  0  0  0
  9 10  1  0  0  0
 10 11  2  0  0  0
 10 12  1  0  0  0
 10 13  1  0  0  0
  7  8  1  0  0  0
  3  4  1  0  0  0
 12 14  1  0  0  0
 13 15  1  0  0  0
M  END
> <minimizedAffinity>
-5.44597

$$$$
3C39_3PG_A_417


 15 14  0  0  0  0  0  0  0  0999 V2000
    4.8945    7.1895   24.2912 C   0  0  0  0  0  0  0  0  0  0  0  0
    5.2985    8.5526   24.8539 C   0  0  0  0  0  0  0  0  0  0  0  0
    6.6815    8.8342   24.6727 O   0  0  0  0  0  0  0  0  0  0  0  0
    6.8793    8.8867   23.7245 H   0  0  0  0  0  0  0  0  0  0  0  0
    4.4479    9.6724   24.2699 C   0  0  0  0  0  0  0  0  0  0  0  0
    4.8651   10.2088   23.2385 O   0  0  0  0  0  0  0  0  0  0  0  0
    3.3409    9.9398   24.7557 O   0  0  0  0  0  0  0  0  0  0  0  0
    3.0579    9.5124   25.5400 H   0  0  0  0  0  0  0  0  0  0  0  0
    5.5877    6.8930   23.0693 O   0  0  0  0  0  0  0  0  0  0  0  0
    6.7945    5.8056   23.0572 P   0  0  0  0  0  0  0  0  0  0  0  0
    6.6174    5.0017   24.2834 O   0  0  0  0  0  0  0  0  0  0  0  0
    8.0550    6.6579   23.1029 O   0  0  0  0  0  0  0  0  0  0  0  0
    6.4442    5.0139   21.8240 O   0  0  0  0  0  0  0  0  0  0  0  0
    8.1196    7.0935   23.9672 H   0  0  0  0  0  0  0  0  0  0  0  0
    5.6144    4.5341   21.9728 H   0  0  0  0  0  0  0  0  0  0  0  0
  5  6  2  0  0  0
  5  7  1  0  0  0
  5  2  1  0  0  0
  2  3  1  0  0  0
  2  1  1  0  0  0
  1  9  1  0  0  0
  9 10  1  0  0  0
 10 11  2  0  0  0
 10 12  1  0  0  0
 10 13  1  0  0  0
  7  8  1  0  0  0
  3  4  1  0  0  0
 12 14  1  0  0  0
 13 15  1  0  0  0
M  END
> <minimizedAffinity>
-5.41202

$$$$
3C39_3PG_A_417


 15 14  0  0  0  0  0  0  0  0999 V2000
    6.8187    7.6864   24.1869 C   0  0  0  0  0  0  0  0  0  0  0  0
    7.6360    6.7507   23.2955 C   0  0  0  0  0  0  0  0  0  0  0  0
    9.0139    6.7188   23.6493 O   0  0  0  0  0  0  0  0  0  0  0  0
    9.1096    6.3579   24.5445 H   0  0  0  0  0  0  0  0  0  0  0  0
    7.0578    5.3421   23.2858 C   0  0  0  0  0  0  0  0  0  0  0  0
    6.9986    4.7719   22.1917 O   0  0  0  0  0  0  0  0  0  0  0  0
    6.7724    4.7722   24.3472 O   0  0  0  0  0  0  0  0  0  0  0  0
    6.8292    5.2373   25.1587 H   0  0  0  0  0  0  0  0  0  0  0  0
    6.2461    8.7683   23.4367 O   0  0  0  0  0  0  0  0  0  0  0  0
    4.8013    8.5887   22.7160 P   0  0  0  0  0  0  0  0  0  0  0  0
    4.2112    9.9417   22.6662 O   0  0  0  0  0  0  0  0  0  0  0  0
    4.0390    7.6606   23.6511 O   0  0  0  0  0  0  0  0  0  0  0  0
    5.2281    8.1233   21.3480 O   0  0  0  0  0  0  0  0  0  0  0  0
    3.8482    8.1239   24.4817 H   0  0  0  0  0  0  0  0  0  0  0  0
    5.6985    8.8403   20.8946 H   0  0  0  0  0  0  0  0  0  0  0  0
  5  6  2  0  0  0
  5  7  1  0  0  0
  5  2  1  0  0  0
  2  3  1  0  0  0
  2  1  1  0  0  0
  1  9  1  0  0  0
  9 10  1  0  0  0
 10 11  2  0  0  0
 10 12  1  0  0  0
 10 13  1  0  0  0
  7  8  1  0  0  0
  3  4  1  0  0  0
 12 14  1  0  0  0
 13 15  1  0  0  0
M  END
> <minimizedAffinity>
-5.25788

$$$$
3C39_3PG_A_417


 15 14  0  0  0  0  0  0  0  0999 V2000
    6.8031    7.3457   23.9051 C   0  0  0  0  0  0  0  0  0  0  0  0
    6.0311    6.1377   23.3731 C   0  0  0  0  0  0  0  0  0  0  0  0
    6.8737    5.1832   22.7377 O   0  0  0  0  0  0  0  0  0  0  0  0
    7.4944    4.8169   23.3870 H   0  0  0  0  0  0  0  0  0  0  0  0
    5.2087    5.4736   24.4690 C   0  0  0  0  0  0  0  0  0  0  0  0
    5.7984    4.6700   25.1985 O   0  0  0  0  0  0  0  0  0  0  0  0
    4.0378    5.8200   24.6739 O   0  0  0  0  0  0  0  0  0  0  0  0
    3.6230    6.4323   24.0986 H   0  0  0  0  0  0  0  0  0  0  0  0
    6.0168    8.1132   24.8292 O   0  0  0  0  0  0  0  0  0  0  0  0
    5.0931    9.3385   24.2957 P   0  0  0  0  0  0  0  0  0  0  0  0
    5.0796   10.3311   25.3892 O   0  0  0  0  0  0  0  0  0  0  0  0
    3.7284    8.7000   24.0788 O   0  0  0  0  0  0  0  0  0  0  0  0
    5.9139    9.8179   23.1267 O   0  0  0  0  0  0  0  0  0  0  0  0
    3.3466    8.4540   24.9359 H   0  0  0  0  0  0  0  0  0  0  0  0
    6.7477   10.1940   23.4496 H   0  0  0  0  0  0  0  0  0  0  0  0
  5  6  2  0  0  0
  5  7  1  0  0  0
  5  2  1  0  0  0
  2  3  1  0  0  0
  2  1  1  0  0  0
  1  9  1  0  0  0
  9 10  1  0  0  0
 10 11  2  0  0  0
 10 12  1  0  0  0
 10 13  1  0  0  0
  7  8  1  0  0  0
  3  4  1  0  0  0
 12 14  1  0  0  0
 13 15  1  0  0  0
M  END
> <minimizedAffinity>
-5.19492

$$$$
