3C39_3PG_A_417
  RCSB PDB12061708063D
Coordinates from PDB:3C39:A:417 Model:1 without hydrogens
 11 10  0  0  0  0            999 V2000
    7.0990    6.9610   22.5320   C 0  0  0  0  0  0  0  0  0  0  0  0
    6.5580    5.8840   22.8020   O 0  0  0  0  0  0  0  0  0  0  0  0
    8.2340    7.2520   22.9320   O 0  0  0  0  0  0  0  0  0  0  0  0
    6.3640    7.8740   21.5600   C 0  0  0  0  0  0  0  0  0  0  0  0
    7.2390    8.8830   21.0690   O 0  0  0  0  0  0  0  0  0  0  0  0
    5.0910    8.4480   22.1830   C 0  0  0  0  0  0  0  0  0  0  0  0
    5.3880    9.4180   23.1990   O 0  0  0  0  0  0  0  0  0  0  0  0
    4.3410    9.6760   24.4140   P 0  0  0  0  0  0  0  0  0  0  0  0
    4.3050    8.4150   25.1820   O 0  0  0  0  0  0  0  0  0  0  0  0
    3.0230    9.9590   23.7070   O 0  0  0  0  0  0  0  0  0  0  0  0
    5.0570   10.7630   25.1730   O 0  0  0  0  0  0  0  0  0  0  0  0
  1  2  2  0  0  0  0
  1  3  1  0  0  0  0
  1  4  1  0  0  0  0
  4  5  1  0  0  0  0
  4  6  1  0  0  0  0
  6  7  1  0  0  0  0
  7  8  1  0  0  0  0
  8  9  2  0  0  0  0
  8 10  1  0  0  0  0
  8 11  1  0  0  0  0
A    1
C1
A    2
O1
A    3
O2
A    4
C2
A    5
O3
A    6
C3
A    7
O1P
A    8
P
A    9
O2P
A   10
O3P
A   11
O4P
M  END
>  <InstanceId>
3C39_3PG_A_417

>  <ChemCompId>
3PG

>  <PdbId>
3C39

>  <ChainId>
A

>  <ResidueNumber>
417

>  <InsertionCode>


>  <Model>
1

>  <AltIds>


>  <MissingHeavyAtoms>
0

>  <ObservedFormula>
C3 O7 P

>  <Name>
3-PHOSPHOGLYCERIC ACID

>  <SystematicName>
(2R)-2-hydroxy-3-phosphonooxy-propanoic acid

>  <Synonyms>


>  <Type>
NON-POLYMER

>  <Formula>
C3 H7 O7 P

>  <MolecularWeight>
186.057

>  <ModifiedDate>
2011-06-04

>  <Parent>


>  <OneLetterCode>


>  <SubcomponentList>


>  <AmbiguousFlag>
N

>  <InChI>
InChI=1S/C3H7O7P/c4-2(3(5)6)1-10-11(7,8)9/h2,4H,1H2,(H,5,6)(H2,7,8,9)/t2-/m1/s1

>  <InChIKey>
OSJPPGNTCRNQQC-UWTATZPHSA-N

>  <SMILES>
C([C@H](C(=O)O)O)OP(=O)(O)O

$$$$
