3HMO_STU_A_1
  RCSB PDB12061708553D
Coordinates from PDB:3HMO:A:1 Model:1 without hydrogens
 35 42  0  0  0  0            999 V2000
  -37.9990  -13.1420  -11.2830   O 0  0  0  0  0  0  0  0  0  0  0  0
  -36.7560  -13.0270  -10.6490   C 0  0  0  0  0  0  0  0  0  0  0  0
  -35.7640  -12.0900  -11.3400   C 0  0  0  0  0  0  0  0  0  0  0  0
  -36.4490  -11.4710  -12.5740   C 0  0  0  0  0  0  0  0  0  0  0  0
  -37.0540  -12.5740  -13.4870   C 0  0  0  0  0  0  0  0  0  0  0  0
  -38.0170  -13.4410  -12.6470   C 0  0  0  0  0  0  0  0  0  0  0  0
  -39.4210  -12.9600  -13.0210   C 0  0  0  0  0  0  0  0  0  0  0  0
  -37.9740  -14.8920  -12.8960   N 0  0  0  0  0  0  0  0  0  0  0  0
  -37.2940  -15.7700  -12.0520   C 0  0  0  0  0  0  0  0  0  0  0  0
  -36.5400  -15.5270  -10.8870   C 0  0  0  0  0  0  0  0  0  0  0  0
  -35.9310  -16.5890  -10.2040   C 0  0  0  0  0  0  0  0  0  0  0  0
  -36.0860  -17.9110  -10.7100   C 0  0  0  0  0  0  0  0  0  0  0  0
  -36.8300  -18.1340  -11.8690   C 0  0  0  0  0  0  0  0  0  0  0  0
  -37.4270  -17.0820  -12.5340   C 0  0  0  0  0  0  0  0  0  0  0  0
  -38.2430  -17.0040  -13.7320   C 0  0  0  0  0  0  0  0  0  0  0  0
  -38.5580  -15.6330  -13.9200   C 0  0  0  0  0  0  0  0  0  0  0  0
  -39.3450  -15.2720  -15.0240   C 0  0  0  0  0  0  0  0  0  0  0  0
  -39.7770  -16.2830  -15.8780   C 0  0  0  0  0  0  0  0  0  0  0  0
  -39.4550  -17.6160  -15.6760   C 0  0  0  0  0  0  0  0  0  0  0  0
  -38.6810  -18.0110  -14.5980   C 0  0  0  0  0  0  0  0  0  0  0  0
  -36.8130  -19.6120  -12.1550   C 0  0  0  0  0  0  0  0  0  0  0  0
  -36.0150  -20.1960  -11.0800   N 0  0  0  0  0  0  0  0  0  0  0  0
  -35.6000  -19.2170  -10.2560   C 0  0  0  0  0  0  0  0  0  0  0  0
  -34.9140  -19.3920   -9.2770   O 0  0  0  0  0  0  0  0  0  0  0  0
  -35.2440  -15.9790   -9.0590   C 0  0  0  0  0  0  0  0  0  0  0  0
  -35.4880  -14.5810   -9.1290   C 0  0  0  0  0  0  0  0  0  0  0  0
  -34.9680  -13.7070   -8.1690   C 0  0  0  0  0  0  0  0  0  0  0  0
  -34.2100  -14.2620   -7.1490   C 0  0  0  0  0  0  0  0  0  0  0  0
  -33.9690  -15.6260   -7.0780   C 0  0  0  0  0  0  0  0  0  0  0  0
  -34.4740  -16.5130   -8.0190   C 0  0  0  0  0  0  0  0  0  0  0  0
  -36.2650  -14.3520  -10.2610   N 0  0  0  0  0  0  0  0  0  0  0  0
  -36.0150  -13.2920  -14.2070   O 0  0  0  0  0  0  0  0  0  0  0  0
  -35.1680  -14.1320  -13.4170   C 0  0  0  0  0  0  0  0  0  0  0  0
  -35.5100  -10.6420  -13.3460   N 0  0  0  0  0  0  0  0  0  0  0  0
  -36.0310   -9.6830  -14.3290   C 0  0  0  0  0  0  0  0  0  0  0  0
  1  2  1  0  0  0  0
  1  6  1  0  0  0  0
  2  3  1  0  0  0  0
  2 31  1  0  0  0  0
  3  4  1  0  0  0  0
  4  5  1  0  0  0  0
  4 34  1  0  0  0  0
  5  6  1  0  0  0  0
  5 32  1  0  0  0  0
  6  7  1  0  0  0  0
  6  8  1  0  0  0  0
  8  9  1  0  0  0  0
  8 16  1  0  0  0  0
  9 10  2  0  0  0  0
  9 14  1  0  0  0  0
 10 11  1  0  0  0  0
 10 31  1  0  0  0  0
 11 12  2  0  0  0  0
 11 25  1  0  0  0  0
 12 13  1  0  0  0  0
 12 23  1  0  0  0  0
 13 14  2  0  0  0  0
 13 21  1  0  0  0  0
 14 15  1  0  0  0  0
 15 16  2  0  0  0  0
 15 20  1  0  0  0  0
 16 17  1  0  0  0  0
 17 18  2  0  0  0  0
 18 19  1  0  0  0  0
 19 20  2  0  0  0  0
 21 22  1  0  0  0  0
 22 23  1  0  0  0  0
 23 24  2  0  0  0  0
 25 26  2  0  0  0  0
 25 30  1  0  0  0  0
 26 27  1  0  0  0  0
 26 31  1  0  0  0  0
 27 28  2  0  0  0  0
 28 29  1  0  0  0  0
 29 30  2  0  0  0  0
 32 33  1  0  0  0  0
 34 35  1  0  0  0  0
A    1
O4
A    2
C25
A    3
C24
A    4
C23
A    5
C22
A    6
C21
A    7
C26
A    8
N2
A    9
C18
A   10
C19
A   11
C6
A   12
C7
A   13
C10
A   14
C11
A   15
C12
A   16
C17
A   17
C16
A   18
C15
A   19
C14
A   20
C13
A   21
C9
A   22
N1
A   23
C8
A   24
O5
A   25
C5
A   26
C20
A   27
C1
A   28
C2
A   29
C3
A   30
C4
A   31
N3
A   32
O6
A   33
C27
A   34
N4
A   35
C28
M  END
>  <InstanceId>
3HMO_STU_A_1

>  <ChemCompId>
STU

>  <PdbId>
3HMO

>  <ChainId>
A

>  <ResidueNumber>
1

>  <InsertionCode>


>  <Model>
1

>  <AltIds>


>  <MissingHeavyAtoms>
0

>  <ObservedFormula>
C28 N4 O3

>  <Name>
STAUROSPORINE

>  <SystematicName>


>  <Synonyms>


>  <Type>
NON-POLYMER

>  <Formula>
C28 H26 N4 O3

>  <MolecularWeight>
466.531

>  <ModifiedDate>
2011-06-04

>  <Parent>


>  <OneLetterCode>


>  <SubcomponentList>


>  <AmbiguousFlag>
N

>  <InChI>
InChI=1S/C28H26N4O3/c1-28-26(34-3)17(29-2)12-20(35-28)31-18-10-6-4-8-14(18)22-23-16(13-30-27(23)33)21-15-9-5-7-11-19(15)32(28)25(21)24(22)31/h4-11,17,20,26,29H,12-13H2,1-3H3,(H,30,33)/t17-,20-,26-,28+/m1/s1

>  <InChIKey>
HKSZLNNOFSGOKW-FYTWVXJKSA-N

>  <SMILES>
C[C@@]12[C@@H]([C@@H](C[C@@H](O1)n3c4ccccc4c5c3c6n2c7ccccc7c6c8c5C(=O)NC8)NC)OC

$$$$
