5FE7_5WU_A_902


 15 16  0  0  0  0  0  0  0  0999 V2000
   -9.8849   38.7525   22.7905 C   0  0  0  0  0  0  0  0  0  0  0  0
   -9.5853   38.4596   24.1026 C   0  0  0  0  0  0  0  0  0  0  0  0
   -8.8687   37.2654   24.5055 C   0  0  0  0  0  0  0  0  0  0  0  0
  -10.5901   39.9189   22.8195 N   0  0  0  0  0  0  0  0  0  0  0  0
   -8.3806   36.3582   23.4048 C   0  0  0  0  0  0  0  0  0  0  0  0
   -9.2105   36.4436   22.1131 C   0  0  0  0  0  0  0  0  0  0  0  0
   -9.4528   37.8969   21.6432 C   0  0  0  0  0  0  0  0  0  0  0  0
   -8.6284   37.0269   25.6944 O   0  0  0  0  0  0  0  0  0  0  0  0
  -10.1427   39.5302   24.8533 C   0  0  0  0  0  0  0  0  0  0  0  0
  -10.0536   39.8083   26.3150 C   0  0  0  0  0  0  0  0  0  0  0  0
  -10.7656   40.3852   24.0772 N   0  0  0  0  0  0  0  0  0  0  0  0
  -11.0665   40.7443   21.7086 C   0  0  0  0  0  0  0  0  0  0  0  0
  -10.1018   41.8723   21.3648 C   0  0  0  0  0  0  0  0  0  0  0  0
  -10.2056   42.9766   22.2816 O   0  0  0  0  0  0  0  0  0  0  0  0
   -9.9825   42.6759   23.1765 H   0  0  0  0  0  0  0  0  0  0  0  0
 14 13  1  0  0  0
  7  6  1  0  0  0
  7  1  1  0  0  0
 12 13  1  0  0  0
 12  4  1  0  0  0
  6  5  1  0  0  0
  1  4  1  0  0  0
  1  2  2  0  0  0
  4 11  1  0  0  0
  5  3  1  0  0  0
  2  3  1  0  0  0
  2  9  1  0  0  0
 11  9  2  0  0  0
  3  8  2  0  0  0
  9 10  1  0  0  0
 14 15  1  0  0  0
M  END
> <minimizedAffinity>
-6.58341

$$$$
5FE7_5WU_A_902


 15 16  0  0  0  0  0  0  0  0999 V2000
   -9.6065   38.5568   24.6594 C   0  0  0  0  0  0  0  0  0  0  0  0
  -10.1791   39.0509   23.5083 C   0  0  0  0  0  0  0  0  0  0  0  0
  -11.1646   40.1142   23.5053 C   0  0  0  0  0  0  0  0  0  0  0  0
   -8.7739   37.5532   24.2617 N   0  0  0  0  0  0  0  0  0  0  0  0
  -11.5034   40.7348   24.8369 C   0  0  0  0  0  0  0  0  0  0  0  0
  -11.2845   39.7964   26.0352 C   0  0  0  0  0  0  0  0  0  0  0  0
   -9.9014   39.1047   26.0188 C   0  0  0  0  0  0  0  0  0  0  0  0
  -11.6684   40.5246   22.4536 O   0  0  0  0  0  0  0  0  0  0  0  0
   -9.6074   38.2843   22.4567 C   0  0  0  0  0  0  0  0  0  0  0  0
   -9.7727   38.4285   20.9823 C   0  0  0  0  0  0  0  0  0  0  0  0
   -8.7869   37.3719   22.9212 N   0  0  0  0  0  0  0  0  0  0  0  0
   -7.8344   36.7573   25.0530 C   0  0  0  0  0  0  0  0  0  0  0  0
   -6.5278   36.4935   24.3151 C   0  0  0  0  0  0  0  0  0  0  0  0
   -5.4534   36.1586   25.2120 O   0  0  0  0  0  0  0  0  0  0  0  0
   -5.6757   35.3466   25.6939 H   0  0  0  0  0  0  0  0  0  0  0  0
 14 13  1  0  0  0
  7  6  1  0  0  0
  7  1  1  0  0  0
 12 13  1  0  0  0
 12  4  1  0  0  0
  6  5  1  0  0  0
  1  4  1  0  0  0
  1  2  2  0  0  0
  4 11  1  0  0  0
  5  3  1  0  0  0
  2  3  1  0  0  0
  2  9  1  0  0  0
 11  9  2  0  0  0
  3  8  2  0  0  0
  9 10  1  0  0  0
 14 15  1  0  0  0
M  END
> <minimizedAffinity>
-6.49229

$$$$
5FE7_5WU_A_902


 15 16  0  0  0  0  0  0  0  0999 V2000
   -9.8386   38.3755   22.1788 C   0  0  0  0  0  0  0  0  0  0  0  0
   -9.9997   39.1219   23.3250 C   0  0  0  0  0  0  0  0  0  0  0  0
   -9.5406   38.6837   24.6285 C   0  0  0  0  0  0  0  0  0  0  0  0
  -10.4281   39.0922   21.1800 N   0  0  0  0  0  0  0  0  0  0  0  0
   -8.7922   37.3762   24.6846 C   0  0  0  0  0  0  0  0  0  0  0  0
   -9.1535   36.4024   23.5508 C   0  0  0  0  0  0  0  0  0  0  0  0
   -9.1243   37.0624   22.1525 C   0  0  0  0  0  0  0  0  0  0  0  0
   -9.7139   39.3736   25.6396 O   0  0  0  0  0  0  0  0  0  0  0  0
  -10.6889   40.2924   22.9060 C   0  0  0  0  0  0  0  0  0  0  0  0
  -11.0548   41.5067   23.6892 C   0  0  0  0  0  0  0  0  0  0  0  0
  -10.9643   40.2522   21.6239 N   0  0  0  0  0  0  0  0  0  0  0  0
  -10.4596   38.8278   19.7408 C   0  0  0  0  0  0  0  0  0  0  0  0
   -9.7343   39.8983   18.9351 C   0  0  0  0  0  0  0  0  0  0  0  0
   -8.4177   40.1687   19.4491 O   0  0  0  0  0  0  0  0  0  0  0  0
   -7.8795   39.3633   19.3993 H   0  0  0  0  0  0  0  0  0  0  0  0
 14 13  1  0  0  0
  7  6  1  0  0  0
  7  1  1  0  0  0
 12 13  1  0  0  0
 12  4  1  0  0  0
  6  5  1  0  0  0
  1  4  1  0  0  0
  1  2  2  0  0  0
  4 11  1  0  0  0
  5  3  1  0  0  0
  2  3  1  0  0  0
  2  9  1  0  0  0
 11  9  2  0  0  0
  3  8  2  0  0  0
  9 10  1  0  0  0
 14 15  1  0  0  0
M  END
> <minimizedAffinity>
-6.34107

$$$$
5FE7_5WU_A_902


 15 16  0  0  0  0  0  0  0  0999 V2000
   -9.4843   38.8294   23.0892 C   0  0  0  0  0  0  0  0  0  0  0  0
  -10.2834   39.7327   23.7544 C   0  0  0  0  0  0  0  0  0  0  0  0
  -10.6509   41.0228   23.2044 C   0  0  0  0  0  0  0  0  0  0  0  0
   -9.3337   37.7703   23.9343 N   0  0  0  0  0  0  0  0  0  0  0  0
  -10.1773   41.3287   21.8062 C   0  0  0  0  0  0  0  0  0  0  0  0
   -8.8965   40.5788   21.4042 C   0  0  0  0  0  0  0  0  0  0  0  0
   -8.9602   39.0639   21.7088 C   0  0  0  0  0  0  0  0  0  0  0  0
  -11.3595   41.8154   23.8351 O   0  0  0  0  0  0  0  0  0  0  0  0
  -10.5812   39.1119   24.9979 C   0  0  0  0  0  0  0  0  0  0  0  0
  -11.4820   39.5709   26.0932 C   0  0  0  0  0  0  0  0  0  0  0  0
   -9.9853   37.9480   25.1064 N   0  0  0  0  0  0  0  0  0  0  0  0
   -8.6758   36.4835   23.7029 C   0  0  0  0  0  0  0  0  0  0  0  0
   -7.2163   36.4877   24.1399 C   0  0  0  0  0  0  0  0  0  0  0  0
   -7.0592   36.8947   25.5112 O   0  0  0  0  0  0  0  0  0  0  0  0
   -7.5263   36.2712   26.0891 H   0  0  0  0  0  0  0  0  0  0  0  0
 14 13  1  0  0  0
  7  6  1  0  0  0
  7  1  1  0  0  0
 12 13  1  0  0  0
 12  4  1  0  0  0
  6  5  1  0  0  0
  1  4  1  0  0  0
  1  2  2  0  0  0
  4 11  1  0  0  0
  5  3  1  0  0  0
  2  3  1  0  0  0
  2  9  1  0  0  0
 11  9  2  0  0  0
  3  8  2  0  0  0
  9 10  1  0  0  0
 14 15  1  0  0  0
M  END
> <minimizedAffinity>
-6.33702

$$$$
5FE7_5WU_A_902


 15 16  0  0  0  0  0  0  0  0999 V2000
  -10.2819   39.3499   23.6868 C   0  0  0  0  0  0  0  0  0  0  0  0
   -9.8915   38.4726   22.6994 C   0  0  0  0  0  0  0  0  0  0  0  0
   -9.1918   37.2323   22.9710 C   0  0  0  0  0  0  0  0  0  0  0  0
  -10.8639   40.4017   23.0437 N   0  0  0  0  0  0  0  0  0  0  0  0
   -8.9594   36.8826   24.4190 C   0  0  0  0  0  0  0  0  0  0  0  0
   -8.8979   38.1029   25.3525 C   0  0  0  0  0  0  0  0  0  0  0  0
  -10.0735   39.0858   25.1435 C   0  0  0  0  0  0  0  0  0  0  0  0
   -8.8440   36.4741   22.0587 O   0  0  0  0  0  0  0  0  0  0  0  0
  -10.3036   39.0829   21.4835 C   0  0  0  0  0  0  0  0  0  0  0  0
  -10.2369   38.5569   20.0905 C   0  0  0  0  0  0  0  0  0  0  0  0
  -10.8611   40.2507   21.6994 N   0  0  0  0  0  0  0  0  0  0  0  0
  -11.5518   41.5666   23.6023 C   0  0  0  0  0  0  0  0  0  0  0  0
  -10.7147   42.8365   23.5133 C   0  0  0  0  0  0  0  0  0  0  0  0
  -10.2008   43.0587   22.1876 O   0  0  0  0  0  0  0  0  0  0  0  0
  -10.9395   43.1622   21.5676 H   0  0  0  0  0  0  0  0  0  0  0  0
 14 13  1  0  0  0
  7  6  1  0  0  0
  7  1  1  0  0  0
 12 13  1  0  0  0
 12  4  1  0  0  0
  6  5  1  0  0  0
  1  4  1  0  0  0
  1  2  2  0  0  0
  4 11  1  0  0  0
  5  3  1  0  0  0
  2  3  1  0  0  0
  2  9  1  0  0  0
 11  9  2  0  0  0
  3  8  2  0  0  0
  9 10  1  0  0  0
 14 15  1  0  0  0
M  END
> <minimizedAffinity>
-6.16468

$$$$
5FE7_5WU_A_902


 15 16  0  0  0  0  0  0  0  0999 V2000
  -10.0973   39.6411   23.4453 C   0  0  0  0  0  0  0  0  0  0  0  0
   -9.7466   40.5955   22.5161 C   0  0  0  0  0  0  0  0  0  0  0  0
  -10.2562   41.9525   22.5411 C   0  0  0  0  0  0  0  0  0  0  0  0
   -9.4562   38.4987   23.0680 N   0  0  0  0  0  0  0  0  0  0  0  0
  -11.1550   42.3231   23.6934 C   0  0  0  0  0  0  0  0  0  0  0  0
  -11.9120   41.1307   24.3015 C   0  0  0  0  0  0  0  0  0  0  0  0
  -10.9956   39.9229   24.6066 C   0  0  0  0  0  0  0  0  0  0  0  0
   -9.9305   42.7804   21.6827 O   0  0  0  0  0  0  0  0  0  0  0  0
   -8.8667   39.9288   21.6207 C   0  0  0  0  0  0  0  0  0  0  0  0
   -8.0934   40.4767   20.4702 C   0  0  0  0  0  0  0  0  0  0  0  0
   -8.7206   38.6659   21.9450 N   0  0  0  0  0  0  0  0  0  0  0  0
   -9.3827   37.2060   23.7506 C   0  0  0  0  0  0  0  0  0  0  0  0
   -8.0275   36.9682   24.4049 C   0  0  0  0  0  0  0  0  0  0  0  0
   -8.1195   36.8988   25.8393 O   0  0  0  0  0  0  0  0  0  0  0  0
   -8.6901   36.1559   26.0911 H   0  0  0  0  0  0  0  0  0  0  0  0
 14 13  1  0  0  0
  7  6  1  0  0  0
  7  1  1  0  0  0
 12 13  1  0  0  0
 12  4  1  0  0  0
  6  5  1  0  0  0
  1  4  1  0  0  0
  1  2  2  0  0  0
  4 11  1  0  0  0
  5  3  1  0  0  0
  2  3  1  0  0  0
  2  9  1  0  0  0
 11  9  2  0  0  0
  3  8  2  0  0  0
  9 10  1  0  0  0
 14 15  1  0  0  0
M  END
> <minimizedAffinity>
-6.13969

$$$$
5FE7_5WU_A_902


 15 16  0  0  0  0  0  0  0  0999 V2000
  -10.2911   39.5342   22.8616 C   0  0  0  0  0  0  0  0  0  0  0  0
   -9.8529   38.7409   23.8987 C   0  0  0  0  0  0  0  0  0  0  0  0
  -10.3271   38.8825   25.2614 C   0  0  0  0  0  0  0  0  0  0  0  0
   -9.5943   39.1303   21.7616 N   0  0  0  0  0  0  0  0  0  0  0  0
  -11.4034   39.9093   25.5064 C   0  0  0  0  0  0  0  0  0  0  0  0
  -11.4033   41.0659   24.4931 C   0  0  0  0  0  0  0  0  0  0  0  0
  -11.3419   40.5852   23.0245 C   0  0  0  0  0  0  0  0  0  0  0  0
   -9.9017   38.1616   26.1711 O   0  0  0  0  0  0  0  0  0  0  0  0
   -8.8957   37.8684   23.3131 C   0  0  0  0  0  0  0  0  0  0  0  0
   -8.1556   36.7281   23.9244 C   0  0  0  0  0  0  0  0  0  0  0  0
   -8.7288   38.1279   22.0379 N   0  0  0  0  0  0  0  0  0  0  0  0
   -9.7340   39.5518   20.3670 C   0  0  0  0  0  0  0  0  0  0  0  0
   -8.6601   40.5483   19.9486 C   0  0  0  0  0  0  0  0  0  0  0  0
   -7.3318   40.0583   20.2062 O   0  0  0  0  0  0  0  0  0  0  0  0
   -7.1813   39.2479   19.6947 H   0  0  0  0  0  0  0  0  0  0  0  0
 14 13  1  0  0  0
  7  6  1  0  0  0
  7  1  1  0  0  0
 12 13  1  0  0  0
 12  4  1  0  0  0
  6  5  1  0  0  0
  1  4  1  0  0  0
  1  2  2  0  0  0
  4 11  1  0  0  0
  5  3  1  0  0  0
  2  3  1  0  0  0
  2  9  1  0  0  0
 11  9  2  0  0  0
  3  8  2  0  0  0
  9 10  1  0  0  0
 14 15  1  0  0  0
M  END
> <minimizedAffinity>
-6.10161

$$$$
5FE7_5WU_A_902


 15 16  0  0  0  0  0  0  0  0999 V2000
  -10.1030   39.4358   23.0531 C   0  0  0  0  0  0  0  0  0  0  0  0
  -11.0187   39.9963   23.9160 C   0  0  0  0  0  0  0  0  0  0  0  0
  -11.0640   39.6916   25.3326 C   0  0  0  0  0  0  0  0  0  0  0  0
  -10.4020   39.9300   21.8182 N   0  0  0  0  0  0  0  0  0  0  0  0
   -9.9988   38.7679   25.8666 C   0  0  0  0  0  0  0  0  0  0  0  0
   -9.4322   37.7975   24.8169 C   0  0  0  0  0  0  0  0  0  0  0  0
   -9.0270   38.4988   23.4994 C   0  0  0  0  0  0  0  0  0  0  0  0
  -11.9087   40.2030   26.0763 O   0  0  0  0  0  0  0  0  0  0  0  0
  -11.8235   40.8372   23.1002 C   0  0  0  0  0  0  0  0  0  0  0  0
  -12.9160   41.7722   23.4927 C   0  0  0  0  0  0  0  0  0  0  0  0
  -11.4625   40.7695   21.8406 N   0  0  0  0  0  0  0  0  0  0  0  0
   -9.6896   39.7576   20.5513 C   0  0  0  0  0  0  0  0  0  0  0  0
   -8.4378   40.6217   20.4638 C   0  0  0  0  0  0  0  0  0  0  0  0
   -7.2309   39.8440   20.5610 O   0  0  0  0  0  0  0  0  0  0  0  0
   -7.1922   39.2137   19.8247 H   0  0  0  0  0  0  0  0  0  0  0  0
 14 13  1  0  0  0
  7  6  1  0  0  0
  7  1  1  0  0  0
 12 13  1  0  0  0
 12  4  1  0  0  0
  6  5  1  0  0  0
  1  4  1  0  0  0
  1  2  2  0  0  0
  4 11  1  0  0  0
  5  3  1  0  0  0
  2  3  1  0  0  0
  2  9  1  0  0  0
 11  9  2  0  0  0
  3  8  2  0  0  0
  9 10  1  0  0  0
 14 15  1  0  0  0
M  END
> <minimizedAffinity>
-5.98128

$$$$
5FE7_5WU_A_902


 15 16  0  0  0  0  0  0  0  0999 V2000
  -10.5925   39.6862   23.8008 C   0  0  0  0  0  0  0  0  0  0  0  0
  -10.0620   38.8769   22.8207 C   0  0  0  0  0  0  0  0  0  0  0  0
   -9.2611   37.7031   23.1082 C   0  0  0  0  0  0  0  0  0  0  0  0
  -11.2366   40.6935   23.1458 N   0  0  0  0  0  0  0  0  0  0  0  0
   -9.0793   37.3395   24.5599 C   0  0  0  0  0  0  0  0  0  0  0  0
   -9.1913   38.5351   25.5204 C   0  0  0  0  0  0  0  0  0  0  0  0
  -10.4435   39.4052   25.2617 C   0  0  0  0  0  0  0  0  0  0  0  0
   -8.7888   37.0063   22.2028 O   0  0  0  0  0  0  0  0  0  0  0  0
  -10.4611   39.4763   21.5952 C   0  0  0  0  0  0  0  0  0  0  0  0
  -10.2632   38.9960   20.1981 C   0  0  0  0  0  0  0  0  0  0  0  0
  -11.1417   40.5789   21.8012 N   0  0  0  0  0  0  0  0  0  0  0  0
  -12.0662   41.7715   23.6860 C   0  0  0  0  0  0  0  0  0  0  0  0
  -13.4434   41.2859   24.1205 C   0  0  0  0  0  0  0  0  0  0  0  0
  -13.7136   41.5792   25.5031 O   0  0  0  0  0  0  0  0  0  0  0  0
  -13.6957   42.5394   25.6394 H   0  0  0  0  0  0  0  0  0  0  0  0
 14 13  1  0  0  0
  7  6  1  0  0  0
  7  1  1  0  0  0
 12 13  1  0  0  0
 12  4  1  0  0  0
  6  5  1  0  0  0
  1  4  1  0  0  0
  1  2  2  0  0  0
  4 11  1  0  0  0
  5  3  1  0  0  0
  2  3  1  0  0  0
  2  9  1  0  0  0
 11  9  2  0  0  0
  3  8  2  0  0  0
  9 10  1  0  0  0
 14 15  1  0  0  0
M  END
> <minimizedAffinity>
-5.85352

$$$$
5FE7_5WU_A_902


 15 16  0  0  0  0  0  0  0  0999 V2000
  -10.1075   39.3621   22.4343 C   0  0  0  0  0  0  0  0  0  0  0  0
  -10.6688   39.6129   23.6669 C   0  0  0  0  0  0  0  0  0  0  0  0
  -10.3202   38.8719   24.8633 C   0  0  0  0  0  0  0  0  0  0  0  0
  -10.7115   40.2227   21.5665 N   0  0  0  0  0  0  0  0  0  0  0  0
   -9.2367   37.8321   24.7308 C   0  0  0  0  0  0  0  0  0  0  0  0
   -9.1012   37.2505   23.3138 C   0  0  0  0  0  0  0  0  0  0  0  0
   -9.0409   38.3376   22.2155 C   0  0  0  0  0  0  0  0  0  0  0  0
  -10.8540   39.1148   25.9515 O   0  0  0  0  0  0  0  0  0  0  0  0
  -11.5964   40.6657   23.4395 C   0  0  0  0  0  0  0  0  0  0  0  0
  -12.4299   41.4205   24.4179 C   0  0  0  0  0  0  0  0  0  0  0  0
  -11.6335   41.0053   22.1727 N   0  0  0  0  0  0  0  0  0  0  0  0
  -10.4266   40.4675   20.1519 C   0  0  0  0  0  0  0  0  0  0  0  0
   -9.9912   41.9028   19.8844 C   0  0  0  0  0  0  0  0  0  0  0  0
   -9.2893   42.4766   21.0020 O   0  0  0  0  0  0  0  0  0  0  0  0
   -8.4844   41.9640   21.1759 H   0  0  0  0  0  0  0  0  0  0  0  0
 14 13  1  0  0  0
  7  6  1  0  0  0
  7  1  1  0  0  0
 12 13  1  0  0  0
 12  4  1  0  0  0
  6  5  1  0  0  0
  1  4  1  0  0  0
  1  2  2  0  0  0
  4 11  1  0  0  0
  5  3  1  0  0  0
  2  3  1  0  0  0
  2  9  1  0  0  0
 11  9  2  0  0  0
  3  8  2  0  0  0
  9 10  1  0  0  0
 14 15  1  0  0  0
M  END
> <minimizedAffinity>
-5.80653

$$$$
