5N1S_8GE_A_303
  RCSB PDB01031823323D
Coordinates from PDB:5N1S:A:303 Model:1 without hydrogens
 19 21  0  0  0  0            999 V2000
   -5.9670    0.8580   16.7720   S 0  0  0  0  0  0  0  0  0  0  0  0
   -5.4520    0.9750   18.1220   O 0  0  0  0  0  0  0  0  0  0  0  0
   -7.3790    0.9800   16.5400   O 0  0  0  0  0  0  0  0  0  0  0  0
   -5.4250   -0.5030   16.0640   N 0  0  0  0  0  0  0  0  0  0  0  0
   -5.2530    2.2460   15.9320   C 0  0  0  0  0  0  0  0  0  0  0  0
   -6.0180    3.3690   15.5590   C 0  0  0  0  0  0  0  0  0  0  0  0
   -5.3870    4.4850   15.0200   C 0  0  0  0  0  0  0  0  0  0  0  0
   -4.0160    4.5140   14.8450   C 0  0  0  0  0  0  0  0  0  0  0  0
   -3.2860    3.3950   15.1500   C 0  0  0  0  0  0  0  0  0  0  0  0
   -3.8790    2.2780   15.7230   C 0  0  0  0  0  0  0  0  0  0  0  0
   -0.2800    8.8450   12.9590   C 0  0  0  0  0  0  0  0  0  0  0  0
   -1.2330    9.7090   13.5130   C 0  0  0  0  0  0  0  0  0  0  0  0
   -0.4880    7.4650   12.9510   C 0  0  0  0  0  0  0  0  0  0  0  0
   -1.6330    6.9590   13.5640   C 0  0  0  0  0  0  0  0  0  0  0  0
   -2.1260    5.6300   13.7360   C 0  0  0  0  0  0  0  0  0  0  0  0
   -2.5630    7.8150   14.1450   C 0  0  0  0  0  0  0  0  0  0  0  0
   -2.3900    9.2230   14.1100   C 0  0  0  0  0  0  0  0  0  0  0  0
   -3.6210    7.0170   14.6850   N 0  0  0  0  0  0  0  0  0  0  0  0
   -3.2970    5.6850   14.4100   C 0  0  0  0  0  0  0  0  0  0  0  0
 13 11  2  0  0  0  0
 13 14  1  0  0  0  0
 11 12  1  0  0  0  0
 12 17  2  0  0  0  0
 14 15  1  0  0  0  0
 14 16  2  0  0  0  0
 15 19  2  0  0  0  0
 17 16  1  0  0  0  0
 16 18  1  0  0  0  0
 19 18  1  0  0  0  0
 19  8  1  0  0  0  0
  8  7  2  0  0  0  0
  8  9  1  0  0  0  0
  7  6  1  0  0  0  0
  9 10  2  0  0  0  0
  6  5  2  0  0  0  0
 10  5  1  0  0  0  0
  5  1  1  0  0  0  0
  4  1  1  0  0  0  0
  3  1  2  0  0  0  0
  1  2  2  0  0  0  0
A    1
S1
A    2
O1
A    3
O2
A    4
N3
A    5
C4
A    6
C5
A    7
C6
A    8
C7
A    9
C8
A   10
C9
A   11
C3
A   12
C2
A   13
C41
A   14
C51
A   15
C91
A   16
C61
A   17
C1
A   18
N7
A   19
C81
M  END
>  <InstanceId>
5N1S_8GE_A_303

>  <ChemCompId>
8GE

>  <PdbId>
5N1S

>  <ChainId>
A

>  <ResidueNumber>
303

>  <InsertionCode>


>  <Model>
1

>  <AltIds>


>  <MissingHeavyAtoms>
0

>  <ObservedFormula>
C14 N2 O2 S

>  <Name>
4-(1~{H}-indol-2-yl)benzenesulfonamide

>  <SystematicName>
4-(1~{H}-indol-2-yl)benzenesulfonamide

>  <Synonyms>


>  <Type>
NON-POLYMER

>  <Formula>
C14 H12 N2 O2 S

>  <MolecularWeight>
272.322

>  <ModifiedDate>
2017-12-22

>  <Parent>


>  <OneLetterCode>


>  <SubcomponentList>


>  <AmbiguousFlag>
N

>  <InChI>
InChI=1S/C14H12N2O2S/c15-19(17,18)12-7-5-10(6-8-12)14-9-11-3-1-2-4-13(11)16-14/h1-9,16H,(H2,15,17,18)

>  <InChIKey>
FQMXYEJYLSYDSS-UHFFFAOYSA-N

>  <SMILES>
c1ccc2c(c1)cc([nH]2)c3ccc(cc3)S(=O)(=O)N

$$$$
