5N1S_8GE_A_303


 22 24  0  0  0  0  0  0  0  0999 V2000
   -5.6739    2.6308   16.2357 C   0  0  0  0  0  0  0  0  0  0  0  0
   -6.4644    3.7535   15.9192 C   0  0  0  0  0  0  0  0  0  0  0  0
   -5.8925    4.8352   15.2582 C   0  0  0  0  0  0  0  0  0  0  0  0
   -4.5556    4.8304   14.9065 C   0  0  0  0  0  0  0  0  0  0  0  0
   -3.8086    3.7098   15.1599 C   0  0  0  0  0  0  0  0  0  0  0  0
   -4.3383    2.6276   15.8498 C   0  0  0  0  0  0  0  0  0  0  0  0
   -1.8994   10.0011   13.3315 C   0  0  0  0  0  0  0  0  0  0  0  0
   -2.1023    9.5403   12.0245 C   0  0  0  0  0  0  0  0  0  0  0  0
   -2.2541    9.2141   14.4281 C   0  0  0  0  0  0  0  0  0  0  0  0
   -2.8745    7.9876   14.1966 C   0  0  0  0  0  0  0  0  0  0  0  0
   -3.3609    6.9732   15.0760 C   0  0  0  0  0  0  0  0  0  0  0  0
   -3.1076    7.5450   12.8985 C   0  0  0  0  0  0  0  0  0  0  0  0
   -2.7008    8.3110   11.7754 C   0  0  0  0  0  0  0  0  0  0  0  0
   -3.7469    6.2671   12.9755 N   0  0  0  0  0  0  0  0  0  0  0  0
   -3.8822    5.9693   14.3349 C   0  0  0  0  0  0  0  0  0  0  0  0
   -4.0353    5.7069   12.2190 H   0  0  0  0  0  0  0  0  0  0  0  0
   -6.2929    1.2905   17.2168 S   0  0  0  0  0  0  0  0  0  0  0  0
   -6.0845    1.7407   18.5788 O   0  0  0  0  0  0  0  0  0  0  0  0
   -7.6301    1.0775   16.7384 O   0  0  0  0  0  0  0  0  0  0  0  0
   -5.3964   -0.0305   16.9026 N   0  0  0  0  0  0  0  0  0  0  0  0
   -5.5578   -0.3300   15.9410 H   0  0  0  0  0  0  0  0  0  0  0  0
   -5.6608   -0.7806   17.5412 H   0  0  0  0  0  0  0  0  0  0  0  0
  9  7  2  0  0  0
  9 10  1  0  0  0
  7  8  1  0  0  0
  8 13  2  0  0  0
 10 11  1  0  0  0
 10 12  2  0  0  0
 11 15  2  0  0  0
 13 12  1  0  0  0
 12 14  1  0  0  0
 15 14  1  0  0  0
 15  4  1  0  0  0
  4  3  2  0  0  0
  4  5  1  0  0  0
  3  2  1  0  0  0
  5  6  2  0  0  0
  2  1  2  0  0  0
  6  1  1  0  0  0
  1 17  1  0  0  0
 20 17  1  0  0  0
 19 17  2  0  0  0
 17 18  2  0  0  0
 20 21  1  0  0  0
 20 22  1  0  0  0
 14 16  1  0  0  0
M  END
> <minimizedAffinity>
-8.27718

$$$$
5N1S_8GE_A_303


 22 24  0  0  0  0  0  0  0  0999 V2000
   -5.4137    2.4364   16.0755 C   0  0  0  0  0  0  0  0  0  0  0  0
   -6.2964    3.5048   15.8210 C   0  0  0  0  0  0  0  0  0  0  0  0
   -5.8124    4.6792   15.2547 C   0  0  0  0  0  0  0  0  0  0  0  0
   -4.4741    4.8192   14.9377 C   0  0  0  0  0  0  0  0  0  0  0  0
   -3.6337    3.7537   15.1285 C   0  0  0  0  0  0  0  0  0  0  0  0
   -4.0763    2.5805   15.7246 C   0  0  0  0  0  0  0  0  0  0  0  0
   -1.8472    9.4999   12.2058 C   0  0  0  0  0  0  0  0  0  0  0  0
   -1.7540   10.0202   13.5028 C   0  0  0  0  0  0  0  0  0  0  0  0
   -2.4836    8.2802   11.9709 C   0  0  0  0  0  0  0  0  0  0  0  0
   -2.9671    7.5588   13.0611 C   0  0  0  0  0  0  0  0  0  0  0  0
   -3.6410    6.3041   13.1633 C   0  0  0  0  0  0  0  0  0  0  0  0
   -2.8438    8.0594   14.3532 C   0  0  0  0  0  0  0  0  0  0  0  0
   -2.2488    9.3239   14.5990 C   0  0  0  0  0  0  0  0  0  0  0  0
   -3.4284    7.1115   15.2519 N   0  0  0  0  0  0  0  0  0  0  0  0
   -3.8957    6.0528   14.4673 C   0  0  0  0  0  0  0  0  0  0  0  0
   -3.4896    7.1897   16.2313 H   0  0  0  0  0  0  0  0  0  0  0  0
   -5.9274    0.9773   16.9411 S   0  0  0  0  0  0  0  0  0  0  0  0
   -5.3385   -0.1006   16.1712 O   0  0  0  0  0  0  0  0  0  0  0  0
   -5.5052    1.1916   18.2969 O   0  0  0  0  0  0  0  0  0  0  0  0
   -7.5519    0.8992   16.8936 N   0  0  0  0  0  0  0  0  0  0  0  0
   -7.9453    1.6651   17.4404 H   0  0  0  0  0  0  0  0  0  0  0  0
   -7.8611    0.0089   17.2838 H   0  0  0  0  0  0  0  0  0  0  0  0
  9  7  2  0  0  0
  9 10  1  0  0  0
  7  8  1  0  0  0
  8 13  2  0  0  0
 10 11  1  0  0  0
 10 12  2  0  0  0
 11 15  2  0  0  0
 13 12  1  0  0  0
 12 14  1  0  0  0
 15 14  1  0  0  0
 15  4  1  0  0  0
  4  3  2  0  0  0
  4  5  1  0  0  0
  3  2  1  0  0  0
  5  6  2  0  0  0
  2  1  2  0  0  0
  6  1  1  0  0  0
  1 17  1  0  0  0
 20 17  1  0  0  0
 19 17  2  0  0  0
 17 18  2  0  0  0
 20 21  1  0  0  0
 20 22  1  0  0  0
 14 16  1  0  0  0
M  END
> <minimizedAffinity>
-8.17599

$$$$
5N1S_8GE_A_303


 22 24  0  0  0  0  0  0  0  0999 V2000
   -5.3095    2.3515   16.2448 C   0  0  0  0  0  0  0  0  0  0  0  0
   -3.9606    2.4905   15.8618 C   0  0  0  0  0  0  0  0  0  0  0  0
   -3.5604    3.6105   15.1410 C   0  0  0  0  0  0  0  0  0  0  0  0
   -4.4666    4.5935   14.7892 C   0  0  0  0  0  0  0  0  0  0  0  0
   -5.7629    4.4834   15.2199 C   0  0  0  0  0  0  0  0  0  0  0  0
   -6.2036    3.3619   15.9097 C   0  0  0  0  0  0  0  0  0  0  0  0
   -3.4544    8.7532   10.5532 C   0  0  0  0  0  0  0  0  0  0  0  0
   -2.5154    9.2479   11.4671 C   0  0  0  0  0  0  0  0  0  0  0  0
   -4.2610    7.6622   10.8799 C   0  0  0  0  0  0  0  0  0  0  0  0
   -4.0681    7.0338   12.1090 C   0  0  0  0  0  0  0  0  0  0  0  0
   -4.7021    5.9142   12.7283 C   0  0  0  0  0  0  0  0  0  0  0  0
   -3.1114    7.5038   13.0029 C   0  0  0  0  0  0  0  0  0  0  0  0
   -2.3241    8.6463   12.7051 C   0  0  0  0  0  0  0  0  0  0  0  0
   -3.1456    6.6702   14.1654 N   0  0  0  0  0  0  0  0  0  0  0  0
   -4.1355    5.7091   13.9389 C   0  0  0  0  0  0  0  0  0  0  0  0
   -2.5822    6.7565   14.9681 H   0  0  0  0  0  0  0  0  0  0  0  0
   -5.9206    0.8794   17.0202 S   0  0  0  0  0  0  0  0  0  0  0  0
   -5.3629   -0.1876   16.2128 O   0  0  0  0  0  0  0  0  0  0  0  0
   -5.5292    1.0043   18.3963 O   0  0  0  0  0  0  0  0  0  0  0  0
   -7.5448    0.8866   16.9241 N   0  0  0  0  0  0  0  0  0  0  0  0
   -7.9160    1.6434   17.4984 H   0  0  0  0  0  0  0  0  0  0  0  0
   -7.9092   -0.0050   17.2598 H   0  0  0  0  0  0  0  0  0  0  0  0
  9  7  2  0  0  0
  9 10  1  0  0  0
  7  8  1  0  0  0
  8 13  2  0  0  0
 10 11  1  0  0  0
 10 12  2  0  0  0
 11 15  2  0  0  0
 13 12  1  0  0  0
 12 14  1  0  0  0
 15 14  1  0  0  0
 15  4  1  0  0  0
  4  3  2  0  0  0
  4  5  1  0  0  0
  3  2  1  0  0  0
  5  6  2  0  0  0
  2  1  2  0  0  0
  6  1  1  0  0  0
  1 17  1  0  0  0
 20 17  1  0  0  0
 19 17  2  0  0  0
 17 18  2  0  0  0
 20 21  1  0  0  0
 20 22  1  0  0  0
 14 16  1  0  0  0
M  END
> <minimizedAffinity>
-7.82892

$$$$
5N1S_8GE_A_303


 22 24  0  0  0  0  0  0  0  0999 V2000
   -1.7473    7.4067   13.6403 C   0  0  0  0  0  0  0  0  0  0  0  0
   -1.4225    6.1044   13.2114 C   0  0  0  0  0  0  0  0  0  0  0  0
   -2.2071    5.0296   13.6157 C   0  0  0  0  0  0  0  0  0  0  0  0
   -3.3036    5.2160   14.4367 C   0  0  0  0  0  0  0  0  0  0  0  0
   -3.6510    6.4917   14.7975 C   0  0  0  0  0  0  0  0  0  0  0  0
   -2.8696    7.5827   14.4415 C   0  0  0  0  0  0  0  0  0  0  0  0
   -7.1175    1.3353   17.0185 C   0  0  0  0  0  0  0  0  0  0  0  0
   -6.0191    0.4665   17.0009 C   0  0  0  0  0  0  0  0  0  0  0  0
   -7.0277    2.6096   16.4566 C   0  0  0  0  0  0  0  0  0  0  0  0
   -5.8032    3.0247   15.9358 C   0  0  0  0  0  0  0  0  0  0  0  0
   -5.3826    4.2402   15.3158 C   0  0  0  0  0  0  0  0  0  0  0  0
   -4.7024    2.1742   15.9495 C   0  0  0  0  0  0  0  0  0  0  0  0
   -4.7966    0.8564   16.4673 C   0  0  0  0  0  0  0  0  0  0  0  0
   -3.6020    2.8663   15.3512 N   0  0  0  0  0  0  0  0  0  0  0  0
   -4.0756    4.1304   14.9869 C   0  0  0  0  0  0  0  0  0  0  0  0
   -2.6896    2.5200   15.2215 H   0  0  0  0  0  0  0  0  0  0  0  0
   -0.7027    8.7976   13.2992 S   0  0  0  0  0  0  0  0  0  0  0  0
    0.5354    8.1918   12.8501 O   0  0  0  0  0  0  0  0  0  0  0  0
   -1.4636    9.6094   12.3912 O   0  0  0  0  0  0  0  0  0  0  0  0
   -0.4736    9.6179   14.6855 N   0  0  0  0  0  0  0  0  0  0  0  0
   -1.3553   10.0353   14.9832 H   0  0  0  0  0  0  0  0  0  0  0  0
    0.2171   10.3533   14.5352 H   0  0  0  0  0  0  0  0  0  0  0  0
  9  7  2  0  0  0
  9 10  1  0  0  0
  7  8  1  0  0  0
  8 13  2  0  0  0
 10 11  1  0  0  0
 10 12  2  0  0  0
 11 15  2  0  0  0
 13 12  1  0  0  0
 12 14  1  0  0  0
 15 14  1  0  0  0
 15  4  1  0  0  0
  4  3  2  0  0  0
  4  5  1  0  0  0
  3  2  1  0  0  0
  5  6  2  0  0  0
  2  1  2  0  0  0
  6  1  1  0  0  0
  1 17  1  0  0  0
 20 17  1  0  0  0
 19 17  2  0  0  0
 17 18  2  0  0  0
 20 21  1  0  0  0
 20 22  1  0  0  0
 14 16  1  0  0  0
M  END
> <minimizedAffinity>
-7.61329

$$$$
5N1S_8GE_A_303


 22 24  0  0  0  0  0  0  0  0999 V2000
   -2.3324    8.6831   13.4343 C   0  0  0  0  0  0  0  0  0  0  0  0
   -2.7912    7.7421   12.4911 C   0  0  0  0  0  0  0  0  0  0  0  0
   -3.4436    6.5930   12.9247 C   0  0  0  0  0  0  0  0  0  0  0  0
   -3.6489    6.3544   14.2708 C   0  0  0  0  0  0  0  0  0  0  0  0
   -3.2575    7.3036   15.1785 C   0  0  0  0  0  0  0  0  0  0  0  0
   -2.5719    8.4442   14.7827 C   0  0  0  0  0  0  0  0  0  0  0  0
   -6.6464    1.7570   16.7509 C   0  0  0  0  0  0  0  0  0  0  0  0
   -5.4210    1.0874   16.6428 C   0  0  0  0  0  0  0  0  0  0  0  0
   -6.7945    3.0561   16.2630 C   0  0  0  0  0  0  0  0  0  0  0  0
   -5.6805    3.6979   15.7247 C   0  0  0  0  0  0  0  0  0  0  0  0
   -5.4956    4.9979   15.1635 C   0  0  0  0  0  0  0  0  0  0  0  0
   -4.4544    3.0452   15.6488 C   0  0  0  0  0  0  0  0  0  0  0  0
   -4.3053    1.7049   16.0903 C   0  0  0  0  0  0  0  0  0  0  0  0
   -3.5120    3.9431   15.0540 N   0  0  0  0  0  0  0  0  0  0  0  0
   -4.2046    5.1269   14.7826 C   0  0  0  0  0  0  0  0  0  0  0  0
   -2.5616    3.7624   14.8717 H   0  0  0  0  0  0  0  0  0  0  0  0
   -1.3537   10.0846   12.9658 S   0  0  0  0  0  0  0  0  0  0  0  0
   -0.9473   10.6559   14.2346 O   0  0  0  0  0  0  0  0  0  0  0  0
   -0.3583    9.5522   12.0780 O   0  0  0  0  0  0  0  0  0  0  0  0
   -2.3027   11.1202   12.1446 N   0  0  0  0  0  0  0  0  0  0  0  0
   -2.5767   10.6993   11.2568 H   0  0  0  0  0  0  0  0  0  0  0  0
   -1.7898   11.9839   11.9675 H   0  0  0  0  0  0  0  0  0  0  0  0
  9  7  2  0  0  0
  9 10  1  0  0  0
  7  8  1  0  0  0
  8 13  2  0  0  0
 10 11  1  0  0  0
 10 12  2  0  0  0
 11 15  2  0  0  0
 13 12  1  0  0  0
 12 14  1  0  0  0
 15 14  1  0  0  0
 15  4  1  0  0  0
  4  3  2  0  0  0
  4  5  1  0  0  0
  3  2  1  0  0  0
  5  6  2  0  0  0
  2  1  2  0  0  0
  6  1  1  0  0  0
  1 17  1  0  0  0
 20 17  1  0  0  0
 19 17  2  0  0  0
 17 18  2  0  0  0
 20 21  1  0  0  0
 20 22  1  0  0  0
 14 16  1  0  0  0
M  END
> <minimizedAffinity>
-7.19686

$$$$
5N1S_8GE_A_303


 22 24  0  0  0  0  0  0  0  0999 V2000
   -1.7619    7.1979   13.4140 C   0  0  0  0  0  0  0  0  0  0  0  0
   -1.5142    5.8461   13.1029 C   0  0  0  0  0  0  0  0  0  0  0  0
   -2.3331    4.8551   13.6335 C   0  0  0  0  0  0  0  0  0  0  0  0
   -3.3893    5.1733   14.4668 C   0  0  0  0  0  0  0  0  0  0  0  0
   -3.6634    6.4932   14.7135 C   0  0  0  0  0  0  0  0  0  0  0  0
   -2.8451    7.5050   14.2294 C   0  0  0  0  0  0  0  0  0  0  0  0
   -6.0871    0.4398   17.0334 C   0  0  0  0  0  0  0  0  0  0  0  0
   -7.2294    1.2489   16.9887 C   0  0  0  0  0  0  0  0  0  0  0  0
   -4.8518    0.9259   16.6029 C   0  0  0  0  0  0  0  0  0  0  0  0
   -4.7903    2.2110   16.0666 C   0  0  0  0  0  0  0  0  0  0  0  0
   -3.7119    2.9835   15.5382 C   0  0  0  0  0  0  0  0  0  0  0  0
   -5.9318    3.0024   15.9902 C   0  0  0  0  0  0  0  0  0  0  0  0
   -7.1822    2.5398   16.4761 C   0  0  0  0  0  0  0  0  0  0  0  0
   -5.5625    4.2551   15.4053 N   0  0  0  0  0  0  0  0  0  0  0  0
   -4.1909    4.1848   15.1432 C   0  0  0  0  0  0  0  0  0  0  0  0
   -6.1579    5.0177   15.2230 H   0  0  0  0  0  0  0  0  0  0  0  0
   -0.6663    8.4960   12.9075 S   0  0  0  0  0  0  0  0  0  0  0  0
   -1.3916    9.1570   11.8406 O   0  0  0  0  0  0  0  0  0  0  0  0
   -0.3726    9.2154   14.1153 O   0  0  0  0  0  0  0  0  0  0  0  0
    0.7015    7.8201   12.3424 N   0  0  0  0  0  0  0  0  0  0  0  0
    1.1955    7.3613   13.1078 H   0  0  0  0  0  0  0  0  0  0  0  0
    1.2967    8.5435   11.9388 H   0  0  0  0  0  0  0  0  0  0  0  0
  9  7  2  0  0  0
  9 10  1  0  0  0
  7  8  1  0  0  0
  8 13  2  0  0  0
 10 11  1  0  0  0
 10 12  2  0  0  0
 11 15  2  0  0  0
 13 12  1  0  0  0
 12 14  1  0  0  0
 15 14  1  0  0  0
 15  4  1  0  0  0
  4  3  2  0  0  0
  4  5  1  0  0  0
  3  2  1  0  0  0
  5  6  2  0  0  0
  2  1  2  0  0  0
  6  1  1  0  0  0
  1 17  1  0  0  0
 20 17  1  0  0  0
 19 17  2  0  0  0
 17 18  2  0  0  0
 20 21  1  0  0  0
 20 22  1  0  0  0
 14 16  1  0  0  0
M  END
> <minimizedAffinity>
-7.18328

$$$$
5N1S_8GE_A_303


 22 24  0  0  0  0  0  0  0  0999 V2000
   -3.7530    3.6874   15.0548 C   0  0  0  0  0  0  0  0  0  0  0  0
   -2.4224    3.9600   14.6801 C   0  0  0  0  0  0  0  0  0  0  0  0
   -2.0615    5.2504   14.3076 C   0  0  0  0  0  0  0  0  0  0  0  0
   -2.9894    6.2751   14.2957 C   0  0  0  0  0  0  0  0  0  0  0  0
   -4.2658    6.0171   14.7225 C   0  0  0  0  0  0  0  0  0  0  0  0
   -4.6684    4.7336   15.0664 C   0  0  0  0  0  0  0  0  0  0  0  0
   -2.0271   12.0936   13.0748 C   0  0  0  0  0  0  0  0  0  0  0  0
   -2.1448   11.6847   11.7404 C   0  0  0  0  0  0  0  0  0  0  0  0
   -2.0881   11.1635   14.1135 C   0  0  0  0  0  0  0  0  0  0  0  0
   -2.3340    9.8278   13.7998 C   0  0  0  0  0  0  0  0  0  0  0  0
   -2.4644    8.6573   14.6071 C   0  0  0  0  0  0  0  0  0  0  0  0
   -2.4855    9.4269   12.4764 C   0  0  0  0  0  0  0  0  0  0  0  0
   -2.3697   10.3541   11.4085 C   0  0  0  0  0  0  0  0  0  0  0  0
   -2.7208    8.0154   12.4666 N   0  0  0  0  0  0  0  0  0  0  0  0
   -2.7030    7.5981   13.8009 C   0  0  0  0  0  0  0  0  0  0  0  0
   -2.8668    7.4488   11.6748 H   0  0  0  0  0  0  0  0  0  0  0  0
   -4.3194    2.0402   15.3832 S   0  0  0  0  0  0  0  0  0  0  0  0
   -3.3256    1.5142   16.2982 O   0  0  0  0  0  0  0  0  0  0  0  0
   -5.6750    2.2041   15.8284 O   0  0  0  0  0  0  0  0  0  0  0  0
   -4.3133    1.2084   13.9848 N   0  0  0  0  0  0  0  0  0  0  0  0
   -5.0185    1.5941   13.3568 H   0  0  0  0  0  0  0  0  0  0  0  0
   -4.5239    0.2280   14.1715 H   0  0  0  0  0  0  0  0  0  0  0  0
  9  7  2  0  0  0
  9 10  1  0  0  0
  7  8  1  0  0  0
  8 13  2  0  0  0
 10 11  1  0  0  0
 10 12  2  0  0  0
 11 15  2  0  0  0
 13 12  1  0  0  0
 12 14  1  0  0  0
 15 14  1  0  0  0
 15  4  1  0  0  0
  4  3  2  0  0  0
  4  5  1  0  0  0
  3  2  1  0  0  0
  5  6  2  0  0  0
  2  1  2  0  0  0
  6  1  1  0  0  0
  1 17  1  0  0  0
 20 17  1  0  0  0
 19 17  2  0  0  0
 17 18  2  0  0  0
 20 21  1  0  0  0
 20 22  1  0  0  0
 14 16  1  0  0  0
M  END
> <minimizedAffinity>
-7.11013

$$$$
5N1S_8GE_A_303


 22 24  0  0  0  0  0  0  0  0999 V2000
   -5.9323    2.4097   16.0257 C   0  0  0  0  0  0  0  0  0  0  0  0
   -6.3903    3.7351   15.8877 C   0  0  0  0  0  0  0  0  0  0  0  0
   -5.8663    4.5449   14.8858 C   0  0  0  0  0  0  0  0  0  0  0  0
   -4.8977    4.0720   14.0202 C   0  0  0  0  0  0  0  0  0  0  0  0
   -4.5036    2.7632   14.1192 C   0  0  0  0  0  0  0  0  0  0  0  0
   -4.9795    1.9385   15.1297 C   0  0  0  0  0  0  0  0  0  0  0  0
   -2.7786    8.1519   10.1298 C   0  0  0  0  0  0  0  0  0  0  0  0
   -2.1066    7.0578    9.5703 C   0  0  0  0  0  0  0  0  0  0  0  0
   -3.5553    7.9998   11.2793 C   0  0  0  0  0  0  0  0  0  0  0  0
   -3.7016    6.7242   11.8219 C   0  0  0  0  0  0  0  0  0  0  0  0
   -4.4183    6.2368   12.9567 C   0  0  0  0  0  0  0  0  0  0  0  0
   -3.0620    5.6314   11.2460 C   0  0  0  0  0  0  0  0  0  0  0  0
   -2.2248    5.7828   10.1103 C   0  0  0  0  0  0  0  0  0  0  0  0
   -3.3922    4.4705   12.0149 N   0  0  0  0  0  0  0  0  0  0  0  0
   -4.2310    4.9007   13.0475 C   0  0  0  0  0  0  0  0  0  0  0  0
   -3.0880    3.5490   11.8492 H   0  0  0  0  0  0  0  0  0  0  0  0
   -6.4345    1.3764   17.3755 S   0  0  0  0  0  0  0  0  0  0  0  0
   -6.2745    2.2301   18.5360 O   0  0  0  0  0  0  0  0  0  0  0  0
   -7.7448    0.9147   17.0116 O   0  0  0  0  0  0  0  0  0  0  0  0
   -5.4221    0.1049   17.4510 N   0  0  0  0  0  0  0  0  0  0  0  0
   -5.5508   -0.4817   16.6266 H   0  0  0  0  0  0  0  0  0  0  0  0
   -5.6219   -0.4395   18.2902 H   0  0  0  0  0  0  0  0  0  0  0  0
  9  7  2  0  0  0
  9 10  1  0  0  0
  7  8  1  0  0  0
  8 13  2  0  0  0
 10 11  1  0  0  0
 10 12  2  0  0  0
 11 15  2  0  0  0
 13 12  1  0  0  0
 12 14  1  0  0  0
 15 14  1  0  0  0
 15  4  1  0  0  0
  4  3  2  0  0  0
  4  5  1  0  0  0
  3  2  1  0  0  0
  5  6  2  0  0  0
  2  1  2  0  0  0
  6  1  1  0  0  0
  1 17  1  0  0  0
 20 17  1  0  0  0
 19 17  2  0  0  0
 17 18  2  0  0  0
 20 21  1  0  0  0
 20 22  1  0  0  0
 14 16  1  0  0  0
M  END
> <minimizedAffinity>
-7.03950

$$$$
5N1S_8GE_A_303


 22 24  0  0  0  0  0  0  0  0999 V2000
   -3.9151    3.5819   15.1222 C   0  0  0  0  0  0  0  0  0  0  0  0
   -4.8209    4.6600   15.0693 C   0  0  0  0  0  0  0  0  0  0  0  0
   -4.3699    5.9219   14.6974 C   0  0  0  0  0  0  0  0  0  0  0  0
   -3.0423    6.1397   14.3796 C   0  0  0  0  0  0  0  0  0  0  0  0
   -2.1804    5.0743   14.3710 C   0  0  0  0  0  0  0  0  0  0  0  0
   -2.5893    3.8093   14.7715 C   0  0  0  0  0  0  0  0  0  0  0  0
   -0.5559   11.6206   14.1559 C   0  0  0  0  0  0  0  0  0  0  0  0
   -1.2781   11.7420   12.9620 C   0  0  0  0  0  0  0  0  0  0  0  0
   -0.5738   10.4288   14.8819 C   0  0  0  0  0  0  0  0  0  0  0  0
   -1.3770    9.3835   14.4293 C   0  0  0  0  0  0  0  0  0  0  0  0
   -1.6232    8.0703   14.9331 C   0  0  0  0  0  0  0  0  0  0  0  0
   -2.1215    9.5161   13.2617 C   0  0  0  0  0  0  0  0  0  0  0  0
   -2.0678   10.7027   12.4852 C   0  0  0  0  0  0  0  0  0  0  0  0
   -2.8350    8.2936   13.0514 N   0  0  0  0  0  0  0  0  0  0  0  0
   -2.4957    7.4458   14.1101 C   0  0  0  0  0  0  0  0  0  0  0  0
   -3.4456    8.0894   12.3066 H   0  0  0  0  0  0  0  0  0  0  0  0
   -4.3837    1.9887   15.7419 S   0  0  0  0  0  0  0  0  0  0  0  0
   -4.9600    1.3297   14.5865 O   0  0  0  0  0  0  0  0  0  0  0  0
   -3.1855    1.4619   16.3328 O   0  0  0  0  0  0  0  0  0  0  0  0
   -5.5036    2.2003   16.9032 N   0  0  0  0  0  0  0  0  0  0  0  0
   -5.0779    2.6647   17.7054 H   0  0  0  0  0  0  0  0  0  0  0  0
   -5.8707    1.2932   17.1908 H   0  0  0  0  0  0  0  0  0  0  0  0
  9  7  2  0  0  0
  9 10  1  0  0  0
  7  8  1  0  0  0
  8 13  2  0  0  0
 10 11  1  0  0  0
 10 12  2  0  0  0
 11 15  2  0  0  0
 13 12  1  0  0  0
 12 14  1  0  0  0
 15 14  1  0  0  0
 15  4  1  0  0  0
  4  3  2  0  0  0
  4  5  1  0  0  0
  3  2  1  0  0  0
  5  6  2  0  0  0
  2  1  2  0  0  0
  6  1  1  0  0  0
  1 17  1  0  0  0
 20 17  1  0  0  0
 19 17  2  0  0  0
 17 18  2  0  0  0
 20 21  1  0  0  0
 20 22  1  0  0  0
 14 16  1  0  0  0
M  END
> <minimizedAffinity>
-6.96636

$$$$
5N1S_8GE_A_303


 22 24  0  0  0  0  0  0  0  0999 V2000
   -0.8239    8.9913   13.9031 C   0  0  0  0  0  0  0  0  0  0  0  0
   -0.7269    7.8613   13.0669 C   0  0  0  0  0  0  0  0  0  0  0  0
   -1.5762    6.7788   13.2693 C   0  0  0  0  0  0  0  0  0  0  0  0
   -2.5166    6.7899   14.2824 C   0  0  0  0  0  0  0  0  0  0  0  0
   -2.6487    7.9170   15.0506 C   0  0  0  0  0  0  0  0  0  0  0  0
   -1.7938    9.0005   14.8990 C   0  0  0  0  0  0  0  0  0  0  0  0
   -6.5194    2.6499   16.0461 C   0  0  0  0  0  0  0  0  0  0  0  0
   -5.4411    1.7643   15.9253 C   0  0  0  0  0  0  0  0  0  0  0  0
   -6.3780    3.9961   15.7062 C   0  0  0  0  0  0  0  0  0  0  0  0
   -5.1242    4.4553   15.3063 C   0  0  0  0  0  0  0  0  0  0  0  0
   -4.6513    5.7435   14.9116 C   0  0  0  0  0  0  0  0  0  0  0  0
   -4.0443    3.5827   15.2195 C   0  0  0  0  0  0  0  0  0  0  0  0
   -4.1893    2.2010   15.5085 C   0  0  0  0  0  0  0  0  0  0  0  0
   -2.9051    4.3315   14.7844 N   0  0  0  0  0  0  0  0  0  0  0  0
   -3.3348    5.6514   14.6170 C   0  0  0  0  0  0  0  0  0  0  0  0
   -1.9962    3.9849   14.6327 H   0  0  0  0  0  0  0  0  0  0  0  0
    0.3291   10.3342   13.8077 S   0  0  0  0  0  0  0  0  0  0  0  0
   -0.3637   11.3215   13.0035 O   0  0  0  0  0  0  0  0  0  0  0  0
    0.6511   10.6344   15.1747 O   0  0  0  0  0  0  0  0  0  0  0  0
    1.6673    9.8070   13.0471 N   0  0  0  0  0  0  0  0  0  0  0  0
    2.1386    9.1145   13.6291 H   0  0  0  0  0  0  0  0  0  0  0  0
    2.2948   10.5933   12.8786 H   0  0  0  0  0  0  0  0  0  0  0  0
  9  7  2  0  0  0
  9 10  1  0  0  0
  7  8  1  0  0  0
  8 13  2  0  0  0
 10 11  1  0  0  0
 10 12  2  0  0  0
 11 15  2  0  0  0
 13 12  1  0  0  0
 12 14  1  0  0  0
 15 14  1  0  0  0
 15  4  1  0  0  0
  4  3  2  0  0  0
  4  5  1  0  0  0
  3  2  1  0  0  0
  5  6  2  0  0  0
  2  1  2  0  0  0
  6  1  1  0  0  0
  1 17  1  0  0  0
 20 17  1  0  0  0
 19 17  2  0  0  0
 17 18  2  0  0  0
 20 21  1  0  0  0
 20 22  1  0  0  0
 14 16  1  0  0  0
M  END
> <minimizedAffinity>
-6.72272

$$$$
