3G2Z_GZ2_A_1


 15 16  0  0  0  0  0  0  0  0999 V2000
   -6.9429   55.1672   11.7525 N   0  0  0  0  0  0  0  0  0  0  0  0
   -6.8125   55.4344   10.8140 H   0  0  0  0  0  0  0  0  0  0  0  0
   -2.8446   53.8056   13.6349 O   0  0  0  0  0  0  0  0  0  0  0  0
   -3.9746   53.5137   13.2719 C   0  0  0  0  0  0  0  0  0  0  0  0
   -4.8453   54.5637   12.6993 C   0  0  0  0  0  0  0  0  0  0  0  0
   -6.0748   54.2690   12.2387 C   0  0  0  0  0  0  0  0  0  0  0  0
   -6.6106   52.8542   12.2515 C   0  0  0  0  0  0  0  0  0  0  0  0
   -5.5359   51.7760   12.3653 C   0  0  0  0  0  0  0  0  0  0  0  0
   -4.4746   52.0901   13.4081 C   0  0  0  0  0  0  0  0  0  0  0  0
   -7.9873   55.7548   12.4079 C   0  0  0  0  0  0  0  0  0  0  0  0
   -8.1882   55.6878   13.7307 N   0  0  0  0  0  0  0  0  0  0  0  0
   -9.3681   56.4228   13.9378 N   0  0  0  0  0  0  0  0  0  0  0  0
   -9.8021   56.9152   12.6926 N   0  0  0  0  0  0  0  0  0  0  0  0
   -8.9009   56.4759   11.7237 N   0  0  0  0  0  0  0  0  0  0  0  0
   -8.9253   56.6523   10.7554 H   0  0  0  0  0  0  0  0  0  0  0  0
  3  4  2  0  0  0
  4  5  1  0  0  0
  4  9  1  0  0  0
  5  6  2  0  0  0
  6  7  1  0  0  0
  6  1  1  0  0  0
  7  8  1  0  0  0
  8  9  1  0  0  0
  1 10  1  0  0  0
 10 11  2  0  0  0
 10 14  1  0  0  0
 11 12  1  0  0  0
 12 13  2  0  0  0
 13 14  1  0  0  0
  1  2  1  0  0  0
 14 15  1  0  0  0
M  END
> <minimizedAffinity>
-6.81248

$$$$
3G2Z_GZ2_A_1


 15 16  0  0  0  0  0  0  0  0999 V2000
   -4.9289   55.1647   13.3686 N   0  0  0  0  0  0  0  0  0  0  0  0
   -4.3547   55.9189   13.6346 H   0  0  0  0  0  0  0  0  0  0  0  0
   -1.2368   52.4821   12.2001 O   0  0  0  0  0  0  0  0  0  0  0  0
   -2.3963   52.5536   12.5800 C   0  0  0  0  0  0  0  0  0  0  0  0
   -3.0165   53.8836   12.7665 C   0  0  0  0  0  0  0  0  0  0  0  0
   -4.3066   54.0016   13.1306 C   0  0  0  0  0  0  0  0  0  0  0  0
   -5.1896   52.7898   13.3322 C   0  0  0  0  0  0  0  0  0  0  0  0
   -4.6774   51.5194   12.6582 C   0  0  0  0  0  0  0  0  0  0  0  0
   -3.1870   51.2911   12.8556 C   0  0  0  0  0  0  0  0  0  0  0  0
   -6.2671   55.4250   13.2849 C   0  0  0  0  0  0  0  0  0  0  0  0
   -7.0453   55.7446   14.3274 N   0  0  0  0  0  0  0  0  0  0  0  0
   -8.3228   55.9111   13.7656 N   0  0  0  0  0  0  0  0  0  0  0  0
   -8.2233   55.6944   12.3784 N   0  0  0  0  0  0  0  0  0  0  0  0
   -6.8947   55.3847   12.0902 N   0  0  0  0  0  0  0  0  0  0  0  0
   -6.5015   55.1817   11.2108 H   0  0  0  0  0  0  0  0  0  0  0  0
  3  4  2  0  0  0
  4  5  1  0  0  0
  4  9  1  0  0  0
  5  6  2  0  0  0
  6  7  1  0  0  0
  6  1  1  0  0  0
  7  8  1  0  0  0
  8  9  1  0  0  0
  1 10  1  0  0  0
 10 11  2  0  0  0
 10 14  1  0  0  0
 11 12  1  0  0  0
 12 13  2  0  0  0
 13 14  1  0  0  0
  1  2  1  0  0  0
 14 15  1  0  0  0
M  END
> <minimizedAffinity>
-6.80647

$$$$
3G2Z_GZ2_A_1


 15 16  0  0  0  0  0  0  0  0999 V2000
   -4.6989   53.5079   14.2848 N   0  0  0  0  0  0  0  0  0  0  0  0
   -4.4479   53.3516   15.2239 H   0  0  0  0  0  0  0  0  0  0  0  0
   -1.0992   53.7756   11.2577 O   0  0  0  0  0  0  0  0  0  0  0  0
   -1.9542   53.0950   11.8050 C   0  0  0  0  0  0  0  0  0  0  0  0
   -2.8712   53.7285   12.7778 C   0  0  0  0  0  0  0  0  0  0  0  0
   -3.8593   53.0238   13.3589 C   0  0  0  0  0  0  0  0  0  0  0  0
   -4.1017   51.5687   13.0230 C   0  0  0  0  0  0  0  0  0  0  0  0
   -3.4921   51.1195   11.6974 C   0  0  0  0  0  0  0  0  0  0  0  0
   -2.0710   51.6183   11.4875 C   0  0  0  0  0  0  0  0  0  0  0  0
   -5.8623   54.1928   14.0769 C   0  0  0  0  0  0  0  0  0  0  0  0
   -6.9519   53.6788   13.4910 N   0  0  0  0  0  0  0  0  0  0  0  0
   -7.8756   54.7380   13.4919 N   0  0  0  0  0  0  0  0  0  0  0  0
   -7.2713   55.8464   14.1144 N   0  0  0  0  0  0  0  0  0  0  0  0
   -5.9791   55.4748   14.4836 N   0  0  0  0  0  0  0  0  0  0  0  0
   -5.3021   56.0252   14.9397 H   0  0  0  0  0  0  0  0  0  0  0  0
  3  4  2  0  0  0
  4  5  1  0  0  0
  4  9  1  0  0  0
  5  6  2  0  0  0
  6  7  1  0  0  0
  6  1  1  0  0  0
  7  8  1  0  0  0
  8  9  1  0  0  0
  1 10  1  0  0  0
 10 11  2  0  0  0
 10 14  1  0  0  0
 11 12  1  0  0  0
 12 13  2  0  0  0
 13 14  1  0  0  0
  1  2  1  0  0  0
 14 15  1  0  0  0
M  END
> <minimizedAffinity>
-6.59728

$$$$
3G2Z_GZ2_A_1


 15 16  0  0  0  0  0  0  0  0999 V2000
   -4.7955   53.3724   14.3159 N   0  0  0  0  0  0  0  0  0  0  0  0
   -4.5700   53.1768   15.2540 H   0  0  0  0  0  0  0  0  0  0  0  0
   -3.0619   49.9121   11.6299 O   0  0  0  0  0  0  0  0  0  0  0  0
   -3.0723   51.0979   11.9262 C   0  0  0  0  0  0  0  0  0  0  0  0
   -3.9759   51.5685   12.9987 C   0  0  0  0  0  0  0  0  0  0  0  0
   -3.9757   52.8561   13.3896 C   0  0  0  0  0  0  0  0  0  0  0  0
   -3.0341   53.8716   12.7804 C   0  0  0  0  0  0  0  0  0  0  0  0
   -1.8214   53.2637   12.0801 C   0  0  0  0  0  0  0  0  0  0  0  0
   -2.1675   52.0724   11.2005 C   0  0  0  0  0  0  0  0  0  0  0  0
   -5.9074   54.1383   14.1094 C   0  0  0  0  0  0  0  0  0  0  0  0
   -7.0214   53.7113   13.5000 N   0  0  0  0  0  0  0  0  0  0  0  0
   -7.8719   54.8301   13.5131 N   0  0  0  0  0  0  0  0  0  0  0  0
   -7.2025   55.8820   14.1663 N   0  0  0  0  0  0  0  0  0  0  0  0
   -5.9431   55.4166   14.5423 N   0  0  0  0  0  0  0  0  0  0  0  0
   -5.2367   55.9105   15.0180 H   0  0  0  0  0  0  0  0  0  0  0  0
  3  4  2  0  0  0
  4  5  1  0  0  0
  4  9  1  0  0  0
  5  6  2  0  0  0
  6  7  1  0  0  0
  6  1  1  0  0  0
  7  8  1  0  0  0
  8  9  1  0  0  0
  1 10  1  0  0  0
 10 11  2  0  0  0
 10 14  1  0  0  0
 11 12  1  0  0  0
 12 13  2  0  0  0
 13 14  1  0  0  0
  1  2  1  0  0  0
 14 15  1  0  0  0
M  END
> <minimizedAffinity>
-6.33035

$$$$
3G2Z_GZ2_A_1


 15 16  0  0  0  0  0  0  0  0999 V2000
   -3.3942   53.6829   13.5210 N   0  0  0  0  0  0  0  0  0  0  0  0
   -3.0808   53.9495   14.4154 H   0  0  0  0  0  0  0  0  0  0  0  0
   -7.5775   55.8414   13.7057 O   0  0  0  0  0  0  0  0  0  0  0  0
   -6.9083   54.8933   13.3221 C   0  0  0  0  0  0  0  0  0  0  0  0
   -5.4686   54.8400   13.6579 C   0  0  0  0  0  0  0  0  0  0  0  0
   -4.7123   53.7861   13.3002 C   0  0  0  0  0  0  0  0  0  0  0  0
   -5.2995   52.5967   12.5727 C   0  0  0  0  0  0  0  0  0  0  0  0
   -6.8153   52.4678   12.6994 C   0  0  0  0  0  0  0  0  0  0  0  0
   -7.5503   53.7858   12.5118 C   0  0  0  0  0  0  0  0  0  0  0  0
   -2.4355   53.2509   12.6493 C   0  0  0  0  0  0  0  0  0  0  0  0
   -2.2454   53.7502   11.4208 N   0  0  0  0  0  0  0  0  0  0  0  0
   -1.1734   53.0009   10.9064 N   0  0  0  0  0  0  0  0  0  0  0  0
   -0.7632   52.0867   11.8949 N   0  0  0  0  0  0  0  0  0  0  0  0
   -1.5858   52.2645   13.0066 N   0  0  0  0  0  0  0  0  0  0  0  0
   -1.5540   51.7785   13.8622 H   0  0  0  0  0  0  0  0  0  0  0  0
  3  4  2  0  0  0
  4  5  1  0  0  0
  4  9  1  0  0  0
  5  6  2  0  0  0
  6  7  1  0  0  0
  6  1  1  0  0  0
  7  8  1  0  0  0
  8  9  1  0  0  0
  1 10  1  0  0  0
 10 11  2  0  0  0
 10 14  1  0  0  0
 11 12  1  0  0  0
 12 13  2  0  0  0
 13 14  1  0  0  0
  1  2  1  0  0  0
 14 15  1  0  0  0
M  END
> <minimizedAffinity>
-6.26671

$$$$
3G2Z_GZ2_A_1


 15 16  0  0  0  0  0  0  0  0999 V2000
   -6.7224   55.2124   11.8544 N   0  0  0  0  0  0  0  0  0  0  0  0
   -6.2208   55.7939   11.2383 H   0  0  0  0  0  0  0  0  0  0  0  0
   -6.6194   50.5680   11.0718 O   0  0  0  0  0  0  0  0  0  0  0  0
   -6.1157   51.5490   11.5988 C   0  0  0  0  0  0  0  0  0  0  0  0
   -6.7411   52.8758   11.4064 C   0  0  0  0  0  0  0  0  0  0  0  0
   -6.2469   53.9695   12.0150 C   0  0  0  0  0  0  0  0  0  0  0  0
   -5.0573   53.8917   12.9465 C   0  0  0  0  0  0  0  0  0  0  0  0
   -4.7792   52.4948   13.4958 C   0  0  0  0  0  0  0  0  0  0  0  0
   -4.8641   51.4037   12.4399 C   0  0  0  0  0  0  0  0  0  0  0  0
   -7.8219   55.7659   12.4462 C   0  0  0  0  0  0  0  0  0  0  0  0
   -8.0996   55.6895   13.7546 N   0  0  0  0  0  0  0  0  0  0  0  0
   -9.3120   56.3872   13.8908 N   0  0  0  0  0  0  0  0  0  0  0  0
   -9.6855   56.8692   12.6222 N   0  0  0  0  0  0  0  0  0  0  0  0
   -8.7145   56.4603   11.7088 N   0  0  0  0  0  0  0  0  0  0  0  0
   -8.6862   56.6384   10.7410 H   0  0  0  0  0  0  0  0  0  0  0  0
  3  4  2  0  0  0
  4  5  1  0  0  0
  4  9  1  0  0  0
  5  6  2  0  0  0
  6  7  1  0  0  0
  6  1  1  0  0  0
  7  8  1  0  0  0
  8  9  1  0  0  0
  1 10  1  0  0  0
 10 11  2  0  0  0
 10 14  1  0  0  0
 11 12  1  0  0  0
 12 13  2  0  0  0
 13 14  1  0  0  0
  1  2  1  0  0  0
 14 15  1  0  0  0
M  END
> <minimizedAffinity>
-6.13703

$$$$
3G2Z_GZ2_A_1


 15 16  0  0  0  0  0  0  0  0999 V2000
   -6.3057   52.6361   13.3880 N   0  0  0  0  0  0  0  0  0  0  0  0
   -6.8428   51.9381   13.8279 H   0  0  0  0  0  0  0  0  0  0  0  0
   -4.4223   51.9415    9.1261 O   0  0  0  0  0  0  0  0  0  0  0  0
   -4.3091   51.8722   10.3411 C   0  0  0  0  0  0  0  0  0  0  0  0
   -5.4272   52.3209   11.1995 C   0  0  0  0  0  0  0  0  0  0  0  0
   -5.3606   52.2091   12.5388 C   0  0  0  0  0  0  0  0  0  0  0  0
   -4.1627   51.5917   13.2263 C   0  0  0  0  0  0  0  0  0  0  0  0
   -3.3020   50.7135   12.3216 C   0  0  0  0  0  0  0  0  0  0  0  0
   -3.0354   51.3314   10.9579 C   0  0  0  0  0  0  0  0  0  0  0  0
   -6.6101   53.9271   13.7139 C   0  0  0  0  0  0  0  0  0  0  0  0
   -7.7393   54.5542   13.3584 N   0  0  0  0  0  0  0  0  0  0  0  0
   -7.6046   55.8423   13.9042 N   0  0  0  0  0  0  0  0  0  0  0  0
   -6.3765   55.9020   14.5894 N   0  0  0  0  0  0  0  0  0  0  0  0
   -5.7540   54.6614   14.4560 N   0  0  0  0  0  0  0  0  0  0  0  0
   -4.8835   54.3829   14.8217 H   0  0  0  0  0  0  0  0  0  0  0  0
  3  4  2  0  0  0
  4  5  1  0  0  0
  4  9  1  0  0  0
  5  6  2  0  0  0
  6  7  1  0  0  0
  6  1  1  0  0  0
  7  8  1  0  0  0
  8  9  1  0  0  0
  1 10  1  0  0  0
 10 11  2  0  0  0
 10 14  1  0  0  0
 11 12  1  0  0  0
 12 13  2  0  0  0
 13 14  1  0  0  0
  1  2  1  0  0  0
 14 15  1  0  0  0
M  END
> <minimizedAffinity>
-5.92721

$$$$
3G2Z_GZ2_A_1


 15 16  0  0  0  0  0  0  0  0999 V2000
   -5.3523   53.1267   12.1730 N   0  0  0  0  0  0  0  0  0  0  0  0
   -5.6315   52.1855   12.0987 H   0  0  0  0  0  0  0  0  0  0  0  0
   -8.6132   56.0425   13.9215 O   0  0  0  0  0  0  0  0  0  0  0  0
   -8.0042   55.6202   12.9496 C   0  0  0  0  0  0  0  0  0  0  0  0
   -6.9790   54.5704   13.1374 C   0  0  0  0  0  0  0  0  0  0  0  0
   -6.3272   54.0424   12.0852 C   0  0  0  0  0  0  0  0  0  0  0  0
   -6.6326   54.4679   10.6659 C   0  0  0  0  0  0  0  0  0  0  0  0
   -7.9913   55.1413   10.4900 C   0  0  0  0  0  0  0  0  0  0  0  0
   -8.2994   56.1682   11.5684 C   0  0  0  0  0  0  0  0  0  0  0  0
   -4.0165   53.3476   12.3534 C   0  0  0  0  0  0  0  0  0  0  0  0
   -3.0948   53.2611   11.3850 N   0  0  0  0  0  0  0  0  0  0  0  0
   -1.8844   53.5597   12.0339 N   0  0  0  0  0  0  0  0  0  0  0  0
   -2.1672   53.8339   13.3852 N   0  0  0  0  0  0  0  0  0  0  0  0
   -3.5422   53.6934   13.5692 N   0  0  0  0  0  0  0  0  0  0  0  0
   -4.0536   53.8185   14.4010 H   0  0  0  0  0  0  0  0  0  0  0  0
  3  4  2  0  0  0
  4  5  1  0  0  0
  4  9  1  0  0  0
  5  6  2  0  0  0
  6  7  1  0  0  0
  6  1  1  0  0  0
  7  8  1  0  0  0
  8  9  1  0  0  0
  1 10  1  0  0  0
 10 11  2  0  0  0
 10 14  1  0  0  0
 11 12  1  0  0  0
 12 13  2  0  0  0
 13 14  1  0  0  0
  1  2  1  0  0  0
 14 15  1  0  0  0
M  END
> <minimizedAffinity>
-5.69183

$$$$
3G2Z_GZ2_A_1


 15 16  0  0  0  0  0  0  0  0999 V2000
   -6.6826   54.2924   13.3383 N   0  0  0  0  0  0  0  0  0  0  0  0
   -7.0586   54.1359   14.2346 H   0  0  0  0  0  0  0  0  0  0  0  0
   -9.5455   53.2304    9.7509 O   0  0  0  0  0  0  0  0  0  0  0  0
   -9.1120   54.0689   10.5273 C   0  0  0  0  0  0  0  0  0  0  0  0
   -8.1029   53.6714   11.5334 C   0  0  0  0  0  0  0  0  0  0  0  0
   -7.5627   54.5778   12.3684 C   0  0  0  0  0  0  0  0  0  0  0  0
   -7.9316   56.0433   12.2973 C   0  0  0  0  0  0  0  0  0  0  0  0
   -8.5542   56.4713   10.9708 C   0  0  0  0  0  0  0  0  0  0  0  0
   -9.6049   55.4997   10.4565 C   0  0  0  0  0  0  0  0  0  0  0  0
   -5.3248   54.1935   13.2275 C   0  0  0  0  0  0  0  0  0  0  0  0
   -4.5200   53.6931   14.1743 N   0  0  0  0  0  0  0  0  0  0  0  0
   -3.2314   53.8017   13.6239 N   0  0  0  0  0  0  0  0  0  0  0  0
   -3.3500   54.3579   12.3364 N   0  0  0  0  0  0  0  0  0  0  0  0
   -4.7026   54.6010   12.1008 N   0  0  0  0  0  0  0  0  0  0  0  0
   -5.1128   54.9847   11.2922 H   0  0  0  0  0  0  0  0  0  0  0  0
  3  4  2  0  0  0
  4  5  1  0  0  0
  4  9  1  0  0  0
  5  6  2  0  0  0
  6  7  1  0  0  0
  6  1  1  0  0  0
  7  8  1  0  0  0
  8  9  1  0  0  0
  1 10  1  0  0  0
 10 11  2  0  0  0
 10 14  1  0  0  0
 11 12  1  0  0  0
 12 13  2  0  0  0
 13 14  1  0  0  0
  1  2  1  0  0  0
 14 15  1  0  0  0
M  END
> <minimizedAffinity>
-5.62290

$$$$
3G2Z_GZ2_A_1


 15 16  0  0  0  0  0  0  0  0999 V2000
   -6.5861   55.9497   12.9458 N   0  0  0  0  0  0  0  0  0  0  0  0
   -6.4833   56.8864   13.2308 H   0  0  0  0  0  0  0  0  0  0  0  0
  -10.6241   56.9142   10.7194 O   0  0  0  0  0  0  0  0  0  0  0  0
   -9.6560   56.1804   10.8540 C   0  0  0  0  0  0  0  0  0  0  0  0
   -8.6319   56.5114   11.8689 C   0  0  0  0  0  0  0  0  0  0  0  0
   -7.5810   55.6988   12.0834 C   0  0  0  0  0  0  0  0  0  0  0  0
   -7.4141   54.3988   11.3276 C   0  0  0  0  0  0  0  0  0  0  0  0
   -8.6987   53.8701   10.6947 C   0  0  0  0  0  0  0  0  0  0  0  0
   -9.5101   54.9453    9.9889 C   0  0  0  0  0  0  0  0  0  0  0  0
   -5.6982   55.0568   13.4750 C   0  0  0  0  0  0  0  0  0  0  0  0
   -5.9759   54.2134   14.4781 N   0  0  0  0  0  0  0  0  0  0  0  0
   -4.7755   53.5108   14.6798 N   0  0  0  0  0  0  0  0  0  0  0  0
   -3.8323   53.9766   13.7446 N   0  0  0  0  0  0  0  0  0  0  0  0
   -4.4453   54.9683   12.9798 N   0  0  0  0  0  0  0  0  0  0  0  0
   -4.0519   55.4885   12.2423 H   0  0  0  0  0  0  0  0  0  0  0  0
  3  4  2  0  0  0
  4  5  1  0  0  0
  4  9  1  0  0  0
  5  6  2  0  0  0
  6  7  1  0  0  0
  6  1  1  0  0  0
  7  8  1  0  0  0
  8  9  1  0  0  0
  1 10  1  0  0  0
 10 11  2  0  0  0
 10 14  1  0  0  0
 11 12  1  0  0  0
 12 13  2  0  0  0
 13 14  1  0  0  0
  1  2  1  0  0  0
 14 15  1  0  0  0
M  END
> <minimizedAffinity>
-5.62084

$$$$
