3KJD_78P_A_1
  RCSB PDB12061709273D
Coordinates from PDB:3KJD:A:1 Model:1 without hydrogens
 18 20  0  0  0  0            999 V2000
   -4.5300   34.2590   39.6100   C 0  0  0  0  0  0  0  0  0  0  0  0
   -4.6280   33.8220   40.9280   C 0  0  0  0  0  0  0  0  0  0  0  0
   -5.8530   33.3540   41.4120   C 0  0  0  0  0  0  0  0  0  0  0  0
   -4.0360   34.9800   37.6590   C 0  0  0  0  0  0  0  0  0  0  0  0
   -3.4220   33.8050   41.8730   C 0  0  0  0  0  0  0  0  0  0  0  0
   -3.2780   35.6020   36.4930   C 0  0  0  0  0  0  0  0  0  0  0  0
   -1.8020   37.1720   37.5010   C 0  0  0  0  0  0  0  0  0  0  0  0
   -3.8660   36.9730   36.2380   C 0  0  0  0  0  0  0  0  0  0  0  0
   -6.9920   33.3350   40.6080   C 0  0  0  0  0  0  0  0  0  0  0  0
   -6.8770   33.7760   39.3110   C 0  0  0  0  0  0  0  0  0  0  0  0
   -5.6620   34.2220   38.8080   C 0  0  0  0  0  0  0  0  0  0  0  0
   -5.3070   34.6570   37.6020   N 0  0  0  0  0  0  0  0  0  0  0  0
   -3.5280   34.7750   38.8550   N 0  0  0  0  0  0  0  0  0  0  0  0
   -2.2780   34.2350   41.3790   N 0  0  0  0  0  0  0  0  0  0  0  0
   -3.5000   33.3150   42.9960   O 0  0  0  0  0  0  0  0  0  0  0  0
   -1.8660   35.8350   36.8740   N 0  0  0  0  0  0  0  0  0  0  0  0
   -3.1210   37.8940   37.1790   C 0  0  0  0  0  0  0  0  0  0  0  0
   -3.4370   34.7970   35.2110   C 0  0  0  0  0  0  0  0  0  0  0  0
 18  6  1  0  0  0  0
  6  8  1  0  0  0  0
  6 16  1  0  0  0  0
  6  4  1  0  0  0  0
  8 17  1  0  0  0  0
 16  7  1  0  0  0  0
 12  4  2  0  0  0  0
 12 11  1  0  0  0  0
  4 13  1  0  0  0  0
  7 17  1  0  0  0  0
 13  1  1  0  0  0  0
 11 10  2  0  0  0  0
 11  1  1  0  0  0  0
 10  9  1  0  0  0  0
  1  2  2  0  0  0  0
  9  3  2  0  0  0  0
  2  3  1  0  0  0  0
  2  5  1  0  0  0  0
 14  5  1  0  0  0  0
  5 15  2  0  0  0  0
A    1
C4
A    2
C5
A    3
C6
A    4
C8
A    5
C10
A    6
C13
A    7
C15
A    8
C17
A    9
C1
A   10
C2
A   11
C3
A   12
N7
A   13
N9
A   14
N11
A   15
O12
A   16
N14
A   17
C16
A   18
C18
M  END
>  <InstanceId>
3KJD_78P_A_1

>  <ChemCompId>
78P

>  <PdbId>
3KJD

>  <ChainId>
A

>  <ResidueNumber>
1

>  <InsertionCode>


>  <Model>
1

>  <AltIds>


>  <MissingHeavyAtoms>
0

>  <ObservedFormula>
C13 N4 O

>  <Name>
(2R)-2-(7-carbamoyl-1H-benzimidazol-2-yl)-2-methylpyrrolidinium

>  <SystematicName>
2-[(2R)-2-methylpyrrolidin-2-yl]-3H-benzimidazole-4-carboxamide

>  <Synonyms>


>  <Type>
NON-POLYMER

>  <Formula>
C13 H16 N4 O

>  <MolecularWeight>
244.292

>  <ModifiedDate>
2011-06-04

>  <Parent>


>  <OneLetterCode>


>  <SubcomponentList>


>  <AmbiguousFlag>
N

>  <InChI>
InChI=1S/C13H16N4O/c1-13(6-3-7-15-13)12-16-9-5-2-4-8(11(14)18)10(9)17-12/h2,4-5,15H,3,6-7H2,1H3,(H2,14,18)(H,16,17)/t13-/m1/s1

>  <InChIKey>
JNAHVYVRKWKWKQ-CYBMUJFWSA-N

>  <SMILES>
C[C@@]1(CCCN1)c2[nH]c3c(cccc3n2)C(=O)N

$$$$
