5N6S_8P5_A_507


 28 29  0  0  0  0  0  0  0  0999 V2000
   -3.4096   -9.2420   10.3139 O   0  0  0  0  0  0  0  0  0  0  0  0
   -5.1094   -7.8427    9.4050 C   0  0  0  0  0  0  0  0  0  0  0  0
   -6.5946   -7.6134    9.3404 C   0  0  0  0  0  0  0  0  0  0  0  0
   -4.4561   -6.6514    9.8963 O   0  0  0  0  0  0  0  0  0  0  0  0
   -7.3418   -8.8396    8.8726 C   0  0  0  0  0  0  0  0  0  0  0  0
   -6.7287   -9.4631    7.5909 C   0  0  0  0  0  0  0  0  0  0  0  0
   -6.7698  -10.2403    8.9209 C   0  0  0  0  0  0  0  0  0  0  0  0
   -5.4773  -10.4141    9.7314 C   0  0  0  0  0  0  0  0  0  0  0  0
   -5.7689  -11.2992   10.8190 O   0  0  0  0  0  0  0  0  0  0  0  0
   -4.8333   -9.1006   10.2537 C   0  0  0  0  0  0  0  0  0  0  0  0
   -3.0163   -8.4177   10.6408 H   0  0  0  0  0  0  0  0  0  0  0  0
   -4.7933   -6.4390   10.7806 H   0  0  0  0  0  0  0  0  0  0  0  0
   -6.4403  -10.8970   11.3921 H   0  0  0  0  0  0  0  0  0  0  0  0
   -7.7183   -9.6198    6.4738 C   0  0  0  0  0  0  0  0  0  0  0  0
   -7.7474   -8.7876    5.5561 O   0  0  0  0  0  0  0  0  0  0  0  0
   -8.6650  -10.5031    6.6700 N   0  0  0  0  0  0  0  0  0  0  0  0
   -8.4680  -11.3764    7.0796 H   0  0  0  0  0  0  0  0  0  0  0  0
  -10.0031  -10.1563    6.2673 C   0  0  0  0  0  0  0  0  0  0  0  0
  -10.4762  -11.1794    5.2915 C   0  0  0  0  0  0  0  0  0  0  0  0
  -11.7893  -10.7785    4.6745 C   0  0  0  0  0  0  0  0  0  0  0  0
  -12.7481  -11.9288    4.8832 C   0  0  0  0  0  0  0  0  0  0  0  0
  -13.8474  -14.9641    3.8286 N   0  0  0  0  0  0  0  0  0  0  0  0
  -13.0732  -12.5864    3.6272 N   0  0  0  0  0  0  0  0  0  0  0  0
  -13.4966  -13.8890    3.6803 N   0  0  0  0  0  0  0  0  0  0  0  0
  -13.2000  -15.6636    4.0750 H   0  0  0  0  0  0  0  0  0  0  0  0
   -6.8793   -6.5367    8.3274 C   0  0  0  0  0  0  0  0  0  0  0  0
   -8.2716   -6.2631    8.3322 O   0  0  0  0  0  0  0  0  0  0  0  0
   -8.5401   -5.9685    9.2165 H   0  0  0  0  0  0  0  0  0  0  0  0
 22 24  2  0  0  0
 24 23  2  0  0  0
 23 21  1  0  0  0
 21 20  1  0  0  0
 20 19  1  0  0  0
 19 18  1  0  0  0
 15 14  2  0  0  0
 18 16  1  0  0  0
 14 16  1  0  0  0
 14  6  1  0  0  0
  6  5  1  0  0  0
  6  7  1  0  0  0
 26 27  1  0  0  0
 26  3  1  0  0  0
  5  7  1  0  0  0
  5  3  1  0  0  0
  7  8  1  0  0  0
  3  2  1  0  0  0
  2  4  1  0  0  0
  2 10  1  0  0  0
  8 10  1  0  0  0
  8  9  1  0  0  0
 10  1  1  0  0  0
  1 11  1  0  0  0
  4 12  1  0  0  0
 22 25  1  0  0  0
 27 28  1  0  0  0
 16 17  1  0  0  0
  9 13  1  0  0  0
M  CHG 1  24   1
M  END
> <minimizedAffinity>
-9.89177

$$$$
5N6S_8P5_A_507


 28 29  0  0  0  0  0  0  0  0999 V2000
  -14.9583   -9.8653    3.9677 O   0  0  0  0  0  0  0  0  0  0  0  0
  -13.0463  -10.9829    3.0910 C   0  0  0  0  0  0  0  0  0  0  0  0
  -11.9124  -11.9101    3.4332 C   0  0  0  0  0  0  0  0  0  0  0  0
  -13.8135  -11.5377    1.9997 O   0  0  0  0  0  0  0  0  0  0  0  0
  -11.0943  -11.4058    4.5982 C   0  0  0  0  0  0  0  0  0  0  0  0
  -10.6863   -9.9168    4.4448 C   0  0  0  0  0  0  0  0  0  0  0  0
  -11.5961  -10.3851    5.5969 C   0  0  0  0  0  0  0  0  0  0  0  0
  -13.0984  -10.0716    5.5447 C   0  0  0  0  0  0  0  0  0  0  0  0
  -13.6641  -10.4732    6.7977 O   0  0  0  0  0  0  0  0  0  0  0  0
  -13.8755  -10.7148    4.3635 C   0  0  0  0  0  0  0  0  0  0  0  0
  -15.4374  -10.2745    3.2303 H   0  0  0  0  0  0  0  0  0  0  0  0
  -14.1656  -12.4034    2.2593 H   0  0  0  0  0  0  0  0  0  0  0  0
  -13.5527  -11.4301    6.9109 H   0  0  0  0  0  0  0  0  0  0  0  0
   -9.2070   -9.6908    4.5563 C   0  0  0  0  0  0  0  0  0  0  0  0
   -8.4652   -9.9932    3.6108 O   0  0  0  0  0  0  0  0  0  0  0  0
   -8.7613   -9.4124    5.7558 N   0  0  0  0  0  0  0  0  0  0  0  0
   -9.2488   -8.7956    6.3484 H   0  0  0  0  0  0  0  0  0  0  0  0
   -7.5353  -10.0371    6.1800 C   0  0  0  0  0  0  0  0  0  0  0  0
   -6.6536   -8.9854    6.7624 C   0  0  0  0  0  0  0  0  0  0  0  0
   -7.1754   -8.5113    8.0924 C   0  0  0  0  0  0  0  0  0  0  0  0
   -7.1511   -6.9997    8.0662 C   0  0  0  0  0  0  0  0  0  0  0  0
   -4.1892   -7.2919    9.7019 N   0  0  0  0  0  0  0  0  0  0  0  0
   -6.5119   -6.4562    9.2543 N   0  0  0  0  0  0  0  0  0  0  0  0
   -5.2432   -6.8840    9.5481 N   0  0  0  0  0  0  0  0  0  0  0  0
   -4.0598   -8.2192   10.0060 H   0  0  0  0  0  0  0  0  0  0  0  0
  -10.9712  -11.9848    2.2606 C   0  0  0  0  0  0  0  0  0  0  0  0
  -11.4935  -12.9047    1.3149 O   0  0  0  0  0  0  0  0  0  0  0  0
  -12.3684  -12.6054    1.0219 H   0  0  0  0  0  0  0  0  0  0  0  0
 22 24  2  0  0  0
 24 23  2  0  0  0
 23 21  1  0  0  0
 21 20  1  0  0  0
 20 19  1  0  0  0
 19 18  1  0  0  0
 15 14  2  0  0  0
 18 16  1  0  0  0
 14 16  1  0  0  0
 14  6  1  0  0  0
  6  5  1  0  0  0
  6  7  1  0  0  0
 26 27  1  0  0  0
 26  3  1  0  0  0
  5  7  1  0  0  0
  5  3  1  0  0  0
  7  8  1  0  0  0
  3  2  1  0  0  0
  2  4  1  0  0  0
  2 10  1  0  0  0
  8 10  1  0  0  0
  8  9  1  0  0  0
 10  1  1  0  0  0
  1 11  1  0  0  0
  4 12  1  0  0  0
 22 25  1  0  0  0
 27 28  1  0  0  0
 16 17  1  0  0  0
  9 13  1  0  0  0
M  CHG 1  24   1
M  END
> <minimizedAffinity>
-9.08965

$$$$
5N6S_8P5_A_507


 28 29  0  0  0  0  0  0  0  0999 V2000
  -12.5207  -11.2249    1.1910 O   0  0  0  0  0  0  0  0  0  0  0  0
  -12.8533  -10.7020    3.4909 C   0  0  0  0  0  0  0  0  0  0  0  0
  -12.5052   -9.7272    4.5823 C   0  0  0  0  0  0  0  0  0  0  0  0
  -14.2890  -10.7774    3.3482 O   0  0  0  0  0  0  0  0  0  0  0  0
  -11.0129   -9.5708    4.7536 C   0  0  0  0  0  0  0  0  0  0  0  0
  -10.2736  -10.9318    4.8441 C   0  0  0  0  0  0  0  0  0  0  0  0
  -10.0022   -9.9461    3.6911 C   0  0  0  0  0  0  0  0  0  0  0  0
  -10.5692  -10.2453    2.2958 C   0  0  0  0  0  0  0  0  0  0  0  0
  -10.0364   -9.2655    1.3973 O   0  0  0  0  0  0  0  0  0  0  0  0
  -12.1188  -10.2902    2.1988 C   0  0  0  0  0  0  0  0  0  0  0  0
  -13.4890  -11.2462    1.1375 H   0  0  0  0  0  0  0  0  0  0  0  0
  -14.6385   -9.9000    3.1272 H   0  0  0  0  0  0  0  0  0  0  0  0
  -10.3340   -8.3828    1.6680 H   0  0  0  0  0  0  0  0  0  0  0  0
   -9.4262  -11.0677    6.0750 C   0  0  0  0  0  0  0  0  0  0  0  0
   -9.9628  -11.0963    7.1916 O   0  0  0  0  0  0  0  0  0  0  0  0
   -8.1390  -10.8986    5.9030 N   0  0  0  0  0  0  0  0  0  0  0  0
   -7.6760  -11.2814    5.1231 H   0  0  0  0  0  0  0  0  0  0  0  0
   -7.4226  -10.1347    6.8912 C   0  0  0  0  0  0  0  0  0  0  0  0
   -7.6020   -8.6874    6.5817 C   0  0  0  0  0  0  0  0  0  0  0  0
   -8.1413   -7.9382    7.7707 C   0  0  0  0  0  0  0  0  0  0  0  0
   -7.2268   -8.2378    8.9369 C   0  0  0  0  0  0  0  0  0  0  0  0
   -4.1115   -7.1196    9.6972 N   0  0  0  0  0  0  0  0  0  0  0  0
   -6.6066   -7.0274    9.4525 N   0  0  0  0  0  0  0  0  0  0  0  0
   -5.2450   -7.0263    9.6107 N   0  0  0  0  0  0  0  0  0  0  0  0
   -3.7161   -7.6745   10.4078 H   0  0  0  0  0  0  0  0  0  0  0  0
  -13.0250  -10.2551    5.8930 C   0  0  0  0  0  0  0  0  0  0  0  0
  -14.4136   -9.9762    5.9781 O   0  0  0  0  0  0  0  0  0  0  0  0
  -14.8751  -10.4038    5.2397 H   0  0  0  0  0  0  0  0  0  0  0  0
 22 24  2  0  0  0
 24 23  2  0  0  0
 23 21  1  0  0  0
 21 20  1  0  0  0
 20 19  1  0  0  0
 19 18  1  0  0  0
 15 14  2  0  0  0
 18 16  1  0  0  0
 14 16  1  0  0  0
 14  6  1  0  0  0
  6  5  1  0  0  0
  6  7  1  0  0  0
 26 27  1  0  0  0
 26  3  1  0  0  0
  5  7  1  0  0  0
  5  3  1  0  0  0
  7  8  1  0  0  0
  3  2  1  0  0  0
  2  4  1  0  0  0
  2 10  1  0  0  0
  8 10  1  0  0  0
  8  9  1  0  0  0
 10  1  1  0  0  0
  1 11  1  0  0  0
  4 12  1  0  0  0
 22 25  1  0  0  0
 27 28  1  0  0  0
 16 17  1  0  0  0
  9 13  1  0  0  0
M  CHG 1  24   1
M  END
> <minimizedAffinity>
-8.91469

$$$$
5N6S_8P5_A_507


 28 29  0  0  0  0  0  0  0  0999 V2000
  -12.4718  -10.6908    1.2769 O   0  0  0  0  0  0  0  0  0  0  0  0
  -12.9180  -10.5189    3.6103 C   0  0  0  0  0  0  0  0  0  0  0  0
  -12.7148   -9.6633    4.8307 C   0  0  0  0  0  0  0  0  0  0  0  0
  -14.3306  -10.7406    3.4037 O   0  0  0  0  0  0  0  0  0  0  0  0
  -11.2564   -9.3592    5.0783 C   0  0  0  0  0  0  0  0  0  0  0  0
  -10.3614  -10.6253    5.0215 C   0  0  0  0  0  0  0  0  0  0  0  0
  -10.1836   -9.4710    4.0163 C   0  0  0  0  0  0  0  0  0  0  0  0
  -10.6780   -9.6466    2.5732 C   0  0  0  0  0  0  0  0  0  0  0  0
  -10.2459   -8.5014    1.8295 O   0  0  0  0  0  0  0  0  0  0  0  0
  -12.2084   -9.8574    2.4113 C   0  0  0  0  0  0  0  0  0  0  0  0
  -13.4291  -10.8169    1.1836 H   0  0  0  0  0  0  0  0  0  0  0  0
  -14.7776   -9.8881    3.2840 H   0  0  0  0  0  0  0  0  0  0  0  0
  -10.6534   -7.7028    2.1998 H   0  0  0  0  0  0  0  0  0  0  0  0
   -9.5327  -10.8238    6.2566 C   0  0  0  0  0  0  0  0  0  0  0  0
  -10.0382  -11.3477    7.2594 O   0  0  0  0  0  0  0  0  0  0  0  0
   -8.3819  -10.1990    6.2780 N   0  0  0  0  0  0  0  0  0  0  0  0
   -7.8067  -10.1663    5.4797 H   0  0  0  0  0  0  0  0  0  0  0  0
   -7.9850   -9.5614    7.5064 C   0  0  0  0  0  0  0  0  0  0  0  0
   -7.1488   -8.3747    7.1665 C   0  0  0  0  0  0  0  0  0  0  0  0
   -5.6831   -8.6749    7.3322 C   0  0  0  0  0  0  0  0  0  0  0  0
   -5.2827   -8.1895    8.7071 C   0  0  0  0  0  0  0  0  0  0  0  0
   -6.0198  -11.1664   10.1660 N   0  0  0  0  0  0  0  0  0  0  0  0
   -4.5942   -9.2270    9.4590 N   0  0  0  0  0  0  0  0  0  0  0  0
   -5.3287  -10.3072    9.8744 N   0  0  0  0  0  0  0  0  0  0  0  0
   -6.6905  -11.0395   10.8755 H   0  0  0  0  0  0  0  0  0  0  0  0
  -13.1977  -10.4166    6.0415 C   0  0  0  0  0  0  0  0  0  0  0  0
  -12.8923  -11.7921    5.8741 O   0  0  0  0  0  0  0  0  0  0  0  0
  -11.9336  -11.9006    5.7742 H   0  0  0  0  0  0  0  0  0  0  0  0
 22 24  2  0  0  0
 24 23  2  0  0  0
 23 21  1  0  0  0
 21 20  1  0  0  0
 20 19  1  0  0  0
 19 18  1  0  0  0
 15 14  2  0  0  0
 18 16  1  0  0  0
 14 16  1  0  0  0
 14  6  1  0  0  0
  6  5  1  0  0  0
  6  7  1  0  0  0
 26 27  1  0  0  0
 26  3  1  0  0  0
  5  7  1  0  0  0
  5  3  1  0  0  0
  7  8  1  0  0  0
  3  2  1  0  0  0
  2  4  1  0  0  0
  2 10  1  0  0  0
  8 10  1  0  0  0
  8  9  1  0  0  0
 10  1  1  0  0  0
  1 11  1  0  0  0
  4 12  1  0  0  0
 22 25  1  0  0  0
 27 28  1  0  0  0
 16 17  1  0  0  0
  9 13  1  0  0  0
M  CHG 1  24   1
M  END
> <minimizedAffinity>
-8.58392

$$$$
5N6S_8P5_A_507


 28 29  0  0  0  0  0  0  0  0999 V2000
  -13.7959   -8.3390    3.3327 O   0  0  0  0  0  0  0  0  0  0  0  0
  -12.1591  -10.0278    2.9553 C   0  0  0  0  0  0  0  0  0  0  0  0
  -11.7206  -11.4110    3.3516 C   0  0  0  0  0  0  0  0  0  0  0  0
  -12.3684   -9.9765    1.5267 O   0  0  0  0  0  0  0  0  0  0  0  0
  -11.5248  -11.5423    4.8433 C   0  0  0  0  0  0  0  0  0  0  0  0
  -10.6638  -10.3971    5.4385 C   0  0  0  0  0  0  0  0  0  0  0  0
  -12.1336  -10.5966    5.8563 C   0  0  0  0  0  0  0  0  0  0  0  0
  -13.2050   -9.6345    5.3229 C   0  0  0  0  0  0  0  0  0  0  0  0
  -14.4334   -9.9487    5.9890 O   0  0  0  0  0  0  0  0  0  0  0  0
  -13.4021   -9.6404    3.7821 C   0  0  0  0  0  0  0  0  0  0  0  0
  -13.9166   -8.3520    2.3703 H   0  0  0  0  0  0  0  0  0  0  0  0
  -13.0495  -10.6201    1.2763 H   0  0  0  0  0  0  0  0  0  0  0  0
  -14.6972  -10.8560    5.7696 H   0  0  0  0  0  0  0  0  0  0  0  0
   -9.4766  -10.8871    6.2144 C   0  0  0  0  0  0  0  0  0  0  0  0
   -9.5087  -10.8882    7.4532 O   0  0  0  0  0  0  0  0  0  0  0  0
   -8.3750  -11.0548    5.5263 N   0  0  0  0  0  0  0  0  0  0  0  0
   -8.3927  -11.4632    4.6307 H   0  0  0  0  0  0  0  0  0  0  0  0
   -7.1373  -10.6226    6.1215 C   0  0  0  0  0  0  0  0  0  0  0  0
   -6.7836   -9.2927    5.5479 C   0  0  0  0  0  0  0  0  0  0  0  0
   -5.6411   -8.6617    6.2978 C   0  0  0  0  0  0  0  0  0  0  0  0
   -6.0470   -8.5956    7.7529 C   0  0  0  0  0  0  0  0  0  0  0  0
   -5.9817  -11.0746   10.0732 N   0  0  0  0  0  0  0  0  0  0  0  0
   -5.0714   -9.2524    8.6087 N   0  0  0  0  0  0  0  0  0  0  0  0
   -5.5174  -10.2524    9.4333 N   0  0  0  0  0  0  0  0  0  0  0  0
   -6.5550  -10.8385   10.8379 H   0  0  0  0  0  0  0  0  0  0  0  0
  -10.3815  -11.6971    2.7259 C   0  0  0  0  0  0  0  0  0  0  0  0
   -9.8347  -12.8583    3.3309 O   0  0  0  0  0  0  0  0  0  0  0  0
  -10.4345  -13.6079    3.1926 H   0  0  0  0  0  0  0  0  0  0  0  0
 22 24  2  0  0  0
 24 23  2  0  0  0
 23 21  1  0  0  0
 21 20  1  0  0  0
 20 19  1  0  0  0
 19 18  1  0  0  0
 15 14  2  0  0  0
 18 16  1  0  0  0
 14 16  1  0  0  0
 14  6  1  0  0  0
  6  5  1  0  0  0
  6  7  1  0  0  0
 26 27  1  0  0  0
 26  3  1  0  0  0
  5  7  1  0  0  0
  5  3  1  0  0  0
  7  8  1  0  0  0
  3  2  1  0  0  0
  2  4  1  0  0  0
  2 10  1  0  0  0
  8 10  1  0  0  0
  8  9  1  0  0  0
 10  1  1  0  0  0
  1 11  1  0  0  0
  4 12  1  0  0  0
 22 25  1  0  0  0
 27 28  1  0  0  0
 16 17  1  0  0  0
  9 13  1  0  0  0
M  CHG 1  24   1
M  END
> <minimizedAffinity>
-8.57815

$$$$
5N6S_8P5_A_507


 28 29  0  0  0  0  0  0  0  0999 V2000
   -7.6118   -6.1457    9.9307 O   0  0  0  0  0  0  0  0  0  0  0  0
   -6.4113   -8.1636    9.5299 C   0  0  0  0  0  0  0  0  0  0  0  0
   -5.4683   -8.8537    8.5827 C   0  0  0  0  0  0  0  0  0  0  0  0
   -5.8355   -8.1386   10.8547 O   0  0  0  0  0  0  0  0  0  0  0  0
   -5.9952   -8.8758    7.1676 C   0  0  0  0  0  0  0  0  0  0  0  0
   -7.4660   -9.3625    7.0826 C   0  0  0  0  0  0  0  0  0  0  0  0
   -7.0664   -7.9367    6.6560 C   0  0  0  0  0  0  0  0  0  0  0  0
   -7.4172   -6.7520    7.5678 C   0  0  0  0  0  0  0  0  0  0  0  0
   -7.0790   -5.5526    6.8618 O   0  0  0  0  0  0  0  0  0  0  0  0
   -6.7498   -6.7668    8.9704 C   0  0  0  0  0  0  0  0  0  0  0  0
   -7.1873   -6.1595   10.8028 H   0  0  0  0  0  0  0  0  0  0  0  0
   -4.9899   -7.6639   10.8308 H   0  0  0  0  0  0  0  0  0  0  0  0
   -6.1245   -5.5370    6.6897 H   0  0  0  0  0  0  0  0  0  0  0  0
   -7.6570  -10.5178    6.1442 C   0  0  0  0  0  0  0  0  0  0  0  0
   -6.9024  -10.6508    5.1703 O   0  0  0  0  0  0  0  0  0  0  0  0
   -8.7771  -11.1828    6.2786 N   0  0  0  0  0  0  0  0  0  0  0  0
   -9.1346  -11.4010    7.1696 H   0  0  0  0  0  0  0  0  0  0  0  0
   -9.4690  -11.5846    5.0816 C   0  0  0  0  0  0  0  0  0  0  0  0
  -10.3671  -10.4696    4.6658 C   0  0  0  0  0  0  0  0  0  0  0  0
  -11.8125  -10.8158    4.9041 C   0  0  0  0  0  0  0  0  0  0  0  0
  -12.1324  -12.0111    4.0351 C   0  0  0  0  0  0  0  0  0  0  0  0
  -13.9514  -14.7882    3.3192 N   0  0  0  0  0  0  0  0  0  0  0  0
  -12.9519  -12.9814    4.7440 N   0  0  0  0  0  0  0  0  0  0  0  0
  -13.5265  -13.9873    4.0113 N   0  0  0  0  0  0  0  0  0  0  0  0
  -14.6811  -14.5646    2.6972 H   0  0  0  0  0  0  0  0  0  0  0  0
   -5.3239  -10.2932    8.9993 C   0  0  0  0  0  0  0  0  0  0  0  0
   -4.1215  -10.4351    9.7392 O   0  0  0  0  0  0  0  0  0  0  0  0
   -4.1541   -9.8630   10.5219 H   0  0  0  0  0  0  0  0  0  0  0  0
 22 24  2  0  0  0
 24 23  2  0  0  0
 23 21  1  0  0  0
 21 20  1  0  0  0
 20 19  1  0  0  0
 19 18  1  0  0  0
 15 14  2  0  0  0
 18 16  1  0  0  0
 14 16  1  0  0  0
 14  6  1  0  0  0
  6  5  1  0  0  0
  6  7  1  0  0  0
 26 27  1  0  0  0
 26  3  1  0  0  0
  5  7  1  0  0  0
  5  3  1  0  0  0
  7  8  1  0  0  0
  3  2  1  0  0  0
  2  4  1  0  0  0
  2 10  1  0  0  0
  8 10  1  0  0  0
  8  9  1  0  0  0
 10  1  1  0  0  0
  1 11  1  0  0  0
  4 12  1  0  0  0
 22 25  1  0  0  0
 27 28  1  0  0  0
 16 17  1  0  0  0
  9 13  1  0  0  0
M  CHG 1  24   1
M  END
> <minimizedAffinity>
-8.35520

$$$$
5N6S_8P5_A_507


 28 29  0  0  0  0  0  0  0  0999 V2000
   -8.0245  -10.1792    7.1974 O   0  0  0  0  0  0  0  0  0  0  0  0
  -10.1606  -10.8449    6.3805 C   0  0  0  0  0  0  0  0  0  0  0  0
  -10.8719  -11.5411    5.2527 C   0  0  0  0  0  0  0  0  0  0  0  0
  -10.4902  -11.4879    7.6317 O   0  0  0  0  0  0  0  0  0  0  0  0
  -10.5352  -10.9410    3.9084 C   0  0  0  0  0  0  0  0  0  0  0  0
  -10.6605   -9.3945    3.8935 C   0  0  0  0  0  0  0  0  0  0  0  0
   -9.3082  -10.0926    3.6516 C   0  0  0  0  0  0  0  0  0  0  0  0
   -8.2480  -10.0853    4.7623 C   0  0  0  0  0  0  0  0  0  0  0  0
   -7.0518  -10.6539    4.2171 O   0  0  0  0  0  0  0  0  0  0  0  0
   -8.6492  -10.8123    6.0750 C   0  0  0  0  0  0  0  0  0  0  0  0
   -8.2805  -10.6394    8.0120 H   0  0  0  0  0  0  0  0  0  0  0  0
  -10.2187  -12.4185    7.5983 H   0  0  0  0  0  0  0  0  0  0  0  0
   -7.2199  -11.5733    3.9577 H   0  0  0  0  0  0  0  0  0  0  0  0
  -11.5674   -8.8817    2.8136 C   0  0  0  0  0  0  0  0  0  0  0  0
  -12.7730   -8.7179    3.0486 O   0  0  0  0  0  0  0  0  0  0  0  0
  -11.0658   -8.8726    1.6039 N   0  0  0  0  0  0  0  0  0  0  0  0
  -10.1390   -8.5835    1.4404 H   0  0  0  0  0  0  0  0  0  0  0  0
  -11.9132   -9.2989    0.5207 C   0  0  0  0  0  0  0  0  0  0  0  0
  -11.6559  -10.7457    0.2693 C   0  0  0  0  0  0  0  0  0  0  0  0
  -12.9062  -11.5626    0.4567 C   0  0  0  0  0  0  0  0  0  0  0  0
  -12.7564  -12.3116    1.7616 C   0  0  0  0  0  0  0  0  0  0  0  0
  -13.8870  -14.9020    3.6444 N   0  0  0  0  0  0  0  0  0  0  0  0
  -14.0307  -12.8406    2.2219 N   0  0  0  0  0  0  0  0  0  0  0  0
  -14.0091  -13.9697    2.9988 N   0  0  0  0  0  0  0  0  0  0  0  0
  -13.6343  -15.7583    3.2297 H   0  0  0  0  0  0  0  0  0  0  0  0
  -12.3568  -11.3669    5.4299 C   0  0  0  0  0  0  0  0  0  0  0  0
  -12.9884  -12.6239    5.2446 O   0  0  0  0  0  0  0  0  0  0  0  0
  -12.6467  -13.2566    5.8956 H   0  0  0  0  0  0  0  0  0  0  0  0
 22 24  2  0  0  0
 24 23  2  0  0  0
 23 21  1  0  0  0
 21 20  1  0  0  0
 20 19  1  0  0  0
 19 18  1  0  0  0
 15 14  2  0  0  0
 18 16  1  0  0  0
 14 16  1  0  0  0
 14  6  1  0  0  0
  6  5  1  0  0  0
  6  7  1  0  0  0
 26 27  1  0  0  0
 26  3  1  0  0  0
  5  7  1  0  0  0
  5  3  1  0  0  0
  7  8  1  0  0  0
  3  2  1  0  0  0
  2  4  1  0  0  0
  2 10  1  0  0  0
  8 10  1  0  0  0
  8  9  1  0  0  0
 10  1  1  0  0  0
  1 11  1  0  0  0
  4 12  1  0  0  0
 22 25  1  0  0  0
 27 28  1  0  0  0
 16 17  1  0  0  0
  9 13  1  0  0  0
M  CHG 1  24   1
M  END
> <minimizedAffinity>
-8.31074

$$$$
5N6S_8P5_A_507


 28 29  0  0  0  0  0  0  0  0999 V2000
   -4.8918   -6.7417    3.8708 O   0  0  0  0  0  0  0  0  0  0  0  0
   -6.1409   -8.3739    5.0747 C   0  0  0  0  0  0  0  0  0  0  0  0
   -6.5642   -9.8172    5.0910 C   0  0  0  0  0  0  0  0  0  0  0  0
   -5.4574   -8.0553    6.3071 O   0  0  0  0  0  0  0  0  0  0  0  0
   -7.2497  -10.2256    3.8089 C   0  0  0  0  0  0  0  0  0  0  0  0
   -8.3614   -9.2319    3.3801 C   0  0  0  0  0  0  0  0  0  0  0  0
   -7.1142   -9.4669    2.5061 C   0  0  0  0  0  0  0  0  0  0  0  0
   -6.0148   -8.3960    2.4598 C   0  0  0  0  0  0  0  0  0  0  0  0
   -5.0686   -8.7956    1.4617 O   0  0  0  0  0  0  0  0  0  0  0  0
   -5.2989   -8.1133    3.8091 C   0  0  0  0  0  0  0  0  0  0  0  0
   -4.4461   -6.5745    4.7160 H   0  0  0  0  0  0  0  0  0  0  0  0
   -4.6773   -8.6242    6.4006 H   0  0  0  0  0  0  0  0  0  0  0  0
   -4.6656   -9.6400    1.7178 H   0  0  0  0  0  0  0  0  0  0  0  0
   -9.6948   -9.8866    3.1674 C   0  0  0  0  0  0  0  0  0  0  0  0
   -9.9332  -10.4639    2.0971 O   0  0  0  0  0  0  0  0  0  0  0  0
  -10.6219   -9.5909    4.0437 N   0  0  0  0  0  0  0  0  0  0  0  0
  -10.4143   -9.5381    5.0046 H   0  0  0  0  0  0  0  0  0  0  0  0
  -11.9545   -9.3454    3.5569 C   0  0  0  0  0  0  0  0  0  0  0  0
  -12.8541   -9.1653    4.7320 C   0  0  0  0  0  0  0  0  0  0  0  0
  -13.8566  -10.2842    4.8279 C   0  0  0  0  0  0  0  0  0  0  0  0
  -13.4460  -11.3363    3.8226 C   0  0  0  0  0  0  0  0  0  0  0  0
  -13.8736  -14.7004    3.6408 N   0  0  0  0  0  0  0  0  0  0  0  0
  -12.9355  -12.5298    4.4786 N   0  0  0  0  0  0  0  0  0  0  0  0
  -13.4194  -13.7428    4.0621 N   0  0  0  0  0  0  0  0  0  0  0  0
  -14.8069  -14.9354    3.8483 H   0  0  0  0  0  0  0  0  0  0  0  0
   -7.5744  -10.0177    6.1892 C   0  0  0  0  0  0  0  0  0  0  0  0
   -6.8856  -10.3214    7.3920 O   0  0  0  0  0  0  0  0  0  0  0  0
   -6.2894   -9.5900    7.6167 H   0  0  0  0  0  0  0  0  0  0  0  0
 22 24  2  0  0  0
 24 23  2  0  0  0
 23 21  1  0  0  0
 21 20  1  0  0  0
 20 19  1  0  0  0
 19 18  1  0  0  0
 15 14  2  0  0  0
 18 16  1  0  0  0
 14 16  1  0  0  0
 14  6  1  0  0  0
  6  5  1  0  0  0
  6  7  1  0  0  0
 26 27  1  0  0  0
 26  3  1  0  0  0
  5  7  1  0  0  0
  5  3  1  0  0  0
  7  8  1  0  0  0
  3  2  1  0  0  0
  2  4  1  0  0  0
  2 10  1  0  0  0
  8 10  1  0  0  0
  8  9  1  0  0  0
 10  1  1  0  0  0
  1 11  1  0  0  0
  4 12  1  0  0  0
 22 25  1  0  0  0
 27 28  1  0  0  0
 16 17  1  0  0  0
  9 13  1  0  0  0
M  CHG 1  24   1
M  END
> <minimizedAffinity>
-8.22589

$$$$
5N6S_8P5_A_507


 28 29  0  0  0  0  0  0  0  0999 V2000
   -4.5856   -9.3964    8.4996 O   0  0  0  0  0  0  0  0  0  0  0  0
   -5.5160   -8.8408    6.3785 C   0  0  0  0  0  0  0  0  0  0  0  0
   -6.6958   -8.2083    5.6926 C   0  0  0  0  0  0  0  0  0  0  0  0
   -4.3020   -8.1728    5.9692 O   0  0  0  0  0  0  0  0  0  0  0  0
   -8.0039   -8.8361    6.1116 C   0  0  0  0  0  0  0  0  0  0  0  0
   -7.9737  -10.3860    6.0457 C   0  0  0  0  0  0  0  0  0  0  0  0
   -8.1792   -9.6431    7.3801 C   0  0  0  0  0  0  0  0  0  0  0  0
   -7.0237   -9.5744    8.3891 C   0  0  0  0  0  0  0  0  0  0  0  0
   -7.5346   -8.9764    9.5860 O   0  0  0  0  0  0  0  0  0  0  0  0
   -5.7541   -8.8234    7.9022 C   0  0  0  0  0  0  0  0  0  0  0  0
   -3.7984   -8.9216    8.1902 H   0  0  0  0  0  0  0  0  0  0  0  0
   -4.3540   -7.2337    6.2065 H   0  0  0  0  0  0  0  0  0  0  0  0
   -7.8310   -8.0728    9.3950 H   0  0  0  0  0  0  0  0  0  0  0  0
   -9.0747  -10.9672    5.2082 C   0  0  0  0  0  0  0  0  0  0  0  0
  -10.0006  -11.5859    5.7519 O   0  0  0  0  0  0  0  0  0  0  0  0
   -8.8557  -10.9949    3.9173 N   0  0  0  0  0  0  0  0  0  0  0  0
   -8.4399  -10.2309    3.4561 H   0  0  0  0  0  0  0  0  0  0  0  0
   -9.2427  -12.1783    3.1942 C   0  0  0  0  0  0  0  0  0  0  0  0
  -10.2198  -11.7818    2.1402 C   0  0  0  0  0  0  0  0  0  0  0  0
  -11.5058  -12.5532    2.2708 C   0  0  0  0  0  0  0  0  0  0  0  0
  -12.4231  -11.7412    3.1570 C   0  0  0  0  0  0  0  0  0  0  0  0
  -13.8116  -14.7929    3.6982 N   0  0  0  0  0  0  0  0  0  0  0  0
  -12.9100  -12.5255    4.2810 N   0  0  0  0  0  0  0  0  0  0  0  0
  -13.4184  -13.7708    4.0170 N   0  0  0  0  0  0  0  0  0  0  0  0
  -14.6711  -14.8634    3.2234 H   0  0  0  0  0  0  0  0  0  0  0  0
   -6.5778   -8.4351    4.2089 C   0  0  0  0  0  0  0  0  0  0  0  0
   -5.9638   -7.2987    3.6216 O   0  0  0  0  0  0  0  0  0  0  0  0
   -5.0846   -7.1692    4.0102 H   0  0  0  0  0  0  0  0  0  0  0  0
 22 24  2  0  0  0
 24 23  2  0  0  0
 23 21  1  0  0  0
 21 20  1  0  0  0
 20 19  1  0  0  0
 19 18  1  0  0  0
 15 14  2  0  0  0
 18 16  1  0  0  0
 14 16  1  0  0  0
 14  6  1  0  0  0
  6  5  1  0  0  0
  6  7  1  0  0  0
 26 27  1  0  0  0
 26  3  1  0  0  0
  5  7  1  0  0  0
  5  3  1  0  0  0
  7  8  1  0  0  0
  3  2  1  0  0  0
  2  4  1  0  0  0
  2 10  1  0  0  0
  8 10  1  0  0  0
  8  9  1  0  0  0
 10  1  1  0  0  0
  1 11  1  0  0  0
  4 12  1  0  0  0
 22 25  1  0  0  0
 27 28  1  0  0  0
 16 17  1  0  0  0
  9 13  1  0  0  0
M  CHG 1  24   1
M  END
> <minimizedAffinity>
-8.22159

$$$$
5N6S_8P5_A_507


 28 29  0  0  0  0  0  0  0  0999 V2000
   -6.2379  -10.2024    8.0764 O   0  0  0  0  0  0  0  0  0  0  0  0
   -5.9148   -9.0337    6.0262 C   0  0  0  0  0  0  0  0  0  0  0  0
   -6.6217   -8.4013    4.8588 C   0  0  0  0  0  0  0  0  0  0  0  0
   -5.0626   -8.0567    6.6638 O   0  0  0  0  0  0  0  0  0  0  0  0
   -7.5631   -9.3624    4.1726 C   0  0  0  0  0  0  0  0  0  0  0  0
   -6.9018  -10.7312    3.8621 C   0  0  0  0  0  0  0  0  0  0  0  0
   -8.1011  -10.6188    4.8232 C   0  0  0  0  0  0  0  0  0  0  0  0
   -7.8687  -10.7485    6.3355 C   0  0  0  0  0  0  0  0  0  0  0  0
   -9.1541  -10.7668    6.9669 O   0  0  0  0  0  0  0  0  0  0  0  0
   -6.9641   -9.6565    6.9695 C   0  0  0  0  0  0  0  0  0  0  0  0
   -5.6762   -9.5141    8.4657 H   0  0  0  0  0  0  0  0  0  0  0  0
   -5.6003   -7.3105    6.9719 H   0  0  0  0  0  0  0  0  0  0  0  0
   -9.6102   -9.9279    6.7961 H   0  0  0  0  0  0  0  0  0  0  0  0
   -6.9938  -11.1219    2.4163 C   0  0  0  0  0  0  0  0  0  0  0  0
   -6.1926  -10.6476    1.5984 O   0  0  0  0  0  0  0  0  0  0  0  0
   -8.0834  -11.7580    2.0653 N   0  0  0  0  0  0  0  0  0  0  0  0
   -8.4669  -12.4621    2.6366 H   0  0  0  0  0  0  0  0  0  0  0  0
   -8.7024  -11.3947    0.8172 C   0  0  0  0  0  0  0  0  0  0  0  0
  -10.1137  -11.8749    0.8397 C   0  0  0  0  0  0  0  0  0  0  0  0
  -10.6976  -11.7870    2.2243 C   0  0  0  0  0  0  0  0  0  0  0  0
  -12.0814  -12.3932    2.1624 C   0  0  0  0  0  0  0  0  0  0  0  0
  -13.8749  -14.7701    3.7956 N   0  0  0  0  0  0  0  0  0  0  0  0
  -12.6259  -12.6156    3.4927 N   0  0  0  0  0  0  0  0  0  0  0  0
  -13.3224  -13.7759    3.7108 N   0  0  0  0  0  0  0  0  0  0  0  0
  -14.7563  -14.8812    3.3712 H   0  0  0  0  0  0  0  0  0  0  0  0
   -5.6007   -8.0046    3.8258 C   0  0  0  0  0  0  0  0  0  0  0  0
   -5.2646   -6.6396    4.0182 O   0  0  0  0  0  0  0  0  0  0  0  0
   -4.9018   -6.5184    4.9095 H   0  0  0  0  0  0  0  0  0  0  0  0
 22 24  2  0  0  0
 24 23  2  0  0  0
 23 21  1  0  0  0
 21 20  1  0  0  0
 20 19  1  0  0  0
 19 18  1  0  0  0
 15 14  2  0  0  0
 18 16  1  0  0  0
 14 16  1  0  0  0
 14  6  1  0  0  0
  6  5  1  0  0  0
  6  7  1  0  0  0
 26 27  1  0  0  0
 26  3  1  0  0  0
  5  7  1  0  0  0
  5  3  1  0  0  0
  7  8  1  0  0  0
  3  2  1  0  0  0
  2  4  1  0  0  0
  2 10  1  0  0  0
  8 10  1  0  0  0
  8  9  1  0  0  0
 10  1  1  0  0  0
  1 11  1  0  0  0
  4 12  1  0  0  0
 22 25  1  0  0  0
 27 28  1  0  0  0
 16 17  1  0  0  0
  9 13  1  0  0  0
M  CHG 1  24   1
M  END
> <minimizedAffinity>
-8.09389

$$$$
