2I19_1BY_A_3001
  RCSB PDB12061705523D
Coordinates from PDB:2I19:A:3001 Model:1 without hydrogens
 17 17  0  0  0  0            999 V2000
   14.8860   41.0290   45.4800   C 0  0  0  0  0  0  0  0  0  0  0  0
   15.2430   42.1030   46.4130   C 0  0  0  0  0  0  0  0  0  0  0  0
   14.1020   41.3210   44.4440   C 0  0  0  0  0  0  0  0  0  0  0  0
   13.6100   42.6960   44.2740   C 0  0  0  0  0  0  0  0  0  0  0  0
   13.8980   43.6020   45.1240   N 0  0  0  0  0  0  0  0  0  0  0  0
   14.7620   43.3470   46.2640   C 0  0  0  0  0  0  0  0  0  0  0  0
   15.1100   44.2570   47.1470   N 0  0  0  0  0  0  0  0  0  0  0  0
   15.9890   43.9320   48.2730   C 0  0  0  0  0  0  0  0  0  0  0  0
   16.8540   45.1500   48.6600   C 0  0  0  0  0  0  0  0  0  0  0  0
   17.4050   45.0530   50.3980   P 0  0  0  0  0  0  0  0  0  0  0  0
   16.2630   44.5600   51.2210   O 0  0  0  0  0  0  0  0  0  0  0  0
   18.5520   44.1090   50.5110   O 0  0  0  0  0  0  0  0  0  0  0  0
   17.8140   46.4040   50.8660   O 0  0  0  0  0  0  0  0  0  0  0  0
   18.2930   45.4380   47.5670   P 0  0  0  0  0  0  0  0  0  0  0  0
   19.1630   44.2360   47.4770   O 0  0  0  0  0  0  0  0  0  0  0  0
   17.8000   45.7980   46.1990   O 0  0  0  0  0  0  0  0  0  0  0  0
   19.0930   46.5720   48.1380   O 0  0  0  0  0  0  0  0  0  0  0  0
  1  2  2  0  0  0  0
  1  3  1  0  0  0  0
  2  6  1  0  0  0  0
  3  4  2  0  0  0  0
  4  5  1  0  0  0  0
  5  6  2  0  0  0  0
  6  7  1  0  0  0  0
  7  8  1  0  0  0  0
  8  9  1  0  0  0  0
  9 10  1  0  0  0  0
  9 14  1  0  0  0  0
 10 11  2  0  0  0  0
 10 13  1  0  0  0  0
 10 12  1  0  0  0  0
 14 17  2  0  0  0  0
 14 16  1  0  0  0  0
 14 15  1  0  0  0  0
A    1
C5
A    2
C4
A    3
C6
A    4
C7
A    5
N2
A    6
C3
A    7
N1
A    8
C2
A    9
C1
A   10
P1
A   11
O1
A   12
O2
A   13
O3
A   14
P2
A   15
O4
A   16
O5
A   17
O6
M  END
>  <InstanceId>
2I19_1BY_A_3001

>  <ChemCompId>
1BY

>  <PdbId>
2I19

>  <ChainId>
A

>  <ResidueNumber>
3001

>  <InsertionCode>


>  <Model>
1

>  <AltIds>


>  <MissingHeavyAtoms>
0

>  <ObservedFormula>
C7 N2 O6 P2

>  <Name>
[2-(PYRIDIN-2-YLAMINO)ETHANE-1,1-DIYL]BIS(PHOSPHONIC ACID)

>  <SystematicName>
[1-phosphono-2-(pyridin-2-ylamino)ethyl]phosphonic acid

>  <Synonyms>


>  <Type>
NON-POLYMER

>  <Formula>
C7 H12 N2 O6 P2

>  <MolecularWeight>
282.128

>  <ModifiedDate>
2011-06-04

>  <Parent>


>  <OneLetterCode>


>  <SubcomponentList>


>  <AmbiguousFlag>


>  <InChI>
InChI=1S/C7H12N2O6P2/c10-16(11,12)7(17(13,14)15)5-9-6-3-1-2-4-8-6/h1-4,7H,5H2,(H,8,9)(H2,10,11,12)(H2,13,14,15)

>  <InChIKey>
BHVCADPDEFLLGM-UHFFFAOYSA-N

>  <SMILES>
c1ccnc(c1)NCC(P(=O)(O)O)P(=O)(O)O

$$$$
