6EPZ_MLB_A_701
  RCSB PDB04141810333D
Coordinates from PDB:6EPZ:A:701 Model:1 without hydrogens
 23 24  0  0  0  0            999 V2000
  136.3260    5.9610   76.3830   C 0  0  0  0  0  0  0  0  0  0  0  0
  135.1730    6.6850   75.9560   O 0  0  0  0  0  0  0  0  0  0  0  0
  136.5220    6.0880   77.9420   C 0  0  0  0  0  0  0  0  0  0  0  0
  135.2620    5.8490   78.5710   O 0  0  0  0  0  0  0  0  0  0  0  0
  136.9650    7.5390   78.2830   C 0  0  0  0  0  0  0  0  0  0  0  0
  137.3390    7.6520   79.6620   O 0  0  0  0  0  0  0  0  0  0  0  0
  138.1210    8.0190   77.4410   C 0  0  0  0  0  0  0  0  0  0  0  0
  139.2890    7.2390   77.7990   O 0  0  0  0  0  0  0  0  0  0  0  0
  137.8070    7.8370   75.9330   C 0  0  0  0  0  0  0  0  0  0  0  0
  137.5130    6.4280   75.6940   O 0  0  0  0  0  0  0  0  0  0  0  0
  138.9970    8.3130   75.0960   C 0  0  0  0  0  0  0  0  0  0  0  0
  138.7170    8.1380   73.7000   O 0  0  0  0  0  0  0  0  0  0  0  0
  134.0570    9.3270   72.7640   C 0  0  0  0  0  0  0  0  0  0  0  0
  134.1130   10.7480   72.9690   O 0  0  0  0  0  0  0  0  0  0  0  0
  132.8860    8.8780   71.7760   C 0  0  0  0  0  0  0  0  0  0  0  0
  132.0430    9.9720   71.3710   O 0  0  0  0  0  0  0  0  0  0  0  0
  132.0200    7.7190   72.3290   C 0  0  0  0  0  0  0  0  0  0  0  0
  131.3900    7.0950   71.1910   O 0  0  0  0  0  0  0  0  0  0  0  0
  132.8950    6.6620   73.0270   C 0  0  0  0  0  0  0  0  0  0  0  0
  132.0980    5.5570   73.4710   O 0  0  0  0  0  0  0  0  0  0  0  0
  133.6060    7.2480   74.2500   C 0  0  0  0  0  0  0  0  0  0  0  0
  134.0550    8.6510   74.0850   O 0  0  0  0  0  0  0  0  0  0  0  0
  134.7400    6.2960   74.6590   C 0  0  0  0  0  0  0  0  0  0  0  0
  1  2  1  0  0  0  0
  1  3  1  0  0  0  0
  1 10  1  0  0  0  0
  2 23  1  0  0  0  0
  3  4  1  0  0  0  0
  3  5  1  0  0  0  0
  5  6  1  0  0  0  0
  5  7  1  0  0  0  0
  7  8  1  0  0  0  0
  7  9  1  0  0  0  0
  9 10  1  0  0  0  0
  9 11  1  0  0  0  0
 11 12  1  0  0  0  0
 13 14  1  0  0  0  0
 13 15  1  0  0  0  0
 13 22  1  0  0  0  0
 15 16  1  0  0  0  0
 15 17  1  0  0  0  0
 17 18  1  0  0  0  0
 17 19  1  0  0  0  0
 19 20  1  0  0  0  0
 19 21  1  0  0  0  0
 21 22  1  0  0  0  0
 21 23  1  0  0  0  0
A    1
C1
A    2
O1
A    3
C2
A    4
O2
A    5
C3
A    6
O3
A    7
C4
A    8
O4
A    9
C5
A   10
O5
A   11
C6
A   12
O6
A   13
C1'
A   14
O1'
A   15
C2'
A   16
O2'
A   17
C3'
A   18
O3'
A   19
C4'
A   20
O4'
A   21
C5'
A   22
O5'
A   23
C6'
M  END
>  <InstanceId>
6EPZ_MLB_A_701

>  <ChemCompId>
MLB

>  <PdbId>
6EPZ

>  <ChainId>
A

>  <ResidueNumber>
701

>  <InsertionCode>


>  <Model>
1

>  <AltIds>


>  <MissingHeavyAtoms>
0

>  <ObservedFormula>
C12 O11

>  <Name>
6-O-alpha-D-galactopyranosyl-alpha-D-glucopyranose

>  <SystematicName>
(2S,3R,4S,5S,6R)-6-[[(2S,3R,4S,5R,6R)-3,4,5-trihydroxy-6-(hydroxymethyl)oxan-2-yl]oxymethyl]oxane-2,3,4,5-tetrol

>  <Synonyms>
melibiose

>  <Type>
saccharide

>  <Formula>
C12 H22 O11

>  <MolecularWeight>
342.296

>  <ModifiedDate>
2011-06-04

>  <Parent>


>  <OneLetterCode>


>  <SubcomponentList>


>  <AmbiguousFlag>
N

>  <InChI>
InChI=1S/C12H22O11/c13-1-3-5(14)8(17)10(19)12(23-3)21-2-4-6(15)7(16)9(18)11(20)22-4/h3-20H,1-2H2/t3-,4-,5+,6-,7+,8+,9-,10-,11+,12+/m1/s1

>  <InChIKey>
DLRVVLDZNNYCBX-CQHUIXDMSA-N

>  <SMILES>
C([C@@H]1[C@@H]([C@@H]([C@H]([C@H](O1)OC[C@@H]2[C@H]([C@@H]([C@H]([C@H](O2)O)O)O)O)O)O)O)O

$$$$
