5IPC_6CE_A_201


 43 47  0  0  0  0  0  0  0  0999 V2000
  -31.0608    5.2373  -24.7317 C   0  0  0  0  0  0  0  0  0  0  0  0
  -29.5156    6.0849  -26.3819 C   0  0  0  0  0  0  0  0  0  0  0  0
  -30.1115    4.7867  -25.8424 C   0  0  0  0  0  0  0  0  0  0  0  0
  -30.7380    6.7176  -24.6163 C   0  0  0  0  0  0  0  0  0  0  0  0
  -30.3817    7.1170  -25.9237 O   0  0  0  0  0  0  0  0  0  0  0  0
  -29.0448    3.9331  -25.3888 O   0  0  0  0  0  0  0  0  0  0  0  0
  -30.8867    4.5757  -23.4728 O   0  0  0  0  0  0  0  0  0  0  0  0
  -28.5150    4.4024  -24.7255 H   0  0  0  0  0  0  0  0  0  0  0  0
  -29.9828    4.7221  -23.1529 H   0  0  0  0  0  0  0  0  0  0  0  0
  -31.8889    7.4982  -24.1526 N   0  0  0  0  0  0  0  0  0  0  0  0
  -32.1675    7.8492  -22.8846 C   0  0  0  0  0  0  0  0  0  0  0  0
  -33.3119    8.5743  -22.8497 N   0  0  0  0  0  0  0  0  0  0  0  0
  -33.7678    8.6663  -24.1181 C   0  0  0  0  0  0  0  0  0  0  0  0
  -32.8240    7.9451  -24.9687 C   0  0  0  0  0  0  0  0  0  0  0  0
  -33.0025    7.8561  -26.3062 N   0  0  0  0  0  0  0  0  0  0  0  0
  -34.0946    8.4475  -26.8382 C   0  0  0  0  0  0  0  0  0  0  0  0
  -35.0103    9.1386  -26.1261 N   0  0  0  0  0  0  0  0  0  0  0  0
  -34.9227    9.2796  -24.7982 C   0  0  0  0  0  0  0  0  0  0  0  0
  -34.2851    8.3370  -28.2839 N   0  0  0  0  0  0  0  0  0  0  0  0
  -35.7861    9.9398  -24.1649 O   0  0  0  0  0  0  0  0  0  0  0  0
  -32.3575    7.3758  -26.8740 H   0  0  0  0  0  0  0  0  0  0  0  0
  -35.0683    8.7540  -28.7105 H   0  0  0  0  0  0  0  0  0  0  0  0
  -33.6302    7.8456  -28.8306 H   0  0  0  0  0  0  0  0  0  0  0  0
  -29.3737    6.1755  -27.9012 C   0  0  0  0  0  0  0  0  0  0  0  0
  -30.3341    4.9891  -28.7841 S   0  0  0  0  0  0  0  0  0  0  0  0
  -31.9392    6.0783  -29.5078 P   0  0  0  0  0  0  0  0  0  0  0  0
  -31.6623    7.5628  -29.4265 O   0  0  0  0  0  0  0  0  0  0  0  0
  -33.1553    5.5751  -28.7699 O   0  0  0  0  0  0  0  0  0  0  0  0
  -31.5664    7.8234  -28.4971 H   0  0  0  0  0  0  0  0  0  0  0  0
  -32.1099    5.6166  -31.1701 N   0  0  0  0  0  0  0  0  0  0  0  0
  -32.8783    6.1732  -31.5446 H   0  0  0  0  0  0  0  0  0  0  0  0
  -31.0133    5.7444  -32.1173 C   0  0  0  0  0  0  0  0  0  0  0  0
  -30.2327    4.4440  -32.3004 C   0  0  0  0  0  0  0  0  0  0  0  0
  -27.9226    4.7834  -33.6641 C   0  0  0  0  0  0  0  0  0  0  0  0
  -28.7385    4.6619  -32.4323 C   0  0  0  0  0  0  0  0  0  0  0  0
  -27.8246    4.8322  -31.3929 C   0  0  0  0  0  0  0  0  0  0  0  0
  -26.5352    5.0077  -33.2126 C   0  0  0  0  0  0  0  0  0  0  0  0
  -26.5583    5.0226  -31.8689 N   0  0  0  0  0  0  0  0  0  0  0  0
  -28.2343    4.7127  -35.0110 C   0  0  0  0  0  0  0  0  0  0  0  0
  -27.1982    4.8691  -35.9292 C   0  0  0  0  0  0  0  0  0  0  0  0
  -25.8807    5.0802  -35.5191 C   0  0  0  0  0  0  0  0  0  0  0  0
  -25.5385    5.1528  -34.1700 C   0  0  0  0  0  0  0  0  0  0  0  0
  -25.7649    5.1538  -31.3009 H   0  0  0  0  0  0  0  0  0  0  0  0
 20 18  2  0  0  0
 17 18  1  0  0  0
 17 16  2  0  0  0
 18 13  1  0  0  0
 19 16  1  0  0  0
 16 15  1  0  0  0
 13 12  1  0  0  0
 13 14  2  0  0  0
 12 11  2  0  0  0
 15 14  1  0  0  0
 14 10  1  0  0  0
 11 10  1  0  0  0
 10  4  1  0  0  0
  4  1  1  0  0  0
  4  5  1  0  0  0
  7  1  1  0  0  0
  1  3  1  0  0  0
  5  2  1  0  0  0
  3  2  1  0  0  0
  3  6  1  0  0  0
  2 24  1  0  0  0
 25 24  1  0  0  0
 25 26  1  0  0  0
 36 38  1  0  0  0
 36 35  2  0  0  0
 33 35  1  0  0  0
 33 32  1  0  0  0
 26 28  2  0  0  0
 26 30  1  0  0  0
 26 27  1  0  0  0
 38 37  1  0  0  0
 35 34  1  0  0  0
 30 32  1  0  0  0
 37 34  2  0  0  0
 37 42  1  0  0  0
 34 39  1  0  0  0
 42 41  2  0  0  0
 39 40  2  0  0  0
 41 40  1  0  0  0
 30 31  1  0  0  0
 27 29  1  0  0  0
 15 21  1  0  0  0
 19 22  1  0  0  0
 19 23  1  0  0  0
  6  8  1  0  0  0
  7  9  1  0  0  0
 38 43  1  0  0  0
M  END
> <minimizedAffinity>
-9.18165

$$$$
5IPC_6CE_A_201


 43 47  0  0  0  0  0  0  0  0999 V2000
  -31.1532    9.2775  -26.7913 C   0  0  0  0  0  0  0  0  0  0  0  0
  -33.3246    9.4247  -27.8364 C   0  0  0  0  0  0  0  0  0  0  0  0
  -31.8486    9.7359  -28.0734 C   0  0  0  0  0  0  0  0  0  0  0  0
  -32.3306    8.9589  -25.8853 C   0  0  0  0  0  0  0  0  0  0  0  0
  -33.3467    8.5013  -26.7537 O   0  0  0  0  0  0  0  0  0  0  0  0
  -31.7031   11.1417  -28.3467 O   0  0  0  0  0  0  0  0  0  0  0  0
  -30.2882   10.2456  -26.1852 O   0  0  0  0  0  0  0  0  0  0  0  0
  -32.0775   11.6541  -27.6131 H   0  0  0  0  0  0  0  0  0  0  0  0
  -30.7974   11.0414  -25.9652 H   0  0  0  0  0  0  0  0  0  0  0  0
  -32.0062    7.9182  -24.9052 N   0  0  0  0  0  0  0  0  0  0  0  0
  -32.1411    7.9977  -23.5695 C   0  0  0  0  0  0  0  0  0  0  0  0
  -31.7454    6.8343  -22.9979 N   0  0  0  0  0  0  0  0  0  0  0  0
  -31.3401    6.0155  -23.9931 C   0  0  0  0  0  0  0  0  0  0  0  0
  -31.5095    6.7450  -25.2475 C   0  0  0  0  0  0  0  0  0  0  0  0
  -31.1909    6.1884  -26.4381 N   0  0  0  0  0  0  0  0  0  0  0  0
  -30.6952    4.9315  -26.4350 C   0  0  0  0  0  0  0  0  0  0  0  0
  -30.5146    4.1860  -25.3238 N   0  0  0  0  0  0  0  0  0  0  0  0
  -30.7970    4.6494  -24.1006 C   0  0  0  0  0  0  0  0  0  0  0  0
  -30.3435    4.3417  -27.7262 N   0  0  0  0  0  0  0  0  0  0  0  0
  -30.6286    3.9254  -23.0858 O   0  0  0  0  0  0  0  0  0  0  0  0
  -31.3161    6.6832  -27.2799 H   0  0  0  0  0  0  0  0  0  0  0  0
  -29.9792    3.4280  -27.7671 H   0  0  0  0  0  0  0  0  0  0  0  0
  -30.4710    4.8583  -28.5545 H   0  0  0  0  0  0  0  0  0  0  0  0
  -34.0835    8.8348  -29.0250 C   0  0  0  0  0  0  0  0  0  0  0  0
  -33.0528    8.3842  -30.3829 S   0  0  0  0  0  0  0  0  0  0  0  0
  -32.2769    6.5439  -29.8375 P   0  0  0  0  0  0  0  0  0  0  0  0
  -33.1032    5.9165  -28.7373 O   0  0  0  0  0  0  0  0  0  0  0  0
  -30.8162    6.7754  -29.5390 O   0  0  0  0  0  0  0  0  0  0  0  0
  -33.0536    6.4682  -27.9410 H   0  0  0  0  0  0  0  0  0  0  0  0
  -32.3681    5.5549  -31.2586 N   0  0  0  0  0  0  0  0  0  0  0  0
  -33.1522    5.9108  -31.8055 H   0  0  0  0  0  0  0  0  0  0  0  0
  -31.2493    5.4328  -32.1802 C   0  0  0  0  0  0  0  0  0  0  0  0
  -30.3516    4.2365  -31.8684 C   0  0  0  0  0  0  0  0  0  0  0  0
  -28.0839    4.6335  -33.2866 C   0  0  0  0  0  0  0  0  0  0  0  0
  -28.8764    4.5411  -32.0371 C   0  0  0  0  0  0  0  0  0  0  0  0
  -27.9642    4.8383  -31.0251 C   0  0  0  0  0  0  0  0  0  0  0  0
  -26.7093    4.9761  -32.8720 C   0  0  0  0  0  0  0  0  0  0  0  0
  -26.7183    5.0781  -31.5319 N   0  0  0  0  0  0  0  0  0  0  0  0
  -28.4053    4.4541  -34.6211 C   0  0  0  0  0  0  0  0  0  0  0  0
  -27.3918    4.6161  -35.5634 C   0  0  0  0  0  0  0  0  0  0  0  0
  -26.0865    4.9384  -35.1881 C   0  0  0  0  0  0  0  0  0  0  0  0
  -25.7348    5.1217  -33.8520 C   0  0  0  0  0  0  0  0  0  0  0  0
  -25.9290    5.2974  -30.9859 H   0  0  0  0  0  0  0  0  0  0  0  0
 20 18  2  0  0  0
 17 18  1  0  0  0
 17 16  2  0  0  0
 18 13  1  0  0  0
 19 16  1  0  0  0
 16 15  1  0  0  0
 13 12  1  0  0  0
 13 14  2  0  0  0
 12 11  2  0  0  0
 15 14  1  0  0  0
 14 10  1  0  0  0
 11 10  1  0  0  0
 10  4  1  0  0  0
  4  1  1  0  0  0
  4  5  1  0  0  0
  7  1  1  0  0  0
  1  3  1  0  0  0
  5  2  1  0  0  0
  3  2  1  0  0  0
  3  6  1  0  0  0
  2 24  1  0  0  0
 25 24  1  0  0  0
 25 26  1  0  0  0
 36 38  1  0  0  0
 36 35  2  0  0  0
 33 35  1  0  0  0
 33 32  1  0  0  0
 26 28  2  0  0  0
 26 30  1  0  0  0
 26 27  1  0  0  0
 38 37  1  0  0  0
 35 34  1  0  0  0
 30 32  1  0  0  0
 37 34  2  0  0  0
 37 42  1  0  0  0
 34 39  1  0  0  0
 42 41  2  0  0  0
 39 40  2  0  0  0
 41 40  1  0  0  0
 30 31  1  0  0  0
 27 29  1  0  0  0
 15 21  1  0  0  0
 19 22  1  0  0  0
 19 23  1  0  0  0
  6  8  1  0  0  0
  7  9  1  0  0  0
 38 43  1  0  0  0
M  END
> <minimizedAffinity>
-9.11778

$$$$
5IPC_6CE_A_201


 43 47  0  0  0  0  0  0  0  0999 V2000
  -32.1543    7.6204  -22.8691 C   0  0  0  0  0  0  0  0  0  0  0  0
  -33.9495    8.3775  -24.2950 C   0  0  0  0  0  0  0  0  0  0  0  0
  -33.0617    8.8219  -23.1348 C   0  0  0  0  0  0  0  0  0  0  0  0
  -32.7693    6.5525  -23.7580 C   0  0  0  0  0  0  0  0  0  0  0  0
  -33.2880    7.2554  -24.8683 O   0  0  0  0  0  0  0  0  0  0  0  0
  -33.8947    9.1835  -22.0179 O   0  0  0  0  0  0  0  0  0  0  0  0
  -32.1019    7.1834  -21.5056 O   0  0  0  0  0  0  0  0  0  0  0  0
  -34.4646    8.4343  -21.7836 H   0  0  0  0  0  0  0  0  0  0  0  0
  -32.9929    6.9395  -21.2097 H   0  0  0  0  0  0  0  0  0  0  0  0
  -31.7773    5.5715  -24.2080 N   0  0  0  0  0  0  0  0  0  0  0  0
  -31.6423    4.3047  -23.7769 C   0  0  0  0  0  0  0  0  0  0  0  0
  -30.6184    3.7039  -24.4306 N   0  0  0  0  0  0  0  0  0  0  0  0
  -30.0915    4.6162  -25.2763 C   0  0  0  0  0  0  0  0  0  0  0  0
  -30.8601    5.8482  -25.1148 C   0  0  0  0  0  0  0  0  0  0  0  0
  -30.5762    6.9582  -25.8331 N   0  0  0  0  0  0  0  0  0  0  0  0
  -29.5447    6.9003  -26.7038 C   0  0  0  0  0  0  0  0  0  0  0  0
  -28.7898    5.8017  -26.9192 N   0  0  0  0  0  0  0  0  0  0  0  0
  -28.9906    4.6571  -26.2555 C   0  0  0  0  0  0  0  0  0  0  0  0
  -29.2384    8.1087  -27.4684 N   0  0  0  0  0  0  0  0  0  0  0  0
  -28.2772    3.6474  -26.4878 O   0  0  0  0  0  0  0  0  0  0  0  0
  -31.1043    7.7820  -25.7251 H   0  0  0  0  0  0  0  0  0  0  0  0
  -28.4944    8.1078  -28.1132 H   0  0  0  0  0  0  0  0  0  0  0  0
  -29.7761    8.9230  -27.3383 H   0  0  0  0  0  0  0  0  0  0  0  0
  -34.2091    9.4244  -25.3782 C   0  0  0  0  0  0  0  0  0  0  0  0
  -32.7529    9.9822  -26.2014 S   0  0  0  0  0  0  0  0  0  0  0  0
  -32.8770    9.1242  -28.0815 P   0  0  0  0  0  0  0  0  0  0  0  0
  -31.6078    9.3652  -28.8676 O   0  0  0  0  0  0  0  0  0  0  0  0
  -34.1588    9.6344  -28.6924 O   0  0  0  0  0  0  0  0  0  0  0  0
  -31.4978   10.3167  -29.0205 H   0  0  0  0  0  0  0  0  0  0  0  0
  -33.0698    7.4227  -27.8104 N   0  0  0  0  0  0  0  0  0  0  0  0
  -33.9741    7.3061  -27.3532 H   0  0  0  0  0  0  0  0  0  0  0  0
  -33.0383    6.4643  -28.9041 C   0  0  0  0  0  0  0  0  0  0  0  0
  -31.7466    5.6491  -28.9419 C   0  0  0  0  0  0  0  0  0  0  0  0
  -29.9742    5.0183  -30.8839 C   0  0  0  0  0  0  0  0  0  0  0  0
  -31.3356    5.2524  -30.3458 C   0  0  0  0  0  0  0  0  0  0  0  0
  -32.1836    4.9874  -31.4206 C   0  0  0  0  0  0  0  0  0  0  0  0
  -30.1560    4.6355  -32.2979 C   0  0  0  0  0  0  0  0  0  0  0  0
  -31.4784    4.6408  -32.5382 N   0  0  0  0  0  0  0  0  0  0  0  0
  -28.7116    5.1085  -30.3235 C   0  0  0  0  0  0  0  0  0  0  0  0
  -27.6162    4.8174  -31.1338 C   0  0  0  0  0  0  0  0  0  0  0  0
  -27.7705    4.4555  -32.4731 C   0  0  0  0  0  0  0  0  0  0  0  0
  -29.0294    4.3599  -33.0634 C   0  0  0  0  0  0  0  0  0  0  0  0
  -31.8861    4.4230  -33.4074 H   0  0  0  0  0  0  0  0  0  0  0  0
 20 18  2  0  0  0
 17 18  1  0  0  0
 17 16  2  0  0  0
 18 13  1  0  0  0
 19 16  1  0  0  0
 16 15  1  0  0  0
 13 12  1  0  0  0
 13 14  2  0  0  0
 12 11  2  0  0  0
 15 14  1  0  0  0
 14 10  1  0  0  0
 11 10  1  0  0  0
 10  4  1  0  0  0
  4  1  1  0  0  0
  4  5  1  0  0  0
  7  1  1  0  0  0
  1  3  1  0  0  0
  5  2  1  0  0  0
  3  2  1  0  0  0
  3  6  1  0  0  0
  2 24  1  0  0  0
 25 24  1  0  0  0
 25 26  1  0  0  0
 36 38  1  0  0  0
 36 35  2  0  0  0
 33 35  1  0  0  0
 33 32  1  0  0  0
 26 28  2  0  0  0
 26 30  1  0  0  0
 26 27  1  0  0  0
 38 37  1  0  0  0
 35 34  1  0  0  0
 30 32  1  0  0  0
 37 34  2  0  0  0
 37 42  1  0  0  0
 34 39  1  0  0  0
 42 41  2  0  0  0
 39 40  2  0  0  0
 41 40  1  0  0  0
 30 31  1  0  0  0
 27 29  1  0  0  0
 15 21  1  0  0  0
 19 22  1  0  0  0
 19 23  1  0  0  0
  6  8  1  0  0  0
  7  9  1  0  0  0
 38 43  1  0  0  0
M  END
> <minimizedAffinity>
-8.81992

$$$$
5IPC_6CE_A_201


 43 47  0  0  0  0  0  0  0  0999 V2000
  -32.0157    9.7822  -27.7451 C   0  0  0  0  0  0  0  0  0  0  0  0
  -32.5726    7.7583  -28.9380 C   0  0  0  0  0  0  0  0  0  0  0  0
  -31.6232    8.9539  -28.9688 C   0  0  0  0  0  0  0  0  0  0  0  0
  -33.2817    9.0833  -27.2786 C   0  0  0  0  0  0  0  0  0  0  0  0
  -33.0935    7.7239  -27.6140 O   0  0  0  0  0  0  0  0  0  0  0  0
  -31.7826    9.6479  -30.2199 O   0  0  0  0  0  0  0  0  0  0  0  0
  -32.2616   11.1705  -27.9997 O   0  0  0  0  0  0  0  0  0  0  0  0
  -32.7107    9.9077  -30.3295 H   0  0  0  0  0  0  0  0  0  0  0  0
  -32.9792   11.2585  -28.6463 H   0  0  0  0  0  0  0  0  0  0  0  0
  -33.4843    9.2168  -25.8329 N   0  0  0  0  0  0  0  0  0  0  0  0
  -34.2777   10.1050  -25.2081 C   0  0  0  0  0  0  0  0  0  0  0  0
  -34.2104    9.9173  -23.8676 N   0  0  0  0  0  0  0  0  0  0  0  0
  -33.3464    8.9024  -23.6471 C   0  0  0  0  0  0  0  0  0  0  0  0
  -32.8673    8.4530  -24.9520 C   0  0  0  0  0  0  0  0  0  0  0  0
  -31.9827    7.4369  -25.0691 N   0  0  0  0  0  0  0  0  0  0  0  0
  -31.5403    6.8509  -23.9349 C   0  0  0  0  0  0  0  0  0  0  0  0
  -31.9371    7.1991  -22.6921 N   0  0  0  0  0  0  0  0  0  0  0  0
  -32.8058    8.1934  -22.4734 C   0  0  0  0  0  0  0  0  0  0  0  0
  -30.5758    5.7600  -24.0707 N   0  0  0  0  0  0  0  0  0  0  0  0
  -33.1647    8.4857  -21.3037 O   0  0  0  0  0  0  0  0  0  0  0  0
  -31.6711    7.1338  -25.9524 H   0  0  0  0  0  0  0  0  0  0  0  0
  -30.2290    5.3069  -23.2685 H   0  0  0  0  0  0  0  0  0  0  0  0
  -30.2734    5.4789  -24.9644 H   0  0  0  0  0  0  0  0  0  0  0  0
  -31.9529    6.4028  -29.2773 C   0  0  0  0  0  0  0  0  0  0  0  0
  -31.4784    5.4568  -27.8668 S   0  0  0  0  0  0  0  0  0  0  0  0
  -29.4686    5.8899  -27.6227 P   0  0  0  0  0  0  0  0  0  0  0  0
  -28.6988    4.6556  -27.2092 O   0  0  0  0  0  0  0  0  0  0  0  0
  -29.4041    7.0727  -26.6882 O   0  0  0  0  0  0  0  0  0  0  0  0
  -29.0099    4.3565  -26.3405 H   0  0  0  0  0  0  0  0  0  0  0  0
  -28.9098    6.4212  -29.1755 N   0  0  0  0  0  0  0  0  0  0  0  0
  -28.5318    7.3586  -29.0386 H   0  0  0  0  0  0  0  0  0  0  0  0
  -27.9052    5.6807  -29.9227 C   0  0  0  0  0  0  0  0  0  0  0  0
  -28.4767    4.9854  -31.1573 C   0  0  0  0  0  0  0  0  0  0  0  0
  -27.8458    4.9588  -33.7865 C   0  0  0  0  0  0  0  0  0  0  0  0
  -27.5276    4.9989  -32.3391 C   0  0  0  0  0  0  0  0  0  0  0  0
  -26.1371    5.0923  -32.2922 C   0  0  0  0  0  0  0  0  0  0  0  0
  -26.5493    5.0179  -34.4897 C   0  0  0  0  0  0  0  0  0  0  0  0
  -25.5951    5.0937  -33.5463 N   0  0  0  0  0  0  0  0  0  0  0  0
  -29.0366    4.8716  -34.4869 C   0  0  0  0  0  0  0  0  0  0  0  0
  -28.9746    4.8506  -35.8786 C   0  0  0  0  0  0  0  0  0  0  0  0
  -27.7569    4.9040  -36.5591 C   0  0  0  0  0  0  0  0  0  0  0  0
  -26.5434    4.9891  -35.8791 C   0  0  0  0  0  0  0  0  0  0  0  0
  -24.6301    5.1438  -33.7346 H   0  0  0  0  0  0  0  0  0  0  0  0
 20 18  2  0  0  0
 17 18  1  0  0  0
 17 16  2  0  0  0
 18 13  1  0  0  0
 19 16  1  0  0  0
 16 15  1  0  0  0
 13 12  1  0  0  0
 13 14  2  0  0  0
 12 11  2  0  0  0
 15 14  1  0  0  0
 14 10  1  0  0  0
 11 10  1  0  0  0
 10  4  1  0  0  0
  4  1  1  0  0  0
  4  5  1  0  0  0
  7  1  1  0  0  0
  1  3  1  0  0  0
  5  2  1  0  0  0
  3  2  1  0  0  0
  3  6  1  0  0  0
  2 24  1  0  0  0
 25 24  1  0  0  0
 25 26  1  0  0  0
 36 38  1  0  0  0
 36 35  2  0  0  0
 33 35  1  0  0  0
 33 32  1  0  0  0
 26 28  2  0  0  0
 26 30  1  0  0  0
 26 27  1  0  0  0
 38 37  1  0  0  0
 35 34  1  0  0  0
 30 32  1  0  0  0
 37 34  2  0  0  0
 37 42  1  0  0  0
 34 39  1  0  0  0
 42 41  2  0  0  0
 39 40  2  0  0  0
 41 40  1  0  0  0
 30 31  1  0  0  0
 27 29  1  0  0  0
 15 21  1  0  0  0
 19 22  1  0  0  0
 19 23  1  0  0  0
  6  8  1  0  0  0
  7  9  1  0  0  0
 38 43  1  0  0  0
M  END
> <minimizedAffinity>
-8.81367

$$$$
5IPC_6CE_A_201


 43 47  0  0  0  0  0  0  0  0999 V2000
  -29.5313    6.2143  -28.8310 C   0  0  0  0  0  0  0  0  0  0  0  0
  -30.9042    8.1839  -28.5763 C   0  0  0  0  0  0  0  0  0  0  0  0
  -30.0563    7.4287  -29.5973 C   0  0  0  0  0  0  0  0  0  0  0  0
  -29.9583    6.5261  -27.4064 C   0  0  0  0  0  0  0  0  0  0  0  0
  -31.1656    7.2481  -27.5365 O   0  0  0  0  0  0  0  0  0  0  0  0
  -29.0224    8.3024  -30.0870 O   0  0  0  0  0  0  0  0  0  0  0  0
  -28.1156    6.0082  -28.9075 O   0  0  0  0  0  0  0  0  0  0  0  0
  -28.4982    8.6331  -29.3409 H   0  0  0  0  0  0  0  0  0  0  0  0
  -27.6560    6.7874  -28.5574 H   0  0  0  0  0  0  0  0  0  0  0  0
  -30.1868    5.3098  -26.6208 N   0  0  0  0  0  0  0  0  0  0  0  0
  -29.9001    4.0476  -26.9861 C   0  0  0  0  0  0  0  0  0  0  0  0
  -30.2478    3.1922  -25.9942 N   0  0  0  0  0  0  0  0  0  0  0  0
  -30.7769    3.9306  -24.9943 C   0  0  0  0  0  0  0  0  0  0  0  0
  -30.7387    5.3268  -25.4227 C   0  0  0  0  0  0  0  0  0  0  0  0
  -31.1994    6.3222  -24.6318 N   0  0  0  0  0  0  0  0  0  0  0  0
  -31.7124    5.9861  -23.4280 C   0  0  0  0  0  0  0  0  0  0  0  0
  -31.7783    4.7239  -22.9529 N   0  0  0  0  0  0  0  0  0  0  0  0
  -31.3514    3.6721  -23.6617 C   0  0  0  0  0  0  0  0  0  0  0  0
  -32.2181    7.0681  -22.5840 N   0  0  0  0  0  0  0  0  0  0  0  0
  -31.4157    2.5094  -23.1859 O   0  0  0  0  0  0  0  0  0  0  0  0
  -31.1622    7.2617  -24.9239 H   0  0  0  0  0  0  0  0  0  0  0  0
  -32.5999    6.8651  -21.6995 H   0  0  0  0  0  0  0  0  0  0  0  0
  -32.1767    7.9995  -22.9003 H   0  0  0  0  0  0  0  0  0  0  0  0
  -32.2252    8.7533  -29.0936 C   0  0  0  0  0  0  0  0  0  0  0  0
  -33.0337    7.7282  -30.2790 S   0  0  0  0  0  0  0  0  0  0  0  0
  -32.6194    8.6337  -32.0941 P   0  0  0  0  0  0  0  0  0  0  0  0
  -31.6649    9.7925  -31.9116 O   0  0  0  0  0  0  0  0  0  0  0  0
  -33.9550    8.9491  -32.7210 O   0  0  0  0  0  0  0  0  0  0  0  0
  -32.0865   10.4762  -31.3679 H   0  0  0  0  0  0  0  0  0  0  0  0
  -31.8621    7.4142  -33.0663 N   0  0  0  0  0  0  0  0  0  0  0  0
  -30.8564    7.5375  -32.9485 H   0  0  0  0  0  0  0  0  0  0  0  0
  -32.1268    5.9984  -32.8628 C   0  0  0  0  0  0  0  0  0  0  0  0
  -31.2876    5.1012  -33.7710 C   0  0  0  0  0  0  0  0  0  0  0  0
  -28.6097    4.9046  -34.0895 C   0  0  0  0  0  0  0  0  0  0  0  0
  -29.8586    4.9411  -33.2916 C   0  0  0  0  0  0  0  0  0  0  0  0
  -29.4288    4.8324  -31.9695 C   0  0  0  0  0  0  0  0  0  0  0  0
  -27.5098    4.7533  -33.1167 C   0  0  0  0  0  0  0  0  0  0  0  0
  -28.0695    4.7174  -31.8952 N   0  0  0  0  0  0  0  0  0  0  0  0
  -28.3585    4.9708  -35.4492 C   0  0  0  0  0  0  0  0  0  0  0  0
  -27.0328    4.8995  -35.8717 C   0  0  0  0  0  0  0  0  0  0  0  0
  -25.9812    4.7547  -34.9651 C   0  0  0  0  0  0  0  0  0  0  0  0
  -26.2058    4.6825  -33.5916 C   0  0  0  0  0  0  0  0  0  0  0  0
  -27.5649    4.6208  -31.0554 H   0  0  0  0  0  0  0  0  0  0  0  0
 20 18  2  0  0  0
 17 18  1  0  0  0
 17 16  2  0  0  0
 18 13  1  0  0  0
 19 16  1  0  0  0
 16 15  1  0  0  0
 13 12  1  0  0  0
 13 14  2  0  0  0
 12 11  2  0  0  0
 15 14  1  0  0  0
 14 10  1  0  0  0
 11 10  1  0  0  0
 10  4  1  0  0  0
  4  1  1  0  0  0
  4  5  1  0  0  0
  7  1  1  0  0  0
  1  3  1  0  0  0
  5  2  1  0  0  0
  3  2  1  0  0  0
  3  6  1  0  0  0
  2 24  1  0  0  0
 25 24  1  0  0  0
 25 26  1  0  0  0
 36 38  1  0  0  0
 36 35  2  0  0  0
 33 35  1  0  0  0
 33 32  1  0  0  0
 26 28  2  0  0  0
 26 30  1  0  0  0
 26 27  1  0  0  0
 38 37  1  0  0  0
 35 34  1  0  0  0
 30 32  1  0  0  0
 37 34  2  0  0  0
 37 42  1  0  0  0
 34 39  1  0  0  0
 42 41  2  0  0  0
 39 40  2  0  0  0
 41 40  1  0  0  0
 30 31  1  0  0  0
 27 29  1  0  0  0
 15 21  1  0  0  0
 19 22  1  0  0  0
 19 23  1  0  0  0
  6  8  1  0  0  0
  7  9  1  0  0  0
 38 43  1  0  0  0
M  END
> <minimizedAffinity>
-8.69361

$$$$
5IPC_6CE_A_201


 43 47  0  0  0  0  0  0  0  0999 V2000
  -34.9055    9.8936  -24.6692 C   0  0  0  0  0  0  0  0  0  0  0  0
  -33.1360    8.2599  -24.8392 C   0  0  0  0  0  0  0  0  0  0  0  0
  -33.4149    9.7546  -24.9794 C   0  0  0  0  0  0  0  0  0  0  0  0
  -35.3544    8.4436  -24.6006 C   0  0  0  0  0  0  0  0  0  0  0  0
  -34.2364    7.7380  -24.1027 O   0  0  0  0  0  0  0  0  0  0  0  0
  -33.0523   10.1774  -26.3068 O   0  0  0  0  0  0  0  0  0  0  0  0
  -35.6673   10.6198  -25.6413 O   0  0  0  0  0  0  0  0  0  0  0  0
  -33.5362    9.6465  -26.9587 H   0  0  0  0  0  0  0  0  0  0  0  0
  -35.5946   10.1805  -26.5030 H   0  0  0  0  0  0  0  0  0  0  0  0
  -36.4987    8.2627  -23.7024 N   0  0  0  0  0  0  0  0  0  0  0  0
  -37.7064    7.7661  -24.0243 C   0  0  0  0  0  0  0  0  0  0  0  0
  -38.5019    7.7461  -22.9273 N   0  0  0  0  0  0  0  0  0  0  0  0
  -37.7844    8.2543  -21.9016 C   0  0  0  0  0  0  0  0  0  0  0  0
  -36.4657    8.5993  -22.4273 C   0  0  0  0  0  0  0  0  0  0  0  0
  -35.5069    9.1335  -21.6374 N   0  0  0  0  0  0  0  0  0  0  0  0
  -35.8086    9.3532  -20.3388 C   0  0  0  0  0  0  0  0  0  0  0  0
  -36.9977    9.0570  -19.7718 N   0  0  0  0  0  0  0  0  0  0  0  0
  -38.0093    8.5291  -20.4711 C   0  0  0  0  0  0  0  0  0  0  0  0
  -34.7692    9.9411  -19.4946 N   0  0  0  0  0  0  0  0  0  0  0  0
  -39.1013    8.2534  -19.9107 O   0  0  0  0  0  0  0  0  0  0  0  0
  -34.6176    9.3552  -21.9969 H   0  0  0  0  0  0  0  0  0  0  0  0
  -34.9491   10.1169  -18.5428 H   0  0  0  0  0  0  0  0  0  0  0  0
  -33.8895   10.1610  -19.8781 H   0  0  0  0  0  0  0  0  0  0  0  0
  -31.8301    7.8856  -24.1383 C   0  0  0  0  0  0  0  0  0  0  0  0
  -30.8720    6.6820  -25.0002 S   0  0  0  0  0  0  0  0  0  0  0  0
  -29.8722    7.7755  -26.4463 P   0  0  0  0  0  0  0  0  0  0  0  0
  -28.8868    8.7316  -25.8122 O   0  0  0  0  0  0  0  0  0  0  0  0
  -30.9377    8.3848  -27.3238 O   0  0  0  0  0  0  0  0  0  0  0  0
  -29.3668    9.3825  -25.2766 H   0  0  0  0  0  0  0  0  0  0  0  0
  -29.0106    6.6140  -27.4025 N   0  0  0  0  0  0  0  0  0  0  0  0
  -28.7721    5.8463  -26.7746 H   0  0  0  0  0  0  0  0  0  0  0  0
  -29.6005    6.0063  -28.5851 C   0  0  0  0  0  0  0  0  0  0  0  0
  -28.6172    5.1238  -29.3521 C   0  0  0  0  0  0  0  0  0  0  0  0
  -28.0452    4.9509  -31.9892 C   0  0  0  0  0  0  0  0  0  0  0  0
  -28.9594    4.9927  -30.8229 C   0  0  0  0  0  0  0  0  0  0  0  0
  -30.2317    4.8442  -31.3741 C   0  0  0  0  0  0  0  0  0  0  0  0
  -28.9076    4.7912  -33.1765 C   0  0  0  0  0  0  0  0  0  0  0  0
  -30.1759    4.7376  -32.7350 N   0  0  0  0  0  0  0  0  0  0  0  0
  -26.6693    5.0419  -32.1110 C   0  0  0  0  0  0  0  0  0  0  0  0
  -26.1216    4.9687  -33.3900 C   0  0  0  0  0  0  0  0  0  0  0  0
  -26.9230    4.8195  -34.5233 C   0  0  0  0  0  0  0  0  0  0  0  0
  -28.3105    4.7283  -34.4297 C   0  0  0  0  0  0  0  0  0  0  0  0
  -30.9632    4.6347  -33.3171 H   0  0  0  0  0  0  0  0  0  0  0  0
 20 18  2  0  0  0
 17 18  1  0  0  0
 17 16  2  0  0  0
 18 13  1  0  0  0
 19 16  1  0  0  0
 16 15  1  0  0  0
 13 12  1  0  0  0
 13 14  2  0  0  0
 12 11  2  0  0  0
 15 14  1  0  0  0
 14 10  1  0  0  0
 11 10  1  0  0  0
 10  4  1  0  0  0
  4  1  1  0  0  0
  4  5  1  0  0  0
  7  1  1  0  0  0
  1  3  1  0  0  0
  5  2  1  0  0  0
  3  2  1  0  0  0
  3  6  1  0  0  0
  2 24  1  0  0  0
 25 24  1  0  0  0
 25 26  1  0  0  0
 36 38  1  0  0  0
 36 35  2  0  0  0
 33 35  1  0  0  0
 33 32  1  0  0  0
 26 28  2  0  0  0
 26 30  1  0  0  0
 26 27  1  0  0  0
 38 37  1  0  0  0
 35 34  1  0  0  0
 30 32  1  0  0  0
 37 34  2  0  0  0
 37 42  1  0  0  0
 34 39  1  0  0  0
 42 41  2  0  0  0
 39 40  2  0  0  0
 41 40  1  0  0  0
 30 31  1  0  0  0
 27 29  1  0  0  0
 15 21  1  0  0  0
 19 22  1  0  0  0
 19 23  1  0  0  0
  6  8  1  0  0  0
  7  9  1  0  0  0
 38 43  1  0  0  0
M  END
> <minimizedAffinity>
-8.54697

$$$$
5IPC_6CE_A_201


 43 47  0  0  0  0  0  0  0  0999 V2000
  -32.0923   10.5382  -27.5792 C   0  0  0  0  0  0  0  0  0  0  0  0
  -33.8425    9.8013  -29.0701 C   0  0  0  0  0  0  0  0  0  0  0  0
  -32.4340   10.3909  -29.0621 C   0  0  0  0  0  0  0  0  0  0  0  0
  -33.4203   10.2217  -26.9121 C   0  0  0  0  0  0  0  0  0  0  0  0
  -34.0403    9.2782  -27.7614 O   0  0  0  0  0  0  0  0  0  0  0  0
  -32.4416   11.6348  -29.7865 O   0  0  0  0  0  0  0  0  0  0  0  0
  -31.6177   11.8318  -27.1866 O   0  0  0  0  0  0  0  0  0  0  0  0
  -33.0969   12.2331  -29.3947 H   0  0  0  0  0  0  0  0  0  0  0  0
  -32.2908   12.4993  -27.3924 H   0  0  0  0  0  0  0  0  0  0  0  0
  -33.2426    9.6479  -25.5749 N   0  0  0  0  0  0  0  0  0  0  0  0
  -33.8850   10.0095  -24.4500 C   0  0  0  0  0  0  0  0  0  0  0  0
  -33.4598    9.2473  -23.4132 N   0  0  0  0  0  0  0  0  0  0  0  0
  -32.5216    8.4025  -23.8942 C   0  0  0  0  0  0  0  0  0  0  0  0
  -32.3810    8.6817  -25.3213 C   0  0  0  0  0  0  0  0  0  0  0  0
  -31.5116    7.9927  -26.0946 N   0  0  0  0  0  0  0  0  0  0  0  0
  -30.7602    7.0381  -25.5034 C   0  0  0  0  0  0  0  0  0  0  0  0
  -30.8330    6.7122  -24.1950 N   0  0  0  0  0  0  0  0  0  0  0  0
  -31.6595    7.3385  -23.3491 C   0  0  0  0  0  0  0  0  0  0  0  0
  -29.8151    6.3054  -26.3452 N   0  0  0  0  0  0  0  0  0  0  0  0
  -31.7123    7.0032  -22.1378 O   0  0  0  0  0  0  0  0  0  0  0  0
  -31.4288    8.1807  -27.0574 H   0  0  0  0  0  0  0  0  0  0  0  0
  -29.2491    5.6020  -25.9527 H   0  0  0  0  0  0  0  0  0  0  0  0
  -29.7448    6.5157  -27.3044 H   0  0  0  0  0  0  0  0  0  0  0  0
  -34.1030    8.7042  -30.1022 C   0  0  0  0  0  0  0  0  0  0  0  0
  -32.6394    8.0291  -30.8175 S   0  0  0  0  0  0  0  0  0  0  0  0
  -32.0225    6.6021  -29.4502 P   0  0  0  0  0  0  0  0  0  0  0  0
  -33.0154    6.4791  -28.3162 O   0  0  0  0  0  0  0  0  0  0  0  0
  -30.6070    6.9646  -29.0743 O   0  0  0  0  0  0  0  0  0  0  0  0
  -33.0505    7.3148  -27.8250 H   0  0  0  0  0  0  0  0  0  0  0  0
  -31.9629    5.1067  -30.3254 N   0  0  0  0  0  0  0  0  0  0  0  0
  -32.3915    5.2885  -31.2329 H   0  0  0  0  0  0  0  0  0  0  0  0
  -30.7056    4.4272  -30.5963 C   0  0  0  0  0  0  0  0  0  0  0  0
  -30.2609    4.5598  -32.0519 C   0  0  0  0  0  0  0  0  0  0  0  0
  -27.9486    4.7426  -33.4415 C   0  0  0  0  0  0  0  0  0  0  0  0
  -28.7619    4.7266  -32.2021 C   0  0  0  0  0  0  0  0  0  0  0  0
  -27.8389    4.9407  -31.1789 C   0  0  0  0  0  0  0  0  0  0  0  0
  -26.5535    4.9578  -33.0098 C   0  0  0  0  0  0  0  0  0  0  0  0
  -26.5700    5.0634  -31.6700 N   0  0  0  0  0  0  0  0  0  0  0  0
  -28.2683    4.5904  -34.7797 C   0  0  0  0  0  0  0  0  0  0  0  0
  -27.2325    4.6561  -35.7092 C   0  0  0  0  0  0  0  0  0  0  0  0
  -25.9077    4.8574  -35.3177 C   0  0  0  0  0  0  0  0  0  0  0  0
  -25.5575    5.0106  -33.9775 C   0  0  0  0  0  0  0  0  0  0  0  0
  -25.7707    5.2101  -31.1142 H   0  0  0  0  0  0  0  0  0  0  0  0
 20 18  2  0  0  0
 17 18  1  0  0  0
 17 16  2  0  0  0
 18 13  1  0  0  0
 19 16  1  0  0  0
 16 15  1  0  0  0
 13 12  1  0  0  0
 13 14  2  0  0  0
 12 11  2  0  0  0
 15 14  1  0  0  0
 14 10  1  0  0  0
 11 10  1  0  0  0
 10  4  1  0  0  0
  4  1  1  0  0  0
  4  5  1  0  0  0
  7  1  1  0  0  0
  1  3  1  0  0  0
  5  2  1  0  0  0
  3  2  1  0  0  0
  3  6  1  0  0  0
  2 24  1  0  0  0
 25 24  1  0  0  0
 25 26  1  0  0  0
 36 38  1  0  0  0
 36 35  2  0  0  0
 33 35  1  0  0  0
 33 32  1  0  0  0
 26 28  2  0  0  0
 26 30  1  0  0  0
 26 27  1  0  0  0
 38 37  1  0  0  0
 35 34  1  0  0  0
 30 32  1  0  0  0
 37 34  2  0  0  0
 37 42  1  0  0  0
 34 39  1  0  0  0
 42 41  2  0  0  0
 39 40  2  0  0  0
 41 40  1  0  0  0
 30 31  1  0  0  0
 27 29  1  0  0  0
 15 21  1  0  0  0
 19 22  1  0  0  0
 19 23  1  0  0  0
  6  8  1  0  0  0
  7  9  1  0  0  0
 38 43  1  0  0  0
M  END
> <minimizedAffinity>
-8.54144

$$$$
5IPC_6CE_A_201


 43 47  0  0  0  0  0  0  0  0999 V2000
  -33.4388    7.7870  -23.8306 C   0  0  0  0  0  0  0  0  0  0  0  0
  -33.5131    8.6923  -26.0675 C   0  0  0  0  0  0  0  0  0  0  0  0
  -32.5998    7.9443  -25.0990 C   0  0  0  0  0  0  0  0  0  0  0  0
  -34.6510    8.6494  -24.1400 C   0  0  0  0  0  0  0  0  0  0  0  0
  -34.8259    8.5457  -25.5381 O   0  0  0  0  0  0  0  0  0  0  0  0
  -31.3921    8.7045  -24.9104 O   0  0  0  0  0  0  0  0  0  0  0  0
  -32.8027    8.2138  -22.6199 O   0  0  0  0  0  0  0  0  0  0  0  0
  -31.6160    9.5947  -24.5971 H   0  0  0  0  0  0  0  0  0  0  0  0
  -32.5668    9.1519  -22.6919 H   0  0  0  0  0  0  0  0  0  0  0  0
  -35.8548    8.1759  -23.4504 N   0  0  0  0  0  0  0  0  0  0  0  0
  -36.7575    7.2946  -23.9165 C   0  0  0  0  0  0  0  0  0  0  0  0
  -37.7289    7.0999  -22.9918 N   0  0  0  0  0  0  0  0  0  0  0  0
  -37.4381    7.8860  -21.9322 C   0  0  0  0  0  0  0  0  0  0  0  0
  -36.2024    8.5978  -22.2499 C   0  0  0  0  0  0  0  0  0  0  0  0
  -35.6440    9.4688  -21.3791 N   0  0  0  0  0  0  0  0  0  0  0  0
  -36.2725    9.6742  -20.2009 C   0  0  0  0  0  0  0  0  0  0  0  0
  -37.4114    9.0532  -19.8260 N   0  0  0  0  0  0  0  0  0  0  0  0
  -38.0405    8.1778  -20.6190 C   0  0  0  0  0  0  0  0  0  0  0  0
  -35.6672   10.6258  -19.2700 N   0  0  0  0  0  0  0  0  0  0  0  0
  -39.0938    7.6070  -20.2356 O   0  0  0  0  0  0  0  0  0  0  0  0
  -34.8064    9.9382  -21.5967 H   0  0  0  0  0  0  0  0  0  0  0  0
  -36.0940   10.8036  -18.4008 H   0  0  0  0  0  0  0  0  0  0  0  0
  -34.8327   11.0886  -19.5124 H   0  0  0  0  0  0  0  0  0  0  0  0
  -33.4911    8.2083  -27.5173 C   0  0  0  0  0  0  0  0  0  0  0  0
  -32.1549    7.1199  -27.8908 S   0  0  0  0  0  0  0  0  0  0  0  0
  -30.6626    8.3747  -28.5870 P   0  0  0  0  0  0  0  0  0  0  0  0
  -29.8639    8.9494  -27.4385 O   0  0  0  0  0  0  0  0  0  0  0  0
  -31.3391    9.3643  -29.5031 O   0  0  0  0  0  0  0  0  0  0  0  0
  -30.4396    9.5055  -26.8907 H   0  0  0  0  0  0  0  0  0  0  0  0
  -29.6303    7.3815  -29.5635 N   0  0  0  0  0  0  0  0  0  0  0  0
  -28.8308    7.9619  -29.8172 H   0  0  0  0  0  0  0  0  0  0  0  0
  -29.0841    6.1268  -29.0702 C   0  0  0  0  0  0  0  0  0  0  0  0
  -29.2076    4.9877  -30.0808 C   0  0  0  0  0  0  0  0  0  0  0  0
  -28.2509    4.9575  -32.6096 C   0  0  0  0  0  0  0  0  0  0  0  0
  -28.1177    5.0074  -31.1340 C   0  0  0  0  0  0  0  0  0  0  0  0
  -26.7452    5.1173  -30.9132 C   0  0  0  0  0  0  0  0  0  0  0  0
  -26.8771    5.0288  -33.1447 C   0  0  0  0  0  0  0  0  0  0  0  0
  -26.0499    5.1198  -32.0893 N   0  0  0  0  0  0  0  0  0  0  0  0
  -29.3432    4.8533  -33.4537 C   0  0  0  0  0  0  0  0  0  0  0  0
  -29.1065    4.8272  -34.8264 C   0  0  0  0  0  0  0  0  0  0  0  0
  -27.8136    4.8921  -35.3488 C   0  0  0  0  0  0  0  0  0  0  0  0
  -26.6962    4.9943  -34.5222 C   0  0  0  0  0  0  0  0  0  0  0  0
  -25.0695    5.1804  -32.1552 H   0  0  0  0  0  0  0  0  0  0  0  0
 20 18  2  0  0  0
 17 18  1  0  0  0
 17 16  2  0  0  0
 18 13  1  0  0  0
 19 16  1  0  0  0
 16 15  1  0  0  0
 13 12  1  0  0  0
 13 14  2  0  0  0
 12 11  2  0  0  0
 15 14  1  0  0  0
 14 10  1  0  0  0
 11 10  1  0  0  0
 10  4  1  0  0  0
  4  1  1  0  0  0
  4  5  1  0  0  0
  7  1  1  0  0  0
  1  3  1  0  0  0
  5  2  1  0  0  0
  3  2  1  0  0  0
  3  6  1  0  0  0
  2 24  1  0  0  0
 25 24  1  0  0  0
 25 26  1  0  0  0
 36 38  1  0  0  0
 36 35  2  0  0  0
 33 35  1  0  0  0
 33 32  1  0  0  0
 26 28  2  0  0  0
 26 30  1  0  0  0
 26 27  1  0  0  0
 38 37  1  0  0  0
 35 34  1  0  0  0
 30 32  1  0  0  0
 37 34  2  0  0  0
 37 42  1  0  0  0
 34 39  1  0  0  0
 42 41  2  0  0  0
 39 40  2  0  0  0
 41 40  1  0  0  0
 30 31  1  0  0  0
 27 29  1  0  0  0
 15 21  1  0  0  0
 19 22  1  0  0  0
 19 23  1  0  0  0
  6  8  1  0  0  0
  7  9  1  0  0  0
 38 43  1  0  0  0
M  END
> <minimizedAffinity>
-8.37001

$$$$
5IPC_6CE_A_201


 43 47  0  0  0  0  0  0  0  0999 V2000
  -34.0996    9.1944  -25.2389 C   0  0  0  0  0  0  0  0  0  0  0  0
  -32.4509    7.4879  -24.7933 C   0  0  0  0  0  0  0  0  0  0  0  0
  -32.8346    8.5567  -25.8141 C   0  0  0  0  0  0  0  0  0  0  0  0
  -34.4173    8.2768  -24.0702 C   0  0  0  0  0  0  0  0  0  0  0  0
  -33.1609    7.8263  -23.6072 O   0  0  0  0  0  0  0  0  0  0  0  0
  -33.0261    7.9333  -27.0974 O   0  0  0  0  0  0  0  0  0  0  0  0
  -35.2087    9.2753  -26.1423 O   0  0  0  0  0  0  0  0  0  0  0  0
  -33.6953    7.2353  -27.0211 H   0  0  0  0  0  0  0  0  0  0  0  0
  -35.4484    8.3840  -26.4407 H   0  0  0  0  0  0  0  0  0  0  0  0
  -35.1228    8.9789  -22.9941 N   0  0  0  0  0  0  0  0  0  0  0  0
  -34.8175   10.1841  -22.4813 C   0  0  0  0  0  0  0  0  0  0  0  0
  -35.7016   10.5055  -21.5057 N   0  0  0  0  0  0  0  0  0  0  0  0
  -36.5683    9.4752  -21.3940 C   0  0  0  0  0  0  0  0  0  0  0  0
  -36.1713    8.4695  -22.3766 C   0  0  0  0  0  0  0  0  0  0  0  0
  -36.8514    7.3089  -22.5151 N   0  0  0  0  0  0  0  0  0  0  0  0
  -37.9109    7.0971  -21.7038 C   0  0  0  0  0  0  0  0  0  0  0  0
  -38.3484    7.9756  -20.7764 N   0  0  0  0  0  0  0  0  0  0  0  0
  -37.7406    9.1485  -20.5625 C   0  0  0  0  0  0  0  0  0  0  0  0
  -38.6337    5.8347  -21.8534 N   0  0  0  0  0  0  0  0  0  0  0  0
  -38.1801    9.9505  -19.6988 O   0  0  0  0  0  0  0  0  0  0  0  0
  -36.5831    6.6397  -23.1855 H   0  0  0  0  0  0  0  0  0  0  0  0
  -39.4114    5.6419  -21.2813 H   0  0  0  0  0  0  0  0  0  0  0  0
  -38.3426    5.1775  -22.5262 H   0  0  0  0  0  0  0  0  0  0  0  0
  -30.9599    7.3680  -24.4782 C   0  0  0  0  0  0  0  0  0  0  0  0
  -29.9092    7.6123  -25.8732 S   0  0  0  0  0  0  0  0  0  0  0  0
  -30.0134    5.8190  -26.9025 P   0  0  0  0  0  0  0  0  0  0  0  0
  -30.9628    4.8608  -26.2188 O   0  0  0  0  0  0  0  0  0  0  0  0
  -28.5896    5.3517  -27.0776 O   0  0  0  0  0  0  0  0  0  0  0  0
  -30.6200    4.6385  -25.3390 H   0  0  0  0  0  0  0  0  0  0  0  0
  -30.6297    6.2137  -28.4742 N   0  0  0  0  0  0  0  0  0  0  0  0
  -30.9211    7.1902  -28.4307 H   0  0  0  0  0  0  0  0  0  0  0  0
  -29.8142    6.0837  -29.6717 C   0  0  0  0  0  0  0  0  0  0  0  0
  -30.0179    4.7488  -30.3864 C   0  0  0  0  0  0  0  0  0  0  0  0
  -28.6629    4.8240  -32.7251 C   0  0  0  0  0  0  0  0  0  0  0  0
  -29.8893    4.8560  -31.8929 C   0  0  0  0  0  0  0  0  0  0  0  0
  -30.9303    4.9706  -32.8136 C   0  0  0  0  0  0  0  0  0  0  0  0
  -29.1174    4.9457  -34.1242 C   0  0  0  0  0  0  0  0  0  0  0  0
  -30.4585    5.0282  -34.0945 N   0  0  0  0  0  0  0  0  0  0  0  0
  -27.3174    4.7218  -32.4159 C   0  0  0  0  0  0  0  0  0  0  0  0
  -26.4042    4.7281  -33.4682 C   0  0  0  0  0  0  0  0  0  0  0  0
  -26.8171    4.8442  -34.7966 C   0  0  0  0  0  0  0  0  0  0  0  0
  -28.1646    4.9515  -35.1358 C   0  0  0  0  0  0  0  0  0  0  0  0
  -31.0276    5.1186  -34.8928 H   0  0  0  0  0  0  0  0  0  0  0  0
 20 18  2  0  0  0
 17 18  1  0  0  0
 17 16  2  0  0  0
 18 13  1  0  0  0
 19 16  1  0  0  0
 16 15  1  0  0  0
 13 12  1  0  0  0
 13 14  2  0  0  0
 12 11  2  0  0  0
 15 14  1  0  0  0
 14 10  1  0  0  0
 11 10  1  0  0  0
 10  4  1  0  0  0
  4  1  1  0  0  0
  4  5  1  0  0  0
  7  1  1  0  0  0
  1  3  1  0  0  0
  5  2  1  0  0  0
  3  2  1  0  0  0
  3  6  1  0  0  0
  2 24  1  0  0  0
 25 24  1  0  0  0
 25 26  1  0  0  0
 36 38  1  0  0  0
 36 35  2  0  0  0
 33 35  1  0  0  0
 33 32  1  0  0  0
 26 28  2  0  0  0
 26 30  1  0  0  0
 26 27  1  0  0  0
 38 37  1  0  0  0
 35 34  1  0  0  0
 30 32  1  0  0  0
 37 34  2  0  0  0
 37 42  1  0  0  0
 34 39  1  0  0  0
 42 41  2  0  0  0
 39 40  2  0  0  0
 41 40  1  0  0  0
 30 31  1  0  0  0
 27 29  1  0  0  0
 15 21  1  0  0  0
 19 22  1  0  0  0
 19 23  1  0  0  0
  6  8  1  0  0  0
  7  9  1  0  0  0
 38 43  1  0  0  0
M  END
> <minimizedAffinity>
-8.10114

$$$$
5IPC_6CE_A_201


 43 47  0  0  0  0  0  0  0  0999 V2000
  -31.2813   10.0867  -27.3898 C   0  0  0  0  0  0  0  0  0  0  0  0
  -33.6199    9.7308  -27.8731 C   0  0  0  0  0  0  0  0  0  0  0  0
  -32.5363   10.8066  -27.8840 C   0  0  0  0  0  0  0  0  0  0  0  0
  -31.8367    8.7433  -26.9474 C   0  0  0  0  0  0  0  0  0  0  0  0
  -32.9215    8.4921  -27.8169 O   0  0  0  0  0  0  0  0  0  0  0  0
  -32.9516   11.8999  -27.0447 O   0  0  0  0  0  0  0  0  0  0  0  0
  -30.5888   10.7332  -26.3150 O   0  0  0  0  0  0  0  0  0  0  0  0
  -33.1380   11.5695  -26.1520 H   0  0  0  0  0  0  0  0  0  0  0  0
  -31.1843   10.8237  -25.5547 H   0  0  0  0  0  0  0  0  0  0  0  0
  -30.8444    7.6707  -27.0654 N   0  0  0  0  0  0  0  0  0  0  0  0
  -29.8578    7.5810  -27.9749 C   0  0  0  0  0  0  0  0  0  0  0  0
  -29.1390    6.4519  -27.7628 N   0  0  0  0  0  0  0  0  0  0  0  0
  -29.6952    5.8137  -26.7099 C   0  0  0  0  0  0  0  0  0  0  0  0
  -30.8255    6.6241  -26.2627 C   0  0  0  0  0  0  0  0  0  0  0  0
  -31.5923    6.2506  -25.2133 N   0  0  0  0  0  0  0  0  0  0  0  0
  -31.2894    5.0901  -24.5913 C   0  0  0  0  0  0  0  0  0  0  0  0
  -30.2597    4.2871  -24.9351 N   0  0  0  0  0  0  0  0  0  0  0  0
  -29.4470    4.5691  -25.9603 C   0  0  0  0  0  0  0  0  0  0  0  0
  -32.1306    4.6889  -23.4643 N   0  0  0  0  0  0  0  0  0  0  0  0
  -28.4890    3.8063  -26.2479 O   0  0  0  0  0  0  0  0  0  0  0  0
  -32.3470    6.8065  -24.9122 H   0  0  0  0  0  0  0  0  0  0  0  0
  -31.9432    3.8500  -22.9843 H   0  0  0  0  0  0  0  0  0  0  0  0
  -32.8843    5.2577  -23.1856 H   0  0  0  0  0  0  0  0  0  0  0  0
  -34.5705    9.7262  -29.0703 C   0  0  0  0  0  0  0  0  0  0  0  0
  -34.7676    8.1445  -29.8245 S   0  0  0  0  0  0  0  0  0  0  0  0
  -33.3124    8.1035  -31.2966 P   0  0  0  0  0  0  0  0  0  0  0  0
  -31.9410    7.9019  -30.6918 O   0  0  0  0  0  0  0  0  0  0  0  0
  -33.5123    9.3519  -32.1200 O   0  0  0  0  0  0  0  0  0  0  0  0
  -31.7218    8.6599  -30.1276 H   0  0  0  0  0  0  0  0  0  0  0  0
  -33.7003    6.7468  -32.3040 N   0  0  0  0  0  0  0  0  0  0  0  0
  -34.3925    7.0777  -32.9761 H   0  0  0  0  0  0  0  0  0  0  0  0
  -32.6830    6.0494  -33.0750 C   0  0  0  0  0  0  0  0  0  0  0  0
  -32.2909    4.7060  -32.4622 C   0  0  0  0  0  0  0  0  0  0  0  0
  -29.5903    4.7866  -32.5699 C   0  0  0  0  0  0  0  0  0  0  0  0
  -30.8952    4.7076  -31.8708 C   0  0  0  0  0  0  0  0  0  0  0  0
  -30.5620    4.6724  -30.5172 C   0  0  0  0  0  0  0  0  0  0  0  0
  -28.5608    4.7726  -31.5122 C   0  0  0  0  0  0  0  0  0  0  0  0
  -29.2081    4.7032  -30.3364 N   0  0  0  0  0  0  0  0  0  0  0  0
  -29.2410    4.8508  -33.9079 C   0  0  0  0  0  0  0  0  0  0  0  0
  -27.8859    4.9111  -34.2259 C   0  0  0  0  0  0  0  0  0  0  0  0
  -26.8997    4.8970  -33.2381 C   0  0  0  0  0  0  0  0  0  0  0  0
  -27.2230    4.8300  -31.8842 C   0  0  0  0  0  0  0  0  0  0  0  0
  -28.7640    4.6779  -29.4581 H   0  0  0  0  0  0  0  0  0  0  0  0
 20 18  2  0  0  0
 17 18  1  0  0  0
 17 16  2  0  0  0
 18 13  1  0  0  0
 19 16  1  0  0  0
 16 15  1  0  0  0
 13 12  1  0  0  0
 13 14  2  0  0  0
 12 11  2  0  0  0
 15 14  1  0  0  0
 14 10  1  0  0  0
 11 10  1  0  0  0
 10  4  1  0  0  0
  4  1  1  0  0  0
  4  5  1  0  0  0
  7  1  1  0  0  0
  1  3  1  0  0  0
  5  2  1  0  0  0
  3  2  1  0  0  0
  3  6  1  0  0  0
  2 24  1  0  0  0
 25 24  1  0  0  0
 25 26  1  0  0  0
 36 38  1  0  0  0
 36 35  2  0  0  0
 33 35  1  0  0  0
 33 32  1  0  0  0
 26 28  2  0  0  0
 26 30  1  0  0  0
 26 27  1  0  0  0
 38 37  1  0  0  0
 35 34  1  0  0  0
 30 32  1  0  0  0
 37 34  2  0  0  0
 37 42  1  0  0  0
 34 39  1  0  0  0
 42 41  2  0  0  0
 39 40  2  0  0  0
 41 40  1  0  0  0
 30 31  1  0  0  0
 27 29  1  0  0  0
 15 21  1  0  0  0
 19 22  1  0  0  0
 19 23  1  0  0  0
  6  8  1  0  0  0
  7  9  1  0  0  0
 38 43  1  0  0  0
M  END
> <minimizedAffinity>
-8.08392

$$$$
