5OTR_AU8_A_403
  RCSB PDB02231823433D
Coordinates from PDB:5OTR:A:403 Model:1 without hydrogens
 16 17  0  0  0  0            999 V2000
 -113.0850 -175.1970  308.1530   C 0  0  0  0  0  0  0  0  0  0  0  0
 -110.7770 -174.5120  308.2090   C 0  0  0  0  0  0  0  0  0  0  0  0
 -110.3500 -175.7710  308.6420   C 0  0  0  0  0  0  0  0  0  0  0  0
 -111.3490 -176.7280  308.7960   C 0  0  0  0  0  0  0  0  0  0  0  0
 -112.6800 -176.4680  308.5380   C 0  0  0  0  0  0  0  0  0  0  0  0
 -108.4480 -176.0310  310.2690   C 0  0  0  0  0  0  0  0  0  0  0  0
 -107.1470 -176.4080  310.5720   C 0  0  0  0  0  0  0  0  0  0  0  0
 -106.2880 -176.8230  309.5660   C 0  0  0  0  0  0  0  0  0  0  0  0
 -106.7320 -176.8500  308.2520   C 0  0  0  0  0  0  0  0  0  0  0  0
 -108.0320 -176.4750  307.9460   C 0  0  0  0  0  0  0  0  0  0  0  0
 -110.9260 -178.3000  309.3730  Cl 0  0  0  0  0  0  0  0  0  0  0  0
 -114.5570 -174.8910  307.9970   C 0  0  0  0  0  0  0  0  0  0  0  0
 -115.2450 -175.7440  307.0270   N 0  3  0  0  0  0  0  0  0  0  0  0
 -109.6240 -173.2380  307.9900  Cl 0  0  0  0  0  0  0  0  0  0  0  0
 -112.1100 -174.2240  307.9720   C 0  0  0  0  0  0  0  0  0  0  0  0
 -108.9180 -176.0740  308.9520   C 0  0  0  0  0  0  0  0  0  0  0  0
 13 12  1  0  0  0  0
 10  9  2  0  0  0  0
 10 16  1  0  0  0  0
 15  1  2  0  0  0  0
 15  2  1  0  0  0  0
 14  2  1  0  0  0  0
 12  1  1  0  0  0  0
  1  5  1  0  0  0  0
  2  3  2  0  0  0  0
  9  8  1  0  0  0  0
  5  4  2  0  0  0  0
  3  4  1  0  0  0  0
  3 16  1  0  0  0  0
  4 11  1  0  0  0  0
 16  6  2  0  0  0  0
  8  7  2  0  0  0  0
  6  7  1  0  0  0  0
M  CHG  1  13   1
A    1
C1
A    2
C3
A    3
C4
A    4
C5
A    5
C6
A    6
C8
A    7
C9
A    8
C10
A    9
C11
A   10
C12
A   11
CL1
A   12
C
A   13
N
A   14
CL
A   15
C2
A   16
C7
M  END
>  <InstanceId>
5OTR_AU8_A_403

>  <ChemCompId>
AU8

>  <PdbId>
5OTR

>  <ChainId>
A

>  <ResidueNumber>
403

>  <InsertionCode>


>  <Model>
1

>  <AltIds>


>  <MissingHeavyAtoms>
0

>  <ObservedFormula>
C13 N Cl2

>  <Name>
[3,5-bis(chloranyl)-4-phenyl-phenyl]methylazanium

>  <SystematicName>
[3,5-bis(chloranyl)-4-phenyl-phenyl]methylazanium

>  <Synonyms>


>  <Type>
NON-POLYMER

>  <Formula>
C13 H12 Cl2 N

>  <MolecularWeight>
253.147

>  <ModifiedDate>
2018-02-23

>  <Parent>


>  <OneLetterCode>


>  <SubcomponentList>


>  <AmbiguousFlag>
N

>  <InChI>
InChI=1S/C13H11Cl2N/c14-11-6-9(8-16)7-12(15)13(11)10-4-2-1-3-5-10/h1-7H,8,16H2/p+1

>  <InChIKey>
CVRVMSHFNIYTSS-UHFFFAOYSA-O

>  <SMILES>
c1ccc(cc1)c2c(cc(cc2Cl)C[NH3+])Cl

$$$$
