4AOI_4K0_A_2345


 28 32  0  0  0  0  0  0  0  0999 V2000
   18.4614   82.0050    5.0077 C   0  0  0  0  0  0  0  0  0  0  0  0
   18.9332   83.2071    5.4496 N   0  0  0  0  0  0  0  0  0  0  0  0
   18.7656   83.4654    6.7145 N   0  0  0  0  0  0  0  0  0  0  0  0
   18.1539   82.6195    7.6194 C   0  0  0  0  0  0  0  0  0  0  0  0
   17.6552   81.4077    7.2725 N   0  0  0  0  0  0  0  0  0  0  0  0
   17.8182   81.1047    5.9402 C   0  0  0  0  0  0  0  0  0  0  0  0
   19.1162   84.5604    7.4632 C   0  0  0  0  0  0  0  0  0  0  0  0
   18.7374   84.3525    8.6851 N   0  0  0  0  0  0  0  0  0  0  0  0
   18.1590   83.1866    8.7782 N   0  0  0  0  0  0  0  0  0  0  0  0
   19.0603   81.0936    0.7444 C   0  0  0  0  0  0  0  0  0  0  0  0
   19.6360   82.2573    1.3387 C   0  0  0  0  0  0  0  0  0  0  0  0
   18.2710   80.2149    1.5567 C   0  0  0  0  0  0  0  0  0  0  0  0
   18.0644   80.4971    2.9465 C   0  0  0  0  0  0  0  0  0  0  0  0
   18.6428   81.6696    3.5548 C   0  0  0  0  0  0  0  0  0  0  0  0
   19.4309   82.5433    2.7245 C   0  0  0  0  0  0  0  0  0  0  0  0
   19.4426   80.5790   -1.7329 N   0  0  0  0  0  0  0  0  0  0  0  0
   19.2699   80.8183   -0.6114 C   0  0  0  0  0  0  0  0  0  0  0  0
   19.8257   85.8179    6.9735 C   0  0  0  0  0  0  0  0  0  0  0  0
   21.3397   85.6302    6.9465 C   0  0  0  0  0  0  0  0  0  0  0  0
   22.1992   85.6804    8.0384 C   0  0  0  0  0  0  0  0  0  0  0  0
   22.1663   85.3727    5.8070 C   0  0  0  0  0  0  0  0  0  0  0  0
   21.8715   85.2128    4.4169 C   0  0  0  0  0  0  0  0  0  0  0  0
   22.9814   84.9579    3.5359 C   0  0  0  0  0  0  0  0  0  0  0  0
   23.4836   85.2762    6.2447 C   0  0  0  0  0  0  0  0  0  0  0  0
   23.4983   85.4641    7.6013 N   0  0  0  0  0  0  0  0  0  0  0  0
   24.5605   85.0378    5.4401 N   0  0  0  0  0  0  0  0  0  0  0  0
   24.3004   84.8805    4.0942 C   0  0  0  0  0  0  0  0  0  0  0  0
   24.2997   85.4483    8.1730 H   0  0  0  0  0  0  0  0  0  0  0  0
 16 17  3  0  0  0
 17 10  1  0  0  0
 10 11  1  0  0  0
 10 12  2  0  0  0
 11 15  2  0  0  0
 12 13  1  0  0  0
 13 14  2  0  0  0
 14 15  1  0  0  0
 14  1  1  0  0  0
  1  2  2  0  0  0
  1  6  1  0  0  0
  2  3  1  0  0  0
  3  4  1  0  0  0
  3  7  1  0  0  0
  4  5  1  0  0  0
  4  9  2  0  0  0
  5  6  2  0  0  0
  7  8  2  0  0  0
  7 18  1  0  0  0
  8  9  1  0  0  0
 18 19  1  0  0  0
 19 20  2  0  0  0
 19 21  1  0  0  0
 20 25  1  0  0  0
 21 22  1  0  0  0
 21 24  2  0  0  0
 22 23  2  0  0  0
 23 27  1  0  0  0
 24 25  1  0  0  0
 24 26  1  0  0  0
 26 27  2  0  0  0
 25 28  1  0  0  0
M  END
> <minimizedAffinity>
-11.69949

$$$$
4AOI_4K0_A_2345


 28 32  0  0  0  0  0  0  0  0999 V2000
   18.7780   82.2218    3.6896 C   0  0  0  0  0  0  0  0  0  0  0  0
   19.1483   83.3260    4.4014 N   0  0  0  0  0  0  0  0  0  0  0  0
   18.8882   83.3069    5.6768 N   0  0  0  0  0  0  0  0  0  0  0  0
   18.2743   82.2635    6.3425 C   0  0  0  0  0  0  0  0  0  0  0  0
   17.8719   81.1288    5.7195 N   0  0  0  0  0  0  0  0  0  0  0  0
   18.1344   81.1181    4.3687 C   0  0  0  0  0  0  0  0  0  0  0  0
   19.1253   84.2368    6.6573 C   0  0  0  0  0  0  0  0  0  0  0  0
   18.6855   83.7614    7.7799 N   0  0  0  0  0  0  0  0  0  0  0  0
   18.1739   82.5761    7.5901 N   0  0  0  0  0  0  0  0  0  0  0  0
   19.5386   82.2108   -0.6448 C   0  0  0  0  0  0  0  0  0  0  0  0
   18.2344   82.4702   -0.1246 C   0  0  0  0  0  0  0  0  0  0  0  0
   20.6121   81.9456    0.2676 C   0  0  0  0  0  0  0  0  0  0  0  0
   20.3819   81.9438    1.6821 C   0  0  0  0  0  0  0  0  0  0  0  0
   19.0682   82.2055    2.2159 C   0  0  0  0  0  0  0  0  0  0  0  0
   18.0003   82.4676    1.2859 C   0  0  0  0  0  0  0  0  0  0  0  0
   19.9488   82.2173   -3.1706 N   0  0  0  0  0  0  0  0  0  0  0  0
   19.7603   82.2200   -2.0263 C   0  0  0  0  0  0  0  0  0  0  0  0
   19.7863   85.6003    6.4884 C   0  0  0  0  0  0  0  0  0  0  0  0
   21.3039   85.5046    6.6138 C   0  0  0  0  0  0  0  0  0  0  0  0
   22.0456   85.6110    7.7851 C   0  0  0  0  0  0  0  0  0  0  0  0
   22.2540   85.2931    5.5647 C   0  0  0  0  0  0  0  0  0  0  0  0
   22.1095   85.1101    4.1538 C   0  0  0  0  0  0  0  0  0  0  0  0
   23.3150   84.9196    3.3901 C   0  0  0  0  0  0  0  0  0  0  0  0
   23.5244   85.2783    6.1320 C   0  0  0  0  0  0  0  0  0  0  0  0
   23.3925   85.4721    7.4814 N   0  0  0  0  0  0  0  0  0  0  0  0
   24.6886   85.1024    5.4408 N   0  0  0  0  0  0  0  0  0  0  0  0
   24.5740   84.9244    4.0774 C   0  0  0  0  0  0  0  0  0  0  0  0
   24.1323   85.5071    8.1300 H   0  0  0  0  0  0  0  0  0  0  0  0
 16 17  3  0  0  0
 17 10  1  0  0  0
 10 11  1  0  0  0
 10 12  2  0  0  0
 11 15  2  0  0  0
 12 13  1  0  0  0
 13 14  2  0  0  0
 14 15  1  0  0  0
 14  1  1  0  0  0
  1  2  2  0  0  0
  1  6  1  0  0  0
  2  3  1  0  0  0
  3  4  1  0  0  0
  3  7  1  0  0  0
  4  5  1  0  0  0
  4  9  2  0  0  0
  5  6  2  0  0  0
  7  8  2  0  0  0
  7 18  1  0  0  0
  8  9  1  0  0  0
 18 19  1  0  0  0
 19 20  2  0  0  0
 19 21  1  0  0  0
 20 25  1  0  0  0
 21 22  1  0  0  0
 21 24  2  0  0  0
 22 23  2  0  0  0
 23 27  1  0  0  0
 24 25  1  0  0  0
 24 26  1  0  0  0
 26 27  2  0  0  0
 25 28  1  0  0  0
M  END
> <minimizedAffinity>
-10.48640

$$$$
4AOI_4K0_A_2345


 28 32  0  0  0  0  0  0  0  0999 V2000
   24.1093   84.6108    3.2676 C   0  0  0  0  0  0  0  0  0  0  0  0
   22.7491   84.6741    3.3609 N   0  0  0  0  0  0  0  0  0  0  0  0
   22.2621   84.9737    4.5305 N   0  0  0  0  0  0  0  0  0  0  0  0
   23.0170   85.2262    5.6596 C   0  0  0  0  0  0  0  0  0  0  0  0
   24.3720   85.1861    5.6627 N   0  0  0  0  0  0  0  0  0  0  0  0
   24.9176   84.8727    4.4388 C   0  0  0  0  0  0  0  0  0  0  0  0
   20.9654   85.1162    4.9554 C   0  0  0  0  0  0  0  0  0  0  0  0
   20.9842   85.4237    6.2143 N   0  0  0  0  0  0  0  0  0  0  0  0
   22.2170   85.4891    6.6369 N   0  0  0  0  0  0  0  0  0  0  0  0
   25.9388   83.6809   -0.6251 C   0  0  0  0  0  0  0  0  0  0  0  0
   26.4758   84.7001    0.2186 C   0  0  0  0  0  0  0  0  0  0  0  0
   24.7807   82.9562   -0.1909 C   0  0  0  0  0  0  0  0  0  0  0  0
   24.1712   83.2469    1.0732 C   0  0  0  0  0  0  0  0  0  0  0  0
   24.7074   84.2740    1.9316 C   0  0  0  0  0  0  0  0  0  0  0  0
   25.8697   84.9944    1.4796 C   0  0  0  0  0  0  0  0  0  0  0  0
   27.0455   83.1508   -2.8706 N   0  0  0  0  0  0  0  0  0  0  0  0
   26.5409   83.3957   -1.8556 C   0  0  0  0  0  0  0  0  0  0  0  0
   19.7019   84.9475    4.1190 C   0  0  0  0  0  0  0  0  0  0  0  0
   19.1670   83.5207    4.1970 C   0  0  0  0  0  0  0  0  0  0  0  0
   19.0333   82.6282    3.1391 C   0  0  0  0  0  0  0  0  0  0  0  0
   18.6986   82.8272    5.3579 C   0  0  0  0  0  0  0  0  0  0  0  0
   18.5876   83.2093    6.7315 C   0  0  0  0  0  0  0  0  0  0  0  0
   18.0593   82.2294    7.6445 C   0  0  0  0  0  0  0  0  0  0  0  0
   18.3028   81.5520    4.9663 C   0  0  0  0  0  0  0  0  0  0  0  0
   18.5080   81.4361    3.6171 N   0  0  0  0  0  0  0  0  0  0  0  0
   17.7964   80.5982    5.8017 N   0  0  0  0  0  0  0  0  0  0  0  0
   17.6795   80.9446    7.1321 C   0  0  0  0  0  0  0  0  0  0  0  0
   18.3143   80.6375    3.0749 H   0  0  0  0  0  0  0  0  0  0  0  0
 16 17  3  0  0  0
 17 10  1  0  0  0
 10 11  1  0  0  0
 10 12  2  0  0  0
 11 15  2  0  0  0
 12 13  1  0  0  0
 13 14  2  0  0  0
 14 15  1  0  0  0
 14  1  1  0  0  0
  1  2  2  0  0  0
  1  6  1  0  0  0
  2  3  1  0  0  0
  3  4  1  0  0  0
  3  7  1  0  0  0
  4  5  1  0  0  0
  4  9  2  0  0  0
  5  6  2  0  0  0
  7  8  2  0  0  0
  7 18  1  0  0  0
  8  9  1  0  0  0
 18 19  1  0  0  0
 19 20  2  0  0  0
 19 21  1  0  0  0
 20 25  1  0  0  0
 21 22  1  0  0  0
 21 24  2  0  0  0
 22 23  2  0  0  0
 23 27  1  0  0  0
 24 25  1  0  0  0
 24 26  1  0  0  0
 26 27  2  0  0  0
 25 28  1  0  0  0
M  END
> <minimizedAffinity>
-9.47491

$$$$
4AOI_4K0_A_2345


 28 32  0  0  0  0  0  0  0  0999 V2000
   23.6123   84.6834    4.2047 C   0  0  0  0  0  0  0  0  0  0  0  0
   22.2763   84.8076    4.4550 N   0  0  0  0  0  0  0  0  0  0  0  0
   21.9438   85.1601    5.6633 N   0  0  0  0  0  0  0  0  0  0  0  0
   22.8367   85.4110    6.6871 C   0  0  0  0  0  0  0  0  0  0  0  0
   24.1798   85.3129    6.5324 N   0  0  0  0  0  0  0  0  0  0  0  0
   24.5635   84.9426    5.2638 C   0  0  0  0  0  0  0  0  0  0  0  0
   20.7132   85.3699    6.2327 C   0  0  0  0  0  0  0  0  0  0  0  0
   20.8934   85.7109    7.4700 N   0  0  0  0  0  0  0  0  0  0  0  0
   22.1692   85.7350    7.7426 N   0  0  0  0  0  0  0  0  0  0  0  0
   24.7656   83.4609    0.1377 C   0  0  0  0  0  0  0  0  0  0  0  0
   23.6653   82.8468    0.8093 C   0  0  0  0  0  0  0  0  0  0  0  0
   25.5050   84.4893    0.8092 C   0  0  0  0  0  0  0  0  0  0  0  0
   25.1441   84.8988    2.1343 C   0  0  0  0  0  0  0  0  0  0  0  0
   24.0339   84.2844    2.8194 C   0  0  0  0  0  0  0  0  0  0  0  0
   23.3031   83.2513    2.1320 C   0  0  0  0  0  0  0  0  0  0  0  0
   25.3855   82.7340   -2.2362 N   0  0  0  0  0  0  0  0  0  0  0  0
   25.1105   83.0627   -1.1585 C   0  0  0  0  0  0  0  0  0  0  0  0
   19.3537   85.2325    5.5564 C   0  0  0  0  0  0  0  0  0  0  0  0
   18.9840   83.7684    5.3382 C   0  0  0  0  0  0  0  0  0  0  0  0
   18.5273   82.8776    6.3033 C   0  0  0  0  0  0  0  0  0  0  0  0
   19.0366   83.0288    4.1141 C   0  0  0  0  0  0  0  0  0  0  0  0
   19.4206   83.3888    2.7844 C   0  0  0  0  0  0  0  0  0  0  0  0
   19.3457   82.3611    1.7790 C   0  0  0  0  0  0  0  0  0  0  0  0
   18.6135   81.7299    4.3782 C   0  0  0  0  0  0  0  0  0  0  0  0
   18.3053   81.6430    5.7099 N   0  0  0  0  0  0  0  0  0  0  0  0
   18.5313   80.7297    3.4526 N   0  0  0  0  0  0  0  0  0  0  0  0
   18.8973   81.0535    2.1623 C   0  0  0  0  0  0  0  0  0  0  0  0
   17.9796   80.8364    6.1709 H   0  0  0  0  0  0  0  0  0  0  0  0
 16 17  3  0  0  0
 17 10  1  0  0  0
 10 11  1  0  0  0
 10 12  2  0  0  0
 11 15  2  0  0  0
 12 13  1  0  0  0
 13 14  2  0  0  0
 14 15  1  0  0  0
 14  1  1  0  0  0
  1  2  2  0  0  0
  1  6  1  0  0  0
  2  3  1  0  0  0
  3  4  1  0  0  0
  3  7  1  0  0  0
  4  5  1  0  0  0
  4  9  2  0  0  0
  5  6  2  0  0  0
  7  8  2  0  0  0
  7 18  1  0  0  0
  8  9  1  0  0  0
 18 19  1  0  0  0
 19 20  2  0  0  0
 19 21  1  0  0  0
 20 25  1  0  0  0
 21 22  1  0  0  0
 21 24  2  0  0  0
 22 23  2  0  0  0
 23 27  1  0  0  0
 24 25  1  0  0  0
 24 26  1  0  0  0
 26 27  2  0  0  0
 25 28  1  0  0  0
M  END
> <minimizedAffinity>
-9.39910

$$$$
4AOI_4K0_A_2345


 28 32  0  0  0  0  0  0  0  0999 V2000
   21.0690   82.5971    2.1563 C   0  0  0  0  0  0  0  0  0  0  0  0
   20.5506   83.4311    3.1043 N   0  0  0  0  0  0  0  0  0  0  0  0
   21.4019   84.1767    3.7478 N   0  0  0  0  0  0  0  0  0  0  0  0
   22.7674   84.1783    3.5379 C   0  0  0  0  0  0  0  0  0  0  0  0
   23.3714   83.3850    2.6196 N   0  0  0  0  0  0  0  0  0  0  0  0
   22.4967   82.5846    1.9210 C   0  0  0  0  0  0  0  0  0  0  0  0
   21.2143   85.1041    4.7413 C   0  0  0  0  0  0  0  0  0  0  0  0
   22.3718   85.5893    5.0649 N   0  0  0  0  0  0  0  0  0  0  0  0
   23.3044   85.0325    4.3420 N   0  0  0  0  0  0  0  0  0  0  0  0
   18.2218   80.0357   -0.0109 C   0  0  0  0  0  0  0  0  0  0  0  0
   18.1524   80.1810    1.4078 C   0  0  0  0  0  0  0  0  0  0  0  0
   19.2427   80.7361   -0.7335 C   0  0  0  0  0  0  0  0  0  0  0  0
   20.1791   81.5734   -0.0436 C   0  0  0  0  0  0  0  0  0  0  0  0
   20.1157   81.7262    1.3889 C   0  0  0  0  0  0  0  0  0  0  0  0
   19.0858   81.0140    2.1001 C   0  0  0  0  0  0  0  0  0  0  0  0
   16.5438   78.5391   -1.2328 N   0  0  0  0  0  0  0  0  0  0  0  0
   17.3014   79.2224   -0.6813 C   0  0  0  0  0  0  0  0  0  0  0  0
   19.8901   85.5136    5.3763 C   0  0  0  0  0  0  0  0  0  0  0  0
   19.5064   84.5789    6.5196 C   0  0  0  0  0  0  0  0  0  0  0  0
   19.6949   84.8119    7.8775 C   0  0  0  0  0  0  0  0  0  0  0  0
   18.8882   83.2918    6.4237 C   0  0  0  0  0  0  0  0  0  0  0  0
   18.4518   82.5111    5.3078 C   0  0  0  0  0  0  0  0  0  0  0  0
   17.8590   81.2309    5.5945 C   0  0  0  0  0  0  0  0  0  0  0  0
   18.7250   82.7962    7.7136 C   0  0  0  0  0  0  0  0  0  0  0  0
   19.2169   83.7235    8.5934 N   0  0  0  0  0  0  0  0  0  0  0  0
   18.1699   81.5881    8.0238 N   0  0  0  0  0  0  0  0  0  0  0  0
   17.7418   80.8168    6.9629 C   0  0  0  0  0  0  0  0  0  0  0  0
   19.2294   83.6327    9.5736 H   0  0  0  0  0  0  0  0  0  0  0  0
 16 17  3  0  0  0
 17 10  1  0  0  0
 10 11  1  0  0  0
 10 12  2  0  0  0
 11 15  2  0  0  0
 12 13  1  0  0  0
 13 14  2  0  0  0
 14 15  1  0  0  0
 14  1  1  0  0  0
  1  2  2  0  0  0
  1  6  1  0  0  0
  2  3  1  0  0  0
  3  4  1  0  0  0
  3  7  1  0  0  0
  4  5  1  0  0  0
  4  9  2  0  0  0
  5  6  2  0  0  0
  7  8  2  0  0  0
  7 18  1  0  0  0
  8  9  1  0  0  0
 18 19  1  0  0  0
 19 20  2  0  0  0
 19 21  1  0  0  0
 20 25  1  0  0  0
 21 22  1  0  0  0
 21 24  2  0  0  0
 22 23  2  0  0  0
 23 27  1  0  0  0
 24 25  1  0  0  0
 24 26  1  0  0  0
 26 27  2  0  0  0
 25 28  1  0  0  0
M  END
> <minimizedAffinity>
-9.08864

$$$$
