4NYF_4BI_A_301


 28 30  0  0  0  0  0  0  0  0999 V2000
   18.7538   64.4552    8.2733 N   0  0  0  0  0  0  0  0  0  0  0  0
   18.6757   64.7588    9.5896 C   0  0  0  0  0  0  0  0  0  0  0  0
   19.7375   64.4612   10.5229 C   0  0  0  0  0  0  0  0  0  0  0  0
   20.9344   63.7926    9.9797 C   0  0  0  0  0  0  0  0  0  0  0  0
   21.0125   63.4669    8.5419 C   0  0  0  0  0  0  0  0  0  0  0  0
   19.8660   63.8300    7.7445 C   0  0  0  0  0  0  0  0  0  0  0  0
   19.5284   64.8422   11.9133 C   0  0  0  0  0  0  0  0  0  0  0  0
   18.3374   65.4857   12.3463 C   0  0  0  0  0  0  0  0  0  0  0  0
   17.3184   65.7677   11.4109 C   0  0  0  0  0  0  0  0  0  0  0  0
   17.4964   65.4023   10.0458 C   0  0  0  0  0  0  0  0  0  0  0  0
   19.7285   63.5947    6.2594 C   0  0  0  0  0  0  0  0  0  0  0  0
   22.0760   63.4555   10.8972 C   0  0  0  0  0  0  0  0  0  0  0  0
   23.1461   64.3944   11.1183 C   0  0  0  0  0  0  0  0  0  0  0  0
   24.2281   64.0711   11.9840 C   0  0  0  0  0  0  0  0  0  0  0  0
   24.2542   62.8102   12.6373 C   0  0  0  0  0  0  0  0  0  0  0  0
   23.2120   61.8670   12.4387 C   0  0  0  0  0  0  0  0  0  0  0  0
   22.1278   62.1856   11.5738 C   0  0  0  0  0  0  0  0  0  0  0  0
   25.5587   62.4218   13.6796 Cl  0  0  0  0  0  0  0  0  0  0  0  0
   22.2854   62.7599    7.9607 C   0  0  0  0  0  0  0  0  0  0  0  0
   22.0306   61.2629    7.5873 C   0  0  0  0  0  0  0  0  0  0  0  0
   22.6002   60.8125    6.5487 O   0  0  0  0  0  0  0  0  0  0  0  0
   21.2594   60.6379    8.3766 O   0  0  0  0  0  0  0  0  0  0  0  0
   23.1530   61.3708    6.0381 H   0  0  0  0  0  0  0  0  0  0  0  0
   22.8982   63.4641    6.8225 O   0  0  0  0  0  0  0  0  0  0  0  0
   23.7042   64.6735    6.9928 C   0  0  0  0  0  0  0  0  0  0  0  0
   22.8653   65.8843    7.4052 C   0  0  0  0  0  0  0  0  0  0  0  0
   24.8631   64.4853    8.0002 C   0  0  0  0  0  0  0  0  0  0  0  0
   24.3027   64.9437    5.6028 C   0  0  0  0  0  0  0  0  0  0  0  0
  1  2  2  0  0  0
  1  6  1  0  0  0
  2  3  1  0  0  0
  2 10  1  0  0  0
  3  4  2  0  0  0
  3  7  1  0  0  0
  4  5  1  0  0  0
  4 12  1  0  0  0
  5  6  2  0  0  0
  5 19  1  0  0  0
  6 11  1  0  0  0
  7  8  2  0  0  0
  8  9  1  0  0  0
  9 10  2  0  0  0
 19 20  1  0  0  0
 19 24  1  0  0  0
 20 21  1  0  0  0
 20 22  2  0  0  0
 24 25  1  0  0  0
 25 26  1  0  0  0
 25 27  1  0  0  0
 25 28  1  0  0  0
 12 13  2  0  0  0
 12 17  1  0  0  0
 13 14  1  0  0  0
 14 15  2  0  0  0
 15 16  1  0  0  0
 15 18  1  0  0  0
 16 17  2  0  0  0
 21 23  1  0  0  0
M  END
> <minimizedAffinity>
-8.26331

$$$$
4NYF_4BI_A_301


 28 30  0  0  0  0  0  0  0  0999 V2000
   20.2034   64.5836    6.5214 N   0  0  0  0  0  0  0  0  0  0  0  0
   21.5501   64.7100    6.5573 C   0  0  0  0  0  0  0  0  0  0  0  0
   22.3323   64.3908    7.7293 C   0  0  0  0  0  0  0  0  0  0  0  0
   21.5940   63.9185    8.9151 C   0  0  0  0  0  0  0  0  0  0  0  0
   20.1249   63.7811    8.8667 C   0  0  0  0  0  0  0  0  0  0  0  0
   19.4932   64.1422    7.6206 C   0  0  0  0  0  0  0  0  0  0  0  0
   23.7752   64.5692    7.6359 C   0  0  0  0  0  0  0  0  0  0  0  0
   24.4009   65.0312    6.4463 C   0  0  0  0  0  0  0  0  0  0  0  0
   23.6112   65.3315    5.3153 C   0  0  0  0  0  0  0  0  0  0  0  0
   22.1978   65.1690    5.3815 C   0  0  0  0  0  0  0  0  0  0  0  0
   18.0098   64.0795    7.3461 C   0  0  0  0  0  0  0  0  0  0  0  0
   22.3480   63.5686   10.1673 C   0  0  0  0  0  0  0  0  0  0  0  0
   22.8529   62.2355   10.3756 C   0  0  0  0  0  0  0  0  0  0  0  0
   23.5626   61.9058   11.5640 C   0  0  0  0  0  0  0  0  0  0  0  0
   23.7760   62.9003   12.5553 C   0  0  0  0  0  0  0  0  0  0  0  0
   23.2908   64.2221   12.3750 C   0  0  0  0  0  0  0  0  0  0  0  0
   22.5803   64.5569   11.1882 C   0  0  0  0  0  0  0  0  0  0  0  0
   24.6307   62.5013   13.9868 Cl  0  0  0  0  0  0  0  0  0  0  0  0
   19.3376   63.2752   10.1245 C   0  0  0  0  0  0  0  0  0  0  0  0
   18.2657   64.2995   10.6218 C   0  0  0  0  0  0  0  0  0  0  0  0
   18.6238   65.5087   10.7468 O   0  0  0  0  0  0  0  0  0  0  0  0
   17.1221   63.8052   10.8589 O   0  0  0  0  0  0  0  0  0  0  0  0
   19.5024   65.7608   10.5406 H   0  0  0  0  0  0  0  0  0  0  0  0
   18.7237   61.9478    9.9565 O   0  0  0  0  0  0  0  0  0  0  0  0
   19.0036   60.8357   10.8655 C   0  0  0  0  0  0  0  0  0  0  0  0
   19.7585   61.2791   12.1199 C   0  0  0  0  0  0  0  0  0  0  0  0
   17.7284   60.0640   11.2801 C   0  0  0  0  0  0  0  0  0  0  0  0
   19.9080   59.8895   10.0591 C   0  0  0  0  0  0  0  0  0  0  0  0
  1  2  2  0  0  0
  1  6  1  0  0  0
  2  3  1  0  0  0
  2 10  1  0  0  0
  3  4  2  0  0  0
  3  7  1  0  0  0
  4  5  1  0  0  0
  4 12  1  0  0  0
  5  6  2  0  0  0
  5 19  1  0  0  0
  6 11  1  0  0  0
  7  8  2  0  0  0
  8  9  1  0  0  0
  9 10  2  0  0  0
 19 20  1  0  0  0
 19 24  1  0  0  0
 20 21  1  0  0  0
 20 22  2  0  0  0
 24 25  1  0  0  0
 25 26  1  0  0  0
 25 27  1  0  0  0
 25 28  1  0  0  0
 12 13  2  0  0  0
 12 17  1  0  0  0
 13 14  1  0  0  0
 14 15  2  0  0  0
 15 16  1  0  0  0
 15 18  1  0  0  0
 16 17  2  0  0  0
 21 23  1  0  0  0
M  END
> <minimizedAffinity>
-6.93824

$$$$
4NYF_4BI_A_301


 28 30  0  0  0  0  0  0  0  0999 V2000
   20.9111   64.3948    5.9634 N   0  0  0  0  0  0  0  0  0  0  0  0
   22.2038   64.6642    6.2592 C   0  0  0  0  0  0  0  0  0  0  0  0
   22.7841   64.3783    7.5509 C   0  0  0  0  0  0  0  0  0  0  0  0
   21.8959   63.7753    8.5620 C   0  0  0  0  0  0  0  0  0  0  0  0
   20.4874   63.4824    8.2302 C   0  0  0  0  0  0  0  0  0  0  0  0
   20.0631   63.8296    6.8955 C   0  0  0  0  0  0  0  0  0  0  0  0
   24.1887   64.7155    7.7395 C   0  0  0  0  0  0  0  0  0  0  0  0
   24.9689   65.2962    6.7031 C   0  0  0  0  0  0  0  0  0  0  0  0
   24.3759   65.5607    5.4496 C   0  0  0  0  0  0  0  0  0  0  0  0
   23.0032   65.2436    5.2403 C   0  0  0  0  0  0  0  0  0  0  0  0
   18.6745   63.6197    6.3409 C   0  0  0  0  0  0  0  0  0  0  0  0
   22.4371   63.4522    9.9263 C   0  0  0  0  0  0  0  0  0  0  0  0
   22.9714   62.1462   10.2171 C   0  0  0  0  0  0  0  0  0  0  0  0
   23.4792   61.8416   11.5110 C   0  0  0  0  0  0  0  0  0  0  0  0
   23.4596   62.8343   12.5265 C   0  0  0  0  0  0  0  0  0  0  0  0
   22.9405   64.1297   12.2667 C   0  0  0  0  0  0  0  0  0  0  0  0
   22.4314   64.4394   10.9743 C   0  0  0  0  0  0  0  0  0  0  0  0
   24.0712   62.4655   14.0850 Cl  0  0  0  0  0  0  0  0  0  0  0  0
   19.5419   62.8376    9.3016 C   0  0  0  0  0  0  0  0  0  0  0  0
   19.8417   61.3216    9.5416 C   0  0  0  0  0  0  0  0  0  0  0  0
   19.6623   60.8663   10.7105 O   0  0  0  0  0  0  0  0  0  0  0  0
   20.2470   60.6879    8.5206 O   0  0  0  0  0  0  0  0  0  0  0  0
   19.3573   61.4323   11.3921 H   0  0  0  0  0  0  0  0  0  0  0  0
   19.5129   63.5534   10.5877 O   0  0  0  0  0  0  0  0  0  0  0  0
   18.3795   64.3846   10.9950 C   0  0  0  0  0  0  0  0  0  0  0  0
   17.8963   65.3074    9.8749 C   0  0  0  0  0  0  0  0  0  0  0  0
   17.1869   63.5545   11.5262 C   0  0  0  0  0  0  0  0  0  0  0  0
   18.9226   65.2512   12.1427 C   0  0  0  0  0  0  0  0  0  0  0  0
  1  2  2  0  0  0
  1  6  1  0  0  0
  2  3  1  0  0  0
  2 10  1  0  0  0
  3  4  2  0  0  0
  3  7  1  0  0  0
  4  5  1  0  0  0
  4 12  1  0  0  0
  5  6  2  0  0  0
  5 19  1  0  0  0
  6 11  1  0  0  0
  7  8  2  0  0  0
  8  9  1  0  0  0
  9 10  2  0  0  0
 19 20  1  0  0  0
 19 24  1  0  0  0
 20 21  1  0  0  0
 20 22  2  0  0  0
 24 25  1  0  0  0
 25 26  1  0  0  0
 25 27  1  0  0  0
 25 28  1  0  0  0
 12 13  2  0  0  0
 12 17  1  0  0  0
 13 14  1  0  0  0
 14 15  2  0  0  0
 15 16  1  0  0  0
 15 18  1  0  0  0
 16 17  2  0  0  0
 21 23  1  0  0  0
M  END
> <minimizedAffinity>
-6.68066

$$$$
4NYF_4BI_A_301


 28 30  0  0  0  0  0  0  0  0999 V2000
   24.0840   63.6787   10.5219 N   0  0  0  0  0  0  0  0  0  0  0  0
   23.9457   64.1970    9.2796 C   0  0  0  0  0  0  0  0  0  0  0  0
   22.6796   64.2294    8.5847 C   0  0  0  0  0  0  0  0  0  0  0  0
   21.5174   63.6579    9.2898 C   0  0  0  0  0  0  0  0  0  0  0  0
   21.6764   63.0966   10.6460 C   0  0  0  0  0  0  0  0  0  0  0  0
   23.0083   63.1396   11.1997 C   0  0  0  0  0  0  0  0  0  0  0  0
   22.6663   64.8170    7.2517 C   0  0  0  0  0  0  0  0  0  0  0  0
   23.8408   65.3453    6.6504 C   0  0  0  0  0  0  0  0  0  0  0  0
   25.0633   65.3035    7.3551 C   0  0  0  0  0  0  0  0  0  0  0  0
   25.1042   64.7312    8.6587 C   0  0  0  0  0  0  0  0  0  0  0  0
   23.4009   62.6262   12.5643 C   0  0  0  0  0  0  0  0  0  0  0  0
   20.1705   63.6609    8.6230 C   0  0  0  0  0  0  0  0  0  0  0  0
   19.2735   64.7775    8.7783 C   0  0  0  0  0  0  0  0  0  0  0  0
   17.9970   64.7758    8.1494 C   0  0  0  0  0  0  0  0  0  0  0  0
   17.6026   63.6627    7.3604 C   0  0  0  0  0  0  0  0  0  0  0  0
   18.4674   62.5500    7.1894 C   0  0  0  0  0  0  0  0  0  0  0  0
   19.7450   62.5468    7.8162 C   0  0  0  0  0  0  0  0  0  0  0  0
   16.0641   63.6619    6.6040 Cl  0  0  0  0  0  0  0  0  0  0  0  0
   20.4419   62.4921   11.3998 C   0  0  0  0  0  0  0  0  0  0  0  0
   20.6925   61.0323   11.9013 C   0  0  0  0  0  0  0  0  0  0  0  0
   21.1018   60.1834   11.0540 O   0  0  0  0  0  0  0  0  0  0  0  0
   20.4517   60.8399   13.1314 O   0  0  0  0  0  0  0  0  0  0  0  0
   21.2464   60.4412   10.1648 H   0  0  0  0  0  0  0  0  0  0  0  0
   19.9459   63.3254   12.5075 O   0  0  0  0  0  0  0  0  0  0  0  0
   18.5592   63.7869   12.5791 C   0  0  0  0  0  0  0  0  0  0  0  0
   18.4373   65.3041   12.4267 C   0  0  0  0  0  0  0  0  0  0  0  0
   17.6414   63.0921   11.5455 C   0  0  0  0  0  0  0  0  0  0  0  0
   18.0898   63.3977   13.9904 C   0  0  0  0  0  0  0  0  0  0  0  0
  1  2  2  0  0  0
  1  6  1  0  0  0
  2  3  1  0  0  0
  2 10  1  0  0  0
  3  4  2  0  0  0
  3  7  1  0  0  0
  4  5  1  0  0  0
  4 12  1  0  0  0
  5  6  2  0  0  0
  5 19  1  0  0  0
  6 11  1  0  0  0
  7  8  2  0  0  0
  8  9  1  0  0  0
  9 10  2  0  0  0
 19 20  1  0  0  0
 19 24  1  0  0  0
 20 21  1  0  0  0
 20 22  2  0  0  0
 24 25  1  0  0  0
 25 26  1  0  0  0
 25 27  1  0  0  0
 25 28  1  0  0  0
 12 13  2  0  0  0
 12 17  1  0  0  0
 13 14  1  0  0  0
 14 15  2  0  0  0
 15 16  1  0  0  0
 15 18  1  0  0  0
 16 17  2  0  0  0
 21 23  1  0  0  0
M  END
> <minimizedAffinity>
-6.43020

$$$$
4NYF_4BI_A_301


 28 30  0  0  0  0  0  0  0  0999 V2000
   21.0267   61.5457   12.9246 N   0  0  0  0  0  0  0  0  0  0  0  0
   22.3055   61.9645   12.7825 C   0  0  0  0  0  0  0  0  0  0  0  0
   22.7856   62.6112   11.5831 C   0  0  0  0  0  0  0  0  0  0  0  0
   21.8125   62.7966   10.4907 C   0  0  0  0  0  0  0  0  0  0  0  0
   20.4186   62.3388   10.6548 C   0  0  0  0  0  0  0  0  0  0  0  0
   20.0998   61.7106   11.9142 C   0  0  0  0  0  0  0  0  0  0  0  0
   24.1849   63.0156   11.5589 C   0  0  0  0  0  0  0  0  0  0  0  0
   25.0512   62.7949   12.6639 C   0  0  0  0  0  0  0  0  0  0  0  0
   24.5531   62.1642   13.8244 C   0  0  0  0  0  0  0  0  0  0  0  0
   23.1894   61.7558   13.8725 C   0  0  0  0  0  0  0  0  0  0  0  0
   18.7434   61.1702   12.2990 C   0  0  0  0  0  0  0  0  0  0  0  0
   22.2471   63.4631    9.2157 C   0  0  0  0  0  0  0  0  0  0  0  0
   22.5956   64.8609    9.1963 C   0  0  0  0  0  0  0  0  0  0  0  0
   23.0026   65.4906    7.9870 C   0  0  0  0  0  0  0  0  0  0  0  0
   23.0662   64.7344    6.7864 C   0  0  0  0  0  0  0  0  0  0  0  0
   22.7299   63.3553    6.7774 C   0  0  0  0  0  0  0  0  0  0  0  0
   22.3223   62.7208    7.9843 C   0  0  0  0  0  0  0  0  0  0  0  0
   23.5561   65.4947    5.3301 Cl  0  0  0  0  0  0  0  0  0  0  0  0
   19.3807   62.5383    9.4968 C   0  0  0  0  0  0  0  0  0  0  0  0
   19.0923   61.2199    8.7069 C   0  0  0  0  0  0  0  0  0  0  0  0
   19.8731   60.2399    8.8966 O   0  0  0  0  0  0  0  0  0  0  0  0
   18.0864   61.2667    7.9360 O   0  0  0  0  0  0  0  0  0  0  0  0
   20.5895   60.3207    9.4951 H   0  0  0  0  0  0  0  0  0  0  0  0
   18.1141   63.1553    9.9235 O   0  0  0  0  0  0  0  0  0  0  0  0
   17.8909   64.6005    9.8699 C   0  0  0  0  0  0  0  0  0  0  0  0
   16.4553   64.9583    9.4813 C   0  0  0  0  0  0  0  0  0  0  0  0
   18.2571   65.3137   11.1930 C   0  0  0  0  0  0  0  0  0  0  0  0
   18.8359   65.1016    8.7657 C   0  0  0  0  0  0  0  0  0  0  0  0
  1  2  2  0  0  0
  1  6  1  0  0  0
  2  3  1  0  0  0
  2 10  1  0  0  0
  3  4  2  0  0  0
  3  7  1  0  0  0
  4  5  1  0  0  0
  4 12  1  0  0  0
  5  6  2  0  0  0
  5 19  1  0  0  0
  6 11  1  0  0  0
  7  8  2  0  0  0
  8  9  1  0  0  0
  9 10  2  0  0  0
 19 20  1  0  0  0
 19 24  1  0  0  0
 20 21  1  0  0  0
 20 22  2  0  0  0
 24 25  1  0  0  0
 25 26  1  0  0  0
 25 27  1  0  0  0
 25 28  1  0  0  0
 12 13  2  0  0  0
 12 17  1  0  0  0
 13 14  1  0  0  0
 14 15  2  0  0  0
 15 16  1  0  0  0
 15 18  1  0  0  0
 16 17  2  0  0  0
 21 23  1  0  0  0
M  END
> <minimizedAffinity>
-6.40232

$$$$
4NYF_4BI_A_301


 28 30  0  0  0  0  0  0  0  0999 V2000
   24.7197   63.8656   11.0596 N   0  0  0  0  0  0  0  0  0  0  0  0
   24.1702   64.0985    9.8452 C   0  0  0  0  0  0  0  0  0  0  0  0
   22.9053   63.5305    9.4396 C   0  0  0  0  0  0  0  0  0  0  0  0
   22.2214   62.6615   10.4152 C   0  0  0  0  0  0  0  0  0  0  0  0
   22.8267   62.4144   11.7389 C   0  0  0  0  0  0  0  0  0  0  0  0
   24.0951   63.0558   11.9878 C   0  0  0  0  0  0  0  0  0  0  0  0
   22.4236   63.8618    8.1052 C   0  0  0  0  0  0  0  0  0  0  0  0
   23.1541   64.7116    7.2310 C   0  0  0  0  0  0  0  0  0  0  0  0
   24.3854   65.2556    7.6561 C   0  0  0  0  0  0  0  0  0  0  0  0
   24.8805   64.9445    8.9549 C   0  0  0  0  0  0  0  0  0  0  0  0
   24.8911   62.9447   13.2661 C   0  0  0  0  0  0  0  0  0  0  0  0
   20.9013   62.0393   10.0564 C   0  0  0  0  0  0  0  0  0  0  0  0
   20.8255   60.6649    9.6312 C   0  0  0  0  0  0  0  0  0  0  0  0
   19.5748   60.0794    9.2878 C   0  0  0  0  0  0  0  0  0  0  0  0
   18.3888   60.8571    9.3647 C   0  0  0  0  0  0  0  0  0  0  0  0
   18.4346   62.2131    9.7821 C   0  0  0  0  0  0  0  0  0  0  0  0
   19.6829   62.8033   10.1266 C   0  0  0  0  0  0  0  0  0  0  0  0
   16.8830   60.1504    8.9501 Cl  0  0  0  0  0  0  0  0  0  0  0  0
   22.1000   61.4945   12.7798 C   0  0  0  0  0  0  0  0  0  0  0  0
   23.0920   60.6130   13.6070 C   0  0  0  0  0  0  0  0  0  0  0  0
   23.8117   59.7861   12.9713 O   0  0  0  0  0  0  0  0  0  0  0  0
   23.0729   60.8162   14.8587 O   0  0  0  0  0  0  0  0  0  0  0  0
   23.7400   59.7223   12.0392 H   0  0  0  0  0  0  0  0  0  0  0  0
   21.1908   62.2137   13.6871 O   0  0  0  0  0  0  0  0  0  0  0  0
   19.8074   61.7898   13.9062 C   0  0  0  0  0  0  0  0  0  0  0  0
   18.7963   62.8817   13.5523 C   0  0  0  0  0  0  0  0  0  0  0  0
   19.4494   60.4924   13.1433 C   0  0  0  0  0  0  0  0  0  0  0  0
   19.7181   61.5108   15.4153 C   0  0  0  0  0  0  0  0  0  0  0  0
  1  2  2  0  0  0
  1  6  1  0  0  0
  2  3  1  0  0  0
  2 10  1  0  0  0
  3  4  2  0  0  0
  3  7  1  0  0  0
  4  5  1  0  0  0
  4 12  1  0  0  0
  5  6  2  0  0  0
  5 19  1  0  0  0
  6 11  1  0  0  0
  7  8  2  0  0  0
  8  9  1  0  0  0
  9 10  2  0  0  0
 19 20  1  0  0  0
 19 24  1  0  0  0
 20 21  1  0  0  0
 20 22  2  0  0  0
 24 25  1  0  0  0
 25 26  1  0  0  0
 25 27  1  0  0  0
 25 28  1  0  0  0
 12 13  2  0  0  0
 12 17  1  0  0  0
 13 14  1  0  0  0
 14 15  2  0  0  0
 15 16  1  0  0  0
 15 18  1  0  0  0
 16 17  2  0  0  0
 21 23  1  0  0  0
M  END
> <minimizedAffinity>
-6.08810

$$$$
4NYF_4BI_A_301


 28 30  0  0  0  0  0  0  0  0999 V2000
   23.6692   60.7170   13.8256 N   0  0  0  0  0  0  0  0  0  0  0  0
   22.4994   60.2017   14.2695 C   0  0  0  0  0  0  0  0  0  0  0  0
   21.2193   60.5908   13.7245 C   0  0  0  0  0  0  0  0  0  0  0  0
   21.2316   61.5982   12.6476 C   0  0  0  0  0  0  0  0  0  0  0  0
   22.5126   62.1535   12.1676 C   0  0  0  0  0  0  0  0  0  0  0  0
   23.7028   61.6605   12.8177 C   0  0  0  0  0  0  0  0  0  0  0  0
   20.0347   59.9590   14.2902 C   0  0  0  0  0  0  0  0  0  0  0  0
   20.1205   58.9943   15.3305 C   0  0  0  0  0  0  0  0  0  0  0  0
   21.3856   58.6307   15.8406 C   0  0  0  0  0  0  0  0  0  0  0  0
   22.5593   59.2362   15.3073 C   0  0  0  0  0  0  0  0  0  0  0  0
   25.1139   62.0859   12.4895 C   0  0  0  0  0  0  0  0  0  0  0  0
   19.9338   62.0463   12.0366 C   0  0  0  0  0  0  0  0  0  0  0  0
   19.2871   63.2540   12.4827 C   0  0  0  0  0  0  0  0  0  0  0  0
   18.0561   63.6737   11.9055 C   0  0  0  0  0  0  0  0  0  0  0  0
   17.4582   62.8950   10.8792 C   0  0  0  0  0  0  0  0  0  0  0  0
   18.0746   61.7017   10.4196 C   0  0  0  0  0  0  0  0  0  0  0  0
   19.3058   61.2776   10.9936 C   0  0  0  0  0  0  0  0  0  0  0  0
   15.9747   63.4018   10.1853 Cl  0  0  0  0  0  0  0  0  0  0  0  0
   22.5292   63.2215   11.0200 C   0  0  0  0  0  0  0  0  0  0  0  0
   23.3463   64.5013   11.3940 C   0  0  0  0  0  0  0  0  0  0  0  0
   23.0221   65.1147   12.4544 O   0  0  0  0  0  0  0  0  0  0  0  0
   24.2686   64.8051   10.5783 O   0  0  0  0  0  0  0  0  0  0  0  0
   22.3178   64.7956   12.9837 H   0  0  0  0  0  0  0  0  0  0  0  0
   22.9801   62.7002    9.7192 O   0  0  0  0  0  0  0  0  0  0  0  0
   22.2216   62.9123    8.4859 C   0  0  0  0  0  0  0  0  0  0  0  0
   20.8614   63.5647    8.7386 C   0  0  0  0  0  0  0  0  0  0  0  0
   23.0009   63.7406    7.4371 C   0  0  0  0  0  0  0  0  0  0  0  0
   21.9900   61.5012    7.9215 C   0  0  0  0  0  0  0  0  0  0  0  0
  1  2  2  0  0  0
  1  6  1  0  0  0
  2  3  1  0  0  0
  2 10  1  0  0  0
  3  4  2  0  0  0
  3  7  1  0  0  0
  4  5  1  0  0  0
  4 12  1  0  0  0
  5  6  2  0  0  0
  5 19  1  0  0  0
  6 11  1  0  0  0
  7  8  2  0  0  0
  8  9  1  0  0  0
  9 10  2  0  0  0
 19 20  1  0  0  0
 19 24  1  0  0  0
 20 21  1  0  0  0
 20 22  2  0  0  0
 24 25  1  0  0  0
 25 26  1  0  0  0
 25 27  1  0  0  0
 25 28  1  0  0  0
 12 13  2  0  0  0
 12 17  1  0  0  0
 13 14  1  0  0  0
 14 15  2  0  0  0
 15 16  1  0  0  0
 15 18  1  0  0  0
 16 17  2  0  0  0
 21 23  1  0  0  0
M  END
> <minimizedAffinity>
-5.88166

$$$$
4NYF_4BI_A_301


 28 30  0  0  0  0  0  0  0  0999 V2000
   18.3497   62.3294   13.9609 N   0  0  0  0  0  0  0  0  0  0  0  0
   18.1368   63.5444   13.4046 C   0  0  0  0  0  0  0  0  0  0  0  0
   19.0297   64.1214   12.4264 C   0  0  0  0  0  0  0  0  0  0  0  0
   20.2129   63.3248   12.0521 C   0  0  0  0  0  0  0  0  0  0  0  0
   20.4365   61.9991   12.6622 C   0  0  0  0  0  0  0  0  0  0  0  0
   19.4509   61.5672   13.6235 C   0  0  0  0  0  0  0  0  0  0  0  0
   18.6848   65.4367   11.9037 C   0  0  0  0  0  0  0  0  0  0  0  0
   17.5187   66.1318   12.3249 C   0  0  0  0  0  0  0  0  0  0  0  0
   16.6624   65.5412   13.2793 C   0  0  0  0  0  0  0  0  0  0  0  0
   16.9788   64.2574   13.8087 C   0  0  0  0  0  0  0  0  0  0  0  0
   19.4771   60.2533   14.3671 C   0  0  0  0  0  0  0  0  0  0  0  0
   21.1818   63.8672   11.0393 C   0  0  0  0  0  0  0  0  0  0  0  0
   20.9028   63.7743    9.6289 C   0  0  0  0  0  0  0  0  0  0  0  0
   21.8239   64.2847    8.6718 C   0  0  0  0  0  0  0  0  0  0  0  0
   23.0306   64.8919    9.1104 C   0  0  0  0  0  0  0  0  0  0  0  0
   23.3298   64.9980   10.4940 C   0  0  0  0  0  0  0  0  0  0  0  0
   22.4119   64.4891   11.4552 C   0  0  0  0  0  0  0  0  0  0  0  0
   24.1395   65.5057    7.9561 Cl  0  0  0  0  0  0  0  0  0  0  0  0
   21.6913   61.1481   12.2631 C   0  0  0  0  0  0  0  0  0  0  0  0
   21.6137   60.6024   10.7997 C   0  0  0  0  0  0  0  0  0  0  0  0
   20.5677   59.9706   10.4641 O   0  0  0  0  0  0  0  0  0  0  0  0
   22.6296   60.8492   10.0817 O   0  0  0  0  0  0  0  0  0  0  0  0
   19.8754   59.8482   11.0835 H   0  0  0  0  0  0  0  0  0  0  0  0
   22.9763   61.8342   12.4758 O   0  0  0  0  0  0  0  0  0  0  0  0
   23.8169   61.5757   13.6454 C   0  0  0  0  0  0  0  0  0  0  0  0
   25.0891   62.4250   13.6526 C   0  0  0  0  0  0  0  0  0  0  0  0
   23.0622   61.7709   14.9817 C   0  0  0  0  0  0  0  0  0  0  0  0
   24.2168   60.0966   13.5205 C   0  0  0  0  0  0  0  0  0  0  0  0
  1  2  2  0  0  0
  1  6  1  0  0  0
  2  3  1  0  0  0
  2 10  1  0  0  0
  3  4  2  0  0  0
  3  7  1  0  0  0
  4  5  1  0  0  0
  4 12  1  0  0  0
  5  6  2  0  0  0
  5 19  1  0  0  0
  6 11  1  0  0  0
  7  8  2  0  0  0
  8  9  1  0  0  0
  9 10  2  0  0  0
 19 20  1  0  0  0
 19 24  1  0  0  0
 20 21  1  0  0  0
 20 22  2  0  0  0
 24 25  1  0  0  0
 25 26  1  0  0  0
 25 27  1  0  0  0
 25 28  1  0  0  0
 12 13  2  0  0  0
 12 17  1  0  0  0
 13 14  1  0  0  0
 14 15  2  0  0  0
 15 16  1  0  0  0
 15 18  1  0  0  0
 16 17  2  0  0  0
 21 23  1  0  0  0
M  END
> <minimizedAffinity>
-5.86001

$$$$
4NYF_4BI_A_301


 28 30  0  0  0  0  0  0  0  0999 V2000
   17.5948   61.3681    8.0881 N   0  0  0  0  0  0  0  0  0  0  0  0
   17.9458   60.1974    8.6688 C   0  0  0  0  0  0  0  0  0  0  0  0
   19.0329   60.0910    9.6144 C   0  0  0  0  0  0  0  0  0  0  0  0
   19.7687   61.3303    9.9263 C   0  0  0  0  0  0  0  0  0  0  0  0
   19.3777   62.6039    9.2901 C   0  0  0  0  0  0  0  0  0  0  0  0
   18.2703   62.5400    8.3673 C   0  0  0  0  0  0  0  0  0  0  0  0
   19.3069   58.7719   10.1686 C   0  0  0  0  0  0  0  0  0  0  0  0
   18.5413   57.6301    9.8077 C   0  0  0  0  0  0  0  0  0  0  0  0
   17.4822   57.7652    8.8841 C   0  0  0  0  0  0  0  0  0  0  0  0
   17.1957   59.0433    8.3249 C   0  0  0  0  0  0  0  0  0  0  0  0
   17.7020   63.7139    7.6064 C   0  0  0  0  0  0  0  0  0  0  0  0
   20.9104   61.2890   10.9028 C   0  0  0  0  0  0  0  0  0  0  0  0
   22.2660   61.1205   10.4452 C   0  0  0  0  0  0  0  0  0  0  0  0
   23.3448   61.0773   11.3722 C   0  0  0  0  0  0  0  0  0  0  0  0
   23.0833   61.2015   12.7627 C   0  0  0  0  0  0  0  0  0  0  0  0
   21.7574   61.3701   13.2408 C   0  0  0  0  0  0  0  0  0  0  0  0
   20.6751   61.4139   12.3178 C   0  0  0  0  0  0  0  0  0  0  0  0
   24.3840   61.1486   13.8782 Cl  0  0  0  0  0  0  0  0  0  0  0  0
   20.1554   63.9238    9.6230 C   0  0  0  0  0  0  0  0  0  0  0  0
   19.9136   64.4177   11.0869 C   0  0  0  0  0  0  0  0  0  0  0  0
   18.7232   64.4037   11.5213 O   0  0  0  0  0  0  0  0  0  0  0  0
   20.9555   64.7944   11.7039 O   0  0  0  0  0  0  0  0  0  0  0  0
   18.0273   64.1017   10.9713 H   0  0  0  0  0  0  0  0  0  0  0  0
   21.6000   63.8571    9.3477 O   0  0  0  0  0  0  0  0  0  0  0  0
   22.1561   64.1173    8.0195 C   0  0  0  0  0  0  0  0  0  0  0  0
   22.1228   62.8826    7.1173 C   0  0  0  0  0  0  0  0  0  0  0  0
   21.4625   65.2978    7.2992 C   0  0  0  0  0  0  0  0  0  0  0  0
   23.6238   64.4954    8.2772 C   0  0  0  0  0  0  0  0  0  0  0  0
  1  2  2  0  0  0
  1  6  1  0  0  0
  2  3  1  0  0  0
  2 10  1  0  0  0
  3  4  2  0  0  0
  3  7  1  0  0  0
  4  5  1  0  0  0
  4 12  1  0  0  0
  5  6  2  0  0  0
  5 19  1  0  0  0
  6 11  1  0  0  0
  7  8  2  0  0  0
  8  9  1  0  0  0
  9 10  2  0  0  0
 19 20  1  0  0  0
 19 24  1  0  0  0
 20 21  1  0  0  0
 20 22  2  0  0  0
 24 25  1  0  0  0
 25 26  1  0  0  0
 25 27  1  0  0  0
 25 28  1  0  0  0
 12 13  2  0  0  0
 12 17  1  0  0  0
 13 14  1  0  0  0
 14 15  2  0  0  0
 15 16  1  0  0  0
 15 18  1  0  0  0
 16 17  2  0  0  0
 21 23  1  0  0  0
M  END
> <minimizedAffinity>
-5.76820

$$$$
4NYF_4BI_A_301


 28 30  0  0  0  0  0  0  0  0999 V2000
   23.9667   63.4622   10.8450 N   0  0  0  0  0  0  0  0  0  0  0  0
   24.0336   62.4893   11.7830 C   0  0  0  0  0  0  0  0  0  0  0  0
   22.8778   61.7326   12.2057 C   0  0  0  0  0  0  0  0  0  0  0  0
   21.5909   62.0705   11.5697 C   0  0  0  0  0  0  0  0  0  0  0  0
   21.5270   63.1317   10.5453 C   0  0  0  0  0  0  0  0  0  0  0  0
   22.7717   63.7933   10.2367 C   0  0  0  0  0  0  0  0  0  0  0  0
   23.0861   60.7110   13.2231 C   0  0  0  0  0  0  0  0  0  0  0  0
   24.3680   60.4546   13.7807 C   0  0  0  0  0  0  0  0  0  0  0  0
   25.4802   61.2072   13.3453 C   0  0  0  0  0  0  0  0  0  0  0  0
   25.3030   62.2145   12.3541 C   0  0  0  0  0  0  0  0  0  0  0  0
   22.9413   64.9018    9.2256 C   0  0  0  0  0  0  0  0  0  0  0  0
   20.3496   61.3205   11.9637 C   0  0  0  0  0  0  0  0  0  0  0  0
   19.5323   61.7725   13.0607 C   0  0  0  0  0  0  0  0  0  0  0  0
   18.3598   61.0581   13.4346 C   0  0  0  0  0  0  0  0  0  0  0  0
   17.9908   59.8877   12.7197 C   0  0  0  0  0  0  0  0  0  0  0  0
   18.7770   59.4210   11.6338 C   0  0  0  0  0  0  0  0  0  0  0  0
   19.9505   60.1319   11.2559 C   0  0  0  0  0  0  0  0  0  0  0  0
   16.5783   59.0278   13.1718 Cl  0  0  0  0  0  0  0  0  0  0  0  0
   20.1612   63.4902    9.8644 C   0  0  0  0  0  0  0  0  0  0  0  0
   19.4524   64.7132   10.5333 C   0  0  0  0  0  0  0  0  0  0  0  0
   19.8016   65.0206   11.7120 O   0  0  0  0  0  0  0  0  0  0  0  0
   18.5774   65.2840    9.8143 O   0  0  0  0  0  0  0  0  0  0  0  0
   20.4647   64.5233   12.1490 H   0  0  0  0  0  0  0  0  0  0  0  0
   20.2496   63.6953    8.4093 O   0  0  0  0  0  0  0  0  0  0  0  0
   20.0115   62.6152    7.4512 C   0  0  0  0  0  0  0  0  0  0  0  0
   19.4231   63.1199    6.1325 C   0  0  0  0  0  0  0  0  0  0  0  0
   21.2812   61.7805    7.1602 C   0  0  0  0  0  0  0  0  0  0  0  0
   18.9750   61.7080    8.1339 C   0  0  0  0  0  0  0  0  0  0  0  0
  1  2  2  0  0  0
  1  6  1  0  0  0
  2  3  1  0  0  0
  2 10  1  0  0  0
  3  4  2  0  0  0
  3  7  1  0  0  0
  4  5  1  0  0  0
  4 12  1  0  0  0
  5  6  2  0  0  0
  5 19  1  0  0  0
  6 11  1  0  0  0
  7  8  2  0  0  0
  8  9  1  0  0  0
  9 10  2  0  0  0
 19 20  1  0  0  0
 19 24  1  0  0  0
 20 21  1  0  0  0
 20 22  2  0  0  0
 24 25  1  0  0  0
 25 26  1  0  0  0
 25 27  1  0  0  0
 25 28  1  0  0  0
 12 13  2  0  0  0
 12 17  1  0  0  0
 13 14  1  0  0  0
 14 15  2  0  0  0
 15 16  1  0  0  0
 15 18  1  0  0  0
 16 17  2  0  0  0
 21 23  1  0  0  0
M  END
> <minimizedAffinity>
-5.73297

$$$$
