3B7J_JUG_B_163


 14 15  0  0  0  0  0  0  0  0999 V2000
   18.7937   13.6822  -12.4202 O   0  0  0  0  0  0  0  0  0  0  0  0
   18.1168   12.8845  -11.7725 C   0  0  0  0  0  0  0  0  0  0  0  0
   18.6528   11.6582  -11.3963 C   0  0  0  0  0  0  0  0  0  0  0  0
   17.8855   10.7706  -10.6475 C   0  0  0  0  0  0  0  0  0  0  0  0
   16.5896   11.1118  -10.2801 C   0  0  0  0  0  0  0  0  0  0  0  0
   15.9153   10.3210   -9.6181 O   0  0  0  0  0  0  0  0  0  0  0  0
   16.0512   12.3377  -10.6602 C   0  0  0  0  0  0  0  0  0  0  0  0
   16.8187   13.2229  -11.4086 C   0  0  0  0  0  0  0  0  0  0  0  0
   16.2802   14.4384  -11.8201 C   0  0  0  0  0  0  0  0  0  0  0  0
   14.9715   14.7683  -11.4841 C   0  0  0  0  0  0  0  0  0  0  0  0
   14.2040   13.8831  -10.7357 C   0  0  0  0  0  0  0  0  0  0  0  0
   14.7429   12.6690  -10.3212 C   0  0  0  0  0  0  0  0  0  0  0  0
   13.9897   11.8177   -9.5747 O   0  0  0  0  0  0  0  0  0  0  0  0
   13.1093   12.0459   -9.3494 H   0  0  0  0  0  0  0  0  0  0  0  0
  1  2  2  0  0  0
  9 10  2  0  0  0
  9  8  1  0  0  0
  2  8  1  0  0  0
  2  3  1  0  0  0
 10 11  1  0  0  0
  8  7  2  0  0  0
  3  4  2  0  0  0
 11 12  2  0  0  0
  7 12  1  0  0  0
  7  5  1  0  0  0
  4  5  1  0  0  0
 12 13  1  0  0  0
  5  6  2  0  0  0
 13 14  1  0  0  0
M  END
> <minimizedAffinity>
-6.95113

$$$$
3B7J_JUG_B_163


 14 15  0  0  0  0  0  0  0  0999 V2000
   20.9084   13.8896  -12.2699 O   0  0  0  0  0  0  0  0  0  0  0  0
   19.7198   13.6715  -12.0378 C   0  0  0  0  0  0  0  0  0  0  0  0
   18.8872   14.7064  -11.6274 C   0  0  0  0  0  0  0  0  0  0  0  0
   17.5402   14.4534  -11.3856 C   0  0  0  0  0  0  0  0  0  0  0  0
   17.0335   13.1706  -11.5539 C   0  0  0  0  0  0  0  0  0  0  0  0
   15.8401   12.9530  -11.3370 O   0  0  0  0  0  0  0  0  0  0  0  0
   17.8676   12.1333  -11.9606 C   0  0  0  0  0  0  0  0  0  0  0  0
   19.2130   12.3876  -12.2012 C   0  0  0  0  0  0  0  0  0  0  0  0
   20.0627   11.3521  -12.5786 C   0  0  0  0  0  0  0  0  0  0  0  0
   19.5664   10.0599  -12.7140 C   0  0  0  0  0  0  0  0  0  0  0  0
   18.2210    9.8056  -12.4734 C   0  0  0  0  0  0  0  0  0  0  0  0
   17.3701   10.8411  -12.0990 C   0  0  0  0  0  0  0  0  0  0  0  0
   16.0522   10.5851  -11.8830 O   0  0  0  0  0  0  0  0  0  0  0  0
   15.7227    9.7131  -11.9777 H   0  0  0  0  0  0  0  0  0  0  0  0
  1  2  2  0  0  0
  9 10  2  0  0  0
  9  8  1  0  0  0
  2  8  1  0  0  0
  2  3  1  0  0  0
 10 11  1  0  0  0
  8  7  2  0  0  0
  3  4  2  0  0  0
 11 12  2  0  0  0
  7 12  1  0  0  0
  7  5  1  0  0  0
  4  5  1  0  0  0
 12 13  1  0  0  0
  5  6  2  0  0  0
 13 14  1  0  0  0
M  END
> <minimizedAffinity>
-6.86183

$$$$
3B7J_JUG_B_163


 14 15  0  0  0  0  0  0  0  0999 V2000
   14.4616   14.4126  -11.7966 O   0  0  0  0  0  0  0  0  0  0  0  0
   14.6696   13.8133  -10.7422 C   0  0  0  0  0  0  0  0  0  0  0  0
   13.7010   13.7978   -9.7451 C   0  0  0  0  0  0  0  0  0  0  0  0
   13.9382   13.1013   -8.5638 C   0  0  0  0  0  0  0  0  0  0  0  0
   15.1394   12.4261   -8.3849 C   0  0  0  0  0  0  0  0  0  0  0  0
   15.3436   11.8123   -7.3362 O   0  0  0  0  0  0  0  0  0  0  0  0
   16.1111   12.4449   -9.3813 C   0  0  0  0  0  0  0  0  0  0  0  0
   15.8728   13.1416  -10.5604 C   0  0  0  0  0  0  0  0  0  0  0  0
   16.8492   13.1926  -11.5507 C   0  0  0  0  0  0  0  0  0  0  0  0
   18.0665   12.5473  -11.3607 C   0  0  0  0  0  0  0  0  0  0  0  0
   18.3048   11.8506  -10.1815 C   0  0  0  0  0  0  0  0  0  0  0  0
   17.3277   11.7965   -9.1921 C   0  0  0  0  0  0  0  0  0  0  0  0
   17.5640   11.0978   -8.0497 O   0  0  0  0  0  0  0  0  0  0  0  0
   18.3850   10.6631   -7.9277 H   0  0  0  0  0  0  0  0  0  0  0  0
  1  2  2  0  0  0
  9 10  2  0  0  0
  9  8  1  0  0  0
  2  8  1  0  0  0
  2  3  1  0  0  0
 10 11  1  0  0  0
  8  7  2  0  0  0
  3  4  2  0  0  0
 11 12  2  0  0  0
  7 12  1  0  0  0
  7  5  1  0  0  0
  4  5  1  0  0  0
 12 13  1  0  0  0
  5  6  2  0  0  0
 13 14  1  0  0  0
M  END
> <minimizedAffinity>
-6.82684

$$$$
3B7J_JUG_B_163


 14 15  0  0  0  0  0  0  0  0999 V2000
   16.7533   15.2032  -12.6673 O   0  0  0  0  0  0  0  0  0  0  0  0
   16.1371   14.4297  -11.9350 C   0  0  0  0  0  0  0  0  0  0  0  0
   14.8625   14.7580  -11.4876 C   0  0  0  0  0  0  0  0  0  0  0  0
   14.1662   13.8679  -10.6752 C   0  0  0  0  0  0  0  0  0  0  0  0
   14.7460   12.6579  -10.3143 C   0  0  0  0  0  0  0  0  0  0  0  0
   14.1246   11.8748   -9.5938 O   0  0  0  0  0  0  0  0  0  0  0  0
   16.0238   12.3308  -10.7586 C   0  0  0  0  0  0  0  0  0  0  0  0
   16.7182   13.2211  -11.5695 C   0  0  0  0  0  0  0  0  0  0  0  0
   18.0083   12.9180  -11.9945 C   0  0  0  0  0  0  0  0  0  0  0  0
   18.6054   11.7234  -11.6064 C   0  0  0  0  0  0  0  0  0  0  0  0
   17.9110   10.8330  -10.7955 C   0  0  0  0  0  0  0  0  0  0  0  0
   16.6198   11.1340  -10.3727 C   0  0  0  0  0  0  0  0  0  0  0  0
   15.9425   10.2485   -9.5940 O   0  0  0  0  0  0  0  0  0  0  0  0
   16.3488    9.4441   -9.3372 H   0  0  0  0  0  0  0  0  0  0  0  0
  1  2  2  0  0  0
  9 10  2  0  0  0
  9  8  1  0  0  0
  2  8  1  0  0  0
  2  3  1  0  0  0
 10 11  1  0  0  0
  8  7  2  0  0  0
  3  4  2  0  0  0
 11 12  2  0  0  0
  7 12  1  0  0  0
  7  5  1  0  0  0
  4  5  1  0  0  0
 12 13  1  0  0  0
  5  6  2  0  0  0
 13 14  1  0  0  0
M  END
> <minimizedAffinity>
-6.80883

$$$$
3B7J_JUG_B_163


 14 15  0  0  0  0  0  0  0  0999 V2000
   14.1382   11.0526   -9.1383 O   0  0  0  0  0  0  0  0  0  0  0  0
   15.2526   11.3903   -9.5359 C   0  0  0  0  0  0  0  0  0  0  0  0
   16.3727   10.6416   -9.1932 C   0  0  0  0  0  0  0  0  0  0  0  0
   17.6264   11.0211   -9.6636 C   0  0  0  0  0  0  0  0  0  0  0  0
   17.7542   12.1443  -10.4715 C   0  0  0  0  0  0  0  0  0  0  0  0
   18.8672   12.4755  -10.8837 O   0  0  0  0  0  0  0  0  0  0  0  0
   16.6336   12.8966  -10.8114 C   0  0  0  0  0  0  0  0  0  0  0  0
   15.3821   12.5165  -10.3401 C   0  0  0  0  0  0  0  0  0  0  0  0
   14.2591   13.2785  -10.6484 C   0  0  0  0  0  0  0  0  0  0  0  0
   14.3882   14.4232  -11.4277 C   0  0  0  0  0  0  0  0  0  0  0  0
   15.6396   14.8032  -11.8990 C   0  0  0  0  0  0  0  0  0  0  0  0
   16.7626   14.0401  -11.5938 C   0  0  0  0  0  0  0  0  0  0  0  0
   17.9795   14.4107  -12.0741 O   0  0  0  0  0  0  0  0  0  0  0  0
   18.0605   15.1817  -12.6004 H   0  0  0  0  0  0  0  0  0  0  0  0
  1  2  2  0  0  0
  9 10  2  0  0  0
  9  8  1  0  0  0
  2  8  1  0  0  0
  2  3  1  0  0  0
 10 11  1  0  0  0
  8  7  2  0  0  0
  3  4  2  0  0  0
 11 12  2  0  0  0
  7 12  1  0  0  0
  7  5  1  0  0  0
  4  5  1  0  0  0
 12 13  1  0  0  0
  5  6  2  0  0  0
 13 14  1  0  0  0
M  END
> <minimizedAffinity>
-6.75335

$$$$
3B7J_JUG_B_163


 14 15  0  0  0  0  0  0  0  0999 V2000
   20.1850   13.0780  -12.4509 O   0  0  0  0  0  0  0  0  0  0  0  0
   19.1356   12.5129  -12.1448 C   0  0  0  0  0  0  0  0  0  0  0  0
   19.0994   11.1291  -12.0165 C   0  0  0  0  0  0  0  0  0  0  0  0
   17.9123   10.5011  -11.6514 C   0  0  0  0  0  0  0  0  0  0  0  0
   16.7701   11.2570  -11.4176 C   0  0  0  0  0  0  0  0  0  0  0  0
   15.7220   10.6947  -11.0958 O   0  0  0  0  0  0  0  0  0  0  0  0
   16.8049   12.6421  -11.5501 C   0  0  0  0  0  0  0  0  0  0  0  0
   17.9913   13.2678  -11.9154 C   0  0  0  0  0  0  0  0  0  0  0  0
   18.0300   14.6492  -12.0805 C   0  0  0  0  0  0  0  0  0  0  0  0
   16.8800   15.4056  -11.8816 C   0  0  0  0  0  0  0  0  0  0  0  0
   15.6935   14.7798  -11.5162 C   0  0  0  0  0  0  0  0  0  0  0  0
   15.6549   13.3990  -11.3479 C   0  0  0  0  0  0  0  0  0  0  0  0
   14.4937   12.7985  -10.9734 O   0  0  0  0  0  0  0  0  0  0  0  0
   13.7224   13.3131  -10.8386 H   0  0  0  0  0  0  0  0  0  0  0  0
  1  2  2  0  0  0
  9 10  2  0  0  0
  9  8  1  0  0  0
  2  8  1  0  0  0
  2  3  1  0  0  0
 10 11  1  0  0  0
  8  7  2  0  0  0
  3  4  2  0  0  0
 11 12  2  0  0  0
  7 12  1  0  0  0
  7  5  1  0  0  0
  4  5  1  0  0  0
 12 13  1  0  0  0
  5  6  2  0  0  0
 13 14  1  0  0  0
M  END
> <minimizedAffinity>
-6.72410

$$$$
3B7J_JUG_B_163


 14 15  0  0  0  0  0  0  0  0999 V2000
   14.9977   10.5559  -10.4786 O   0  0  0  0  0  0  0  0  0  0  0  0
   15.3914   11.6688  -10.8259 C   0  0  0  0  0  0  0  0  0  0  0  0
   14.5380   12.7641  -10.7573 C   0  0  0  0  0  0  0  0  0  0  0  0
   14.9986   14.0220  -11.1346 C   0  0  0  0  0  0  0  0  0  0  0  0
   16.3061   14.1786  -11.5782 C   0  0  0  0  0  0  0  0  0  0  0  0
   16.7073   15.2948  -11.9118 O   0  0  0  0  0  0  0  0  0  0  0  0
   17.1595   13.0815  -11.6510 C   0  0  0  0  0  0  0  0  0  0  0  0
   16.6977   11.8255  -11.2743 C   0  0  0  0  0  0  0  0  0  0  0  0
   17.5326   10.7164  -11.3719 C   0  0  0  0  0  0  0  0  0  0  0  0
   18.8309   10.8634  -11.8487 C   0  0  0  0  0  0  0  0  0  0  0  0
   19.2927   12.1194  -12.2254 C   0  0  0  0  0  0  0  0  0  0  0  0
   18.4595   13.2293  -12.1250 C   0  0  0  0  0  0  0  0  0  0  0  0
   18.9264   14.4563  -12.4796 O   0  0  0  0  0  0  0  0  0  0  0  0
   19.8026   14.5500  -12.7981 H   0  0  0  0  0  0  0  0  0  0  0  0
  1  2  2  0  0  0
  9 10  2  0  0  0
  9  8  1  0  0  0
  2  8  1  0  0  0
  2  3  1  0  0  0
 10 11  1  0  0  0
  8  7  2  0  0  0
  3  4  2  0  0  0
 11 12  2  0  0  0
  7 12  1  0  0  0
  7  5  1  0  0  0
  4  5  1  0  0  0
 12 13  1  0  0  0
  5  6  2  0  0  0
 13 14  1  0  0  0
M  END
> <minimizedAffinity>
-6.71767

$$$$
3B7J_JUG_B_163


 14 15  0  0  0  0  0  0  0  0999 V2000
   15.9487   10.4737  -10.3467 O   0  0  0  0  0  0  0  0  0  0  0  0
   16.7011   11.3237  -10.8216 C   0  0  0  0  0  0  0  0  0  0  0  0
   18.0373   11.0203  -11.0568 C   0  0  0  0  0  0  0  0  0  0  0  0
   18.8758   11.9825  -11.6118 C   0  0  0  0  0  0  0  0  0  0  0  0
   18.3762   13.2401  -11.9276 C   0  0  0  0  0  0  0  0  0  0  0  0
   19.1242   14.0879  -12.4178 O   0  0  0  0  0  0  0  0  0  0  0  0
   17.0396   13.5456  -11.6884 C   0  0  0  0  0  0  0  0  0  0  0  0
   16.2035   12.5835  -11.1334 C   0  0  0  0  0  0  0  0  0  0  0  0
   14.8730   12.8877  -10.8616 C   0  0  0  0  0  0  0  0  0  0  0  0
   14.3783   14.1566  -11.1438 C   0  0  0  0  0  0  0  0  0  0  0  0
   15.2143   15.1187  -11.6989 C   0  0  0  0  0  0  0  0  0  0  0  0
   16.5440   14.8142  -11.9738 C   0  0  0  0  0  0  0  0  0  0  0  0
   17.3490   15.7569  -12.5329 O   0  0  0  0  0  0  0  0  0  0  0  0
   17.0100   16.6095  -12.7229 H   0  0  0  0  0  0  0  0  0  0  0  0
  1  2  2  0  0  0
  9 10  2  0  0  0
  9  8  1  0  0  0
  2  8  1  0  0  0
  2  3  1  0  0  0
 10 11  1  0  0  0
  8  7  2  0  0  0
  3  4  2  0  0  0
 11 12  2  0  0  0
  7 12  1  0  0  0
  7  5  1  0  0  0
  4  5  1  0  0  0
 12 13  1  0  0  0
  5  6  2  0  0  0
 13 14  1  0  0  0
M  END
> <minimizedAffinity>
-6.67562

$$$$
3B7J_JUG_B_163


 14 15  0  0  0  0  0  0  0  0999 V2000
   16.6680   16.5945  -12.0489 O   0  0  0  0  0  0  0  0  0  0  0  0
   17.2839   15.5294  -12.0664 C   0  0  0  0  0  0  0  0  0  0  0  0
   16.5929   14.3241  -12.1176 C   0  0  0  0  0  0  0  0  0  0  0  0
   17.2990   13.1253  -12.1562 C   0  0  0  0  0  0  0  0  0  0  0  0
   18.6884   13.1370  -12.1428 C   0  0  0  0  0  0  0  0  0  0  0  0
   19.3075   12.0722  -12.1761 O   0  0  0  0  0  0  0  0  0  0  0  0
   19.3804   14.3434  -12.0873 C   0  0  0  0  0  0  0  0  0  0  0  0
   18.6736   15.5398  -12.0482 C   0  0  0  0  0  0  0  0  0  0  0  0
   19.3546   16.7505  -11.9618 C   0  0  0  0  0  0  0  0  0  0  0  0
   20.7445   16.7644  -11.9127 C   0  0  0  0  0  0  0  0  0  0  0  0
   21.4513   15.5679  -11.9518 C   0  0  0  0  0  0  0  0  0  0  0  0
   20.7712   14.3572  -12.0414 C   0  0  0  0  0  0  0  0  0  0  0  0
   21.4723   13.1934  -12.0967 O   0  0  0  0  0  0  0  0  0  0  0  0
   22.4087   13.2086  -12.0654 H   0  0  0  0  0  0  0  0  0  0  0  0
  1  2  2  0  0  0
  9 10  2  0  0  0
  9  8  1  0  0  0
  2  8  1  0  0  0
  2  3  1  0  0  0
 10 11  1  0  0  0
  8  7  2  0  0  0
  3  4  2  0  0  0
 11 12  2  0  0  0
  7 12  1  0  0  0
  7  5  1  0  0  0
  4  5  1  0  0  0
 12 13  1  0  0  0
  5  6  2  0  0  0
 13 14  1  0  0  0
M  END
> <minimizedAffinity>
-6.64330

$$$$
3B7J_JUG_B_163


 14 15  0  0  0  0  0  0  0  0999 V2000
   16.1525   10.6185  -11.7834 O   0  0  0  0  0  0  0  0  0  0  0  0
   17.2657   11.1225  -11.9282 C   0  0  0  0  0  0  0  0  0  0  0  0
   18.3805   10.3123  -12.1110 C   0  0  0  0  0  0  0  0  0  0  0  0
   19.6325   10.8925  -12.2929 C   0  0  0  0  0  0  0  0  0  0  0  0
   19.7638   12.2758  -12.2904 C   0  0  0  0  0  0  0  0  0  0  0  0
   20.8752   12.7831  -12.4508 O   0  0  0  0  0  0  0  0  0  0  0  0
   18.6485   13.0871  -12.1032 C   0  0  0  0  0  0  0  0  0  0  0  0
   17.3988   12.5060  -11.9211 C   0  0  0  0  0  0  0  0  0  0  0  0
   16.2817   13.3067  -11.7026 C   0  0  0  0  0  0  0  0  0  0  0  0
   16.4149   14.6906  -11.6644 C   0  0  0  0  0  0  0  0  0  0  0  0
   17.6646   15.2717  -11.8465 C   0  0  0  0  0  0  0  0  0  0  0  0
   18.7816   14.4719  -12.0682 C   0  0  0  0  0  0  0  0  0  0  0  0
   19.9966   15.0508  -12.2626 O   0  0  0  0  0  0  0  0  0  0  0  0
   20.0803   15.9837  -12.2380 H   0  0  0  0  0  0  0  0  0  0  0  0
  1  2  2  0  0  0
  9 10  2  0  0  0
  9  8  1  0  0  0
  2  8  1  0  0  0
  2  3  1  0  0  0
 10 11  1  0  0  0
  8  7  2  0  0  0
  3  4  2  0  0  0
 11 12  2  0  0  0
  7 12  1  0  0  0
  7  5  1  0  0  0
  4  5  1  0  0  0
 12 13  1  0  0  0
  5  6  2  0  0  0
 13 14  1  0  0  0
M  END
> <minimizedAffinity>
-6.64142

$$$$
