6EQU_BVE_A_302


 38 42  0  0  0  0  0  0  0  0999 V2000
   -0.9145    4.3973   10.7544 C   0  0  0  0  0  0  0  0  0  0  0  0
    0.0703    5.3800   10.6878 C   0  0  0  0  0  0  0  0  0  0  0  0
   -2.2793    5.8187   12.1059 N   0  0  0  0  0  0  0  0  0  0  0  0
   -2.0829    4.6193   11.4637 C   0  0  0  0  0  0  0  0  0  0  0  0
   -0.1442    6.5837   11.3539 C   0  0  0  0  0  0  0  0  0  0  0  0
   -1.3160    6.7978   12.0624 C   0  0  0  0  0  0  0  0  0  0  0  0
   -0.9751    8.2399   14.0685 C   0  0  0  0  0  0  0  0  0  0  0  0
   -1.4994    8.0680   12.7909 C   0  0  0  0  0  0  0  0  0  0  0  0
   -1.1077    9.4472   14.7358 C   0  0  0  0  0  0  0  0  0  0  0  0
   -1.7668   10.4999   14.1378 C   0  0  0  0  0  0  0  0  0  0  0  0
   -2.2944   10.3474   12.8734 C   0  0  0  0  0  0  0  0  0  0  0  0
   -2.1634    9.1411   12.2038 C   0  0  0  0  0  0  0  0  0  0  0  0
   -3.0965    3.5494   11.5388 C   0  0  0  0  0  0  0  0  0  0  0  0
   -4.1843    3.5331   10.6722 C   0  0  0  0  0  0  0  0  0  0  0  0
   -5.1019    2.4963   10.7056 C   0  0  0  0  0  0  0  0  0  0  0  0
   -4.9481    1.4623   11.6039 C   0  0  0  0  0  0  0  0  0  0  0  0
   -3.8773    1.4636   12.4725 C   0  0  0  0  0  0  0  0  0  0  0  0
   -2.9580    2.5000   12.4413 C   0  0  0  0  0  0  0  0  0  0  0  0
    1.3166    5.1495    9.9126 C   0  0  0  0  0  0  0  0  0  0  0  0
    1.7854    3.8597    9.6741 C   0  0  0  0  0  0  0  0  0  0  0  0
    2.9509    3.6468    8.9551 C   0  0  0  0  0  0  0  0  0  0  0  0
    3.6668    4.7167    8.4632 C   0  0  0  0  0  0  0  0  0  0  0  0
    3.2197    6.0004    8.6882 C   0  0  0  0  0  0  0  0  0  0  0  0
    2.0554    6.2152    9.4071 C   0  0  0  0  0  0  0  0  0  0  0  0
   -3.5670    6.0854   12.7799 C   0  0  0  0  0  0  0  0  0  0  0  0
   -3.4316    6.0327   14.2891 C   0  0  0  0  0  0  0  0  0  0  0  0
   -3.1662    3.8101   15.4417 C   0  0  0  0  0  0  0  0  0  0  0  0
   -3.6688    2.6376   15.9729 C   0  0  0  0  0  0  0  0  0  0  0  0
   -5.0352    2.4096   15.9532 C   0  0  0  0  0  0  0  0  0  0  0  0
   -5.8925    3.3519   15.4081 C   0  0  0  0  0  0  0  0  0  0  0  0
   -5.3680    4.5206   14.8780 C   0  0  0  0  0  0  0  0  0  0  0  0
   -4.0007    4.7652   14.8834 C   0  0  0  0  0  0  0  0  0  0  0  0
   -5.6740    0.9046   16.6261 S   0  0  0  0  0  0  0  0  0  0  0  0
   -7.1025    0.9687   16.4923 O   0  0  0  0  0  0  0  0  0  0  0  0
   -4.9864   -0.1850   15.9933 O   0  0  0  0  0  0  0  0  0  0  0  0
   -5.3330    0.8591   18.1897 N   0  0  0  0  0  0  0  0  0  0  0  0
   -4.3219    0.8131   18.3159 H   0  0  0  0  0  0  0  0  0  0  0  0
   -5.7657    0.0358   18.6083 H   0  0  0  0  0  0  0  0  0  0  0  0
 23 22  2  0  0  0
 23 24  1  0  0  0
 22 21  1  0  0  0
 24 19  2  0  0  0
 21 20  2  0  0  0
 19 20  1  0  0  0
 19  2  1  0  0  0
  2  1  2  0  0  0
  2  5  1  0  0  0
  1  4  1  0  0  0
  5  6  2  0  0  0
 14 15  2  0  0  0
 14 13  1  0  0  0
 15 16  1  0  0  0
  4 13  1  0  0  0
  4  3  2  0  0  0
 13 18  2  0  0  0
  6  3  1  0  0  0
  6  8  1  0  0  0
  3 25  1  0  0  0
 12  8  2  0  0  0
 12 11  1  0  0  0
 16 17  2  0  0  0
  8  7  1  0  0  0
 18 17  1  0  0  0
 11 10  2  0  0  0
 25 26  1  0  0  0
  7  9  2  0  0  0
 10  9  1  0  0  0
 26 32  1  0  0  0
 32 31  2  0  0  0
 32 27  1  0  0  0
 31 30  1  0  0  0
 27 28  2  0  0  0
 30 29  2  0  0  0
 28 29  1  0  0  0
 29 33  1  0  0  0
 36 33  1  0  0  0
 35 33  2  0  0  0
 33 34  2  0  0  0
 36 37  1  0  0  0
 36 38  1  0  0  0
M  CHG 1   3   1
M  END
> <minimizedAffinity>
-9.99195

$$$$
6EQU_BVE_A_302


 38 42  0  0  0  0  0  0  0  0999 V2000
   -0.1148    6.5716   11.2345 C   0  0  0  0  0  0  0  0  0  0  0  0
    0.1168    5.3435   10.6198 C   0  0  0  0  0  0  0  0  0  0  0  0
   -2.2260    5.7987   12.0440 N   0  0  0  0  0  0  0  0  0  0  0  0
   -1.2843    6.7950   11.9415 C   0  0  0  0  0  0  0  0  0  0  0  0
   -0.8543    4.3516   10.7273 C   0  0  0  0  0  0  0  0  0  0  0  0
   -2.0226    4.5832   11.4360 C   0  0  0  0  0  0  0  0  0  0  0  0
   -4.1002    3.4961   10.5862 C   0  0  0  0  0  0  0  0  0  0  0  0
   -3.0515    3.5271   11.5004 C   0  0  0  0  0  0  0  0  0  0  0  0
   -5.0418    2.4798   10.6175 C   0  0  0  0  0  0  0  0  0  0  0  0
   -4.9508    1.4805   11.5628 C   0  0  0  0  0  0  0  0  0  0  0  0
   -3.9198    1.4960   12.4777 C   0  0  0  0  0  0  0  0  0  0  0  0
   -2.9768    2.5113   12.4489 C   0  0  0  0  0  0  0  0  0  0  0  0
   -1.5138    8.1153   12.5594 C   0  0  0  0  0  0  0  0  0  0  0  0
   -0.9673    8.4291   13.7992 C   0  0  0  0  0  0  0  0  0  0  0  0
   -1.1349    9.6889   14.3496 C   0  0  0  0  0  0  0  0  0  0  0  0
   -1.8504   10.6525   13.6719 C   0  0  0  0  0  0  0  0  0  0  0  0
   -2.4019   10.3580   12.4430 C   0  0  0  0  0  0  0  0  0  0  0  0
   -2.2359    9.0981   11.8903 C   0  0  0  0  0  0  0  0  0  0  0  0
    1.3790    5.0970    9.8758 C   0  0  0  0  0  0  0  0  0  0  0  0
    1.9117    3.8143    9.7711 C   0  0  0  0  0  0  0  0  0  0  0  0
    3.0918    3.5870    9.0809 C   0  0  0  0  0  0  0  0  0  0  0  0
    3.7588    4.6353    8.4848 C   0  0  0  0  0  0  0  0  0  0  0  0
    3.2482    5.9117    8.5768 C   0  0  0  0  0  0  0  0  0  0  0  0
    2.0692    6.1409    9.2667 C   0  0  0  0  0  0  0  0  0  0  0  0
   -3.4267    6.0101   12.8790 C   0  0  0  0  0  0  0  0  0  0  0  0
   -3.1144    5.8695   14.3560 C   0  0  0  0  0  0  0  0  0  0  0  0
   -3.0867    3.6172   15.4809 C   0  0  0  0  0  0  0  0  0  0  0  0
   -3.7120    2.5235   16.0489 C   0  0  0  0  0  0  0  0  0  0  0  0
   -5.0943    2.4969   16.1375 C   0  0  0  0  0  0  0  0  0  0  0  0
   -5.8449    3.5608   15.6635 C   0  0  0  0  0  0  0  0  0  0  0  0
   -5.1986    4.6475   15.0948 C   0  0  0  0  0  0  0  0  0  0  0  0
   -3.8141    4.6906   14.9919 C   0  0  0  0  0  0  0  0  0  0  0  0
   -5.8912    1.0923   16.8571 S   0  0  0  0  0  0  0  0  0  0  0  0
   -7.3008    1.2662   16.6445 O   0  0  0  0  0  0  0  0  0  0  0  0
   -5.2696   -0.0859   16.3223 O   0  0  0  0  0  0  0  0  0  0  0  0
   -5.6310    1.1112   18.4367 N   0  0  0  0  0  0  0  0  0  0  0  0
   -4.6348    0.9893   18.6187 H   0  0  0  0  0  0  0  0  0  0  0  0
   -6.1523    0.3526   18.8763 H   0  0  0  0  0  0  0  0  0  0  0  0
 23 22  2  0  0  0
 23 24  1  0  0  0
 22 21  1  0  0  0
 24 19  2  0  0  0
 21 20  2  0  0  0
 19 20  1  0  0  0
 19  2  1  0  0  0
  2  1  2  0  0  0
  2  5  1  0  0  0
  1  4  1  0  0  0
  5  6  2  0  0  0
 14 15  2  0  0  0
 14 13  1  0  0  0
 15 16  1  0  0  0
  4 13  1  0  0  0
  4  3  2  0  0  0
 13 18  2  0  0  0
  6  3  1  0  0  0
  6  8  1  0  0  0
  3 25  1  0  0  0
 12  8  2  0  0  0
 12 11  1  0  0  0
 16 17  2  0  0  0
  8  7  1  0  0  0
 18 17  1  0  0  0
 11 10  2  0  0  0
 25 26  1  0  0  0
  7  9  2  0  0  0
 10  9  1  0  0  0
 26 32  1  0  0  0
 32 31  2  0  0  0
 32 27  1  0  0  0
 31 30  1  0  0  0
 27 28  2  0  0  0
 30 29  2  0  0  0
 28 29  1  0  0  0
 29 33  1  0  0  0
 36 33  1  0  0  0
 35 33  2  0  0  0
 33 34  2  0  0  0
 36 37  1  0  0  0
 36 38  1  0  0  0
M  CHG 1   3   1
M  END
> <minimizedAffinity>
-9.70592

$$$$
6EQU_BVE_A_302


 38 42  0  0  0  0  0  0  0  0999 V2000
   -5.1402    5.5981   13.0518 C   0  0  0  0  0  0  0  0  0  0  0  0
   -4.3562    5.3305   14.1714 C   0  0  0  0  0  0  0  0  0  0  0  0
   -3.6526    7.3488   12.3949 N   0  0  0  0  0  0  0  0  0  0  0  0
   -4.7871    6.6058   12.1702 C   0  0  0  0  0  0  0  0  0  0  0  0
   -3.2168    6.1015   14.3859 C   0  0  0  0  0  0  0  0  0  0  0  0
   -2.8705    7.1090   13.4992 C   0  0  0  0  0  0  0  0  0  0  0  0
   -0.4706    7.6795   13.1321 C   0  0  0  0  0  0  0  0  0  0  0  0
   -1.6791    7.9358   13.7726 C   0  0  0  0  0  0  0  0  0  0  0  0
    0.6368    8.4825   13.3539 C   0  0  0  0  0  0  0  0  0  0  0  0
    0.5541    9.5522   14.2194 C   0  0  0  0  0  0  0  0  0  0  0  0
   -0.6344    9.8202   14.8644 C   0  0  0  0  0  0  0  0  0  0  0  0
   -1.7435    9.0187   14.6446 C   0  0  0  0  0  0  0  0  0  0  0  0
   -5.6519    6.8839   11.0072 C   0  0  0  0  0  0  0  0  0  0  0  0
   -5.6075    6.0782    9.8744 C   0  0  0  0  0  0  0  0  0  0  0  0
   -6.4618    6.3060    8.8084 C   0  0  0  0  0  0  0  0  0  0  0  0
   -7.3713    7.3405    8.8570 C   0  0  0  0  0  0  0  0  0  0  0  0
   -7.4272    8.1512    9.9708 C   0  0  0  0  0  0  0  0  0  0  0  0
   -6.5732    7.9257   11.0385 C   0  0  0  0  0  0  0  0  0  0  0  0
   -4.7246    4.2381   15.1084 C   0  0  0  0  0  0  0  0  0  0  0  0
   -3.8170    3.2315   15.4299 C   0  0  0  0  0  0  0  0  0  0  0  0
   -4.1642    2.2104   16.3002 C   0  0  0  0  0  0  0  0  0  0  0  0
   -5.4217    2.1773   16.8631 C   0  0  0  0  0  0  0  0  0  0  0  0
   -6.3340    3.1638   16.5579 C   0  0  0  0  0  0  0  0  0  0  0  0
   -5.9890    4.1847   15.6878 C   0  0  0  0  0  0  0  0  0  0  0  0
   -3.2296    8.3572   11.4010 C   0  0  0  0  0  0  0  0  0  0  0  0
   -2.9699    7.7326   10.0441 C   0  0  0  0  0  0  0  0  0  0  0  0
   -1.7083    5.5693   10.3046 C   0  0  0  0  0  0  0  0  0  0  0  0
   -0.5483    4.8184   10.2935 C   0  0  0  0  0  0  0  0  0  0  0  0
    0.6555    5.4260    9.9753 C   0  0  0  0  0  0  0  0  0  0  0  0
    0.6959    6.7762    9.6666 C   0  0  0  0  0  0  0  0  0  0  0  0
   -0.4786    7.5124    9.6859 C   0  0  0  0  0  0  0  0  0  0  0  0
   -1.6944    6.9228   10.0077 C   0  0  0  0  0  0  0  0  0  0  0  0
    2.1389    4.4640    9.9704 S   0  0  0  0  0  0  0  0  0  0  0  0
    2.4635    4.2031   11.3448 O   0  0  0  0  0  0  0  0  0  0  0  0
    1.9292    3.3399    9.1026 O   0  0  0  0  0  0  0  0  0  0  0  0
    3.3198    5.3497    9.3507 N   0  0  0  0  0  0  0  0  0  0  0  0
    3.1159    5.5513    8.3719 H   0  0  0  0  0  0  0  0  0  0  0  0
    4.1994    4.8374    9.4163 H   0  0  0  0  0  0  0  0  0  0  0  0
 23 22  2  0  0  0
 23 24  1  0  0  0
 22 21  1  0  0  0
 24 19  2  0  0  0
 21 20  2  0  0  0
 19 20  1  0  0  0
 19  2  1  0  0  0
  2  1  2  0  0  0
  2  5  1  0  0  0
  1  4  1  0  0  0
  5  6  2  0  0  0
 14 15  2  0  0  0
 14 13  1  0  0  0
 15 16  1  0  0  0
  4 13  1  0  0  0
  4  3  2  0  0  0
 13 18  2  0  0  0
  6  3  1  0  0  0
  6  8  1  0  0  0
  3 25  1  0  0  0
 12  8  2  0  0  0
 12 11  1  0  0  0
 16 17  2  0  0  0
  8  7  1  0  0  0
 18 17  1  0  0  0
 11 10  2  0  0  0
 25 26  1  0  0  0
  7  9  2  0  0  0
 10  9  1  0  0  0
 26 32  1  0  0  0
 32 31  2  0  0  0
 32 27  1  0  0  0
 31 30  1  0  0  0
 27 28  2  0  0  0
 30 29  2  0  0  0
 28 29  1  0  0  0
 29 33  1  0  0  0
 36 33  1  0  0  0
 35 33  2  0  0  0
 33 34  2  0  0  0
 36 37  1  0  0  0
 36 38  1  0  0  0
M  CHG 1   3   1
M  END
> <minimizedAffinity>
-9.25419

$$$$
6EQU_BVE_A_302


 38 42  0  0  0  0  0  0  0  0999 V2000
   -2.8101    4.5930   13.4088 C   0  0  0  0  0  0  0  0  0  0  0  0
   -4.1767    4.6483   13.6719 C   0  0  0  0  0  0  0  0  0  0  0  0
   -3.0927    6.0050   11.5020 N   0  0  0  0  0  0  0  0  0  0  0  0
   -2.2744    5.2689   12.3255 C   0  0  0  0  0  0  0  0  0  0  0  0
   -4.9892    5.3912   12.8195 C   0  0  0  0  0  0  0  0  0  0  0  0
   -4.4454    6.0643   11.7368 C   0  0  0  0  0  0  0  0  0  0  0  0
   -5.9522    6.1789    9.7528 C   0  0  0  0  0  0  0  0  0  0  0  0
   -5.3359    6.8118   10.8279 C   0  0  0  0  0  0  0  0  0  0  0  0
   -6.8237    6.8687    8.9251 C   0  0  0  0  0  0  0  0  0  0  0  0
   -7.0914    8.2008    9.1579 C   0  0  0  0  0  0  0  0  0  0  0  0
   -6.4884    8.8449   10.2172 C   0  0  0  0  0  0  0  0  0  0  0  0
   -5.6163    8.1575   11.0465 C   0  0  0  0  0  0  0  0  0  0  0  0
   -0.8268    5.1699   12.0564 C   0  0  0  0  0  0  0  0  0  0  0  0
   -0.2801    4.0182   11.5005 C   0  0  0  0  0  0  0  0  0  0  0  0
    1.0689    3.9501   11.1944 C   0  0  0  0  0  0  0  0  0  0  0  0
    1.8912    5.0288   11.4390 C   0  0  0  0  0  0  0  0  0  0  0  0
    1.3669    6.1777   11.9925 C   0  0  0  0  0  0  0  0  0  0  0  0
    0.0176    6.2482   12.3001 C   0  0  0  0  0  0  0  0  0  0  0  0
   -4.7499    3.9377   14.8440 C   0  0  0  0  0  0  0  0  0  0  0  0
   -4.0716    2.8794   15.4441 C   0  0  0  0  0  0  0  0  0  0  0  0
   -4.6102    2.2144   16.5342 C   0  0  0  0  0  0  0  0  0  0  0  0
   -5.8336    2.5944   17.0423 C   0  0  0  0  0  0  0  0  0  0  0  0
   -6.5204    3.6389   16.4630 C   0  0  0  0  0  0  0  0  0  0  0  0
   -5.9840    4.3043   15.3730 C   0  0  0  0  0  0  0  0  0  0  0  0
   -2.5025    6.8009   10.4057 C   0  0  0  0  0  0  0  0  0  0  0  0
   -2.4842    6.0300    9.1002 C   0  0  0  0  0  0  0  0  0  0  0  0
   -0.7352    4.6012    7.9873 C   0  0  0  0  0  0  0  0  0  0  0  0
    0.5439    4.3751    7.5158 C   0  0  0  0  0  0  0  0  0  0  0  0
    1.4980    5.3739    7.6238 C   0  0  0  0  0  0  0  0  0  0  0  0
    1.1714    6.5923    8.1971 C   0  0  0  0  0  0  0  0  0  0  0  0
   -0.1168    6.7982    8.6663 C   0  0  0  0  0  0  0  0  0  0  0  0
   -1.0858    5.8076    8.5721 C   0  0  0  0  0  0  0  0  0  0  0  0
    3.1358    5.0781    7.0272 S   0  0  0  0  0  0  0  0  0  0  0  0
    3.1611    3.7231    6.5518 O   0  0  0  0  0  0  0  0  0  0  0  0
    3.4594    6.1239    6.0987 O   0  0  0  0  0  0  0  0  0  0  0  0
    4.1541    5.1813    8.2582 N   0  0  0  0  0  0  0  0  0  0  0  0
    4.1573    6.1359    8.6177 H   0  0  0  0  0  0  0  0  0  0  0  0
    5.0925    4.9329    7.9450 H   0  0  0  0  0  0  0  0  0  0  0  0
 23 22  2  0  0  0
 23 24  1  0  0  0
 22 21  1  0  0  0
 24 19  2  0  0  0
 21 20  2  0  0  0
 19 20  1  0  0  0
 19  2  1  0  0  0
  2  1  2  0  0  0
  2  5  1  0  0  0
  1  4  1  0  0  0
  5  6  2  0  0  0
 14 15  2  0  0  0
 14 13  1  0  0  0
 15 16  1  0  0  0
  4 13  1  0  0  0
  4  3  2  0  0  0
 13 18  2  0  0  0
  6  3  1  0  0  0
  6  8  1  0  0  0
  3 25  1  0  0  0
 12  8  2  0  0  0
 12 11  1  0  0  0
 16 17  2  0  0  0
  8  7  1  0  0  0
 18 17  1  0  0  0
 11 10  2  0  0  0
 25 26  1  0  0  0
  7  9  2  0  0  0
 10  9  1  0  0  0
 26 32  1  0  0  0
 32 31  2  0  0  0
 32 27  1  0  0  0
 31 30  1  0  0  0
 27 28  2  0  0  0
 30 29  2  0  0  0
 28 29  1  0  0  0
 29 33  1  0  0  0
 36 33  1  0  0  0
 35 33  2  0  0  0
 33 34  2  0  0  0
 36 37  1  0  0  0
 36 38  1  0  0  0
M  CHG 1   3   1
M  END
> <minimizedAffinity>
-9.19399

$$$$
6EQU_BVE_A_302


 38 42  0  0  0  0  0  0  0  0999 V2000
   -4.9798    5.4958   12.8041 C   0  0  0  0  0  0  0  0  0  0  0  0
   -4.1555    4.7511   13.6441 C   0  0  0  0  0  0  0  0  0  0  0  0
   -3.0998    6.1191   11.4674 N   0  0  0  0  0  0  0  0  0  0  0  0
   -4.4494    6.1775   11.7217 C   0  0  0  0  0  0  0  0  0  0  0  0
   -2.7900    4.7134   13.3747 C   0  0  0  0  0  0  0  0  0  0  0  0
   -2.2667    5.3992   12.2898 C   0  0  0  0  0  0  0  0  0  0  0  0
   -0.1871    4.2266   11.5684 C   0  0  0  0  0  0  0  0  0  0  0  0
   -0.8106    5.3732   12.0512 C   0  0  0  0  0  0  0  0  0  0  0  0
    1.1727    4.2148   11.3014 C   0  0  0  0  0  0  0  0  0  0  0  0
    1.9298    5.3470   11.5136 C   0  0  0  0  0  0  0  0  0  0  0  0
    1.3296    6.4915   11.9934 C   0  0  0  0  0  0  0  0  0  0  0  0
   -0.0301    6.5062   12.2615 C   0  0  0  0  0  0  0  0  0  0  0  0
   -5.3436    6.9801   10.8650 C   0  0  0  0  0  0  0  0  0  0  0  0
   -6.0665    6.3890    9.8342 C   0  0  0  0  0  0  0  0  0  0  0  0
   -6.9495    7.1334    9.0700 C   0  0  0  0  0  0  0  0  0  0  0  0
   -7.1232    8.4773    9.3222 C   0  0  0  0  0  0  0  0  0  0  0  0
   -6.4125    9.0806   10.3382 C   0  0  0  0  0  0  0  0  0  0  0  0
   -5.5281    8.3380   11.1041 C   0  0  0  0  0  0  0  0  0  0  0  0
   -4.7260    4.0052   14.7954 C   0  0  0  0  0  0  0  0  0  0  0  0
   -4.0224    2.9635   15.3955 C   0  0  0  0  0  0  0  0  0  0  0  0
   -4.5583    2.2655   16.4661 C   0  0  0  0  0  0  0  0  0  0  0  0
   -5.8041    2.5954   16.9546 C   0  0  0  0  0  0  0  0  0  0  0  0
   -6.5160    3.6228   16.3749 C   0  0  0  0  0  0  0  0  0  0  0  0
   -5.9823    4.3211   15.3044 C   0  0  0  0  0  0  0  0  0  0  0  0
   -2.5544    6.7690   10.2575 C   0  0  0  0  0  0  0  0  0  0  0  0
   -2.4819    5.8065    9.0883 C   0  0  0  0  0  0  0  0  0  0  0  0
   -0.6544    4.4322    8.0342 C   0  0  0  0  0  0  0  0  0  0  0  0
    0.6302    4.2645    7.5534 C   0  0  0  0  0  0  0  0  0  0  0  0
    1.5140    5.3311    7.5799 C   0  0  0  0  0  0  0  0  0  0  0  0
    1.1119    6.5586    8.0814 C   0  0  0  0  0  0  0  0  0  0  0  0
   -0.1804    6.7055    8.5614 C   0  0  0  0  0  0  0  0  0  0  0  0
   -1.0794    5.6468    8.5485 C   0  0  0  0  0  0  0  0  0  0  0  0
    3.1594    5.1105    6.9717 S   0  0  0  0  0  0  0  0  0  0  0  0
    3.2023    3.8088    6.3666 O   0  0  0  0  0  0  0  0  0  0  0  0
    3.4796    6.2450    6.1527 O   0  0  0  0  0  0  0  0  0  0  0  0
    4.1669    5.1026    8.2159 N   0  0  0  0  0  0  0  0  0  0  0  0
    4.1575    6.0174    8.6669 H   0  0  0  0  0  0  0  0  0  0  0  0
    5.1102    4.8947    7.8882 H   0  0  0  0  0  0  0  0  0  0  0  0
 23 22  2  0  0  0
 23 24  1  0  0  0
 22 21  1  0  0  0
 24 19  2  0  0  0
 21 20  2  0  0  0
 19 20  1  0  0  0
 19  2  1  0  0  0
  2  1  2  0  0  0
  2  5  1  0  0  0
  1  4  1  0  0  0
  5  6  2  0  0  0
 14 15  2  0  0  0
 14 13  1  0  0  0
 15 16  1  0  0  0
  4 13  1  0  0  0
  4  3  2  0  0  0
 13 18  2  0  0  0
  6  3  1  0  0  0
  6  8  1  0  0  0
  3 25  1  0  0  0
 12  8  2  0  0  0
 12 11  1  0  0  0
 16 17  2  0  0  0
  8  7  1  0  0  0
 18 17  1  0  0  0
 11 10  2  0  0  0
 25 26  1  0  0  0
  7  9  2  0  0  0
 10  9  1  0  0  0
 26 32  1  0  0  0
 32 31  2  0  0  0
 32 27  1  0  0  0
 31 30  1  0  0  0
 27 28  2  0  0  0
 30 29  2  0  0  0
 28 29  1  0  0  0
 29 33  1  0  0  0
 36 33  1  0  0  0
 35 33  2  0  0  0
 33 34  2  0  0  0
 36 37  1  0  0  0
 36 38  1  0  0  0
M  CHG 1   3   1
M  END
> <minimizedAffinity>
-9.08887

$$$$
6EQU_BVE_A_302


 38 42  0  0  0  0  0  0  0  0999 V2000
   -5.1647    5.7040   12.8888 C   0  0  0  0  0  0  0  0  0  0  0  0
   -4.3871    5.4324   14.0119 C   0  0  0  0  0  0  0  0  0  0  0  0
   -3.5662    7.3135   12.1380 N   0  0  0  0  0  0  0  0  0  0  0  0
   -4.7529    6.6434   11.9585 C   0  0  0  0  0  0  0  0  0  0  0  0
   -3.1936    6.1297   14.1798 C   0  0  0  0  0  0  0  0  0  0  0  0
   -2.7888    7.0690   13.2446 C   0  0  0  0  0  0  0  0  0  0  0  0
   -0.3916    7.5319   12.7354 C   0  0  0  0  0  0  0  0  0  0  0  0
   -1.5388    7.8208   13.4682 C   0  0  0  0  0  0  0  0  0  0  0  0
    0.7699    8.2666   12.9126 C   0  0  0  0  0  0  0  0  0  0  0  0
    0.8034    9.2995   13.8248 C   0  0  0  0  0  0  0  0  0  0  0  0
   -0.3229    9.5989   14.5612 C   0  0  0  0  0  0  0  0  0  0  0  0
   -1.4859    8.8657   14.3862 C   0  0  0  0  0  0  0  0  0  0  0  0
   -5.6109    6.9293   10.7923 C   0  0  0  0  0  0  0  0  0  0  0  0
   -5.3292    6.3802    9.5459 C   0  0  0  0  0  0  0  0  0  0  0  0
   -6.1690    6.6023    8.4672 C   0  0  0  0  0  0  0  0  0  0  0  0
   -7.3003    7.3754    8.6163 C   0  0  0  0  0  0  0  0  0  0  0  0
   -7.5935    7.9301    9.8440 C   0  0  0  0  0  0  0  0  0  0  0  0
   -6.7547    7.7098   10.9248 C   0  0  0  0  0  0  0  0  0  0  0  0
   -4.8194    4.4122   15.0016 C   0  0  0  0  0  0  0  0  0  0  0  0
   -3.9734    3.3704   15.3748 C   0  0  0  0  0  0  0  0  0  0  0  0
   -4.3803    2.4168   16.2944 C   0  0  0  0  0  0  0  0  0  0  0  0
   -5.6370    2.4872   16.8557 C   0  0  0  0  0  0  0  0  0  0  0  0
   -6.4888    3.5100   16.4997 C   0  0  0  0  0  0  0  0  0  0  0  0
   -6.0841    4.4637   15.5804 C   0  0  0  0  0  0  0  0  0  0  0  0
   -3.0861    8.2436   11.0948 C   0  0  0  0  0  0  0  0  0  0  0  0
   -3.5505    9.6637   11.3527 C   0  0  0  0  0  0  0  0  0  0  0  0
   -5.5111   11.0304   10.5607 C   0  0  0  0  0  0  0  0  0  0  0  0
   -6.3531   11.5083    9.5747 C   0  0  0  0  0  0  0  0  0  0  0  0
   -6.1324   11.1489    8.2550 C   0  0  0  0  0  0  0  0  0  0  0  0
   -5.0728   10.3191    7.9252 C   0  0  0  0  0  0  0  0  0  0  0  0
   -4.2412    9.8483    8.9296 C   0  0  0  0  0  0  0  0  0  0  0  0
   -4.4492   10.1927   10.2590 C   0  0  0  0  0  0  0  0  0  0  0  0
   -7.2167   11.7555    6.9971 S   0  0  0  0  0  0  0  0  0  0  0  0
   -6.9733   13.1668    6.8908 O   0  0  0  0  0  0  0  0  0  0  0  0
   -7.0237   10.9485    5.8257 O   0  0  0  0  0  0  0  0  0  0  0  0
   -8.7280   11.5575    7.4868 N   0  0  0  0  0  0  0  0  0  0  0  0
   -8.9302   10.5613    7.5715 H   0  0  0  0  0  0  0  0  0  0  0  0
   -9.3632   11.9768    6.8076 H   0  0  0  0  0  0  0  0  0  0  0  0
 23 22  2  0  0  0
 23 24  1  0  0  0
 22 21  1  0  0  0
 24 19  2  0  0  0
 21 20  2  0  0  0
 19 20  1  0  0  0
 19  2  1  0  0  0
  2  1  2  0  0  0
  2  5  1  0  0  0
  1  4  1  0  0  0
  5  6  2  0  0  0
 14 15  2  0  0  0
 14 13  1  0  0  0
 15 16  1  0  0  0
  4 13  1  0  0  0
  4  3  2  0  0  0
 13 18  2  0  0  0
  6  3  1  0  0  0
  6  8  1  0  0  0
  3 25  1  0  0  0
 12  8  2  0  0  0
 12 11  1  0  0  0
 16 17  2  0  0  0
  8  7  1  0  0  0
 18 17  1  0  0  0
 11 10  2  0  0  0
 25 26  1  0  0  0
  7  9  2  0  0  0
 10  9  1  0  0  0
 26 32  1  0  0  0
 32 31  2  0  0  0
 32 27  1  0  0  0
 31 30  1  0  0  0
 27 28  2  0  0  0
 30 29  2  0  0  0
 28 29  1  0  0  0
 29 33  1  0  0  0
 36 33  1  0  0  0
 35 33  2  0  0  0
 33 34  2  0  0  0
 36 37  1  0  0  0
 36 38  1  0  0  0
M  CHG 1   3   1
M  END
> <minimizedAffinity>
-8.85080

$$$$
6EQU_BVE_A_302


 38 42  0  0  0  0  0  0  0  0999 V2000
   -3.1990    6.0940   14.2896 C   0  0  0  0  0  0  0  0  0  0  0  0
   -4.3598    5.3501   14.0924 C   0  0  0  0  0  0  0  0  0  0  0  0
   -3.6410    7.3584   12.3108 N   0  0  0  0  0  0  0  0  0  0  0  0
   -2.8435    7.0925   13.3985 C   0  0  0  0  0  0  0  0  0  0  0  0
   -5.1480    5.6286   12.9789 C   0  0  0  0  0  0  0  0  0  0  0  0
   -4.7848    6.6291   12.0911 C   0  0  0  0  0  0  0  0  0  0  0  0
   -5.4908    6.0835    9.7621 C   0  0  0  0  0  0  0  0  0  0  0  0
   -5.6185    6.8762   10.8988 C   0  0  0  0  0  0  0  0  0  0  0  0
   -6.3039    6.2857    8.6584 C   0  0  0  0  0  0  0  0  0  0  0  0
   -7.2554    7.2830    8.6728 C   0  0  0  0  0  0  0  0  0  0  0  0
   -7.3950    8.0795    9.7893 C   0  0  0  0  0  0  0  0  0  0  0  0
   -6.5830    7.8796   10.8946 C   0  0  0  0  0  0  0  0  0  0  0  0
   -1.5940    7.8460   13.6189 C   0  0  0  0  0  0  0  0  0  0  0  0
   -0.3980    7.4314   13.0426 C   0  0  0  0  0  0  0  0  0  0  0  0
    0.7607    8.1730   13.2026 C   0  0  0  0  0  0  0  0  0  0  0  0
    0.7430    9.3373   13.9399 C   0  0  0  0  0  0  0  0  0  0  0  0
   -0.4331    9.7618   14.5211 C   0  0  0  0  0  0  0  0  0  0  0  0
   -1.5937    9.0215   14.3628 C   0  0  0  0  0  0  0  0  0  0  0  0
   -4.7513    4.2904   15.0574 C   0  0  0  0  0  0  0  0  0  0  0  0
   -6.0145    4.2849   15.6441 C   0  0  0  0  0  0  0  0  0  0  0  0
   -6.3761    3.2984   16.5479 C   0  0  0  0  0  0  0  0  0  0  0  0
   -5.4835    2.3025   16.8805 C   0  0  0  0  0  0  0  0  0  0  0  0
   -4.2290    2.2902   16.3110 C   0  0  0  0  0  0  0  0  0  0  0  0
   -3.8656    3.2756   15.4080 C   0  0  0  0  0  0  0  0  0  0  0  0
   -3.3074    8.4873   11.4176 C   0  0  0  0  0  0  0  0  0  0  0  0
   -3.0036    8.0167   10.0086 C   0  0  0  0  0  0  0  0  0  0  0  0
   -1.7947    5.8114   10.1272 C   0  0  0  0  0  0  0  0  0  0  0  0
   -0.6518    5.0362   10.0760 C   0  0  0  0  0  0  0  0  0  0  0  0
    0.5696    5.6368    9.8174 C   0  0  0  0  0  0  0  0  0  0  0  0
    0.6447    7.0044    9.6078 C   0  0  0  0  0  0  0  0  0  0  0  0
   -0.5132    7.7647    9.6659 C   0  0  0  0  0  0  0  0  0  0  0  0
   -1.7463    7.1821    9.9293 C   0  0  0  0  0  0  0  0  0  0  0  0
    2.0309    4.6432    9.7609 S   0  0  0  0  0  0  0  0  0  0  0  0
    2.3212    4.2627   11.1150 O   0  0  0  0  0  0  0  0  0  0  0  0
    1.8142    3.5994    8.7997 O   0  0  0  0  0  0  0  0  0  0  0  0
    3.2439    5.5482    9.2387 N   0  0  0  0  0  0  0  0  0  0  0  0
    3.0648    5.8342    8.2761 H   0  0  0  0  0  0  0  0  0  0  0  0
    4.1102    5.0112    9.2782 H   0  0  0  0  0  0  0  0  0  0  0  0
 23 22  2  0  0  0
 23 24  1  0  0  0
 22 21  1  0  0  0
 24 19  2  0  0  0
 21 20  2  0  0  0
 19 20  1  0  0  0
 19  2  1  0  0  0
  2  1  2  0  0  0
  2  5  1  0  0  0
  1  4  1  0  0  0
  5  6  2  0  0  0
 14 15  2  0  0  0
 14 13  1  0  0  0
 15 16  1  0  0  0
  4 13  1  0  0  0
  4  3  2  0  0  0
 13 18  2  0  0  0
  6  3  1  0  0  0
  6  8  1  0  0  0
  3 25  1  0  0  0
 12  8  2  0  0  0
 12 11  1  0  0  0
 16 17  2  0  0  0
  8  7  1  0  0  0
 18 17  1  0  0  0
 11 10  2  0  0  0
 25 26  1  0  0  0
  7  9  2  0  0  0
 10  9  1  0  0  0
 26 32  1  0  0  0
 32 31  2  0  0  0
 32 27  1  0  0  0
 31 30  1  0  0  0
 27 28  2  0  0  0
 30 29  2  0  0  0
 28 29  1  0  0  0
 29 33  1  0  0  0
 36 33  1  0  0  0
 35 33  2  0  0  0
 33 34  2  0  0  0
 36 37  1  0  0  0
 36 38  1  0  0  0
M  CHG 1   3   1
M  END
> <minimizedAffinity>
-8.80652

$$$$
6EQU_BVE_A_302


 38 42  0  0  0  0  0  0  0  0999 V2000
   -4.6768    5.8238   12.9358 C   0  0  0  0  0  0  0  0  0  0  0  0
   -3.9271    4.8688   13.6182 C   0  0  0  0  0  0  0  0  0  0  0  0
   -2.8141    6.3153   11.5222 N   0  0  0  0  0  0  0  0  0  0  0  0
   -4.1178    6.5437   11.8933 C   0  0  0  0  0  0  0  0  0  0  0  0
   -2.6054    4.6603   13.2331 C   0  0  0  0  0  0  0  0  0  0  0  0
   -2.0529    5.3855   12.1891 C   0  0  0  0  0  0  0  0  0  0  0  0
    0.3532    6.0351   12.2839 C   0  0  0  0  0  0  0  0  0  0  0  0
   -0.6381    5.1713   11.8282 C   0  0  0  0  0  0  0  0  0  0  0  0
    1.6870    5.8097   11.9830 C   0  0  0  0  0  0  0  0  0  0  0  0
    2.0504    4.7195   11.2217 C   0  0  0  0  0  0  0  0  0  0  0  0
    1.0818    3.8540   10.7598 C   0  0  0  0  0  0  0  0  0  0  0  0
   -0.2529    4.0770   11.0591 C   0  0  0  0  0  0  0  0  0  0  0  0
   -4.9284    7.5678   11.2065 C   0  0  0  0  0  0  0  0  0  0  0  0
   -6.1875    7.2623   10.7008 C   0  0  0  0  0  0  0  0  0  0  0  0
   -6.9704    8.2398   10.1094 C   0  0  0  0  0  0  0  0  0  0  0  0
   -6.5083    9.5348   10.0133 C   0  0  0  0  0  0  0  0  0  0  0  0
   -5.2611    9.8551   10.5065 C   0  0  0  0  0  0  0  0  0  0  0  0
   -4.4758    8.8788   11.0984 C   0  0  0  0  0  0  0  0  0  0  0  0
   -4.5312    4.0836   14.7254 C   0  0  0  0  0  0  0  0  0  0  0  0
   -5.8094    4.3735   15.1967 C   0  0  0  0  0  0  0  0  0  0  0  0
   -6.3693    3.6432   16.2330 C   0  0  0  0  0  0  0  0  0  0  0  0
   -5.6631    2.6130   16.8153 C   0  0  0  0  0  0  0  0  0  0  0  0
   -4.3971    2.3104   16.3633 C   0  0  0  0  0  0  0  0  0  0  0  0
   -3.8357    3.0395   15.3281 C   0  0  0  0  0  0  0  0  0  0  0  0
   -2.2538    7.0171   10.3487 C   0  0  0  0  0  0  0  0  0  0  0  0
   -2.5770    6.2940    9.0558 C   0  0  0  0  0  0  0  0  0  0  0  0
   -3.2296    8.4093    7.8564 C   0  0  0  0  0  0  0  0  0  0  0  0
   -4.0740    9.1515    7.0528 C   0  0  0  0  0  0  0  0  0  0  0  0
   -5.2151    8.5621    6.5331 C   0  0  0  0  0  0  0  0  0  0  0  0
   -5.5060    7.2368    6.8137 C   0  0  0  0  0  0  0  0  0  0  0  0
   -4.6474    6.5102    7.6241 C   0  0  0  0  0  0  0  0  0  0  0  0
   -3.5015    7.0846    8.1591 C   0  0  0  0  0  0  0  0  0  0  0  0
   -6.2975    9.5173    5.5123 S   0  0  0  0  0  0  0  0  0  0  0  0
   -7.6350    9.1038    5.8325 O   0  0  0  0  0  0  0  0  0  0  0  0
   -5.9595   10.9010    5.6897 O   0  0  0  0  0  0  0  0  0  0  0  0
   -6.0235    9.1368    3.9815 N   0  0  0  0  0  0  0  0  0  0  0  0
   -5.0777    9.4196    3.7249 H   0  0  0  0  0  0  0  0  0  0  0  0
   -6.6962    9.6194    3.3856 H   0  0  0  0  0  0  0  0  0  0  0  0
 23 22  2  0  0  0
 23 24  1  0  0  0
 22 21  1  0  0  0
 24 19  2  0  0  0
 21 20  2  0  0  0
 19 20  1  0  0  0
 19  2  1  0  0  0
  2  1  2  0  0  0
  2  5  1  0  0  0
  1  4  1  0  0  0
  5  6  2  0  0  0
 14 15  2  0  0  0
 14 13  1  0  0  0
 15 16  1  0  0  0
  4 13  1  0  0  0
  4  3  2  0  0  0
 13 18  2  0  0  0
  6  3  1  0  0  0
  6  8  1  0  0  0
  3 25  1  0  0  0
 12  8  2  0  0  0
 12 11  1  0  0  0
 16 17  2  0  0  0
  8  7  1  0  0  0
 18 17  1  0  0  0
 11 10  2  0  0  0
 25 26  1  0  0  0
  7  9  2  0  0  0
 10  9  1  0  0  0
 26 32  1  0  0  0
 32 31  2  0  0  0
 32 27  1  0  0  0
 31 30  1  0  0  0
 27 28  2  0  0  0
 30 29  2  0  0  0
 28 29  1  0  0  0
 29 33  1  0  0  0
 36 33  1  0  0  0
 35 33  2  0  0  0
 33 34  2  0  0  0
 36 37  1  0  0  0
 36 38  1  0  0  0
M  CHG 1   3   1
M  END
> <minimizedAffinity>
-8.32963

$$$$
6EQU_BVE_A_302


 38 42  0  0  0  0  0  0  0  0999 V2000
   -2.3694    6.9964   14.3117 C   0  0  0  0  0  0  0  0  0  0  0  0
   -2.5675    5.6512   14.0103 C   0  0  0  0  0  0  0  0  0  0  0  0
   -0.5683    7.1099   12.7456 N   0  0  0  0  0  0  0  0  0  0  0  0
   -1.3709    7.7191   13.6806 C   0  0  0  0  0  0  0  0  0  0  0  0
   -1.7369    5.0508   13.0677 C   0  0  0  0  0  0  0  0  0  0  0  0
   -0.7392    5.7808   12.4411 C   0  0  0  0  0  0  0  0  0  0  0  0
   -0.3235    4.6985   10.2329 C   0  0  0  0  0  0  0  0  0  0  0  0
    0.1512    5.1086   11.4751 C   0  0  0  0  0  0  0  0  0  0  0  0
    0.5220    4.1078    9.3075 C   0  0  0  0  0  0  0  0  0  0  0  0
    1.8534    3.9166    9.6092 C   0  0  0  0  0  0  0  0  0  0  0  0
    2.3411    4.3148   10.8356 C   0  0  0  0  0  0  0  0  0  0  0  0
    1.4977    4.9057   11.7632 C   0  0  0  0  0  0  0  0  0  0  0  0
   -1.1675    9.1358   14.0401 C   0  0  0  0  0  0  0  0  0  0  0  0
   -0.1153    9.5202   14.8645 C   0  0  0  0  0  0  0  0  0  0  0  0
    0.1084   10.8564   15.1522 C   0  0  0  0  0  0  0  0  0  0  0  0
   -0.7143   11.8272   14.6228 C   0  0  0  0  0  0  0  0  0  0  0  0
   -1.7642   11.4641   13.8060 C   0  0  0  0  0  0  0  0  0  0  0  0
   -1.9903   10.1279   13.5169 C   0  0  0  0  0  0  0  0  0  0  0  0
   -3.6497    4.8795   14.6740 C   0  0  0  0  0  0  0  0  0  0  0  0
   -3.4225    3.5918   15.1542 C   0  0  0  0  0  0  0  0  0  0  0  0
   -4.4346    2.8715   15.7685 C   0  0  0  0  0  0  0  0  0  0  0  0
   -5.6888    3.4240   15.9131 C   0  0  0  0  0  0  0  0  0  0  0  0
   -5.9339    4.6965   15.4449 C   0  0  0  0  0  0  0  0  0  0  0  0
   -4.9237    5.4177   14.8301 C   0  0  0  0  0  0  0  0  0  0  0  0
    0.4310    7.9095   12.0069 C   0  0  0  0  0  0  0  0  0  0  0  0
   -0.1510    8.5008   10.7378 C   0  0  0  0  0  0  0  0  0  0  0  0
   -0.2089    7.7059    8.3495 C   0  0  0  0  0  0  0  0  0  0  0  0
    0.3938    7.2190    7.2053 C   0  0  0  0  0  0  0  0  0  0  0  0
    1.7635    7.0108    7.1906 C   0  0  0  0  0  0  0  0  0  0  0  0
    2.5245    7.2921    8.3138 C   0  0  0  0  0  0  0  0  0  0  0  0
    1.9003    7.7774    9.4526 C   0  0  0  0  0  0  0  0  0  0  0  0
    0.5278    7.9877    9.4889 C   0  0  0  0  0  0  0  0  0  0  0  0
    2.5300    6.3798    5.7276 S   0  0  0  0  0  0  0  0  0  0  0  0
    2.6487    4.9597    5.9061 O   0  0  0  0  0  0  0  0  0  0  0  0
    1.7808    6.8567    4.5999 O   0  0  0  0  0  0  0  0  0  0  0  0
    4.0094    6.9831    5.6254 N   0  0  0  0  0  0  0  0  0  0  0  0
    3.9564    7.9937    5.4978 H   0  0  0  0  0  0  0  0  0  0  0  0
    4.4930    6.5650    4.8306 H   0  0  0  0  0  0  0  0  0  0  0  0
 23 22  2  0  0  0
 23 24  1  0  0  0
 22 21  1  0  0  0
 24 19  2  0  0  0
 21 20  2  0  0  0
 19 20  1  0  0  0
 19  2  1  0  0  0
  2  1  2  0  0  0
  2  5  1  0  0  0
  1  4  1  0  0  0
  5  6  2  0  0  0
 14 15  2  0  0  0
 14 13  1  0  0  0
 15 16  1  0  0  0
  4 13  1  0  0  0
  4  3  2  0  0  0
 13 18  2  0  0  0
  6  3  1  0  0  0
  6  8  1  0  0  0
  3 25  1  0  0  0
 12  8  2  0  0  0
 12 11  1  0  0  0
 16 17  2  0  0  0
  8  7  1  0  0  0
 18 17  1  0  0  0
 11 10  2  0  0  0
 25 26  1  0  0  0
  7  9  2  0  0  0
 10  9  1  0  0  0
 26 32  1  0  0  0
 32 31  2  0  0  0
 32 27  1  0  0  0
 31 30  1  0  0  0
 27 28  2  0  0  0
 30 29  2  0  0  0
 28 29  1  0  0  0
 29 33  1  0  0  0
 36 33  1  0  0  0
 35 33  2  0  0  0
 33 34  2  0  0  0
 36 37  1  0  0  0
 36 38  1  0  0  0
M  CHG 1   3   1
M  END
> <minimizedAffinity>
-8.16636

$$$$
6EQU_BVE_A_302


 38 42  0  0  0  0  0  0  0  0999 V2000
   -5.1223    6.2717   11.7496 C   0  0  0  0  0  0  0  0  0  0  0  0
   -4.9207    7.1220   10.6651 C   0  0  0  0  0  0  0  0  0  0  0  0
   -2.9869    6.8625   12.6443 N   0  0  0  0  0  0  0  0  0  0  0  0
   -4.1554    6.1439   12.7326 C   0  0  0  0  0  0  0  0  0  0  0  0
   -3.7259    7.8329   10.5897 C   0  0  0  0  0  0  0  0  0  0  0  0
   -2.7626    7.6989   11.5772 C   0  0  0  0  0  0  0  0  0  0  0  0
   -0.2698    7.7754   11.5685 C   0  0  0  0  0  0  0  0  0  0  0  0
   -1.4897    8.4347   11.4511 C   0  0  0  0  0  0  0  0  0  0  0  0
    0.9259    8.4567   11.4058 C   0  0  0  0  0  0  0  0  0  0  0  0
    0.9212    9.8063   11.1250 C   0  0  0  0  0  0  0  0  0  0  0  0
   -0.2777   10.4764   11.0071 C   0  0  0  0  0  0  0  0  0  0  0  0
   -1.4751    9.7977   11.1695 C   0  0  0  0  0  0  0  0  0  0  0  0
   -4.3858    5.2150   13.8559 C   0  0  0  0  0  0  0  0  0  0  0  0
   -5.5335    5.3072   14.6360 C   0  0  0  0  0  0  0  0  0  0  0  0
   -5.7754    4.3975   15.6518 C   0  0  0  0  0  0  0  0  0  0  0  0
   -4.8760    3.3840   15.9042 C   0  0  0  0  0  0  0  0  0  0  0  0
   -3.7313    3.2791   15.1427 C   0  0  0  0  0  0  0  0  0  0  0  0
   -3.4868    4.1884   14.1261 C   0  0  0  0  0  0  0  0  0  0  0  0
   -5.9648    7.2731    9.6190 C   0  0  0  0  0  0  0  0  0  0  0  0
   -7.1741    7.9056    9.8979 C   0  0  0  0  0  0  0  0  0  0  0  0
   -8.1489    8.0411    8.9222 C   0  0  0  0  0  0  0  0  0  0  0  0
   -7.9329    7.5478    7.6536 C   0  0  0  0  0  0  0  0  0  0  0  0
   -6.7431    6.9190    7.3576 C   0  0  0  0  0  0  0  0  0  0  0  0
   -5.7680    6.7821    8.3317 C   0  0  0  0  0  0  0  0  0  0  0  0
   -2.0017    6.7950   13.7436 C   0  0  0  0  0  0  0  0  0  0  0  0
   -2.3663    7.7283   14.8815 C   0  0  0  0  0  0  0  0  0  0  0  0
   -2.3623   10.2126   14.4726 C   0  0  0  0  0  0  0  0  0  0  0  0
   -1.7288   11.4365   14.3701 C   0  0  0  0  0  0  0  0  0  0  0  0
   -0.3644   11.5203   14.5959 C   0  0  0  0  0  0  0  0  0  0  0  0
    0.3596   10.3859   14.9259 C   0  0  0  0  0  0  0  0  0  0  0  0
   -0.2943    9.1671   15.0212 C   0  0  0  0  0  0  0  0  0  0  0  0
   -1.6603    9.0616   14.7932 C   0  0  0  0  0  0  0  0  0  0  0  0
    0.4441   13.0863   14.4555 S   0  0  0  0  0  0  0  0  0  0  0  0
    1.8363   12.8548   14.7211 O   0  0  0  0  0  0  0  0  0  0  0  0
    0.0855   13.6524   13.1860 O   0  0  0  0  0  0  0  0  0  0  0  0
   -0.1158   14.0545   15.6011 N   0  0  0  0  0  0  0  0  0  0  0  0
   -1.1059   14.2371   15.4379 H   0  0  0  0  0  0  0  0  0  0  0  0
    0.3996   14.9346   15.5843 H   0  0  0  0  0  0  0  0  0  0  0  0
 23 22  2  0  0  0
 23 24  1  0  0  0
 22 21  1  0  0  0
 24 19  2  0  0  0
 21 20  2  0  0  0
 19 20  1  0  0  0
 19  2  1  0  0  0
  2  1  2  0  0  0
  2  5  1  0  0  0
  1  4  1  0  0  0
  5  6  2  0  0  0
 14 15  2  0  0  0
 14 13  1  0  0  0
 15 16  1  0  0  0
  4 13  1  0  0  0
  4  3  2  0  0  0
 13 18  2  0  0  0
  6  3  1  0  0  0
  6  8  1  0  0  0
  3 25  1  0  0  0
 12  8  2  0  0  0
 12 11  1  0  0  0
 16 17  2  0  0  0
  8  7  1  0  0  0
 18 17  1  0  0  0
 11 10  2  0  0  0
 25 26  1  0  0  0
  7  9  2  0  0  0
 10  9  1  0  0  0
 26 32  1  0  0  0
 32 31  2  0  0  0
 32 27  1  0  0  0
 31 30  1  0  0  0
 27 28  2  0  0  0
 30 29  2  0  0  0
 28 29  1  0  0  0
 29 33  1  0  0  0
 36 33  1  0  0  0
 35 33  2  0  0  0
 33 34  2  0  0  0
 36 37  1  0  0  0
 36 38  1  0  0  0
M  CHG 1   3   1
M  END
> <minimizedAffinity>
-7.81019

$$$$
