1WN6_BST_A_1003


 42 43  0  0  0  0  0  0  0  0999 V2000
   43.3130   16.2420   38.3079 C   0  0  0  0  0  0  0  0  0  0  0  0
   42.9878   17.2052   39.4109 C   0  0  0  0  0  0  0  0  0  0  0  0
   43.5057   18.4521   39.5289 C   0  0  0  0  0  0  0  0  0  0  0  0
   44.5339   18.8048   38.3740 C   0  0  0  0  0  0  0  0  0  0  0  0
   44.4532   17.9257   37.0907 C   0  0  0  0  0  0  0  0  0  0  0  0
   44.5026   16.5797   37.5617 O   0  0  0  0  0  0  0  0  0  0  0  0
   43.5547   14.8250   38.7238 N   0  0  0  0  0  0  0  0  0  0  0  0
   42.6461   13.8195   38.1843 C   0  0  0  0  0  0  0  0  0  0  0  0
   41.7174   14.0951   37.4325 O   0  0  0  0  0  0  0  0  0  0  0  0
   42.8571   12.4716   38.5565 N   0  0  0  0  0  0  0  0  0  0  0  0
   43.9593   12.1390   39.4529 C   0  0  0  0  0  0  0  0  0  0  0  0
   44.8829   13.2365   39.9888 C   0  0  0  0  0  0  0  0  0  0  0  0
   44.6403   14.4871   39.6069 C   0  0  0  0  0  0  0  0  0  0  0  0
   44.8538   11.1846   38.7122 N   0  0  0  0  0  0  0  0  0  0  0  0
   43.3232   11.4569   40.5145 O   0  0  0  0  0  0  0  0  0  0  0  0
   42.2654   11.7635   38.2135 H   0  0  0  0  0  0  0  0  0  0  0  0
   45.3138   11.6753   37.9454 H   0  0  0  0  0  0  0  0  0  0  0  0
   44.2962   10.4166   38.3385 H   0  0  0  0  0  0  0  0  0  0  0  0
   42.7455   12.0715   40.9936 H   0  0  0  0  0  0  0  0  0  0  0  0
   46.0495   18.7771   35.3773 O   0  0  0  0  0  0  0  0  0  0  0  0
   46.3117   16.7026   36.1585 O   0  0  0  0  0  0  0  0  0  0  0  0
   45.6424   17.9303   36.1260 C   0  0  0  0  0  0  0  0  0  0  0  0
   45.6212   19.6093   35.3340 H   0  0  0  0  0  0  0  0  0  0  0  0
   44.3988   20.2133   37.9748 N   0  0  0  0  0  0  0  0  0  0  0  0
   45.3729   21.1938   37.7359 C   0  0  0  0  0  0  0  0  0  0  0  0
   46.5770   20.9249   37.8559 O   0  0  0  0  0  0  0  0  0  0  0  0
   43.4706   20.5189   37.8554 H   0  0  0  0  0  0  0  0  0  0  0  0
   44.8606   22.5758   37.3252 C   0  0  0  0  0  0  0  0  0  0  0  0
   45.7701   23.3488   36.3298 C   0  0  0  0  0  0  0  0  0  0  0  0
   47.1651   23.5313   36.7617 N   0  0  0  0  0  0  0  0  0  0  0  0
   47.6248   22.6226   36.8194 H   0  0  0  0  0  0  0  0  0  0  0  0
   47.1814   23.9794   37.6779 H   0  0  0  0  0  0  0  0  0  0  0  0
   45.7963   22.6453   34.9347 C   0  0  0  0  0  0  0  0  0  0  0  0
   47.1864   22.6980   34.2364 C   0  0  0  0  0  0  0  0  0  0  0  0
   47.7410   21.3877   33.8705 N   0  0  0  0  0  0  0  0  0  0  0  0
   47.2949   20.7934   32.6036 C   0  0  0  0  0  0  0  0  0  0  0  0
   48.6900   20.7382   34.7143 C   0  0  0  0  0  0  0  0  0  0  0  0
   49.7391   20.0475   34.0241 N   0  0  0  0  0  0  0  0  0  0  0  0
   48.6928   20.7126   36.0103 N   0  0  0  0  0  0  0  0  0  0  0  0
   49.7647   20.0483   33.0400 H   0  0  0  0  0  0  0  0  0  0  0  0
   47.9856   21.1775   36.5134 H   0  0  0  0  0  0  0  0  0  0  0  0
   49.4020   20.2282   36.4916 H   0  0  0  0  0  0  0  0  0  0  0  0
 20 22  1  0  0  0
  7  8  1  0  0  0
  7 13  1  0  0  0
  7  1  1  0  0  0
  8  9  2  0  0  0
  8 10  1  0  0  0
 10 11  1  0  0  0
 11 12  1  0  0  0
 11 14  1  0  0  0
 11 15  1  0  0  0
 12 13  2  0  0  0
  1  2  1  0  0  0
  1  6  1  0  0  0
  2  3  2  0  0  0
  3  4  1  0  0  0
  4  5  1  0  0  0
  4 24  1  0  0  0
  5  6  1  0  0  0
  5 22  1  0  0  0
 21 22  2  0  0  0
 24 25  1  0  0  0
 25 26  2  0  0  0
 25 28  1  0  0  0
 28 29  1  0  0  0
 29 30  1  0  0  0
 29 33  1  0  0  0
 33 34  1  0  0  0
 34 35  1  0  0  0
 35 36  1  0  0  0
 35 37  1  0  0  0
 37 38  2  0  0  0
 37 39  1  0  0  0
 20 23  1  0  0  0
 10 16  1  0  0  0
 24 27  1  0  0  0
 30 31  1  0  0  0
 30 32  1  0  0  0
 38 40  1  0  0  0
 39 41  1  0  0  0
 39 42  1  0  0  0
 14 17  1  0  0  0
 14 18  1  0  0  0
 15 19  1  0  0  0
M  END
> <minimizedAffinity>
-10.78035

$$$$
1WN6_BST_A_1003


 42 43  0  0  0  0  0  0  0  0999 V2000
   43.2508   16.2644   38.2535 C   0  0  0  0  0  0  0  0  0  0  0  0
   42.8485   17.2624   39.2986 C   0  0  0  0  0  0  0  0  0  0  0  0
   43.3258   18.5278   39.3863 C   0  0  0  0  0  0  0  0  0  0  0  0
   44.3959   18.8627   38.2647 C   0  0  0  0  0  0  0  0  0  0  0  0
   44.3988   17.9293   37.0178 C   0  0  0  0  0  0  0  0  0  0  0  0
   44.4638   16.6060   37.5476 O   0  0  0  0  0  0  0  0  0  0  0  0
   43.5123   14.8736   38.7399 N   0  0  0  0  0  0  0  0  0  0  0  0
   42.6192   13.8293   38.2505 C   0  0  0  0  0  0  0  0  0  0  0  0
   41.6880   14.0534   37.4849 O   0  0  0  0  0  0  0  0  0  0  0  0
   42.8491   12.5049   38.6898 N   0  0  0  0  0  0  0  0  0  0  0  0
   43.9543   12.2336   39.6028 C   0  0  0  0  0  0  0  0  0  0  0  0
   44.8611   13.3698   40.0841 C   0  0  0  0  0  0  0  0  0  0  0  0
   44.6010   14.5961   39.6399 C   0  0  0  0  0  0  0  0  0  0  0  0
   44.8638   11.2564   38.9117 N   0  0  0  0  0  0  0  0  0  0  0  0
   43.3264   11.5962   40.6966 O   0  0  0  0  0  0  0  0  0  0  0  0
   42.2682   11.7720   38.3820 H   0  0  0  0  0  0  0  0  0  0  0  0
   45.3180   11.7148   38.1218 H   0  0  0  0  0  0  0  0  0  0  0  0
   44.3181   10.4626   38.5763 H   0  0  0  0  0  0  0  0  0  0  0  0
   42.7390   12.2255   41.1438 H   0  0  0  0  0  0  0  0  0  0  0  0
   46.0388   18.7486   35.3302 O   0  0  0  0  0  0  0  0  0  0  0  0
   46.3452   16.7342   36.2417 O   0  0  0  0  0  0  0  0  0  0  0  0
   45.6307   17.9291   36.1082 C   0  0  0  0  0  0  0  0  0  0  0  0
   45.5807   19.5585   35.2197 H   0  0  0  0  0  0  0  0  0  0  0  0
   44.2404   20.2488   37.8001 N   0  0  0  0  0  0  0  0  0  0  0  0
   45.1673   21.2992   37.7290 C   0  0  0  0  0  0  0  0  0  0  0  0
   46.3387   21.1288   38.0968 O   0  0  0  0  0  0  0  0  0  0  0  0
   43.3355   20.4778   37.4869 H   0  0  0  0  0  0  0  0  0  0  0  0
   44.6477   22.6288   37.1783 C   0  0  0  0  0  0  0  0  0  0  0  0
   44.7643   23.8370   38.1491 C   0  0  0  0  0  0  0  0  0  0  0  0
   46.1334   24.1837   38.5625 N   0  0  0  0  0  0  0  0  0  0  0  0
   46.6634   24.5016   37.7511 H   0  0  0  0  0  0  0  0  0  0  0  0
   46.5858   23.3621   38.9634 H   0  0  0  0  0  0  0  0  0  0  0  0
   44.1205   25.1178   37.5272 C   0  0  0  0  0  0  0  0  0  0  0  0
   44.9896   26.3978   37.6984 C   0  0  0  0  0  0  0  0  0  0  0  0
   44.3916   27.4384   38.5458 N   0  0  0  0  0  0  0  0  0  0  0  0
   43.5547   28.4499   37.8872 C   0  0  0  0  0  0  0  0  0  0  0  0
   44.6090   27.4422   39.9555 C   0  0  0  0  0  0  0  0  0  0  0  0
   44.7949   28.7399   40.5347 N   0  0  0  0  0  0  0  0  0  0  0  0
   44.6550   26.4118   40.7406 N   0  0  0  0  0  0  0  0  0  0  0  0
   44.7655   29.5421   39.9647 H   0  0  0  0  0  0  0  0  0  0  0  0
   44.5311   25.5069   40.3730 H   0  0  0  0  0  0  0  0  0  0  0  0
   44.8138   26.5340   41.7045 H   0  0  0  0  0  0  0  0  0  0  0  0
 20 22  1  0  0  0
  7  8  1  0  0  0
  7 13  1  0  0  0
  7  1  1  0  0  0
  8  9  2  0  0  0
  8 10  1  0  0  0
 10 11  1  0  0  0
 11 12  1  0  0  0
 11 14  1  0  0  0
 11 15  1  0  0  0
 12 13  2  0  0  0
  1  2  1  0  0  0
  1  6  1  0  0  0
  2  3  2  0  0  0
  3  4  1  0  0  0
  4  5  1  0  0  0
  4 24  1  0  0  0
  5  6  1  0  0  0
  5 22  1  0  0  0
 21 22  2  0  0  0
 24 25  1  0  0  0
 25 26  2  0  0  0
 25 28  1  0  0  0
 28 29  1  0  0  0
 29 30  1  0  0  0
 29 33  1  0  0  0
 33 34  1  0  0  0
 34 35  1  0  0  0
 35 36  1  0  0  0
 35 37  1  0  0  0
 37 38  2  0  0  0
 37 39  1  0  0  0
 20 23  1  0  0  0
 10 16  1  0  0  0
 24 27  1  0  0  0
 30 31  1  0  0  0
 30 32  1  0  0  0
 38 40  1  0  0  0
 39 41  1  0  0  0
 39 42  1  0  0  0
 14 17  1  0  0  0
 14 18  1  0  0  0
 15 19  1  0  0  0
M  END
> <minimizedAffinity>
-10.08650

$$$$
1WN6_BST_A_1003


 42 43  0  0  0  0  0  0  0  0999 V2000
   43.2806   16.1795   38.2047 C   0  0  0  0  0  0  0  0  0  0  0  0
   42.8532   17.1376   39.2768 C   0  0  0  0  0  0  0  0  0  0  0  0
   43.3261   18.3994   39.4219 C   0  0  0  0  0  0  0  0  0  0  0  0
   44.4205   18.7767   38.3378 C   0  0  0  0  0  0  0  0  0  0  0  0
   44.4529   17.8900   37.0575 C   0  0  0  0  0  0  0  0  0  0  0  0
   44.5084   16.5481   37.5393 O   0  0  0  0  0  0  0  0  0  0  0  0
   43.5336   14.7718   38.6450 N   0  0  0  0  0  0  0  0  0  0  0  0
   42.6013   13.7575   38.1658 C   0  0  0  0  0  0  0  0  0  0  0  0
   41.6451   14.0188   37.4441 O   0  0  0  0  0  0  0  0  0  0  0  0
   42.8223   12.4180   38.5620 N   0  0  0  0  0  0  0  0  0  0  0  0
   43.9573   12.1025   39.4228 C   0  0  0  0  0  0  0  0  0  0  0  0
   44.9047   13.2087   39.8957 C   0  0  0  0  0  0  0  0  0  0  0  0
   44.6515   14.4507   39.4933 C   0  0  0  0  0  0  0  0  0  0  0  0
   44.8191   11.1267   38.6713 N   0  0  0  0  0  0  0  0  0  0  0  0
   43.3608   11.4489   40.5245 O   0  0  0  0  0  0  0  0  0  0  0  0
   42.2152   11.7044   38.2595 H   0  0  0  0  0  0  0  0  0  0  0  0
   45.2506   11.5968   37.8755 H   0  0  0  0  0  0  0  0  0  0  0  0
   44.2449   10.3523   38.3382 H   0  0  0  0  0  0  0  0  0  0  0  0
   42.8042   12.0772   41.0106 H   0  0  0  0  0  0  0  0  0  0  0  0
   46.1695   18.8004   35.4977 O   0  0  0  0  0  0  0  0  0  0  0  0
   46.3591   16.6887   36.1959 O   0  0  0  0  0  0  0  0  0  0  0  0
   45.7049   17.9248   36.1764 C   0  0  0  0  0  0  0  0  0  0  0  0
   45.7528   19.6390   35.4650 H   0  0  0  0  0  0  0  0  0  0  0  0
   44.2729   20.1789   37.9214 N   0  0  0  0  0  0  0  0  0  0  0  0
   45.2348   21.1804   37.7234 C   0  0  0  0  0  0  0  0  0  0  0  0
   46.4373   20.9407   37.9050 O   0  0  0  0  0  0  0  0  0  0  0  0
   43.3449   20.4619   37.7537 H   0  0  0  0  0  0  0  0  0  0  0  0
   44.7117   22.5472   37.2770 C   0  0  0  0  0  0  0  0  0  0  0  0
   45.8028   23.5551   36.8195 C   0  0  0  0  0  0  0  0  0  0  0  0
   46.0014   23.6519   35.3646 N   0  0  0  0  0  0  0  0  0  0  0  0
   45.1585   24.0282   34.9306 H   0  0  0  0  0  0  0  0  0  0  0  0
   46.1941   22.7248   34.9853 H   0  0  0  0  0  0  0  0  0  0  0  0
   45.4941   24.9921   37.3502 C   0  0  0  0  0  0  0  0  0  0  0  0
   44.0599   25.1453   37.9354 C   0  0  0  0  0  0  0  0  0  0  0  0
   43.4639   26.4769   37.7621 N   0  0  0  0  0  0  0  0  0  0  0  0
   44.0006   27.5710   38.5821 C   0  0  0  0  0  0  0  0  0  0  0  0
   42.4175   26.6880   36.8161 C   0  0  0  0  0  0  0  0  0  0  0  0
   42.5727   27.8508   35.9927 N   0  0  0  0  0  0  0  0  0  0  0  0
   41.3675   25.9493   36.6364 N   0  0  0  0  0  0  0  0  0  0  0  0
   43.3594   28.4319   36.1050 H   0  0  0  0  0  0  0  0  0  0  0  0
   41.2323   25.1439   37.1862 H   0  0  0  0  0  0  0  0  0  0  0  0
   40.7053   26.1938   35.9501 H   0  0  0  0  0  0  0  0  0  0  0  0
 20 22  1  0  0  0
  7  8  1  0  0  0
  7 13  1  0  0  0
  7  1  1  0  0  0
  8  9  2  0  0  0
  8 10  1  0  0  0
 10 11  1  0  0  0
 11 12  1  0  0  0
 11 14  1  0  0  0
 11 15  1  0  0  0
 12 13  2  0  0  0
  1  2  1  0  0  0
  1  6  1  0  0  0
  2  3  2  0  0  0
  3  4  1  0  0  0
  4  5  1  0  0  0
  4 24  1  0  0  0
  5  6  1  0  0  0
  5 22  1  0  0  0
 21 22  2  0  0  0
 24 25  1  0  0  0
 25 26  2  0  0  0
 25 28  1  0  0  0
 28 29  1  0  0  0
 29 30  1  0  0  0
 29 33  1  0  0  0
 33 34  1  0  0  0
 34 35  1  0  0  0
 35 36  1  0  0  0
 35 37  1  0  0  0
 37 38  2  0  0  0
 37 39  1  0  0  0
 20 23  1  0  0  0
 10 16  1  0  0  0
 24 27  1  0  0  0
 30 31  1  0  0  0
 30 32  1  0  0  0
 38 40  1  0  0  0
 39 41  1  0  0  0
 39 42  1  0  0  0
 14 17  1  0  0  0
 14 18  1  0  0  0
 15 19  1  0  0  0
M  END
> <minimizedAffinity>
-9.97619

$$$$
1WN6_BST_A_1003


 42 43  0  0  0  0  0  0  0  0999 V2000
   43.2868   16.1493   38.3024 C   0  0  0  0  0  0  0  0  0  0  0  0
   42.8720   17.1335   39.3558 C   0  0  0  0  0  0  0  0  0  0  0  0
   43.3614   18.3915   39.4767 C   0  0  0  0  0  0  0  0  0  0  0  0
   44.4607   18.7334   38.3858 C   0  0  0  0  0  0  0  0  0  0  0  0
   44.4815   17.8220   37.1229 C   0  0  0  0  0  0  0  0  0  0  0  0
   44.5193   16.4890   37.6304 O   0  0  0  0  0  0  0  0  0  0  0  0
   43.5212   14.7472   38.7698 N   0  0  0  0  0  0  0  0  0  0  0  0
   42.6239   13.7231   38.2465 C   0  0  0  0  0  0  0  0  0  0  0  0
   41.7100   13.9723   37.4680 O   0  0  0  0  0  0  0  0  0  0  0  0
   42.8286   12.3886   38.6674 N   0  0  0  0  0  0  0  0  0  0  0  0
   43.9132   12.0875   39.5957 C   0  0  0  0  0  0  0  0  0  0  0  0
   44.8255   13.2035   40.1127 C   0  0  0  0  0  0  0  0  0  0  0  0
   44.5895   14.4403   39.6847 C   0  0  0  0  0  0  0  0  0  0  0  0
   44.8227   11.1101   38.9048 N   0  0  0  0  0  0  0  0  0  0  0  0
   43.2570   11.4403   40.6668 O   0  0  0  0  0  0  0  0  0  0  0  0
   42.2441   11.6687   38.3367 H   0  0  0  0  0  0  0  0  0  0  0  0
   45.2973   11.5757   38.1312 H   0  0  0  0  0  0  0  0  0  0  0  0
   44.2730   10.3294   38.5460 H   0  0  0  0  0  0  0  0  0  0  0  0
   42.6696   12.0696   41.1138 H   0  0  0  0  0  0  0  0  0  0  0  0
   46.7445   17.1769   36.3036 O   0  0  0  0  0  0  0  0  0  0  0  0
   45.6224   18.7760   35.2236 O   0  0  0  0  0  0  0  0  0  0  0  0
   45.7338   17.8233   36.2415 C   0  0  0  0  0  0  0  0  0  0  0  0
   46.8473   16.5314   36.9750 H   0  0  0  0  0  0  0  0  0  0  0  0
   44.3315   20.1292   37.9425 N   0  0  0  0  0  0  0  0  0  0  0  0
   45.2988   21.1331   37.7880 C   0  0  0  0  0  0  0  0  0  0  0  0
   46.4897   20.9022   38.0434 O   0  0  0  0  0  0  0  0  0  0  0  0
   43.4138   20.4050   37.7166 H   0  0  0  0  0  0  0  0  0  0  0  0
   44.7969   22.4911   37.2931 C   0  0  0  0  0  0  0  0  0  0  0  0
   45.3383   22.9295   35.9038 C   0  0  0  0  0  0  0  0  0  0  0  0
   44.6466   22.3441   34.7442 N   0  0  0  0  0  0  0  0  0  0  0  0
   43.6827   22.6770   34.7197 H   0  0  0  0  0  0  0  0  0  0  0  0
   44.6531   21.3271   34.8222 H   0  0  0  0  0  0  0  0  0  0  0  0
   45.2868   24.4836   35.7488 C   0  0  0  0  0  0  0  0  0  0  0  0
   46.3895   25.2272   36.5574 C   0  0  0  0  0  0  0  0  0  0  0  0
   47.7665   24.8528   36.2077 N   0  0  0  0  0  0  0  0  0  0  0  0
   48.2721   25.2797   34.8963 C   0  0  0  0  0  0  0  0  0  0  0  0
   48.5759   24.1191   37.1247 C   0  0  0  0  0  0  0  0  0  0  0  0
   49.9834   24.1636   36.8577 N   0  0  0  0  0  0  0  0  0  0  0  0
   48.1706   23.4333   38.1473 N   0  0  0  0  0  0  0  0  0  0  0  0
   50.3226   24.6759   36.0885 H   0  0  0  0  0  0  0  0  0  0  0  0
   47.2100   23.3834   38.3570 H   0  0  0  0  0  0  0  0  0  0  0  0
   48.8234   22.9625   38.7142 H   0  0  0  0  0  0  0  0  0  0  0  0
 20 22  1  0  0  0
  7  8  1  0  0  0
  7 13  1  0  0  0
  7  1  1  0  0  0
  8  9  2  0  0  0
  8 10  1  0  0  0
 10 11  1  0  0  0
 11 12  1  0  0  0
 11 14  1  0  0  0
 11 15  1  0  0  0
 12 13  2  0  0  0
  1  2  1  0  0  0
  1  6  1  0  0  0
  2  3  2  0  0  0
  3  4  1  0  0  0
  4  5  1  0  0  0
  4 24  1  0  0  0
  5  6  1  0  0  0
  5 22  1  0  0  0
 21 22  2  0  0  0
 24 25  1  0  0  0
 25 26  2  0  0  0
 25 28  1  0  0  0
 28 29  1  0  0  0
 29 30  1  0  0  0
 29 33  1  0  0  0
 33 34  1  0  0  0
 34 35  1  0  0  0
 35 36  1  0  0  0
 35 37  1  0  0  0
 37 38  2  0  0  0
 37 39  1  0  0  0
 20 23  1  0  0  0
 10 16  1  0  0  0
 24 27  1  0  0  0
 30 31  1  0  0  0
 30 32  1  0  0  0
 38 40  1  0  0  0
 39 41  1  0  0  0
 39 42  1  0  0  0
 14 17  1  0  0  0
 14 18  1  0  0  0
 15 19  1  0  0  0
M  END
> <minimizedAffinity>
-9.78083

$$$$
1WN6_BST_A_1003


 42 43  0  0  0  0  0  0  0  0999 V2000
   46.5845   22.8102   35.7215 C   0  0  0  0  0  0  0  0  0  0  0  0
   45.0896   22.7084   35.6514 C   0  0  0  0  0  0  0  0  0  0  0  0
   44.3633   21.6514   36.0896 C   0  0  0  0  0  0  0  0  0  0  0  0
   45.2634   20.4872   36.6811 C   0  0  0  0  0  0  0  0  0  0  0  0
   46.7129   20.8816   37.0928 C   0  0  0  0  0  0  0  0  0  0  0  0
   47.2513   21.5501   35.9530 O   0  0  0  0  0  0  0  0  0  0  0  0
   47.2643   23.3433   34.4995 N   0  0  0  0  0  0  0  0  0  0  0  0
   47.5422   24.7750   34.4760 C   0  0  0  0  0  0  0  0  0  0  0  0
   47.2374   25.5283   35.3942 O   0  0  0  0  0  0  0  0  0  0  0  0
   48.1903   25.3029   33.3353 N   0  0  0  0  0  0  0  0  0  0  0  0
   48.5526   24.4109   32.2390 C   0  0  0  0  0  0  0  0  0  0  0  0
   48.2365   22.9147   32.3181 C   0  0  0  0  0  0  0  0  0  0  0  0
   47.6266   22.4707   33.4134 C   0  0  0  0  0  0  0  0  0  0  0  0
   50.0443   24.5003   32.0761 N   0  0  0  0  0  0  0  0  0  0  0  0
   47.9230   24.9974   31.1181 O   0  0  0  0  0  0  0  0  0  0  0  0
   48.3953   26.2643   33.2813 H   0  0  0  0  0  0  0  0  0  0  0  0
   50.5006   24.0774   32.8844 H   0  0  0  0  0  0  0  0  0  0  0  0
   50.3204   25.4796   32.0037 H   0  0  0  0  0  0  0  0  0  0  0  0
   46.9602   24.9406   31.2216 H   0  0  0  0  0  0  0  0  0  0  0  0
   48.7150   19.7003   37.9900 O   0  0  0  0  0  0  0  0  0  0  0  0
   47.4694   18.6861   36.4400 O   0  0  0  0  0  0  0  0  0  0  0  0
   47.7475   19.7684   37.2810 C   0  0  0  0  0  0  0  0  0  0  0  0
   48.9262   20.4102   38.5639 H   0  0  0  0  0  0  0  0  0  0  0  0
   44.6088   19.8679   37.8427 N   0  0  0  0  0  0  0  0  0  0  0  0
   43.5859   18.9107   37.9136 C   0  0  0  0  0  0  0  0  0  0  0  0
   43.0850   18.4492   36.8779 O   0  0  0  0  0  0  0  0  0  0  0  0
   44.9439   20.1762   38.7156 H   0  0  0  0  0  0  0  0  0  0  0  0
   43.1480   18.4858   39.3167 C   0  0  0  0  0  0  0  0  0  0  0  0
   42.8717   16.9663   39.4911 C   0  0  0  0  0  0  0  0  0  0  0  0
   42.0490   16.3502   38.4379 N   0  0  0  0  0  0  0  0  0  0  0  0
   42.5521   16.3819   37.5512 H   0  0  0  0  0  0  0  0  0  0  0  0
   41.1712   16.8620   38.3492 H   0  0  0  0  0  0  0  0  0  0  0  0
   44.2084   16.1615   39.5771 C   0  0  0  0  0  0  0  0  0  0  0  0
   44.3561   15.0787   38.4686 C   0  0  0  0  0  0  0  0  0  0  0  0
   44.1930   13.6950   38.9347 N   0  0  0  0  0  0  0  0  0  0  0  0
   44.8565   13.3209   40.1906 C   0  0  0  0  0  0  0  0  0  0  0  0
   43.4020   12.7668   38.1951 C   0  0  0  0  0  0  0  0  0  0  0  0
   42.0792   13.2183   37.8781 N   0  0  0  0  0  0  0  0  0  0  0  0
   43.7554   11.5856   37.7950 N   0  0  0  0  0  0  0  0  0  0  0  0
   41.7809   14.1106   38.1680 H   0  0  0  0  0  0  0  0  0  0  0  0
   44.6574   11.2468   37.9970 H   0  0  0  0  0  0  0  0  0  0  0  0
   43.1218   11.0272   37.2890 H   0  0  0  0  0  0  0  0  0  0  0  0
 20 22  1  0  0  0
  7  8  1  0  0  0
  7 13  1  0  0  0
  7  1  1  0  0  0
  8  9  2  0  0  0
  8 10  1  0  0  0
 10 11  1  0  0  0
 11 12  1  0  0  0
 11 14  1  0  0  0
 11 15  1  0  0  0
 12 13  2  0  0  0
  1  2  1  0  0  0
  1  6  1  0  0  0
  2  3  2  0  0  0
  3  4  1  0  0  0
  4  5  1  0  0  0
  4 24  1  0  0  0
  5  6  1  0  0  0
  5 22  1  0  0  0
 21 22  2  0  0  0
 24 25  1  0  0  0
 25 26  2  0  0  0
 25 28  1  0  0  0
 28 29  1  0  0  0
 29 30  1  0  0  0
 29 33  1  0  0  0
 33 34  1  0  0  0
 34 35  1  0  0  0
 35 36  1  0  0  0
 35 37  1  0  0  0
 37 38  2  0  0  0
 37 39  1  0  0  0
 20 23  1  0  0  0
 10 16  1  0  0  0
 24 27  1  0  0  0
 30 31  1  0  0  0
 30 32  1  0  0  0
 38 40  1  0  0  0
 39 41  1  0  0  0
 39 42  1  0  0  0
 14 17  1  0  0  0
 14 18  1  0  0  0
 15 19  1  0  0  0
M  END
> <minimizedAffinity>
-8.33550

$$$$
1WN6_BST_A_1003


 42 43  0  0  0  0  0  0  0  0999 V2000
   43.3612   16.3063   37.9777 C   0  0  0  0  0  0  0  0  0  0  0  0
   42.7811   17.2549   38.9846 C   0  0  0  0  0  0  0  0  0  0  0  0
   43.1591   18.5471   39.1396 C   0  0  0  0  0  0  0  0  0  0  0  0
   44.3196   18.9738   38.1464 C   0  0  0  0  0  0  0  0  0  0  0  0
   44.5211   18.0672   36.8959 C   0  0  0  0  0  0  0  0  0  0  0  0
   44.6176   16.7410   37.4133 O   0  0  0  0  0  0  0  0  0  0  0  0
   43.6619   14.9265   38.4727 N   0  0  0  0  0  0  0  0  0  0  0  0
   44.4667   14.8260   39.6851 C   0  0  0  0  0  0  0  0  0  0  0  0
   44.8952   15.8064   40.2838 O   0  0  0  0  0  0  0  0  0  0  0  0
   44.7593   13.5331   40.1777 N   0  0  0  0  0  0  0  0  0  0  0  0
   44.2538   12.3632   39.4672 C   0  0  0  0  0  0  0  0  0  0  0  0
   43.4125   12.5285   38.1984 C   0  0  0  0  0  0  0  0  0  0  0  0
   43.1665   13.7664   37.7790 C   0  0  0  0  0  0  0  0  0  0  0  0
   43.3845   11.6063   40.4322 N   0  0  0  0  0  0  0  0  0  0  0  0
   45.4210   11.6128   39.2002 O   0  0  0  0  0  0  0  0  0  0  0  0
   45.2996   13.4232   40.9934 H   0  0  0  0  0  0  0  0  0  0  0  0
   42.5414   12.1466   40.6261 H   0  0  0  0  0  0  0  0  0  0  0  0
   43.8961   11.4510   41.3009 H   0  0  0  0  0  0  0  0  0  0  0  0
   45.9832   12.0999   38.5776 H   0  0  0  0  0  0  0  0  0  0  0  0
   46.9573   17.8364   36.4266 O   0  0  0  0  0  0  0  0  0  0  0  0
   45.6455   18.7708   34.8810 O   0  0  0  0  0  0  0  0  0  0  0  0
   45.8416   18.1662   36.1269 C   0  0  0  0  0  0  0  0  0  0  0  0
   47.1189   17.4291   37.2548 H   0  0  0  0  0  0  0  0  0  0  0  0
   44.1218   20.3555   37.6845 N   0  0  0  0  0  0  0  0  0  0  0  0
   45.0352   21.4094   37.5345 C   0  0  0  0  0  0  0  0  0  0  0  0
   46.2323   21.2471   37.8125 O   0  0  0  0  0  0  0  0  0  0  0  0
   43.1945   20.5779   37.4400 H   0  0  0  0  0  0  0  0  0  0  0  0
   44.4683   22.7322   37.0152 C   0  0  0  0  0  0  0  0  0  0  0  0
   44.7986   23.9787   37.8828 C   0  0  0  0  0  0  0  0  0  0  0  0
   45.7774   23.7563   38.9590 N   0  0  0  0  0  0  0  0  0  0  0  0
   46.6836   23.5252   38.5520 H   0  0  0  0  0  0  0  0  0  0  0  0
   45.4638   22.9864   39.5500 H   0  0  0  0  0  0  0  0  0  0  0  0
   45.3296   25.1514   36.9970 C   0  0  0  0  0  0  0  0  0  0  0  0
   46.8795   25.2939   37.0157 C   0  0  0  0  0  0  0  0  0  0  0  0
   47.5915   24.3882   36.1040 N   0  0  0  0  0  0  0  0  0  0  0  0
   48.6406   23.5359   36.6788 C   0  0  0  0  0  0  0  0  0  0  0  0
   47.2529   24.3359   34.7194 C   0  0  0  0  0  0  0  0  0  0  0  0
   46.6965   23.0903   34.2801 N   0  0  0  0  0  0  0  0  0  0  0  0
   47.3982   25.2812   33.8444 N   0  0  0  0  0  0  0  0  0  0  0  0
   46.5735   22.3529   34.9207 H   0  0  0  0  0  0  0  0  0  0  0  0
   47.7776   26.1484   34.1151 H   0  0  0  0  0  0  0  0  0  0  0  0
   47.1293   25.1319   32.9092 H   0  0  0  0  0  0  0  0  0  0  0  0
 20 22  1  0  0  0
  7  8  1  0  0  0
  7 13  1  0  0  0
  7  1  1  0  0  0
  8  9  2  0  0  0
  8 10  1  0  0  0
 10 11  1  0  0  0
 11 12  1  0  0  0
 11 14  1  0  0  0
 11 15  1  0  0  0
 12 13  2  0  0  0
  1  2  1  0  0  0
  1  6  1  0  0  0
  2  3  2  0  0  0
  3  4  1  0  0  0
  4  5  1  0  0  0
  4 24  1  0  0  0
  5  6  1  0  0  0
  5 22  1  0  0  0
 21 22  2  0  0  0
 24 25  1  0  0  0
 25 26  2  0  0  0
 25 28  1  0  0  0
 28 29  1  0  0  0
 29 30  1  0  0  0
 29 33  1  0  0  0
 33 34  1  0  0  0
 34 35  1  0  0  0
 35 36  1  0  0  0
 35 37  1  0  0  0
 37 38  2  0  0  0
 37 39  1  0  0  0
 20 23  1  0  0  0
 10 16  1  0  0  0
 24 27  1  0  0  0
 30 31  1  0  0  0
 30 32  1  0  0  0
 38 40  1  0  0  0
 39 41  1  0  0  0
 39 42  1  0  0  0
 14 17  1  0  0  0
 14 18  1  0  0  0
 15 19  1  0  0  0
M  END
> <minimizedAffinity>
-8.19183

$$$$
