2XEJ_OKD_A_1768


 46 46  0  0  0  0  0  0  0  0999 V2000
   22.4287   44.6107   43.9757 C   0  0  0  0  0  0  0  0  0  0  0  0
   21.1727   45.3687   43.4762 C   0  0  0  0  0  0  0  0  0  0  0  0
   19.8988   45.0974   44.3086 C   0  0  0  0  0  0  0  0  0  0  0  0
   18.8421   45.4839   43.3739 N   0  0  0  0  0  0  0  0  0  0  0  0
   17.9196   44.6517   42.9326 C   0  0  0  0  0  0  0  0  0  0  0  0
   17.8248   43.4939   43.3255 O   0  0  0  0  0  0  0  0  0  0  0  0
   16.9814   45.1555   42.1300 N   0  0  0  0  0  0  0  0  0  0  0  0
   18.8185   46.4158   43.0572 H   0  0  0  0  0  0  0  0  0  0  0  0
   16.8591   46.1292   42.0517 H   0  0  0  0  0  0  0  0  0  0  0  0
   16.1456   44.2445   41.3755 C   0  0  0  0  0  0  0  0  0  0  0  0
   16.6072   44.3385   39.8958 C   0  0  0  0  0  0  0  0  0  0  0  0
   17.8300   44.5322   39.7287 O   0  0  0  0  0  0  0  0  0  0  0  0
   15.7672   44.2429   38.9460 O   0  0  0  0  0  0  0  0  0  0  0  0
   14.8611   44.0971   39.1349 H   0  0  0  0  0  0  0  0  0  0  0  0
   14.6359   44.6740   41.3611 C   0  0  0  0  0  0  0  0  0  0  0  0
   14.4740   46.2037   41.6741 C   0  0  0  0  0  0  0  0  0  0  0  0
   14.0506   47.0747   40.4570 C   0  0  0  0  0  0  0  0  0  0  0  0
   13.8137   48.2795   40.6819 O   0  0  0  0  0  0  0  0  0  0  0  0
   13.9274   46.5255   39.3390 O   0  0  0  0  0  0  0  0  0  0  0  0
   14.1230   45.6144   39.2406 H   0  0  0  0  0  0  0  0  0  0  0  0
   19.9124   46.0373   45.5354 C   0  0  0  0  0  0  0  0  0  0  0  0
   20.2026   45.4862   46.6216 O   0  0  0  0  0  0  0  0  0  0  0  0
   19.4816   47.1942   45.3861 O   0  0  0  0  0  0  0  0  0  0  0  0
   20.5218   44.6052   46.6293 H   0  0  0  0  0  0  0  0  0  0  0  0
   23.6179   45.0892   43.0789 C   0  0  0  0  0  0  0  0  0  0  0  0
   24.3460   43.8970   42.4969 C   0  0  0  0  0  0  0  0  0  0  0  0
   25.3856   45.2183   39.3673 C   0  0  0  0  0  0  0  0  0  0  0  0
   24.7149   45.3416   40.5196 C   0  0  0  0  0  0  0  0  0  0  0  0
   25.9556   43.9951   39.3716 N   0  0  0  0  0  0  0  0  0  0  0  0
   25.6453   43.4320   40.4484 N   0  0  0  0  0  0  0  0  0  0  0  0
   24.9124   44.1734   41.1389 N   0  0  0  0  0  0  0  0  0  0  0  0
   25.4620   46.2307   38.3565 C   0  0  0  0  0  0  0  0  0  0  0  0
   26.5552   47.2938   38.2365 O   0  0  0  0  0  0  0  0  0  0  0  0
   26.7390   48.1569   39.4514 C   0  0  0  0  0  0  0  0  0  0  0  0
   25.8265   49.4083   39.5492 C   0  0  0  0  0  0  0  0  0  0  0  0
   27.0067   50.2500   39.8967 O   0  0  0  0  0  0  0  0  0  0  0  0
   27.4418   49.8042   41.1944 C   0  0  0  0  0  0  0  0  0  0  0  0
   27.1723   50.9637   42.1598 C   0  0  0  0  0  0  0  0  0  0  0  0
   26.1103   50.6960   43.1061 O   0  0  0  0  0  0  0  0  0  0  0  0
   26.4367   49.5106   43.9075 C   0  0  0  0  0  0  0  0  0  0  0  0
   25.4025   48.3647   43.8626 C   0  0  0  0  0  0  0  0  0  0  0  0
   24.4040   48.5203   42.8240 O   0  0  0  0  0  0  0  0  0  0  0  0
   23.0866   48.7819   43.3772 C   0  0  0  0  0  0  0  0  0  0  0  0
   23.0319   48.4722   44.8817 C   0  0  0  0  0  0  0  0  0  0  0  0
   21.6365   50.3707   44.6290 C   0  0  0  0  0  0  0  0  0  0  0  0
   22.0599   49.3273   45.5324 O   0  0  0  0  0  0  0  0  0  0  0  0
 45 46  1  0  0  0
 46 44  1  0  0  0
 44 43  1  0  0  0
 43 42  1  0  0  0
 42 41  1  0  0  0
 41 40  1  0  0  0
 40 39  1  0  0  0
 39 38  1  0  0  0
 38 37  1  0  0  0
 37 36  1  0  0  0
 36 35  1  0  0  0
 35 34  1  0  0  0
 34 33  1  0  0  0
 33 32  1  0  0  0
 32 27  1  0  0  0
 27 28  2  0  0  0
 27 29  1  0  0  0
 28 31  1  0  0  0
 29 30  2  0  0  0
 30 31  1  0  0  0
 31 26  1  0  0  0
 26 25  1  0  0  0
 25  1  1  0  0  0
  1  2  1  0  0  0
  2  3  1  0  0  0
  3 21  1  0  0  0
  3  4  1  0  0  0
 21 22  1  0  0  0
 21 23  2  0  0  0
  4  5  1  0  0  0
  5  6  2  0  0  0
  5  7  1  0  0  0
  7 10  1  0  0  0
 10 11  1  0  0  0
 10 15  1  0  0  0
 11 12  2  0  0  0
 11 13  1  0  0  0
 15 16  1  0  0  0
 16 17  1  0  0  0
 17 18  2  0  0  0
 17 19  1  0  0  0
 22 24  1  0  0  0
  4  8  1  0  0  0
  7  9  1  0  0  0
 13 14  1  0  0  0
 19 20  1  0  0  0
M  END
> <minimizedAffinity>
-8.63841

$$$$
2XEJ_OKD_A_1768


 46 46  0  0  0  0  0  0  0  0999 V2000
   22.2903   44.8444   43.7395 C   0  0  0  0  0  0  0  0  0  0  0  0
   20.9787   45.5773   43.3598 C   0  0  0  0  0  0  0  0  0  0  0  0
   19.7595   45.1770   44.2215 C   0  0  0  0  0  0  0  0  0  0  0  0
   18.6432   45.5456   43.3508 N   0  0  0  0  0  0  0  0  0  0  0  0
   17.7774   44.6759   42.8688 C   0  0  0  0  0  0  0  0  0  0  0  0
   17.7913   43.4868   43.1686 O   0  0  0  0  0  0  0  0  0  0  0  0
   16.7742   45.1605   42.1361 N   0  0  0  0  0  0  0  0  0  0  0  0
   18.5325   46.4942   43.1119 H   0  0  0  0  0  0  0  0  0  0  0  0
   16.5700   46.1235   42.1408 H   0  0  0  0  0  0  0  0  0  0  0  0
   15.9905   44.2445   41.3332 C   0  0  0  0  0  0  0  0  0  0  0  0
   16.5128   44.3706   39.8762 C   0  0  0  0  0  0  0  0  0  0  0  0
   15.6334   44.3449   38.9892 O   0  0  0  0  0  0  0  0  0  0  0  0
   17.7581   44.4687   39.6388 O   0  0  0  0  0  0  0  0  0  0  0  0
   18.3705   44.4828   40.3478 H   0  0  0  0  0  0  0  0  0  0  0  0
   14.4742   44.6437   41.2601 C   0  0  0  0  0  0  0  0  0  0  0  0
   14.2609   46.1507   41.6445 C   0  0  0  0  0  0  0  0  0  0  0  0
   13.9579   47.0911   40.4432 C   0  0  0  0  0  0  0  0  0  0  0  0
   13.8046   48.3027   40.7012 O   0  0  0  0  0  0  0  0  0  0  0  0
   13.8409   46.5896   39.3023 O   0  0  0  0  0  0  0  0  0  0  0  0
   13.9701   45.6697   39.1794 H   0  0  0  0  0  0  0  0  0  0  0  0
   19.7637   46.0455   45.4999 C   0  0  0  0  0  0  0  0  0  0  0  0
   19.3057   47.2020   45.3559 O   0  0  0  0  0  0  0  0  0  0  0  0
   20.3585   45.6059   46.4995 O   0  0  0  0  0  0  0  0  0  0  0  0
   18.8710   47.4380   44.5601 H   0  0  0  0  0  0  0  0  0  0  0  0
   23.3980   45.4000   42.7848 C   0  0  0  0  0  0  0  0  0  0  0  0
   24.2179   44.2615   42.2174 C   0  0  0  0  0  0  0  0  0  0  0  0
   25.6198   45.8104   39.3440 C   0  0  0  0  0  0  0  0  0  0  0  0
   24.8915   45.8771   40.4656 C   0  0  0  0  0  0  0  0  0  0  0  0
   26.0375   44.5332   39.2202 N   0  0  0  0  0  0  0  0  0  0  0  0
   25.5891   43.8875   40.1974 N   0  0  0  0  0  0  0  0  0  0  0  0
   24.9049   44.6266   40.9383 N   0  0  0  0  0  0  0  0  0  0  0  0
   25.8858   46.9202   38.4780 C   0  0  0  0  0  0  0  0  0  0  0  0
   27.0433   47.9097   38.6222 O   0  0  0  0  0  0  0  0  0  0  0  0
   27.5794   48.0624   40.0165 C   0  0  0  0  0  0  0  0  0  0  0  0
   29.0863   48.4126   40.1383 C   0  0  0  0  0  0  0  0  0  0  0  0
   28.8252   49.1176   41.4255 O   0  0  0  0  0  0  0  0  0  0  0  0
   30.0963   49.1999   42.0960 C   0  0  0  0  0  0  0  0  0  0  0  0
   29.8477   48.7628   43.5438 C   0  0  0  0  0  0  0  0  0  0  0  0
   29.3221   47.4194   43.6623 O   0  0  0  0  0  0  0  0  0  0  0  0
   28.5831   47.2771   44.9224 C   0  0  0  0  0  0  0  0  0  0  0  0
   28.5878   48.5145   45.8464 C   0  0  0  0  0  0  0  0  0  0  0  0
   27.3123   49.1992   45.9112 O   0  0  0  0  0  0  0  0  0  0  0  0
   27.4770   50.6289   46.1081 C   0  0  0  0  0  0  0  0  0  0  0  0
   26.5844   51.4389   45.1544 C   0  0  0  0  0  0  0  0  0  0  0  0
   24.3485   51.8763   44.5028 C   0  0  0  0  0  0  0  0  0  0  0  0
   25.2062   51.0079   45.2736 O   0  0  0  0  0  0  0  0  0  0  0  0
 45 46  1  0  0  0
 46 44  1  0  0  0
 44 43  1  0  0  0
 43 42  1  0  0  0
 42 41  1  0  0  0
 41 40  1  0  0  0
 40 39  1  0  0  0
 39 38  1  0  0  0
 38 37  1  0  0  0
 37 36  1  0  0  0
 36 35  1  0  0  0
 35 34  1  0  0  0
 34 33  1  0  0  0
 33 32  1  0  0  0
 32 27  1  0  0  0
 27 28  2  0  0  0
 27 29  1  0  0  0
 28 31  1  0  0  0
 29 30  2  0  0  0
 30 31  1  0  0  0
 31 26  1  0  0  0
 26 25  1  0  0  0
 25  1  1  0  0  0
  1  2  1  0  0  0
  2  3  1  0  0  0
  3 21  1  0  0  0
  3  4  1  0  0  0
 21 22  1  0  0  0
 21 23  2  0  0  0
  4  5  1  0  0  0
  5  6  2  0  0  0
  5  7  1  0  0  0
  7 10  1  0  0  0
 10 11  1  0  0  0
 10 15  1  0  0  0
 11 12  2  0  0  0
 11 13  1  0  0  0
 15 16  1  0  0  0
 16 17  1  0  0  0
 17 18  2  0  0  0
 17 19  1  0  0  0
 22 24  1  0  0  0
  4  8  1  0  0  0
  7  9  1  0  0  0
 13 14  1  0  0  0
 19 20  1  0  0  0
M  END
> <minimizedAffinity>
-8.45866

$$$$
2XEJ_OKD_A_1768


 46 46  0  0  0  0  0  0  0  0999 V2000
   21.2812   45.7321   42.8897 C   0  0  0  0  0  0  0  0  0  0  0  0
   20.9452   44.6556   43.9527 C   0  0  0  0  0  0  0  0  0  0  0  0
   19.6023   44.8864   44.6825 C   0  0  0  0  0  0  0  0  0  0  0  0
   18.7296   45.2953   43.5821 N   0  0  0  0  0  0  0  0  0  0  0  0
   17.7402   44.5545   43.1231 C   0  0  0  0  0  0  0  0  0  0  0  0
   17.4195   43.4845   43.6293 O   0  0  0  0  0  0  0  0  0  0  0  0
   16.9880   45.0786   42.1548 N   0  0  0  0  0  0  0  0  0  0  0  0
   18.8897   46.1709   43.1614 H   0  0  0  0  0  0  0  0  0  0  0  0
   17.0318   46.0410   41.9516 H   0  0  0  0  0  0  0  0  0  0  0  0
   16.1054   44.2068   41.4074 C   0  0  0  0  0  0  0  0  0  0  0  0
   16.5607   44.2774   39.9244 C   0  0  0  0  0  0  0  0  0  0  0  0
   15.6596   44.0914   39.0793 O   0  0  0  0  0  0  0  0  0  0  0  0
   17.7790   44.4892   39.6284 O   0  0  0  0  0  0  0  0  0  0  0  0
   18.4101   44.6218   40.3082 H   0  0  0  0  0  0  0  0  0  0  0  0
   14.6173   44.7063   41.4025 C   0  0  0  0  0  0  0  0  0  0  0  0
   14.5327   46.2522   41.6621 C   0  0  0  0  0  0  0  0  0  0  0  0
   14.0618   47.0914   40.4401 C   0  0  0  0  0  0  0  0  0  0  0  0
   13.7894   48.2910   40.6522 O   0  0  0  0  0  0  0  0  0  0  0  0
   13.9387   46.5224   39.3321 O   0  0  0  0  0  0  0  0  0  0  0  0
   14.1622   45.6168   39.2432 H   0  0  0  0  0  0  0  0  0  0  0  0
   19.7904   46.0446   45.6885 C   0  0  0  0  0  0  0  0  0  0  0  0
   19.1327   47.0792   45.4339 O   0  0  0  0  0  0  0  0  0  0  0  0
   20.6803   45.9282   46.5492 O   0  0  0  0  0  0  0  0  0  0  0  0
   18.4794   47.0656   44.7623 H   0  0  0  0  0  0  0  0  0  0  0  0
   22.8328   45.9264   42.9343 C   0  0  0  0  0  0  0  0  0  0  0  0
   23.5319   44.6238   42.6106 C   0  0  0  0  0  0  0  0  0  0  0  0
   24.7491   45.2528   39.3327 C   0  0  0  0  0  0  0  0  0  0  0  0
   23.8640   45.4813   40.3111 C   0  0  0  0  0  0  0  0  0  0  0  0
   25.6177   44.3289   39.7944 N   0  0  0  0  0  0  0  0  0  0  0  0
   25.2730   44.0296   40.9625 N   0  0  0  0  0  0  0  0  0  0  0  0
   24.2494   44.6649   41.2972 N   0  0  0  0  0  0  0  0  0  0  0  0
   24.7387   45.9031   38.0563 C   0  0  0  0  0  0  0  0  0  0  0  0
   25.4478   47.2148   37.7151 O   0  0  0  0  0  0  0  0  0  0  0  0
   26.1734   47.8617   38.8595 C   0  0  0  0  0  0  0  0  0  0  0  0
   25.6456   49.2496   39.3106 C   0  0  0  0  0  0  0  0  0  0  0  0
   25.0749   48.6387   40.5449 O   0  0  0  0  0  0  0  0  0  0  0  0
   25.9012   49.0964   41.6310 C   0  0  0  0  0  0  0  0  0  0  0  0
   26.2238   47.8593   42.4764 C   0  0  0  0  0  0  0  0  0  0  0  0
   27.6350   47.6984   42.7547 O   0  0  0  0  0  0  0  0  0  0  0  0
   28.4096   48.7159   42.0346 C   0  0  0  0  0  0  0  0  0  0  0  0
   29.8548   48.3193   41.6614 C   0  0  0  0  0  0  0  0  0  0  0  0
   30.6929   48.0242   42.8061 O   0  0  0  0  0  0  0  0  0  0  0  0
   31.8571   48.8912   42.8599 C   0  0  0  0  0  0  0  0  0  0  0  0
   32.1028   49.5944   41.5155 C   0  0  0  0  0  0  0  0  0  0  0  0
   34.0131   49.9552   40.1606 C   0  0  0  0  0  0  0  0  0  0  0  0
   33.1978   48.9577   40.8119 O   0  0  0  0  0  0  0  0  0  0  0  0
 45 46  1  0  0  0
 46 44  1  0  0  0
 44 43  1  0  0  0
 43 42  1  0  0  0
 42 41  1  0  0  0
 41 40  1  0  0  0
 40 39  1  0  0  0
 39 38  1  0  0  0
 38 37  1  0  0  0
 37 36  1  0  0  0
 36 35  1  0  0  0
 35 34  1  0  0  0
 34 33  1  0  0  0
 33 32  1  0  0  0
 32 27  1  0  0  0
 27 28  2  0  0  0
 27 29  1  0  0  0
 28 31  1  0  0  0
 29 30  2  0  0  0
 30 31  1  0  0  0
 31 26  1  0  0  0
 26 25  1  0  0  0
 25  1  1  0  0  0
  1  2  1  0  0  0
  2  3  1  0  0  0
  3 21  1  0  0  0
  3  4  1  0  0  0
 21 22  1  0  0  0
 21 23  2  0  0  0
  4  5  1  0  0  0
  5  6  2  0  0  0
  5  7  1  0  0  0
  7 10  1  0  0  0
 10 11  1  0  0  0
 10 15  1  0  0  0
 11 12  2  0  0  0
 11 13  1  0  0  0
 15 16  1  0  0  0
 16 17  1  0  0  0
 17 18  2  0  0  0
 17 19  1  0  0  0
 22 24  1  0  0  0
  4  8  1  0  0  0
  7  9  1  0  0  0
 13 14  1  0  0  0
 19 20  1  0  0  0
M  END
> <minimizedAffinity>
-8.42055

$$$$
2XEJ_OKD_A_1768


 46 46  0  0  0  0  0  0  0  0999 V2000
   22.3197   44.7730   43.7017 C   0  0  0  0  0  0  0  0  0  0  0  0
   21.0046   45.4971   43.3169 C   0  0  0  0  0  0  0  0  0  0  0  0
   19.7992   45.1366   44.2149 C   0  0  0  0  0  0  0  0  0  0  0  0
   18.6694   45.5035   43.3612 N   0  0  0  0  0  0  0  0  0  0  0  0
   17.8293   44.6265   42.8479 C   0  0  0  0  0  0  0  0  0  0  0  0
   17.8808   43.4278   43.1018 O   0  0  0  0  0  0  0  0  0  0  0  0
   16.8093   45.1075   42.1364 N   0  0  0  0  0  0  0  0  0  0  0  0
   18.5287   46.4567   43.1591 H   0  0  0  0  0  0  0  0  0  0  0  0
   16.5754   46.0629   42.1784 H   0  0  0  0  0  0  0  0  0  0  0  0
   16.0517   44.1991   41.3005 C   0  0  0  0  0  0  0  0  0  0  0  0
   16.5946   44.3661   39.8552 C   0  0  0  0  0  0  0  0  0  0  0  0
   17.8369   44.4563   39.7581 O   0  0  0  0  0  0  0  0  0  0  0  0
   15.7989   44.4258   38.8653 O   0  0  0  0  0  0  0  0  0  0  0  0
   14.8749   44.3516   39.0018 H   0  0  0  0  0  0  0  0  0  0  0  0
   14.5310   44.5781   41.2124 C   0  0  0  0  0  0  0  0  0  0  0  0
   14.2857   46.0636   41.6566 C   0  0  0  0  0  0  0  0  0  0  0  0
   13.9480   47.0418   40.4954 C   0  0  0  0  0  0  0  0  0  0  0  0
   13.8695   46.5509   39.3504 O   0  0  0  0  0  0  0  0  0  0  0  0
   13.8173   48.2593   40.7544 O   0  0  0  0  0  0  0  0  0  0  0  0
   13.8884   48.5604   41.6389 H   0  0  0  0  0  0  0  0  0  0  0  0
   19.8464   46.0338   45.4725 C   0  0  0  0  0  0  0  0  0  0  0  0
   19.3141   47.1594   45.3402 O   0  0  0  0  0  0  0  0  0  0  0  0
   20.5361   45.6514   46.4339 O   0  0  0  0  0  0  0  0  0  0  0  0
   18.8102   47.3522   44.5741 H   0  0  0  0  0  0  0  0  0  0  0  0
   23.4223   45.3184   42.7352 C   0  0  0  0  0  0  0  0  0  0  0  0
   24.2581   44.1766   42.1987 C   0  0  0  0  0  0  0  0  0  0  0  0
   24.9927   45.3643   38.9321 C   0  0  0  0  0  0  0  0  0  0  0  0
   24.3164   45.4631   40.0835 C   0  0  0  0  0  0  0  0  0  0  0  0
   25.7994   44.2878   39.0396 N   0  0  0  0  0  0  0  0  0  0  0  0
   25.6151   43.7831   40.1728 N   0  0  0  0  0  0  0  0  0  0  0  0
   24.7501   44.4259   40.8070 N   0  0  0  0  0  0  0  0  0  0  0  0
   24.8570   46.2662   37.8274 C   0  0  0  0  0  0  0  0  0  0  0  0
   25.2429   47.7463   37.8287 O   0  0  0  0  0  0  0  0  0  0  0  0
   25.9693   48.2130   39.0572 C   0  0  0  0  0  0  0  0  0  0  0  0
   25.7530   49.6957   39.4611 C   0  0  0  0  0  0  0  0  0  0  0  0
   27.2281   49.9074   39.4994 O   0  0  0  0  0  0  0  0  0  0  0  0
   27.4395   51.0701   40.3211 C   0  0  0  0  0  0  0  0  0  0  0  0
   27.5039   50.5681   41.7678 C   0  0  0  0  0  0  0  0  0  0  0  0
   28.8461   50.2684   42.2190 O   0  0  0  0  0  0  0  0  0  0  0  0
   29.0223   48.8170   42.3462 C   0  0  0  0  0  0  0  0  0  0  0  0
   28.3274   48.1605   43.5591 C   0  0  0  0  0  0  0  0  0  0  0  0
   29.1400   47.1651   44.2289 O   0  0  0  0  0  0  0  0  0  0  0  0
   29.2459   47.4253   45.6540 C   0  0  0  0  0  0  0  0  0  0  0  0
   28.6711   48.8023   46.0230 C   0  0  0  0  0  0  0  0  0  0  0  0
   29.6934   49.9248   47.8423 C   0  0  0  0  0  0  0  0  0  0  0  0
   28.6746   48.9755   47.4615 O   0  0  0  0  0  0  0  0  0  0  0  0
 45 46  1  0  0  0
 46 44  1  0  0  0
 44 43  1  0  0  0
 43 42  1  0  0  0
 42 41  1  0  0  0
 41 40  1  0  0  0
 40 39  1  0  0  0
 39 38  1  0  0  0
 38 37  1  0  0  0
 37 36  1  0  0  0
 36 35  1  0  0  0
 35 34  1  0  0  0
 34 33  1  0  0  0
 33 32  1  0  0  0
 32 27  1  0  0  0
 27 28  2  0  0  0
 27 29  1  0  0  0
 28 31  1  0  0  0
 29 30  2  0  0  0
 30 31  1  0  0  0
 31 26  1  0  0  0
 26 25  1  0  0  0
 25  1  1  0  0  0
  1  2  1  0  0  0
  2  3  1  0  0  0
  3 21  1  0  0  0
  3  4  1  0  0  0
 21 22  1  0  0  0
 21 23  2  0  0  0
  4  5  1  0  0  0
  5  6  2  0  0  0
  5  7  1  0  0  0
  7 10  1  0  0  0
 10 11  1  0  0  0
 10 15  1  0  0  0
 11 12  2  0  0  0
 11 13  1  0  0  0
 15 16  1  0  0  0
 16 17  1  0  0  0
 17 18  2  0  0  0
 17 19  1  0  0  0
 22 24  1  0  0  0
  4  8  1  0  0  0
  7  9  1  0  0  0
 13 14  1  0  0  0
 19 20  1  0  0  0
M  END
> <minimizedAffinity>
-8.38032

$$$$
2XEJ_OKD_A_1768


 46 46  0  0  0  0  0  0  0  0999 V2000
   21.6740   46.4630   42.7773 C   0  0  0  0  0  0  0  0  0  0  0  0
   21.6931   45.2566   43.7499 C   0  0  0  0  0  0  0  0  0  0  0  0
   20.3127   44.9091   44.3522 C   0  0  0  0  0  0  0  0  0  0  0  0
   19.4121   45.2402   43.2481 N   0  0  0  0  0  0  0  0  0  0  0  0
   18.2908   44.5914   43.0029 C   0  0  0  0  0  0  0  0  0  0  0  0
   17.8683   43.6957   43.7261 O   0  0  0  0  0  0  0  0  0  0  0  0
   17.5372   45.0398   41.9984 N   0  0  0  0  0  0  0  0  0  0  0  0
   19.6564   45.9880   42.6561 H   0  0  0  0  0  0  0  0  0  0  0  0
   17.6985   45.9298   41.6095 H   0  0  0  0  0  0  0  0  0  0  0  0
   16.4770   44.1942   41.4898 C   0  0  0  0  0  0  0  0  0  0  0  0
   16.6875   44.0907   39.9547 C   0  0  0  0  0  0  0  0  0  0  0  0
   17.7211   44.6405   39.5188 O   0  0  0  0  0  0  0  0  0  0  0  0
   15.8344   43.4991   39.2205 O   0  0  0  0  0  0  0  0  0  0  0  0
   15.0773   43.1048   39.6067 H   0  0  0  0  0  0  0  0  0  0  0  0
   15.0532   44.8314   41.6653 C   0  0  0  0  0  0  0  0  0  0  0  0
   15.0011   46.2850   41.0751 C   0  0  0  0  0  0  0  0  0  0  0  0
   13.5869   46.7553   40.6299 C   0  0  0  0  0  0  0  0  0  0  0  0
   13.4474   47.9725   40.3911 O   0  0  0  0  0  0  0  0  0  0  0  0
   12.6629   45.9127   40.5762 O   0  0  0  0  0  0  0  0  0  0  0  0
   12.8381   45.0124   40.7683 H   0  0  0  0  0  0  0  0  0  0  0  0
   20.0619   45.8416   45.5589 C   0  0  0  0  0  0  0  0  0  0  0  0
   19.2264   46.7526   45.3594 O   0  0  0  0  0  0  0  0  0  0  0  0
   20.8082   45.7273   46.5469 O   0  0  0  0  0  0  0  0  0  0  0  0
   18.7081   46.7503   44.5788 H   0  0  0  0  0  0  0  0  0  0  0  0
   23.0355   47.2083   42.9726 C   0  0  0  0  0  0  0  0  0  0  0  0
   23.3436   47.3560   44.4468 C   0  0  0  0  0  0  0  0  0  0  0  0
   26.8490   47.7366   44.8808 C   0  0  0  0  0  0  0  0  0  0  0  0
   25.7833   46.9686   44.6213 C   0  0  0  0  0  0  0  0  0  0  0  0
   26.3920   48.9900   45.0833 N   0  0  0  0  0  0  0  0  0  0  0  0
   25.1447   48.9682   44.9543 N   0  0  0  0  0  0  0  0  0  0  0  0
   24.7474   47.8101   44.7003 N   0  0  0  0  0  0  0  0  0  0  0  0
   28.2024   47.2680   44.9137 C   0  0  0  0  0  0  0  0  0  0  0  0
   29.4146   47.9941   44.3279 O   0  0  0  0  0  0  0  0  0  0  0  0
   29.2091   48.5703   42.9566 C   0  0  0  0  0  0  0  0  0  0  0  0
   30.3552   48.3397   41.9360 C   0  0  0  0  0  0  0  0  0  0  0  0
   30.1512   49.7105   41.3871 O   0  0  0  0  0  0  0  0  0  0  0  0
   28.8403   49.7073   40.7927 C   0  0  0  0  0  0  0  0  0  0  0  0
   29.0442   49.4067   39.3037 C   0  0  0  0  0  0  0  0  0  0  0  0
   28.1233   48.4209   38.7791 O   0  0  0  0  0  0  0  0  0  0  0  0
   26.9240   48.3532   39.6223 C   0  0  0  0  0  0  0  0  0  0  0  0
   25.5784   48.5584   38.8928 C   0  0  0  0  0  0  0  0  0  0  0  0
   25.3607   47.6332   37.7989 O   0  0  0  0  0  0  0  0  0  0  0  0
   25.7351   46.2763   38.1576 C   0  0  0  0  0  0  0  0  0  0  0  0
   24.5072   45.4280   38.5253 C   0  0  0  0  0  0  0  0  0  0  0  0
   25.6817   43.7865   39.7667 C   0  0  0  0  0  0  0  0  0  0  0  0
   24.8713   44.0274   38.5966 O   0  0  0  0  0  0  0  0  0  0  0  0
 45 46  1  0  0  0
 46 44  1  0  0  0
 44 43  1  0  0  0
 43 42  1  0  0  0
 42 41  1  0  0  0
 41 40  1  0  0  0
 40 39  1  0  0  0
 39 38  1  0  0  0
 38 37  1  0  0  0
 37 36  1  0  0  0
 36 35  1  0  0  0
 35 34  1  0  0  0
 34 33  1  0  0  0
 33 32  1  0  0  0
 32 27  1  0  0  0
 27 28  2  0  0  0
 27 29  1  0  0  0
 28 31  1  0  0  0
 29 30  2  0  0  0
 30 31  1  0  0  0
 31 26  1  0  0  0
 26 25  1  0  0  0
 25  1  1  0  0  0
  1  2  1  0  0  0
  2  3  1  0  0  0
  3 21  1  0  0  0
  3  4  1  0  0  0
 21 22  1  0  0  0
 21 23  2  0  0  0
  4  5  1  0  0  0
  5  6  2  0  0  0
  5  7  1  0  0  0
  7 10  1  0  0  0
 10 11  1  0  0  0
 10 15  1  0  0  0
 11 12  2  0  0  0
 11 13  1  0  0  0
 15 16  1  0  0  0
 16 17  1  0  0  0
 17 18  2  0  0  0
 17 19  1  0  0  0
 22 24  1  0  0  0
  4  8  1  0  0  0
  7  9  1  0  0  0
 13 14  1  0  0  0
 19 20  1  0  0  0
M  END
> <minimizedAffinity>
-8.36266

$$$$
2XEJ_OKD_A_1768


 46 46  0  0  0  0  0  0  0  0999 V2000
   21.5149   45.8806   42.7848 C   0  0  0  0  0  0  0  0  0  0  0  0
   21.4475   44.9502   44.0223 C   0  0  0  0  0  0  0  0  0  0  0  0
   20.0157   44.7043   44.5502 C   0  0  0  0  0  0  0  0  0  0  0  0
   19.2014   45.0850   43.3961 N   0  0  0  0  0  0  0  0  0  0  0  0
   18.0750   44.4830   43.0689 C   0  0  0  0  0  0  0  0  0  0  0  0
   17.5734   43.5941   43.7488 O   0  0  0  0  0  0  0  0  0  0  0  0
   17.4052   44.9739   42.0256 N   0  0  0  0  0  0  0  0  0  0  0  0
   19.5112   45.8311   42.8333 H   0  0  0  0  0  0  0  0  0  0  0  0
   17.6244   45.8623   41.6624 H   0  0  0  0  0  0  0  0  0  0  0  0
   16.3493   44.1765   41.4363 C   0  0  0  0  0  0  0  0  0  0  0  0
   16.6107   44.1527   39.9057 C   0  0  0  0  0  0  0  0  0  0  0  0
   15.7042   43.6387   39.2167 O   0  0  0  0  0  0  0  0  0  0  0  0
   17.6939   44.6129   39.4245 O   0  0  0  0  0  0  0  0  0  0  0  0
   18.3375   44.9872   39.9934 H   0  0  0  0  0  0  0  0  0  0  0  0
   14.9310   44.8290   41.5988 C   0  0  0  0  0  0  0  0  0  0  0  0
   14.9704   46.3670   41.2869 C   0  0  0  0  0  0  0  0  0  0  0  0
   13.8555   46.8633   40.3225 C   0  0  0  0  0  0  0  0  0  0  0  0
   14.0945   47.9017   39.6724 O   0  0  0  0  0  0  0  0  0  0  0  0
   12.7748   46.2333   40.2789 O   0  0  0  0  0  0  0  0  0  0  0  0
   12.6627   45.4591   40.7946 H   0  0  0  0  0  0  0  0  0  0  0  0
   19.7646   45.6642   45.7352 C   0  0  0  0  0  0  0  0  0  0  0  0
   19.3299   46.7948   45.4179 O   0  0  0  0  0  0  0  0  0  0  0  0
   20.1613   45.3146   46.8606 O   0  0  0  0  0  0  0  0  0  0  0  0
   19.0534   46.9604   44.5380 H   0  0  0  0  0  0  0  0  0  0  0  0
   22.7726   45.4363   41.9673 C   0  0  0  0  0  0  0  0  0  0  0  0
   23.9353   45.1727   42.8994 C   0  0  0  0  0  0  0  0  0  0  0  0
   25.9385   48.0118   43.6394 C   0  0  0  0  0  0  0  0  0  0  0  0
   24.9304   47.1851   43.9447 C   0  0  0  0  0  0  0  0  0  0  0  0
   26.4726   47.5716   42.4809 N   0  0  0  0  0  0  0  0  0  0  0  0
   25.8279   46.5570   42.1234 N   0  0  0  0  0  0  0  0  0  0  0  0
   24.9127   46.3060   42.9376 N   0  0  0  0  0  0  0  0  0  0  0  0
   26.3419   49.1332   44.4343 C   0  0  0  0  0  0  0  0  0  0  0  0
   25.4128   50.0239   45.2609 O   0  0  0  0  0  0  0  0  0  0  0  0
   25.1716   51.3924   44.6919 C   0  0  0  0  0  0  0  0  0  0  0  0
   24.2965   51.4595   43.4121 C   0  0  0  0  0  0  0  0  0  0  0  0
   25.0514   52.6592   42.9508 O   0  0  0  0  0  0  0  0  0  0  0  0
   25.1981   52.5105   41.5266 C   0  0  0  0  0  0  0  0  0  0  0  0
   25.0303   51.0161   41.2309 C   0  0  0  0  0  0  0  0  0  0  0  0
   25.1026   50.6914   39.8223 O   0  0  0  0  0  0  0  0  0  0  0  0
   26.0623   49.6024   39.6050 C   0  0  0  0  0  0  0  0  0  0  0  0
   25.4896   48.3224   38.9581 C   0  0  0  0  0  0  0  0  0  0  0  0
   26.5047   47.4125   38.4667 O   0  0  0  0  0  0  0  0  0  0  0  0
   25.9410   46.1277   38.0907 C   0  0  0  0  0  0  0  0  0  0  0  0
   24.5649   45.9015   38.7371 C   0  0  0  0  0  0  0  0  0  0  0  0
   25.6794   44.0241   39.6583 C   0  0  0  0  0  0  0  0  0  0  0  0
   24.4248   44.5173   39.1416 O   0  0  0  0  0  0  0  0  0  0  0  0
 45 46  1  0  0  0
 46 44  1  0  0  0
 44 43  1  0  0  0
 43 42  1  0  0  0
 42 41  1  0  0  0
 41 40  1  0  0  0
 40 39  1  0  0  0
 39 38  1  0  0  0
 38 37  1  0  0  0
 37 36  1  0  0  0
 36 35  1  0  0  0
 35 34  1  0  0  0
 34 33  1  0  0  0
 33 32  1  0  0  0
 32 27  1  0  0  0
 27 28  2  0  0  0
 27 29  1  0  0  0
 28 31  1  0  0  0
 29 30  2  0  0  0
 30 31  1  0  0  0
 31 26  1  0  0  0
 26 25  1  0  0  0
 25  1  1  0  0  0
  1  2  1  0  0  0
  2  3  1  0  0  0
  3 21  1  0  0  0
  3  4  1  0  0  0
 21 22  1  0  0  0
 21 23  2  0  0  0
  4  5  1  0  0  0
  5  6  2  0  0  0
  5  7  1  0  0  0
  7 10  1  0  0  0
 10 11  1  0  0  0
 10 15  1  0  0  0
 11 12  2  0  0  0
 11 13  1  0  0  0
 15 16  1  0  0  0
 16 17  1  0  0  0
 17 18  2  0  0  0
 17 19  1  0  0  0
 22 24  1  0  0  0
  4  8  1  0  0  0
  7  9  1  0  0  0
 13 14  1  0  0  0
 19 20  1  0  0  0
M  END
> <minimizedAffinity>
-8.15248

$$$$
2XEJ_OKD_A_1768


 46 46  0  0  0  0  0  0  0  0999 V2000
   21.4286   45.7171   42.7446 C   0  0  0  0  0  0  0  0  0  0  0  0
   21.2443   44.6922   43.8923 C   0  0  0  0  0  0  0  0  0  0  0  0
   19.8560   44.7458   44.5698 C   0  0  0  0  0  0  0  0  0  0  0  0
   19.0007   45.1820   43.4662 N   0  0  0  0  0  0  0  0  0  0  0  0
   17.9206   44.5316   43.0807 C   0  0  0  0  0  0  0  0  0  0  0  0
   17.4979   43.5388   43.6633 O   0  0  0  0  0  0  0  0  0  0  0  0
   17.2020   45.0767   42.0985 N   0  0  0  0  0  0  0  0  0  0  0  0
   19.2447   46.0058   42.9854 H   0  0  0  0  0  0  0  0  0  0  0  0
   17.3471   46.0132   41.8317 H   0  0  0  0  0  0  0  0  0  0  0  0
   16.2043   44.2662   41.4311 C   0  0  0  0  0  0  0  0  0  0  0  0
   16.6003   44.2186   39.9303 C   0  0  0  0  0  0  0  0  0  0  0  0
   15.7249   43.7691   39.1606 O   0  0  0  0  0  0  0  0  0  0  0  0
   17.7529   44.5979   39.5503 O   0  0  0  0  0  0  0  0  0  0  0  0
   18.3678   44.9266   40.1762 H   0  0  0  0  0  0  0  0  0  0  0  0
   14.7757   44.9161   41.4567 C   0  0  0  0  0  0  0  0  0  0  0  0
   14.8594   46.4825   41.3958 C   0  0  0  0  0  0  0  0  0  0  0  0
   14.0890   47.1288   40.2092 C   0  0  0  0  0  0  0  0  0  0  0  0
   13.1083   46.4977   39.7641 O   0  0  0  0  0  0  0  0  0  0  0  0
   14.5089   48.2096   39.7378 O   0  0  0  0  0  0  0  0  0  0  0  0
   15.2524   48.6308   40.1221 H   0  0  0  0  0  0  0  0  0  0  0  0
   19.9006   45.8181   45.6820 C   0  0  0  0  0  0  0  0  0  0  0  0
   20.1934   45.3878   46.8209 O   0  0  0  0  0  0  0  0  0  0  0  0
   19.4891   46.9587   45.4066 O   0  0  0  0  0  0  0  0  0  0  0  0
   20.4967   44.5075   46.9254 H   0  0  0  0  0  0  0  0  0  0  0  0
   22.9505   46.0780   42.7160 C   0  0  0  0  0  0  0  0  0  0  0  0
   23.7783   44.8335   42.4791 C   0  0  0  0  0  0  0  0  0  0  0  0
   25.4334   45.6914   39.4550 C   0  0  0  0  0  0  0  0  0  0  0  0
   24.6325   46.0158   40.4778 C   0  0  0  0  0  0  0  0  0  0  0  0
   25.8096   44.4087   39.6399 N   0  0  0  0  0  0  0  0  0  0  0  0
   25.2705   44.0002   40.6960 N   0  0  0  0  0  0  0  0  0  0  0  0
   24.5653   44.8974   41.2073 N   0  0  0  0  0  0  0  0  0  0  0  0
   25.8007   46.5811   38.3938 C   0  0  0  0  0  0  0  0  0  0  0  0
   26.1652   48.0583   38.5511 O   0  0  0  0  0  0  0  0  0  0  0  0
   27.3927   48.3263   39.3734 C   0  0  0  0  0  0  0  0  0  0  0  0
   27.1576   48.6514   40.8725 C   0  0  0  0  0  0  0  0  0  0  0  0
   26.0345   49.5605   40.5061 O   0  0  0  0  0  0  0  0  0  0  0  0
   25.1122   49.5145   41.6103 C   0  0  0  0  0  0  0  0  0  0  0  0
   25.0775   50.9285   42.2005 C   0  0  0  0  0  0  0  0  0  0  0  0
   25.4325   50.9811   43.6027 O   0  0  0  0  0  0  0  0  0  0  0  0
   26.8848   51.1340   43.7491 C   0  0  0  0  0  0  0  0  0  0  0  0
   27.5685   50.1486   44.7220 C   0  0  0  0  0  0  0  0  0  0  0  0
   27.7805   48.8288   44.1624 O   0  0  0  0  0  0  0  0  0  0  0  0
   27.6184   47.7870   45.1616 C   0  0  0  0  0  0  0  0  0  0  0  0
   28.9548   47.1009   45.4870 C   0  0  0  0  0  0  0  0  0  0  0  0
   30.4959   48.5675   46.5308 C   0  0  0  0  0  0  0  0  0  0  0  0
   29.4664   47.5806   46.7549 O   0  0  0  0  0  0  0  0  0  0  0  0
 45 46  1  0  0  0
 46 44  1  0  0  0
 44 43  1  0  0  0
 43 42  1  0  0  0
 42 41  1  0  0  0
 41 40  1  0  0  0
 40 39  1  0  0  0
 39 38  1  0  0  0
 38 37  1  0  0  0
 37 36  1  0  0  0
 36 35  1  0  0  0
 35 34  1  0  0  0
 34 33  1  0  0  0
 33 32  1  0  0  0
 32 27  1  0  0  0
 27 28  2  0  0  0
 27 29  1  0  0  0
 28 31  1  0  0  0
 29 30  2  0  0  0
 30 31  1  0  0  0
 31 26  1  0  0  0
 26 25  1  0  0  0
 25  1  1  0  0  0
  1  2  1  0  0  0
  2  3  1  0  0  0
  3 21  1  0  0  0
  3  4  1  0  0  0
 21 22  1  0  0  0
 21 23  2  0  0  0
  4  5  1  0  0  0
  5  6  2  0  0  0
  5  7  1  0  0  0
  7 10  1  0  0  0
 10 11  1  0  0  0
 10 15  1  0  0  0
 11 12  2  0  0  0
 11 13  1  0  0  0
 15 16  1  0  0  0
 16 17  1  0  0  0
 17 18  2  0  0  0
 17 19  1  0  0  0
 22 24  1  0  0  0
  4  8  1  0  0  0
  7  9  1  0  0  0
 13 14  1  0  0  0
 19 20  1  0  0  0
M  END
> <minimizedAffinity>
-8.08290

$$$$
2XEJ_OKD_A_1768


 46 46  0  0  0  0  0  0  0  0999 V2000
   21.5408   46.1013   42.8394 C   0  0  0  0  0  0  0  0  0  0  0  0
   21.6561   45.0358   43.9588 C   0  0  0  0  0  0  0  0  0  0  0  0
   20.3115   44.3795   44.3468 C   0  0  0  0  0  0  0  0  0  0  0  0
   19.3977   44.9671   43.3673 N   0  0  0  0  0  0  0  0  0  0  0  0
   18.2056   44.4737   43.0955 C   0  0  0  0  0  0  0  0  0  0  0  0
   17.7289   43.5161   43.6954 O   0  0  0  0  0  0  0  0  0  0  0  0
   17.4545   45.1468   42.2233 N   0  0  0  0  0  0  0  0  0  0  0  0
   19.6884   45.7747   42.8850 H   0  0  0  0  0  0  0  0  0  0  0  0
   17.6870   46.0689   41.9686 H   0  0  0  0  0  0  0  0  0  0  0  0
   16.2904   44.4969   41.6573 C   0  0  0  0  0  0  0  0  0  0  0  0
   16.6546   44.1266   40.1938 C   0  0  0  0  0  0  0  0  0  0  0  0
   15.8102   43.4287   39.5932 O   0  0  0  0  0  0  0  0  0  0  0  0
   17.7552   44.5060   39.6825 O   0  0  0  0  0  0  0  0  0  0  0  0
   18.3490   45.0293   40.1840 H   0  0  0  0  0  0  0  0  0  0  0  0
   15.0539   45.4568   41.5407 C   0  0  0  0  0  0  0  0  0  0  0  0
   15.3126   46.5972   40.4934 C   0  0  0  0  0  0  0  0  0  0  0  0
   14.0635   47.4568   40.1468 C   0  0  0  0  0  0  0  0  0  0  0  0
   13.4750   47.1900   39.0789 O   0  0  0  0  0  0  0  0  0  0  0  0
   13.7410   48.3867   40.9200 O   0  0  0  0  0  0  0  0  0  0  0  0
   14.2277   48.5314   41.7075 H   0  0  0  0  0  0  0  0  0  0  0  0
   19.9446   44.8356   45.7772 C   0  0  0  0  0  0  0  0  0  0  0  0
   19.6541   46.0485   45.8880 O   0  0  0  0  0  0  0  0  0  0  0  0
   20.1257   44.0314   46.7082 O   0  0  0  0  0  0  0  0  0  0  0  0
   19.5375   46.5743   45.1213 H   0  0  0  0  0  0  0  0  0  0  0  0
   22.3651   47.3399   43.3232 C   0  0  0  0  0  0  0  0  0  0  0  0
   21.5086   48.2270   44.2004 C   0  0  0  0  0  0  0  0  0  0  0  0
   23.4352   51.2107   44.2850 C   0  0  0  0  0  0  0  0  0  0  0  0
   23.1512   50.0218   43.7385 C   0  0  0  0  0  0  0  0  0  0  0  0
   22.5838   51.3836   45.3177 N   0  0  0  0  0  0  0  0  0  0  0  0
   21.8477   50.3702   45.3806 N   0  0  0  0  0  0  0  0  0  0  0  0
   22.1533   49.5467   44.4906 N   0  0  0  0  0  0  0  0  0  0  0  0
   24.4550   52.1007   43.8156 C   0  0  0  0  0  0  0  0  0  0  0  0
   25.7119   52.5067   44.5870 O   0  0  0  0  0  0  0  0  0  0  0  0
   26.9797   51.8433   44.1315 C   0  0  0  0  0  0  0  0  0  0  0  0
   27.1826   51.7304   42.5972 C   0  0  0  0  0  0  0  0  0  0  0  0
   27.9488   50.4655   42.7850 O   0  0  0  0  0  0  0  0  0  0  0  0
   26.9866   49.4782   43.1990 C   0  0  0  0  0  0  0  0  0  0  0  0
   27.6531   48.1141   42.9894 C   0  0  0  0  0  0  0  0  0  0  0  0
   28.0757   47.8780   41.6253 O   0  0  0  0  0  0  0  0  0  0  0  0
   26.9074   47.6333   40.7714 C   0  0  0  0  0  0  0  0  0  0  0  0
   26.9589   48.2700   39.3654 C   0  0  0  0  0  0  0  0  0  0  0  0
   26.5894   47.3608   38.2992 O   0  0  0  0  0  0  0  0  0  0  0  0
   25.1821   47.0058   38.3566 C   0  0  0  0  0  0  0  0  0  0  0  0
   24.8420   45.8754   37.3723 C   0  0  0  0  0  0  0  0  0  0  0  0
   25.1992   44.6068   39.3416 C   0  0  0  0  0  0  0  0  0  0  0  0
   24.4708   44.6770   38.0972 O   0  0  0  0  0  0  0  0  0  0  0  0
 45 46  1  0  0  0
 46 44  1  0  0  0
 44 43  1  0  0  0
 43 42  1  0  0  0
 42 41  1  0  0  0
 41 40  1  0  0  0
 40 39  1  0  0  0
 39 38  1  0  0  0
 38 37  1  0  0  0
 37 36  1  0  0  0
 36 35  1  0  0  0
 35 34  1  0  0  0
 34 33  1  0  0  0
 33 32  1  0  0  0
 32 27  1  0  0  0
 27 28  2  0  0  0
 27 29  1  0  0  0
 28 31  1  0  0  0
 29 30  2  0  0  0
 30 31  1  0  0  0
 31 26  1  0  0  0
 26 25  1  0  0  0
 25  1  1  0  0  0
  1  2  1  0  0  0
  2  3  1  0  0  0
  3 21  1  0  0  0
  3  4  1  0  0  0
 21 22  1  0  0  0
 21 23  2  0  0  0
  4  5  1  0  0  0
  5  6  2  0  0  0
  5  7  1  0  0  0
  7 10  1  0  0  0
 10 11  1  0  0  0
 10 15  1  0  0  0
 11 12  2  0  0  0
 11 13  1  0  0  0
 15 16  1  0  0  0
 16 17  1  0  0  0
 17 18  2  0  0  0
 17 19  1  0  0  0
 22 24  1  0  0  0
  4  8  1  0  0  0
  7  9  1  0  0  0
 13 14  1  0  0  0
 19 20  1  0  0  0
M  END
> <minimizedAffinity>
-7.99971

$$$$
2XEJ_OKD_A_1768


 46 46  0  0  0  0  0  0  0  0999 V2000
   21.5952   45.7346   42.7460 C   0  0  0  0  0  0  0  0  0  0  0  0
   21.5888   44.8232   43.9993 C   0  0  0  0  0  0  0  0  0  0  0  0
   20.1779   44.3880   44.4565 C   0  0  0  0  0  0  0  0  0  0  0  0
   19.3433   44.8772   43.3592 N   0  0  0  0  0  0  0  0  0  0  0  0
   18.1537   44.3854   43.0736 C   0  0  0  0  0  0  0  0  0  0  0  0
   17.6112   43.5193   43.7514 O   0  0  0  0  0  0  0  0  0  0  0  0
   17.4780   44.9681   42.0827 N   0  0  0  0  0  0  0  0  0  0  0  0
   19.6884   45.6133   42.8040 H   0  0  0  0  0  0  0  0  0  0  0  0
   17.7554   45.8468   41.7359 H   0  0  0  0  0  0  0  0  0  0  0  0
   16.3286   44.2851   41.5257 C   0  0  0  0  0  0  0  0  0  0  0  0
   16.5929   44.1380   40.0025 C   0  0  0  0  0  0  0  0  0  0  0  0
   17.7730   44.3357   39.6434 O   0  0  0  0  0  0  0  0  0  0  0  0
   15.6450   43.8570   39.2030 O   0  0  0  0  0  0  0  0  0  0  0  0
   14.7790   43.7194   39.5330 H   0  0  0  0  0  0  0  0  0  0  0  0
   15.0090   45.1284   41.6322 C   0  0  0  0  0  0  0  0  0  0  0  0
   15.2525   46.6246   41.2242 C   0  0  0  0  0  0  0  0  0  0  0  0
   14.1702   47.2258   40.2828 C   0  0  0  0  0  0  0  0  0  0  0  0
   13.6021   48.2674   40.6707 O   0  0  0  0  0  0  0  0  0  0  0  0
   13.8950   46.6224   39.2213 O   0  0  0  0  0  0  0  0  0  0  0  0
   14.3624   45.8437   38.9903 H   0  0  0  0  0  0  0  0  0  0  0  0
   19.8431   45.1313   45.7695 C   0  0  0  0  0  0  0  0  0  0  0  0
   19.6843   44.3945   46.7694 O   0  0  0  0  0  0  0  0  0  0  0  0
   19.5957   46.3481   45.7018 O   0  0  0  0  0  0  0  0  0  0  0  0
   19.9015   43.4844   46.7199 H   0  0  0  0  0  0  0  0  0  0  0  0
   22.0275   47.1558   43.2366 C   0  0  0  0  0  0  0  0  0  0  0  0
   23.4016   47.4973   42.7023 C   0  0  0  0  0  0  0  0  0  0  0  0
   24.8942   50.2231   44.4238 C   0  0  0  0  0  0  0  0  0  0  0  0
   24.1396   49.7481   43.4248 C   0  0  0  0  0  0  0  0  0  0  0  0
   25.3044   49.1607   45.1478 N   0  0  0  0  0  0  0  0  0  0  0  0
   24.8286   48.1290   44.6169 N   0  0  0  0  0  0  0  0  0  0  0  0
   24.1575   48.4233   43.6037 N   0  0  0  0  0  0  0  0  0  0  0  0
   25.1736   51.6107   44.6452 C   0  0  0  0  0  0  0  0  0  0  0  0
   26.4584   52.3388   44.2468 O   0  0  0  0  0  0  0  0  0  0  0  0
   26.7852   52.2964   42.7818 C   0  0  0  0  0  0  0  0  0  0  0  0
   27.5565   51.0442   42.2864 C   0  0  0  0  0  0  0  0  0  0  0  0
   26.7067   50.9968   41.0625 O   0  0  0  0  0  0  0  0  0  0  0  0
   26.4961   49.6009   40.7812 C   0  0  0  0  0  0  0  0  0  0  0  0
   25.9749   49.5264   39.3419 C   0  0  0  0  0  0  0  0  0  0  0  0
   26.2527   48.2651   38.6885 O   0  0  0  0  0  0  0  0  0  0  0  0
   25.0356   47.7497   38.0505 C   0  0  0  0  0  0  0  0  0  0  0  0
   25.0784   46.2660   37.6240 C   0  0  0  0  0  0  0  0  0  0  0  0
   24.4567   45.3672   38.5756 O   0  0  0  0  0  0  0  0  0  0  0  0
   25.3199   45.1060   39.7142 C   0  0  0  0  0  0  0  0  0  0  0  0
   25.6760   43.6149   39.8253 C   0  0  0  0  0  0  0  0  0  0  0  0
   24.6528   43.9436   41.9372 C   0  0  0  0  0  0  0  0  0  0  0  0
   25.6551   43.1987   41.2130 O   0  0  0  0  0  0  0  0  0  0  0  0
 45 46  1  0  0  0
 46 44  1  0  0  0
 44 43  1  0  0  0
 43 42  1  0  0  0
 42 41  1  0  0  0
 41 40  1  0  0  0
 40 39  1  0  0  0
 39 38  1  0  0  0
 38 37  1  0  0  0
 37 36  1  0  0  0
 36 35  1  0  0  0
 35 34  1  0  0  0
 34 33  1  0  0  0
 33 32  1  0  0  0
 32 27  1  0  0  0
 27 28  2  0  0  0
 27 29  1  0  0  0
 28 31  1  0  0  0
 29 30  2  0  0  0
 30 31  1  0  0  0
 31 26  1  0  0  0
 26 25  1  0  0  0
 25  1  1  0  0  0
  1  2  1  0  0  0
  2  3  1  0  0  0
  3 21  1  0  0  0
  3  4  1  0  0  0
 21 22  1  0  0  0
 21 23  2  0  0  0
  4  5  1  0  0  0
  5  6  2  0  0  0
  5  7  1  0  0  0
  7 10  1  0  0  0
 10 11  1  0  0  0
 10 15  1  0  0  0
 11 12  2  0  0  0
 11 13  1  0  0  0
 15 16  1  0  0  0
 16 17  1  0  0  0
 17 18  2  0  0  0
 17 19  1  0  0  0
 22 24  1  0  0  0
  4  8  1  0  0  0
  7  9  1  0  0  0
 13 14  1  0  0  0
 19 20  1  0  0  0
M  END
> <minimizedAffinity>
-7.92617

$$$$
2XEJ_OKD_A_1768


 46 46  0  0  0  0  0  0  0  0999 V2000
   21.4240   46.3495   43.0177 C   0  0  0  0  0  0  0  0  0  0  0  0
   21.1596   45.0092   43.7495 C   0  0  0  0  0  0  0  0  0  0  0  0
   19.8134   44.9585   44.5075 C   0  0  0  0  0  0  0  0  0  0  0  0
   18.8692   45.3714   43.4693 N   0  0  0  0  0  0  0  0  0  0  0  0
   17.8670   44.6211   43.0560 C   0  0  0  0  0  0  0  0  0  0  0  0
   17.5959   43.5362   43.5594 O   0  0  0  0  0  0  0  0  0  0  0  0
   17.0490   45.1490   42.1447 N   0  0  0  0  0  0  0  0  0  0  0  0
   18.9886   46.2574   43.0569 H   0  0  0  0  0  0  0  0  0  0  0  0
   17.0639   46.1155   41.9580 H   0  0  0  0  0  0  0  0  0  0  0  0
   16.1384   44.2749   41.4345 C   0  0  0  0  0  0  0  0  0  0  0  0
   16.6116   44.2454   39.9557 C   0  0  0  0  0  0  0  0  0  0  0  0
   15.7417   43.9133   39.1228 O   0  0  0  0  0  0  0  0  0  0  0  0
   17.8147   44.5240   39.6531 O   0  0  0  0  0  0  0  0  0  0  0  0
   18.4222   44.7670   40.3238 H   0  0  0  0  0  0  0  0  0  0  0  0
   14.6727   44.8346   41.3838 C   0  0  0  0  0  0  0  0  0  0  0  0
   14.6567   46.4022   41.4651 C   0  0  0  0  0  0  0  0  0  0  0  0
   14.0967   47.1128   40.1999 C   0  0  0  0  0  0  0  0  0  0  0  0
   14.6420   48.1857   39.8688 O   0  0  0  0  0  0  0  0  0  0  0  0
   13.1153   46.6060   39.6111 O   0  0  0  0  0  0  0  0  0  0  0  0
   12.7546   45.7959   39.9137 H   0  0  0  0  0  0  0  0  0  0  0  0
   19.8600   46.0006   45.6479 C   0  0  0  0  0  0  0  0  0  0  0  0
   19.1384   47.0089   45.4736 O   0  0  0  0  0  0  0  0  0  0  0  0
   20.7111   45.8470   46.5413 O   0  0  0  0  0  0  0  0  0  0  0  0
   18.5232   47.0283   44.7671 H   0  0  0  0  0  0  0  0  0  0  0  0
   22.9077   46.2971   42.5245 C   0  0  0  0  0  0  0  0  0  0  0  0
   23.8425   46.1078   43.6995 C   0  0  0  0  0  0  0  0  0  0  0  0
   27.0319   47.6490   43.9703 C   0  0  0  0  0  0  0  0  0  0  0  0
   25.9642   47.0725   44.5364 C   0  0  0  0  0  0  0  0  0  0  0  0
   26.8106   47.6679   42.6392 N   0  0  0  0  0  0  0  0  0  0  0  0
   25.6919   47.1413   42.4297 N   0  0  0  0  0  0  0  0  0  0  0  0
   25.1586   46.7946   43.5063 N   0  0  0  0  0  0  0  0  0  0  0  0
   28.1753   48.1287   44.6880 C   0  0  0  0  0  0  0  0  0  0  0  0
   28.2318   48.4198   46.1885 O   0  0  0  0  0  0  0  0  0  0  0  0
   28.8784   49.7233   46.5595 C   0  0  0  0  0  0  0  0  0  0  0  0
   30.1259   49.6341   47.4782 C   0  0  0  0  0  0  0  0  0  0  0  0
   29.4514   50.4973   48.4891 O   0  0  0  0  0  0  0  0  0  0  0  0
   28.8243   51.5593   47.7469 C   0  0  0  0  0  0  0  0  0  0  0  0
   28.7067   52.7456   48.7101 C   0  0  0  0  0  0  0  0  0  0  0  0
   27.6891   53.7025   48.3308 O   0  0  0  0  0  0  0  0  0  0  0  0
   26.5966   53.0227   47.6250 C   0  0  0  0  0  0  0  0  0  0  0  0
   26.3257   53.5062   46.1835 C   0  0  0  0  0  0  0  0  0  0  0  0
   25.2657   54.4897   46.0875 O   0  0  0  0  0  0  0  0  0  0  0  0
   24.2795   54.1236   45.0857 C   0  0  0  0  0  0  0  0  0  0  0  0
   23.9181   52.6317   45.1649 C   0  0  0  0  0  0  0  0  0  0  0  0
   24.7325   50.6301   44.1926 C   0  0  0  0  0  0  0  0  0  0  0  0
   24.2623   51.9682   43.9236 O   0  0  0  0  0  0  0  0  0  0  0  0
 45 46  1  0  0  0
 46 44  1  0  0  0
 44 43  1  0  0  0
 43 42  1  0  0  0
 42 41  1  0  0  0
 41 40  1  0  0  0
 40 39  1  0  0  0
 39 38  1  0  0  0
 38 37  1  0  0  0
 37 36  1  0  0  0
 36 35  1  0  0  0
 35 34  1  0  0  0
 34 33  1  0  0  0
 33 32  1  0  0  0
 32 27  1  0  0  0
 27 28  2  0  0  0
 27 29  1  0  0  0
 28 31  1  0  0  0
 29 30  2  0  0  0
 30 31  1  0  0  0
 31 26  1  0  0  0
 26 25  1  0  0  0
 25  1  1  0  0  0
  1  2  1  0  0  0
  2  3  1  0  0  0
  3 21  1  0  0  0
  3  4  1  0  0  0
 21 22  1  0  0  0
 21 23  2  0  0  0
  4  5  1  0  0  0
  5  6  2  0  0  0
  5  7  1  0  0  0
  7 10  1  0  0  0
 10 11  1  0  0  0
 10 15  1  0  0  0
 11 12  2  0  0  0
 11 13  1  0  0  0
 15 16  1  0  0  0
 16 17  1  0  0  0
 17 18  2  0  0  0
 17 19  1  0  0  0
 22 24  1  0  0  0
  4  8  1  0  0  0
  7  9  1  0  0  0
 13 14  1  0  0  0
 19 20  1  0  0  0
M  END
> <minimizedAffinity>
-7.76564

$$$$
