6HD6_FYH_A_602


 28 30  0  0  0  0  0  0  0  0999 V2000
   21.1755   43.0361   54.9595 C   0  0  0  0  0  0  0  0  0  0  0  0
   20.4206   43.4042   53.8786 N   0  0  0  0  0  0  0  0  0  0  0  0
   21.4547   41.8730   55.2260 O   0  0  0  0  0  0  0  0  0  0  0  0
   20.2888   44.3703   53.7429 H   0  0  0  0  0  0  0  0  0  0  0  0
   19.8054   42.5390   52.9290 C   0  0  0  0  0  0  0  0  0  0  0  0
   18.4444   42.1916   53.0376 C   0  0  0  0  0  0  0  0  0  0  0  0
   17.8325   41.2992   52.1320 C   0  0  0  0  0  0  0  0  0  0  0  0
   18.5988   40.7141   51.1040 C   0  0  0  0  0  0  0  0  0  0  0  0
   19.9573   41.0409   51.0139 C   0  0  0  0  0  0  0  0  0  0  0  0
   20.5492   41.9319   51.9198 C   0  0  0  0  0  0  0  0  0  0  0  0
   18.0752   39.8165   50.1592 O   0  0  0  0  0  0  0  0  0  0  0  0
   17.7830   38.4404   50.4755 C   0  0  0  0  0  0  0  0  0  0  0  0
   17.2972   37.8001   49.3866 F   0  0  0  0  0  0  0  0  0  0  0  0
   16.8830   38.2948   51.4720 F   0  0  0  0  0  0  0  0  0  0  0  0
   18.9238   37.8494   50.9035 F   0  0  0  0  0  0  0  0  0  0  0  0
   21.7155   44.0586   55.9449 C   0  0  0  0  0  0  0  0  0  0  0  0
   21.9058   43.7444   57.3075 C   0  0  0  0  0  0  0  0  0  0  0  0
   22.3867   44.7139   58.2173 C   0  0  0  0  0  0  0  0  0  0  0  0
   22.6612   46.0036   57.7332 C   0  0  0  0  0  0  0  0  0  0  0  0
   22.4680   46.3334   56.3894 C   0  0  0  0  0  0  0  0  0  0  0  0
   21.9889   45.3633   55.5032 C   0  0  0  0  0  0  0  0  0  0  0  0
   22.6000   44.3394   59.7063 C   0  0  0  0  0  0  0  0  0  0  0  0
   19.9042   42.3688   61.6840 C   0  0  0  0  0  0  0  0  0  0  0  0
   21.0902   42.5918   60.6984 C   0  0  0  0  0  0  0  0  0  0  0  0
   21.3951   44.0416   60.5387 N   0  0  0  0  0  0  0  0  0  0  0  0
   20.1953   44.9137   60.3470 C   0  0  0  0  0  0  0  0  0  0  0  0
   19.0847   44.6175   61.3866 C   0  0  0  0  0  0  0  0  0  0  0  0
   18.7728   43.2077   61.3474 O   0  0  0  0  0  0  0  0  0  0  0  0
 15 12  1  0  0  0
 11 12  1  0  0  0
 11  8  1  0  0  0
 12 14  1  0  0  0
 12 13  1  0  0  0
  8  9  2  0  0  0
  8  7  1  0  0  0
  9 10  1  0  0  0
  7  6  2  0  0  0
 10  5  2  0  0  0
  6  5  1  0  0  0
  5  2  1  0  0  0
  3  1  2  0  0  0
  2  1  1  0  0  0
  1 16  1  0  0  0
 17 16  2  0  0  0
 17 18  1  0  0  0
 16 21  1  0  0  0
 22 18  1  0  0  0
 22 25  1  0  0  0
 18 19  2  0  0  0
 21 20  2  0  0  0
 25 24  1  0  0  0
 25 26  1  0  0  0
 19 20  1  0  0  0
 24 23  1  0  0  0
 26 27  1  0  0  0
 23 28  1  0  0  0
 27 28  1  0  0  0
  2  4  1  0  0  0
M  END
> <minimizedAffinity>
-8.99754

$$$$
6HD6_FYH_A_602


 28 30  0  0  0  0  0  0  0  0999 V2000
   21.5391   42.9048   54.1226 C   0  0  0  0  0  0  0  0  0  0  0  0
   20.9701   42.8855   52.8778 N   0  0  0  0  0  0  0  0  0  0  0  0
   21.3585   42.0316   54.9633 O   0  0  0  0  0  0  0  0  0  0  0  0
   21.2137   43.6221   52.2718 H   0  0  0  0  0  0  0  0  0  0  0  0
   20.0635   41.9138   52.3654 C   0  0  0  0  0  0  0  0  0  0  0  0
   20.5056   40.8912   51.5031 C   0  0  0  0  0  0  0  0  0  0  0  0
   19.6119   39.9495   50.9504 C   0  0  0  0  0  0  0  0  0  0  0  0
   18.2357   40.0400   51.2409 C   0  0  0  0  0  0  0  0  0  0  0  0
   17.7953   41.0728   52.0774 C   0  0  0  0  0  0  0  0  0  0  0  0
   18.6968   41.9984   52.6209 C   0  0  0  0  0  0  0  0  0  0  0  0
   17.2748   39.1487   50.7362 O   0  0  0  0  0  0  0  0  0  0  0  0
   17.5275   38.2969   49.6006 C   0  0  0  0  0  0  0  0  0  0  0  0
   16.3634   37.8201   49.1015 F   0  0  0  0  0  0  0  0  0  0  0  0
   18.3159   37.2377   49.8850 F   0  0  0  0  0  0  0  0  0  0  0  0
   18.1848   39.0198   48.6629 F   0  0  0  0  0  0  0  0  0  0  0  0
   22.4363   44.0440   54.5758 C   0  0  0  0  0  0  0  0  0  0  0  0
   23.7301   44.2242   54.0421 C   0  0  0  0  0  0  0  0  0  0  0  0
   24.5625   45.2751   54.4912 C   0  0  0  0  0  0  0  0  0  0  0  0
   24.0734   46.1312   55.4917 C   0  0  0  0  0  0  0  0  0  0  0  0
   22.7989   45.9597   56.0378 C   0  0  0  0  0  0  0  0  0  0  0  0
   21.9893   44.9133   55.5842 C   0  0  0  0  0  0  0  0  0  0  0  0
   25.9745   45.4597   53.8789 C   0  0  0  0  0  0  0  0  0  0  0  0
   26.9196   44.6075   50.2125 C   0  0  0  0  0  0  0  0  0  0  0  0
   26.9593   44.5165   51.7675 C   0  0  0  0  0  0  0  0  0  0  0  0
   26.0921   45.5547   52.3921 N   0  0  0  0  0  0  0  0  0  0  0  0
   26.2303   46.9213   51.8002 C   0  0  0  0  0  0  0  0  0  0  0  0
   26.1637   46.8975   50.2520 C   0  0  0  0  0  0  0  0  0  0  0  0
   27.1476   45.9630   49.7568 O   0  0  0  0  0  0  0  0  0  0  0  0
 15 12  1  0  0  0
 11 12  1  0  0  0
 11  8  1  0  0  0
 12 14  1  0  0  0
 12 13  1  0  0  0
  8  9  2  0  0  0
  8  7  1  0  0  0
  9 10  1  0  0  0
  7  6  2  0  0  0
 10  5  2  0  0  0
  6  5  1  0  0  0
  5  2  1  0  0  0
  3  1  2  0  0  0
  2  1  1  0  0  0
  1 16  1  0  0  0
 17 16  2  0  0  0
 17 18  1  0  0  0
 16 21  1  0  0  0
 22 18  1  0  0  0
 22 25  1  0  0  0
 18 19  2  0  0  0
 21 20  2  0  0  0
 25 24  1  0  0  0
 25 26  1  0  0  0
 19 20  1  0  0  0
 24 23  1  0  0  0
 26 27  1  0  0  0
 23 28  1  0  0  0
 27 28  1  0  0  0
  2  4  1  0  0  0
M  END
> <minimizedAffinity>
-8.76331

$$$$
6HD6_FYH_A_602


 28 30  0  0  0  0  0  0  0  0999 V2000
   21.2897   43.4113   54.3340 C   0  0  0  0  0  0  0  0  0  0  0  0
   20.0753   42.7808   54.2972 N   0  0  0  0  0  0  0  0  0  0  0  0
   22.0910   43.3921   53.4070 O   0  0  0  0  0  0  0  0  0  0  0  0
   19.4977   42.8930   55.0866 H   0  0  0  0  0  0  0  0  0  0  0  0
   19.5577   41.9798   53.2393 C   0  0  0  0  0  0  0  0  0  0  0  0
   20.4179   41.3333   52.3300 C   0  0  0  0  0  0  0  0  0  0  0  0
   19.9198   40.5748   51.2495 C   0  0  0  0  0  0  0  0  0  0  0  0
   18.5281   40.4756   51.0498 C   0  0  0  0  0  0  0  0  0  0  0  0
   17.6758   41.1404   51.9397 C   0  0  0  0  0  0  0  0  0  0  0  0
   18.1868   41.8873   53.0102 C   0  0  0  0  0  0  0  0  0  0  0  0
   17.9434   39.7442   50.0031 O   0  0  0  0  0  0  0  0  0  0  0  0
   17.5453   38.3659   50.1478 C   0  0  0  0  0  0  0  0  0  0  0  0
   18.6331   37.5752   50.2996 F   0  0  0  0  0  0  0  0  0  0  0  0
   16.8395   37.8945   49.0971 F   0  0  0  0  0  0  0  0  0  0  0  0
   16.7331   38.2675   51.2270 F   0  0  0  0  0  0  0  0  0  0  0  0
   21.7575   44.1780   55.5593 C   0  0  0  0  0  0  0  0  0  0  0  0
   22.0022   43.5300   56.7888 C   0  0  0  0  0  0  0  0  0  0  0  0
   22.4142   44.2607   57.9269 C   0  0  0  0  0  0  0  0  0  0  0  0
   22.5643   45.6522   57.8068 C   0  0  0  0  0  0  0  0  0  0  0  0
   22.3158   46.3099   56.5996 C   0  0  0  0  0  0  0  0  0  0  0  0
   21.9060   45.5725   55.4841 C   0  0  0  0  0  0  0  0  0  0  0  0
   22.6897   43.5231   59.2622 C   0  0  0  0  0  0  0  0  0  0  0  0
   19.0454   43.1620   60.5468 C   0  0  0  0  0  0  0  0  0  0  0  0
   20.2309   43.7560   59.7286 C   0  0  0  0  0  0  0  0  0  0  0  0
   21.5191   43.0997   60.0892 N   0  0  0  0  0  0  0  0  0  0  0  0
   21.7421   42.9284   61.5581 C   0  0  0  0  0  0  0  0  0  0  0  0
   20.5075   42.3193   62.2700 C   0  0  0  0  0  0  0  0  0  0  0  0
   19.3476   43.1235   61.9626 O   0  0  0  0  0  0  0  0  0  0  0  0
 15 12  1  0  0  0
 11 12  1  0  0  0
 11  8  1  0  0  0
 12 14  1  0  0  0
 12 13  1  0  0  0
  8  9  2  0  0  0
  8  7  1  0  0  0
  9 10  1  0  0  0
  7  6  2  0  0  0
 10  5  2  0  0  0
  6  5  1  0  0  0
  5  2  1  0  0  0
  3  1  2  0  0  0
  2  1  1  0  0  0
  1 16  1  0  0  0
 17 16  2  0  0  0
 17 18  1  0  0  0
 16 21  1  0  0  0
 22 18  1  0  0  0
 22 25  1  0  0  0
 18 19  2  0  0  0
 21 20  2  0  0  0
 25 24  1  0  0  0
 25 26  1  0  0  0
 19 20  1  0  0  0
 24 23  1  0  0  0
 26 27  1  0  0  0
 23 28  1  0  0  0
 27 28  1  0  0  0
  2  4  1  0  0  0
M  END
> <minimizedAffinity>
-8.40894

$$$$
6HD6_FYH_A_602


 28 30  0  0  0  0  0  0  0  0999 V2000
   21.6162   43.1371   54.8954 C   0  0  0  0  0  0  0  0  0  0  0  0
   20.9981   43.3865   53.6998 N   0  0  0  0  0  0  0  0  0  0  0  0
   21.5999   42.0451   55.4512 O   0  0  0  0  0  0  0  0  0  0  0  0
   21.1067   44.2921   53.3293 H   0  0  0  0  0  0  0  0  0  0  0  0
   20.2147   42.4760   52.9343 C   0  0  0  0  0  0  0  0  0  0  0  0
   20.7799   41.7502   51.8673 C   0  0  0  0  0  0  0  0  0  0  0  0
   20.0063   40.8799   51.0705 C   0  0  0  0  0  0  0  0  0  0  0  0
   18.6262   40.7449   51.3228 C   0  0  0  0  0  0  0  0  0  0  0  0
   18.0617   41.4870   52.3673 C   0  0  0  0  0  0  0  0  0  0  0  0
   18.8450   42.3448   53.1517 C   0  0  0  0  0  0  0  0  0  0  0  0
   17.7795   39.9040   50.5823 O   0  0  0  0  0  0  0  0  0  0  0  0
   17.6742   38.4889   50.8384 C   0  0  0  0  0  0  0  0  0  0  0  0
   17.0044   38.2682   51.9935 F   0  0  0  0  0  0  0  0  0  0  0  0
   18.8694   37.8668   50.9323 F   0  0  0  0  0  0  0  0  0  0  0  0
   17.0266   37.9140   49.7972 F   0  0  0  0  0  0  0  0  0  0  0  0
   22.3638   44.2216   55.6523 C   0  0  0  0  0  0  0  0  0  0  0  0
   23.4133   44.9516   55.0548 C   0  0  0  0  0  0  0  0  0  0  0  0
   24.1157   45.9416   55.7798 C   0  0  0  0  0  0  0  0  0  0  0  0
   23.7497   46.1742   57.1159 C   0  0  0  0  0  0  0  0  0  0  0  0
   22.7200   45.4527   57.7250 C   0  0  0  0  0  0  0  0  0  0  0  0
   22.0373   44.4749   56.9945 C   0  0  0  0  0  0  0  0  0  0  0  0
   25.2557   46.7390   55.0960 C   0  0  0  0  0  0  0  0  0  0  0  0
   27.5945   44.9755   52.5501 C   0  0  0  0  0  0  0  0  0  0  0  0
   26.2952   45.6506   53.0830 C   0  0  0  0  0  0  0  0  0  0  0  0
   26.4107   45.9763   54.5324 N   0  0  0  0  0  0  0  0  0  0  0  0
   26.9873   44.8823   55.3735 C   0  0  0  0  0  0  0  0  0  0  0  0
   28.2817   44.2921   54.7586 C   0  0  0  0  0  0  0  0  0  0  0  0
   28.0078   43.8796   53.4017 O   0  0  0  0  0  0  0  0  0  0  0  0
 15 12  1  0  0  0
 11 12  1  0  0  0
 11  8  1  0  0  0
 12 14  1  0  0  0
 12 13  1  0  0  0
  8  9  2  0  0  0
  8  7  1  0  0  0
  9 10  1  0  0  0
  7  6  2  0  0  0
 10  5  2  0  0  0
  6  5  1  0  0  0
  5  2  1  0  0  0
  3  1  2  0  0  0
  2  1  1  0  0  0
  1 16  1  0  0  0
 17 16  2  0  0  0
 17 18  1  0  0  0
 16 21  1  0  0  0
 22 18  1  0  0  0
 22 25  1  0  0  0
 18 19  2  0  0  0
 21 20  2  0  0  0
 25 24  1  0  0  0
 25 26  1  0  0  0
 19 20  1  0  0  0
 24 23  1  0  0  0
 26 27  1  0  0  0
 23 28  1  0  0  0
 27 28  1  0  0  0
  2  4  1  0  0  0
M  END
> <minimizedAffinity>
-8.23772

$$$$
6HD6_FYH_A_602


 28 30  0  0  0  0  0  0  0  0999 V2000
   22.1864   43.4260   53.9555 C   0  0  0  0  0  0  0  0  0  0  0  0
   20.8580   43.5498   53.6492 N   0  0  0  0  0  0  0  0  0  0  0  0
   22.8837   42.4910   53.5796 O   0  0  0  0  0  0  0  0  0  0  0  0
   20.4053   44.3606   53.9760 H   0  0  0  0  0  0  0  0  0  0  0  0
   20.0606   42.6311   52.9083 C   0  0  0  0  0  0  0  0  0  0  0  0
   20.5353   42.0572   51.7125 C   0  0  0  0  0  0  0  0  0  0  0  0
   19.7397   41.1819   50.9432 C   0  0  0  0  0  0  0  0  0  0  0  0
   18.4254   40.8873   51.3585 C   0  0  0  0  0  0  0  0  0  0  0  0
   17.9469   41.4793   52.5336 C   0  0  0  0  0  0  0  0  0  0  0  0
   18.7515   42.3443   53.2881 C   0  0  0  0  0  0  0  0  0  0  0  0
   17.5629   40.0291   50.6571 O   0  0  0  0  0  0  0  0  0  0  0  0
   17.9965   38.7635   50.1192 C   0  0  0  0  0  0  0  0  0  0  0  0
   16.9675   37.8847   50.0957 F   0  0  0  0  0  0  0  0  0  0  0  0
   19.0039   38.1965   50.8177 F   0  0  0  0  0  0  0  0  0  0  0  0
   18.4709   38.9718   48.8679 F   0  0  0  0  0  0  0  0  0  0  0  0
   22.9070   44.4449   54.8219 C   0  0  0  0  0  0  0  0  0  0  0  0
   22.2998   45.0050   55.9659 C   0  0  0  0  0  0  0  0  0  0  0  0
   22.9741   45.9700   56.7488 C   0  0  0  0  0  0  0  0  0  0  0  0
   24.2623   46.3667   56.3533 C   0  0  0  0  0  0  0  0  0  0  0  0
   24.8730   45.8296   55.2174 C   0  0  0  0  0  0  0  0  0  0  0  0
   24.1908   44.8780   54.4524 C   0  0  0  0  0  0  0  0  0  0  0  0
   22.2902   46.5597   58.0087 C   0  0  0  0  0  0  0  0  0  0  0  0
   23.8029   44.9710   61.2102 C   0  0  0  0  0  0  0  0  0  0  0  0
   23.7913   45.6533   59.8095 C   0  0  0  0  0  0  0  0  0  0  0  0
   22.4020   45.8023   59.2922 N   0  0  0  0  0  0  0  0  0  0  0  0
   21.5443   44.5872   59.4494 C   0  0  0  0  0  0  0  0  0  0  0  0
   21.6204   43.9988   60.8812 C   0  0  0  0  0  0  0  0  0  0  0  0
   23.0055   43.7622   61.2155 O   0  0  0  0  0  0  0  0  0  0  0  0
 15 12  1  0  0  0
 11 12  1  0  0  0
 11  8  1  0  0  0
 12 14  1  0  0  0
 12 13  1  0  0  0
  8  9  2  0  0  0
  8  7  1  0  0  0
  9 10  1  0  0  0
  7  6  2  0  0  0
 10  5  2  0  0  0
  6  5  1  0  0  0
  5  2  1  0  0  0
  3  1  2  0  0  0
  2  1  1  0  0  0
  1 16  1  0  0  0
 17 16  2  0  0  0
 17 18  1  0  0  0
 16 21  1  0  0  0
 22 18  1  0  0  0
 22 25  1  0  0  0
 18 19  2  0  0  0
 21 20  2  0  0  0
 25 24  1  0  0  0
 25 26  1  0  0  0
 19 20  1  0  0  0
 24 23  1  0  0  0
 26 27  1  0  0  0
 23 28  1  0  0  0
 27 28  1  0  0  0
  2  4  1  0  0  0
M  END
> <minimizedAffinity>
-8.03969

$$$$
6HD6_FYH_A_602


 28 30  0  0  0  0  0  0  0  0999 V2000
   21.3827   42.6396   54.0139 C   0  0  0  0  0  0  0  0  0  0  0  0
   20.1165   42.1483   54.1849 N   0  0  0  0  0  0  0  0  0  0  0  0
   22.0451   42.4653   52.9978 O   0  0  0  0  0  0  0  0  0  0  0  0
   19.6654   42.3800   55.0288 H   0  0  0  0  0  0  0  0  0  0  0  0
   19.3818   41.3379   53.2727 C   0  0  0  0  0  0  0  0  0  0  0  0
   18.2460   41.8398   52.6074 C   0  0  0  0  0  0  0  0  0  0  0  0
   17.4808   41.0352   51.7368 C   0  0  0  0  0  0  0  0  0  0  0  0
   17.8374   39.6859   51.5401 C   0  0  0  0  0  0  0  0  0  0  0  0
   18.9513   39.1823   52.2225 C   0  0  0  0  0  0  0  0  0  0  0  0
   19.7029   39.9960   53.0815 C   0  0  0  0  0  0  0  0  0  0  0  0
   17.1352   38.8120   50.6940 O   0  0  0  0  0  0  0  0  0  0  0  0
   17.6426   38.4029   49.4078 C   0  0  0  0  0  0  0  0  0  0  0  0
   18.6922   39.1777   49.0478 F   0  0  0  0  0  0  0  0  0  0  0  0
   16.7250   38.4707   48.4190 F   0  0  0  0  0  0  0  0  0  0  0  0
   18.0179   37.1044   49.4905 F   0  0  0  0  0  0  0  0  0  0  0  0
   22.0875   43.4333   55.1007 C   0  0  0  0  0  0  0  0  0  0  0  0
   23.2796   44.1434   54.8434 C   0  0  0  0  0  0  0  0  0  0  0  0
   23.9369   44.8581   55.8711 C   0  0  0  0  0  0  0  0  0  0  0  0
   23.3792   44.8355   57.1601 C   0  0  0  0  0  0  0  0  0  0  0  0
   22.2056   44.1286   57.4334 C   0  0  0  0  0  0  0  0  0  0  0  0
   21.5694   43.4245   56.4060 C   0  0  0  0  0  0  0  0  0  0  0  0
   25.2378   45.6413   55.5592 C   0  0  0  0  0  0  0  0  0  0  0  0
   28.1718   44.3883   57.7689 C   0  0  0  0  0  0  0  0  0  0  0  0
   26.8666   45.1609   57.4121 C   0  0  0  0  0  0  0  0  0  0  0  0
   26.5418   45.0335   55.9636 N   0  0  0  0  0  0  0  0  0  0  0  0
   27.7050   45.2288   55.0440 C   0  0  0  0  0  0  0  0  0  0  0  0
   28.9427   44.4060   55.4836 C   0  0  0  0  0  0  0  0  0  0  0  0
   29.2484   44.7219   56.8595 O   0  0  0  0  0  0  0  0  0  0  0  0
 15 12  1  0  0  0
 11 12  1  0  0  0
 11  8  1  0  0  0
 12 14  1  0  0  0
 12 13  1  0  0  0
  8  9  2  0  0  0
  8  7  1  0  0  0
  9 10  1  0  0  0
  7  6  2  0  0  0
 10  5  2  0  0  0
  6  5  1  0  0  0
  5  2  1  0  0  0
  3  1  2  0  0  0
  2  1  1  0  0  0
  1 16  1  0  0  0
 17 16  2  0  0  0
 17 18  1  0  0  0
 16 21  1  0  0  0
 22 18  1  0  0  0
 22 25  1  0  0  0
 18 19  2  0  0  0
 21 20  2  0  0  0
 25 24  1  0  0  0
 25 26  1  0  0  0
 19 20  1  0  0  0
 24 23  1  0  0  0
 26 27  1  0  0  0
 23 28  1  0  0  0
 27 28  1  0  0  0
  2  4  1  0  0  0
M  END
> <minimizedAffinity>
-7.94630

$$$$
6HD6_FYH_A_602


 28 30  0  0  0  0  0  0  0  0999 V2000
   22.0632   43.4849   54.2202 C   0  0  0  0  0  0  0  0  0  0  0  0
   20.8442   43.6577   53.6220 N   0  0  0  0  0  0  0  0  0  0  0  0
   22.7033   42.4414   54.1639 O   0  0  0  0  0  0  0  0  0  0  0  0
   20.4369   44.5502   53.7040 H   0  0  0  0  0  0  0  0  0  0  0  0
   20.1018   42.6844   52.8937 C   0  0  0  0  0  0  0  0  0  0  0  0
   20.6646   42.0213   51.7855 C   0  0  0  0  0  0  0  0  0  0  0  0
   19.9264   41.0892   51.0259 C   0  0  0  0  0  0  0  0  0  0  0  0
   18.5825   40.8260   51.3594 C   0  0  0  0  0  0  0  0  0  0  0  0
   18.0176   41.5056   52.4453 C   0  0  0  0  0  0  0  0  0  0  0  0
   18.7658   42.4263   53.1917 C   0  0  0  0  0  0  0  0  0  0  0  0
   17.7724   39.9160   50.6607 O   0  0  0  0  0  0  0  0  0  0  0  0
   17.7492   38.5066   50.9641 C   0  0  0  0  0  0  0  0  0  0  0  0
   19.0083   38.0415   51.1369 F   0  0  0  0  0  0  0  0  0  0  0  0
   17.1636   37.7573   50.0049 F   0  0  0  0  0  0  0  0  0  0  0  0
   17.0176   38.3243   52.0891 F   0  0  0  0  0  0  0  0  0  0  0  0
   22.7185   44.5863   55.0361 C   0  0  0  0  0  0  0  0  0  0  0  0
   24.0935   44.8795   54.9138 C   0  0  0  0  0  0  0  0  0  0  0  0
   24.6940   45.8916   55.6974 C   0  0  0  0  0  0  0  0  0  0  0  0
   23.8892   46.5928   56.6105 C   0  0  0  0  0  0  0  0  0  0  0  0
   22.5288   46.3072   56.7510 C   0  0  0  0  0  0  0  0  0  0  0  0
   21.9511   45.3009   55.9702 C   0  0  0  0  0  0  0  0  0  0  0  0
   26.2036   46.2035   55.5341 C   0  0  0  0  0  0  0  0  0  0  0  0
   27.2025   49.8309   54.5822 C   0  0  0  0  0  0  0  0  0  0  0  0
   26.6619   48.6742   55.4752 C   0  0  0  0  0  0  0  0  0  0  0  0
   26.5943   47.3928   54.7178 N   0  0  0  0  0  0  0  0  0  0  0  0
   26.0059   47.5085   53.3476 C   0  0  0  0  0  0  0  0  0  0  0  0
   26.6233   48.6805   52.5430 C   0  0  0  0  0  0  0  0  0  0  0  0
   26.5004   49.8938   53.3171 O   0  0  0  0  0  0  0  0  0  0  0  0
 15 12  1  0  0  0
 11 12  1  0  0  0
 11  8  1  0  0  0
 12 14  1  0  0  0
 12 13  1  0  0  0
  8  9  2  0  0  0
  8  7  1  0  0  0
  9 10  1  0  0  0
  7  6  2  0  0  0
 10  5  2  0  0  0
  6  5  1  0  0  0
  5  2  1  0  0  0
  3  1  2  0  0  0
  2  1  1  0  0  0
  1 16  1  0  0  0
 17 16  2  0  0  0
 17 18  1  0  0  0
 16 21  1  0  0  0
 22 18  1  0  0  0
 22 25  1  0  0  0
 18 19  2  0  0  0
 21 20  2  0  0  0
 25 24  1  0  0  0
 25 26  1  0  0  0
 19 20  1  0  0  0
 24 23  1  0  0  0
 26 27  1  0  0  0
 23 28  1  0  0  0
 27 28  1  0  0  0
  2  4  1  0  0  0
M  END
> <minimizedAffinity>
-7.92837

$$$$
6HD6_FYH_A_602


 28 30  0  0  0  0  0  0  0  0999 V2000
   21.7893   43.6690   55.0424 C   0  0  0  0  0  0  0  0  0  0  0  0
   21.2790   43.7461   53.7746 N   0  0  0  0  0  0  0  0  0  0  0  0
   21.5873   42.7251   55.7974 O   0  0  0  0  0  0  0  0  0  0  0  0
   21.5357   44.5351   53.2447 H   0  0  0  0  0  0  0  0  0  0  0  0
   20.4164   42.8070   53.1399 C   0  0  0  0  0  0  0  0  0  0  0  0
   20.8807   41.9858   52.0936 C   0  0  0  0  0  0  0  0  0  0  0  0
   20.0267   41.0842   51.4240 C   0  0  0  0  0  0  0  0  0  0  0  0
   18.6662   41.0132   51.7852 C   0  0  0  0  0  0  0  0  0  0  0  0
   18.2013   41.8490   52.8078 C   0  0  0  0  0  0  0  0  0  0  0  0
   19.0638   42.7370   53.4653 C   0  0  0  0  0  0  0  0  0  0  0  0
   17.7442   40.1474   51.1746 O   0  0  0  0  0  0  0  0  0  0  0  0
   17.5544   38.7854   51.6082 C   0  0  0  0  0  0  0  0  0  0  0  0
   17.5911   37.9446   50.5483 F   0  0  0  0  0  0  0  0  0  0  0  0
   16.3850   38.5818   52.2526 F   0  0  0  0  0  0  0  0  0  0  0  0
   18.5342   38.4784   52.4912 F   0  0  0  0  0  0  0  0  0  0  0  0
   22.6418   44.7798   55.6317 C   0  0  0  0  0  0  0  0  0  0  0  0
   23.8672   45.1624   55.0456 C   0  0  0  0  0  0  0  0  0  0  0  0
   24.6611   46.1819   55.6194 C   0  0  0  0  0  0  0  0  0  0  0  0
   24.2049   46.7990   56.7959 C   0  0  0  0  0  0  0  0  0  0  0  0
   22.9993   46.4244   57.3942 C   0  0  0  0  0  0  0  0  0  0  0  0
   22.2273   45.4120   56.8153 C   0  0  0  0  0  0  0  0  0  0  0  0
   25.9966   46.5929   54.9482 C   0  0  0  0  0  0  0  0  0  0  0  0
   28.7212   44.2622   56.4335 C   0  0  0  0  0  0  0  0  0  0  0  0
   27.3148   44.6810   55.9098 C   0  0  0  0  0  0  0  0  0  0  0  0
   27.2726   46.1324   55.5752 N   0  0  0  0  0  0  0  0  0  0  0  0
   27.8969   47.0267   56.5985 C   0  0  0  0  0  0  0  0  0  0  0  0
   29.2958   46.5252   57.0383 C   0  0  0  0  0  0  0  0  0  0  0  0
   29.1832   45.1536   57.4771 O   0  0  0  0  0  0  0  0  0  0  0  0
 15 12  1  0  0  0
 11 12  1  0  0  0
 11  8  1  0  0  0
 12 14  1  0  0  0
 12 13  1  0  0  0
  8  9  2  0  0  0
  8  7  1  0  0  0
  9 10  1  0  0  0
  7  6  2  0  0  0
 10  5  2  0  0  0
  6  5  1  0  0  0
  5  2  1  0  0  0
  3  1  2  0  0  0
  2  1  1  0  0  0
  1 16  1  0  0  0
 17 16  2  0  0  0
 17 18  1  0  0  0
 16 21  1  0  0  0
 22 18  1  0  0  0
 22 25  1  0  0  0
 18 19  2  0  0  0
 21 20  2  0  0  0
 25 24  1  0  0  0
 25 26  1  0  0  0
 19 20  1  0  0  0
 24 23  1  0  0  0
 26 27  1  0  0  0
 23 28  1  0  0  0
 27 28  1  0  0  0
  2  4  1  0  0  0
M  END
> <minimizedAffinity>
-7.88188

$$$$
6HD6_FYH_A_602


 28 30  0  0  0  0  0  0  0  0999 V2000
   22.4055   43.3596   54.1977 C   0  0  0  0  0  0  0  0  0  0  0  0
   21.1552   43.2924   53.6445 N   0  0  0  0  0  0  0  0  0  0  0  0
   23.2500   42.4806   54.0712 O   0  0  0  0  0  0  0  0  0  0  0  0
   20.5710   44.0728   53.7823 H   0  0  0  0  0  0  0  0  0  0  0  0
   20.6089   42.2144   52.8907 C   0  0  0  0  0  0  0  0  0  0  0  0
   19.7297   41.2862   53.4826 C   0  0  0  0  0  0  0  0  0  0  0  0
   19.2172   40.1868   52.7619 C   0  0  0  0  0  0  0  0  0  0  0  0
   19.6081   39.9874   51.4226 C   0  0  0  0  0  0  0  0  0  0  0  0
   20.5022   40.8966   50.8445 C   0  0  0  0  0  0  0  0  0  0  0  0
   20.9996   41.9856   51.5734 C   0  0  0  0  0  0  0  0  0  0  0  0
   19.1499   38.9226   50.6296 O   0  0  0  0  0  0  0  0  0  0  0  0
   17.8486   38.9221   50.0083 C   0  0  0  0  0  0  0  0  0  0  0  0
   16.9332   38.3634   50.8337 F   0  0  0  0  0  0  0  0  0  0  0  0
   17.8095   38.2495   48.8377 F   0  0  0  0  0  0  0  0  0  0  0  0
   17.5115   40.2023   49.7233 F   0  0  0  0  0  0  0  0  0  0  0  0
   22.8429   44.5403   55.0477 C   0  0  0  0  0  0  0  0  0  0  0  0
   24.1554   45.0545   54.9806 C   0  0  0  0  0  0  0  0  0  0  0  0
   24.5545   46.1387   55.7954 C   0  0  0  0  0  0  0  0  0  0  0  0
   23.6139   46.6863   56.6835 C   0  0  0  0  0  0  0  0  0  0  0  0
   22.3140   46.1817   56.7695 C   0  0  0  0  0  0  0  0  0  0  0  0
   21.9362   45.1069   55.9583 C   0  0  0  0  0  0  0  0  0  0  0  0
   25.9982   46.6938   55.6926 C   0  0  0  0  0  0  0  0  0  0  0  0
   28.8052   44.3042   56.9061 C   0  0  0  0  0  0  0  0  0  0  0  0
   27.7271   45.4249   57.0035 C   0  0  0  0  0  0  0  0  0  0  0  0
   27.1297   45.7178   55.6703 N   0  0  0  0  0  0  0  0  0  0  0  0
   28.1201   45.8400   54.5563 C   0  0  0  0  0  0  0  0  0  0  0  0
   29.1350   44.6687   54.5449 C   0  0  0  0  0  0  0  0  0  0  0  0
   29.7544   44.5751   55.8465 O   0  0  0  0  0  0  0  0  0  0  0  0
 15 12  1  0  0  0
 11 12  1  0  0  0
 11  8  1  0  0  0
 12 14  1  0  0  0
 12 13  1  0  0  0
  8  9  2  0  0  0
  8  7  1  0  0  0
  9 10  1  0  0  0
  7  6  2  0  0  0
 10  5  2  0  0  0
  6  5  1  0  0  0
  5  2  1  0  0  0
  3  1  2  0  0  0
  2  1  1  0  0  0
  1 16  1  0  0  0
 17 16  2  0  0  0
 17 18  1  0  0  0
 16 21  1  0  0  0
 22 18  1  0  0  0
 22 25  1  0  0  0
 18 19  2  0  0  0
 21 20  2  0  0  0
 25 24  1  0  0  0
 25 26  1  0  0  0
 19 20  1  0  0  0
 24 23  1  0  0  0
 26 27  1  0  0  0
 23 28  1  0  0  0
 27 28  1  0  0  0
  2  4  1  0  0  0
M  END
> <minimizedAffinity>
-7.57986

$$$$
6HD6_FYH_A_602


 28 30  0  0  0  0  0  0  0  0999 V2000
   24.4810   43.5101   53.4035 C   0  0  0  0  0  0  0  0  0  0  0  0
   24.8753   44.6063   52.6847 N   0  0  0  0  0  0  0  0  0  0  0  0
   25.1961   42.5338   53.5963 O   0  0  0  0  0  0  0  0  0  0  0  0
   24.2301   45.3474   52.6238 H   0  0  0  0  0  0  0  0  0  0  0  0
   26.1192   44.7896   52.0155 C   0  0  0  0  0  0  0  0  0  0  0  0
   26.1666   45.2292   50.6779 C   0  0  0  0  0  0  0  0  0  0  0  0
   27.3886   45.3708   49.9869 C   0  0  0  0  0  0  0  0  0  0  0  0
   28.5974   45.0422   50.6330 C   0  0  0  0  0  0  0  0  0  0  0  0
   28.5456   44.5808   51.9539 C   0  0  0  0  0  0  0  0  0  0  0  0
   27.3234   44.4489   52.6273 C   0  0  0  0  0  0  0  0  0  0  0  0
   29.8584   45.1514   50.0245 O   0  0  0  0  0  0  0  0  0  0  0  0
   30.4733   44.0586   49.3124 C   0  0  0  0  0  0  0  0  0  0  0  0
   31.1411   43.2537   50.1713 F   0  0  0  0  0  0  0  0  0  0  0  0
   31.3458   44.4567   48.3614 F   0  0  0  0  0  0  0  0  0  0  0  0
   29.5016   43.3663   48.6718 F   0  0  0  0  0  0  0  0  0  0  0  0
   23.0914   43.4066   54.0088 C   0  0  0  0  0  0  0  0  0  0  0  0
   21.9438   43.2443   53.2038 C   0  0  0  0  0  0  0  0  0  0  0  0
   20.6548   43.1735   53.7804 C   0  0  0  0  0  0  0  0  0  0  0  0
   20.5427   43.2795   55.1766 C   0  0  0  0  0  0  0  0  0  0  0  0
   21.6681   43.4510   55.9865 C   0  0  0  0  0  0  0  0  0  0  0  0
   22.9357   43.5220   55.3998 C   0  0  0  0  0  0  0  0  0  0  0  0
   19.4114   42.9812   52.8749 C   0  0  0  0  0  0  0  0  0  0  0  0
   19.7718   39.7536   50.7502 C   0  0  0  0  0  0  0  0  0  0  0  0
   20.0243   41.2300   51.1793 C   0  0  0  0  0  0  0  0  0  0  0  0
   19.1470   41.6195   52.3189 N   0  0  0  0  0  0  0  0  0  0  0  0
   17.7181   41.2012   52.1771 C   0  0  0  0  0  0  0  0  0  0  0  0
   17.5824   39.7144   51.7612 C   0  0  0  0  0  0  0  0  0  0  0  0
   18.3597   39.4918   50.5642 O   0  0  0  0  0  0  0  0  0  0  0  0
 15 12  1  0  0  0
 11 12  1  0  0  0
 11  8  1  0  0  0
 12 14  1  0  0  0
 12 13  1  0  0  0
  8  9  2  0  0  0
  8  7  1  0  0  0
  9 10  1  0  0  0
  7  6  2  0  0  0
 10  5  2  0  0  0
  6  5  1  0  0  0
  5  2  1  0  0  0
  3  1  2  0  0  0
  2  1  1  0  0  0
  1 16  1  0  0  0
 17 16  2  0  0  0
 17 18  1  0  0  0
 16 21  1  0  0  0
 22 18  1  0  0  0
 22 25  1  0  0  0
 18 19  2  0  0  0
 21 20  2  0  0  0
 25 24  1  0  0  0
 25 26  1  0  0  0
 19 20  1  0  0  0
 24 23  1  0  0  0
 26 27  1  0  0  0
 23 28  1  0  0  0
 27 28  1  0  0  0
  2  4  1  0  0  0
M  END
> <minimizedAffinity>
-7.40949

$$$$
