6HD6_FYH_A_602
  RCSB PDB09151803323D
Coordinates from PDB:6HD6:A:602 Model:1 without hydrogens
 27 29  0  0  0  0            999 V2000
   17.8890   38.2450   50.2180   C 0  0  0  0  0  0  0  0  0  0  0  0
   27.1640   48.3760   58.8420   C 0  0  0  0  0  0  0  0  0  0  0  0
   26.8000   47.3680   57.7110   C 0  0  0  0  0  0  0  0  0  0  0  0
   19.8210   42.1800   52.9740   C 0  0  0  0  0  0  0  0  0  0  0  0
   18.4250   41.9970   52.9260   C 0  0  0  0  0  0  0  0  0  0  0  0
   17.8180   41.1750   51.9530   C 0  0  0  0  0  0  0  0  0  0  0  0
   21.7610   43.1910   54.1830   C 0  0  0  0  0  0  0  0  0  0  0  0
   22.2810   44.0030   55.3570   C 0  0  0  0  0  0  0  0  0  0  0  0
   23.3380   44.9260   55.2080   C 0  0  0  0  0  0  0  0  0  0  0  0
   23.8270   45.6570   56.3150   C 0  0  0  0  0  0  0  0  0  0  0  0
   23.2410   45.4340   57.5720   C 0  0  0  0  0  0  0  0  0  0  0  0
   22.2010   44.5160   57.7380   C 0  0  0  0  0  0  0  0  0  0  0  0
   21.7310   43.7990   56.6330   C 0  0  0  0  0  0  0  0  0  0  0  0
   24.9800   46.6750   56.1220   C 0  0  0  0  0  0  0  0  0  0  0  0
   17.1550   38.0380   51.3360   F 0  0  0  0  0  0  0  0  0  0  0  0
   19.0320   37.5360   50.3410   F 0  0  0  0  0  0  0  0  0  0  0  0
   17.2490   37.7500   49.1320   F 0  0  0  0  0  0  0  0  0  0  0  0
   18.1050   39.6560   50.0140   O 0  0  0  0  0  0  0  0  0  0  0  0
   18.6210   40.4940   51.0160   C 0  0  0  0  0  0  0  0  0  0  0  0
   20.0100   40.6570   51.0820   C 0  0  0  0  0  0  0  0  0  0  0  0
   20.5970   41.4800   52.0530   C 0  0  0  0  0  0  0  0  0  0  0  0
   20.4230   42.9750   53.9910   N 0  0  0  0  0  0  0  0  0  0  0  0
   22.6320   42.7390   53.4490   O 0  0  0  0  0  0  0  0  0  0  0  0
   25.3790   47.5190   57.2890   N 0  0  0  0  0  0  0  0  0  0  0  0
   24.4030   47.6380   58.4160   C 0  0  0  0  0  0  0  0  0  0  0  0
   24.8560   48.6750   59.4750   C 0  0  0  0  0  0  0  0  0  0  0  0
   26.1910   48.3410   59.9140   O 0  0  0  0  0  0  0  0  0  0  0  0
 17  1  1  0  0  0  0
 18  1  1  0  0  0  0
 18 19  1  0  0  0  0
  1 16  1  0  0  0  0
  1 15  1  0  0  0  0
 19 20  2  0  0  0  0
 19  6  1  0  0  0  0
 20 21  1  0  0  0  0
  6  5  2  0  0  0  0
 21  4  2  0  0  0  0
  5  4  1  0  0  0  0
  4 22  1  0  0  0  0
 23  7  2  0  0  0  0
 22  7  1  0  0  0  0
  7  8  1  0  0  0  0
  9  8  2  0  0  0  0
  9 10  1  0  0  0  0
  8 13  1  0  0  0  0
 14 10  1  0  0  0  0
 14 24  1  0  0  0  0
 10 11  2  0  0  0  0
 13 12  2  0  0  0  0
 24  3  1  0  0  0  0
 24 25  1  0  0  0  0
 11 12  1  0  0  0  0
  3  2  1  0  0  0  0
 25 26  1  0  0  0  0
  2 27  1  0  0  0  0
 26 27  1  0  0  0  0
A    1
C2
A    2
C41
A    3
C44
A    4
C11
A    5
C12
A    6
C14
A    7
C18
A    8
C20
A    9
C21
A   10
C23
A   11
C24
A   12
C26
A   13
C28
A   14
C30
A   15
F1
A   16
F3
A   17
F4
A   18
O5
A   19
C6
A   20
C7
A   21
C9
A   22
N16
A   23
O19
A   24
N33
A   25
C34
A   26
C37
A   27
O40
M  END
>  <InstanceId>
6HD6_FYH_A_602

>  <ChemCompId>
FYH

>  <PdbId>
6HD6

>  <ChainId>
A

>  <ResidueNumber>
602

>  <InsertionCode>


>  <Model>
1

>  <AltIds>


>  <MissingHeavyAtoms>
0

>  <ObservedFormula>
C19 N2 O3 F3

>  <Name>
3-(morpholin-4-ylmethyl)-~{N}-[4-(trifluoromethyloxy)phenyl]benzamide

>  <SystematicName>
3-(morpholin-4-ylmethyl)-~{N}-[4-(trifluoromethyloxy)phenyl]benzamide

>  <Synonyms>


>  <Type>
NON-POLYMER

>  <Formula>
C19 H19 F3 N2 O3

>  <MolecularWeight>
380.361

>  <ModifiedDate>
2018-09-07

>  <Parent>


>  <OneLetterCode>


>  <SubcomponentList>


>  <AmbiguousFlag>
N

>  <InChI>
InChI=1S/C19H19F3N2O3/c20-19(21,22)27-17-6-4-16(5-7-17)23-18(25)15-3-1-2-14(12-15)13-24-8-10-26-11-9-24/h1-7,12H,8-11,13H2,(H,23,25)

>  <InChIKey>
MYWULUKAXYAFSH-UHFFFAOYSA-N

>  <SMILES>
c1cc(cc(c1)C(=O)Nc2ccc(cc2)OC(F)(F)F)CN3CCOCC3

$$$$
