4G8N_G8M_A_301
  RCSB PDB12061712403D
Coordinates from PDB:4G8N:A:301 Model:1 without hydrogens
 12 12  0  0  0  0            999 V2000
    1.9860   27.3620   13.9090   C 0  0  0  0  0  0  0  0  0  0  0  0
    2.8600   26.5350   13.6120   O 0  0  0  0  0  0  0  0  0  0  0  0
    0.8650   27.3010   13.3840   O 0  0  0  0  0  0  0  0  0  0  0  0
    2.2700   28.5120   14.9120   C 0  0  0  0  0  0  0  0  0  0  0  0
    1.6040   30.9970   12.5490   C 0  0  0  0  0  0  0  0  0  0  0  0
    1.7900   32.0730   11.9510   O 0  0  0  0  0  0  0  0  0  0  0  0
    0.4920   30.6910   12.9940   O 0  0  0  0  0  0  0  0  0  0  0  0
    2.7960   30.0470   12.7640   C 0  0  0  0  0  0  0  0  0  0  0  0
    3.9840   30.6510   12.1250   N 0  0  0  0  0  0  0  0  0  0  0  0
    3.0240   29.7040   14.2630   C 0  0  0  0  0  0  0  0  0  0  0  0
    4.3340   29.0240   14.7290   C 0  0  0  0  0  0  0  0  0  0  0  0
    3.5160   28.2650   15.7860   C 0  0  0  0  0  0  0  0  0  0  0  0
  7  5  2  0  0  0  0
  6  5  1  0  0  0  0
  5  8  1  0  0  0  0
  8  9  1  0  0  0  0
  8 10  1  0  0  0  0
 10  4  1  0  0  0  0
 10 11  1  0  0  0  0
  4  1  1  0  0  0  0
  4 12  1  0  0  0  0
  2  1  2  0  0  0  0
 11 12  1  0  0  0  0
  1  3  1  0  0  0  0
A    1
CD
A    2
OE1
A    3
OE2
A    4
CG
A    5
C
A    6
OXT
A    7
O
A    8
CA
A    9
N
A   10
CB
A   11
C6
A   12
C7
M  END
>  <InstanceId>
4G8N_G8M_A_301

>  <ChemCompId>
G8M

>  <PdbId>
4G8N

>  <ChainId>
A

>  <ResidueNumber>
301

>  <InsertionCode>


>  <Model>
1

>  <AltIds>


>  <MissingHeavyAtoms>
0

>  <ObservedFormula>
C7 N O4

>  <Name>
(1S,2R)-2-[(S)-amino(carboxy)methyl]cyclobutanecarboxylic acid

>  <SystematicName>
(1S,2R)-2-[(1S)-1-azanyl-2-oxidanyl-2-oxidanylidene-ethyl]cyclobutane-1-carboxylic acid

>  <Synonyms>
(2S,1'R,2'S)-2-(2'-carboxycyclobutyl)glycine

>  <Type>
L-PEPTIDE LINKING

>  <Formula>
C7 H11 N O4

>  <MolecularWeight>
173.167

>  <ModifiedDate>
2012-08-03

>  <Parent>
GLU

>  <OneLetterCode>


>  <SubcomponentList>


>  <AmbiguousFlag>
N

>  <InChI>
InChI=1S/C7H11NO4/c8-5(7(11)12)3-1-2-4(3)6(9)10/h3-5H,1-2,8H2,(H,9,10)(H,11,12)/t3-,4+,5+/m1/s1

>  <InChIKey>
SRAFHGOPGVYULO-WISUUJSJSA-N

>  <SMILES>
C1C[C@@H]([C@@H]1[C@@H](C(=O)O)N)C(=O)O

$$$$
