1N0S_FLU_A_500
  RCSB PDB12061703213D
Coordinates from PDB:1N0S:A:500 Model:1 without hydrogens
 25 28  0  0  0  0            999 V2000
    6.5950   75.0230   53.2010   C 0  0  0  0  0  0  0  0  0  0  0  0
    6.2580   74.2370   54.1230   O 0  0  0  0  0  0  0  0  0  0  0  0
    6.4230   74.6230   51.8730   C 0  0  0  0  0  0  0  0  0  0  0  0
    6.7730   75.4750   50.8730   C 0  0  0  0  0  0  0  0  0  0  0  0
    6.5590   74.9870   49.5890   O 0  0  0  0  0  0  0  0  0  0  0  0
    6.8010   75.7850   48.5050   C 0  0  0  0  0  0  0  0  0  0  0  0
    6.5470   75.1990   47.2800   C 0  0  0  0  0  0  0  0  0  0  0  0
    6.7500   75.9420   46.1210   C 0  0  0  0  0  0  0  0  0  0  0  0
    6.5000   75.4000   44.9420   O 0  0  0  0  0  0  0  0  0  0  0  0
    7.2500   77.2670   46.2690   C 0  0  0  0  0  0  0  0  0  0  0  0
    7.4870   77.8420   47.5020   C 0  0  0  0  0  0  0  0  0  0  0  0
    7.2630   77.1010   48.6970   C 0  0  0  0  0  0  0  0  0  0  0  0
    7.5400   77.5860   50.0160   C 0  0  0  0  0  0  0  0  0  0  0  0
    7.2480   76.7810   51.0990   C 0  0  0  0  0  0  0  0  0  0  0  0
    7.4190   77.1740   52.4810   C 0  0  0  0  0  0  0  0  0  0  0  0
    7.0810   76.3450   53.4880   C 0  0  0  0  0  0  0  0  0  0  0  0
    7.9550   79.0250   50.1830   C 0  0  0  0  0  0  0  0  0  0  0  0
    6.9800   79.9180   50.5880   C 0  0  0  0  0  0  0  0  0  0  0  0
    7.2780   81.2620   50.7380   C 0  0  0  0  0  0  0  0  0  0  0  0
    8.5120   81.7690   50.4130   C 0  0  0  0  0  0  0  0  0  0  0  0
    9.4790   80.8850   49.9720   C 0  0  0  0  0  0  0  0  0  0  0  0
    9.2090   79.5260   49.8470   C 0  0  0  0  0  0  0  0  0  0  0  0
   10.2710   78.6140   49.3530   C 0  0  0  0  0  0  0  0  0  0  0  0
   11.0030   79.0420   48.4680   O 0  0  0  0  0  0  0  0  0  0  0  0
   10.3220   77.4870   49.8490   O 0  0  0  0  0  0  0  0  0  0  0  0
  1  2  1  0  0  0  0
  1  3  2  0  0  0  0
  1 16  1  0  0  0  0
  3  4  1  0  0  0  0
  4  5  1  0  0  0  0
  4 14  2  0  0  0  0
  5  6  1  0  0  0  0
  6  7  2  0  0  0  0
  6 12  1  0  0  0  0
  7  8  1  0  0  0  0
  8  9  2  0  0  0  0
  8 10  1  0  0  0  0
 10 11  2  0  0  0  0
 11 12  1  0  0  0  0
 12 13  2  0  0  0  0
 13 14  1  0  0  0  0
 13 17  1  0  0  0  0
 14 15  1  0  0  0  0
 15 16  2  0  0  0  0
 17 18  2  0  0  0  0
 17 22  1  0  0  0  0
 18 19  1  0  0  0  0
 19 20  2  0  0  0  0
 20 21  1  0  0  0  0
 21 22  2  0  0  0  0
 22 23  1  0  0  0  0
 23 24  2  0  0  0  0
 23 25  1  0  0  0  0
A    1
C1
A    2
O1
A    3
C2
A    4
C3
A    5
O2
A    6
C4
A    7
C5
A    8
C6
A    9
O3
A   10
C7
A   11
C8
A   12
C9
A   13
C10
A   14
C11
A   15
C12
A   16
C13
A   17
C14
A   18
C15
A   19
C16
A   20
C17
A   21
C18
A   22
C19
A   23
C20
A   24
O4
A   25
O5
M  END
>  <InstanceId>
1N0S_FLU_A_500

>  <ChemCompId>
FLU

>  <PdbId>
1N0S

>  <ChainId>
A

>  <ResidueNumber>
500

>  <InsertionCode>


>  <Model>
1

>  <AltIds>


>  <MissingHeavyAtoms>
0

>  <ObservedFormula>
C20 O5

>  <Name>
2-(6-HYDROXY-3-OXO-3H-XANTHEN-9-YL)-BENZOIC ACID

>  <SystematicName>
2-(3-hydroxy-6-oxo-xanthen-9-yl)benzoic acid

>  <Synonyms>
FLUORESCEIN

>  <Type>
NON-POLYMER

>  <Formula>
C20 H12 O5

>  <MolecularWeight>
332.306

>  <ModifiedDate>
2011-06-04

>  <Parent>


>  <OneLetterCode>


>  <SubcomponentList>


>  <AmbiguousFlag>
N

>  <InChI>
InChI=1S/C20H12O5/c21-11-5-7-15-17(9-11)25-18-10-12(22)6-8-16(18)19(15)13-3-1-2-4-14(13)20(23)24/h1-10,21H,(H,23,24)

>  <InChIKey>
YKGGGCXBWXHKIZ-UHFFFAOYSA-N

>  <SMILES>
c1ccc(c(c1)C2=C3C=CC(=O)C=C3Oc4c2ccc(c4)O)C(=O)O

$$$$
