4O2B_LOC_B_503
  RCSB PDB12061713593D
Coordinates from PDB:4O2B:B:503 Model:1 without hydrogens
 29 31  0  0  0  0            999 V2000
   15.6090   68.3360   45.7800   O 0  0  0  0  0  0  0  0  0  0  0  0
   16.6760   68.7360   46.2130   C 0  0  0  0  0  0  0  0  0  0  0  0
   16.7660   69.5870   47.4470   C 0  0  0  0  0  0  0  0  0  0  0  0
   17.8340   68.4440   45.6230   N 0  0  0  0  0  0  0  0  0  0  0  0
   17.9150   67.6000   44.4420   C 0  0  0  0  0  0  0  0  0  0  0  0
   17.7230   66.1490   44.7780   C 0  0  0  0  0  0  0  0  0  0  0  0
   18.0400   65.7600   46.0240   C 0  0  0  0  0  0  0  0  0  0  0  0
   19.2670   67.7930   43.7550   C 0  0  0  0  0  0  0  0  0  0  0  0
   19.5200   66.7940   42.6240   C 0  0  0  0  0  0  0  0  0  0  0  0
   18.2750   66.6600   41.7770   C 0  0  0  0  0  0  0  0  0  0  0  0
   18.2100   67.2280   40.5020   C 0  0  0  0  0  0  0  0  0  0  0  0
   17.0730   67.1230   39.6970   C 0  0  0  0  0  0  0  0  0  0  0  0
   15.8720   66.3970   40.1810   C 0  0  0  0  0  0  0  0  0  0  0  0
   15.8930   65.7740   41.5220   C 0  0  0  0  0  0  0  0  0  0  0  0
   14.7990   65.1000   41.9890   O 0  0  0  0  0  0  0  0  0  0  0  0
   13.8410   65.8010   42.7800   C 0  0  0  0  0  0  0  0  0  0  0  0
   14.7610   66.2850   39.3930   O 0  0  0  0  0  0  0  0  0  0  0  0
   14.6110   65.1000   38.6160   C 0  0  0  0  0  0  0  0  0  0  0  0
   17.0410   67.6920   38.4480   O 0  0  0  0  0  0  0  0  0  0  0  0
   18.2420   68.1330   37.8190   C 0  0  0  0  0  0  0  0  0  0  0  0
   17.1220   65.9150   42.3370   C 0  0  0  0  0  0  0  0  0  0  0  0
   17.2250   65.3020   43.7010   C 0  0  0  0  0  0  0  0  0  0  0  0
   16.8700   64.0090   43.7750   C 0  0  0  0  0  0  0  0  0  0  0  0
   16.8370   63.0840   44.9000   C 0  0  0  0  0  0  0  0  0  0  0  0
   17.3080   63.2450   46.1400   C 0  0  0  0  0  0  0  0  0  0  0  0
   17.9760   64.4320   46.6640   C 0  0  0  0  0  0  0  0  0  0  0  0
   18.5190   64.3150   47.7500   O 0  0  0  0  0  0  0  0  0  0  0  0
   17.1300   62.1310   47.0560   O 0  0  0  0  0  0  0  0  0  0  0  0
   16.6020   60.8970   46.5810   C 0  0  0  0  0  0  0  0  0  0  0  0
  1  2  2  0  0  0  0
  2  3  1  0  0  0  0
  2  4  1  0  0  0  0
  4  5  1  0  0  0  0
  5  6  1  0  0  0  0
  5  8  1  0  0  0  0
  6  7  2  0  0  0  0
  6 22  1  0  0  0  0
  7 26  1  0  0  0  0
  8  9  1  0  0  0  0
  9 10  1  0  0  0  0
 10 11  2  0  0  0  0
 10 21  1  0  0  0  0
 11 12  1  0  0  0  0
 12 13  2  0  0  0  0
 12 19  1  0  0  0  0
 13 14  1  0  0  0  0
 13 17  1  0  0  0  0
 14 15  1  0  0  0  0
 14 21  2  0  0  0  0
 15 16  1  0  0  0  0
 17 18  1  0  0  0  0
 19 20  1  0  0  0  0
 21 22  1  0  0  0  0
 22 23  2  0  0  0  0
 23 24  1  0  0  0  0
 24 25  2  0  0  0  0
 25 26  1  0  0  0  0
 25 28  1  0  0  0  0
 26 27  2  0  0  0  0
 28 29  1  0  0  0  0
A    1
O4
A    2
C12
A    3
C13
A    4
N1
A    5
C11
A    6
C14
A    7
C15
A    8
C10
A    9
C9
A   10
C8
A   11
C7
A   12
C5
A   13
C3
A   14
C1
A   15
O1
A   16
C2
A   17
O2
A   18
C4
A   19
O3
A   20
C6
A   21
C22
A   22
C21
A   23
C20
A   24
C19
A   25
C17
A   26
C16
A   27
O5
A   28
O6
A   29
C18
M  END
>  <InstanceId>
4O2B_LOC_B_503

>  <ChemCompId>
LOC

>  <PdbId>
4O2B

>  <ChainId>
B

>  <ResidueNumber>
503

>  <InsertionCode>


>  <Model>
1

>  <AltIds>


>  <MissingHeavyAtoms>
0

>  <ObservedFormula>
C22 N O6

>  <Name>
N-[(7S)-1,2,3,10-tetramethoxy-9-oxo-6,7-dihydro-5H-benzo[d]heptalen-7-yl]ethanamide

>  <SystematicName>
N-[(7S)-1,2,3,10-tetramethoxy-9-oxo-6,7-dihydro-5H-benzo[d]heptalen-7-yl]ethanamide

>  <Synonyms>
COLCHICINE

>  <Type>
NON-POLYMER

>  <Formula>
C22 H25 N O6

>  <MolecularWeight>
399.437

>  <ModifiedDate>
2011-06-04

>  <Parent>


>  <OneLetterCode>


>  <SubcomponentList>


>  <AmbiguousFlag>
N

>  <InChI>
InChI=1S/C22H25NO6/c1-12(24)23-16-8-6-13-10-19(27-3)21(28-4)22(29-5)20(13)14-7-9-18(26-2)17(25)11-15(14)16/h7,9-11,16H,6,8H2,1-5H3,(H,23,24)/t16-/m0/s1

>  <InChIKey>
IAKHMKGGTNLKSZ-INIZCTEOSA-N

>  <SMILES>
CC(=O)N[C@H]1CCc2cc(c(c(c2C3=CC=C(C(=O)C=C13)OC)OC)OC)OC

$$$$
