4KZQ_DFL_A_1201
  RCSB PDB12061713273D
Coordinates from PDB:4KZQ:A:1201 Model:1 without hydrogens
 18 20  0  0  0  0            999 V2000
   -4.7040   34.8160  -15.4720   C 0  0  0  0  0  0  0  0  0  0  0  0
   -5.4300   35.5340  -16.4320   C 0  0  0  0  0  0  0  0  0  0  0  0
   -6.3170   36.5300  -16.0180   C 0  0  0  0  0  0  0  0  0  0  0  0
   -6.5080   36.7960  -14.6600   C 0  0  0  0  0  0  0  0  0  0  0  0
   -5.7450   36.0990  -13.7170   C 0  0  0  0  0  0  0  0  0  0  0  0
   -4.8660   35.0910  -14.1000   C 0  0  0  0  0  0  0  0  0  0  0  0
   -7.3940   37.8070  -14.2210   C 0  0  0  0  0  0  0  0  0  0  0  0
   -7.4040   38.1620  -12.8750   C 0  0  0  0  0  0  0  0  0  0  0  0
   -6.6210   37.4900  -11.9480   C 0  0  0  0  0  0  0  0  0  0  0  0
   -5.8740   36.4190  -12.3780   O 0  0  0  0  0  0  0  0  0  0  0  0
   -6.5890   37.7580  -10.5240   C 0  0  0  0  0  0  0  0  0  0  0  0
   -7.3920   38.7290   -9.9060   C 0  0  0  0  0  0  0  0  0  0  0  0
   -7.3550   38.9940   -8.5400   C 0  0  0  0  0  0  0  0  0  0  0  0
   -6.4910   38.2290   -7.7530   C 0  0  0  0  0  0  0  0  0  0  0  0
   -5.6950   37.2350   -8.3190   C 0  0  0  0  0  0  0  0  0  0  0  0
   -5.7360   37.0060   -9.6930   C 0  0  0  0  0  0  0  0  0  0  0  0
   -8.1940   38.3750  -14.9900   O 0  0  0  0  0  0  0  0  0  0  0  0
   -6.4250   38.4280   -6.4290   O 0  0  0  0  0  0  0  0  0  0  0  0
  1  2  2  0  0  0  0
  1  6  1  0  0  0  0
  2  3  1  0  0  0  0
  3  4  2  0  0  0  0
  4  5  1  0  0  0  0
  4  7  1  0  0  0  0
  5  6  2  0  0  0  0
  5 10  1  0  0  0  0
  7  8  1  0  0  0  0
  7 17  2  0  0  0  0
  8  9  1  0  0  0  0
  9 10  1  0  0  0  0
  9 11  1  0  0  0  0
 11 12  2  0  0  0  0
 11 16  1  0  0  0  0
 12 13  1  0  0  0  0
 13 14  2  0  0  0  0
 14 15  1  0  0  0  0
 14 18  1  0  0  0  0
 15 16  2  0  0  0  0
A    1
C1
A    2
C2
A    3
C3
A    4
C4
A    5
C5
A    6
C6
A    7
C7
A    8
C8
A    9
C9
A   10
O1
A   11
C10
A   12
C11
A   13
C12
A   14
C13
A   15
C14
A   16
C15
A   17
O2
A   18
O4
M  END
>  <InstanceId>
4KZQ_DFL_A_1201

>  <ChemCompId>
DFL

>  <PdbId>
4KZQ

>  <ChainId>
A

>  <ResidueNumber>
1201

>  <InsertionCode>


>  <Model>
1

>  <AltIds>


>  <MissingHeavyAtoms>
0

>  <ObservedFormula>
C15 O3

>  <Name>
2-(4-HYDROXY-PHENYL)-CHROMAN-4-ONE

>  <SystematicName>
(2S)-2-(4-hydroxyphenyl)chroman-4-one

>  <Synonyms>
4'-HYDROXYFLAVANONE

>  <Type>
NON-POLYMER

>  <Formula>
C15 H12 O3

>  <MolecularWeight>
240.254

>  <ModifiedDate>
2011-06-04

>  <Parent>


>  <OneLetterCode>


>  <SubcomponentList>


>  <AmbiguousFlag>
N

>  <InChI>
InChI=1S/C15H12O3/c16-11-7-5-10(6-8-11)15-9-13(17)12-3-1-2-4-14(12)18-15/h1-8,15-16H,9H2/t15-/m0/s1

>  <InChIKey>
ZLHVIYHWWQYJID-HNNXBMFYSA-N

>  <SMILES>
c1ccc2c(c1)C(=O)C[C@H](O2)c3ccc(cc3)O

$$$$
