4KZQ_DFL_A_1201


 19 21  0  0  0  0  0  0  0  0999 V2000
   -4.5506   34.7297  -15.4486 C   0  0  0  0  0  0  0  0  0  0  0  0
   -5.2119   35.4805  -16.4300 C   0  0  0  0  0  0  0  0  0  0  0  0
   -6.0591   36.5210  -16.0430 C   0  0  0  0  0  0  0  0  0  0  0  0
   -6.2752   36.8001  -14.6914 C   0  0  0  0  0  0  0  0  0  0  0  0
   -5.5754   36.0684  -13.7260 C   0  0  0  0  0  0  0  0  0  0  0  0
   -4.7376   35.0165  -14.0822 C   0  0  0  0  0  0  0  0  0  0  0  0
   -7.1214   37.8556  -14.2794 C   0  0  0  0  0  0  0  0  0  0  0  0
   -7.1519   38.2145  -12.9347 C   0  0  0  0  0  0  0  0  0  0  0  0
   -6.4304   37.5067  -11.9848 C   0  0  0  0  0  0  0  0  0  0  0  0
   -5.7263   36.3983  -12.3917 O   0  0  0  0  0  0  0  0  0  0  0  0
   -7.8695   38.4609  -15.0718 O   0  0  0  0  0  0  0  0  0  0  0  0
   -6.4256   37.7768  -10.5608 C   0  0  0  0  0  0  0  0  0  0  0  0
   -7.0851   38.8731   -9.9838 C   0  0  0  0  0  0  0  0  0  0  0  0
   -7.0730   39.1389   -8.6175 C   0  0  0  0  0  0  0  0  0  0  0  0
   -6.3895   38.2467   -7.7881 C   0  0  0  0  0  0  0  0  0  0  0  0
   -5.7433   37.1294   -8.3136 C   0  0  0  0  0  0  0  0  0  0  0  0
   -5.7530   36.8996   -9.6880 C   0  0  0  0  0  0  0  0  0  0  0  0
   -6.3577   38.4424   -6.4624 O   0  0  0  0  0  0  0  0  0  0  0  0
   -6.7857   39.1873   -6.0883 H   0  0  0  0  0  0  0  0  0  0  0  0
  1  2  2  0  0  0
  1  6  1  0  0  0
  2  3  1  0  0  0
  3  4  2  0  0  0
  4  5  1  0  0  0
  4  7  1  0  0  0
  5  6  2  0  0  0
  5 10  1  0  0  0
  7  8  1  0  0  0
  7 11  2  0  0  0
  8  9  1  0  0  0
  9 10  1  0  0  0
  9 12  1  0  0  0
 12 13  2  0  0  0
 12 17  1  0  0  0
 13 14  1  0  0  0
 14 15  2  0  0  0
 15 16  1  0  0  0
 15 18  1  0  0  0
 16 17  2  0  0  0
 18 19  1  0  0  0
M  END
> <minimizedAffinity>
-11.46551

$$$$
4KZQ_DFL_A_1201


 19 21  0  0  0  0  0  0  0  0999 V2000
   -4.5512   34.7024  -14.2613 C   0  0  0  0  0  0  0  0  0  0  0  0
   -5.2787   35.2529  -15.3252 C   0  0  0  0  0  0  0  0  0  0  0  0
   -6.1604   36.3078  -15.0804 C   0  0  0  0  0  0  0  0  0  0  0  0
   -6.3447   36.7978  -13.7853 C   0  0  0  0  0  0  0  0  0  0  0  0
   -5.5803   36.2651  -12.7418 C   0  0  0  0  0  0  0  0  0  0  0  0
   -4.7064   35.2036  -12.9540 C   0  0  0  0  0  0  0  0  0  0  0  0
   -7.2253   37.8717  -13.5184 C   0  0  0  0  0  0  0  0  0  0  0  0
   -7.2284   38.4468  -12.2507 C   0  0  0  0  0  0  0  0  0  0  0  0
   -6.4439   37.9359  -11.2272 C   0  0  0  0  0  0  0  0  0  0  0  0
   -5.7025   36.8050  -11.4747 O   0  0  0  0  0  0  0  0  0  0  0  0
   -8.0265   38.3065  -14.3687 O   0  0  0  0  0  0  0  0  0  0  0  0
   -6.4050   38.4381   -9.8681 C   0  0  0  0  0  0  0  0  0  0  0  0
   -7.3318   39.3631   -9.3632 C   0  0  0  0  0  0  0  0  0  0  0  0
   -7.2895   39.8535   -8.0612 C   0  0  0  0  0  0  0  0  0  0  0  0
   -6.2858   39.3715   -7.2178 C   0  0  0  0  0  0  0  0  0  0  0  0
   -5.3603   38.4317   -7.6674 C   0  0  0  0  0  0  0  0  0  0  0  0
   -5.4126   37.9744   -8.9827 C   0  0  0  0  0  0  0  0  0  0  0  0
   -6.2058   39.7951   -5.9485 O   0  0  0  0  0  0  0  0  0  0  0  0
   -6.8181   40.4267   -5.6259 H   0  0  0  0  0  0  0  0  0  0  0  0
  1  2  2  0  0  0
  1  6  1  0  0  0
  2  3  1  0  0  0
  3  4  2  0  0  0
  4  5  1  0  0  0
  4  7  1  0  0  0
  5  6  2  0  0  0
  5 10  1  0  0  0
  7  8  1  0  0  0
  7 11  2  0  0  0
  8  9  1  0  0  0
  9 10  1  0  0  0
  9 12  1  0  0  0
 12 13  2  0  0  0
 12 17  1  0  0  0
 13 14  1  0  0  0
 14 15  2  0  0  0
 15 16  1  0  0  0
 15 18  1  0  0  0
 16 17  2  0  0  0
 18 19  1  0  0  0
M  END
> <minimizedAffinity>
-10.05021

$$$$
4KZQ_DFL_A_1201


 19 21  0  0  0  0  0  0  0  0999 V2000
   -5.2590   37.9569   -5.3691 C   0  0  0  0  0  0  0  0  0  0  0  0
   -5.8486   39.2021   -5.1121 C   0  0  0  0  0  0  0  0  0  0  0  0
   -6.3329   39.9649   -6.1769 C   0  0  0  0  0  0  0  0  0  0  0  0
   -6.2091   39.5129   -7.4928 C   0  0  0  0  0  0  0  0  0  0  0  0
   -5.6558   38.2498   -7.7285 C   0  0  0  0  0  0  0  0  0  0  0  0
   -5.1510   37.4757   -6.6886 C   0  0  0  0  0  0  0  0  0  0  0  0
   -6.7019   40.2659   -8.5838 C   0  0  0  0  0  0  0  0  0  0  0  0
   -6.7279   39.6877   -9.8498 C   0  0  0  0  0  0  0  0  0  0  0  0
   -6.2080   38.4213  -10.0731 C   0  0  0  0  0  0  0  0  0  0  0  0
   -5.6078   37.7672   -9.0234 O   0  0  0  0  0  0  0  0  0  0  0  0
   -7.0873   41.4452   -8.4624 O   0  0  0  0  0  0  0  0  0  0  0  0
   -6.1539   37.7498  -11.3564 C   0  0  0  0  0  0  0  0  0  0  0  0
   -6.9080   38.1548  -12.4686 C   0  0  0  0  0  0  0  0  0  0  0  0
   -6.8642   37.5047  -13.6986 C   0  0  0  0  0  0  0  0  0  0  0  0
   -6.0018   36.4133  -13.8263 C   0  0  0  0  0  0  0  0  0  0  0  0
   -5.2133   35.9925  -12.7571 C   0  0  0  0  0  0  0  0  0  0  0  0
   -5.2936   36.6482  -11.5301 C   0  0  0  0  0  0  0  0  0  0  0  0
   -5.9051   35.7586  -14.9920 O   0  0  0  0  0  0  0  0  0  0  0  0
   -6.4262   36.0251  -15.7237 H   0  0  0  0  0  0  0  0  0  0  0  0
  1  2  2  0  0  0
  1  6  1  0  0  0
  2  3  1  0  0  0
  3  4  2  0  0  0
  4  5  1  0  0  0
  4  7  1  0  0  0
  5  6  2  0  0  0
  5 10  1  0  0  0
  7  8  1  0  0  0
  7 11  2  0  0  0
  8  9  1  0  0  0
  9 10  1  0  0  0
  9 12  1  0  0  0
 12 13  2  0  0  0
 12 17  1  0  0  0
 13 14  1  0  0  0
 14 15  2  0  0  0
 15 16  1  0  0  0
 15 18  1  0  0  0
 16 17  2  0  0  0
 18 19  1  0  0  0
M  END
> <minimizedAffinity>
-9.67845

$$$$
4KZQ_DFL_A_1201


 19 21  0  0  0  0  0  0  0  0999 V2000
   -8.7133   37.4121   -6.7487 C   0  0  0  0  0  0  0  0  0  0  0  0
   -7.6949   38.1307   -6.1077 C   0  0  0  0  0  0  0  0  0  0  0  0
   -6.5876   38.5568   -6.8443 C   0  0  0  0  0  0  0  0  0  0  0  0
   -6.4725   38.2493   -8.2021 C   0  0  0  0  0  0  0  0  0  0  0  0
   -7.5171   37.5674   -8.8355 C   0  0  0  0  0  0  0  0  0  0  0  0
   -8.6241   37.1173   -8.1232 C   0  0  0  0  0  0  0  0  0  0  0  0
   -5.3641   38.6801   -8.9674 C   0  0  0  0  0  0  0  0  0  0  0  0
   -5.3896   38.5156  -10.3495 C   0  0  0  0  0  0  0  0  0  0  0  0
   -6.4433   37.8680  -10.9775 C   0  0  0  0  0  0  0  0  0  0  0  0
   -7.4410   37.3347  -10.1964 O   0  0  0  0  0  0  0  0  0  0  0  0
   -4.3451   39.1757   -8.4480 O   0  0  0  0  0  0  0  0  0  0  0  0
   -6.5447   37.6143  -12.4009 C   0  0  0  0  0  0  0  0  0  0  0  0
   -5.8210   36.6059  -13.0558 C   0  0  0  0  0  0  0  0  0  0  0  0
   -5.9102   36.3678  -14.4244 C   0  0  0  0  0  0  0  0  0  0  0  0
   -6.7883   37.1616  -15.1660 C   0  0  0  0  0  0  0  0  0  0  0  0
   -7.5478   38.1567  -14.5537 C   0  0  0  0  0  0  0  0  0  0  0  0
   -7.4221   38.3880  -13.1852 C   0  0  0  0  0  0  0  0  0  0  0  0
   -6.9284   36.9671  -16.4849 O   0  0  0  0  0  0  0  0  0  0  0  0
   -6.4273   36.3033  -16.9164 H   0  0  0  0  0  0  0  0  0  0  0  0
  1  2  2  0  0  0
  1  6  1  0  0  0
  2  3  1  0  0  0
  3  4  2  0  0  0
  4  5  1  0  0  0
  4  7  1  0  0  0
  5  6  2  0  0  0
  5 10  1  0  0  0
  7  8  1  0  0  0
  7 11  2  0  0  0
  8  9  1  0  0  0
  9 10  1  0  0  0
  9 12  1  0  0  0
 12 13  2  0  0  0
 12 17  1  0  0  0
 13 14  1  0  0  0
 14 15  2  0  0  0
 15 16  1  0  0  0
 15 18  1  0  0  0
 16 17  2  0  0  0
 18 19  1  0  0  0
M  END
> <minimizedAffinity>
-9.67110

$$$$
4KZQ_DFL_A_1201


 19 21  0  0  0  0  0  0  0  0999 V2000
   -7.3840   37.8255  -15.7869 C   0  0  0  0  0  0  0  0  0  0  0  0
   -6.7184   36.6333  -16.1028 C   0  0  0  0  0  0  0  0  0  0  0  0
   -5.9948   35.9679  -15.1109 C   0  0  0  0  0  0  0  0  0  0  0  0
   -5.9049   36.4929  -13.8195 C   0  0  0  0  0  0  0  0  0  0  0  0
   -6.6092   37.6615  -13.5104 C   0  0  0  0  0  0  0  0  0  0  0  0
   -7.3247   38.3535  -14.4823 C   0  0  0  0  0  0  0  0  0  0  0  0
   -5.1855   35.8292  -12.7988 C   0  0  0  0  0  0  0  0  0  0  0  0
   -5.2862   36.2899  -11.4891 C   0  0  0  0  0  0  0  0  0  0  0  0
   -6.0130   37.4307  -11.1817 C   0  0  0  0  0  0  0  0  0  0  0  0
   -6.5871   38.1368  -12.2121 O   0  0  0  0  0  0  0  0  0  0  0  0
   -4.4352   34.8612  -13.0308 O   0  0  0  0  0  0  0  0  0  0  0  0
   -6.1471   38.0104   -9.8601 C   0  0  0  0  0  0  0  0  0  0  0  0
   -6.8033   39.2269   -9.6169 C   0  0  0  0  0  0  0  0  0  0  0  0
   -6.9241   39.7894   -8.3494 C   0  0  0  0  0  0  0  0  0  0  0  0
   -6.3847   39.0837   -7.2714 C   0  0  0  0  0  0  0  0  0  0  0  0
   -5.7486   37.8585   -7.4615 C   0  0  0  0  0  0  0  0  0  0  0  0
   -5.6224   37.3293   -8.7445 C   0  0  0  0  0  0  0  0  0  0  0  0
   -6.4856   39.5682   -6.0255 O   0  0  0  0  0  0  0  0  0  0  0  0
   -6.9095   40.3902   -5.8754 H   0  0  0  0  0  0  0  0  0  0  0  0
  1  2  2  0  0  0
  1  6  1  0  0  0
  2  3  1  0  0  0
  3  4  2  0  0  0
  4  5  1  0  0  0
  4  7  1  0  0  0
  5  6  2  0  0  0
  5 10  1  0  0  0
  7  8  1  0  0  0
  7 11  2  0  0  0
  8  9  1  0  0  0
  9 10  1  0  0  0
  9 12  1  0  0  0
 12 13  2  0  0  0
 12 17  1  0  0  0
 13 14  1  0  0  0
 14 15  2  0  0  0
 15 16  1  0  0  0
 15 18  1  0  0  0
 16 17  2  0  0  0
 18 19  1  0  0  0
M  END
> <minimizedAffinity>
-9.56883

$$$$
