5FTG_NBR_A_1458


 38 41  0  0  0  0  0  0  0  0999 V2000
  -19.6121   12.7507    7.9648 C   0  0  0  0  0  0  0  0  0  0  0  0
  -19.9907   11.5732    7.2970 O   0  0  0  0  0  0  0  0  0  0  0  0
  -18.0676   10.7518    3.6186 C   0  0  0  0  0  0  0  0  0  0  0  0
  -18.2735    9.7537    4.5563 C   0  0  0  0  0  0  0  0  0  0  0  0
  -18.9409   10.0357    5.7608 C   0  0  0  0  0  0  0  0  0  0  0  0
  -18.4942   12.0357    3.8759 C   0  0  0  0  0  0  0  0  0  0  0  0
  -19.1289   12.3300    5.0904 C   0  0  0  0  0  0  0  0  0  0  0  0
  -19.3609   11.3246    6.0361 C   0  0  0  0  0  0  0  0  0  0  0  0
  -17.4767   10.4933    2.3539 C   0  0  0  0  0  0  0  0  0  0  0  0
  -13.2816   10.8322    1.7942 C   0  0  0  0  0  0  0  0  0  0  0  0
  -14.1509   11.8139    1.2927 C   0  0  0  0  0  0  0  0  0  0  0  0
  -15.5287   11.7077    1.4788 C   0  0  0  0  0  0  0  0  0  0  0  0
  -13.7929    9.7226    2.4780 C   0  0  0  0  0  0  0  0  0  0  0  0
  -15.1688    9.6118    2.6822 C   0  0  0  0  0  0  0  0  0  0  0  0
  -16.0362   10.6186    2.2065 N   0  0  0  0  0  0  0  0  0  0  0  0
  -16.4901   10.9898    1.4156 H   0  0  0  0  0  0  0  0  0  0  0  0
  -11.4651   11.1683    0.1826 C   0  0  0  0  0  0  0  0  0  0  0  0
  -11.9627   10.9417    1.5565 N   0  0  0  0  0  0  0  0  0  0  0  0
  -11.0581   10.6776    2.6974 C   0  0  0  0  0  0  0  0  0  0  0  0
  -19.1875   12.3297    9.3801 C   0  0  0  0  0  0  0  0  0  0  0  0
  -17.7147   12.2101    9.3787 O   0  0  0  0  0  0  0  0  0  0  0  0
  -17.2914   10.8787    9.1193 C   0  0  0  0  0  0  0  0  0  0  0  0
  -17.8065    9.7846    9.7629 C   0  0  0  0  0  0  0  0  0  0  0  0
  -17.3379    8.5348    9.3798 C   0  0  0  0  0  0  0  0  0  0  0  0
  -16.3834   10.7783    8.0961 C   0  0  0  0  0  0  0  0  0  0  0  0
  -15.9001    9.4898    7.6987 C   0  0  0  0  0  0  0  0  0  0  0  0
  -16.4056    8.3866    8.3445 C   0  0  0  0  0  0  0  0  0  0  0  0
  -15.9839    6.9986    7.9950 C   0  0  0  0  0  0  0  0  0  0  0  0
  -16.3986    6.7973    6.5977 N   0  0  0  0  0  0  0  0  0  0  0  0
  -17.6239    6.2061    6.2496 C   0  0  0  0  0  0  0  0  0  0  0  0
  -17.9960    5.9349    4.9722 C   0  0  0  0  0  0  0  0  0  0  0  0
  -17.1555    6.1774    3.8624 C   0  0  0  0  0  0  0  0  0  0  0  0
  -15.9623    6.8384    4.2133 C   0  0  0  0  0  0  0  0  0  0  0  0
  -15.6196    7.1021    5.4713 C   0  0  0  0  0  0  0  0  0  0  0  0
  -16.6688    6.7628    5.6516 H   0  0  0  0  0  0  0  0  0  0  0  0
  -17.4567    5.8783    2.5992 N   0  0  0  0  0  0  0  0  0  0  0  0
  -17.0418    4.6884    1.9446 C   0  0  0  0  0  0  0  0  0  0  0  0
  -18.3941    6.7498    1.8164 C   0  0  0  0  0  0  0  0  0  0  0  0
 17 18  1  0  0  0
 18 19  1  0  0  0
 18 10  1  0  0  0
 10 11  2  0  0  0
 10 13  1  0  0  0
 11 12  1  0  0  0
 12 15  2  0  0  0
 13 14  2  0  0  0
 14 15  1  0  0  0
 15  9  1  0  0  0
  9  3  1  0  0  0
  3  4  1  0  0  0
  3  6  2  0  0  0
  4  5  2  0  0  0
  5  8  1  0  0  0
  6  7  1  0  0  0
  7  8  2  0  0  0
  8  2  1  0  0  0
  2  1  1  0  0  0
  1 20  1  0  0  0
 20 21  1  0  0  0
 21 22  1  0  0  0
 22 23  1  0  0  0
 22 25  2  0  0  0
 23 24  2  0  0  0
 24 27  1  0  0  0
 25 26  1  0  0  0
 26 27  2  0  0  0
 27 28  1  0  0  0
 28 29  1  0  0  0
 29 30  1  0  0  0
 29 34  2  0  0  0
 30 31  2  0  0  0
 31 32  1  0  0  0
 32 36  1  0  0  0
 32 33  2  0  0  0
 36 37  1  0  0  0
 36 38  1  0  0  0
 33 34  1  0  0  0
 15 16  1  0  0  0
 29 35  1  0  0  0
M  END
> <minimizedAffinity>
-9.54600

$$$$
5FTG_NBR_A_1458


 38 41  0  0  0  0  0  0  0  0999 V2000
  -16.5634   10.0246   10.4374 C   0  0  0  0  0  0  0  0  0  0  0  0
  -15.5117    9.7717    9.5398 O   0  0  0  0  0  0  0  0  0  0  0  0
  -16.4422    7.3177    6.2207 C   0  0  0  0  0  0  0  0  0  0  0  0
  -16.7795    6.9365    7.5087 C   0  0  0  0  0  0  0  0  0  0  0  0
  -16.4907    7.7765    8.5981 C   0  0  0  0  0  0  0  0  0  0  0  0
  -15.7957    8.5144    6.0048 C   0  0  0  0  0  0  0  0  0  0  0  0
  -15.4738    9.3396    7.0910 C   0  0  0  0  0  0  0  0  0  0  0  0
  -15.8288    8.9740    8.3946 C   0  0  0  0  0  0  0  0  0  0  0  0
  -16.7920    6.5418    5.0846 C   0  0  0  0  0  0  0  0  0  0  0  0
  -19.2234    8.1856    2.0164 C   0  0  0  0  0  0  0  0  0  0  0  0
  -19.7544    7.9352    3.2917 C   0  0  0  0  0  0  0  0  0  0  0  0
  -18.9573    7.3996    4.3027 C   0  0  0  0  0  0  0  0  0  0  0  0
  -17.8841    7.8852    1.7406 C   0  0  0  0  0  0  0  0  0  0  0  0
  -17.0727    7.3614    2.7478 C   0  0  0  0  0  0  0  0  0  0  0  0
  -17.6016    7.1436    4.0382 N   0  0  0  0  0  0  0  0  0  0  0  0
  -18.1568    6.5532    4.5972 H   0  0  0  0  0  0  0  0  0  0  0  0
  -19.6396    8.5578   -0.3706 C   0  0  0  0  0  0  0  0  0  0  0  0
  -20.0316    8.6588    1.0516 N   0  0  0  0  0  0  0  0  0  0  0  0
  -21.2321    9.4012    1.4958 C   0  0  0  0  0  0  0  0  0  0  0  0
  -17.1858   11.3630   10.0109 C   0  0  0  0  0  0  0  0  0  0  0  0
  -18.6532   11.1911   10.0330 O   0  0  0  0  0  0  0  0  0  0  0  0
  -19.2149   11.2632    8.7298 C   0  0  0  0  0  0  0  0  0  0  0  0
  -20.4473   11.8011    8.4683 C   0  0  0  0  0  0  0  0  0  0  0  0
  -20.8569   11.8532    7.1425 C   0  0  0  0  0  0  0  0  0  0  0  0
  -18.3697   10.8291    7.7404 C   0  0  0  0  0  0  0  0  0  0  0  0
  -18.7902   10.8835    6.3722 C   0  0  0  0  0  0  0  0  0  0  0  0
  -20.0288   11.4144    6.1010 C   0  0  0  0  0  0  0  0  0  0  0  0
  -20.5546   11.5346    4.7098 C   0  0  0  0  0  0  0  0  0  0  0  0
  -19.4187   11.9915    3.8938 N   0  0  0  0  0  0  0  0  0  0  0  0
  -19.2690   13.3267    3.4852 C   0  0  0  0  0  0  0  0  0  0  0  0
  -18.2761   13.7594    2.6661 C   0  0  0  0  0  0  0  0  0  0  0  0
  -17.3180   12.8890    2.0992 C   0  0  0  0  0  0  0  0  0  0  0  0
  -17.4302   11.5675    2.5733 C   0  0  0  0  0  0  0  0  0  0  0  0
  -18.4067   11.1654    3.3823 C   0  0  0  0  0  0  0  0  0  0  0  0
  -18.5988   12.2653    3.4226 H   0  0  0  0  0  0  0  0  0  0  0  0
  -16.3607   13.2599    1.2495 N   0  0  0  0  0  0  0  0  0  0  0  0
  -14.9884   12.9306    1.4069 C   0  0  0  0  0  0  0  0  0  0  0  0
  -16.7125   13.9552   -0.0326 C   0  0  0  0  0  0  0  0  0  0  0  0
 17 18  1  0  0  0
 18 19  1  0  0  0
 18 10  1  0  0  0
 10 11  2  0  0  0
 10 13  1  0  0  0
 11 12  1  0  0  0
 12 15  2  0  0  0
 13 14  2  0  0  0
 14 15  1  0  0  0
 15  9  1  0  0  0
  9  3  1  0  0  0
  3  4  1  0  0  0
  3  6  2  0  0  0
  4  5  2  0  0  0
  5  8  1  0  0  0
  6  7  1  0  0  0
  7  8  2  0  0  0
  8  2  1  0  0  0
  2  1  1  0  0  0
  1 20  1  0  0  0
 20 21  1  0  0  0
 21 22  1  0  0  0
 22 23  1  0  0  0
 22 25  2  0  0  0
 23 24  2  0  0  0
 24 27  1  0  0  0
 25 26  1  0  0  0
 26 27  2  0  0  0
 27 28  1  0  0  0
 28 29  1  0  0  0
 29 30  1  0  0  0
 29 34  2  0  0  0
 30 31  2  0  0  0
 31 32  1  0  0  0
 32 36  1  0  0  0
 32 33  2  0  0  0
 36 37  1  0  0  0
 36 38  1  0  0  0
 33 34  1  0  0  0
 15 16  1  0  0  0
 29 35  1  0  0  0
M  END
> <minimizedAffinity>
-8.97350

$$$$
5FTG_NBR_A_1458


 38 41  0  0  0  0  0  0  0  0999 V2000
  -18.5944   12.6721    9.6159 C   0  0  0  0  0  0  0  0  0  0  0  0
  -17.3694   12.1253   10.0356 O   0  0  0  0  0  0  0  0  0  0  0  0
  -16.3686    8.3521    8.4029 C   0  0  0  0  0  0  0  0  0  0  0  0
  -15.8156    9.5182    7.9004 C   0  0  0  0  0  0  0  0  0  0  0  0
  -16.1348   10.7615    8.4730 C   0  0  0  0  0  0  0  0  0  0  0  0
  -17.2576    8.4097    9.4531 C   0  0  0  0  0  0  0  0  0  0  0  0
  -17.6064    9.6500   10.0051 C   0  0  0  0  0  0  0  0  0  0  0  0
  -17.0376   10.8327    9.5187 C   0  0  0  0  0  0  0  0  0  0  0  0
  -16.0081    7.0697    7.9126 C   0  0  0  0  0  0  0  0  0  0  0  0
  -17.1517    6.0935    3.9418 C   0  0  0  0  0  0  0  0  0  0  0  0
  -15.8637    6.5806    4.2151 C   0  0  0  0  0  0  0  0  0  0  0  0
  -15.4836    6.8978    5.5186 C   0  0  0  0  0  0  0  0  0  0  0  0
  -18.0782    5.9338    4.9793 C   0  0  0  0  0  0  0  0  0  0  0  0
  -17.7055    6.2351    6.2898 C   0  0  0  0  0  0  0  0  0  0  0  0
  -16.3984    6.6916    6.5645 N   0  0  0  0  0  0  0  0  0  0  0  0
  -15.7865    7.4622    6.5352 H   0  0  0  0  0  0  0  0  0  0  0  0
  -18.8426    6.2133    2.1709 C   0  0  0  0  0  0  0  0  0  0  0  0
  -17.5004    5.8418    2.6678 N   0  0  0  0  0  0  0  0  0  0  0  0
  -16.5415    5.0563    1.8597 C   0  0  0  0  0  0  0  0  0  0  0  0
  -19.1738   11.6956    8.5809 C   0  0  0  0  0  0  0  0  0  0  0  0
  -19.3689   12.4512    7.3262 O   0  0  0  0  0  0  0  0  0  0  0  0
  -18.9201   11.7212    6.1926 C   0  0  0  0  0  0  0  0  0  0  0  0
  -18.7863   10.3580    6.1780 C   0  0  0  0  0  0  0  0  0  0  0  0
  -18.3836    9.7651    4.9887 C   0  0  0  0  0  0  0  0  0  0  0  0
  -18.7213   12.4982    5.0799 C   0  0  0  0  0  0  0  0  0  0  0  0
  -18.3071   11.8880    3.8519 C   0  0  0  0  0  0  0  0  0  0  0  0
  -18.1626   10.5212    3.8301 C   0  0  0  0  0  0  0  0  0  0  0  0
  -17.7541    9.7849    2.5982 C   0  0  0  0  0  0  0  0  0  0  0  0
  -16.3274   10.0899    2.4077 N   0  0  0  0  0  0  0  0  0  0  0  0
  -15.8801   11.1278    1.5741 C   0  0  0  0  0  0  0  0  0  0  0  0
  -14.5707   11.3793    1.3170 C   0  0  0  0  0  0  0  0  0  0  0  0
  -13.5233   10.5803    1.8284 C   0  0  0  0  0  0  0  0  0  0  0  0
  -13.9760    9.5901    2.7219 C   0  0  0  0  0  0  0  0  0  0  0  0
  -15.2641    9.3648    2.9663 C   0  0  0  0  0  0  0  0  0  0  0  0
  -15.3682   10.3101    2.3798 H   0  0  0  0  0  0  0  0  0  0  0  0
  -12.2300   10.7568    1.5597 N   0  0  0  0  0  0  0  0  0  0  0  0
  -11.7185   11.0285    0.2631 C   0  0  0  0  0  0  0  0  0  0  0  0
  -11.2251   10.8124    2.6724 C   0  0  0  0  0  0  0  0  0  0  0  0
 17 18  1  0  0  0
 18 19  1  0  0  0
 18 10  1  0  0  0
 10 11  2  0  0  0
 10 13  1  0  0  0
 11 12  1  0  0  0
 12 15  2  0  0  0
 13 14  2  0  0  0
 14 15  1  0  0  0
 15  9  1  0  0  0
  9  3  1  0  0  0
  3  4  1  0  0  0
  3  6  2  0  0  0
  4  5  2  0  0  0
  5  8  1  0  0  0
  6  7  1  0  0  0
  7  8  2  0  0  0
  8  2  1  0  0  0
  2  1  1  0  0  0
  1 20  1  0  0  0
 20 21  1  0  0  0
 21 22  1  0  0  0
 22 23  1  0  0  0
 22 25  2  0  0  0
 23 24  2  0  0  0
 24 27  1  0  0  0
 25 26  1  0  0  0
 26 27  2  0  0  0
 27 28  1  0  0  0
 28 29  1  0  0  0
 29 30  1  0  0  0
 29 34  2  0  0  0
 30 31  2  0  0  0
 31 32  1  0  0  0
 32 36  1  0  0  0
 32 33  2  0  0  0
 36 37  1  0  0  0
 36 38  1  0  0  0
 33 34  1  0  0  0
 15 16  1  0  0  0
 29 35  1  0  0  0
M  END
> <minimizedAffinity>
-8.93886

$$$$
5FTG_NBR_A_1458


 38 41  0  0  0  0  0  0  0  0999 V2000
  -15.9990    8.2269    7.9206 C   0  0  0  0  0  0  0  0  0  0  0  0
  -16.5711    6.9923    7.5681 O   0  0  0  0  0  0  0  0  0  0  0  0
  -16.9217    6.0687    3.4538 C   0  0  0  0  0  0  0  0  0  0  0  0
  -17.9651    5.8282    4.3321 C   0  0  0  0  0  0  0  0  0  0  0  0
  -17.8445    6.1683    5.6906 C   0  0  0  0  0  0  0  0  0  0  0  0
  -15.7473    6.6200    3.9157 C   0  0  0  0  0  0  0  0  0  0  0  0
  -15.6087    6.9286    5.2759 C   0  0  0  0  0  0  0  0  0  0  0  0
  -16.6644    6.7091    6.1684 C   0  0  0  0  0  0  0  0  0  0  0  0
  -17.0319    5.8217    2.0602 C   0  0  0  0  0  0  0  0  0  0  0  0
  -14.1284    3.4793    0.0327 C   0  0  0  0  0  0  0  0  0  0  0  0
  -13.9067    4.8455    0.2681 C   0  0  0  0  0  0  0  0  0  0  0  0
  -14.8563    5.6164    0.9376 C   0  0  0  0  0  0  0  0  0  0  0  0
  -15.3184    2.8763    0.4576 C   0  0  0  0  0  0  0  0  0  0  0  0
  -16.2706    3.6341    1.1405 C   0  0  0  0  0  0  0  0  0  0  0  0
  -16.0283    4.9992    1.4053 N   0  0  0  0  0  0  0  0  0  0  0  0
  -16.0183    5.9084    1.0279 H   0  0  0  0  0  0  0  0  0  0  0  0
  -11.7782    2.8738   -0.3125 C   0  0  0  0  0  0  0  0  0  0  0  0
  -13.2128    2.7762   -0.6567 N   0  0  0  0  0  0  0  0  0  0  0  0
  -13.6985    2.0378   -1.8436 C   0  0  0  0  0  0  0  0  0  0  0  0
  -17.1582    9.2305    8.0184 C   0  0  0  0  0  0  0  0  0  0  0  0
  -16.9042   10.2923    7.0228 O   0  0  0  0  0  0  0  0  0  0  0  0
  -17.4944    9.9920    5.7655 C   0  0  0  0  0  0  0  0  0  0  0  0
  -18.8182    9.6762    5.6098 C   0  0  0  0  0  0  0  0  0  0  0  0
  -19.2770    9.4510    4.3187 C   0  0  0  0  0  0  0  0  0  0  0  0
  -16.6369   10.1386    4.7050 C   0  0  0  0  0  0  0  0  0  0  0  0
  -17.1089    9.9080    3.3723 C   0  0  0  0  0  0  0  0  0  0  0  0
  -18.4343    9.5827    3.2072 C   0  0  0  0  0  0  0  0  0  0  0  0
  -19.0314    9.3410    1.8613 C   0  0  0  0  0  0  0  0  0  0  0  0
  -19.3818   10.6706    1.3375 N   0  0  0  0  0  0  0  0  0  0  0  0
  -20.6351   11.2646    1.5578 C   0  0  0  0  0  0  0  0  0  0  0  0
  -21.0132   12.4524    1.0194 C   0  0  0  0  0  0  0  0  0  0  0  0
  -20.1921   13.1879    0.1352 C   0  0  0  0  0  0  0  0  0  0  0  0
  -18.9111   12.6234   -0.0199 C   0  0  0  0  0  0  0  0  0  0  0  0
  -18.5576   11.4614    0.5229 C   0  0  0  0  0  0  0  0  0  0  0  0
  -19.5385   11.5961    1.0406 H   0  0  0  0  0  0  0  0  0  0  0  0
  -20.5421   14.3287   -0.4581 N   0  0  0  0  0  0  0  0  0  0  0  0
  -19.6190   15.3301   -0.8602 C   0  0  0  0  0  0  0  0  0  0  0  0
  -21.9661   14.5648   -0.8673 C   0  0  0  0  0  0  0  0  0  0  0  0
 17 18  1  0  0  0
 18 19  1  0  0  0
 18 10  1  0  0  0
 10 11  2  0  0  0
 10 13  1  0  0  0
 11 12  1  0  0  0
 12 15  2  0  0  0
 13 14  2  0  0  0
 14 15  1  0  0  0
 15  9  1  0  0  0
  9  3  1  0  0  0
  3  4  1  0  0  0
  3  6  2  0  0  0
  4  5  2  0  0  0
  5  8  1  0  0  0
  6  7  1  0  0  0
  7  8  2  0  0  0
  8  2  1  0  0  0
  2  1  1  0  0  0
  1 20  1  0  0  0
 20 21  1  0  0  0
 21 22  1  0  0  0
 22 23  1  0  0  0
 22 25  2  0  0  0
 23 24  2  0  0  0
 24 27  1  0  0  0
 25 26  1  0  0  0
 26 27  2  0  0  0
 27 28  1  0  0  0
 28 29  1  0  0  0
 29 30  1  0  0  0
 29 34  2  0  0  0
 30 31  2  0  0  0
 31 32  1  0  0  0
 32 36  1  0  0  0
 32 33  2  0  0  0
 36 37  1  0  0  0
 36 38  1  0  0  0
 33 34  1  0  0  0
 15 16  1  0  0  0
 29 35  1  0  0  0
M  END
> <minimizedAffinity>
-8.51543

$$$$
5FTG_NBR_A_1458


 38 41  0  0  0  0  0  0  0  0999 V2000
  -16.6548    4.7585    1.5498 C   0  0  0  0  0  0  0  0  0  0  0  0
  -17.5907    5.5352    2.2546 O   0  0  0  0  0  0  0  0  0  0  0  0
  -16.6165    6.7189    6.1985 C   0  0  0  0  0  0  0  0  0  0  0  0
  -17.8429    6.1457    5.9062 C   0  0  0  0  0  0  0  0  0  0  0  0
  -18.1402    5.7301    4.5968 C   0  0  0  0  0  0  0  0  0  0  0  0
  -15.6901    6.9087    5.1972 C   0  0  0  0  0  0  0  0  0  0  0  0
  -15.9949    6.5283    3.8831 C   0  0  0  0  0  0  0  0  0  0  0  0
  -17.2231    5.9290    3.5805 C   0  0  0  0  0  0  0  0  0  0  0  0
  -16.2413    7.0731    7.5210 C   0  0  0  0  0  0  0  0  0  0  0  0
  -17.5809   10.7447    9.1799 C   0  0  0  0  0  0  0  0  0  0  0  0
  -17.2140   10.6635    7.8273 C   0  0  0  0  0  0  0  0  0  0  0  0
  -16.7779    9.4582    7.2784 C   0  0  0  0  0  0  0  0  0  0  0  0
  -17.4987    9.6131   10.0003 C   0  0  0  0  0  0  0  0  0  0  0  0
  -17.0766    8.3979    9.4596 C   0  0  0  0  0  0  0  0  0  0  0  0
  -16.7418    8.3129    8.0910 N   0  0  0  0  0  0  0  0  0  0  0  0
  -16.0567    8.5063    7.4110 H   0  0  0  0  0  0  0  0  0  0  0  0
  -19.3356   12.4241    9.5115 C   0  0  0  0  0  0  0  0  0  0  0  0
  -17.9522   11.9330    9.6880 N   0  0  0  0  0  0  0  0  0  0  0  0
  -16.8828   12.7630   10.2856 C   0  0  0  0  0  0  0  0  0  0  0  0
  -16.2569    5.5762    0.3114 C   0  0  0  0  0  0  0  0  0  0  0  0
  -14.7986    5.8027    0.3855 O   0  0  0  0  0  0  0  0  0  0  0  0
  -14.4720    7.1833    0.3041 C   0  0  0  0  0  0  0  0  0  0  0  0
  -15.0046    8.0304   -0.6314 C   0  0  0  0  0  0  0  0  0  0  0  0
  -14.6368    9.3680   -0.5698 C   0  0  0  0  0  0  0  0  0  0  0  0
  -13.6435    7.6140    1.3088 C   0  0  0  0  0  0  0  0  0  0  0  0
  -13.2641    8.9937    1.3747 C   0  0  0  0  0  0  0  0  0  0  0  0
  -13.7875    9.8497    0.4351 C   0  0  0  0  0  0  0  0  0  0  0  0
  -13.4720   11.3081    0.4254 C   0  0  0  0  0  0  0  0  0  0  0  0
  -14.7501   11.9928    0.6752 N   0  0  0  0  0  0  0  0  0  0  0  0
  -15.4366   12.7021   -0.3237 C   0  0  0  0  0  0  0  0  0  0  0  0
  -16.5741   13.4096   -0.1017 C   0  0  0  0  0  0  0  0  0  0  0  0
  -17.1543   13.5435    1.1798 C   0  0  0  0  0  0  0  0  0  0  0  0
  -16.5030   12.7688    2.1594 C   0  0  0  0  0  0  0  0  0  0  0  0
  -15.3931   12.0758    1.9194 C   0  0  0  0  0  0  0  0  0  0  0  0
  -15.6426   12.3607    0.8683 H   0  0  0  0  0  0  0  0  0  0  0  0
  -18.2372   14.2703    1.4534 N   0  0  0  0  0  0  0  0  0  0  0  0
  -19.0230   14.9256    0.4687 C   0  0  0  0  0  0  0  0  0  0  0  0
  -18.7793   14.3267    2.8512 C   0  0  0  0  0  0  0  0  0  0  0  0
 17 18  1  0  0  0
 18 19  1  0  0  0
 18 10  1  0  0  0
 10 11  2  0  0  0
 10 13  1  0  0  0
 11 12  1  0  0  0
 12 15  2  0  0  0
 13 14  2  0  0  0
 14 15  1  0  0  0
 15  9  1  0  0  0
  9  3  1  0  0  0
  3  4  1  0  0  0
  3  6  2  0  0  0
  4  5  2  0  0  0
  5  8  1  0  0  0
  6  7  1  0  0  0
  7  8  2  0  0  0
  8  2  1  0  0  0
  2  1  1  0  0  0
  1 20  1  0  0  0
 20 21  1  0  0  0
 21 22  1  0  0  0
 22 23  1  0  0  0
 22 25  2  0  0  0
 23 24  2  0  0  0
 24 27  1  0  0  0
 25 26  1  0  0  0
 26 27  2  0  0  0
 27 28  1  0  0  0
 28 29  1  0  0  0
 29 30  1  0  0  0
 29 34  2  0  0  0
 30 31  2  0  0  0
 31 32  1  0  0  0
 32 36  1  0  0  0
 32 33  2  0  0  0
 36 37  1  0  0  0
 36 38  1  0  0  0
 33 34  1  0  0  0
 15 16  1  0  0  0
 29 35  1  0  0  0
M  END
> <minimizedAffinity>
-8.43582

$$$$
5FTG_NBR_A_1458


 38 41  0  0  0  0  0  0  0  0999 V2000
  -16.9560    5.4394    3.1221 C   0  0  0  0  0  0  0  0  0  0  0  0
  -15.8459    6.2283    3.4699 O   0  0  0  0  0  0  0  0  0  0  0  0
  -16.0725    8.5273    7.0149 C   0  0  0  0  0  0  0  0  0  0  0  0
  -15.3863    8.9907    5.9048 C   0  0  0  0  0  0  0  0  0  0  0  0
  -15.3454    8.2288    4.7243 C   0  0  0  0  0  0  0  0  0  0  0  0
  -16.6976    7.3009    6.9744 C   0  0  0  0  0  0  0  0  0  0  0  0
  -16.6304    6.5213    5.8115 C   0  0  0  0  0  0  0  0  0  0  0  0
  -15.9573    6.9891    4.6770 C   0  0  0  0  0  0  0  0  0  0  0  0
  -16.2127    9.3012    8.1967 C   0  0  0  0  0  0  0  0  0  0  0  0
  -19.4474   12.0364    8.4855 C   0  0  0  0  0  0  0  0  0  0  0  0
  -18.8943   11.4596    9.6397 C   0  0  0  0  0  0  0  0  0  0  0  0
  -17.8291   10.5645    9.5485 C   0  0  0  0  0  0  0  0  0  0  0  0
  -18.9417   11.7061    7.2224 C   0  0  0  0  0  0  0  0  0  0  0  0
  -17.8672   10.8218    7.1189 C   0  0  0  0  0  0  0  0  0  0  0  0
  -17.2918   10.2711    8.2842 N   0  0  0  0  0  0  0  0  0  0  0  0
  -17.3874    9.5947    8.9932 H   0  0  0  0  0  0  0  0  0  0  0  0
  -20.3441   14.2008    9.2070 C   0  0  0  0  0  0  0  0  0  0  0  0
  -20.5039   12.8593    8.6061 N   0  0  0  0  0  0  0  0  0  0  0  0
  -21.8263   12.2987    8.2502 C   0  0  0  0  0  0  0  0  0  0  0  0
  -17.3422    5.8408    1.6902 C   0  0  0  0  0  0  0  0  0  0  0  0
  -18.6714    6.4827    1.7581 O   0  0  0  0  0  0  0  0  0  0  0  0
  -18.5908    7.8190    2.2346 C   0  0  0  0  0  0  0  0  0  0  0  0
  -19.3103    8.2831    3.3039 C   0  0  0  0  0  0  0  0  0  0  0  0
  -19.1014    9.5988    3.6959 C   0  0  0  0  0  0  0  0  0  0  0  0
  -17.6542    8.5809    1.5836 C   0  0  0  0  0  0  0  0  0  0  0  0
  -17.4366    9.9378    1.9875 C   0  0  0  0  0  0  0  0  0  0  0  0
  -18.1600   10.4146    3.0547 C   0  0  0  0  0  0  0  0  0  0  0  0
  -17.9960   11.8062    3.5676 C   0  0  0  0  0  0  0  0  0  0  0  0
  -18.6102   12.6781    2.5540 N   0  0  0  0  0  0  0  0  0  0  0  0
  -19.9943   12.7060    2.3182 C   0  0  0  0  0  0  0  0  0  0  0  0
  -20.5788   13.4394    1.3361 C   0  0  0  0  0  0  0  0  0  0  0  0
  -19.8376   14.2133    0.4149 C   0  0  0  0  0  0  0  0  0  0  0  0
  -18.4597   14.2392    0.7052 C   0  0  0  0  0  0  0  0  0  0  0  0
  -17.9075   13.5187    1.6777 C   0  0  0  0  0  0  0  0  0  0  0  0
  -18.9819   13.3395    1.9266 H   0  0  0  0  0  0  0  0  0  0  0  0
  -20.3636   14.9045   -0.5958 N   0  0  0  0  0  0  0  0  0  0  0  0
  -19.6139   15.7548   -1.4511 C   0  0  0  0  0  0  0  0  0  0  0  0
  -21.8010   14.7110   -0.9800 C   0  0  0  0  0  0  0  0  0  0  0  0
 17 18  1  0  0  0
 18 19  1  0  0  0
 18 10  1  0  0  0
 10 11  2  0  0  0
 10 13  1  0  0  0
 11 12  1  0  0  0
 12 15  2  0  0  0
 13 14  2  0  0  0
 14 15  1  0  0  0
 15  9  1  0  0  0
  9  3  1  0  0  0
  3  4  1  0  0  0
  3  6  2  0  0  0
  4  5  2  0  0  0
  5  8  1  0  0  0
  6  7  1  0  0  0
  7  8  2  0  0  0
  8  2  1  0  0  0
  2  1  1  0  0  0
  1 20  1  0  0  0
 20 21  1  0  0  0
 21 22  1  0  0  0
 22 23  1  0  0  0
 22 25  2  0  0  0
 23 24  2  0  0  0
 24 27  1  0  0  0
 25 26  1  0  0  0
 26 27  2  0  0  0
 27 28  1  0  0  0
 28 29  1  0  0  0
 29 30  1  0  0  0
 29 34  2  0  0  0
 30 31  2  0  0  0
 31 32  1  0  0  0
 32 36  1  0  0  0
 32 33  2  0  0  0
 36 37  1  0  0  0
 36 38  1  0  0  0
 33 34  1  0  0  0
 15 16  1  0  0  0
 29 35  1  0  0  0
M  END
> <minimizedAffinity>
-8.43549

$$$$
5FTG_NBR_A_1458


 38 41  0  0  0  0  0  0  0  0999 V2000
  -16.8914    5.2678    0.8285 C   0  0  0  0  0  0  0  0  0  0  0  0
  -17.8897    5.6752    1.7303 O   0  0  0  0  0  0  0  0  0  0  0  0
  -16.5006    6.6330    5.6106 C   0  0  0  0  0  0  0  0  0  0  0  0
  -15.7220    6.8777    4.4917 C   0  0  0  0  0  0  0  0  0  0  0  0
  -16.2096    6.5819    3.2070 C   0  0  0  0  0  0  0  0  0  0  0  0
  -17.7503    6.0717    5.4693 C   0  0  0  0  0  0  0  0  0  0  0  0
  -18.2272    5.7422    4.1932 C   0  0  0  0  0  0  0  0  0  0  0  0
  -17.4573    6.0046    3.0541 C   0  0  0  0  0  0  0  0  0  0  0  0
  -16.0837    6.9959    6.9181 C   0  0  0  0  0  0  0  0  0  0  0  0
  -17.8913   10.3532    8.7860 C   0  0  0  0  0  0  0  0  0  0  0  0
  -17.4003    9.2861    9.5550 C   0  0  0  0  0  0  0  0  0  0  0  0
  -16.8022    8.1843    8.9448 C   0  0  0  0  0  0  0  0  0  0  0  0
  -17.7978   10.3155    7.3896 C   0  0  0  0  0  0  0  0  0  0  0  0
  -17.1893    9.2244    6.7678 C   0  0  0  0  0  0  0  0  0  0  0  0
  -16.6661    8.1699    7.5467 N   0  0  0  0  0  0  0  0  0  0  0  0
  -16.8824    7.3645    8.0699 H   0  0  0  0  0  0  0  0  0  0  0  0
  -19.9711   11.5395    9.3121 C   0  0  0  0  0  0  0  0  0  0  0  0
  -18.5041   11.3784    9.4036 N   0  0  0  0  0  0  0  0  0  0  0  0
  -17.6297   12.3912   10.0356 C   0  0  0  0  0  0  0  0  0  0  0  0
  -17.0358    6.1625   -0.4122 C   0  0  0  0  0  0  0  0  0  0  0  0
  -15.6722    6.4993   -0.8710 O   0  0  0  0  0  0  0  0  0  0  0  0
  -15.0855    7.5246   -0.0811 C   0  0  0  0  0  0  0  0  0  0  0  0
  -13.8705    7.3972    0.5387 C   0  0  0  0  0  0  0  0  0  0  0  0
  -13.3902    8.4942    1.2416 C   0  0  0  0  0  0  0  0  0  0  0  0
  -15.8046    8.6926   -0.0713 C   0  0  0  0  0  0  0  0  0  0  0  0
  -15.3098    9.8256    0.6521 C   0  0  0  0  0  0  0  0  0  0  0  0
  -14.0950    9.7043    1.2839 C   0  0  0  0  0  0  0  0  0  0  0  0
  -13.4811   10.8293    2.0482 C   0  0  0  0  0  0  0  0  0  0  0  0
  -12.0960   10.9304    1.5622 N   0  0  0  0  0  0  0  0  0  0  0  0
  -11.7825   11.2319    0.2269 C   0  0  0  0  0  0  0  0  0  0  0  0
  -10.5175   11.2518   -0.2662 C   0  0  0  0  0  0  0  0  0  0  0  0
   -9.3870   10.9174    0.5130 C   0  0  0  0  0  0  0  0  0  0  0  0
   -9.7028   10.6904    1.8667 C   0  0  0  0  0  0  0  0  0  0  0  0
  -10.9492   10.6831    2.3317 C   0  0  0  0  0  0  0  0  0  0  0  0
  -11.1563   11.0718    1.3049 H   0  0  0  0  0  0  0  0  0  0  0  0
   -8.1353   10.8713    0.0583 N   0  0  0  0  0  0  0  0  0  0  0  0
   -7.7261   11.3982   -1.1953 C   0  0  0  0  0  0  0  0  0  0  0  0
   -7.0286   10.3622    0.9342 C   0  0  0  0  0  0  0  0  0  0  0  0
 17 18  1  0  0  0
 18 19  1  0  0  0
 18 10  1  0  0  0
 10 11  2  0  0  0
 10 13  1  0  0  0
 11 12  1  0  0  0
 12 15  2  0  0  0
 13 14  2  0  0  0
 14 15  1  0  0  0
 15  9  1  0  0  0
  9  3  1  0  0  0
  3  4  1  0  0  0
  3  6  2  0  0  0
  4  5  2  0  0  0
  5  8  1  0  0  0
  6  7  1  0  0  0
  7  8  2  0  0  0
  8  2  1  0  0  0
  2  1  1  0  0  0
  1 20  1  0  0  0
 20 21  1  0  0  0
 21 22  1  0  0  0
 22 23  1  0  0  0
 22 25  2  0  0  0
 23 24  2  0  0  0
 24 27  1  0  0  0
 25 26  1  0  0  0
 26 27  2  0  0  0
 27 28  1  0  0  0
 28 29  1  0  0  0
 29 30  1  0  0  0
 29 34  2  0  0  0
 30 31  2  0  0  0
 31 32  1  0  0  0
 32 36  1  0  0  0
 32 33  2  0  0  0
 36 37  1  0  0  0
 36 38  1  0  0  0
 33 34  1  0  0  0
 15 16  1  0  0  0
 29 35  1  0  0  0
M  END
> <minimizedAffinity>
-8.37199

$$$$
5FTG_NBR_A_1458


 38 41  0  0  0  0  0  0  0  0999 V2000
  -17.2174    6.0788    1.3240 C   0  0  0  0  0  0  0  0  0  0  0  0
  -17.7308    5.3788    2.4296 O   0  0  0  0  0  0  0  0  0  0  0  0
  -16.4985    6.7894    6.2237 C   0  0  0  0  0  0  0  0  0  0  0  0
  -15.6813    6.9180    5.1130 C   0  0  0  0  0  0  0  0  0  0  0  0
  -16.1171    6.4718    3.8534 C   0  0  0  0  0  0  0  0  0  0  0  0
  -17.7357    6.1969    6.1022 C   0  0  0  0  0  0  0  0  0  0  0  0
  -18.1609    5.7183    4.8553 C   0  0  0  0  0  0  0  0  0  0  0  0
  -17.3518    5.8621    3.7223 C   0  0  0  0  0  0  0  0  0  0  0  0
  -16.1348    7.3038    7.4959 C   0  0  0  0  0  0  0  0  0  0  0  0
  -18.0286   10.8055    8.9721 C   0  0  0  0  0  0  0  0  0  0  0  0
  -17.7194   10.6814    7.6083 C   0  0  0  0  0  0  0  0  0  0  0  0
  -17.1015    9.5309    7.1197 C   0  0  0  0  0  0  0  0  0  0  0  0
  -17.7051    9.7754    9.8634 C   0  0  0  0  0  0  0  0  0  0  0  0
  -17.0988    8.6134    9.3845 C   0  0  0  0  0  0  0  0  0  0  0  0
  -16.8212    8.4786    8.0071 N   0  0  0  0  0  0  0  0  0  0  0  0
  -16.2158    8.7337    7.2739 H   0  0  0  0  0  0  0  0  0  0  0  0
  -17.7553   12.9616   10.1063 C   0  0  0  0  0  0  0  0  0  0  0  0
  -18.5818   11.9474    9.4173 N   0  0  0  0  0  0  0  0  0  0  0  0
  -20.0538   12.0567    9.3135 C   0  0  0  0  0  0  0  0  0  0  0  0
  -18.4149    6.7690    0.6530 C   0  0  0  0  0  0  0  0  0  0  0  0
  -18.8133    7.8971    1.5203 O   0  0  0  0  0  0  0  0  0  0  0  0
  -17.8615    8.9517    1.4887 C   0  0  0  0  0  0  0  0  0  0  0  0
  -17.4238    9.5382    0.3307 C   0  0  0  0  0  0  0  0  0  0  0  0
  -16.5269   10.5922    0.4441 C   0  0  0  0  0  0  0  0  0  0  0  0
  -17.4886    9.3951    2.7320 C   0  0  0  0  0  0  0  0  0  0  0  0
  -16.5646   10.4832    2.8507 C   0  0  0  0  0  0  0  0  0  0  0  0
  -16.1138   11.0728    1.6936 C   0  0  0  0  0  0  0  0  0  0  0  0
  -15.1650   12.2244    1.7060 C   0  0  0  0  0  0  0  0  0  0  0  0
  -13.9134   11.7142    1.1246 N   0  0  0  0  0  0  0  0  0  0  0  0
  -13.0410   10.8686    1.8290 C   0  0  0  0  0  0  0  0  0  0  0  0
  -11.8427   10.4491    1.3477 C   0  0  0  0  0  0  0  0  0  0  0  0
  -11.3300   10.8688    0.0995 C   0  0  0  0  0  0  0  0  0  0  0  0
  -12.2425   11.6545   -0.6311 C   0  0  0  0  0  0  0  0  0  0  0  0
  -13.4160   12.0486   -0.1440 C   0  0  0  0  0  0  0  0  0  0  0  0
  -13.1327   11.3303    0.6636 H   0  0  0  0  0  0  0  0  0  0  0  0
  -10.1381   10.5263   -0.3884 N   0  0  0  0  0  0  0  0  0  0  0  0
   -9.1003   11.4532   -0.6720 C   0  0  0  0  0  0  0  0  0  0  0  0
   -9.7694    9.0803   -0.5435 C   0  0  0  0  0  0  0  0  0  0  0  0
 17 18  1  0  0  0
 18 19  1  0  0  0
 18 10  1  0  0  0
 10 11  2  0  0  0
 10 13  1  0  0  0
 11 12  1  0  0  0
 12 15  2  0  0  0
 13 14  2  0  0  0
 14 15  1  0  0  0
 15  9  1  0  0  0
  9  3  1  0  0  0
  3  4  1  0  0  0
  3  6  2  0  0  0
  4  5  2  0  0  0
  5  8  1  0  0  0
  6  7  1  0  0  0
  7  8  2  0  0  0
  8  2  1  0  0  0
  2  1  1  0  0  0
  1 20  1  0  0  0
 20 21  1  0  0  0
 21 22  1  0  0  0
 22 23  1  0  0  0
 22 25  2  0  0  0
 23 24  2  0  0  0
 24 27  1  0  0  0
 25 26  1  0  0  0
 26 27  2  0  0  0
 27 28  1  0  0  0
 28 29  1  0  0  0
 29 30  1  0  0  0
 29 34  2  0  0  0
 30 31  2  0  0  0
 31 32  1  0  0  0
 32 36  1  0  0  0
 32 33  2  0  0  0
 36 37  1  0  0  0
 36 38  1  0  0  0
 33 34  1  0  0  0
 15 16  1  0  0  0
 29 35  1  0  0  0
M  END
> <minimizedAffinity>
-8.36546

$$$$
5FTG_NBR_A_1458


 38 41  0  0  0  0  0  0  0  0999 V2000
  -17.6011   12.4404   10.0878 C   0  0  0  0  0  0  0  0  0  0  0  0
  -16.4314   11.6766   10.2434 O   0  0  0  0  0  0  0  0  0  0  0  0
  -16.3644    7.9569    8.2276 C   0  0  0  0  0  0  0  0  0  0  0  0
  -15.7034    9.0604    7.7144 C   0  0  0  0  0  0  0  0  0  0  0  0
  -15.7097   10.2813    8.4109 C   0  0  0  0  0  0  0  0  0  0  0  0
  -17.0555    8.0599    9.4143 C   0  0  0  0  0  0  0  0  0  0  0  0
  -17.0945    9.2844   10.0953 C   0  0  0  0  0  0  0  0  0  0  0  0
  -16.4126   10.4002    9.5964 C   0  0  0  0  0  0  0  0  0  0  0  0
  -16.3117    6.6835    7.6025 C   0  0  0  0  0  0  0  0  0  0  0  0
  -17.1875    6.2439    3.4712 C   0  0  0  0  0  0  0  0  0  0  0  0
  -18.1692    5.9857    4.4411 C   0  0  0  0  0  0  0  0  0  0  0  0
  -17.8860    6.1335    5.7983 C   0  0  0  0  0  0  0  0  0  0  0  0
  -15.9023    6.6409    3.8595 C   0  0  0  0  0  0  0  0  0  0  0  0
  -15.6104    6.8053    5.2141 C   0  0  0  0  0  0  0  0  0  0  0  0
  -16.6105    6.5781    6.1840 N   0  0  0  0  0  0  0  0  0  0  0  0
  -17.1120    5.8959    6.6862 H   0  0  0  0  0  0  0  0  0  0  0  0
  -16.6434    5.1532    1.3443 C   0  0  0  0  0  0  0  0  0  0  0  0
  -17.4803    6.0464    2.1738 N   0  0  0  0  0  0  0  0  0  0  0  0
  -18.5693    6.8717    1.6058 C   0  0  0  0  0  0  0  0  0  0  0  0
  -18.7052   11.4614    9.6600 C   0  0  0  0  0  0  0  0  0  0  0  0
  -19.6378   12.2058    8.7885 O   0  0  0  0  0  0  0  0  0  0  0  0
  -19.6319   11.7072    7.4578 C   0  0  0  0  0  0  0  0  0  0  0  0
  -18.5134   11.2081    6.8444 C   0  0  0  0  0  0  0  0  0  0  0  0
  -18.6564   10.7081    5.5568 C   0  0  0  0  0  0  0  0  0  0  0  0
  -20.8721   11.6841    6.8723 C   0  0  0  0  0  0  0  0  0  0  0  0
  -21.0216   11.1675    5.5447 C   0  0  0  0  0  0  0  0  0  0  0  0
  -19.9030   10.6716    4.9182 C   0  0  0  0  0  0  0  0  0  0  0  0
  -19.9526   10.0937    3.5434 C   0  0  0  0  0  0  0  0  0  0  0  0
  -20.0930   11.2422    2.6345 N   0  0  0  0  0  0  0  0  0  0  0  0
  -21.3426   11.7291    2.2177 C   0  0  0  0  0  0  0  0  0  0  0  0
  -21.5000   12.7337    1.3178 C   0  0  0  0  0  0  0  0  0  0  0  0
  -20.4106   13.3576    0.6690 C   0  0  0  0  0  0  0  0  0  0  0  0
  -19.1620   12.9157    1.1479 C   0  0  0  0  0  0  0  0  0  0  0  0
  -19.0294   11.9346    2.0365 C   0  0  0  0  0  0  0  0  0  0  0  0
  -20.1375   12.0649    2.0956 H   0  0  0  0  0  0  0  0  0  0  0  0
  -20.5196   14.3083   -0.2584 N   0  0  0  0  0  0  0  0  0  0  0  0
  -19.4307   15.0927   -0.7230 C   0  0  0  0  0  0  0  0  0  0  0  0
  -21.8173   14.5166   -0.9820 C   0  0  0  0  0  0  0  0  0  0  0  0
 17 18  1  0  0  0
 18 19  1  0  0  0
 18 10  1  0  0  0
 10 11  2  0  0  0
 10 13  1  0  0  0
 11 12  1  0  0  0
 12 15  2  0  0  0
 13 14  2  0  0  0
 14 15  1  0  0  0
 15  9  1  0  0  0
  9  3  1  0  0  0
  3  4  1  0  0  0
  3  6  2  0  0  0
  4  5  2  0  0  0
  5  8  1  0  0  0
  6  7  1  0  0  0
  7  8  2  0  0  0
  8  2  1  0  0  0
  2  1  1  0  0  0
  1 20  1  0  0  0
 20 21  1  0  0  0
 21 22  1  0  0  0
 22 23  1  0  0  0
 22 25  2  0  0  0
 23 24  2  0  0  0
 24 27  1  0  0  0
 25 26  1  0  0  0
 26 27  2  0  0  0
 27 28  1  0  0  0
 28 29  1  0  0  0
 29 30  1  0  0  0
 29 34  2  0  0  0
 30 31  2  0  0  0
 31 32  1  0  0  0
 32 36  1  0  0  0
 32 33  2  0  0  0
 36 37  1  0  0  0
 36 38  1  0  0  0
 33 34  1  0  0  0
 15 16  1  0  0  0
 29 35  1  0  0  0
M  END
> <minimizedAffinity>
-8.34903

$$$$
5FTG_NBR_A_1458


 38 41  0  0  0  0  0  0  0  0999 V2000
  -18.1939    6.8789    0.8935 C   0  0  0  0  0  0  0  0  0  0  0  0
  -18.2853    8.1191    1.5488 O   0  0  0  0  0  0  0  0  0  0  0  0
  -15.1369   10.8919    0.9982 C   0  0  0  0  0  0  0  0  0  0  0  0
  -15.6639   10.6488    2.2556 C   0  0  0  0  0  0  0  0  0  0  0  0
  -16.6891    9.7025    2.4268 C   0  0  0  0  0  0  0  0  0  0  0  0
  -15.6362   10.2237   -0.0976 C   0  0  0  0  0  0  0  0  0  0  0  0
  -16.6825    9.3048    0.0623 C   0  0  0  0  0  0  0  0  0  0  0  0
  -17.2082    9.0361    1.3314 C   0  0  0  0  0  0  0  0  0  0  0  0
  -14.0436   11.7737    0.7922 C   0  0  0  0  0  0  0  0  0  0  0  0
  -10.0503   10.3665    1.1094 C   0  0  0  0  0  0  0  0  0  0  0  0
  -10.8782   10.4278    2.2415 C   0  0  0  0  0  0  0  0  0  0  0  0
  -12.1915   10.8852    2.1398 C   0  0  0  0  0  0  0  0  0  0  0  0
  -10.5327   10.7799   -0.1382 C   0  0  0  0  0  0  0  0  0  0  0  0
  -11.8493   11.2270   -0.2554 C   0  0  0  0  0  0  0  0  0  0  0  0
  -12.6889   11.2542    0.8789 N   0  0  0  0  0  0  0  0  0  0  0  0
  -12.9188   11.7373    1.7054 H   0  0  0  0  0  0  0  0  0  0  0  0
   -7.8331   10.0449    0.1143 C   0  0  0  0  0  0  0  0  0  0  0  0
   -8.7749    9.9647    1.2513 N   0  0  0  0  0  0  0  0  0  0  0  0
   -8.4222    9.3150    2.5332 C   0  0  0  0  0  0  0  0  0  0  0  0
  -17.1510    6.0559    1.6654 C   0  0  0  0  0  0  0  0  0  0  0  0
  -17.8574    5.3829    2.7750 O   0  0  0  0  0  0  0  0  0  0  0  0
  -17.4561    5.8866    4.0417 C   0  0  0  0  0  0  0  0  0  0  0  0
  -18.1905    5.7215    5.1861 C   0  0  0  0  0  0  0  0  0  0  0  0
  -17.6599    6.2227    6.3674 C   0  0  0  0  0  0  0  0  0  0  0  0
  -16.2169    6.4747    4.0336 C   0  0  0  0  0  0  0  0  0  0  0  0
  -15.6675    6.9910    5.2516 C   0  0  0  0  0  0  0  0  0  0  0  0
  -16.4011    6.8368    6.4038 C   0  0  0  0  0  0  0  0  0  0  0  0
  -15.9123    7.3211    7.7278 C   0  0  0  0  0  0  0  0  0  0  0  0
  -16.8086    8.4263    8.1022 N   0  0  0  0  0  0  0  0  0  0  0  0
  -17.3590    9.3076    7.1575 C   0  0  0  0  0  0  0  0  0  0  0  0
  -18.1223   10.3827    7.4820 C   0  0  0  0  0  0  0  0  0  0  0  0
  -18.3965   10.7511    8.8184 C   0  0  0  0  0  0  0  0  0  0  0  0
  -17.9047    9.8210    9.7548 C   0  0  0  0  0  0  0  0  0  0  0  0
  -17.1648    8.7689    9.4153 C   0  0  0  0  0  0  0  0  0  0  0  0
  -17.4700    9.0957    8.3914 H   0  0  0  0  0  0  0  0  0  0  0  0
  -19.0941   11.8260    9.1842 N   0  0  0  0  0  0  0  0  0  0  0  0
  -20.5081   11.9228    9.0949 C   0  0  0  0  0  0  0  0  0  0  0  0
  -18.4115   12.9800    9.8575 C   0  0  0  0  0  0  0  0  0  0  0  0
 17 18  1  0  0  0
 18 19  1  0  0  0
 18 10  1  0  0  0
 10 11  2  0  0  0
 10 13  1  0  0  0
 11 12  1  0  0  0
 12 15  2  0  0  0
 13 14  2  0  0  0
 14 15  1  0  0  0
 15  9  1  0  0  0
  9  3  1  0  0  0
  3  4  1  0  0  0
  3  6  2  0  0  0
  4  5  2  0  0  0
  5  8  1  0  0  0
  6  7  1  0  0  0
  7  8  2  0  0  0
  8  2  1  0  0  0
  2  1  1  0  0  0
  1 20  1  0  0  0
 20 21  1  0  0  0
 21 22  1  0  0  0
 22 23  1  0  0  0
 22 25  2  0  0  0
 23 24  2  0  0  0
 24 27  1  0  0  0
 25 26  1  0  0  0
 26 27  2  0  0  0
 27 28  1  0  0  0
 28 29  1  0  0  0
 29 30  1  0  0  0
 29 34  2  0  0  0
 30 31  2  0  0  0
 31 32  1  0  0  0
 32 36  1  0  0  0
 32 33  2  0  0  0
 36 37  1  0  0  0
 36 38  1  0  0  0
 33 34  1  0  0  0
 15 16  1  0  0  0
 29 35  1  0  0  0
M  END
> <minimizedAffinity>
-8.30674

$$$$
