1GAR_U89_A_213


 59 60  0  0  0  0  0  0  0  0999 V2000
   48.1644   11.6749  -10.6844 C   0  0  0  0  0  0  0  0  0  0  0  0
   47.4262   12.0342  -11.6185 O   0  0  0  0  0  0  0  0  0  0  0  0
   48.9362   12.6055  -10.0436 N   0  0  0  0  0  0  0  0  0  0  0  0
   49.0035   12.7062   -8.6870 C   0  0  0  0  0  0  0  0  0  0  0  0
   50.1870   12.7181   -8.0409 C   0  0  0  0  0  0  0  0  0  0  0  0
   50.2407   12.8119   -6.6974 C   0  0  0  0  0  0  0  0  0  0  0  0
   49.1122   12.8932   -5.9808 C   0  0  0  0  0  0  0  0  0  0  0  0
   47.9294   12.8960   -6.6097 C   0  0  0  0  0  0  0  0  0  0  0  0
   47.8705   12.8024   -7.9574 C   0  0  0  0  0  0  0  0  0  0  0  0
   50.1471   12.0519   -4.1311 N   0  0  0  0  0  0  0  0  0  0  0  0
   49.1821   12.8709   -4.5892 C   0  0  0  0  0  0  0  0  0  0  0  0
   48.4095   13.5542   -3.8923 O   0  0  0  0  0  0  0  0  0  0  0  0
   50.6901   11.5739   -4.7988 H   0  0  0  0  0  0  0  0  0  0  0  0
   50.4550   11.8143   -2.7147 C   0  0  0  0  0  0  0  0  0  0  0  0
   50.6930   13.0278   -1.7785 C   0  0  0  0  0  0  0  0  0  0  0  0
   51.7635   13.6340   -1.9077 O   0  0  0  0  0  0  0  0  0  0  0  0
   49.8403   13.4237   -0.9599 O   0  0  0  0  0  0  0  0  0  0  0  0
   52.4012   13.3323   -2.5244 H   0  0  0  0  0  0  0  0  0  0  0  0
   51.6330   10.8329   -2.7003 C   0  0  0  0  0  0  0  0  0  0  0  0
   52.3758   11.1409   -3.9682 C   0  0  0  0  0  0  0  0  0  0  0  0
   52.4142   10.0055   -4.9446 C   0  0  0  0  0  0  0  0  0  0  0  0
   51.3726    9.7496   -5.5371 O   0  0  0  0  0  0  0  0  0  0  0  0
   53.4534    9.3508   -5.0775 O   0  0  0  0  0  0  0  0  0  0  0  0
   50.6126   10.2800   -5.3989 H   0  0  0  0  0  0  0  0  0  0  0  0
   49.2174   13.9132  -10.6650 C   0  0  0  0  0  0  0  0  0  0  0  0
   48.3154   15.0446  -10.1406 C   0  0  0  0  0  0  0  0  0  0  0  0
   48.0997   16.3284  -10.9606 C   0  0  0  0  0  0  0  0  0  0  0  0
   46.6506   16.7056  -11.2783 C   0  0  0  0  0  0  0  0  0  0  0  0
   45.9597   16.0587  -12.3108 C   0  0  0  0  0  0  0  0  0  0  0  0
   46.4194   15.1889  -13.0564 O   0  0  0  0  0  0  0  0  0  0  0  0
   44.6416   16.4842  -12.4638 N   0  0  0  0  0  0  0  0  0  0  0  0
   44.0687   17.4473  -11.6622 C   0  0  0  0  0  0  0  0  0  0  0  0
   42.8017   17.7850  -11.8665 N   0  0  0  0  0  0  0  0  0  0  0  0
   44.7785   18.0442  -10.7075 N   0  0  0  0  0  0  0  0  0  0  0  0
   46.0612   17.6907  -10.5520 C   0  0  0  0  0  0  0  0  0  0  0  0
   46.7441   18.3250   -9.6102 N   0  0  0  0  0  0  0  0  0  0  0  0
   44.0959   16.0788  -13.1759 H   0  0  0  0  0  0  0  0  0  0  0  0
   42.2816   17.3400  -12.5742 H   0  0  0  0  0  0  0  0  0  0  0  0
   42.3818   18.4805  -11.3105 H   0  0  0  0  0  0  0  0  0  0  0  0
   47.6906   18.1033   -9.4546 H   0  0  0  0  0  0  0  0  0  0  0  0
   46.3049   19.0181   -9.0660 H   0  0  0  0  0  0  0  0  0  0  0  0
   48.0337   10.2089  -10.2076 C   0  0  0  0  0  0  0  0  0  0  0  0
   46.4806    9.5800   -9.5231 S   0  0  0  0  0  0  0  0  0  0  0  0
   47.0322    9.1841   -7.8582 C   0  0  0  0  0  0  0  0  0  0  0  0
   46.0589    6.9990   -8.4198 N   0  0  0  0  0  0  0  0  0  0  0  0
   46.4687    7.8299   -7.4552 C   0  0  0  0  0  0  0  0  0  0  0  0
   46.3830    7.5340   -6.2598 O   0  0  0  0  0  0  0  0  0  0  0  0
   46.0896    7.2980   -9.3573 H   0  0  0  0  0  0  0  0  0  0  0  0
   45.5693    5.6644   -8.1155 C   0  0  0  0  0  0  0  0  0  0  0  0
   44.6367    5.1414   -9.1946 C   0  0  0  0  0  0  0  0  0  0  0  0
   45.3397    4.1259  -10.0597 C   0  0  0  0  0  0  0  0  0  0  0  0
   45.9915    3.0257   -9.2080 C   0  0  0  0  0  0  0  0  0  0  0  0
   45.1546    1.8713   -9.0683 O   0  0  0  0  0  0  0  0  0  0  0  0
   44.5454    1.4831   -7.6436 P   0  0  0  0  0  0  0  0  0  0  0  0
   43.1596    2.2925   -7.5817 O   0  0  0  0  0  0  0  0  0  0  0  0
   45.4506    1.9722   -6.5798 O   0  0  0  0  0  0  0  0  0  0  0  0
   44.2128    0.0457   -7.6339 O   0  0  0  0  0  0  0  0  0  0  0  0
   45.5939    2.9252   -6.6902 H   0  0  0  0  0  0  0  0  0  0  0  0
   43.6171   -0.1533   -8.3732 H   0  0  0  0  0  0  0  0  0  0  0  0
 10 14  1  0  0  0
 10 11  1  0  0  0
 14 19  1  0  0  0
 14 15  1  0  0  0
 19 20  1  0  0  0
 20 21  1  0  0  0
 21 22  1  0  0  0
 21 23  2  0  0  0
 15 16  1  0  0  0
 15 17  2  0  0  0
 52 51  1  0  0  0
 52 53  1  0  0  0
 51 50  1  0  0  0
 50 49  1  0  0  0
 49 45  1  0  0  0
 45 46  1  0  0  0
 46 47  2  0  0  0
 46 44  1  0  0  0
 44 43  1  0  0  0
 43 42  1  0  0  0
 42  1  1  0  0  0
  1  2  2  0  0  0
  1  3  1  0  0  0
  3 25  1  0  0  0
  3  4  1  0  0  0
 25 26  1  0  0  0
 26 27  1  0  0  0
 27 28  1  0  0  0
 28 29  1  0  0  0
 28 35  2  0  0  0
 29 30  2  0  0  0
 29 31  1  0  0  0
 31 32  1  0  0  0
 32 33  1  0  0  0
 32 34  2  0  0  0
 34 35  1  0  0  0
 35 36  1  0  0  0
  4  5  2  0  0  0
  4  9  1  0  0  0
  5  6  1  0  0  0
  6  7  2  0  0  0
  7  8  1  0  0  0
  7 11  1  0  0  0
  8  9  2  0  0  0
 11 12  2  0  0  0
 53 54  1  0  0  0
 54 55  2  0  0  0
 54 56  1  0  0  0
 54 57  1  0  0  0
 10 13  1  0  0  0
 22 24  1  0  0  0
 16 18  1  0  0  0
 45 48  1  0  0  0
 31 37  1  0  0  0
 33 38  1  0  0  0
 33 39  1  0  0  0
 36 40  1  0  0  0
 36 41  1  0  0  0
 56 58  1  0  0  0
 57 59  1  0  0  0
M  END
> <minimizedAffinity>
-8.49797

$$$$
1GAR_U89_A_213


 59 60  0  0  0  0  0  0  0  0999 V2000
   48.1088    9.9903   -8.5467 C   0  0  0  0  0  0  0  0  0  0  0  0
   49.2826   10.3592   -8.7274 O   0  0  0  0  0  0  0  0  0  0  0  0
   47.3278    9.6851   -9.6280 N   0  0  0  0  0  0  0  0  0  0  0  0
   46.5819    8.5482   -9.7071 C   0  0  0  0  0  0  0  0  0  0  0  0
   45.6594    8.2463   -8.7711 C   0  0  0  0  0  0  0  0  0  0  0  0
   44.9316    7.1151   -8.8568 C   0  0  0  0  0  0  0  0  0  0  0  0
   45.1170    6.2689   -9.8782 C   0  0  0  0  0  0  0  0  0  0  0  0
   46.0205    6.5621  -10.8228 C   0  0  0  0  0  0  0  0  0  0  0  0
   46.7529    7.6959  -10.7412 C   0  0  0  0  0  0  0  0  0  0  0  0
   44.2855    4.5327   -8.6558 N   0  0  0  0  0  0  0  0  0  0  0  0
   44.4413    5.0503   -9.8885 C   0  0  0  0  0  0  0  0  0  0  0  0
   44.0468    4.5391  -10.9527 O   0  0  0  0  0  0  0  0  0  0  0  0
   44.6449    5.0496   -7.8989 H   0  0  0  0  0  0  0  0  0  0  0  0
   43.6223    3.2585   -8.3493 C   0  0  0  0  0  0  0  0  0  0  0  0
   42.0799    3.1582   -8.4794 C   0  0  0  0  0  0  0  0  0  0  0  0
   41.4385    4.2100   -8.3693 O   0  0  0  0  0  0  0  0  0  0  0  0
   41.4942    2.0872   -8.7322 O   0  0  0  0  0  0  0  0  0  0  0  0
   41.8835    5.0124   -8.1792 H   0  0  0  0  0  0  0  0  0  0  0  0
   44.1123    2.8555   -6.9534 C   0  0  0  0  0  0  0  0  0  0  0  0
   44.8602    1.5750   -7.1883 C   0  0  0  0  0  0  0  0  0  0  0  0
   43.9822    0.3663   -7.2979 C   0  0  0  0  0  0  0  0  0  0  0  0
   43.3308    0.0636   -6.3051 O   0  0  0  0  0  0  0  0  0  0  0  0
   43.9841   -0.2959   -8.3409 O   0  0  0  0  0  0  0  0  0  0  0  0
   43.3661    0.6025   -5.5394 H   0  0  0  0  0  0  0  0  0  0  0  0
   47.6919   10.1493  -10.9798 C   0  0  0  0  0  0  0  0  0  0  0  0
   46.8060   11.3002  -11.4888 C   0  0  0  0  0  0  0  0  0  0  0  0
   47.2908   12.2344  -12.6111 C   0  0  0  0  0  0  0  0  0  0  0  0
   46.7989   13.6829  -12.5600 C   0  0  0  0  0  0  0  0  0  0  0  0
   45.6063   14.0496  -13.1964 C   0  0  0  0  0  0  0  0  0  0  0  0
   44.8778   13.3027  -13.8561 O   0  0  0  0  0  0  0  0  0  0  0  0
   45.2699   15.3927  -13.0390 N   0  0  0  0  0  0  0  0  0  0  0  0
   46.0381   16.2759  -12.3123 C   0  0  0  0  0  0  0  0  0  0  0  0
   45.6381   17.5364  -12.2005 N   0  0  0  0  0  0  0  0  0  0  0  0
   47.1740   15.8777  -11.7443 N   0  0  0  0  0  0  0  0  0  0  0  0
   47.5528   14.6026  -11.9033 C   0  0  0  0  0  0  0  0  0  0  0  0
   48.7022   14.2488  -11.3469 N   0  0  0  0  0  0  0  0  0  0  0  0
   44.4473   15.7250  -13.4658 H   0  0  0  0  0  0  0  0  0  0  0  0
   44.7970   17.8252  -12.6227 H   0  0  0  0  0  0  0  0  0  0  0  0
   46.1825   18.1826  -11.6952 H   0  0  0  0  0  0  0  0  0  0  0  0
   49.0268   13.3234  -11.4337 H   0  0  0  0  0  0  0  0  0  0  0  0
   49.2315   14.9113  -10.8467 H   0  0  0  0  0  0  0  0  0  0  0  0
   47.6636    9.7494   -7.0847 C   0  0  0  0  0  0  0  0  0  0  0  0
   46.8623   11.0553   -6.1210 S   0  0  0  0  0  0  0  0  0  0  0  0
   47.6596   12.4915   -6.8521 C   0  0  0  0  0  0  0  0  0  0  0  0
   50.1054   12.4158   -6.6305 N   0  0  0  0  0  0  0  0  0  0  0  0
   48.9413   12.7920   -6.0901 C   0  0  0  0  0  0  0  0  0  0  0  0
   48.8831   13.3530   -4.9921 O   0  0  0  0  0  0  0  0  0  0  0  0
   50.1029   11.9178   -7.4798 H   0  0  0  0  0  0  0  0  0  0  0  0
   51.3744   12.7254   -5.9923 C   0  0  0  0  0  0  0  0  0  0  0  0
   52.1459   11.4700   -5.6224 C   0  0  0  0  0  0  0  0  0  0  0  0
   51.7319   10.9724   -4.2606 C   0  0  0  0  0  0  0  0  0  0  0  0
   51.8899   12.0688   -3.1960 C   0  0  0  0  0  0  0  0  0  0  0  0
   51.4508   11.6433   -1.9003 O   0  0  0  0  0  0  0  0  0  0  0  0
   49.9794   11.9976   -1.3896 P   0  0  0  0  0  0  0  0  0  0  0  0
   50.0400   13.5761   -1.0994 O   0  0  0  0  0  0  0  0  0  0  0  0
   49.7173   11.2733   -0.1259 O   0  0  0  0  0  0  0  0  0  0  0  0
   49.0209   11.7925   -2.4924 O   0  0  0  0  0  0  0  0  0  0  0  0
   50.4101   11.4867    0.5187 H   0  0  0  0  0  0  0  0  0  0  0  0
   49.2965   12.3152   -3.2617 H   0  0  0  0  0  0  0  0  0  0  0  0
 10 14  1  0  0  0
 10 11  1  0  0  0
 14 19  1  0  0  0
 14 15  1  0  0  0
 19 20  1  0  0  0
 20 21  1  0  0  0
 21 22  1  0  0  0
 21 23  2  0  0  0
 15 16  1  0  0  0
 15 17  2  0  0  0
 52 51  1  0  0  0
 52 53  1  0  0  0
 51 50  1  0  0  0
 50 49  1  0  0  0
 49 45  1  0  0  0
 45 46  1  0  0  0
 46 47  2  0  0  0
 46 44  1  0  0  0
 44 43  1  0  0  0
 43 42  1  0  0  0
 42  1  1  0  0  0
  1  2  2  0  0  0
  1  3  1  0  0  0
  3 25  1  0  0  0
  3  4  1  0  0  0
 25 26  1  0  0  0
 26 27  1  0  0  0
 27 28  1  0  0  0
 28 29  1  0  0  0
 28 35  2  0  0  0
 29 30  2  0  0  0
 29 31  1  0  0  0
 31 32  1  0  0  0
 32 33  1  0  0  0
 32 34  2  0  0  0
 34 35  1  0  0  0
 35 36  1  0  0  0
  4  5  2  0  0  0
  4  9  1  0  0  0
  5  6  1  0  0  0
  6  7  2  0  0  0
  7  8  1  0  0  0
  7 11  1  0  0  0
  8  9  2  0  0  0
 11 12  2  0  0  0
 53 54  1  0  0  0
 54 55  2  0  0  0
 54 56  1  0  0  0
 54 57  1  0  0  0
 10 13  1  0  0  0
 22 24  1  0  0  0
 16 18  1  0  0  0
 45 48  1  0  0  0
 31 37  1  0  0  0
 33 38  1  0  0  0
 33 39  1  0  0  0
 36 40  1  0  0  0
 36 41  1  0  0  0
 56 58  1  0  0  0
 57 59  1  0  0  0
M  END
> <minimizedAffinity>
-8.42466

$$$$
1GAR_U89_A_213


 59 60  0  0  0  0  0  0  0  0999 V2000
   44.9829    5.9610   -9.3281 C   0  0  0  0  0  0  0  0  0  0  0  0
   43.8278    6.3722   -9.1200 O   0  0  0  0  0  0  0  0  0  0  0  0
   45.1857    4.6321   -9.5835 N   0  0  0  0  0  0  0  0  0  0  0  0
   45.9483    4.1838  -10.6192 C   0  0  0  0  0  0  0  0  0  0  0  0
   47.1606    3.6311  -10.4117 C   0  0  0  0  0  0  0  0  0  0  0  0
   47.9088    3.1967  -11.4452 C   0  0  0  0  0  0  0  0  0  0  0  0
   47.4567    3.3104  -12.7007 C   0  0  0  0  0  0  0  0  0  0  0  0
   46.2484    3.8453  -12.9214 C   0  0  0  0  0  0  0  0  0  0  0  0
   45.4940    4.2822  -11.8876 C   0  0  0  0  0  0  0  0  0  0  0  0
   49.1827    2.0124  -13.4329 N   0  0  0  0  0  0  0  0  0  0  0  0
   48.2906    2.9650  -13.7623 C   0  0  0  0  0  0  0  0  0  0  0  0
   48.1798    3.5114  -14.8753 O   0  0  0  0  0  0  0  0  0  0  0  0
   49.1540    1.6640  -12.5126 H   0  0  0  0  0  0  0  0  0  0  0  0
   50.1956    1.4512  -14.3365 C   0  0  0  0  0  0  0  0  0  0  0  0
   49.7475    0.5028  -15.4791 C   0  0  0  0  0  0  0  0  0  0  0  0
   48.5459    0.5074  -15.7727 O   0  0  0  0  0  0  0  0  0  0  0  0
   50.5494   -0.2043  -16.1201 O   0  0  0  0  0  0  0  0  0  0  0  0
   47.9472    1.0407  -15.2878 H   0  0  0  0  0  0  0  0  0  0  0  0
   51.2539    0.8078  -13.4326 C   0  0  0  0  0  0  0  0  0  0  0  0
   50.4597    0.2464  -12.2887 C   0  0  0  0  0  0  0  0  0  0  0  0
   50.9694   -1.0662  -11.7776 C   0  0  0  0  0  0  0  0  0  0  0  0
   52.0138   -1.4821  -12.2651 O   0  0  0  0  0  0  0  0  0  0  0  0
   50.3098   -1.6921  -10.9412 O   0  0  0  0  0  0  0  0  0  0  0  0
   52.4745   -0.9654  -12.8966 H   0  0  0  0  0  0  0  0  0  0  0  0
   44.1620    3.6294   -9.2347 C   0  0  0  0  0  0  0  0  0  0  0  0
   44.0246    3.3994   -7.7192 C   0  0  0  0  0  0  0  0  0  0  0  0
   42.8739    2.5520   -7.1490 C   0  0  0  0  0  0  0  0  0  0  0  0
   42.5967    1.2151   -7.8409 C   0  0  0  0  0  0  0  0  0  0  0  0
   41.3964    1.0106   -8.5332 C   0  0  0  0  0  0  0  0  0  0  0  0
   40.4700    1.8204   -8.6322 O   0  0  0  0  0  0  0  0  0  0  0  0
   41.2970   -0.2412   -9.1372 N   0  0  0  0  0  0  0  0  0  0  0  0
   42.2965   -1.1870   -9.0672 C   0  0  0  0  0  0  0  0  0  0  0  0
   42.1269   -2.3501   -9.6832 N   0  0  0  0  0  0  0  0  0  0  0  0
   43.4096   -0.9467   -8.3780 N   0  0  0  0  0  0  0  0  0  0  0  0
   43.5287    0.2310   -7.7508 C   0  0  0  0  0  0  0  0  0  0  0  0
   44.6380    0.4244   -7.0523 N   0  0  0  0  0  0  0  0  0  0  0  0
   40.4766   -0.4594   -9.6358 H   0  0  0  0  0  0  0  0  0  0  0  0
   41.3015   -2.5221  -10.1916 H   0  0  0  0  0  0  0  0  0  0  0  0
   42.8264   -3.0410   -9.6319 H   0  0  0  0  0  0  0  0  0  0  0  0
   44.7757    1.2728   -6.5722 H   0  0  0  0  0  0  0  0  0  0  0  0
   45.3244   -0.2802   -7.0135 H   0  0  0  0  0  0  0  0  0  0  0  0
   46.0998    7.0257   -9.4400 C   0  0  0  0  0  0  0  0  0  0  0  0
   46.1750    8.4296   -8.3002 S   0  0  0  0  0  0  0  0  0  0  0  0
   46.9127    9.6543   -9.3907 C   0  0  0  0  0  0  0  0  0  0  0  0
   47.4147   11.3548   -7.6896 N   0  0  0  0  0  0  0  0  0  0  0  0
   47.8977   10.4994   -8.5972 C   0  0  0  0  0  0  0  0  0  0  0  0
   49.1081   10.3956   -8.8163 O   0  0  0  0  0  0  0  0  0  0  0  0
   46.4400   11.4493   -7.5884 H   0  0  0  0  0  0  0  0  0  0  0  0
   48.2964   12.1481   -6.8489 C   0  0  0  0  0  0  0  0  0  0  0  0
   47.5493   12.8004   -5.6981 C   0  0  0  0  0  0  0  0  0  0  0  0
   48.4725   13.0365   -4.5295 C   0  0  0  0  0  0  0  0  0  0  0  0
   48.8976   11.7107   -3.8798 C   0  0  0  0  0  0  0  0  0  0  0  0
   48.7920   11.7406   -2.4513 O   0  0  0  0  0  0  0  0  0  0  0  0
   50.0590   12.1204   -1.5556 P   0  0  0  0  0  0  0  0  0  0  0  0
   51.2913   12.0617   -2.5840 O   0  0  0  0  0  0  0  0  0  0  0  0
   50.2397   11.0893   -0.5095 O   0  0  0  0  0  0  0  0  0  0  0  0
   49.9321   13.5196   -1.1049 O   0  0  0  0  0  0  0  0  0  0  0  0
   50.3104   10.2158   -0.9253 H   0  0  0  0  0  0  0  0  0  0  0  0
   49.8191   14.0984   -1.8750 H   0  0  0  0  0  0  0  0  0  0  0  0
 10 14  1  0  0  0
 10 11  1  0  0  0
 14 19  1  0  0  0
 14 15  1  0  0  0
 19 20  1  0  0  0
 20 21  1  0  0  0
 21 22  1  0  0  0
 21 23  2  0  0  0
 15 16  1  0  0  0
 15 17  2  0  0  0
 52 51  1  0  0  0
 52 53  1  0  0  0
 51 50  1  0  0  0
 50 49  1  0  0  0
 49 45  1  0  0  0
 45 46  1  0  0  0
 46 47  2  0  0  0
 46 44  1  0  0  0
 44 43  1  0  0  0
 43 42  1  0  0  0
 42  1  1  0  0  0
  1  2  2  0  0  0
  1  3  1  0  0  0
  3 25  1  0  0  0
  3  4  1  0  0  0
 25 26  1  0  0  0
 26 27  1  0  0  0
 27 28  1  0  0  0
 28 29  1  0  0  0
 28 35  2  0  0  0
 29 30  2  0  0  0
 29 31  1  0  0  0
 31 32  1  0  0  0
 32 33  1  0  0  0
 32 34  2  0  0  0
 34 35  1  0  0  0
 35 36  1  0  0  0
  4  5  2  0  0  0
  4  9  1  0  0  0
  5  6  1  0  0  0
  6  7  2  0  0  0
  7  8  1  0  0  0
  7 11  1  0  0  0
  8  9  2  0  0  0
 11 12  2  0  0  0
 53 54  1  0  0  0
 54 55  2  0  0  0
 54 56  1  0  0  0
 54 57  1  0  0  0
 10 13  1  0  0  0
 22 24  1  0  0  0
 16 18  1  0  0  0
 45 48  1  0  0  0
 31 37  1  0  0  0
 33 38  1  0  0  0
 33 39  1  0  0  0
 36 40  1  0  0  0
 36 41  1  0  0  0
 56 58  1  0  0  0
 57 59  1  0  0  0
M  END
> <minimizedAffinity>
-8.30193

$$$$
1GAR_U89_A_213


 59 60  0  0  0  0  0  0  0  0999 V2000
   47.2930   10.8546  -10.3363 C   0  0  0  0  0  0  0  0  0  0  0  0
   46.5678   11.2538  -11.2644 O   0  0  0  0  0  0  0  0  0  0  0  0
   48.2470   11.6909   -9.8235 N   0  0  0  0  0  0  0  0  0  0  0  0
   48.4147   11.8938   -8.4872 C   0  0  0  0  0  0  0  0  0  0  0  0
   47.8431   12.9405   -7.8580 C   0  0  0  0  0  0  0  0  0  0  0  0
   48.0214   13.1344   -6.5361 C   0  0  0  0  0  0  0  0  0  0  0  0
   48.7751   12.2859   -5.8251 C   0  0  0  0  0  0  0  0  0  0  0  0
   49.3385   11.2339   -6.4339 C   0  0  0  0  0  0  0  0  0  0  0  0
   49.1622   11.0352   -7.7598 C   0  0  0  0  0  0  0  0  0  0  0  0
   50.0393   11.8093   -3.9880 N   0  0  0  0  0  0  0  0  0  0  0  0
   49.0445   12.5664   -4.4870 C   0  0  0  0  0  0  0  0  0  0  0  0
   48.4025   13.4338   -3.8666 O   0  0  0  0  0  0  0  0  0  0  0  0
   50.4649   11.1626   -4.5963 H   0  0  0  0  0  0  0  0  0  0  0  0
   50.5408   11.8706   -2.6088 C   0  0  0  0  0  0  0  0  0  0  0  0
   50.6186   13.2442   -1.8927 C   0  0  0  0  0  0  0  0  0  0  0  0
   49.8436   13.4277   -0.9463 O   0  0  0  0  0  0  0  0  0  0  0  0
   51.4483   14.1203   -2.2058 O   0  0  0  0  0  0  0  0  0  0  0  0
   49.2217   12.7661   -0.7150 H   0  0  0  0  0  0  0  0  0  0  0  0
   51.8930   11.1476   -2.6215 C   0  0  0  0  0  0  0  0  0  0  0  0
   52.4749   11.4924   -3.9620 C   0  0  0  0  0  0  0  0  0  0  0  0
   52.7756   10.3028   -4.8213 C   0  0  0  0  0  0  0  0  0  0  0  0
   52.4293    9.2085   -4.3924 O   0  0  0  0  0  0  0  0  0  0  0  0
   53.3919   10.4566   -5.8810 O   0  0  0  0  0  0  0  0  0  0  0  0
   51.9632    9.1492   -3.5817 H   0  0  0  0  0  0  0  0  0  0  0  0
   48.7017   12.8736  -10.5784 C   0  0  0  0  0  0  0  0  0  0  0  0
   50.2115   12.8637  -10.8765 C   0  0  0  0  0  0  0  0  0  0  0  0
   51.1154   14.0222  -10.4203 C   0  0  0  0  0  0  0  0  0  0  0  0
   51.2347   14.2473   -8.9110 C   0  0  0  0  0  0  0  0  0  0  0  0
   52.0019   13.3798   -8.1232 C   0  0  0  0  0  0  0  0  0  0  0  0
   52.6053   12.3801   -8.5235 O   0  0  0  0  0  0  0  0  0  0  0  0
   52.0432   13.7266   -6.7742 N   0  0  0  0  0  0  0  0  0  0  0  0
   51.3952   14.8312   -6.2658 C   0  0  0  0  0  0  0  0  0  0  0  0
   51.4974   15.0980   -4.9698 N   0  0  0  0  0  0  0  0  0  0  0  0
   50.6625   15.6110   -7.0574 N   0  0  0  0  0  0  0  0  0  0  0  0
   50.5662   15.2909   -8.3546 C   0  0  0  0  0  0  0  0  0  0  0  0
   49.8068   16.0740   -9.1067 N   0  0  0  0  0  0  0  0  0  0  0  0
   52.5578   13.1575   -6.1574 H   0  0  0  0  0  0  0  0  0  0  0  0
   52.0408   14.5176   -4.3891 H   0  0  0  0  0  0  0  0  0  0  0  0
   51.0299   15.8762   -4.5890 H   0  0  0  0  0  0  0  0  0  0  0  0
   49.7020   15.8832  -10.0668 H   0  0  0  0  0  0  0  0  0  0  0  0
   49.3474   16.8467   -8.7054 H   0  0  0  0  0  0  0  0  0  0  0  0
   46.9511    9.4785   -9.7175 C   0  0  0  0  0  0  0  0  0  0  0  0
   45.7915    9.3336   -8.3353 S   0  0  0  0  0  0  0  0  0  0  0  0
   46.5604    7.9717   -7.4482 C   0  0  0  0  0  0  0  0  0  0  0  0
   46.9546    5.9335   -8.7626 N   0  0  0  0  0  0  0  0  0  0  0  0
   46.0862    6.6560   -8.0466 C   0  0  0  0  0  0  0  0  0  0  0  0
   44.9183    6.2934   -7.8790 O   0  0  0  0  0  0  0  0  0  0  0  0
   47.8591    6.2880   -8.9219 H   0  0  0  0  0  0  0  0  0  0  0  0
   46.5932    4.6365   -9.3109 C   0  0  0  0  0  0  0  0  0  0  0  0
   46.1087    4.7415  -10.7469 C   0  0  0  0  0  0  0  0  0  0  0  0
   44.6505    4.3710  -10.8455 C   0  0  0  0  0  0  0  0  0  0  0  0
   44.2279    3.4610   -9.6820 C   0  0  0  0  0  0  0  0  0  0  0  0
   42.8255    3.5450   -9.4007 O   0  0  0  0  0  0  0  0  0  0  0  0
   42.1641    2.5940   -8.3008 P   0  0  0  0  0  0  0  0  0  0  0  0
   43.3892    2.2066   -7.3371 O   0  0  0  0  0  0  0  0  0  0  0  0
   41.6505    1.3732   -8.9610 O   0  0  0  0  0  0  0  0  0  0  0  0
   41.2060    3.3763   -7.4965 O   0  0  0  0  0  0  0  0  0  0  0  0
   42.3676    0.9476   -9.4566 H   0  0  0  0  0  0  0  0  0  0  0  0
   41.6561    4.1471   -7.1169 H   0  0  0  0  0  0  0  0  0  0  0  0
 10 14  1  0  0  0
 10 11  1  0  0  0
 14 19  1  0  0  0
 14 15  1  0  0  0
 19 20  1  0  0  0
 20 21  1  0  0  0
 21 22  1  0  0  0
 21 23  2  0  0  0
 15 16  1  0  0  0
 15 17  2  0  0  0
 52 51  1  0  0  0
 52 53  1  0  0  0
 51 50  1  0  0  0
 50 49  1  0  0  0
 49 45  1  0  0  0
 45 46  1  0  0  0
 46 47  2  0  0  0
 46 44  1  0  0  0
 44 43  1  0  0  0
 43 42  1  0  0  0
 42  1  1  0  0  0
  1  2  2  0  0  0
  1  3  1  0  0  0
  3 25  1  0  0  0
  3  4  1  0  0  0
 25 26  1  0  0  0
 26 27  1  0  0  0
 27 28  1  0  0  0
 28 29  1  0  0  0
 28 35  2  0  0  0
 29 30  2  0  0  0
 29 31  1  0  0  0
 31 32  1  0  0  0
 32 33  1  0  0  0
 32 34  2  0  0  0
 34 35  1  0  0  0
 35 36  1  0  0  0
  4  5  2  0  0  0
  4  9  1  0  0  0
  5  6  1  0  0  0
  6  7  2  0  0  0
  7  8  1  0  0  0
  7 11  1  0  0  0
  8  9  2  0  0  0
 11 12  2  0  0  0
 53 54  1  0  0  0
 54 55  2  0  0  0
 54 56  1  0  0  0
 54 57  1  0  0  0
 10 13  1  0  0  0
 22 24  1  0  0  0
 16 18  1  0  0  0
 45 48  1  0  0  0
 31 37  1  0  0  0
 33 38  1  0  0  0
 33 39  1  0  0  0
 36 40  1  0  0  0
 36 41  1  0  0  0
 56 58  1  0  0  0
 57 59  1  0  0  0
M  END
> <minimizedAffinity>
-8.29039

$$$$
1GAR_U89_A_213


 59 60  0  0  0  0  0  0  0  0999 V2000
   44.7541    5.8705   -9.2109 C   0  0  0  0  0  0  0  0  0  0  0  0
   43.7063    6.5007   -9.4382 O   0  0  0  0  0  0  0  0  0  0  0  0
   44.8312    4.5496   -9.5595 N   0  0  0  0  0  0  0  0  0  0  0  0
   45.8852    4.0231  -10.2428 C   0  0  0  0  0  0  0  0  0  0  0  0
   46.2208    4.4694  -11.4701 C   0  0  0  0  0  0  0  0  0  0  0  0
   47.2623    3.9362  -12.1391 C   0  0  0  0  0  0  0  0  0  0  0  0
   47.9817    2.9481  -11.5916 C   0  0  0  0  0  0  0  0  0  0  0  0
   47.6685    2.5034  -10.3674 C   0  0  0  0  0  0  0  0  0  0  0  0
   46.6246    3.0356   -9.6922 C   0  0  0  0  0  0  0  0  0  0  0  0
   49.5834    1.3273  -11.6794 N   0  0  0  0  0  0  0  0  0  0  0  0
   48.9788    2.3299  -12.3435 C   0  0  0  0  0  0  0  0  0  0  0  0
   49.2422    2.7055  -13.5007 O   0  0  0  0  0  0  0  0  0  0  0  0
   49.2688    1.1343  -10.7667 H   0  0  0  0  0  0  0  0  0  0  0  0
   50.6748    0.4981  -12.2073 C   0  0  0  0  0  0  0  0  0  0  0  0
   50.5739   -1.0456  -12.0955 C   0  0  0  0  0  0  0  0  0  0  0  0
   50.3815   -1.5145  -10.9672 O   0  0  0  0  0  0  0  0  0  0  0  0
   50.6314   -1.7974  -13.0882 O   0  0  0  0  0  0  0  0  0  0  0  0
   50.3391   -0.9452  -10.2242 H   0  0  0  0  0  0  0  0  0  0  0  0
   51.9599    1.0412  -11.5710 C   0  0  0  0  0  0  0  0  0  0  0  0
   52.8420    1.3512  -12.7458 C   0  0  0  0  0  0  0  0  0  0  0  0
   54.3001    1.1192  -12.4926 C   0  0  0  0  0  0  0  0  0  0  0  0
   54.6005    0.0995  -11.8831 O   0  0  0  0  0  0  0  0  0  0  0  0
   55.1236    1.9669  -12.8524 O   0  0  0  0  0  0  0  0  0  0  0  0
   53.9346   -0.5108  -11.6340 H   0  0  0  0  0  0  0  0  0  0  0  0
   43.6112    3.7636   -9.8224 C   0  0  0  0  0  0  0  0  0  0  0  0
   42.6501    3.7089   -8.6216 C   0  0  0  0  0  0  0  0  0  0  0  0
   42.7277    2.5627   -7.5982 C   0  0  0  0  0  0  0  0  0  0  0  0
   42.5036    1.1465   -8.1341 C   0  0  0  0  0  0  0  0  0  0  0  0
   41.2676    0.7841   -8.6843 C   0  0  0  0  0  0  0  0  0  0  0  0
   40.2708    1.5076   -8.7664 O   0  0  0  0  0  0  0  0  0  0  0  0
   41.2206   -0.5255   -9.1582 N   0  0  0  0  0  0  0  0  0  0  0  0
   42.2989   -1.3813   -9.0995 C   0  0  0  0  0  0  0  0  0  0  0  0
   42.1737   -2.6094   -9.5866 N   0  0  0  0  0  0  0  0  0  0  0  0
   43.4450   -0.9903   -8.5471 N   0  0  0  0  0  0  0  0  0  0  0  0
   43.5199    0.2496   -8.0453 C   0  0  0  0  0  0  0  0  0  0  0  0
   44.6670    0.5948   -7.4791 N   0  0  0  0  0  0  0  0  0  0  0  0
   40.3802   -0.8536   -9.5522 H   0  0  0  0  0  0  0  0  0  0  0  0
   41.3235   -2.8930   -9.9940 H   0  0  0  0  0  0  0  0  0  0  0  0
   42.9309   -3.2368   -9.5405 H   0  0  0  0  0  0  0  0  0  0  0  0
   44.7750    1.4946   -7.0946 H   0  0  0  0  0  0  0  0  0  0  0  0
   45.4114   -0.0486   -7.4429 H   0  0  0  0  0  0  0  0  0  0  0  0
   45.9635    6.6809   -8.6873 C   0  0  0  0  0  0  0  0  0  0  0  0
   45.8680    8.4756   -8.4728 S   0  0  0  0  0  0  0  0  0  0  0  0
   47.1989    8.7009   -7.2849 C   0  0  0  0  0  0  0  0  0  0  0  0
   47.9913   10.9602   -6.7330 N   0  0  0  0  0  0  0  0  0  0  0  0
   47.9658    9.9684   -7.6299 C   0  0  0  0  0  0  0  0  0  0  0  0
   48.5272   10.0649   -8.7250 O   0  0  0  0  0  0  0  0  0  0  0  0
   47.4806   10.8657   -5.8966 H   0  0  0  0  0  0  0  0  0  0  0  0
   48.7560   12.1747   -6.9651 C   0  0  0  0  0  0  0  0  0  0  0  0
   50.2407   11.9672   -6.7189 C   0  0  0  0  0  0  0  0  0  0  0  0
   50.5068   11.7053   -5.2580 C   0  0  0  0  0  0  0  0  0  0  0  0
   50.0764   12.8988   -4.3915 C   0  0  0  0  0  0  0  0  0  0  0  0
   49.4885   12.4921   -3.1498 O   0  0  0  0  0  0  0  0  0  0  0  0
   50.3837   12.3765   -1.8319 P   0  0  0  0  0  0  0  0  0  0  0  0
   49.8679   13.5838   -0.9067 O   0  0  0  0  0  0  0  0  0  0  0  0
   51.8026   12.5996   -2.1886 O   0  0  0  0  0  0  0  0  0  0  0  0
   50.0567   11.1193   -1.1324 O   0  0  0  0  0  0  0  0  0  0  0  0
   51.8920   13.4531   -2.6408 H   0  0  0  0  0  0  0  0  0  0  0  0
   49.1039   11.0874   -0.9532 H   0  0  0  0  0  0  0  0  0  0  0  0
 10 14  1  0  0  0
 10 11  1  0  0  0
 14 19  1  0  0  0
 14 15  1  0  0  0
 19 20  1  0  0  0
 20 21  1  0  0  0
 21 22  1  0  0  0
 21 23  2  0  0  0
 15 16  1  0  0  0
 15 17  2  0  0  0
 52 51  1  0  0  0
 52 53  1  0  0  0
 51 50  1  0  0  0
 50 49  1  0  0  0
 49 45  1  0  0  0
 45 46  1  0  0  0
 46 47  2  0  0  0
 46 44  1  0  0  0
 44 43  1  0  0  0
 43 42  1  0  0  0
 42  1  1  0  0  0
  1  2  2  0  0  0
  1  3  1  0  0  0
  3 25  1  0  0  0
  3  4  1  0  0  0
 25 26  1  0  0  0
 26 27  1  0  0  0
 27 28  1  0  0  0
 28 29  1  0  0  0
 28 35  2  0  0  0
 29 30  2  0  0  0
 29 31  1  0  0  0
 31 32  1  0  0  0
 32 33  1  0  0  0
 32 34  2  0  0  0
 34 35  1  0  0  0
 35 36  1  0  0  0
  4  5  2  0  0  0
  4  9  1  0  0  0
  5  6  1  0  0  0
  6  7  2  0  0  0
  7  8  1  0  0  0
  7 11  1  0  0  0
  8  9  2  0  0  0
 11 12  2  0  0  0
 53 54  1  0  0  0
 54 55  2  0  0  0
 54 56  1  0  0  0
 54 57  1  0  0  0
 10 13  1  0  0  0
 22 24  1  0  0  0
 16 18  1  0  0  0
 45 48  1  0  0  0
 31 37  1  0  0  0
 33 38  1  0  0  0
 33 39  1  0  0  0
 36 40  1  0  0  0
 36 41  1  0  0  0
 56 58  1  0  0  0
 57 59  1  0  0  0
M  END
> <minimizedAffinity>
-8.26745

$$$$
1GAR_U89_A_213


 59 60  0  0  0  0  0  0  0  0999 V2000
   46.9595    8.9931   -9.8548 C   0  0  0  0  0  0  0  0  0  0  0  0
   47.4707    8.0868  -10.5359 O   0  0  0  0  0  0  0  0  0  0  0  0
   46.8298    8.8243   -8.5032 N   0  0  0  0  0  0  0  0  0  0  0  0
   47.2066    9.7698   -7.5980 C   0  0  0  0  0  0  0  0  0  0  0  0
   48.4762   10.2199   -7.5390 C   0  0  0  0  0  0  0  0  0  0  0  0
   48.8385   11.1515   -6.6347 C   0  0  0  0  0  0  0  0  0  0  0  0
   47.9373   11.6446   -5.7755 C   0  0  0  0  0  0  0  0  0  0  0  0
   46.6690   11.2167   -5.8310 C   0  0  0  0  0  0  0  0  0  0  0  0
   46.3008   10.2825   -6.7368 C   0  0  0  0  0  0  0  0  0  0  0  0
   49.6175   12.2829   -4.3721 N   0  0  0  0  0  0  0  0  0  0  0  0
   48.3541   12.5178   -4.7728 C   0  0  0  0  0  0  0  0  0  0  0  0
   47.5978   13.4020   -4.3304 O   0  0  0  0  0  0  0  0  0  0  0  0
   50.1040   11.5503   -4.8146 H   0  0  0  0  0  0  0  0  0  0  0  0
   50.3283   13.0321   -3.3277 C   0  0  0  0  0  0  0  0  0  0  0  0
   50.2163   14.5788   -3.2972 C   0  0  0  0  0  0  0  0  0  0  0  0
   49.3184   15.0621   -2.5971 O   0  0  0  0  0  0  0  0  0  0  0  0
   51.0126   15.3231   -3.9021 O   0  0  0  0  0  0  0  0  0  0  0  0
   48.7224   14.4983   -2.1445 H   0  0  0  0  0  0  0  0  0  0  0  0
   51.7855   12.5589   -3.3900 C   0  0  0  0  0  0  0  0  0  0  0  0
   51.6763   11.0864   -3.6625 C   0  0  0  0  0  0  0  0  0  0  0  0
   51.7865   10.2292   -2.4391 C   0  0  0  0  0  0  0  0  0  0  0  0
   51.8690    9.0196   -2.6165 O   0  0  0  0  0  0  0  0  0  0  0  0
   51.7399   10.7534   -1.3214 O   0  0  0  0  0  0  0  0  0  0  0  0
   51.9010    8.6748   -3.4872 H   0  0  0  0  0  0  0  0  0  0  0  0
   46.9055    7.4818   -7.8973 C   0  0  0  0  0  0  0  0  0  0  0  0
   45.6938    6.5931   -8.2297 C   0  0  0  0  0  0  0  0  0  0  0  0
   45.8791    5.1155   -8.6164 C   0  0  0  0  0  0  0  0  0  0  0  0
   44.6623    4.2027   -8.4457 C   0  0  0  0  0  0  0  0  0  0  0  0
   44.4871    3.4681   -7.2662 C   0  0  0  0  0  0  0  0  0  0  0  0
   45.2594    3.4482   -6.3034 O   0  0  0  0  0  0  0  0  0  0  0  0
   43.3205    2.7063   -7.2412 N   0  0  0  0  0  0  0  0  0  0  0  0
   42.4166    2.6882   -8.2810 C   0  0  0  0  0  0  0  0  0  0  0  0
   41.3226    1.9452   -8.1704 N   0  0  0  0  0  0  0  0  0  0  0  0
   42.6435    3.3910   -9.3883 N   0  0  0  0  0  0  0  0  0  0  0  0
   43.7726    4.1076   -9.4678 C   0  0  0  0  0  0  0  0  0  0  0  0
   43.9778    4.7728  -10.5952 N   0  0  0  0  0  0  0  0  0  0  0  0
   43.1340    2.1570   -6.4458 H   0  0  0  0  0  0  0  0  0  0  0  0
   41.1601    1.4275   -7.3489 H   0  0  0  0  0  0  0  0  0  0  0  0
   40.6735    1.9118   -8.9098 H   0  0  0  0  0  0  0  0  0  0  0  0
   44.7921    5.3151  -10.7056 H   0  0  0  0  0  0  0  0  0  0  0  0
   43.3161    4.7248  -11.3226 H   0  0  0  0  0  0  0  0  0  0  0  0
   46.6488   10.3260  -10.5762 C   0  0  0  0  0  0  0  0  0  0  0  0
   47.0685   10.5689  -12.3200 S   0  0  0  0  0  0  0  0  0  0  0  0
   46.3467   12.1964  -12.5721 C   0  0  0  0  0  0  0  0  0  0  0  0
   45.1772   11.2340  -14.5068 N   0  0  0  0  0  0  0  0  0  0  0  0
   45.8159   12.2915  -13.9944 C   0  0  0  0  0  0  0  0  0  0  0  0
   45.9989   13.3224  -14.6481 O   0  0  0  0  0  0  0  0  0  0  0  0
   45.1053   10.4101  -13.9725 H   0  0  0  0  0  0  0  0  0  0  0  0
   44.5867   11.2734  -15.8347 C   0  0  0  0  0  0  0  0  0  0  0  0
   43.2625   10.5309  -15.8901 C   0  0  0  0  0  0  0  0  0  0  0  0
   42.1094   11.4836  -15.6988 C   0  0  0  0  0  0  0  0  0  0  0  0
   40.8066   10.9014  -16.2681 C   0  0  0  0  0  0  0  0  0  0  0  0
   39.6896   11.0954  -15.3921 O   0  0  0  0  0  0  0  0  0  0  0  0
   39.0230    9.8505  -14.6455 P   0  0  0  0  0  0  0  0  0  0  0  0
   38.6671    8.8314  -15.8348 O   0  0  0  0  0  0  0  0  0  0  0  0
   37.7749   10.2930  -13.9847 O   0  0  0  0  0  0  0  0  0  0  0  0
   40.0363    9.1948  -13.7968 O   0  0  0  0  0  0  0  0  0  0  0  0
   37.1912   10.7063  -14.6399 H   0  0  0  0  0  0  0  0  0  0  0  0
   40.8035    8.9518  -14.3384 H   0  0  0  0  0  0  0  0  0  0  0  0
 10 14  1  0  0  0
 10 11  1  0  0  0
 14 19  1  0  0  0
 14 15  1  0  0  0
 19 20  1  0  0  0
 20 21  1  0  0  0
 21 22  1  0  0  0
 21 23  2  0  0  0
 15 16  1  0  0  0
 15 17  2  0  0  0
 52 51  1  0  0  0
 52 53  1  0  0  0
 51 50  1  0  0  0
 50 49  1  0  0  0
 49 45  1  0  0  0
 45 46  1  0  0  0
 46 47  2  0  0  0
 46 44  1  0  0  0
 44 43  1  0  0  0
 43 42  1  0  0  0
 42  1  1  0  0  0
  1  2  2  0  0  0
  1  3  1  0  0  0
  3 25  1  0  0  0
  3  4  1  0  0  0
 25 26  1  0  0  0
 26 27  1  0  0  0
 27 28  1  0  0  0
 28 29  1  0  0  0
 28 35  2  0  0  0
 29 30  2  0  0  0
 29 31  1  0  0  0
 31 32  1  0  0  0
 32 33  1  0  0  0
 32 34  2  0  0  0
 34 35  1  0  0  0
 35 36  1  0  0  0
  4  5  2  0  0  0
  4  9  1  0  0  0
  5  6  1  0  0  0
  6  7  2  0  0  0
  7  8  1  0  0  0
  7 11  1  0  0  0
  8  9  2  0  0  0
 11 12  2  0  0  0
 53 54  1  0  0  0
 54 55  2  0  0  0
 54 56  1  0  0  0
 54 57  1  0  0  0
 10 13  1  0  0  0
 22 24  1  0  0  0
 16 18  1  0  0  0
 45 48  1  0  0  0
 31 37  1  0  0  0
 33 38  1  0  0  0
 33 39  1  0  0  0
 36 40  1  0  0  0
 36 41  1  0  0  0
 56 58  1  0  0  0
 57 59  1  0  0  0
M  END
> <minimizedAffinity>
-8.21988

$$$$
1GAR_U89_A_213


 59 60  0  0  0  0  0  0  0  0999 V2000
   46.7140    9.6872  -10.4088 C   0  0  0  0  0  0  0  0  0  0  0  0
   46.7272    8.6521  -11.0980 O   0  0  0  0  0  0  0  0  0  0  0  0
   46.2922    9.6218   -9.1087 N   0  0  0  0  0  0  0  0  0  0  0  0
   46.9825   10.1803   -8.0759 C   0  0  0  0  0  0  0  0  0  0  0  0
   46.3468   10.7472   -7.0306 C   0  0  0  0  0  0  0  0  0  0  0  0
   47.0409   11.3023   -6.0173 C   0  0  0  0  0  0  0  0  0  0  0  0
   48.3800   11.3003   -6.0356 C   0  0  0  0  0  0  0  0  0  0  0  0
   49.0255   10.7290   -7.0611 C   0  0  0  0  0  0  0  0  0  0  0  0
   48.3334   10.1705   -8.0798 C   0  0  0  0  0  0  0  0  0  0  0  0
   50.3838   11.6520   -5.0055 N   0  0  0  0  0  0  0  0  0  0  0  0
   49.0790   11.9807   -5.0405 C   0  0  0  0  0  0  0  0  0  0  0  0
   48.5082   12.7943   -4.2909 O   0  0  0  0  0  0  0  0  0  0  0  0
   50.7028   10.9941   -5.6646 H   0  0  0  0  0  0  0  0  0  0  0  0
   51.3697   12.1963   -4.0625 C   0  0  0  0  0  0  0  0  0  0  0  0
   52.7228   12.7259   -4.6050 C   0  0  0  0  0  0  0  0  0  0  0  0
   52.6764   13.6751   -5.3968 O   0  0  0  0  0  0  0  0  0  0  0  0
   53.8216   12.2657   -4.2377 O   0  0  0  0  0  0  0  0  0  0  0  0
   51.8480   14.0174   -5.6698 H   0  0  0  0  0  0  0  0  0  0  0  0
   51.5593   11.1207   -2.9863 C   0  0  0  0  0  0  0  0  0  0  0  0
   51.4413   11.8768   -1.6945 C   0  0  0  0  0  0  0  0  0  0  0  0
   50.0532   12.3489   -1.3880 C   0  0  0  0  0  0  0  0  0  0  0  0
   49.1447   11.5446   -1.5589 O   0  0  0  0  0  0  0  0  0  0  0  0
   49.8718   13.5179   -1.0318 O   0  0  0  0  0  0  0  0  0  0  0  0
   49.3390   10.6690   -1.8299 H   0  0  0  0  0  0  0  0  0  0  0  0
   45.4958    8.4772   -8.6280 C   0  0  0  0  0  0  0  0  0  0  0  0
   46.3496    7.3587   -8.0048 C   0  0  0  0  0  0  0  0  0  0  0  0
   46.4850    5.9899   -8.6941 C   0  0  0  0  0  0  0  0  0  0  0  0
   45.2265    5.1205   -8.7489 C   0  0  0  0  0  0  0  0  0  0  0  0
   44.3905    5.1533   -9.8722 C   0  0  0  0  0  0  0  0  0  0  0  0
   44.5445    5.8643  -10.8695 O   0  0  0  0  0  0  0  0  0  0  0  0
   43.3013    4.2878   -9.7933 N   0  0  0  0  0  0  0  0  0  0  0  0
   43.0757    3.4662   -8.7104 C   0  0  0  0  0  0  0  0  0  0  0  0
   42.0208    2.6611   -8.7215 N   0  0  0  0  0  0  0  0  0  0  0  0
   43.8925    3.4904   -7.6598 N   0  0  0  0  0  0  0  0  0  0  0  0
   44.9312    4.3362   -7.6798 C   0  0  0  0  0  0  0  0  0  0  0  0
   45.7071    4.3524   -6.6058 N   0  0  0  0  0  0  0  0  0  0  0  0
   42.6650    4.2621  -10.5441 H   0  0  0  0  0  0  0  0  0  0  0  0
   41.4201    2.6475   -9.5014 H   0  0  0  0  0  0  0  0  0  0  0  0
   41.8389    2.0774   -7.9498 H   0  0  0  0  0  0  0  0  0  0  0  0
   46.4841    4.9558   -6.5689 H   0  0  0  0  0  0  0  0  0  0  0  0
   45.5065    3.7610   -5.8447 H   0  0  0  0  0  0  0  0  0  0  0  0
   47.3337   10.9586  -11.0358 C   0  0  0  0  0  0  0  0  0  0  0  0
   46.5001   11.8459  -12.3751 S   0  0  0  0  0  0  0  0  0  0  0  0
   47.8910   12.7905  -13.0123 C   0  0  0  0  0  0  0  0  0  0  0  0
   47.5911   15.1009  -12.2318 N   0  0  0  0  0  0  0  0  0  0  0  0
   47.4545   14.2301  -13.2377 C   0  0  0  0  0  0  0  0  0  0  0  0
   46.9705   14.5597  -14.3244 O   0  0  0  0  0  0  0  0  0  0  0  0
   47.9261   14.7830  -11.3624 H   0  0  0  0  0  0  0  0  0  0  0  0
   47.2560   16.5064  -12.3931 C   0  0  0  0  0  0  0  0  0  0  0  0
   46.0795   16.9137  -11.5226 C   0  0  0  0  0  0  0  0  0  0  0  0
   46.3956   18.1724  -10.7549 C   0  0  0  0  0  0  0  0  0  0  0  0
   47.1990   17.8611   -9.4829 C   0  0  0  0  0  0  0  0  0  0  0  0
   46.8685   16.5842   -8.9235 O   0  0  0  0  0  0  0  0  0  0  0  0
   48.0147   15.6374   -8.3392 P   0  0  0  0  0  0  0  0  0  0  0  0
   48.4377   14.7243   -9.5910 O   0  0  0  0  0  0  0  0  0  0  0  0
   47.4418   14.7822   -7.2759 O   0  0  0  0  0  0  0  0  0  0  0  0
   49.1868   16.4590   -7.9817 O   0  0  0  0  0  0  0  0  0  0  0  0
   46.6817   14.2935   -7.6284 H   0  0  0  0  0  0  0  0  0  0  0  0
   49.4698   16.9722   -8.7546 H   0  0  0  0  0  0  0  0  0  0  0  0
 10 14  1  0  0  0
 10 11  1  0  0  0
 14 19  1  0  0  0
 14 15  1  0  0  0
 19 20  1  0  0  0
 20 21  1  0  0  0
 21 22  1  0  0  0
 21 23  2  0  0  0
 15 16  1  0  0  0
 15 17  2  0  0  0
 52 51  1  0  0  0
 52 53  1  0  0  0
 51 50  1  0  0  0
 50 49  1  0  0  0
 49 45  1  0  0  0
 45 46  1  0  0  0
 46 47  2  0  0  0
 46 44  1  0  0  0
 44 43  1  0  0  0
 43 42  1  0  0  0
 42  1  1  0  0  0
  1  2  2  0  0  0
  1  3  1  0  0  0
  3 25  1  0  0  0
  3  4  1  0  0  0
 25 26  1  0  0  0
 26 27  1  0  0  0
 27 28  1  0  0  0
 28 29  1  0  0  0
 28 35  2  0  0  0
 29 30  2  0  0  0
 29 31  1  0  0  0
 31 32  1  0  0  0
 32 33  1  0  0  0
 32 34  2  0  0  0
 34 35  1  0  0  0
 35 36  1  0  0  0
  4  5  2  0  0  0
  4  9  1  0  0  0
  5  6  1  0  0  0
  6  7  2  0  0  0
  7  8  1  0  0  0
  7 11  1  0  0  0
  8  9  2  0  0  0
 11 12  2  0  0  0
 53 54  1  0  0  0
 54 55  2  0  0  0
 54 56  1  0  0  0
 54 57  1  0  0  0
 10 13  1  0  0  0
 22 24  1  0  0  0
 16 18  1  0  0  0
 45 48  1  0  0  0
 31 37  1  0  0  0
 33 38  1  0  0  0
 33 39  1  0  0  0
 36 40  1  0  0  0
 36 41  1  0  0  0
 56 58  1  0  0  0
 57 59  1  0  0  0
M  END
> <minimizedAffinity>
-8.18372

$$$$
1GAR_U89_A_213


 59 60  0  0  0  0  0  0  0  0999 V2000
   48.6392   13.4612  -10.1692 C   0  0  0  0  0  0  0  0  0  0  0  0
   47.8237   13.7054  -11.0758 O   0  0  0  0  0  0  0  0  0  0  0  0
   48.6454   14.2412   -9.0449 N   0  0  0  0  0  0  0  0  0  0  0  0
   48.6602   13.7254   -7.7844 C   0  0  0  0  0  0  0  0  0  0  0  0
   49.7905   13.6970   -7.0497 C   0  0  0  0  0  0  0  0  0  0  0  0
   49.7940   13.1784   -5.8057 C   0  0  0  0  0  0  0  0  0  0  0  0
   48.6683   12.6791   -5.2793 C   0  0  0  0  0  0  0  0  0  0  0  0
   47.5346   12.7124   -5.9923 C   0  0  0  0  0  0  0  0  0  0  0  0
   47.5261   13.2321   -7.2407 C   0  0  0  0  0  0  0  0  0  0  0  0
   49.9698   11.9220   -3.5667 N   0  0  0  0  0  0  0  0  0  0  0  0
   48.7158   12.0417   -4.0411 C   0  0  0  0  0  0  0  0  0  0  0  0
   47.6789   11.6443   -3.4786 O   0  0  0  0  0  0  0  0  0  0  0  0
   50.6991   12.2880   -4.1175 H   0  0  0  0  0  0  0  0  0  0  0  0
   50.3373   11.2892   -2.2931 C   0  0  0  0  0  0  0  0  0  0  0  0
   49.9963   12.0115   -0.9636 C   0  0  0  0  0  0  0  0  0  0  0  0
   49.7417   11.2968    0.0134 O   0  0  0  0  0  0  0  0  0  0  0  0
   50.0192   13.2524   -0.8469 O   0  0  0  0  0  0  0  0  0  0  0  0
   49.7257   10.3646   -0.0796 H   0  0  0  0  0  0  0  0  0  0  0  0
   51.8301   10.9575   -2.4048 C   0  0  0  0  0  0  0  0  0  0  0  0
   52.1696   11.2927   -3.8284 C   0  0  0  0  0  0  0  0  0  0  0  0
   52.0825   10.1288   -4.7672 C   0  0  0  0  0  0  0  0  0  0  0  0
   52.6393    9.0942   -4.4192 O   0  0  0  0  0  0  0  0  0  0  0  0
   51.5112   10.2640   -5.8543 O   0  0  0  0  0  0  0  0  0  0  0  0
   53.0579    9.0461   -3.5823 H   0  0  0  0  0  0  0  0  0  0  0  0
   48.0077   15.5710   -9.0427 C   0  0  0  0  0  0  0  0  0  0  0  0
   48.9108   16.6819   -9.6073 C   0  0  0  0  0  0  0  0  0  0  0  0
   48.4498   17.5511  -10.7901 C   0  0  0  0  0  0  0  0  0  0  0  0
   47.3907   16.9469  -11.7153 C   0  0  0  0  0  0  0  0  0  0  0  0
   47.7697   16.1331  -12.7905 C   0  0  0  0  0  0  0  0  0  0  0  0
   48.9275   15.8532  -13.1145 O   0  0  0  0  0  0  0  0  0  0  0  0
   46.6980   15.6302  -13.5257 N   0  0  0  0  0  0  0  0  0  0  0  0
   45.3838   15.9019  -13.2135 C   0  0  0  0  0  0  0  0  0  0  0  0
   44.4220   15.3710  -13.9579 N   0  0  0  0  0  0  0  0  0  0  0  0
   45.0810   16.6989  -12.1914 N   0  0  0  0  0  0  0  0  0  0  0  0
   46.0836   17.2335  -11.4817 C   0  0  0  0  0  0  0  0  0  0  0  0
   45.7451   18.0431  -10.4889 N   0  0  0  0  0  0  0  0  0  0  0  0
   46.8883   15.0556  -14.3021 H   0  0  0  0  0  0  0  0  0  0  0  0
   44.6521   14.7822  -14.7127 H   0  0  0  0  0  0  0  0  0  0  0  0
   43.4785   15.5659  -13.7555 H   0  0  0  0  0  0  0  0  0  0  0  0
   46.4434   18.4625   -9.9359 H   0  0  0  0  0  0  0  0  0  0  0  0
   44.7954   18.2252  -10.3042 H   0  0  0  0  0  0  0  0  0  0  0  0
   49.4910   12.1780  -10.3152 C   0  0  0  0  0  0  0  0  0  0  0  0
   49.5126   11.2373  -11.8614 S   0  0  0  0  0  0  0  0  0  0  0  0
   48.9582    9.6425  -11.2430 C   0  0  0  0  0  0  0  0  0  0  0  0
   47.6809    9.4249   -9.1553 N   0  0  0  0  0  0  0  0  0  0  0  0
   47.6892    9.8379  -10.4274 C   0  0  0  0  0  0  0  0  0  0  0  0
   46.6966   10.3498  -10.9532 O   0  0  0  0  0  0  0  0  0  0  0  0
   48.4739    8.9676   -8.7928 H   0  0  0  0  0  0  0  0  0  0  0  0
   46.5276    9.6359   -8.2957 C   0  0  0  0  0  0  0  0  0  0  0  0
   46.7753    9.1411   -6.8808 C   0  0  0  0  0  0  0  0  0  0  0  0
   46.7096    7.6358   -6.8238 C   0  0  0  0  0  0  0  0  0  0  0  0
   45.5684    7.0953   -7.6990 C   0  0  0  0  0  0  0  0  0  0  0  0
   45.9553    5.9412   -8.4546 O   0  0  0  0  0  0  0  0  0  0  0  0
   45.3141    4.5137   -8.1340 P   0  0  0  0  0  0  0  0  0  0  0  0
   43.7734    4.6779   -8.5570 O   0  0  0  0  0  0  0  0  0  0  0  0
   45.4018    4.2587   -6.6789 O   0  0  0  0  0  0  0  0  0  0  0  0
   45.9080    3.5032   -9.0301 O   0  0  0  0  0  0  0  0  0  0  0  0
   44.9798    4.9870   -6.1969 H   0  0  0  0  0  0  0  0  0  0  0  0
   45.7890    3.7790   -9.9524 H   0  0  0  0  0  0  0  0  0  0  0  0
 10 14  1  0  0  0
 10 11  1  0  0  0
 14 19  1  0  0  0
 14 15  1  0  0  0
 19 20  1  0  0  0
 20 21  1  0  0  0
 21 22  1  0  0  0
 21 23  2  0  0  0
 15 16  1  0  0  0
 15 17  2  0  0  0
 52 51  1  0  0  0
 52 53  1  0  0  0
 51 50  1  0  0  0
 50 49  1  0  0  0
 49 45  1  0  0  0
 45 46  1  0  0  0
 46 47  2  0  0  0
 46 44  1  0  0  0
 44 43  1  0  0  0
 43 42  1  0  0  0
 42  1  1  0  0  0
  1  2  2  0  0  0
  1  3  1  0  0  0
  3 25  1  0  0  0
  3  4  1  0  0  0
 25 26  1  0  0  0
 26 27  1  0  0  0
 27 28  1  0  0  0
 28 29  1  0  0  0
 28 35  2  0  0  0
 29 30  2  0  0  0
 29 31  1  0  0  0
 31 32  1  0  0  0
 32 33  1  0  0  0
 32 34  2  0  0  0
 34 35  1  0  0  0
 35 36  1  0  0  0
  4  5  2  0  0  0
  4  9  1  0  0  0
  5  6  1  0  0  0
  6  7  2  0  0  0
  7  8  1  0  0  0
  7 11  1  0  0  0
  8  9  2  0  0  0
 11 12  2  0  0  0
 53 54  1  0  0  0
 54 55  2  0  0  0
 54 56  1  0  0  0
 54 57  1  0  0  0
 10 13  1  0  0  0
 22 24  1  0  0  0
 16 18  1  0  0  0
 45 48  1  0  0  0
 31 37  1  0  0  0
 33 38  1  0  0  0
 33 39  1  0  0  0
 36 40  1  0  0  0
 36 41  1  0  0  0
 56 58  1  0  0  0
 57 59  1  0  0  0
M  END
> <minimizedAffinity>
-8.18280

$$$$
1GAR_U89_A_213


 59 60  0  0  0  0  0  0  0  0999 V2000
   47.6529   12.0507   -7.2369 C   0  0  0  0  0  0  0  0  0  0  0  0
   47.2670   13.2158   -7.0358 O   0  0  0  0  0  0  0  0  0  0  0  0
   47.1775   11.0409   -6.4453 N   0  0  0  0  0  0  0  0  0  0  0  0
   46.6974    9.8690   -6.9466 C   0  0  0  0  0  0  0  0  0  0  0  0
   46.0339    9.8256   -8.1196 C   0  0  0  0  0  0  0  0  0  0  0  0
   45.5581    8.6606   -8.6024 C   0  0  0  0  0  0  0  0  0  0  0  0
   45.7370    7.5231   -7.9186 C   0  0  0  0  0  0  0  0  0  0  0  0
   46.4059    7.5486   -6.7582 C   0  0  0  0  0  0  0  0  0  0  0  0
   46.8855    8.7149   -6.2700 C   0  0  0  0  0  0  0  0  0  0  0  0
   45.8249    5.2468   -8.0226 N   0  0  0  0  0  0  0  0  0  0  0  0
   45.1379    6.3500   -8.3731 C   0  0  0  0  0  0  0  0  0  0  0  0
   44.0808    6.3767   -9.0299 O   0  0  0  0  0  0  0  0  0  0  0  0
   46.6467    5.3736   -7.4955 H   0  0  0  0  0  0  0  0  0  0  0  0
   45.4469    3.8691   -8.3637 C   0  0  0  0  0  0  0  0  0  0  0  0
   44.8612    3.5713   -9.7687 C   0  0  0  0  0  0  0  0  0  0  0  0
   43.6318    3.4639   -9.8522 O   0  0  0  0  0  0  0  0  0  0  0  0
   45.5712    3.4885  -10.7900 O   0  0  0  0  0  0  0  0  0  0  0  0
   43.1026    3.5269   -9.0816 H   0  0  0  0  0  0  0  0  0  0  0  0
   44.5183    3.3979   -7.2382 C   0  0  0  0  0  0  0  0  0  0  0  0
   45.0290    2.0277   -6.8977 C   0  0  0  0  0  0  0  0  0  0  0  0
   44.1318    0.9136   -7.3424 C   0  0  0  0  0  0  0  0  0  0  0  0
   43.4686    0.3573   -6.4751 O   0  0  0  0  0  0  0  0  0  0  0  0
   44.1299    0.5693   -8.5289 O   0  0  0  0  0  0  0  0  0  0  0  0
   43.5076    0.6600   -5.5892 H   0  0  0  0  0  0  0  0  0  0  0  0
   46.5501   11.3317   -5.1426 C   0  0  0  0  0  0  0  0  0  0  0  0
   47.4754   12.0915   -4.1757 C   0  0  0  0  0  0  0  0  0  0  0  0
   48.9563   11.7015   -4.0278 C   0  0  0  0  0  0  0  0  0  0  0  0
   49.9027   12.7836   -3.5021 C   0  0  0  0  0  0  0  0  0  0  0  0
   50.3667   13.7942   -4.3535 C   0  0  0  0  0  0  0  0  0  0  0  0
   50.1087   13.9041   -5.5557 O   0  0  0  0  0  0  0  0  0  0  0  0
   51.1949   14.7250   -3.7293 N   0  0  0  0  0  0  0  0  0  0  0  0
   51.5175   14.6604   -2.3913 C   0  0  0  0  0  0  0  0  0  0  0  0
   52.3025   15.5961   -1.8723 N   0  0  0  0  0  0  0  0  0  0  0  0
   51.0641   13.6656   -1.6323 N   0  0  0  0  0  0  0  0  0  0  0  0
   50.2950   12.7287   -2.2027 C   0  0  0  0  0  0  0  0  0  0  0  0
   49.8844   11.7392   -1.4229 N   0  0  0  0  0  0  0  0  0  0  0  0
   51.5657   15.4610   -4.2679 H   0  0  0  0  0  0  0  0  0  0  0  0
   52.6349   16.3296   -2.4386 H   0  0  0  0  0  0  0  0  0  0  0  0
   52.5524   15.5568   -0.9208 H   0  0  0  0  0  0  0  0  0  0  0  0
   49.3168   11.0245   -1.7922 H   0  0  0  0  0  0  0  0  0  0  0  0
   50.1468   11.7187   -0.4743 H   0  0  0  0  0  0  0  0  0  0  0  0
   48.5327   11.8061   -8.4858 C   0  0  0  0  0  0  0  0  0  0  0  0
   49.8447   12.9632   -8.9502 S   0  0  0  0  0  0  0  0  0  0  0  0
   48.9908   13.8710  -10.2464 C   0  0  0  0  0  0  0  0  0  0  0  0
   48.1883   16.1622  -10.6250 N   0  0  0  0  0  0  0  0  0  0  0  0
   48.6976   15.2811   -9.7572 C   0  0  0  0  0  0  0  0  0  0  0  0
   48.9499   15.5881   -8.5885 O   0  0  0  0  0  0  0  0  0  0  0  0
   48.0580   15.8933  -11.5630 H   0  0  0  0  0  0  0  0  0  0  0  0
   47.8228   17.5081  -10.2145 C   0  0  0  0  0  0  0  0  0  0  0  0
   46.3163   17.6977  -10.1649 C   0  0  0  0  0  0  0  0  0  0  0  0
   45.8049   18.2442  -11.4740 C   0  0  0  0  0  0  0  0  0  0  0  0
   45.0651   17.1633  -12.2769 C   0  0  0  0  0  0  0  0  0  0  0  0
   45.6107   15.8549  -12.0690 O   0  0  0  0  0  0  0  0  0  0  0  0
   45.8131   14.8591  -13.3014 P   0  0  0  0  0  0  0  0  0  0  0  0
   47.3801   14.5089  -13.2627 O   0  0  0  0  0  0  0  0  0  0  0  0
   45.4979   15.5733  -14.5586 O   0  0  0  0  0  0  0  0  0  0  0  0
   45.0788   13.6066  -13.0382 O   0  0  0  0  0  0  0  0  0  0  0  0
   46.0398   16.3756  -14.6193 H   0  0  0  0  0  0  0  0  0  0  0  0
   45.3693   13.2334  -12.1914 H   0  0  0  0  0  0  0  0  0  0  0  0
 10 14  1  0  0  0
 10 11  1  0  0  0
 14 19  1  0  0  0
 14 15  1  0  0  0
 19 20  1  0  0  0
 20 21  1  0  0  0
 21 22  1  0  0  0
 21 23  2  0  0  0
 15 16  1  0  0  0
 15 17  2  0  0  0
 52 51  1  0  0  0
 52 53  1  0  0  0
 51 50  1  0  0  0
 50 49  1  0  0  0
 49 45  1  0  0  0
 45 46  1  0  0  0
 46 47  2  0  0  0
 46 44  1  0  0  0
 44 43  1  0  0  0
 43 42  1  0  0  0
 42  1  1  0  0  0
  1  2  2  0  0  0
  1  3  1  0  0  0
  3 25  1  0  0  0
  3  4  1  0  0  0
 25 26  1  0  0  0
 26 27  1  0  0  0
 27 28  1  0  0  0
 28 29  1  0  0  0
 28 35  2  0  0  0
 29 30  2  0  0  0
 29 31  1  0  0  0
 31 32  1  0  0  0
 32 33  1  0  0  0
 32 34  2  0  0  0
 34 35  1  0  0  0
 35 36  1  0  0  0
  4  5  2  0  0  0
  4  9  1  0  0  0
  5  6  1  0  0  0
  6  7  2  0  0  0
  7  8  1  0  0  0
  7 11  1  0  0  0
  8  9  2  0  0  0
 11 12  2  0  0  0
 53 54  1  0  0  0
 54 55  2  0  0  0
 54 56  1  0  0  0
 54 57  1  0  0  0
 10 13  1  0  0  0
 22 24  1  0  0  0
 16 18  1  0  0  0
 45 48  1  0  0  0
 31 37  1  0  0  0
 33 38  1  0  0  0
 33 39  1  0  0  0
 36 40  1  0  0  0
 36 41  1  0  0  0
 56 58  1  0  0  0
 57 59  1  0  0  0
M  END
> <minimizedAffinity>
-7.94937

$$$$
1GAR_U89_A_213


 59 60  0  0  0  0  0  0  0  0999 V2000
   44.7849    5.8153   -9.1407 C   0  0  0  0  0  0  0  0  0  0  0  0
   43.7335    6.4739   -9.2272 O   0  0  0  0  0  0  0  0  0  0  0  0
   44.8006    4.5173   -9.5733 N   0  0  0  0  0  0  0  0  0  0  0  0
   45.7730    4.0179  -10.3859 C   0  0  0  0  0  0  0  0  0  0  0  0
   45.8459    4.3614  -11.6878 C   0  0  0  0  0  0  0  0  0  0  0  0
   46.8091    3.8558  -12.4836 C   0  0  0  0  0  0  0  0  0  0  0  0
   47.7116    2.9984  -11.9898 C   0  0  0  0  0  0  0  0  0  0  0  0
   47.6598    2.6582  -10.6951 C   0  0  0  0  0  0  0  0  0  0  0  0
   46.6955    3.1631   -9.8927 C   0  0  0  0  0  0  0  0  0  0  0  0
   49.8102    2.1484  -12.2610 N   0  0  0  0  0  0  0  0  0  0  0  0
   48.6261    2.3960  -12.8514 C   0  0  0  0  0  0  0  0  0  0  0  0
   48.3282    2.1374  -14.0321 O   0  0  0  0  0  0  0  0  0  0  0  0
   49.9060    2.4020  -11.3146 H   0  0  0  0  0  0  0  0  0  0  0  0
   50.9707    1.5302  -12.9156 C   0  0  0  0  0  0  0  0  0  0  0  0
   51.3968    2.0235  -14.3230 C   0  0  0  0  0  0  0  0  0  0  0  0
   50.9593    1.3941  -15.2938 O   0  0  0  0  0  0  0  0  0  0  0  0
   52.1062    3.0339  -14.4957 O   0  0  0  0  0  0  0  0  0  0  0  0
   50.4265    0.6353  -15.1587 H   0  0  0  0  0  0  0  0  0  0  0  0
   50.7135    0.0189  -12.8858 C   0  0  0  0  0  0  0  0  0  0  0  0
   50.7409   -0.3239  -11.4242 C   0  0  0  0  0  0  0  0  0  0  0  0
   52.0715   -0.8081  -10.9354 C   0  0  0  0  0  0  0  0  0  0  0  0
   52.2471   -2.0206  -10.9186 O   0  0  0  0  0  0  0  0  0  0  0  0
   52.9052    0.0080  -10.5287 O   0  0  0  0  0  0  0  0  0  0  0  0
   51.5803   -2.5951  -11.2400 H   0  0  0  0  0  0  0  0  0  0  0  0
   43.5449    3.7673   -9.7628 C   0  0  0  0  0  0  0  0  0  0  0  0
   42.6428    3.7627   -8.5159 C   0  0  0  0  0  0  0  0  0  0  0  0
   42.6621    2.5816   -7.5302 C   0  0  0  0  0  0  0  0  0  0  0  0
   42.4674    1.1854   -8.1266 C   0  0  0  0  0  0  0  0  0  0  0  0
   41.2436    0.8262   -8.7054 C   0  0  0  0  0  0  0  0  0  0  0  0
   40.2358    1.5363   -8.7689 O   0  0  0  0  0  0  0  0  0  0  0  0
   41.2234   -0.4632   -9.2335 N   0  0  0  0  0  0  0  0  0  0  0  0
   42.3151   -1.3031   -9.1979 C   0  0  0  0  0  0  0  0  0  0  0  0
   42.2155   -2.5118   -9.7368 N   0  0  0  0  0  0  0  0  0  0  0  0
   43.4485   -0.9169   -8.6168 N   0  0  0  0  0  0  0  0  0  0  0  0
   43.4974    0.3021   -8.0634 C   0  0  0  0  0  0  0  0  0  0  0  0
   44.6325    0.6420   -7.4704 N   0  0  0  0  0  0  0  0  0  0  0  0
   40.3929   -0.7883   -9.6503 H   0  0  0  0  0  0  0  0  0  0  0  0
   41.3746   -2.7920  -10.1652 H   0  0  0  0  0  0  0  0  0  0  0  0
   42.9826   -3.1283   -9.7080 H   0  0  0  0  0  0  0  0  0  0  0  0
   44.7214    1.5268   -7.0478 H   0  0  0  0  0  0  0  0  0  0  0  0
   45.3870    0.0099   -7.4524 H   0  0  0  0  0  0  0  0  0  0  0  0
   46.0557    6.5739   -8.6897 C   0  0  0  0  0  0  0  0  0  0  0  0
   46.8187    7.8340   -9.7413 S   0  0  0  0  0  0  0  0  0  0  0  0
   46.9879    9.1586   -8.5371 C   0  0  0  0  0  0  0  0  0  0  0  0
   47.8926   11.4423   -8.4806 N   0  0  0  0  0  0  0  0  0  0  0  0
   47.8037   10.2873   -9.1490 C   0  0  0  0  0  0  0  0  0  0  0  0
   48.3458   10.1253  -10.2461 O   0  0  0  0  0  0  0  0  0  0  0  0
   47.3958   11.5497   -7.6374 H   0  0  0  0  0  0  0  0  0  0  0  0
   48.7062   12.5429   -8.9709 C   0  0  0  0  0  0  0  0  0  0  0  0
   49.9784   12.7151   -8.1586 C   0  0  0  0  0  0  0  0  0  0  0  0
   49.7414   13.6328   -6.9859 C   0  0  0  0  0  0  0  0  0  0  0  0
   49.5870   12.8383   -5.6800 C   0  0  0  0  0  0  0  0  0  0  0  0
   48.4371   13.2399   -4.9256 O   0  0  0  0  0  0  0  0  0  0  0  0
   47.3117   12.1740   -4.5398 P   0  0  0  0  0  0  0  0  0  0  0  0
   47.7934   11.5998   -3.1192 O   0  0  0  0  0  0  0  0  0  0  0  0
   47.3143   11.0828   -5.5396 O   0  0  0  0  0  0  0  0  0  0  0  0
   46.0341   12.8772   -4.3164 O   0  0  0  0  0  0  0  0  0  0  0  0
   48.2035   10.6996   -5.5977 H   0  0  0  0  0  0  0  0  0  0  0  0
   46.1572   13.5658   -3.6443 H   0  0  0  0  0  0  0  0  0  0  0  0
 10 14  1  0  0  0
 10 11  1  0  0  0
 14 19  1  0  0  0
 14 15  1  0  0  0
 19 20  1  0  0  0
 20 21  1  0  0  0
 21 22  1  0  0  0
 21 23  2  0  0  0
 15 16  1  0  0  0
 15 17  2  0  0  0
 52 51  1  0  0  0
 52 53  1  0  0  0
 51 50  1  0  0  0
 50 49  1  0  0  0
 49 45  1  0  0  0
 45 46  1  0  0  0
 46 47  2  0  0  0
 46 44  1  0  0  0
 44 43  1  0  0  0
 43 42  1  0  0  0
 42  1  1  0  0  0
  1  2  2  0  0  0
  1  3  1  0  0  0
  3 25  1  0  0  0
  3  4  1  0  0  0
 25 26  1  0  0  0
 26 27  1  0  0  0
 27 28  1  0  0  0
 28 29  1  0  0  0
 28 35  2  0  0  0
 29 30  2  0  0  0
 29 31  1  0  0  0
 31 32  1  0  0  0
 32 33  1  0  0  0
 32 34  2  0  0  0
 34 35  1  0  0  0
 35 36  1  0  0  0
  4  5  2  0  0  0
  4  9  1  0  0  0
  5  6  1  0  0  0
  6  7  2  0  0  0
  7  8  1  0  0  0
  7 11  1  0  0  0
  8  9  2  0  0  0
 11 12  2  0  0  0
 53 54  1  0  0  0
 54 55  2  0  0  0
 54 56  1  0  0  0
 54 57  1  0  0  0
 10 13  1  0  0  0
 22 24  1  0  0  0
 16 18  1  0  0  0
 45 48  1  0  0  0
 31 37  1  0  0  0
 33 38  1  0  0  0
 33 39  1  0  0  0
 36 40  1  0  0  0
 36 41  1  0  0  0
 56 58  1  0  0  0
 57 59  1  0  0  0
M  END
> <minimizedAffinity>
-7.90663

$$$$
