5WGP_AUD_A_302


 11 11  0  0  0  0  0  0  0  0999 V2000
   -3.6932    3.6887   87.2357 C   0  0  0  0  0  0  0  0  0  0  0  0
   -2.4643    3.9622   86.3893 C   0  0  0  0  0  0  0  0  0  0  0  0
   -1.5569    2.8703   86.1037 O   0  0  0  0  0  0  0  0  0  0  0  0
   -0.2349    3.2121   85.3073 S   0  0  0  0  0  0  0  0  0  0  0  0
    0.1500    1.9566   84.6808 O   0  0  0  0  0  0  0  0  0  0  0  0
    0.6648    3.8018   86.2823 O   0  0  0  0  0  0  0  0  0  0  0  0
   -0.4844    4.3137   84.1920 N   0  0  0  0  0  0  0  0  0  0  0  0
   -1.4560    5.3017   84.4278 C   0  0  0  0  0  0  0  0  0  0  0  0
   -1.6699    6.1631   83.6300 O   0  0  0  0  0  0  0  0  0  0  0  0
   -2.3051    5.2191   85.7735 C   0  0  0  0  0  0  0  0  0  0  0  0
    0.0305    4.3052   83.3529 H   0  0  0  0  0  0  0  0  0  0  0  0
  1  2  1  0  0  0
  2  3  1  0  0  0
  2 10  2  0  0  0
  3  4  1  0  0  0
  4  5  2  0  0  0
  4  6  2  0  0  0
  4  7  1  0  0  0
  7  8  1  0  0  0
  8  9  2  0  0  0
  8 10  1  0  0  0
  7 11  1  0  0  0
M  END
> <minimizedAffinity>
-5.93764

$$$$
5WGP_AUD_A_302


 11 11  0  0  0  0  0  0  0  0999 V2000
   -2.1381    6.9524   84.5384 C   0  0  0  0  0  0  0  0  0  0  0  0
   -1.3617    5.6493   84.5563 C   0  0  0  0  0  0  0  0  0  0  0  0
   -1.5950    4.7132   85.6364 O   0  0  0  0  0  0  0  0  0  0  0  0
   -0.6955    3.4140   85.6804 S   0  0  0  0  0  0  0  0  0  0  0  0
   -1.4832    2.4488   86.4320 O   0  0  0  0  0  0  0  0  0  0  0  0
    0.5790    3.8420   86.2285 O   0  0  0  0  0  0  0  0  0  0  0  0
   -0.4002    2.8495   84.2265 N   0  0  0  0  0  0  0  0  0  0  0  0
   -0.2955    3.7592   83.1602 C   0  0  0  0  0  0  0  0  0  0  0  0
   -0.0568    3.3889   82.0510 O   0  0  0  0  0  0  0  0  0  0  0  0
   -0.5503    5.3036   83.4579 C   0  0  0  0  0  0  0  0  0  0  0  0
   -0.2928    1.8827   84.0749 H   0  0  0  0  0  0  0  0  0  0  0  0
  1  2  1  0  0  0
  2  3  1  0  0  0
  2 10  2  0  0  0
  3  4  1  0  0  0
  4  5  2  0  0  0
  4  6  2  0  0  0
  4  7  1  0  0  0
  7  8  1  0  0  0
  8  9  2  0  0  0
  8 10  1  0  0  0
  7 11  1  0  0  0
M  END
> <minimizedAffinity>
-5.89893

$$$$
5WGP_AUD_A_302


 11 11  0  0  0  0  0  0  0  0999 V2000
   -1.7647    7.0375   84.7112 C   0  0  0  0  0  0  0  0  0  0  0  0
   -1.6596    5.8118   85.5989 C   0  0  0  0  0  0  0  0  0  0  0  0
   -2.8635    5.2879   86.2101 O   0  0  0  0  0  0  0  0  0  0  0  0
   -2.7030    4.0742   87.2101 S   0  0  0  0  0  0  0  0  0  0  0  0
   -4.0003    3.4156   87.1976 O   0  0  0  0  0  0  0  0  0  0  0  0
   -2.2357    4.6560   88.4556 O   0  0  0  0  0  0  0  0  0  0  0  0
   -1.5810    3.0583   86.7320 N   0  0  0  0  0  0  0  0  0  0  0  0
   -0.4718    3.5622   86.0310 C   0  0  0  0  0  0  0  0  0  0  0  0
    0.4083    2.8440   85.6651 O   0  0  0  0  0  0  0  0  0  0  0  0
   -0.4368    5.1186   85.6919 C   0  0  0  0  0  0  0  0  0  0  0  0
   -1.6603    2.0956   86.9224 H   0  0  0  0  0  0  0  0  0  0  0  0
  1  2  1  0  0  0
  2  3  1  0  0  0
  2 10  2  0  0  0
  3  4  1  0  0  0
  4  5  2  0  0  0
  4  6  2  0  0  0
  4  7  1  0  0  0
  7  8  1  0  0  0
  8  9  2  0  0  0
  8 10  1  0  0  0
  7 11  1  0  0  0
M  END
> <minimizedAffinity>
-5.71133

$$$$
5WGP_AUD_A_302


 11 11  0  0  0  0  0  0  0  0999 V2000
   -0.8393    3.9546   81.4202 C   0  0  0  0  0  0  0  0  0  0  0  0
   -0.6787    4.4773   82.8352 C   0  0  0  0  0  0  0  0  0  0  0  0
   -0.4987    3.5273   83.9134 O   0  0  0  0  0  0  0  0  0  0  0  0
   -0.4384    4.1002   85.3855 S   0  0  0  0  0  0  0  0  0  0  0  0
    0.2964    3.0959   86.1393 O   0  0  0  0  0  0  0  0  0  0  0  0
   -1.8166    4.3695   85.7545 O   0  0  0  0  0  0  0  0  0  0  0  0
    0.3303    5.4876   85.4492 N   0  0  0  0  0  0  0  0  0  0  0  0
    0.2485    6.3533   84.3449 C   0  0  0  0  0  0  0  0  0  0  0  0
    0.7925    7.4155   84.3488 O   0  0  0  0  0  0  0  0  0  0  0  0
   -0.5542    5.8625   83.0590 C   0  0  0  0  0  0  0  0  0  0  0  0
    0.8533    5.7364   86.2454 H   0  0  0  0  0  0  0  0  0  0  0  0
  1  2  1  0  0  0
  2  3  1  0  0  0
  2 10  2  0  0  0
  3  4  1  0  0  0
  4  5  2  0  0  0
  4  6  2  0  0  0
  4  7  1  0  0  0
  7  8  1  0  0  0
  8  9  2  0  0  0
  8 10  1  0  0  0
  7 11  1  0  0  0
M  END
> <minimizedAffinity>
-5.22124

$$$$
5WGP_AUD_A_302


 11 11  0  0  0  0  0  0  0  0999 V2000
    0.1323    7.1099   84.6761 C   0  0  0  0  0  0  0  0  0  0  0  0
   -0.1502    5.7010   84.1898 C   0  0  0  0  0  0  0  0  0  0  0  0
    0.5097    5.2321   82.9890 O   0  0  0  0  0  0  0  0  0  0  0  0
    0.1140    3.7983   82.4538 S   0  0  0  0  0  0  0  0  0  0  0  0
    1.2632    3.3696   81.6712 O   0  0  0  0  0  0  0  0  0  0  0  0
   -1.1573    3.9741   81.7749 O   0  0  0  0  0  0  0  0  0  0  0  0
   -0.1400    2.7738   83.6394 N   0  0  0  0  0  0  0  0  0  0  0  0
   -0.6693    3.2604   84.8472 C   0  0  0  0  0  0  0  0  0  0  0  0
   -0.8959    2.5297   85.7632 O   0  0  0  0  0  0  0  0  0  0  0  0
   -0.9188    4.8280   84.9846 C   0  0  0  0  0  0  0  0  0  0  0  0
    0.0689    1.8178   83.5311 H   0  0  0  0  0  0  0  0  0  0  0  0
  1  2  1  0  0  0
  2  3  1  0  0  0
  2 10  2  0  0  0
  3  4  1  0  0  0
  4  5  2  0  0  0
  4  6  2  0  0  0
  4  7  1  0  0  0
  7  8  1  0  0  0
  8  9  2  0  0  0
  8 10  1  0  0  0
  7 11  1  0  0  0
M  END
> <minimizedAffinity>
-5.12977

$$$$
5WGP_AUD_A_302


 11 11  0  0  0  0  0  0  0  0999 V2000
   -3.5988    3.6342   87.1673 C   0  0  0  0  0  0  0  0  0  0  0  0
   -2.5369    4.3433   86.3483 C   0  0  0  0  0  0  0  0  0  0  0  0
   -2.8035    5.6849   85.8722 O   0  0  0  0  0  0  0  0  0  0  0  0
   -1.7195    6.3536   84.9360 S   0  0  0  0  0  0  0  0  0  0  0  0
   -1.9299    7.7843   85.0963 O   0  0  0  0  0  0  0  0  0  0  0  0
   -1.9249    5.7680   83.6235 O   0  0  0  0  0  0  0  0  0  0  0  0
   -0.2423    5.9759   85.3778 N   0  0  0  0  0  0  0  0  0  0  0  0
   -0.0141    4.7135   85.9522 C   0  0  0  0  0  0  0  0  0  0  0  0
    1.0803    4.3731   86.2850 O   0  0  0  0  0  0  0  0  0  0  0  0
   -1.2652    3.7571   86.1943 C   0  0  0  0  0  0  0  0  0  0  0  0
    0.4982    6.6123   85.2522 H   0  0  0  0  0  0  0  0  0  0  0  0
  1  2  1  0  0  0
  2  3  1  0  0  0
  2 10  2  0  0  0
  3  4  1  0  0  0
  4  5  2  0  0  0
  4  6  2  0  0  0
  4  7  1  0  0  0
  7  8  1  0  0  0
  8  9  2  0  0  0
  8 10  1  0  0  0
  7 11  1  0  0  0
M  END
> <minimizedAffinity>
-5.00238

$$$$
5WGP_AUD_A_302


 11 11  0  0  0  0  0  0  0  0999 V2000
   -2.4771    4.6188   88.3169 C   0  0  0  0  0  0  0  0  0  0  0  0
   -1.9168    4.5460   86.9091 C   0  0  0  0  0  0  0  0  0  0  0  0
   -1.4798    5.7690   86.2682 O   0  0  0  0  0  0  0  0  0  0  0  0
   -0.9985    5.6714   84.7656 S   0  0  0  0  0  0  0  0  0  0  0  0
   -0.1192    6.8169   84.5878 O   0  0  0  0  0  0  0  0  0  0  0  0
   -2.2125    5.6027   83.9723 O   0  0  0  0  0  0  0  0  0  0  0  0
   -0.1956    4.3306   84.4877 N   0  0  0  0  0  0  0  0  0  0  0  0
   -0.5482    3.1744   85.2050 C   0  0  0  0  0  0  0  0  0  0  0  0
    0.0115    2.1364   85.0210 O   0  0  0  0  0  0  0  0  0  0  0  0
   -1.6890    3.2910   86.3111 C   0  0  0  0  0  0  0  0  0  0  0  0
    0.5339    4.3093   83.8269 H   0  0  0  0  0  0  0  0  0  0  0  0
  1  2  1  0  0  0
  2  3  1  0  0  0
  2 10  2  0  0  0
  3  4  1  0  0  0
  4  5  2  0  0  0
  4  6  2  0  0  0
  4  7  1  0  0  0
  7  8  1  0  0  0
  8  9  2  0  0  0
  8 10  1  0  0  0
  7 11  1  0  0  0
M  END
> <minimizedAffinity>
-4.95166

$$$$
5WGP_AUD_A_302


 11 11  0  0  0  0  0  0  0  0999 V2000
    0.2925    7.9264   84.4594 C   0  0  0  0  0  0  0  0  0  0  0  0
   -0.4329    6.6645   84.8871 C   0  0  0  0  0  0  0  0  0  0  0  0
    0.3397    5.4637   85.1286 O   0  0  0  0  0  0  0  0  0  0  0  0
   -0.4572    4.1423   85.4716 S   0  0  0  0  0  0  0  0  0  0  0  0
    0.4945    3.3204   86.2034 O   0  0  0  0  0  0  0  0  0  0  0  0
   -0.9607    3.6512   84.2014 O   0  0  0  0  0  0  0  0  0  0  0  0
   -1.7243    4.4352   86.3819 N   0  0  0  0  0  0  0  0  0  0  0  0
   -2.3975    5.6589   86.2241 C   0  0  0  0  0  0  0  0  0  0  0  0
   -3.3659    5.9211   86.8705 O   0  0  0  0  0  0  0  0  0  0  0  0
   -1.8081    6.7165   85.1884 C   0  0  0  0  0  0  0  0  0  0  0  0
   -2.0320    3.7737   87.0429 H   0  0  0  0  0  0  0  0  0  0  0  0
  1  2  1  0  0  0
  2  3  1  0  0  0
  2 10  2  0  0  0
  3  4  1  0  0  0
  4  5  2  0  0  0
  4  6  2  0  0  0
  4  7  1  0  0  0
  7  8  1  0  0  0
  8  9  2  0  0  0
  8 10  1  0  0  0
  7 11  1  0  0  0
M  END
> <minimizedAffinity>
-4.78498

$$$$
5WGP_AUD_A_302


 11 11  0  0  0  0  0  0  0  0999 V2000
   -0.1219    2.0917   83.2452 C   0  0  0  0  0  0  0  0  0  0  0  0
   -0.6423    3.0636   84.2873 C   0  0  0  0  0  0  0  0  0  0  0  0
   -1.0169    2.5547   85.5903 O   0  0  0  0  0  0  0  0  0  0  0  0
   -1.6516    3.5767   86.6158 S   0  0  0  0  0  0  0  0  0  0  0  0
   -1.3851    2.9964   87.9232 O   0  0  0  0  0  0  0  0  0  0  0  0
   -3.0333    3.7372   86.1998 O   0  0  0  0  0  0  0  0  0  0  0  0
   -0.9761    5.0098   86.5173 N   0  0  0  0  0  0  0  0  0  0  0  0
   -0.5046    5.4467   85.2673 C   0  0  0  0  0  0  0  0  0  0  0  0
   -0.0052    6.5226   85.1351 O   0  0  0  0  0  0  0  0  0  0  0  0
   -0.6096    4.4483   84.0300 C   0  0  0  0  0  0  0  0  0  0  0  0
   -0.8894    5.5805   87.3147 H   0  0  0  0  0  0  0  0  0  0  0  0
  1  2  1  0  0  0
  2  3  1  0  0  0
  2 10  2  0  0  0
  3  4  1  0  0  0
  4  5  2  0  0  0
  4  6  2  0  0  0
  4  7  1  0  0  0
  7  8  1  0  0  0
  8  9  2  0  0  0
  8 10  1  0  0  0
  7 11  1  0  0  0
M  END
> <minimizedAffinity>
-4.61858

$$$$
5WGP_AUD_A_302


 11 11  0  0  0  0  0  0  0  0999 V2000
   -2.1242    7.1701   85.2645 C   0  0  0  0  0  0  0  0  0  0  0  0
   -1.1269    6.4065   84.4138 C   0  0  0  0  0  0  0  0  0  0  0  0
   -1.6248    5.4933   83.4060 O   0  0  0  0  0  0  0  0  0  0  0  0
   -0.5604    4.6380   82.6095 S   0  0  0  0  0  0  0  0  0  0  0  0
   -1.2242    4.2992   81.3599 O   0  0  0  0  0  0  0  0  0  0  0  0
   -0.1800    3.5597   83.5041 O   0  0  0  0  0  0  0  0  0  0  0  0
    0.7591    5.4675   82.3082 N   0  0  0  0  0  0  0  0  0  0  0  0
    1.1692    6.4397   83.2369 C   0  0  0  0  0  0  0  0  0  0  0  0
    2.1631    7.0782   83.0672 O   0  0  0  0  0  0  0  0  0  0  0  0
    0.2464    6.7058   84.5082 C   0  0  0  0  0  0  0  0  0  0  0  0
    1.2791    5.3046   81.4883 H   0  0  0  0  0  0  0  0  0  0  0  0
  1  2  1  0  0  0
  2  3  1  0  0  0
  2 10  2  0  0  0
  3  4  1  0  0  0
  4  5  2  0  0  0
  4  6  2  0  0  0
  4  7  1  0  0  0
  7  8  1  0  0  0
  8  9  2  0  0  0
  8 10  1  0  0  0
  7 11  1  0  0  0
M  END
> <minimizedAffinity>
-4.61223

$$$$
