6GJI_F1E_A_201


 28 29  0  0  0  0  0  0  0  0999 V2000
   -0.8201   17.3445   -4.3956 N   0  0  0  0  0  0  0  0  0  0  0  0
   -1.2705   17.3660   -5.6263 C   0  0  0  0  0  0  0  0  0  0  0  0
   -1.9756   16.4924   -6.0493 O   0  0  0  0  0  0  0  0  0  0  0  0
   -0.8868   18.4100   -6.3578 N   0  0  0  0  0  0  0  0  0  0  0  0
   -0.2512   18.0826   -4.0783 H   0  0  0  0  0  0  0  0  0  0  0  0
   -1.1385   16.2671   -3.4988 C   0  0  0  0  0  0  0  0  0  0  0  0
    1.0851   15.3630   -3.4125 O   0  0  0  0  0  0  0  0  0  0  0  0
   -0.0880   15.1946   -3.4791 C   0  0  0  0  0  0  0  0  0  0  0  0
   -0.6422   13.9945   -3.5632 O   0  0  0  0  0  0  0  0  0  0  0  0
   -0.9223   13.4141   -4.8127 C   0  0  0  0  0  0  0  0  0  0  0  0
    0.0330   12.2709   -4.9913 C   0  0  0  0  0  0  0  0  0  0  0  0
    0.1458   19.3353   -5.9345 C   0  0  0  0  0  0  0  0  0  0  0  0
    1.2954   19.1284   -6.8704 C   0  0  0  0  0  0  0  0  0  0  0  0
    2.1715   20.0456   -7.4653 C   0  0  0  0  0  0  0  0  0  0  0  0
    3.0204   19.3415   -8.1800 N   0  0  0  0  0  0  0  0  0  0  0  0
    4.1162   19.8224   -8.9974 C   0  0  0  0  0  0  0  0  0  0  0  0
    2.8002   17.9854   -8.1275 N   0  0  0  0  0  0  0  0  0  0  0  0
    1.6991   17.9000   -7.2839 N   0  0  0  0  0  0  0  0  0  0  0  0
   -1.4337   18.7571   -7.6104 C   0  0  0  0  0  0  0  0  0  0  0  0
   -2.8103   19.3063   -7.5042 C   0  0  0  0  0  0  0  0  0  0  0  0
   -3.0262   20.5413   -6.9361 C   0  0  0  0  0  0  0  0  0  0  0  0
   -4.3008   21.0497   -6.8619 C   0  0  0  0  0  0  0  0  0  0  0  0
   -5.3547   20.3099   -7.3636 C   0  0  0  0  0  0  0  0  0  0  0  0
   -6.5979   20.8044   -7.3005 N   0  0  0  0  0  0  0  0  0  0  0  0
   -5.1273   19.0842   -7.9276 C   0  0  0  0  0  0  0  0  0  0  0  0
   -3.8561   18.5648   -8.0063 C   0  0  0  0  0  0  0  0  0  0  0  0
   -6.7566   21.6868   -6.8938 H   0  0  0  0  0  0  0  0  0  0  0  0
   -7.3529   20.2855   -7.6609 H   0  0  0  0  0  0  0  0  0  0  0  0
 24 23  1  0  0  0
 23 22  2  0  0  0
 23 25  1  0  0  0
 22 21  1  0  0  0
 25 26  2  0  0  0
 21 20  2  0  0  0
 26 20  1  0  0  0
 20 19  1  0  0  0
 19  4  1  0  0  0
  3  2  2  0  0  0
  4  2  1  0  0  0
  4 12  1  0  0  0
  2  1  1  0  0  0
  7  8  2  0  0  0
 10 11  1  0  0  0
 10  9  1  0  0  0
 12 13  1  0  0  0
 14 13  2  0  0  0
 14 15  1  0  0  0
  8  9  1  0  0  0
  8  6  1  0  0  0
 13 18  1  0  0  0
  1  6  1  0  0  0
 15 16  1  0  0  0
 15 17  1  0  0  0
 18 17  2  0  0  0
  1  5  1  0  0  0
 24 27  1  0  0  0
 24 28  1  0  0  0
M  END
> <minimizedAffinity>
-6.81126

$$$$
6GJI_F1E_A_201


 28 29  0  0  0  0  0  0  0  0999 V2000
   -6.9095   21.3321  -10.4670 N   0  0  0  0  0  0  0  0  0  0  0  0
   -8.0563   21.7657  -10.0037 C   0  0  0  0  0  0  0  0  0  0  0  0
   -8.9394   21.0079   -9.7118 O   0  0  0  0  0  0  0  0  0  0  0  0
   -8.1644   23.0877   -9.8899 N   0  0  0  0  0  0  0  0  0  0  0  0
   -6.2031   21.9814  -10.6878 H   0  0  0  0  0  0  0  0  0  0  0  0
   -6.6602   19.9296  -10.6601 C   0  0  0  0  0  0  0  0  0  0  0  0
   -6.8424   18.4861   -8.7491 O   0  0  0  0  0  0  0  0  0  0  0  0
   -6.2040   19.2401   -9.4069 C   0  0  0  0  0  0  0  0  0  0  0  0
   -4.9654   19.5962   -9.1008 O   0  0  0  0  0  0  0  0  0  0  0  0
   -4.5392   19.6507   -7.7622 C   0  0  0  0  0  0  0  0  0  0  0  0
   -3.3984   18.6859   -7.6237 C   0  0  0  0  0  0  0  0  0  0  0  0
   -7.2022   24.0115  -10.4577 C   0  0  0  0  0  0  0  0  0  0  0  0
   -6.1725   24.2407   -9.3958 C   0  0  0  0  0  0  0  0  0  0  0  0
   -5.8364   25.3951   -8.6768 C   0  0  0  0  0  0  0  0  0  0  0  0
   -4.8811   25.0505   -7.8427 N   0  0  0  0  0  0  0  0  0  0  0  0
   -4.1826   25.8871   -6.8874 C   0  0  0  0  0  0  0  0  0  0  0  0
   -4.5213   23.7262   -7.9262 N   0  0  0  0  0  0  0  0  0  0  0  0
   -5.3687   23.2548   -8.9217 N   0  0  0  0  0  0  0  0  0  0  0  0
   -9.2009   23.7523   -9.2024 C   0  0  0  0  0  0  0  0  0  0  0  0
   -8.8639   24.0272   -7.7814 C   0  0  0  0  0  0  0  0  0  0  0  0
   -8.2409   23.0686   -7.0148 C   0  0  0  0  0  0  0  0  0  0  0  0
   -7.9142   23.3402   -5.7079 C   0  0  0  0  0  0  0  0  0  0  0  0
   -8.2159   24.5806   -5.1787 C   0  0  0  0  0  0  0  0  0  0  0  0
   -7.8925   24.8528   -3.9077 N   0  0  0  0  0  0  0  0  0  0  0  0
   -8.8337   25.5260   -5.9512 C   0  0  0  0  0  0  0  0  0  0  0  0
   -9.1664   25.2650   -7.2601 C   0  0  0  0  0  0  0  0  0  0  0  0
   -7.4481   24.1695   -3.3557 H   0  0  0  0  0  0  0  0  0  0  0  0
   -8.0993   25.7362   -3.5255 H   0  0  0  0  0  0  0  0  0  0  0  0
 24 23  1  0  0  0
 23 22  2  0  0  0
 23 25  1  0  0  0
 22 21  1  0  0  0
 25 26  2  0  0  0
 21 20  2  0  0  0
 26 20  1  0  0  0
 20 19  1  0  0  0
 19  4  1  0  0  0
  3  2  2  0  0  0
  4  2  1  0  0  0
  4 12  1  0  0  0
  2  1  1  0  0  0
  7  8  2  0  0  0
 10 11  1  0  0  0
 10  9  1  0  0  0
 12 13  1  0  0  0
 14 13  2  0  0  0
 14 15  1  0  0  0
  8  9  1  0  0  0
  8  6  1  0  0  0
 13 18  1  0  0  0
  1  6  1  0  0  0
 15 16  1  0  0  0
 15 17  1  0  0  0
 18 17  2  0  0  0
  1  5  1  0  0  0
 24 27  1  0  0  0
 24 28  1  0  0  0
M  END
> <minimizedAffinity>
-6.42917

$$$$
6GJI_F1E_A_201


 28 29  0  0  0  0  0  0  0  0999 V2000
   -1.0958   17.1760   -4.2070 N   0  0  0  0  0  0  0  0  0  0  0  0
   -1.2318   17.2949   -5.5051 C   0  0  0  0  0  0  0  0  0  0  0  0
   -1.4702   16.3450   -6.1982 O   0  0  0  0  0  0  0  0  0  0  0  0
   -1.0818   18.5272   -5.9857 N   0  0  0  0  0  0  0  0  0  0  0  0
   -0.9096   17.9779   -3.6671 H   0  0  0  0  0  0  0  0  0  0  0  0
   -1.2124   15.9007   -3.5539 C   0  0  0  0  0  0  0  0  0  0  0  0
    1.1715   15.7201   -3.3232 O   0  0  0  0  0  0  0  0  0  0  0  0
    0.1070   15.2009   -3.4005 C   0  0  0  0  0  0  0  0  0  0  0  0
   -0.0599   13.8871   -3.3760 O   0  0  0  0  0  0  0  0  0  0  0  0
   -0.7166   13.2225   -4.4266 C   0  0  0  0  0  0  0  0  0  0  0  0
   -0.0013   11.9207   -4.6394 C   0  0  0  0  0  0  0  0  0  0  0  0
   -0.5640   19.6266   -5.1952 C   0  0  0  0  0  0  0  0  0  0  0  0
    0.8318   19.8636   -5.6806 C   0  0  0  0  0  0  0  0  0  0  0  0
    1.9415   19.0104   -5.7371 C   0  0  0  0  0  0  0  0  0  0  0  0
    2.9191   19.7043   -6.2755 N   0  0  0  0  0  0  0  0  0  0  0  0
    4.2787   19.2780   -6.5405 C   0  0  0  0  0  0  0  0  0  0  0  0
    2.5706   20.9933   -6.6034 N   0  0  0  0  0  0  0  0  0  0  0  0
    1.2388   21.0456   -6.2100 N   0  0  0  0  0  0  0  0  0  0  0  0
   -1.4145   18.9235   -7.2976 C   0  0  0  0  0  0  0  0  0  0  0  0
   -2.8302   19.3566   -7.4254 C   0  0  0  0  0  0  0  0  0  0  0  0
   -3.2180   20.6065   -6.9987 C   0  0  0  0  0  0  0  0  0  0  0  0
   -4.5252   21.0056   -7.1409 C   0  0  0  0  0  0  0  0  0  0  0  0
   -5.4378   20.1417   -7.7159 C   0  0  0  0  0  0  0  0  0  0  0  0
   -6.7115   20.5290   -7.8637 N   0  0  0  0  0  0  0  0  0  0  0  0
   -5.0400   18.9024   -8.1378 C   0  0  0  0  0  0  0  0  0  0  0  0
   -3.7345   18.4917   -7.9996 C   0  0  0  0  0  0  0  0  0  0  0  0
   -6.9931   21.4217   -7.5586 H   0  0  0  0  0  0  0  0  0  0  0  0
   -7.3660   19.9210   -8.2775 H   0  0  0  0  0  0  0  0  0  0  0  0
 24 23  1  0  0  0
 23 22  2  0  0  0
 23 25  1  0  0  0
 22 21  1  0  0  0
 25 26  2  0  0  0
 21 20  2  0  0  0
 26 20  1  0  0  0
 20 19  1  0  0  0
 19  4  1  0  0  0
  3  2  2  0  0  0
  4  2  1  0  0  0
  4 12  1  0  0  0
  2  1  1  0  0  0
  7  8  2  0  0  0
 10 11  1  0  0  0
 10  9  1  0  0  0
 12 13  1  0  0  0
 14 13  2  0  0  0
 14 15  1  0  0  0
  8  9  1  0  0  0
  8  6  1  0  0  0
 13 18  1  0  0  0
  1  6  1  0  0  0
 15 16  1  0  0  0
 15 17  1  0  0  0
 18 17  2  0  0  0
  1  5  1  0  0  0
 24 27  1  0  0  0
 24 28  1  0  0  0
M  END
> <minimizedAffinity>
-6.35011

$$$$
6GJI_F1E_A_201


 28 29  0  0  0  0  0  0  0  0999 V2000
   -0.7373   17.8691   -4.7145 N   0  0  0  0  0  0  0  0  0  0  0  0
   -0.7544   18.4992   -5.8635 C   0  0  0  0  0  0  0  0  0  0  0  0
   -0.1944   18.0564   -6.8277 O   0  0  0  0  0  0  0  0  0  0  0  0
   -1.4239   19.6498   -5.8753 N   0  0  0  0  0  0  0  0  0  0  0  0
   -1.2153   18.2565   -3.9459 H   0  0  0  0  0  0  0  0  0  0  0  0
   -0.0360   16.6249   -4.5513 C   0  0  0  0  0  0  0  0  0  0  0  0
   -2.0883   15.4012   -4.7955 O   0  0  0  0  0  0  0  0  0  0  0  0
   -0.9019   15.4278   -4.8182 C   0  0  0  0  0  0  0  0  0  0  0  0
   -0.1599   14.3613   -5.0766 O   0  0  0  0  0  0  0  0  0  0  0  0
   -0.7543   13.1215   -5.3701 C   0  0  0  0  0  0  0  0  0  0  0  0
    0.2872   12.0672   -5.1347 C   0  0  0  0  0  0  0  0  0  0  0  0
   -1.8958   20.3023   -4.6697 C   0  0  0  0  0  0  0  0  0  0  0  0
   -1.0976   21.5619   -4.5417 C   0  0  0  0  0  0  0  0  0  0  0  0
   -1.4939   22.9056   -4.5569 C   0  0  0  0  0  0  0  0  0  0  0  0
   -0.4044   23.6183   -4.3777 N   0  0  0  0  0  0  0  0  0  0  0  0
   -0.2773   25.0611   -4.3268 C   0  0  0  0  0  0  0  0  0  0  0  0
    0.7363   22.8638   -4.2365 N   0  0  0  0  0  0  0  0  0  0  0  0
    0.2456   21.5682   -4.3450 N   0  0  0  0  0  0  0  0  0  0  0  0
   -1.7699   20.3656   -7.0400 C   0  0  0  0  0  0  0  0  0  0  0  0
   -3.1951   20.1880   -7.4214 C   0  0  0  0  0  0  0  0  0  0  0  0
   -4.0561   21.2620   -7.4203 C   0  0  0  0  0  0  0  0  0  0  0  0
   -5.3671   21.0914   -7.7952 C   0  0  0  0  0  0  0  0  0  0  0  0
   -5.8053   19.8363   -8.1723 C   0  0  0  0  0  0  0  0  0  0  0  0
   -7.0803   19.6665   -8.5460 N   0  0  0  0  0  0  0  0  0  0  0  0
   -4.9396   18.7767   -8.1710 C   0  0  0  0  0  0  0  0  0  0  0  0
   -3.6256   18.9352   -7.7967 C   0  0  0  0  0  0  0  0  0  0  0  0
   -7.6995   20.4318   -8.5453 H   0  0  0  0  0  0  0  0  0  0  0  0
   -7.3982   18.7763   -8.8212 H   0  0  0  0  0  0  0  0  0  0  0  0
 24 23  1  0  0  0
 23 22  2  0  0  0
 23 25  1  0  0  0
 22 21  1  0  0  0
 25 26  2  0  0  0
 21 20  2  0  0  0
 26 20  1  0  0  0
 20 19  1  0  0  0
 19  4  1  0  0  0
  3  2  2  0  0  0
  4  2  1  0  0  0
  4 12  1  0  0  0
  2  1  1  0  0  0
  7  8  2  0  0  0
 10 11  1  0  0  0
 10  9  1  0  0  0
 12 13  1  0  0  0
 14 13  2  0  0  0
 14 15  1  0  0  0
  8  9  1  0  0  0
  8  6  1  0  0  0
 13 18  1  0  0  0
  1  6  1  0  0  0
 15 16  1  0  0  0
 15 17  1  0  0  0
 18 17  2  0  0  0
  1  5  1  0  0  0
 24 27  1  0  0  0
 24 28  1  0  0  0
M  END
> <minimizedAffinity>
-6.15197

$$$$
6GJI_F1E_A_201


 28 29  0  0  0  0  0  0  0  0999 V2000
   -0.6598   16.3922   -3.7897 N   0  0  0  0  0  0  0  0  0  0  0  0
   -0.6108   16.7154   -5.0589 C   0  0  0  0  0  0  0  0  0  0  0  0
   -0.8562   15.9144   -5.9178 O   0  0  0  0  0  0  0  0  0  0  0  0
   -0.2684   17.9759   -5.3156 N   0  0  0  0  0  0  0  0  0  0  0  0
   -0.4616   17.0769   -3.1107 H   0  0  0  0  0  0  0  0  0  0  0  0
   -0.9967   15.0602   -3.3669 C   0  0  0  0  0  0  0  0  0  0  0  0
    1.1803   14.8069   -2.3843 O   0  0  0  0  0  0  0  0  0  0  0  0
    0.1705   14.3225   -2.7773 C   0  0  0  0  0  0  0  0  0  0  0  0
   -0.0601   13.0183   -2.7601 O   0  0  0  0  0  0  0  0  0  0  0  0
   -0.8172   12.4050   -3.7737 C   0  0  0  0  0  0  0  0  0  0  0  0
    0.1409   11.6343   -4.6337 C   0  0  0  0  0  0  0  0  0  0  0  0
    0.2556   18.8743   -4.3056 C   0  0  0  0  0  0  0  0  0  0  0  0
    1.7462   18.7953   -4.4150 C   0  0  0  0  0  0  0  0  0  0  0  0
    2.6888   19.7492   -4.8204 C   0  0  0  0  0  0  0  0  0  0  0  0
    3.8681   19.1805   -4.7068 N   0  0  0  0  0  0  0  0  0  0  0  0
    5.1671   19.7450   -5.0142 C   0  0  0  0  0  0  0  0  0  0  0  0
    3.8188   17.8858   -4.2467 N   0  0  0  0  0  0  0  0  0  0  0  0
    2.4541   17.6883   -4.0740 N   0  0  0  0  0  0  0  0  0  0  0  0
   -0.3817   18.5980   -6.5761 C   0  0  0  0  0  0  0  0  0  0  0  0
   -1.7461   19.1265   -6.8355 C   0  0  0  0  0  0  0  0  0  0  0  0
   -2.6707   18.3662   -7.5148 C   0  0  0  0  0  0  0  0  0  0  0  0
   -3.9366   18.8555   -7.7309 C   0  0  0  0  0  0  0  0  0  0  0  0
   -4.2663   20.1115   -7.2584 C   0  0  0  0  0  0  0  0  0  0  0  0
   -5.5011   20.5898   -7.4598 N   0  0  0  0  0  0  0  0  0  0  0  0
   -3.3391   20.8573   -6.5829 C   0  0  0  0  0  0  0  0  0  0  0  0
   -2.0688   20.3784   -6.3617 C   0  0  0  0  0  0  0  0  0  0  0  0
   -6.1649   20.0496   -7.9464 H   0  0  0  0  0  0  0  0  0  0  0  0
   -5.7449   21.4815   -7.1212 H   0  0  0  0  0  0  0  0  0  0  0  0
 24 23  1  0  0  0
 23 22  2  0  0  0
 23 25  1  0  0  0
 22 21  1  0  0  0
 25 26  2  0  0  0
 21 20  2  0  0  0
 26 20  1  0  0  0
 20 19  1  0  0  0
 19  4  1  0  0  0
  3  2  2  0  0  0
  4  2  1  0  0  0
  4 12  1  0  0  0
  2  1  1  0  0  0
  7  8  2  0  0  0
 10 11  1  0  0  0
 10  9  1  0  0  0
 12 13  1  0  0  0
 14 13  2  0  0  0
 14 15  1  0  0  0
  8  9  1  0  0  0
  8  6  1  0  0  0
 13 18  1  0  0  0
  1  6  1  0  0  0
 15 16  1  0  0  0
 15 17  1  0  0  0
 18 17  2  0  0  0
  1  5  1  0  0  0
 24 27  1  0  0  0
 24 28  1  0  0  0
M  END
> <minimizedAffinity>
-5.94777

$$$$
6GJI_F1E_A_201


 28 29  0  0  0  0  0  0  0  0999 V2000
    0.5457   20.9491   -6.9371 N   0  0  0  0  0  0  0  0  0  0  0  0
   -0.5495   21.1116   -6.2357 C   0  0  0  0  0  0  0  0  0  0  0  0
   -0.6255   21.9495   -5.3804 O   0  0  0  0  0  0  0  0  0  0  0  0
   -1.5496   20.2863   -6.5369 N   0  0  0  0  0  0  0  0  0  0  0  0
    0.5704   20.2579   -7.6377 H   0  0  0  0  0  0  0  0  0  0  0  0
    1.7117   21.7575   -6.7060 C   0  0  0  0  0  0  0  0  0  0  0  0
    3.0135   22.3674   -8.6301 O   0  0  0  0  0  0  0  0  0  0  0  0
    2.7576   21.5905   -7.7700 C   0  0  0  0  0  0  0  0  0  0  0  0
    3.3743   20.4252   -7.6417 O   0  0  0  0  0  0  0  0  0  0  0  0
    3.4499   19.5253   -8.7192 C   0  0  0  0  0  0  0  0  0  0  0  0
    4.8928   19.4416   -9.1225 C   0  0  0  0  0  0  0  0  0  0  0  0
   -1.3882   19.1280   -7.3937 C   0  0  0  0  0  0  0  0  0  0  0  0
   -0.8720   18.0320   -6.5147 C   0  0  0  0  0  0  0  0  0  0  0  0
   -1.5481   17.0970   -5.7202 C   0  0  0  0  0  0  0  0  0  0  0  0
   -0.6265   16.3378   -5.1711 N   0  0  0  0  0  0  0  0  0  0  0  0
   -0.8091   15.2301   -4.2546 C   0  0  0  0  0  0  0  0  0  0  0  0
    0.6574   16.6766   -5.5275 N   0  0  0  0  0  0  0  0  0  0  0  0
    0.4499   17.7533   -6.3812 N   0  0  0  0  0  0  0  0  0  0  0  0
   -2.8769   20.4342   -6.0840 C   0  0  0  0  0  0  0  0  0  0  0  0
   -3.8218   20.7809   -7.1772 C   0  0  0  0  0  0  0  0  0  0  0  0
   -3.6438   21.9296   -7.9143 C   0  0  0  0  0  0  0  0  0  0  0  0
   -4.5108   22.2305   -8.9372 C   0  0  0  0  0  0  0  0  0  0  0  0
   -5.5550   21.3688   -9.2146 C   0  0  0  0  0  0  0  0  0  0  0  0
   -6.3983   21.6537  -10.2155 N   0  0  0  0  0  0  0  0  0  0  0  0
   -5.7207   20.2290   -8.4760 C   0  0  0  0  0  0  0  0  0  0  0  0
   -4.8599   19.9183   -7.4492 C   0  0  0  0  0  0  0  0  0  0  0  0
   -6.2751   22.4750  -10.7443 H   0  0  0  0  0  0  0  0  0  0  0  0
   -7.1412   21.0418  -10.4225 H   0  0  0  0  0  0  0  0  0  0  0  0
 24 23  1  0  0  0
 23 22  2  0  0  0
 23 25  1  0  0  0
 22 21  1  0  0  0
 25 26  2  0  0  0
 21 20  2  0  0  0
 26 20  1  0  0  0
 20 19  1  0  0  0
 19  4  1  0  0  0
  3  2  2  0  0  0
  4  2  1  0  0  0
  4 12  1  0  0  0
  2  1  1  0  0  0
  7  8  2  0  0  0
 10 11  1  0  0  0
 10  9  1  0  0  0
 12 13  1  0  0  0
 14 13  2  0  0  0
 14 15  1  0  0  0
  8  9  1  0  0  0
  8  6  1  0  0  0
 13 18  1  0  0  0
  1  6  1  0  0  0
 15 16  1  0  0  0
 15 17  1  0  0  0
 18 17  2  0  0  0
  1  5  1  0  0  0
 24 27  1  0  0  0
 24 28  1  0  0  0
M  END
> <minimizedAffinity>
-5.94110

$$$$
6GJI_F1E_A_201


 28 29  0  0  0  0  0  0  0  0999 V2000
   -1.1719   16.8142   -5.5168 N   0  0  0  0  0  0  0  0  0  0  0  0
   -0.7091   17.9088   -4.9642 C   0  0  0  0  0  0  0  0  0  0  0  0
   -0.6260   18.0206   -3.7726 O   0  0  0  0  0  0  0  0  0  0  0  0
   -0.3509   18.8705   -5.8121 N   0  0  0  0  0  0  0  0  0  0  0  0
   -1.2176   16.7528   -6.4984 H   0  0  0  0  0  0  0  0  0  0  0  0
   -1.6142   15.7012   -4.7217 C   0  0  0  0  0  0  0  0  0  0  0  0
    0.4807   14.7934   -3.9760 O   0  0  0  0  0  0  0  0  0  0  0  0
   -0.5532   14.6543   -4.5421 C   0  0  0  0  0  0  0  0  0  0  0  0
   -0.9118   13.5196   -5.1238 O   0  0  0  0  0  0  0  0  0  0  0  0
    0.0524   12.5848   -5.5399 C   0  0  0  0  0  0  0  0  0  0  0  0
    0.1027   11.5092   -4.4948 C   0  0  0  0  0  0  0  0  0  0  0  0
   -0.6671   18.8359   -7.2265 C   0  0  0  0  0  0  0  0  0  0  0  0
   -2.1354   19.1079   -7.3288 C   0  0  0  0  0  0  0  0  0  0  0  0
   -2.8685   20.2825   -7.1156 C   0  0  0  0  0  0  0  0  0  0  0  0
   -4.1247   19.9893   -7.3669 N   0  0  0  0  0  0  0  0  0  0  0  0
   -5.2809   20.8588   -7.2807 C   0  0  0  0  0  0  0  0  0  0  0  0
   -4.3257   18.6826   -7.7444 N   0  0  0  0  0  0  0  0  0  0  0  0
   -3.0362   18.1657   -7.7079 N   0  0  0  0  0  0  0  0  0  0  0  0
    0.3830   20.0213   -5.4574 C   0  0  0  0  0  0  0  0  0  0  0  0
    1.7468   20.0377   -6.0473 C   0  0  0  0  0  0  0  0  0  0  0  0
    2.6623   19.0655   -5.7136 C   0  0  0  0  0  0  0  0  0  0  0  0
    3.9139   19.0772   -6.2810 C   0  0  0  0  0  0  0  0  0  0  0  0
    4.2373   20.0702   -7.1860 C   0  0  0  0  0  0  0  0  0  0  0  0
    5.4533   20.0815   -7.7475 N   0  0  0  0  0  0  0  0  0  0  0  0
    3.3181   21.0302   -7.5111 C   0  0  0  0  0  0  0  0  0  0  0  0
    2.0628   21.0292   -6.9487 C   0  0  0  0  0  0  0  0  0  0  0  0
    6.1114   19.3887   -7.5105 H   0  0  0  0  0  0  0  0  0  0  0  0
    5.6890   20.7826   -8.3973 H   0  0  0  0  0  0  0  0  0  0  0  0
 24 23  1  0  0  0
 23 22  2  0  0  0
 23 25  1  0  0  0
 22 21  1  0  0  0
 25 26  2  0  0  0
 21 20  2  0  0  0
 26 20  1  0  0  0
 20 19  1  0  0  0
 19  4  1  0  0  0
  3  2  2  0  0  0
  4  2  1  0  0  0
  4 12  1  0  0  0
  2  1  1  0  0  0
  7  8  2  0  0  0
 10 11  1  0  0  0
 10  9  1  0  0  0
 12 13  1  0  0  0
 14 13  2  0  0  0
 14 15  1  0  0  0
  8  9  1  0  0  0
  8  6  1  0  0  0
 13 18  1  0  0  0
  1  6  1  0  0  0
 15 16  1  0  0  0
 15 17  1  0  0  0
 18 17  2  0  0  0
  1  5  1  0  0  0
 24 27  1  0  0  0
 24 28  1  0  0  0
M  END
> <minimizedAffinity>
-5.86890

$$$$
6GJI_F1E_A_201


 28 29  0  0  0  0  0  0  0  0999 V2000
   -1.7295   19.7912   -7.5584 N   0  0  0  0  0  0  0  0  0  0  0  0
   -3.0012   19.5670   -7.3337 C   0  0  0  0  0  0  0  0  0  0  0  0
   -3.4035   18.4710   -7.0576 O   0  0  0  0  0  0  0  0  0  0  0  0
   -3.7968   20.6290   -7.4397 N   0  0  0  0  0  0  0  0  0  0  0  0
   -1.4325   20.7048   -7.7734 H   0  0  0  0  0  0  0  0  0  0  0  0
   -0.7588   18.7327   -7.4977 C   0  0  0  0  0  0  0  0  0  0  0  0
   -0.1305   19.3499   -5.2632 O   0  0  0  0  0  0  0  0  0  0  0  0
   -0.2021   18.5298   -6.1183 C   0  0  0  0  0  0  0  0  0  0  0  0
    0.2300   17.2870   -5.9657 O   0  0  0  0  0  0  0  0  0  0  0  0
   -0.1220   16.5337   -4.8321 C   0  0  0  0  0  0  0  0  0  0  0  0
   -1.3514   15.7506   -5.1882 C   0  0  0  0  0  0  0  0  0  0  0  0
   -3.3589   21.8924   -7.9999 C   0  0  0  0  0  0  0  0  0  0  0  0
   -3.1511   22.8108   -6.8365 C   0  0  0  0  0  0  0  0  0  0  0  0
   -2.1974   22.7914   -5.8103 C   0  0  0  0  0  0  0  0  0  0  0  0
   -2.4381   23.8411   -5.0571 N   0  0  0  0  0  0  0  0  0  0  0  0
   -1.7383   24.2627   -3.8600 C   0  0  0  0  0  0  0  0  0  0  0  0
   -3.5006   24.6010   -5.4859 N   0  0  0  0  0  0  0  0  0  0  0  0
   -3.9174   23.9096   -6.6170 N   0  0  0  0  0  0  0  0  0  0  0  0
   -5.1411   20.6707   -7.0154 C   0  0  0  0  0  0  0  0  0  0  0  0
   -6.0747   21.0648   -8.1023 C   0  0  0  0  0  0  0  0  0  0  0  0
   -6.1341   20.3361   -9.2685 C   0  0  0  0  0  0  0  0  0  0  0  0
   -7.0161   20.6961  -10.2589 C   0  0  0  0  0  0  0  0  0  0  0  0
   -7.8378   21.7908  -10.0682 C   0  0  0  0  0  0  0  0  0  0  0  0
   -8.7045   22.1411  -11.0275 N   0  0  0  0  0  0  0  0  0  0  0  0
   -7.7707   22.5063   -8.9039 C   0  0  0  0  0  0  0  0  0  0  0  0
   -6.8911   22.1560   -7.9061 C   0  0  0  0  0  0  0  0  0  0  0  0
   -8.7492   21.6232  -11.8636 H   0  0  0  0  0  0  0  0  0  0  0  0
   -9.2969   22.9164  -10.8964 H   0  0  0  0  0  0  0  0  0  0  0  0
 24 23  1  0  0  0
 23 22  2  0  0  0
 23 25  1  0  0  0
 22 21  1  0  0  0
 25 26  2  0  0  0
 21 20  2  0  0  0
 26 20  1  0  0  0
 20 19  1  0  0  0
 19  4  1  0  0  0
  3  2  2  0  0  0
  4  2  1  0  0  0
  4 12  1  0  0  0
  2  1  1  0  0  0
  7  8  2  0  0  0
 10 11  1  0  0  0
 10  9  1  0  0  0
 12 13  1  0  0  0
 14 13  2  0  0  0
 14 15  1  0  0  0
  8  9  1  0  0  0
  8  6  1  0  0  0
 13 18  1  0  0  0
  1  6  1  0  0  0
 15 16  1  0  0  0
 15 17  1  0  0  0
 18 17  2  0  0  0
  1  5  1  0  0  0
 24 27  1  0  0  0
 24 28  1  0  0  0
M  END
> <minimizedAffinity>
-5.80547

$$$$
6GJI_F1E_A_201


 28 29  0  0  0  0  0  0  0  0999 V2000
   -2.3383   18.5901   -6.4847 N   0  0  0  0  0  0  0  0  0  0  0  0
   -1.0710   18.6105   -6.8182 C   0  0  0  0  0  0  0  0  0  0  0  0
   -0.7272   18.7344   -7.9610 O   0  0  0  0  0  0  0  0  0  0  0  0
   -0.2117   18.4796   -5.8099 N   0  0  0  0  0  0  0  0  0  0  0  0
   -2.5849   18.4962   -5.5363 H   0  0  0  0  0  0  0  0  0  0  0  0
   -3.3762   18.7017   -7.4730 C   0  0  0  0  0  0  0  0  0  0  0  0
   -3.7637   21.0204   -6.9809 O   0  0  0  0  0  0  0  0  0  0  0  0
   -4.1742   19.9665   -7.3408 C   0  0  0  0  0  0  0  0  0  0  0  0
   -5.4402   19.7581   -7.6700 O   0  0  0  0  0  0  0  0  0  0  0  0
   -5.7909   18.7611   -8.5972 C   0  0  0  0  0  0  0  0  0  0  0  0
   -6.1077   19.4539   -9.8900 C   0  0  0  0  0  0  0  0  0  0  0  0
   -0.6156   18.0946   -4.4718 C   0  0  0  0  0  0  0  0  0  0  0  0
   -0.3926   16.6173   -4.3815 C   0  0  0  0  0  0  0  0  0  0  0  0
   -1.0562   15.5492   -4.9990 C   0  0  0  0  0  0  0  0  0  0  0  0
   -0.4485   14.4532   -4.6034 N   0  0  0  0  0  0  0  0  0  0  0  0
   -0.7618   13.0813   -4.9503 C   0  0  0  0  0  0  0  0  0  0  0  0
    0.6024   14.6789   -3.7461 N   0  0  0  0  0  0  0  0  0  0  0  0
    0.5997   16.0644   -3.6381 N   0  0  0  0  0  0  0  0  0  0  0  0
    1.1766   18.7084   -5.9032 C   0  0  0  0  0  0  0  0  0  0  0  0
    1.5107   20.1431   -6.0989 C   0  0  0  0  0  0  0  0  0  0  0  0
    1.2087   21.0682   -5.1255 C   0  0  0  0  0  0  0  0  0  0  0  0
    1.5410   22.3892   -5.3070 C   0  0  0  0  0  0  0  0  0  0  0  0
    2.1796   22.7726   -6.4710 C   0  0  0  0  0  0  0  0  0  0  0  0
    2.5125   24.0578   -6.6491 N   0  0  0  0  0  0  0  0  0  0  0  0
    2.4762   21.8435   -7.4306 C   0  0  0  0  0  0  0  0  0  0  0  0
    2.1474   20.5188   -7.2605 C   0  0  0  0  0  0  0  0  0  0  0  0
    2.2971   24.7227   -5.9559 H   0  0  0  0  0  0  0  0  0  0  0  0
    2.9726   24.3374   -7.4734 H   0  0  0  0  0  0  0  0  0  0  0  0
 24 23  1  0  0  0
 23 22  2  0  0  0
 23 25  1  0  0  0
 22 21  1  0  0  0
 25 26  2  0  0  0
 21 20  2  0  0  0
 26 20  1  0  0  0
 20 19  1  0  0  0
 19  4  1  0  0  0
  3  2  2  0  0  0
  4  2  1  0  0  0
  4 12  1  0  0  0
  2  1  1  0  0  0
  7  8  2  0  0  0
 10 11  1  0  0  0
 10  9  1  0  0  0
 12 13  1  0  0  0
 14 13  2  0  0  0
 14 15  1  0  0  0
  8  9  1  0  0  0
  8  6  1  0  0  0
 13 18  1  0  0  0
  1  6  1  0  0  0
 15 16  1  0  0  0
 15 17  1  0  0  0
 18 17  2  0  0  0
  1  5  1  0  0  0
 24 27  1  0  0  0
 24 28  1  0  0  0
M  END
> <minimizedAffinity>
-5.72618

$$$$
6GJI_F1E_A_201


 28 29  0  0  0  0  0  0  0  0999 V2000
   -2.4180   19.7230   -6.1901 N   0  0  0  0  0  0  0  0  0  0  0  0
   -1.6160   19.9192   -5.1722 C   0  0  0  0  0  0  0  0  0  0  0  0
   -1.7454   20.8670   -4.4481 O   0  0  0  0  0  0  0  0  0  0  0  0
   -0.6615   19.0054   -5.0113 N   0  0  0  0  0  0  0  0  0  0  0  0
   -2.2890   18.9296   -6.7585 H   0  0  0  0  0  0  0  0  0  0  0  0
   -3.4817   20.6405   -6.4952 C   0  0  0  0  0  0  0  0  0  0  0  0
   -3.4478   21.7028   -8.6491 O   0  0  0  0  0  0  0  0  0  0  0  0
   -3.7335   20.7727   -7.9693 C   0  0  0  0  0  0  0  0  0  0  0  0
   -4.3482   19.6969   -8.4377 O   0  0  0  0  0  0  0  0  0  0  0  0
   -5.5143   19.8119   -9.2146 C   0  0  0  0  0  0  0  0  0  0  0  0
   -6.2897   18.5398   -9.0358 C   0  0  0  0  0  0  0  0  0  0  0  0
   -0.3538   17.9993   -6.0088 C   0  0  0  0  0  0  0  0  0  0  0  0
    0.8526   18.4983   -6.7410 C   0  0  0  0  0  0  0  0  0  0  0  0
    1.2109   19.7904   -7.1468 C   0  0  0  0  0  0  0  0  0  0  0  0
    2.3846   19.6868   -7.7290 N   0  0  0  0  0  0  0  0  0  0  0  0
    3.1806   20.7377   -8.3310 C   0  0  0  0  0  0  0  0  0  0  0  0
    2.8784   18.4040   -7.7599 N   0  0  0  0  0  0  0  0  0  0  0  0
    1.8738   17.6881   -7.1200 N   0  0  0  0  0  0  0  0  0  0  0  0
    0.1514   18.8866   -3.8651 C   0  0  0  0  0  0  0  0  0  0  0  0
   -0.1235   17.6480   -3.0915 C   0  0  0  0  0  0  0  0  0  0  0  0
   -1.2750   17.5327   -2.3463 C   0  0  0  0  0  0  0  0  0  0  0  0
   -1.5302   16.3749   -1.6515 C   0  0  0  0  0  0  0  0  0  0  0  0
   -0.6222   15.3349   -1.7126 C   0  0  0  0  0  0  0  0  0  0  0  0
   -0.8702   14.2015   -1.0433 N   0  0  0  0  0  0  0  0  0  0  0  0
    0.5181   15.4607   -2.4582 C   0  0  0  0  0  0  0  0  0  0  0  0
    0.7847   16.6152   -3.1568 C   0  0  0  0  0  0  0  0  0  0  0  0
   -1.6920   14.1156   -0.5081 H   0  0  0  0  0  0  0  0  0  0  0  0
   -0.2306   13.4543   -1.0866 H   0  0  0  0  0  0  0  0  0  0  0  0
 24 23  1  0  0  0
 23 22  2  0  0  0
 23 25  1  0  0  0
 22 21  1  0  0  0
 25 26  2  0  0  0
 21 20  2  0  0  0
 26 20  1  0  0  0
 20 19  1  0  0  0
 19  4  1  0  0  0
  3  2  2  0  0  0
  4  2  1  0  0  0
  4 12  1  0  0  0
  2  1  1  0  0  0
  7  8  2  0  0  0
 10 11  1  0  0  0
 10  9  1  0  0  0
 12 13  1  0  0  0
 14 13  2  0  0  0
 14 15  1  0  0  0
  8  9  1  0  0  0
  8  6  1  0  0  0
 13 18  1  0  0  0
  1  6  1  0  0  0
 15 16  1  0  0  0
 15 17  1  0  0  0
 18 17  2  0  0  0
  1  5  1  0  0  0
 24 27  1  0  0  0
 24 28  1  0  0  0
M  END
> <minimizedAffinity>
-5.66047

$$$$
