1Z6E_IK8_A_711
  RCSB PDB12061704503D
Coordinates from PDB:1Z6E:A:711 Model:1 without hydrogens
 38 42  0  0  0  0            999 V2000
    2.6460   27.9550   53.1860   F 0  0  0  0  0  0  0  0  0  0  0  0
    2.6820   26.4560   54.6720   F 0  0  0  0  0  0  0  0  0  0  0  0
    3.5120   26.1060   52.7180   F 0  0  0  0  0  0  0  0  0  0  0  0
   12.2170   27.6850   52.4430   O 0  0  0  0  0  0  0  0  0  0  0  0
    8.2020   29.3600   56.3580   O 0  0  0  0  0  0  0  0  0  0  0  0
   12.1390   28.5390   51.4060   N 0  0  0  0  0  0  0  0  0  0  0  0
   10.3140   29.9370   50.4830   N 0  0  0  0  0  0  0  0  0  0  0  0
    6.8810   27.7950   54.3520   N 0  0  0  0  0  0  0  0  0  0  0  0
    5.8980   27.1470   53.6570   N 0  0  0  0  0  0  0  0  0  0  0  0
    6.2450   30.3470   56.9360   N 0  0  0  0  0  0  0  0  0  0  0  0
   11.0340   27.5590   53.0420   C 0  0  0  0  0  0  0  0  0  0  0  0
   10.0800   28.4000   52.3350   C 0  0  0  0  0  0  0  0  0  0  0  0
   10.8570   28.9980   51.3150   C 0  0  0  0  0  0  0  0  0  0  0  0
   10.5740   26.7930   54.2410   C 0  0  0  0  0  0  0  0  0  0  0  0
    9.1700   26.8740   54.7090   C 0  0  0  0  0  0  0  0  0  0  0  0
    8.2100   27.7260   53.9540   C 0  0  0  0  0  0  0  0  0  0  0  0
    8.6760   28.5020   52.7610   C 0  0  0  0  0  0  0  0  0  0  0  0
    4.7110   27.4850   54.1830   C 0  0  0  0  0  0  0  0  0  0  0  0
    4.9120   28.3780   55.2720   C 0  0  0  0  0  0  0  0  0  0  0  0
    6.3130   28.5580   55.3520   C 0  0  0  0  0  0  0  0  0  0  0  0
    3.3450   26.9950   53.6810   C 0  0  0  0  0  0  0  0  0  0  0  0
    6.9760   29.4340   56.2410   C 0  0  0  0  0  0  0  0  0  0  0  0
    6.7990   31.3390   57.7130   C 0  0  0  0  0  0  0  0  0  0  0  0
    7.5870   31.0050   58.8890   C 0  0  0  0  0  0  0  0  0  0  0  0
    8.1980   31.9800   59.7480   C 0  0  0  0  0  0  0  0  0  0  0  0
    8.0100   33.3790   59.4090   C 0  0  0  0  0  0  0  0  0  0  0  0
    7.2340   33.7410   58.2070   C 0  0  0  0  0  0  0  0  0  0  0  0
    6.6110   32.7370   57.3450   C 0  0  0  0  0  0  0  0  0  0  0  0
    8.4670   34.3420   60.3390   N 0  0  0  0  0  0  0  0  0  0  0  0
    9.7120   34.9040   60.3640   C 0  0  0  0  0  0  0  0  0  0  0  0
    9.7590   35.8160   61.4250   C 0  0  0  0  0  0  0  0  0  0  0  0
    8.5370   35.8010   62.0450   N 0  0  0  0  0  0  0  0  0  0  0  0
    7.7650   34.8940   61.3830   C 0  0  0  0  0  0  0  0  0  0  0  0
    7.7730   29.7180   59.1680   F 0  0  0  0  0  0  0  0  0  0  0  0
    6.3060   34.5810   61.7770   C 0  0  0  0  0  0  0  0  0  0  0  0
    6.1390   34.1820   63.2100   N 0  0  0  0  0  0  0  0  0  0  0  0
    6.5330   35.1040   64.3010   C 0  0  0  0  0  0  0  0  0  0  0  0
    6.3330   32.7740   63.5730   C 0  0  0  0  0  0  0  0  0  0  0  0
  1 21  1  0  0  0  0
  2 21  1  0  0  0  0
  3 21  1  0  0  0  0
  4  6  1  0  0  0  0
  4 11  1  0  0  0  0
  5 22  2  0  0  0  0
  6 13  2  0  0  0  0
  7 13  1  0  0  0  0
  8  9  1  0  0  0  0
  8 16  1  0  0  0  0
  8 20  1  0  0  0  0
  9 18  2  0  0  0  0
 10 22  1  0  0  0  0
 10 23  1  0  0  0  0
 11 12  1  0  0  0  0
 11 14  2  0  0  0  0
 12 13  1  0  0  0  0
 12 17  2  0  0  0  0
 14 15  1  0  0  0  0
 15 16  2  0  0  0  0
 16 17  1  0  0  0  0
 18 19  1  0  0  0  0
 18 21  1  0  0  0  0
 19 20  2  0  0  0  0
 20 22  1  0  0  0  0
 23 24  2  0  0  0  0
 23 28  1  0  0  0  0
 24 25  1  0  0  0  0
 24 34  1  0  0  0  0
 25 26  2  0  0  0  0
 26 27  1  0  0  0  0
 26 29  1  0  0  0  0
 27 28  2  0  0  0  0
 29 30  1  0  0  0  0
 29 33  1  0  0  0  0
 30 31  2  0  0  0  0
 31 32  1  0  0  0  0
 32 33  2  0  0  0  0
 33 35  1  0  0  0  0
 35 36  1  0  0  0  0
 36 37  1  0  0  0  0
 36 38  1  0  0  0  0
A    1
F
A    2
F1
A    3
F2
A    4
OT1
A    5
O1
A    6
N
A    7
N1
A    8
N2
A    9
N3
A   10
N4
A   11
C
A   12
C1
A   13
C2
A   14
C3
A   15
C4
A   16
C5
A   17
C6
A   18
C7
A   19
C8
A   20
C9
A   21
C10
A   22
C13
A   23
C14
A   24
C15
A   25
C16
A   26
C17
A   27
C18
A   28
C19
A   29
N5
A   30
C21
A   31
C22
A   32
N6
A   33
C25
A   34
F3
A   35
C11
A   36
N7
A   37
C20
A   38
C23
M  END
>  <InstanceId>
1Z6E_IK8_A_711

>  <ChemCompId>
IK8

>  <PdbId>
1Z6E

>  <ChainId>
A

>  <ResidueNumber>
711

>  <InsertionCode>


>  <Model>
1

>  <AltIds>


>  <MissingHeavyAtoms>
0

>  <ObservedFormula>
C24 N8 O2 F4

>  <Name>
1-(3-AMINO-1,2-BENZISOXAZOL-5-YL)-N-(4-{2-[(DIMETHYLAMINO)METHYL]-1H-IMIDAZOL-1-YL}-2-FLUOROPHENYL)-3-(TRIFLUOROMETHYL)-1H-PYRAZOLE-5-CARBOXAMIDE

>  <SystematicName>
2-(3-azanyl-1,2-benzoxazol-5-yl)-N-[4-[2-(dimethylaminomethyl)imidazol-1-yl]-2-fluoro-phenyl]-5-(trifluoromethyl)pyrazole-3-carboxamide

>  <Synonyms>
1-(3'-AMINOBENZISOXAZOL-5'-YL)-3-TRIFLUOROMETHYL-N-[2-FLUORO-4-[(2'-DIMETHYLAMINOMETHYL)IMIDAZOL-1-YL]PHENYL]-1H-PYRAZOLE-5-CARBOXYAMIDE; razaxaban; DPC906; BMS-561389

>  <Type>
NON-POLYMER

>  <Formula>
C24 H20 F4 N8 O2

>  <MolecularWeight>
528.462

>  <ModifiedDate>
2011-06-04

>  <Parent>


>  <OneLetterCode>


>  <SubcomponentList>


>  <AmbiguousFlag>
N

>  <InChI>
InChI=1S/C24H20F4N8O2/c1-34(2)12-21-30-7-8-35(21)13-3-5-17(16(25)10-13)31-23(37)18-11-20(24(26,27)28)32-36(18)14-4-6-19-15(9-14)22(29)33-38-19/h3-11H,12H2,1-2H3,(H2,29,33)(H,31,37)

>  <InChIKey>
OFJRNBWSFXEHSA-UHFFFAOYSA-N

>  <SMILES>
CN(C)Cc1nccn1c2ccc(c(c2)F)NC(=O)c3cc(nn3c4ccc5c(c4)c(no5)N)C(F)(F)F

$$$$
