4NGM_JB7_A_821


 38 38  0  0  0  0  0  0  0  0999 V2000
   19.8993   19.6144   35.5860 C   0  0  0  0  0  0  0  0  0  0  0  0
   17.7787   20.2211   36.6247 C   0  0  0  0  0  0  0  0  0  0  0  0
   18.6848   19.2967   36.2487 N   0  0  0  0  0  0  0  0  0  0  0  0
   17.8478   21.4308   36.3937 O   0  0  0  0  0  0  0  0  0  0  0  0
   16.8246   19.7916   37.4648 N   0  0  0  0  0  0  0  0  0  0  0  0
   18.4942   18.3508   36.4442 H   0  0  0  0  0  0  0  0  0  0  0  0
   16.6018   18.8347   37.5282 H   0  0  0  0  0  0  0  0  0  0  0  0
   16.1451   20.7499   38.2591 C   0  0  0  0  0  0  0  0  0  0  0  0
   16.6904   20.7113   39.6399 C   0  0  0  0  0  0  0  0  0  0  0  0
   17.9048   20.5891   39.8642 O   0  0  0  0  0  0  0  0  0  0  0  0
   15.7577   20.7696   40.5894 O   0  0  0  0  0  0  0  0  0  0  0  0
   14.8554   20.8626   40.3547 H   0  0  0  0  0  0  0  0  0  0  0  0
   14.6662   20.3906   38.3816 C   0  0  0  0  0  0  0  0  0  0  0  0
   14.3667   18.9466   37.9513 C   0  0  0  0  0  0  0  0  0  0  0  0
   14.0367   18.0300   39.1242 C   0  0  0  0  0  0  0  0  0  0  0  0
   13.9697   18.3594   40.3382 O   0  0  0  0  0  0  0  0  0  0  0  0
   13.8135   16.7494   38.8260 O   0  0  0  0  0  0  0  0  0  0  0  0
   14.1198   19.2490   40.5913 H   0  0  0  0  0  0  0  0  0  0  0  0
   19.9069   18.9049   34.2672 C   0  0  0  0  0  0  0  0  0  0  0  0
   19.3713   17.7195   34.1335 O   0  0  0  0  0  0  0  0  0  0  0  0
   20.2798   19.4109   33.2222 O   0  0  0  0  0  0  0  0  0  0  0  0
   19.0580   17.2593   34.8872 H   0  0  0  0  0  0  0  0  0  0  0  0
   21.0637   19.2356   36.4982 C   0  0  0  0  0  0  0  0  0  0  0  0
   22.4524   19.2980   35.8408 C   0  0  0  0  0  0  0  0  0  0  0  0
   22.9690   17.8620   35.6844 C   0  0  0  0  0  0  0  0  0  0  0  0
   23.2103   17.1722   37.0055 C   0  0  0  0  0  0  0  0  0  0  0  0
   24.3837   14.7200   37.1874 O   0  0  0  0  0  0  0  0  0  0  0  0
   25.1337   15.6610   37.3449 C   0  0  0  0  0  0  0  0  0  0  0  0
   26.5926   15.4079   37.6114 C   0  0  0  0  0  0  0  0  0  0  0  0
   24.6231   16.8839   37.3178 N   0  0  0  0  0  0  0  0  0  0  0  0
   25.3182   18.0778   37.7825 C   0  0  0  0  0  0  0  0  0  0  0  0
   25.3743   17.8068   40.2500 C   0  0  0  0  0  0  0  0  0  0  0  0
   24.1458   19.2758   41.6638 C   0  0  0  0  0  0  0  0  0  0  0  0
   23.6788   19.9939   40.5452 C   0  0  0  0  0  0  0  0  0  0  0  0
   24.9431   18.5562   39.1352 C   0  0  0  0  0  0  0  0  0  0  0  0
   24.0947   19.6335   39.2638 C   0  0  0  0  0  0  0  0  0  0  0  0
   23.6086   19.7023   43.4682 Br  0  0  0  0  0  0  0  0  0  0  0  0
   24.9929   18.1808   41.5528 C   0  0  0  0  0  0  0  0  0  0  0  0
 21 19  2  0  0  0
 20 19  1  0  0  0
 19  1  1  0  0  0
  1  3  1  0  0  0
  1 23  1  0  0  0
  3  2  1  0  0  0
  2  5  1  0  0  0
  2  4  2  0  0  0
 23 24  1  0  0  0
 24 25  1  0  0  0
  5  8  1  0  0  0
 34 36  2  0  0  0
 34 33  1  0  0  0
 36 35  1  0  0  0
 25 26  1  0  0  0
 37 33  1  0  0  0
 26 30  1  0  0  0
 33 38  2  0  0  0
  8 13  1  0  0  0
  8  9  1  0  0  0
 13 14  1  0  0  0
 35 31  1  0  0  0
 35 32  2  0  0  0
 14 15  1  0  0  0
 31 30  1  0  0  0
 17 15  2  0  0  0
 30 28  1  0  0  0
  9 10  2  0  0  0
  9 11  1  0  0  0
 15 16  1  0  0  0
 38 32  1  0  0  0
 28 27  2  0  0  0
 28 29  1  0  0  0
 20 22  1  0  0  0
  3  6  1  0  0  0
  5  7  1  0  0  0
 11 12  1  0  0  0
 16 18  1  0  0  0
M  END
> <minimizedAffinity>
-11.01166

$$$$
4NGM_JB7_A_821


 38 38  0  0  0  0  0  0  0  0999 V2000
   20.0167   19.8262   35.6614 C   0  0  0  0  0  0  0  0  0  0  0  0
   17.8505   20.2203   36.7085 C   0  0  0  0  0  0  0  0  0  0  0  0
   18.8810   19.4070   36.4028 N   0  0  0  0  0  0  0  0  0  0  0  0
   17.7256   21.3913   36.3412 O   0  0  0  0  0  0  0  0  0  0  0  0
   16.9932   19.7516   37.6283 N   0  0  0  0  0  0  0  0  0  0  0  0
   18.8441   18.4724   36.7101 H   0  0  0  0  0  0  0  0  0  0  0  0
   16.9233   18.7860   37.8070 H   0  0  0  0  0  0  0  0  0  0  0  0
   16.1904   20.6815   38.3366 C   0  0  0  0  0  0  0  0  0  0  0  0
   16.5702   20.6572   39.7721 C   0  0  0  0  0  0  0  0  0  0  0  0
   15.7264   20.7502   40.6772 O   0  0  0  0  0  0  0  0  0  0  0  0
   17.8836   20.5775   39.9808 O   0  0  0  0  0  0  0  0  0  0  0  0
   18.4702   20.5089   39.2534 H   0  0  0  0  0  0  0  0  0  0  0  0
   14.7215   20.2683   38.2841 C   0  0  0  0  0  0  0  0  0  0  0  0
   14.5327   18.7841   37.9355 C   0  0  0  0  0  0  0  0  0  0  0  0
   14.0241   17.9547   39.1095 C   0  0  0  0  0  0  0  0  0  0  0  0
   13.8844   18.3448   40.2991 O   0  0  0  0  0  0  0  0  0  0  0  0
   13.7134   16.6854   38.8430 O   0  0  0  0  0  0  0  0  0  0  0  0
   14.0913   19.2291   40.5295 H   0  0  0  0  0  0  0  0  0  0  0  0
   19.9301   19.2159   34.2965 C   0  0  0  0  0  0  0  0  0  0  0  0
   19.4391   18.0167   34.1214 O   0  0  0  0  0  0  0  0  0  0  0  0
   20.1772   19.8158   33.2639 O   0  0  0  0  0  0  0  0  0  0  0  0
   19.2211   17.4869   34.8628 H   0  0  0  0  0  0  0  0  0  0  0  0
   21.2734   19.4341   36.4350 C   0  0  0  0  0  0  0  0  0  0  0  0
   22.5892   19.9857   35.8615 C   0  0  0  0  0  0  0  0  0  0  0  0
   23.5512   20.2311   37.0310 C   0  0  0  0  0  0  0  0  0  0  0  0
   23.0890   19.5975   38.3210 C   0  0  0  0  0  0  0  0  0  0  0  0
   23.4751   19.7885   41.0114 O   0  0  0  0  0  0  0  0  0  0  0  0
   24.2434   19.0475   40.4337 C   0  0  0  0  0  0  0  0  0  0  0  0
   25.3003   18.3195   41.2188 C   0  0  0  0  0  0  0  0  0  0  0  0
   24.1453   18.9426   39.1161 N   0  0  0  0  0  0  0  0  0  0  0  0
   25.1625   18.3470   38.2587 C   0  0  0  0  0  0  0  0  0  0  0  0
   25.8918   15.9853   38.4955 C   0  0  0  0  0  0  0  0  0  0  0  0
   24.8142   14.2506   37.2726 C   0  0  0  0  0  0  0  0  0  0  0  0
   23.9340   15.1823   36.6879 C   0  0  0  0  0  0  0  0  0  0  0  0
   24.9790   16.9093   37.9446 C   0  0  0  0  0  0  0  0  0  0  0  0
   24.0125   16.5294   37.0398 C   0  0  0  0  0  0  0  0  0  0  0  0
   24.7794   12.3718   36.8304 Br  0  0  0  0  0  0  0  0  0  0  0  0
   25.8015   14.6164   38.1783 C   0  0  0  0  0  0  0  0  0  0  0  0
 21 19  2  0  0  0
 20 19  1  0  0  0
 19  1  1  0  0  0
  1  3  1  0  0  0
  1 23  1  0  0  0
  3  2  1  0  0  0
  2  5  1  0  0  0
  2  4  2  0  0  0
 23 24  1  0  0  0
 24 25  1  0  0  0
  5  8  1  0  0  0
 34 36  2  0  0  0
 34 33  1  0  0  0
 36 35  1  0  0  0
 25 26  1  0  0  0
 37 33  1  0  0  0
 26 30  1  0  0  0
 33 38  2  0  0  0
  8 13  1  0  0  0
  8  9  1  0  0  0
 13 14  1  0  0  0
 35 31  1  0  0  0
 35 32  2  0  0  0
 14 15  1  0  0  0
 31 30  1  0  0  0
 17 15  2  0  0  0
 30 28  1  0  0  0
  9 10  2  0  0  0
  9 11  1  0  0  0
 15 16  1  0  0  0
 38 32  1  0  0  0
 28 27  2  0  0  0
 28 29  1  0  0  0
 20 22  1  0  0  0
  3  6  1  0  0  0
  5  7  1  0  0  0
 11 12  1  0  0  0
 16 18  1  0  0  0
M  END
> <minimizedAffinity>
-10.70905

$$$$
4NGM_JB7_A_821


 38 38  0  0  0  0  0  0  0  0999 V2000
   19.9674   19.9434   35.2853 C   0  0  0  0  0  0  0  0  0  0  0  0
   17.8599   20.2307   36.4768 C   0  0  0  0  0  0  0  0  0  0  0  0
   18.9428   19.4938   36.1589 N   0  0  0  0  0  0  0  0  0  0  0  0
   17.5852   21.3410   36.0149 O   0  0  0  0  0  0  0  0  0  0  0  0
   17.1303   19.7770   37.5076 N   0  0  0  0  0  0  0  0  0  0  0  0
   19.0277   18.5959   36.5536 H   0  0  0  0  0  0  0  0  0  0  0  0
   17.1758   18.8321   37.7805 H   0  0  0  0  0  0  0  0  0  0  0  0
   16.2922   20.6919   38.1941 C   0  0  0  0  0  0  0  0  0  0  0  0
   16.7363   20.7912   39.6078 C   0  0  0  0  0  0  0  0  0  0  0  0
   17.9130   20.5849   39.9435 O   0  0  0  0  0  0  0  0  0  0  0  0
   15.7534   21.0688   40.4632 O   0  0  0  0  0  0  0  0  0  0  0  0
   14.8838   21.2148   40.1463 H   0  0  0  0  0  0  0  0  0  0  0  0
   14.8576   20.1714   38.2404 C   0  0  0  0  0  0  0  0  0  0  0  0
   14.7710   18.6481   38.0614 C   0  0  0  0  0  0  0  0  0  0  0  0
   14.1422   17.9408   39.2569 C   0  0  0  0  0  0  0  0  0  0  0  0
   13.1882   18.3639   39.9624 O   0  0  0  0  0  0  0  0  0  0  0  0
   14.6732   16.7639   39.5908 O   0  0  0  0  0  0  0  0  0  0  0  0
   12.7864   19.1864   39.7623 H   0  0  0  0  0  0  0  0  0  0  0  0
   19.8864   19.1401   34.0239 C   0  0  0  0  0  0  0  0  0  0  0  0
   19.3637   17.9415   34.0174 O   0  0  0  0  0  0  0  0  0  0  0  0
   20.1687   19.5736   32.9196 O   0  0  0  0  0  0  0  0  0  0  0  0
   19.1176   17.5334   34.8242 H   0  0  0  0  0  0  0  0  0  0  0  0
   21.3075   19.8261   36.0076 C   0  0  0  0  0  0  0  0  0  0  0  0
   22.5406   20.1511   35.1483 C   0  0  0  0  0  0  0  0  0  0  0  0
   23.7298   19.3571   35.7042 C   0  0  0  0  0  0  0  0  0  0  0  0
   24.0250   18.1035   34.9163 C   0  0  0  0  0  0  0  0  0  0  0  0
   22.2871   16.8806   33.2111 O   0  0  0  0  0  0  0  0  0  0  0  0
   22.3614   16.3806   34.3145 C   0  0  0  0  0  0  0  0  0  0  0  0
   21.5259   15.1716   34.6366 C   0  0  0  0  0  0  0  0  0  0  0  0
   23.1514   16.9521   35.2123 N   0  0  0  0  0  0  0  0  0  0  0  0
   23.1199   16.6631   36.6406 C   0  0  0  0  0  0  0  0  0  0  0  0
   24.2165   14.4376   36.5404 C   0  0  0  0  0  0  0  0  0  0  0  0
   25.9200   13.8493   38.0953 C   0  0  0  0  0  0  0  0  0  0  0  0
   25.8212   15.1123   38.7117 C   0  0  0  0  0  0  0  0  0  0  0  0
   24.1528   15.7179   37.1296 C   0  0  0  0  0  0  0  0  0  0  0  0
   24.9317   16.0628   38.2120 C   0  0  0  0  0  0  0  0  0  0  0  0
   27.1161   12.4747   38.7327 Br  0  0  0  0  0  0  0  0  0  0  0  0
   25.1358   13.4800   37.0101 C   0  0  0  0  0  0  0  0  0  0  0  0
 21 19  2  0  0  0
 20 19  1  0  0  0
 19  1  1  0  0  0
  1  3  1  0  0  0
  1 23  1  0  0  0
  3  2  1  0  0  0
  2  5  1  0  0  0
  2  4  2  0  0  0
 23 24  1  0  0  0
 24 25  1  0  0  0
  5  8  1  0  0  0
 34 36  2  0  0  0
 34 33  1  0  0  0
 36 35  1  0  0  0
 25 26  1  0  0  0
 37 33  1  0  0  0
 26 30  1  0  0  0
 33 38  2  0  0  0
  8 13  1  0  0  0
  8  9  1  0  0  0
 13 14  1  0  0  0
 35 31  1  0  0  0
 35 32  2  0  0  0
 14 15  1  0  0  0
 31 30  1  0  0  0
 17 15  2  0  0  0
 30 28  1  0  0  0
  9 10  2  0  0  0
  9 11  1  0  0  0
 15 16  1  0  0  0
 38 32  1  0  0  0
 28 27  2  0  0  0
 28 29  1  0  0  0
 20 22  1  0  0  0
  3  6  1  0  0  0
  5  7  1  0  0  0
 11 12  1  0  0  0
 16 18  1  0  0  0
M  END
> <minimizedAffinity>
-10.44983

$$$$
4NGM_JB7_A_821


 38 38  0  0  0  0  0  0  0  0999 V2000
   19.9374   19.8799   35.6871 C   0  0  0  0  0  0  0  0  0  0  0  0
   17.7694   20.3313   36.7071 C   0  0  0  0  0  0  0  0  0  0  0  0
   18.7145   19.4701   36.2803 N   0  0  0  0  0  0  0  0  0  0  0  0
   17.8076   21.5582   36.5858 O   0  0  0  0  0  0  0  0  0  0  0  0
   16.8050   19.8018   37.4753 N   0  0  0  0  0  0  0  0  0  0  0  0
   18.5478   18.5056   36.3855 H   0  0  0  0  0  0  0  0  0  0  0  0
   16.6103   18.8371   37.4470 H   0  0  0  0  0  0  0  0  0  0  0  0
   16.0731   20.6660   38.3287 C   0  0  0  0  0  0  0  0  0  0  0  0
   16.6481   20.5997   39.6964 C   0  0  0  0  0  0  0  0  0  0  0  0
   17.8695   20.5007   39.8922 O   0  0  0  0  0  0  0  0  0  0  0  0
   15.7345   20.6070   40.6660 O   0  0  0  0  0  0  0  0  0  0  0  0
   14.8255   20.6848   40.4527 H   0  0  0  0  0  0  0  0  0  0  0  0
   14.6276   20.1914   38.4577 C   0  0  0  0  0  0  0  0  0  0  0  0
   14.4605   18.6982   38.1380 C   0  0  0  0  0  0  0  0  0  0  0  0
   14.0422   17.8711   39.3486 C   0  0  0  0  0  0  0  0  0  0  0  0
   13.0966   18.1259   40.1410 O   0  0  0  0  0  0  0  0  0  0  0  0
   14.7664   16.7784   39.5940 O   0  0  0  0  0  0  0  0  0  0  0  0
   12.5629   18.8839   40.0051 H   0  0  0  0  0  0  0  0  0  0  0  0
   19.7166   20.0079   34.2114 C   0  0  0  0  0  0  0  0  0  0  0  0
   19.1042   21.0471   33.7065 O   0  0  0  0  0  0  0  0  0  0  0  0
   20.1888   19.2483   33.3824 O   0  0  0  0  0  0  0  0  0  0  0  0
   18.7124   21.6814   34.2740 H   0  0  0  0  0  0  0  0  0  0  0  0
   21.0215   18.8731   36.0647 C   0  0  0  0  0  0  0  0  0  0  0  0
   21.9238   19.2970   37.2355 C   0  0  0  0  0  0  0  0  0  0  0  0
   23.0712   18.2842   37.3418 C   0  0  0  0  0  0  0  0  0  0  0  0
   24.4334   18.9342   37.3788 C   0  0  0  0  0  0  0  0  0  0  0  0
   25.3916   18.9213   34.8283 O   0  0  0  0  0  0  0  0  0  0  0  0
   25.9802   18.1944   35.6015 C   0  0  0  0  0  0  0  0  0  0  0  0
   27.1474   17.3820   35.1106 C   0  0  0  0  0  0  0  0  0  0  0  0
   25.5387   18.1132   36.8487 N   0  0  0  0  0  0  0  0  0  0  0  0
   25.9351   17.0805   37.7978 C   0  0  0  0  0  0  0  0  0  0  0  0
   24.5129   15.3377   36.7464 C   0  0  0  0  0  0  0  0  0  0  0  0
   25.2424   13.0745   36.6373 C   0  0  0  0  0  0  0  0  0  0  0  0
   26.4510   13.4124   37.2777 C   0  0  0  0  0  0  0  0  0  0  0  0
   25.7434   15.6814   37.3449 C   0  0  0  0  0  0  0  0  0  0  0  0
   26.7074   14.7384   37.6250 C   0  0  0  0  0  0  0  0  0  0  0  0
   24.8058   11.2623   36.1355 Br  0  0  0  0  0  0  0  0  0  0  0  0
   24.2546   14.0096   36.3564 C   0  0  0  0  0  0  0  0  0  0  0  0
 21 19  2  0  0  0
 20 19  1  0  0  0
 19  1  1  0  0  0
  1  3  1  0  0  0
  1 23  1  0  0  0
  3  2  1  0  0  0
  2  5  1  0  0  0
  2  4  2  0  0  0
 23 24  1  0  0  0
 24 25  1  0  0  0
  5  8  1  0  0  0
 34 36  2  0  0  0
 34 33  1  0  0  0
 36 35  1  0  0  0
 25 26  1  0  0  0
 37 33  1  0  0  0
 26 30  1  0  0  0
 33 38  2  0  0  0
  8 13  1  0  0  0
  8  9  1  0  0  0
 13 14  1  0  0  0
 35 31  1  0  0  0
 35 32  2  0  0  0
 14 15  1  0  0  0
 31 30  1  0  0  0
 17 15  2  0  0  0
 30 28  1  0  0  0
  9 10  2  0  0  0
  9 11  1  0  0  0
 15 16  1  0  0  0
 38 32  1  0  0  0
 28 27  2  0  0  0
 28 29  1  0  0  0
 20 22  1  0  0  0
  3  6  1  0  0  0
  5  7  1  0  0  0
 11 12  1  0  0  0
 16 18  1  0  0  0
M  END
> <minimizedAffinity>
-9.79916

$$$$
4NGM_JB7_A_821


 38 38  0  0  0  0  0  0  0  0999 V2000
   23.8986   19.1479   40.3348 C   0  0  0  0  0  0  0  0  0  0  0  0
   23.6033   19.9546   38.0531 C   0  0  0  0  0  0  0  0  0  0  0  0
   24.3035   19.9043   39.2038 N   0  0  0  0  0  0  0  0  0  0  0  0
   22.5115   19.4169   37.8520 O   0  0  0  0  0  0  0  0  0  0  0  0
   24.2462   20.4912   37.0046 N   0  0  0  0  0  0  0  0  0  0  0  0
   25.1403   20.4195   39.2631 H   0  0  0  0  0  0  0  0  0  0  0  0
   25.0116   21.0959   37.1378 H   0  0  0  0  0  0  0  0  0  0  0  0
   23.7960   20.1657   35.6999 C   0  0  0  0  0  0  0  0  0  0  0  0
   24.9710   19.8836   34.8366 C   0  0  0  0  0  0  0  0  0  0  0  0
   25.4145   18.7346   34.6843 O   0  0  0  0  0  0  0  0  0  0  0  0
   25.5163   20.9723   34.2959 O   0  0  0  0  0  0  0  0  0  0  0  0
   25.1331   21.8135   34.4489 H   0  0  0  0  0  0  0  0  0  0  0  0
   23.0865   21.3598   35.0659 C   0  0  0  0  0  0  0  0  0  0  0  0
   21.6615   21.0263   34.5989 C   0  0  0  0  0  0  0  0  0  0  0  0
   21.3109   21.6547   33.2547 C   0  0  0  0  0  0  0  0  0  0  0  0
   20.1575   21.9477   32.8414 O   0  0  0  0  0  0  0  0  0  0  0  0
   22.3337   21.9006   32.4349 O   0  0  0  0  0  0  0  0  0  0  0  0
   19.4110   21.7913   33.3857 H   0  0  0  0  0  0  0  0  0  0  0  0
   23.5559   20.1054   41.4341 C   0  0  0  0  0  0  0  0  0  0  0  0
   24.3352   21.1163   41.7182 O   0  0  0  0  0  0  0  0  0  0  0  0
   22.4983   20.0974   42.0411 O   0  0  0  0  0  0  0  0  0  0  0  0
   25.1677   21.1992   41.2962 H   0  0  0  0  0  0  0  0  0  0  0  0
   25.0171   18.1717   40.6918 C   0  0  0  0  0  0  0  0  0  0  0  0
   25.7167   17.5159   39.4898 C   0  0  0  0  0  0  0  0  0  0  0  0
   25.5257   15.9976   39.5993 C   0  0  0  0  0  0  0  0  0  0  0  0
   26.3812   15.2214   38.6272 C   0  0  0  0  0  0  0  0  0  0  0  0
   25.9576   12.6740   39.4958 O   0  0  0  0  0  0  0  0  0  0  0  0
   25.4808   12.9322   38.4100 C   0  0  0  0  0  0  0  0  0  0  0  0
   24.7205   11.8696   37.6642 C   0  0  0  0  0  0  0  0  0  0  0  0
   25.6887   14.1388   37.9025 N   0  0  0  0  0  0  0  0  0  0  0  0
   25.4507   14.4997   36.5105 C   0  0  0  0  0  0  0  0  0  0  0  0
   23.2420   14.2317   35.4083 C   0  0  0  0  0  0  0  0  0  0  0  0
   21.6428   15.9945   35.4431 C   0  0  0  0  0  0  0  0  0  0  0  0
   22.5184   16.8007   36.1968 C   0  0  0  0  0  0  0  0  0  0  0  0
   24.0977   15.0233   36.2029 C   0  0  0  0  0  0  0  0  0  0  0  0
   23.7591   16.3007   36.5910 C   0  0  0  0  0  0  0  0  0  0  0  0
   19.9147   16.6154   34.8477 Br  0  0  0  0  0  0  0  0  0  0  0  0
   21.9711   14.7085   35.0338 C   0  0  0  0  0  0  0  0  0  0  0  0
 21 19  2  0  0  0
 20 19  1  0  0  0
 19  1  1  0  0  0
  1  3  1  0  0  0
  1 23  1  0  0  0
  3  2  1  0  0  0
  2  5  1  0  0  0
  2  4  2  0  0  0
 23 24  1  0  0  0
 24 25  1  0  0  0
  5  8  1  0  0  0
 34 36  2  0  0  0
 34 33  1  0  0  0
 36 35  1  0  0  0
 25 26  1  0  0  0
 37 33  1  0  0  0
 26 30  1  0  0  0
 33 38  2  0  0  0
  8 13  1  0  0  0
  8  9  1  0  0  0
 13 14  1  0  0  0
 35 31  1  0  0  0
 35 32  2  0  0  0
 14 15  1  0  0  0
 31 30  1  0  0  0
 17 15  2  0  0  0
 30 28  1  0  0  0
  9 10  2  0  0  0
  9 11  1  0  0  0
 15 16  1  0  0  0
 38 32  1  0  0  0
 28 27  2  0  0  0
 28 29  1  0  0  0
 20 22  1  0  0  0
  3  6  1  0  0  0
  5  7  1  0  0  0
 11 12  1  0  0  0
 16 18  1  0  0  0
M  END
> <minimizedAffinity>
-9.56965

$$$$
4NGM_JB7_A_821


 38 38  0  0  0  0  0  0  0  0999 V2000
   27.4899   17.3388   35.3912 C   0  0  0  0  0  0  0  0  0  0  0  0
   25.2301   18.2340   35.2026 C   0  0  0  0  0  0  0  0  0  0  0  0
   26.3919   17.8401   34.6441 N   0  0  0  0  0  0  0  0  0  0  0  0
   24.9907   18.2727   36.4120 O   0  0  0  0  0  0  0  0  0  0  0  0
   24.2120   18.4283   34.3503 N   0  0  0  0  0  0  0  0  0  0  0  0
   26.4839   17.9035   33.6659 H   0  0  0  0  0  0  0  0  0  0  0  0
   24.3794   18.6027   33.3959 H   0  0  0  0  0  0  0  0  0  0  0  0
   22.8890   18.3761   34.8582 C   0  0  0  0  0  0  0  0  0  0  0  0
   21.9980   17.7761   33.8327 C   0  0  0  0  0  0  0  0  0  0  0  0
   22.4054   16.9299   33.0215 O   0  0  0  0  0  0  0  0  0  0  0  0
   20.7592   18.2660   33.8420 O   0  0  0  0  0  0  0  0  0  0  0  0
   20.5126   18.9044   34.4819 H   0  0  0  0  0  0  0  0  0  0  0  0
   22.3554   19.7852   35.1051 C   0  0  0  0  0  0  0  0  0  0  0  0
   22.9633   20.8272   34.1540 C   0  0  0  0  0  0  0  0  0  0  0  0
   21.9145   21.7063   33.4817 C   0  0  0  0  0  0  0  0  0  0  0  0
   21.8733   22.9653   33.4907 O   0  0  0  0  0  0  0  0  0  0  0  0
   20.9381   21.0682   32.8351 O   0  0  0  0  0  0  0  0  0  0  0  0
   22.5398   23.4527   33.9335 H   0  0  0  0  0  0  0  0  0  0  0  0
   28.7045   18.1320   35.0189 C   0  0  0  0  0  0  0  0  0  0  0  0
   29.5270   18.5787   35.9320 O   0  0  0  0  0  0  0  0  0  0  0  0
   29.0814   18.3050   33.8721 O   0  0  0  0  0  0  0  0  0  0  0  0
   29.3141   18.4863   36.8398 H   0  0  0  0  0  0  0  0  0  0  0  0
   27.6211   15.8424   35.1168 C   0  0  0  0  0  0  0  0  0  0  0  0
   27.5897   15.4481   33.6309 C   0  0  0  0  0  0  0  0  0  0  0  0
   27.9702   13.9657   33.5246 C   0  0  0  0  0  0  0  0  0  0  0  0
   26.8794   13.1163   32.9181 C   0  0  0  0  0  0  0  0  0  0  0  0
   27.9108   10.5953   32.8537 O   0  0  0  0  0  0  0  0  0  0  0  0
   27.0358   10.7712   33.6760 C   0  0  0  0  0  0  0  0  0  0  0  0
   26.6124    9.6308   34.5613 C   0  0  0  0  0  0  0  0  0  0  0  0
   26.4541   11.9609   33.7311 N   0  0  0  0  0  0  0  0  0  0  0  0
   25.2085   12.2375   34.4357 C   0  0  0  0  0  0  0  0  0  0  0  0
   26.2567   12.7658   36.6237 C   0  0  0  0  0  0  0  0  0  0  0  0
   25.4739   14.5884   37.9396 C   0  0  0  0  0  0  0  0  0  0  0  0
   24.5104   14.9062   36.9621 C   0  0  0  0  0  0  0  0  0  0  0  0
   25.3227   13.1151   35.6258 C   0  0  0  0  0  0  0  0  0  0  0  0
   24.4439   14.1638   35.7835 C   0  0  0  0  0  0  0  0  0  0  0  0
   25.6235   15.5578   39.6022 Br  0  0  0  0  0  0  0  0  0  0  0  0
   26.3610   13.5285   37.8028 C   0  0  0  0  0  0  0  0  0  0  0  0
 21 19  2  0  0  0
 20 19  1  0  0  0
 19  1  1  0  0  0
  1  3  1  0  0  0
  1 23  1  0  0  0
  3  2  1  0  0  0
  2  5  1  0  0  0
  2  4  2  0  0  0
 23 24  1  0  0  0
 24 25  1  0  0  0
  5  8  1  0  0  0
 34 36  2  0  0  0
 34 33  1  0  0  0
 36 35  1  0  0  0
 25 26  1  0  0  0
 37 33  1  0  0  0
 26 30  1  0  0  0
 33 38  2  0  0  0
  8 13  1  0  0  0
  8  9  1  0  0  0
 13 14  1  0  0  0
 35 31  1  0  0  0
 35 32  2  0  0  0
 14 15  1  0  0  0
 31 30  1  0  0  0
 17 15  2  0  0  0
 30 28  1  0  0  0
  9 10  2  0  0  0
  9 11  1  0  0  0
 15 16  1  0  0  0
 38 32  1  0  0  0
 28 27  2  0  0  0
 28 29  1  0  0  0
 20 22  1  0  0  0
  3  6  1  0  0  0
  5  7  1  0  0  0
 11 12  1  0  0  0
 16 18  1  0  0  0
M  END
> <minimizedAffinity>
-9.25992

$$$$
4NGM_JB7_A_821


 38 38  0  0  0  0  0  0  0  0999 V2000
   27.4525   17.3887   35.1923 C   0  0  0  0  0  0  0  0  0  0  0  0
   25.2302   18.3891   35.2612 C   0  0  0  0  0  0  0  0  0  0  0  0
   26.4106   18.1820   34.6443 N   0  0  0  0  0  0  0  0  0  0  0  0
   24.9254   17.9820   36.3850 O   0  0  0  0  0  0  0  0  0  0  0  0
   24.2661   18.9339   34.5034 N   0  0  0  0  0  0  0  0  0  0  0  0
   26.5581   18.6034   33.7668 H   0  0  0  0  0  0  0  0  0  0  0  0
   24.4904   19.4459   33.6929 H   0  0  0  0  0  0  0  0  0  0  0  0
   22.9162   18.7542   34.8988 C   0  0  0  0  0  0  0  0  0  0  0  0
   22.1892   18.0254   33.8283 C   0  0  0  0  0  0  0  0  0  0  0  0
   22.7158   17.1035   33.1859 O   0  0  0  0  0  0  0  0  0  0  0  0
   20.9601   18.4867   33.6013 O   0  0  0  0  0  0  0  0  0  0  0  0
   20.6188   19.1867   34.1223 H   0  0  0  0  0  0  0  0  0  0  0  0
   22.2158   20.1037   35.0380 C   0  0  0  0  0  0  0  0  0  0  0  0
   22.9072   21.2185   34.2385 C   0  0  0  0  0  0  0  0  0  0  0  0
   21.9379   22.0354   33.3912 C   0  0  0  0  0  0  0  0  0  0  0  0
   21.8294   23.2903   33.3749 O   0  0  0  0  0  0  0  0  0  0  0  0
   21.1157   21.3414   32.6031 O   0  0  0  0  0  0  0  0  0  0  0  0
   22.3877   23.8158   33.9136 H   0  0  0  0  0  0  0  0  0  0  0  0
   28.7448   18.1186   34.9924 C   0  0  0  0  0  0  0  0  0  0  0  0
   29.4714   18.4993   36.0107 O   0  0  0  0  0  0  0  0  0  0  0  0
   29.2691   18.2926   33.9052 O   0  0  0  0  0  0  0  0  0  0  0  0
   29.1435   18.4012   36.8829 H   0  0  0  0  0  0  0  0  0  0  0  0
   27.4121   16.0118   34.5336 C   0  0  0  0  0  0  0  0  0  0  0  0
   26.9274   14.8697   35.4421 C   0  0  0  0  0  0  0  0  0  0  0  0
   26.1762   13.8553   34.5701 C   0  0  0  0  0  0  0  0  0  0  0  0
   24.7811   13.5644   35.0685 C   0  0  0  0  0  0  0  0  0  0  0  0
   23.5642   11.9803   33.2157 O   0  0  0  0  0  0  0  0  0  0  0  0
   23.8912   11.4154   34.2389 C   0  0  0  0  0  0  0  0  0  0  0  0
   23.6145    9.9446   34.3929 C   0  0  0  0  0  0  0  0  0  0  0  0
   24.4454   12.1342   35.2048 N   0  0  0  0  0  0  0  0  0  0  0  0
   24.6116   11.6788   36.5794 C   0  0  0  0  0  0  0  0  0  0  0  0
   26.6291   10.2607   36.2894 C   0  0  0  0  0  0  0  0  0  0  0  0
   28.4865   10.4713   37.7631 C   0  0  0  0  0  0  0  0  0  0  0  0
   27.8305   11.4943   38.4758 C   0  0  0  0  0  0  0  0  0  0  0  0
   25.9942   11.3173   36.9756 C   0  0  0  0  0  0  0  0  0  0  0  0
   26.5705   11.9297   38.0665 C   0  0  0  0  0  0  0  0  0  0  0  0
   30.2248    9.8034   38.2715 Br  0  0  0  0  0  0  0  0  0  0  0  0
   27.9169    9.8352   36.6677 C   0  0  0  0  0  0  0  0  0  0  0  0
 21 19  2  0  0  0
 20 19  1  0  0  0
 19  1  1  0  0  0
  1  3  1  0  0  0
  1 23  1  0  0  0
  3  2  1  0  0  0
  2  5  1  0  0  0
  2  4  2  0  0  0
 23 24  1  0  0  0
 24 25  1  0  0  0
  5  8  1  0  0  0
 34 36  2  0  0  0
 34 33  1  0  0  0
 36 35  1  0  0  0
 25 26  1  0  0  0
 37 33  1  0  0  0
 26 30  1  0  0  0
 33 38  2  0  0  0
  8 13  1  0  0  0
  8  9  1  0  0  0
 13 14  1  0  0  0
 35 31  1  0  0  0
 35 32  2  0  0  0
 14 15  1  0  0  0
 31 30  1  0  0  0
 17 15  2  0  0  0
 30 28  1  0  0  0
  9 10  2  0  0  0
  9 11  1  0  0  0
 15 16  1  0  0  0
 38 32  1  0  0  0
 28 27  2  0  0  0
 28 29  1  0  0  0
 20 22  1  0  0  0
  3  6  1  0  0  0
  5  7  1  0  0  0
 11 12  1  0  0  0
 16 18  1  0  0  0
M  END
> <minimizedAffinity>
-9.19080

$$$$
4NGM_JB7_A_821


 38 38  0  0  0  0  0  0  0  0999 V2000
   19.9992   20.0042   35.8738 C   0  0  0  0  0  0  0  0  0  0  0  0
   17.7685   20.2136   36.8353 C   0  0  0  0  0  0  0  0  0  0  0  0
   18.9072   19.5191   36.6402 N   0  0  0  0  0  0  0  0  0  0  0  0
   17.5001   21.3089   36.3354 O   0  0  0  0  0  0  0  0  0  0  0  0
   16.9533   19.7372   37.7888 N   0  0  0  0  0  0  0  0  0  0  0  0
   18.9857   18.6278   37.0510 H   0  0  0  0  0  0  0  0  0  0  0  0
   17.0073   18.7967   38.0749 H   0  0  0  0  0  0  0  0  0  0  0  0
   16.0123   20.6218   38.3742 C   0  0  0  0  0  0  0  0  0  0  0  0
   16.5613   21.1382   39.6538 C   0  0  0  0  0  0  0  0  0  0  0  0
   15.9665   21.9947   40.3266 O   0  0  0  0  0  0  0  0  0  0  0  0
   17.7534   20.6350   39.9709 O   0  0  0  0  0  0  0  0  0  0  0  0
   18.1507   19.9891   39.4205 H   0  0  0  0  0  0  0  0  0  0  0  0
   14.7313   19.8749   38.7382 C   0  0  0  0  0  0  0  0  0  0  0  0
   14.9839   18.4062   39.1109 C   0  0  0  0  0  0  0  0  0  0  0  0
   13.7354   17.6965   39.6229 C   0  0  0  0  0  0  0  0  0  0  0  0
   13.1035   17.9592   40.6806 O   0  0  0  0  0  0  0  0  0  0  0  0
   13.2840   16.6874   38.8769 O   0  0  0  0  0  0  0  0  0  0  0  0
   13.3869   18.6603   41.2338 H   0  0  0  0  0  0  0  0  0  0  0  0
   19.8166   19.5402   34.4616 C   0  0  0  0  0  0  0  0  0  0  0  0
   19.5177   18.2963   34.1914 O   0  0  0  0  0  0  0  0  0  0  0  0
   19.8014   20.2842   33.4955 O   0  0  0  0  0  0  0  0  0  0  0  0
   19.5061   17.6577   34.8770 H   0  0  0  0  0  0  0  0  0  0  0  0
   21.2968   19.5237   36.5193 C   0  0  0  0  0  0  0  0  0  0  0  0
   22.5514   19.6649   35.6415 C   0  0  0  0  0  0  0  0  0  0  0  0
   23.2008   18.2807   35.5147 C   0  0  0  0  0  0  0  0  0  0  0  0
   24.4992   18.1637   36.2761 C   0  0  0  0  0  0  0  0  0  0  0  0
   26.2226   17.8675   38.3655 O   0  0  0  0  0  0  0  0  0  0  0  0
   25.4258   16.9629   38.2249 C   0  0  0  0  0  0  0  0  0  0  0  0
   25.4495   15.8010   39.1803 C   0  0  0  0  0  0  0  0  0  0  0  0
   24.5877   17.0164   37.1995 N   0  0  0  0  0  0  0  0  0  0  0  0
   23.7941   15.8901   36.7240 C   0  0  0  0  0  0  0  0  0  0  0  0
   25.6507   15.2715   35.1957 C   0  0  0  0  0  0  0  0  0  0  0  0
   25.8504   13.0517   34.3597 C   0  0  0  0  0  0  0  0  0  0  0  0
   24.7060   12.6563   35.0800 C   0  0  0  0  0  0  0  0  0  0  0  0
   24.5330   14.8613   35.9526 C   0  0  0  0  0  0  0  0  0  0  0  0
   24.0464   13.5740   35.8969 C   0  0  0  0  0  0  0  0  0  0  0  0
   26.8126   11.8469   33.1983 Br  0  0  0  0  0  0  0  0  0  0  0  0
   26.3493   14.3474   34.3952 C   0  0  0  0  0  0  0  0  0  0  0  0
 21 19  2  0  0  0
 20 19  1  0  0  0
 19  1  1  0  0  0
  1  3  1  0  0  0
  1 23  1  0  0  0
  3  2  1  0  0  0
  2  5  1  0  0  0
  2  4  2  0  0  0
 23 24  1  0  0  0
 24 25  1  0  0  0
  5  8  1  0  0  0
 34 36  2  0  0  0
 34 33  1  0  0  0
 36 35  1  0  0  0
 25 26  1  0  0  0
 37 33  1  0  0  0
 26 30  1  0  0  0
 33 38  2  0  0  0
  8 13  1  0  0  0
  8  9  1  0  0  0
 13 14  1  0  0  0
 35 31  1  0  0  0
 35 32  2  0  0  0
 14 15  1  0  0  0
 31 30  1  0  0  0
 17 15  2  0  0  0
 30 28  1  0  0  0
  9 10  2  0  0  0
  9 11  1  0  0  0
 15 16  1  0  0  0
 38 32  1  0  0  0
 28 27  2  0  0  0
 28 29  1  0  0  0
 20 22  1  0  0  0
  3  6  1  0  0  0
  5  7  1  0  0  0
 11 12  1  0  0  0
 16 18  1  0  0  0
M  END
> <minimizedAffinity>
-9.16838

$$$$
4NGM_JB7_A_821


 38 38  0  0  0  0  0  0  0  0999 V2000
   27.0541   17.6064   34.6594 C   0  0  0  0  0  0  0  0  0  0  0  0
   26.8700   15.1805   34.8184 C   0  0  0  0  0  0  0  0  0  0  0  0
   26.9966   16.3929   35.3938 N   0  0  0  0  0  0  0  0  0  0  0  0
   26.8520   14.9591   33.6051 O   0  0  0  0  0  0  0  0  0  0  0  0
   26.5666   14.1716   35.6496 N   0  0  0  0  0  0  0  0  0  0  0  0
   27.0522   16.4393   36.3756 H   0  0  0  0  0  0  0  0  0  0  0  0
   26.7558   14.2378   36.6134 H   0  0  0  0  0  0  0  0  0  0  0  0
   25.9665   13.0078   35.1053 C   0  0  0  0  0  0  0  0  0  0  0  0
   24.9124   12.5250   36.0334 C   0  0  0  0  0  0  0  0  0  0  0  0
   24.8653   12.8859   37.2198 O   0  0  0  0  0  0  0  0  0  0  0  0
   24.0733   11.6470   35.4861 O   0  0  0  0  0  0  0  0  0  0  0  0
   24.1614   11.4153   34.5824 H   0  0  0  0  0  0  0  0  0  0  0  0
   26.9875   11.8770   35.0052 C   0  0  0  0  0  0  0  0  0  0  0  0
   27.3585   11.5366   33.5538 C   0  0  0  0  0  0  0  0  0  0  0  0
   26.1429   11.3902   32.6451 C   0  0  0  0  0  0  0  0  0  0  0  0
   25.8987   12.0580   31.6052 O   0  0  0  0  0  0  0  0  0  0  0  0
   25.2462   10.4709   33.0046 O   0  0  0  0  0  0  0  0  0  0  0  0
   26.5025   12.7141   31.3172 H   0  0  0  0  0  0  0  0  0  0  0  0
   28.4833   18.0511   34.6104 C   0  0  0  0  0  0  0  0  0  0  0  0
   29.1815   17.9646   33.5082 O   0  0  0  0  0  0  0  0  0  0  0  0
   29.0493   18.6303   35.5222 O   0  0  0  0  0  0  0  0  0  0  0  0
   28.8209   17.5347   32.7578 H   0  0  0  0  0  0  0  0  0  0  0  0
   26.1149   18.6158   35.3155 C   0  0  0  0  0  0  0  0  0  0  0  0
   24.8464   18.9432   34.5103 C   0  0  0  0  0  0  0  0  0  0  0  0
   24.1776   20.1650   35.1534 C   0  0  0  0  0  0  0  0  0  0  0  0
   22.7493   20.3624   34.7058 C   0  0  0  0  0  0  0  0  0  0  0  0
   20.9259   19.0588   33.1568 O   0  0  0  0  0  0  0  0  0  0  0  0
   20.9723   18.6931   34.3131 C   0  0  0  0  0  0  0  0  0  0  0  0
   20.0603   17.5904   34.7775 C   0  0  0  0  0  0  0  0  0  0  0  0
   21.8028   19.3160   35.1371 N   0  0  0  0  0  0  0  0  0  0  0  0
   21.7594   19.2059   36.5899 C   0  0  0  0  0  0  0  0  0  0  0  0
   23.6069   18.7920   38.1963 C   0  0  0  0  0  0  0  0  0  0  0  0
   24.7296   16.6936   38.2454 C   0  0  0  0  0  0  0  0  0  0  0  0
   23.9040   16.2052   37.2135 C   0  0  0  0  0  0  0  0  0  0  0  0
   22.7510   18.2847   37.1961 C   0  0  0  0  0  0  0  0  0  0  0  0
   22.8929   17.0112   36.6911 C   0  0  0  0  0  0  0  0  0  0  0  0
   26.1584   15.6472   39.0135 Br  0  0  0  0  0  0  0  0  0  0  0  0
   24.6083   17.9780   38.7597 C   0  0  0  0  0  0  0  0  0  0  0  0
 21 19  2  0  0  0
 20 19  1  0  0  0
 19  1  1  0  0  0
  1  3  1  0  0  0
  1 23  1  0  0  0
  3  2  1  0  0  0
  2  5  1  0  0  0
  2  4  2  0  0  0
 23 24  1  0  0  0
 24 25  1  0  0  0
  5  8  1  0  0  0
 34 36  2  0  0  0
 34 33  1  0  0  0
 36 35  1  0  0  0
 25 26  1  0  0  0
 37 33  1  0  0  0
 26 30  1  0  0  0
 33 38  2  0  0  0
  8 13  1  0  0  0
  8  9  1  0  0  0
 13 14  1  0  0  0
 35 31  1  0  0  0
 35 32  2  0  0  0
 14 15  1  0  0  0
 31 30  1  0  0  0
 17 15  2  0  0  0
 30 28  1  0  0  0
  9 10  2  0  0  0
  9 11  1  0  0  0
 15 16  1  0  0  0
 38 32  1  0  0  0
 28 27  2  0  0  0
 28 29  1  0  0  0
 20 22  1  0  0  0
  3  6  1  0  0  0
  5  7  1  0  0  0
 11 12  1  0  0  0
 16 18  1  0  0  0
M  END
> <minimizedAffinity>
-9.06819

$$$$
4NGM_JB7_A_821


 38 38  0  0  0  0  0  0  0  0999 V2000
   22.4673   19.0231   36.0179 C   0  0  0  0  0  0  0  0  0  0  0  0
   20.0948   19.3958   36.4381 C   0  0  0  0  0  0  0  0  0  0  0  0
   21.3889   19.7317   36.6097 N   0  0  0  0  0  0  0  0  0  0  0  0
   19.6836   18.4151   35.8130 O   0  0  0  0  0  0  0  0  0  0  0  0
   19.1988   20.3103   36.8400 N   0  0  0  0  0  0  0  0  0  0  0  0
   21.5973   20.5099   37.1755 H   0  0  0  0  0  0  0  0  0  0  0  0
   19.4418   20.9977   37.5016 H   0  0  0  0  0  0  0  0  0  0  0  0
   17.8934   20.2622   36.2883 C   0  0  0  0  0  0  0  0  0  0  0  0
   17.8355   21.1494   35.0988 C   0  0  0  0  0  0  0  0  0  0  0  0
   17.0054   22.0669   35.0025 O   0  0  0  0  0  0  0  0  0  0  0  0
   18.7131   20.8336   34.1476 O   0  0  0  0  0  0  0  0  0  0  0  0
   19.3154   20.1283   34.2812 H   0  0  0  0  0  0  0  0  0  0  0  0
   16.8738   20.8204   37.2782 C   0  0  0  0  0  0  0  0  0  0  0  0
   16.2710   19.7376   38.1860 C   0  0  0  0  0  0  0  0  0  0  0  0
   15.2369   20.2852   39.1636 C   0  0  0  0  0  0  0  0  0  0  0  0
   14.0696   20.6681   38.8846 O   0  0  0  0  0  0  0  0  0  0  0  0
   15.6221   20.3791   40.4369 O   0  0  0  0  0  0  0  0  0  0  0  0
   13.7589   20.6193   38.0020 H   0  0  0  0  0  0  0  0  0  0  0  0
   22.5148   19.3810   34.5644 C   0  0  0  0  0  0  0  0  0  0  0  0
   21.4643   19.2412   33.7985 O   0  0  0  0  0  0  0  0  0  0  0  0
   23.4599   19.9349   34.0286 O   0  0  0  0  0  0  0  0  0  0  0  0
   20.6934   18.8257   34.1318 H   0  0  0  0  0  0  0  0  0  0  0  0
   22.2709   17.5319   36.2809 C   0  0  0  0  0  0  0  0  0  0  0  0
   23.1615   16.6003   35.4420 C   0  0  0  0  0  0  0  0  0  0  0  0
   23.4957   15.3688   36.2936 C   0  0  0  0  0  0  0  0  0  0  0  0
   24.5960   14.5208   35.7022 C   0  0  0  0  0  0  0  0  0  0  0  0
   24.4588   12.1778   37.0860 O   0  0  0  0  0  0  0  0  0  0  0  0
   25.4674   12.8264   37.2732 C   0  0  0  0  0  0  0  0  0  0  0  0
   26.5202   12.3028   38.2118 C   0  0  0  0  0  0  0  0  0  0  0  0
   25.5810   14.0010   36.6698 N   0  0  0  0  0  0  0  0  0  0  0  0
   26.5668   15.0158   37.0205 C   0  0  0  0  0  0  0  0  0  0  0  0
   25.9417   15.3586   39.3989 C   0  0  0  0  0  0  0  0  0  0  0  0
   25.3174   17.5134   40.1946 C   0  0  0  0  0  0  0  0  0  0  0  0
   25.5206   18.0667   38.9150 C   0  0  0  0  0  0  0  0  0  0  0  0
   26.1896   15.9242   38.1304 C   0  0  0  0  0  0  0  0  0  0  0  0
   25.9746   17.2599   37.8721 C   0  0  0  0  0  0  0  0  0  0  0  0
   24.6793   18.5583   41.6870 Br  0  0  0  0  0  0  0  0  0  0  0  0
   25.5188   16.1673   40.4712 C   0  0  0  0  0  0  0  0  0  0  0  0
 21 19  2  0  0  0
 20 19  1  0  0  0
 19  1  1  0  0  0
  1  3  1  0  0  0
  1 23  1  0  0  0
  3  2  1  0  0  0
  2  5  1  0  0  0
  2  4  2  0  0  0
 23 24  1  0  0  0
 24 25  1  0  0  0
  5  8  1  0  0  0
 34 36  2  0  0  0
 34 33  1  0  0  0
 36 35  1  0  0  0
 25 26  1  0  0  0
 37 33  1  0  0  0
 26 30  1  0  0  0
 33 38  2  0  0  0
  8 13  1  0  0  0
  8  9  1  0  0  0
 13 14  1  0  0  0
 35 31  1  0  0  0
 35 32  2  0  0  0
 14 15  1  0  0  0
 31 30  1  0  0  0
 17 15  2  0  0  0
 30 28  1  0  0  0
  9 10  2  0  0  0
  9 11  1  0  0  0
 15 16  1  0  0  0
 38 32  1  0  0  0
 28 27  2  0  0  0
 28 29  1  0  0  0
 20 22  1  0  0  0
  3  6  1  0  0  0
  5  7  1  0  0  0
 11 12  1  0  0  0
 16 18  1  0  0  0
M  END
> <minimizedAffinity>
-8.96453

$$$$
