1DUD_DUD_A_153


 29 30  0  0  0  0  0  0  0  0999 V2000
   -6.6734   36.4896   33.3152 C   0  0  0  0  0  0  0  0  0  0  0  0
   -6.5256   36.8243   34.7881 C   0  0  0  0  0  0  0  0  0  0  0  0
   -7.6637   37.7515   35.1320 C   0  0  0  0  0  0  0  0  0  0  0  0
   -8.7312   37.4410   34.0808 C   0  0  0  0  0  0  0  0  0  0  0  0
   -7.9900   36.9735   32.9160 O   0  0  0  0  0  0  0  0  0  0  0  0
   -8.1591   37.4300   36.4158 O   0  0  0  0  0  0  0  0  0  0  0  0
   -8.4284   36.4983   36.4344 H   0  0  0  0  0  0  0  0  0  0  0  0
   -5.6264   37.1602   32.4600 N   0  0  0  0  0  0  0  0  0  0  0  0
   -5.0924   36.4826   31.3843 C   0  0  0  0  0  0  0  0  0  0  0  0
   -4.1441   37.1283   30.6621 N   0  0  0  0  0  0  0  0  0  0  0  0
   -3.6988   38.4228   30.8908 C   0  0  0  0  0  0  0  0  0  0  0  0
   -4.2858   39.0565   32.0211 C   0  0  0  0  0  0  0  0  0  0  0  0
   -5.2083   38.4286   32.7722 C   0  0  0  0  0  0  0  0  0  0  0  0
   -5.4138   35.3270   31.0573 O   0  0  0  0  0  0  0  0  0  0  0  0
   -2.8056   38.8906   30.1943 O   0  0  0  0  0  0  0  0  0  0  0  0
   -3.7369   36.6376   29.9120 H   0  0  0  0  0  0  0  0  0  0  0  0
   -9.5383   38.7033   33.7464 C   0  0  0  0  0  0  0  0  0  0  0  0
  -10.0032   39.3982   34.9500 O   0  0  0  0  0  0  0  0  0  0  0  0
  -10.1396   40.9998   35.1561 P   0  0  0  0  0  0  0  0  0  0  0  0
   -9.0735   41.4191   36.0874 O   0  0  0  0  0  0  0  0  0  0  0  0
  -10.2933   41.7189   33.8457 O   0  0  0  0  0  0  0  0  0  0  0  0
   -9.5006   41.5782   33.3048 H   0  0  0  0  0  0  0  0  0  0  0  0
  -11.5000   41.2907   35.9833 O   0  0  0  0  0  0  0  0  0  0  0  0
  -11.9523   42.1302   37.3052 P   0  0  0  0  0  0  0  0  0  0  0  0
  -12.3148   41.2114   38.4218 O   0  0  0  0  0  0  0  0  0  0  0  0
  -12.9855   43.0580   36.7870 O   0  0  0  0  0  0  0  0  0  0  0  0
  -10.6288   43.0518   37.7426 O   0  0  0  0  0  0  0  0  0  0  0  0
  -13.7705   42.5530   36.5231 H   0  0  0  0  0  0  0  0  0  0  0  0
   -9.9312   42.4727   38.0874 H   0  0  0  0  0  0  0  0  0  0  0  0
  8  9  1  0  0  0
  8 13  1  0  0  0
  8  1  1  0  0  0
  9 10  1  0  0  0
  9 14  2  0  0  0
 10 11  1  0  0  0
 11 12  1  0  0  0
 11 15  2  0  0  0
 12 13  2  0  0  0
  1  2  1  0  0  0
  1  5  1  0  0  0
  2  3  1  0  0  0
  3  4  1  0  0  0
  3  6  1  0  0  0
  4  5  1  0  0  0
  4 17  1  0  0  0
 17 18  1  0  0  0
 18 19  1  0  0  0
 19 20  2  0  0  0
 19 21  1  0  0  0
 19 23  1  0  0  0
 23 24  1  0  0  0
 24 25  2  0  0  0
 24 26  1  0  0  0
 24 27  1  0  0  0
 10 16  1  0  0  0
  6  7  1  0  0  0
 21 22  1  0  0  0
 26 28  1  0  0  0
 27 29  1  0  0  0
M  END
> <minimizedAffinity>
-8.25877

$$$$
1DUD_DUD_A_153


 29 30  0  0  0  0  0  0  0  0999 V2000
   -6.3168   36.4070   33.7185 C   0  0  0  0  0  0  0  0  0  0  0  0
   -6.1079   36.9087   35.1355 C   0  0  0  0  0  0  0  0  0  0  0  0
   -7.3120   37.7512   35.4725 C   0  0  0  0  0  0  0  0  0  0  0  0
   -8.4081   37.2279   34.5420 C   0  0  0  0  0  0  0  0  0  0  0  0
   -7.7005   36.7145   33.3756 O   0  0  0  0  0  0  0  0  0  0  0  0
   -7.6847   37.5205   36.8159 O   0  0  0  0  0  0  0  0  0  0  0  0
   -7.8525   36.5741   36.9470 H   0  0  0  0  0  0  0  0  0  0  0  0
   -5.4051   37.0825   32.7237 N   0  0  0  0  0  0  0  0  0  0  0  0
   -4.7929   36.3298   31.7438 C   0  0  0  0  0  0  0  0  0  0  0  0
   -3.9721   36.9875   30.8883 N   0  0  0  0  0  0  0  0  0  0  0  0
   -3.7309   38.3543   30.8928 C   0  0  0  0  0  0  0  0  0  0  0  0
   -4.3875   39.0648   31.9358 C   0  0  0  0  0  0  0  0  0  0  0  0
   -5.1850   38.4331   32.8158 C   0  0  0  0  0  0  0  0  0  0  0  0
   -4.9354   35.1015   31.6152 O   0  0  0  0  0  0  0  0  0  0  0  0
   -2.9362   38.8341   30.0928 O   0  0  0  0  0  0  0  0  0  0  0  0
   -3.5079   36.4502   30.2064 H   0  0  0  0  0  0  0  0  0  0  0  0
   -9.3639   38.3625   34.1476 C   0  0  0  0  0  0  0  0  0  0  0  0
   -8.7036   39.3835   33.3294 O   0  0  0  0  0  0  0  0  0  0  0  0
   -8.6859   40.9816   33.5968 P   0  0  0  0  0  0  0  0  0  0  0  0
   -9.3663   41.2229   34.8846 O   0  0  0  0  0  0  0  0  0  0  0  0
   -7.3226   41.5699   33.3663 O   0  0  0  0  0  0  0  0  0  0  0  0
   -6.6921   41.1798   33.9917 H   0  0  0  0  0  0  0  0  0  0  0  0
   -9.6616   41.6878   32.5157 O   0  0  0  0  0  0  0  0  0  0  0  0
  -11.2561   41.7388   32.1817 P   0  0  0  0  0  0  0  0  0  0  0  0
  -11.5098   41.4325   30.7449 O   0  0  0  0  0  0  0  0  0  0  0  0
  -11.6766   43.0582   32.7100 O   0  0  0  0  0  0  0  0  0  0  0  0
  -11.9667   40.5686   33.1399 O   0  0  0  0  0  0  0  0  0  0  0  0
  -11.2798   43.7625   32.1739 H   0  0  0  0  0  0  0  0  0  0  0  0
  -11.7108   39.6894   32.8199 H   0  0  0  0  0  0  0  0  0  0  0  0
  8  9  1  0  0  0
  8 13  1  0  0  0
  8  1  1  0  0  0
  9 10  1  0  0  0
  9 14  2  0  0  0
 10 11  1  0  0  0
 11 12  1  0  0  0
 11 15  2  0  0  0
 12 13  2  0  0  0
  1  2  1  0  0  0
  1  5  1  0  0  0
  2  3  1  0  0  0
  3  4  1  0  0  0
  3  6  1  0  0  0
  4  5  1  0  0  0
  4 17  1  0  0  0
 17 18  1  0  0  0
 18 19  1  0  0  0
 19 20  2  0  0  0
 19 21  1  0  0  0
 19 23  1  0  0  0
 23 24  1  0  0  0
 24 25  2  0  0  0
 24 26  1  0  0  0
 24 27  1  0  0  0
 10 16  1  0  0  0
  6  7  1  0  0  0
 21 22  1  0  0  0
 26 28  1  0  0  0
 27 29  1  0  0  0
M  END
> <minimizedAffinity>
-8.16271

$$$$
1DUD_DUD_A_153


 29 30  0  0  0  0  0  0  0  0999 V2000
   -6.5364   36.3907   33.4526 C   0  0  0  0  0  0  0  0  0  0  0  0
   -6.4102   36.8338   34.8987 C   0  0  0  0  0  0  0  0  0  0  0  0
   -7.6153   37.6920   35.1894 C   0  0  0  0  0  0  0  0  0  0  0  0
   -8.6589   37.2306   34.1702 C   0  0  0  0  0  0  0  0  0  0  0  0
   -7.8876   36.7442   33.0330 O   0  0  0  0  0  0  0  0  0  0  0  0
   -8.0804   37.4203   36.4959 O   0  0  0  0  0  0  0  0  0  0  0  0
   -8.2770   36.4740   36.5788 H   0  0  0  0  0  0  0  0  0  0  0  0
   -5.5468   37.0807   32.5461 N   0  0  0  0  0  0  0  0  0  0  0  0
   -4.9967   36.3873   31.4887 C   0  0  0  0  0  0  0  0  0  0  0  0
   -4.1016   37.0529   30.7181 N   0  0  0  0  0  0  0  0  0  0  0  0
   -3.7265   38.3792   30.8810 C   0  0  0  0  0  0  0  0  0  0  0  0
   -4.3259   39.0282   31.9960 C   0  0  0  0  0  0  0  0  0  0  0  0
   -5.1957   38.3831   32.7940 C   0  0  0  0  0  0  0  0  0  0  0  0
   -5.2580   35.2022   31.2189 O   0  0  0  0  0  0  0  0  0  0  0  0
   -2.8758   38.8653   30.1449 O   0  0  0  0  0  0  0  0  0  0  0  0
   -3.6821   36.5532   29.9808 H   0  0  0  0  0  0  0  0  0  0  0  0
   -9.5619   38.4020   33.7591 C   0  0  0  0  0  0  0  0  0  0  0  0
   -9.9921   39.2001   34.9105 O   0  0  0  0  0  0  0  0  0  0  0  0
  -10.4449   40.7560   34.9000 P   0  0  0  0  0  0  0  0  0  0  0  0
  -11.2843   40.9813   36.0934 O   0  0  0  0  0  0  0  0  0  0  0  0
   -9.2836   41.6724   34.6367 O   0  0  0  0  0  0  0  0  0  0  0  0
   -8.6316   41.5809   35.3490 H   0  0  0  0  0  0  0  0  0  0  0  0
  -11.4717   40.9772   33.6686 O   0  0  0  0  0  0  0  0  0  0  0  0
  -11.6595   42.0145   32.4254 P   0  0  0  0  0  0  0  0  0  0  0  0
  -12.7323   41.5495   31.5007 O   0  0  0  0  0  0  0  0  0  0  0  0
  -10.2843   42.1687   31.8949 O   0  0  0  0  0  0  0  0  0  0  0  0
  -12.0984   43.4764   33.1057 O   0  0  0  0  0  0  0  0  0  0  0  0
   -9.9979   41.3344   31.4914 H   0  0  0  0  0  0  0  0  0  0  0  0
  -12.9973   43.4095   33.4639 H   0  0  0  0  0  0  0  0  0  0  0  0
  8  9  1  0  0  0
  8 13  1  0  0  0
  8  1  1  0  0  0
  9 10  1  0  0  0
  9 14  2  0  0  0
 10 11  1  0  0  0
 11 12  1  0  0  0
 11 15  2  0  0  0
 12 13  2  0  0  0
  1  2  1  0  0  0
  1  5  1  0  0  0
  2  3  1  0  0  0
  3  4  1  0  0  0
  3  6  1  0  0  0
  4  5  1  0  0  0
  4 17  1  0  0  0
 17 18  1  0  0  0
 18 19  1  0  0  0
 19 20  2  0  0  0
 19 21  1  0  0  0
 19 23  1  0  0  0
 23 24  1  0  0  0
 24 25  2  0  0  0
 24 26  1  0  0  0
 24 27  1  0  0  0
 10 16  1  0  0  0
  6  7  1  0  0  0
 21 22  1  0  0  0
 26 28  1  0  0  0
 27 29  1  0  0  0
M  END
> <minimizedAffinity>
-8.09508

$$$$
1DUD_DUD_A_153


 29 30  0  0  0  0  0  0  0  0999 V2000
   -8.5873   39.6819   33.5229 C   0  0  0  0  0  0  0  0  0  0  0  0
   -8.8007   39.2011   34.9466 C   0  0  0  0  0  0  0  0  0  0  0  0
   -8.4454   37.7360   34.9607 C   0  0  0  0  0  0  0  0  0  0  0  0
   -7.4912   37.5700   33.7763 C   0  0  0  0  0  0  0  0  0  0  0  0
   -7.8747   38.6129   32.8328 O   0  0  0  0  0  0  0  0  0  0  0  0
   -7.7645   37.4300   36.1606 O   0  0  0  0  0  0  0  0  0  0  0  0
   -6.9815   37.9968   36.2416 H   0  0  0  0  0  0  0  0  0  0  0  0
   -9.8849   39.9499   32.8006 N   0  0  0  0  0  0  0  0  0  0  0  0
  -10.0518   41.1394   32.1235 C   0  0  0  0  0  0  0  0  0  0  0  0
  -11.2438   41.3322   31.5071 N   0  0  0  0  0  0  0  0  0  0  0  0
  -12.2882   40.4189   31.4678 C   0  0  0  0  0  0  0  0  0  0  0  0
  -12.0496   39.2197   32.1948 C   0  0  0  0  0  0  0  0  0  0  0  0
  -10.8869   39.0141   32.8394 C   0  0  0  0  0  0  0  0  0  0  0  0
   -9.1923   42.0356   32.0634 O   0  0  0  0  0  0  0  0  0  0  0  0
  -13.3379   40.7192   30.9113 O   0  0  0  0  0  0  0  0  0  0  0  0
  -11.3802   42.1927   31.0486 H   0  0  0  0  0  0  0  0  0  0  0  0
   -7.6512   36.1780   33.1493 C   0  0  0  0  0  0  0  0  0  0  0  0
   -6.3719   35.4723   33.0339 O   0  0  0  0  0  0  0  0  0  0  0  0
   -5.4411   35.3571   31.7124 P   0  0  0  0  0  0  0  0  0  0  0  0
   -4.0771   35.0125   32.1599 O   0  0  0  0  0  0  0  0  0  0  0  0
   -6.0932   34.5280   30.6423 O   0  0  0  0  0  0  0  0  0  0  0  0
   -6.2216   33.6232   30.9675 H   0  0  0  0  0  0  0  0  0  0  0  0
   -5.2693   36.8380   31.0823 O   0  0  0  0  0  0  0  0  0  0  0  0
   -4.2232   38.0829   31.1939 P   0  0  0  0  0  0  0  0  0  0  0  0
   -3.9523   38.6734   29.8521 O   0  0  0  0  0  0  0  0  0  0  0  0
   -3.0894   37.5125   31.9592 O   0  0  0  0  0  0  0  0  0  0  0  0
   -4.9615   39.2207   32.1701 O   0  0  0  0  0  0  0  0  0  0  0  0
   -2.6375   36.8457   31.4188 H   0  0  0  0  0  0  0  0  0  0  0  0
   -5.7110   39.6150   31.6972 H   0  0  0  0  0  0  0  0  0  0  0  0
  8  9  1  0  0  0
  8 13  1  0  0  0
  8  1  1  0  0  0
  9 10  1  0  0  0
  9 14  2  0  0  0
 10 11  1  0  0  0
 11 12  1  0  0  0
 11 15  2  0  0  0
 12 13  2  0  0  0
  1  2  1  0  0  0
  1  5  1  0  0  0
  2  3  1  0  0  0
  3  4  1  0  0  0
  3  6  1  0  0  0
  4  5  1  0  0  0
  4 17  1  0  0  0
 17 18  1  0  0  0
 18 19  1  0  0  0
 19 20  2  0  0  0
 19 21  1  0  0  0
 19 23  1  0  0  0
 23 24  1  0  0  0
 24 25  2  0  0  0
 24 26  1  0  0  0
 24 27  1  0  0  0
 10 16  1  0  0  0
  6  7  1  0  0  0
 21 22  1  0  0  0
 26 28  1  0  0  0
 27 29  1  0  0  0
M  END
> <minimizedAffinity>
-7.42433

$$$$
1DUD_DUD_A_153


 29 30  0  0  0  0  0  0  0  0999 V2000
   -7.1240   36.1551   33.4376 C   0  0  0  0  0  0  0  0  0  0  0  0
   -6.7981   37.3349   34.3349 C   0  0  0  0  0  0  0  0  0  0  0  0
   -8.0061   38.2368   34.3107 C   0  0  0  0  0  0  0  0  0  0  0  0
   -9.1615   37.3062   33.9369 C   0  0  0  0  0  0  0  0  0  0  0  0
   -8.5508   36.2430   33.1486 O   0  0  0  0  0  0  0  0  0  0  0  0
   -8.2245   38.7631   35.6038 O   0  0  0  0  0  0  0  0  0  0  0  0
   -8.3248   38.0347   36.2366 H   0  0  0  0  0  0  0  0  0  0  0  0
   -6.3592   36.1867   32.1371 N   0  0  0  0  0  0  0  0  0  0  0  0
   -5.1335   35.5603   32.0550 C   0  0  0  0  0  0  0  0  0  0  0  0
   -4.4847   35.6356   30.8669 N   0  0  0  0  0  0  0  0  0  0  0  0
   -4.9685   36.2527   29.7218 C   0  0  0  0  0  0  0  0  0  0  0  0
   -6.2326   36.8851   29.8827 C   0  0  0  0  0  0  0  0  0  0  0  0
   -6.8854   36.8505   31.0584 C   0  0  0  0  0  0  0  0  0  0  0  0
   -4.5926   34.9572   32.9980 O   0  0  0  0  0  0  0  0  0  0  0  0
   -4.2742   36.2920   28.7127 O   0  0  0  0  0  0  0  0  0  0  0  0
   -3.5952   35.2171   30.8119 H   0  0  0  0  0  0  0  0  0  0  0  0
  -10.2148   38.0619   33.1147 C   0  0  0  0  0  0  0  0  0  0  0  0
   -9.6599   39.2518   32.4637 O   0  0  0  0  0  0  0  0  0  0  0  0
  -10.0638   40.7946   32.7513 P   0  0  0  0  0  0  0  0  0  0  0  0
   -8.9717   41.6424   32.2334 O   0  0  0  0  0  0  0  0  0  0  0  0
  -11.4783   41.0866   32.3369 O   0  0  0  0  0  0  0  0  0  0  0  0
  -11.5692   40.9526   31.3805 H   0  0  0  0  0  0  0  0  0  0  0  0
  -10.0100   41.0437   34.3496 O   0  0  0  0  0  0  0  0  0  0  0  0
  -11.0614   41.1475   35.5907 P   0  0  0  0  0  0  0  0  0  0  0  0
  -12.3712   41.6949   35.1353 O   0  0  0  0  0  0  0  0  0  0  0  0
  -10.3027   41.8921   36.6235 O   0  0  0  0  0  0  0  0  0  0  0  0
  -11.2689   39.5874   36.1524 O   0  0  0  0  0  0  0  0  0  0  0  0
  -10.1646   42.8055   36.3275 H   0  0  0  0  0  0  0  0  0  0  0  0
  -11.7640   39.0711   35.4974 H   0  0  0  0  0  0  0  0  0  0  0  0
  8  9  1  0  0  0
  8 13  1  0  0  0
  8  1  1  0  0  0
  9 10  1  0  0  0
  9 14  2  0  0  0
 10 11  1  0  0  0
 11 12  1  0  0  0
 11 15  2  0  0  0
 12 13  2  0  0  0
  1  2  1  0  0  0
  1  5  1  0  0  0
  2  3  1  0  0  0
  3  4  1  0  0  0
  3  6  1  0  0  0
  4  5  1  0  0  0
  4 17  1  0  0  0
 17 18  1  0  0  0
 18 19  1  0  0  0
 19 20  2  0  0  0
 19 21  1  0  0  0
 19 23  1  0  0  0
 23 24  1  0  0  0
 24 25  2  0  0  0
 24 26  1  0  0  0
 24 27  1  0  0  0
 10 16  1  0  0  0
  6  7  1  0  0  0
 21 22  1  0  0  0
 26 28  1  0  0  0
 27 29  1  0  0  0
M  END
> <minimizedAffinity>
-7.40255

$$$$
1DUD_DUD_A_153


 29 30  0  0  0  0  0  0  0  0999 V2000
  -10.6690   41.4959   32.7961 C   0  0  0  0  0  0  0  0  0  0  0  0
  -11.7762   41.1208   31.8283 C   0  0  0  0  0  0  0  0  0  0  0  0
  -13.0248   40.9448   32.6547 C   0  0  0  0  0  0  0  0  0  0  0  0
  -12.7690   41.7885   33.9051 C   0  0  0  0  0  0  0  0  0  0  0  0
  -11.3203   41.7966   34.0659 O   0  0  0  0  0  0  0  0  0  0  0  0
  -14.1315   41.4701   31.9502 O   0  0  0  0  0  0  0  0  0  0  0  0
  -13.9647   42.4008   31.7337 H   0  0  0  0  0  0  0  0  0  0  0  0
   -9.6794   40.3765   33.0075 N   0  0  0  0  0  0  0  0  0  0  0  0
   -8.3487   40.6758   33.2102 C   0  0  0  0  0  0  0  0  0  0  0  0
   -7.5032   39.6294   33.3779 N   0  0  0  0  0  0  0  0  0  0  0  0
   -7.8715   38.2914   33.4029 C   0  0  0  0  0  0  0  0  0  0  0  0
   -9.2565   38.0574   33.1780 C   0  0  0  0  0  0  0  0  0  0  0  0
  -10.1131   39.0756   32.9803 C   0  0  0  0  0  0  0  0  0  0  0  0
   -7.8874   41.8302   33.2292 O   0  0  0  0  0  0  0  0  0  0  0  0
   -7.0118   37.4263   33.5229 O   0  0  0  0  0  0  0  0  0  0  0  0
   -6.5474   39.8360   33.4916 H   0  0  0  0  0  0  0  0  0  0  0  0
  -13.4524   41.1583   35.1267 C   0  0  0  0  0  0  0  0  0  0  0  0
  -12.6659   41.3303   36.3513 O   0  0  0  0  0  0  0  0  0  0  0  0
  -13.2347   41.4379   37.8648 P   0  0  0  0  0  0  0  0  0  0  0  0
  -12.0760   41.6177   38.7619 O   0  0  0  0  0  0  0  0  0  0  0  0
  -14.3903   42.3937   37.9589 O   0  0  0  0  0  0  0  0  0  0  0  0
  -14.0943   43.2840   37.7128 H   0  0  0  0  0  0  0  0  0  0  0  0
  -13.8211   39.9906   38.2905 O   0  0  0  0  0  0  0  0  0  0  0  0
  -13.2619   38.4723   38.4869 P   0  0  0  0  0  0  0  0  0  0  0  0
  -14.3631   37.4768   38.3501 O   0  0  0  0  0  0  0  0  0  0  0  0
  -12.5236   38.5406   39.7702 O   0  0  0  0  0  0  0  0  0  0  0  0
  -12.1354   38.2345   37.2757 O   0  0  0  0  0  0  0  0  0  0  0  0
  -13.1509   38.6786   40.4971 H   0  0  0  0  0  0  0  0  0  0  0  0
  -12.5874   38.1850   36.4189 H   0  0  0  0  0  0  0  0  0  0  0  0
  8  9  1  0  0  0
  8 13  1  0  0  0
  8  1  1  0  0  0
  9 10  1  0  0  0
  9 14  2  0  0  0
 10 11  1  0  0  0
 11 12  1  0  0  0
 11 15  2  0  0  0
 12 13  2  0  0  0
  1  2  1  0  0  0
  1  5  1  0  0  0
  2  3  1  0  0  0
  3  4  1  0  0  0
  3  6  1  0  0  0
  4  5  1  0  0  0
  4 17  1  0  0  0
 17 18  1  0  0  0
 18 19  1  0  0  0
 19 20  2  0  0  0
 19 21  1  0  0  0
 19 23  1  0  0  0
 23 24  1  0  0  0
 24 25  2  0  0  0
 24 26  1  0  0  0
 24 27  1  0  0  0
 10 16  1  0  0  0
  6  7  1  0  0  0
 21 22  1  0  0  0
 26 28  1  0  0  0
 27 29  1  0  0  0
M  END
> <minimizedAffinity>
-7.31664

$$$$
1DUD_DUD_A_153


 29 30  0  0  0  0  0  0  0  0999 V2000
  -13.4712   40.1426   37.5491 C   0  0  0  0  0  0  0  0  0  0  0  0
  -12.4790   41.2819   37.6944 C   0  0  0  0  0  0  0  0  0  0  0  0
  -12.4135   41.9654   36.3521 C   0  0  0  0  0  0  0  0  0  0  0  0
  -13.7519   41.6264   35.6929 C   0  0  0  0  0  0  0  0  0  0  0  0
  -14.1459   40.3483   36.2726 O   0  0  0  0  0  0  0  0  0  0  0  0
  -12.3222   43.3628   36.5414 O   0  0  0  0  0  0  0  0  0  0  0  0
  -13.0761   43.6674   37.0702 H   0  0  0  0  0  0  0  0  0  0  0  0
  -12.8031   38.7897   37.5363 N   0  0  0  0  0  0  0  0  0  0  0  0
  -12.5342   38.1539   38.7301 C   0  0  0  0  0  0  0  0  0  0  0  0
  -11.9181   36.9484   38.6578 N   0  0  0  0  0  0  0  0  0  0  0  0
  -11.5747   36.2875   37.4867 C   0  0  0  0  0  0  0  0  0  0  0  0
  -11.8730   37.0059   36.2957 C   0  0  0  0  0  0  0  0  0  0  0  0
  -12.4581   38.2164   36.3391 C   0  0  0  0  0  0  0  0  0  0  0  0
  -12.8044   38.6247   39.8485 O   0  0  0  0  0  0  0  0  0  0  0  0
  -10.9834   35.2157   37.5444 O   0  0  0  0  0  0  0  0  0  0  0  0
  -11.6954   36.5044   39.5078 H   0  0  0  0  0  0  0  0  0  0  0  0
  -13.5864   41.5100   34.1712 C   0  0  0  0  0  0  0  0  0  0  0  0
  -12.2902   42.0193   33.7147 O   0  0  0  0  0  0  0  0  0  0  0  0
  -11.2605   41.2865   32.7004 P   0  0  0  0  0  0  0  0  0  0  0  0
  -11.3007   39.8407   32.9963 O   0  0  0  0  0  0  0  0  0  0  0  0
  -11.4491   41.7506   31.2838 O   0  0  0  0  0  0  0  0  0  0  0  0
  -12.3419   41.5188   30.9837 H   0  0  0  0  0  0  0  0  0  0  0  0
   -9.7543   41.7143   33.1100 O   0  0  0  0  0  0  0  0  0  0  0  0
   -8.5467   41.1373   34.0403 P   0  0  0  0  0  0  0  0  0  0  0  0
   -8.7983   41.4276   35.4807 O   0  0  0  0  0  0  0  0  0  0  0  0
   -7.3279   41.6945   33.4073 O   0  0  0  0  0  0  0  0  0  0  0  0
   -8.5243   39.4843   33.7956 O   0  0  0  0  0  0  0  0  0  0  0  0
   -7.3100   42.6564   33.5316 H   0  0  0  0  0  0  0  0  0  0  0  0
   -9.3117   39.0870   34.1993 H   0  0  0  0  0  0  0  0  0  0  0  0
  8  9  1  0  0  0
  8 13  1  0  0  0
  8  1  1  0  0  0
  9 10  1  0  0  0
  9 14  2  0  0  0
 10 11  1  0  0  0
 11 12  1  0  0  0
 11 15  2  0  0  0
 12 13  2  0  0  0
  1  2  1  0  0  0
  1  5  1  0  0  0
  2  3  1  0  0  0
  3  4  1  0  0  0
  3  6  1  0  0  0
  4  5  1  0  0  0
  4 17  1  0  0  0
 17 18  1  0  0  0
 18 19  1  0  0  0
 19 20  2  0  0  0
 19 21  1  0  0  0
 19 23  1  0  0  0
 23 24  1  0  0  0
 24 25  2  0  0  0
 24 26  1  0  0  0
 24 27  1  0  0  0
 10 16  1  0  0  0
  6  7  1  0  0  0
 21 22  1  0  0  0
 26 28  1  0  0  0
 27 29  1  0  0  0
M  END
> <minimizedAffinity>
-7.28072

$$$$
1DUD_DUD_A_153


 29 30  0  0  0  0  0  0  0  0999 V2000
  -13.4738   40.1519   37.2625 C   0  0  0  0  0  0  0  0  0  0  0  0
  -12.5477   41.3102   37.5851 C   0  0  0  0  0  0  0  0  0  0  0  0
  -12.2678   42.0101   36.2793 C   0  0  0  0  0  0  0  0  0  0  0  0
  -13.4646   41.6501   35.3968 C   0  0  0  0  0  0  0  0  0  0  0  0
  -13.9231   40.3575   35.8904 O   0  0  0  0  0  0  0  0  0  0  0  0
  -12.2424   43.4069   36.4918 O   0  0  0  0  0  0  0  0  0  0  0  0
  -13.0829   43.6894   36.8851 H   0  0  0  0  0  0  0  0  0  0  0  0
  -12.7827   38.8136   37.3551 N   0  0  0  0  0  0  0  0  0  0  0  0
  -12.7169   38.1661   38.5707 C   0  0  0  0  0  0  0  0  0  0  0  0
  -12.0698   36.9751   38.5970 N   0  0  0  0  0  0  0  0  0  0  0  0
  -11.5070   36.3389   37.4993 C   0  0  0  0  0  0  0  0  0  0  0  0
  -11.6040   37.0685   36.2820 C   0  0  0  0  0  0  0  0  0  0  0  0
  -12.2157   38.2656   36.2329 C   0  0  0  0  0  0  0  0  0  0  0  0
  -13.1938   38.6144   39.6277 O   0  0  0  0  0  0  0  0  0  0  0  0
  -10.9106   35.2791   37.6505 O   0  0  0  0  0  0  0  0  0  0  0  0
  -11.9925   36.5233   39.4683 H   0  0  0  0  0  0  0  0  0  0  0  0
  -13.0369   41.5544   33.9255 C   0  0  0  0  0  0  0  0  0  0  0  0
  -11.5837   41.6540   33.7638 O   0  0  0  0  0  0  0  0  0  0  0  0
  -10.7031   41.0936   32.5243 P   0  0  0  0  0  0  0  0  0  0  0  0
   -9.5158   41.9616   32.3961 O   0  0  0  0  0  0  0  0  0  0  0  0
  -10.5179   39.6044   32.6009 O   0  0  0  0  0  0  0  0  0  0  0  0
  -10.0292   39.3805   33.4083 H   0  0  0  0  0  0  0  0  0  0  0  0
  -11.5216   41.3683   31.1553 O   0  0  0  0  0  0  0  0  0  0  0  0
  -12.3302   40.4998   30.0379 P   0  0  0  0  0  0  0  0  0  0  0  0
  -12.5523   41.2996   28.7995 O   0  0  0  0  0  0  0  0  0  0  0  0
  -13.5117   39.9992   30.7796 O   0  0  0  0  0  0  0  0  0  0  0  0
  -11.3646   39.1812   29.6899 O   0  0  0  0  0  0  0  0  0  0  0  0
  -14.0953   40.7427   30.9979 H   0  0  0  0  0  0  0  0  0  0  0  0
  -10.5791   39.4752   29.2026 H   0  0  0  0  0  0  0  0  0  0  0  0
  8  9  1  0  0  0
  8 13  1  0  0  0
  8  1  1  0  0  0
  9 10  1  0  0  0
  9 14  2  0  0  0
 10 11  1  0  0  0
 11 12  1  0  0  0
 11 15  2  0  0  0
 12 13  2  0  0  0
  1  2  1  0  0  0
  1  5  1  0  0  0
  2  3  1  0  0  0
  3  4  1  0  0  0
  3  6  1  0  0  0
  4  5  1  0  0  0
  4 17  1  0  0  0
 17 18  1  0  0  0
 18 19  1  0  0  0
 19 20  2  0  0  0
 19 21  1  0  0  0
 19 23  1  0  0  0
 23 24  1  0  0  0
 24 25  2  0  0  0
 24 26  1  0  0  0
 24 27  1  0  0  0
 10 16  1  0  0  0
  6  7  1  0  0  0
 21 22  1  0  0  0
 26 28  1  0  0  0
 27 29  1  0  0  0
M  END
> <minimizedAffinity>
-7.25762

$$$$
1DUD_DUD_A_153


 29 30  0  0  0  0  0  0  0  0999 V2000
   -6.5295   36.8312   31.9427 C   0  0  0  0  0  0  0  0  0  0  0  0
   -6.2353   36.5051   33.3955 C   0  0  0  0  0  0  0  0  0  0  0  0
   -6.9634   37.5356   34.2208 C   0  0  0  0  0  0  0  0  0  0  0  0
   -8.0983   38.0107   33.3115 C   0  0  0  0  0  0  0  0  0  0  0  0
   -7.6002   37.8214   31.9547 O   0  0  0  0  0  0  0  0  0  0  0  0
   -7.5073   36.9176   35.3694 O   0  0  0  0  0  0  0  0  0  0  0  0
   -8.0876   36.1885   35.1001 H   0  0  0  0  0  0  0  0  0  0  0  0
   -5.3355   37.4113   31.2251 N   0  0  0  0  0  0  0  0  0  0  0  0
   -5.1514   37.1412   29.8855 C   0  0  0  0  0  0  0  0  0  0  0  0
   -4.0528   37.6754   29.2975 N   0  0  0  0  0  0  0  0  0  0  0  0
   -3.1259   38.5002   29.9196 C   0  0  0  0  0  0  0  0  0  0  0  0
   -3.3740   38.7276   31.3018 C   0  0  0  0  0  0  0  0  0  0  0  0
   -4.4408   38.1868   31.9174 C   0  0  0  0  0  0  0  0  0  0  0  0
   -5.9133   36.4333   29.2045 O   0  0  0  0  0  0  0  0  0  0  0  0
   -2.1472   38.8938   29.2960 O   0  0  0  0  0  0  0  0  0  0  0  0
   -3.8995   37.4601   28.3491 H   0  0  0  0  0  0  0  0  0  0  0  0
   -8.4159   39.4889   33.5774 C   0  0  0  0  0  0  0  0  0  0  0  0
   -9.7991   39.8288   33.2325 O   0  0  0  0  0  0  0  0  0  0  0  0
  -10.2928   41.0401   32.2758 P   0  0  0  0  0  0  0  0  0  0  0  0
   -9.1402   41.9392   32.0690 O   0  0  0  0  0  0  0  0  0  0  0  0
  -11.0509   40.5331   31.0817 O   0  0  0  0  0  0  0  0  0  0  0  0
  -10.4686   39.9764   30.5415 H   0  0  0  0  0  0  0  0  0  0  0  0
  -11.3382   41.9515   33.1100 O   0  0  0  0  0  0  0  0  0  0  0  0
  -12.4774   41.7387   34.2562 P   0  0  0  0  0  0  0  0  0  0  0  0
  -13.7466   41.2338   33.6590 O   0  0  0  0  0  0  0  0  0  0  0  0
  -12.4969   43.0385   34.9679 O   0  0  0  0  0  0  0  0  0  0  0  0
  -11.8619   40.6005   35.3137 O   0  0  0  0  0  0  0  0  0  0  0  0
  -12.8503   43.7240   34.3796 H   0  0  0  0  0  0  0  0  0  0  0  0
  -11.8355   39.7346   34.8773 H   0  0  0  0  0  0  0  0  0  0  0  0
  8  9  1  0  0  0
  8 13  1  0  0  0
  8  1  1  0  0  0
  9 10  1  0  0  0
  9 14  2  0  0  0
 10 11  1  0  0  0
 11 12  1  0  0  0
 11 15  2  0  0  0
 12 13  2  0  0  0
  1  2  1  0  0  0
  1  5  1  0  0  0
  2  3  1  0  0  0
  3  4  1  0  0  0
  3  6  1  0  0  0
  4  5  1  0  0  0
  4 17  1  0  0  0
 17 18  1  0  0  0
 18 19  1  0  0  0
 19 20  2  0  0  0
 19 21  1  0  0  0
 19 23  1  0  0  0
 23 24  1  0  0  0
 24 25  2  0  0  0
 24 26  1  0  0  0
 24 27  1  0  0  0
 10 16  1  0  0  0
  6  7  1  0  0  0
 21 22  1  0  0  0
 26 28  1  0  0  0
 27 29  1  0  0  0
M  END
> <minimizedAffinity>
-7.22093

$$$$
1DUD_DUD_A_153


 29 30  0  0  0  0  0  0  0  0999 V2000
  -12.4154   41.2169   32.5740 C   0  0  0  0  0  0  0  0  0  0  0  0
  -13.4478   40.4369   31.7808 C   0  0  0  0  0  0  0  0  0  0  0  0
  -14.5619   40.1040   32.7406 C   0  0  0  0  0  0  0  0  0  0  0  0
  -14.4531   41.1752   33.8276 C   0  0  0  0  0  0  0  0  0  0  0  0
  -13.0459   41.5547   33.8449 O   0  0  0  0  0  0  0  0  0  0  0  0
  -15.8041   40.2289   32.0787 O   0  0  0  0  0  0  0  0  0  0  0  0
  -15.8890   41.1249   31.7168 H   0  0  0  0  0  0  0  0  0  0  0  0
  -11.1661   40.4154   32.8460 N   0  0  0  0  0  0  0  0  0  0  0  0
   -9.9349   40.9475   32.5258 C   0  0  0  0  0  0  0  0  0  0  0  0
   -8.8490   40.1757   32.7774 N   0  0  0  0  0  0  0  0  0  0  0  0
   -8.8721   38.9184   33.3648 C   0  0  0  0  0  0  0  0  0  0  0  0
  -10.1752   38.4297   33.6592 C   0  0  0  0  0  0  0  0  0  0  0  0
  -11.2717   39.1625   33.3939 C   0  0  0  0  0  0  0  0  0  0  0  0
   -9.7702   42.0676   32.0121 O   0  0  0  0  0  0  0  0  0  0  0  0
   -7.8269   38.2949   33.5078 O   0  0  0  0  0  0  0  0  0  0  0  0
   -7.9699   40.5377   32.5218 H   0  0  0  0  0  0  0  0  0  0  0  0
  -14.8840   40.6063   35.1867 C   0  0  0  0  0  0  0  0  0  0  0  0
  -14.0185   39.5086   35.6269 O   0  0  0  0  0  0  0  0  0  0  0  0
  -13.0488   39.4962   36.9252 P   0  0  0  0  0  0  0  0  0  0  0  0
  -13.8951   39.7280   38.1125 O   0  0  0  0  0  0  0  0  0  0  0  0
  -12.1127   38.3209   36.9100 O   0  0  0  0  0  0  0  0  0  0  0  0
  -12.6258   37.4984   36.9426 H   0  0  0  0  0  0  0  0  0  0  0  0
  -12.1085   40.8123   36.8686 O   0  0  0  0  0  0  0  0  0  0  0  0
  -12.1827   42.3697   37.3435 P   0  0  0  0  0  0  0  0  0  0  0  0
  -10.8683   42.8274   37.8774 O   0  0  0  0  0  0  0  0  0  0  0  0
  -13.3617   42.4002   38.2411 O   0  0  0  0  0  0  0  0  0  0  0  0
  -12.5727   43.2510   35.9782 O   0  0  0  0  0  0  0  0  0  0  0  0
  -13.1679   41.8957   39.0466 H   0  0  0  0  0  0  0  0  0  0  0  0
  -11.8192   43.2510   35.3673 H   0  0  0  0  0  0  0  0  0  0  0  0
  8  9  1  0  0  0
  8 13  1  0  0  0
  8  1  1  0  0  0
  9 10  1  0  0  0
  9 14  2  0  0  0
 10 11  1  0  0  0
 11 12  1  0  0  0
 11 15  2  0  0  0
 12 13  2  0  0  0
  1  2  1  0  0  0
  1  5  1  0  0  0
  2  3  1  0  0  0
  3  4  1  0  0  0
  3  6  1  0  0  0
  4  5  1  0  0  0
  4 17  1  0  0  0
 17 18  1  0  0  0
 18 19  1  0  0  0
 19 20  2  0  0  0
 19 21  1  0  0  0
 19 23  1  0  0  0
 23 24  1  0  0  0
 24 25  2  0  0  0
 24 26  1  0  0  0
 24 27  1  0  0  0
 10 16  1  0  0  0
  6  7  1  0  0  0
 21 22  1  0  0  0
 26 28  1  0  0  0
 27 29  1  0  0  0
M  END
> <minimizedAffinity>
-7.21314

$$$$
