1GWV_LAT_A_1371


 31 32  0  0  0  0  0  0  0  0999 V2000
    5.6357    8.2921   53.7323 O   0  0  0  0  0  0  0  0  0  0  0  0
    6.1142    8.9380   54.9014 C   0  0  0  0  0  0  0  0  0  0  0  0
    6.5707    7.8953   55.9149 C   0  0  0  0  0  0  0  0  0  0  0  0
    7.1434    8.6115   57.1510 C   0  0  0  0  0  0  0  0  0  0  0  0
    8.3038    9.5267   56.6812 C   0  0  0  0  0  0  0  0  0  0  0  0
    7.7670   10.5389   55.6263 C   0  0  0  0  0  0  0  0  0  0  0  0
    5.4869    7.0416   56.3251 O   0  0  0  0  0  0  0  0  0  0  0  0
    7.5802    7.6468   58.1001 O   0  0  0  0  0  0  0  0  0  0  0  0
    9.3634    8.7539   56.0845 O   0  0  0  0  0  0  0  0  0  0  0  0
    7.1834    9.8133   54.4916 O   0  0  0  0  0  0  0  0  0  0  0  0
    4.7973    7.5758   56.7494 H   0  0  0  0  0  0  0  0  0  0  0  0
    8.2580    7.0814   57.6979 H   0  0  0  0  0  0  0  0  0  0  0  0
    9.0220    8.2820   55.3089 H   0  0  0  0  0  0  0  0  0  0  0  0
    8.7397   11.3511   55.1665 C   0  0  0  0  0  0  0  0  0  0  0  0
    9.1385   10.9165   53.8805 O   0  0  0  0  0  0  0  0  0  0  0  0
    9.4702   10.0066   53.9351 H   0  0  0  0  0  0  0  0  0  0  0  0
    5.0967    9.1812   49.6452 C   0  0  0  0  0  0  0  0  0  0  0  0
    6.5176    9.4468   50.1919 C   0  0  0  0  0  0  0  0  0  0  0  0
    6.6750    8.6188   51.4928 C   0  0  0  0  0  0  0  0  0  0  0  0
    5.5878    9.0591   52.4937 C   0  0  0  0  0  0  0  0  0  0  0  0
    4.1839    8.8642   51.9003 C   0  0  0  0  0  0  0  0  0  0  0  0
    4.9028    9.9128   48.4783 O   0  0  0  0  0  0  0  0  0  0  0  0
    7.5082    9.0509   49.2787 O   0  0  0  0  0  0  0  0  0  0  0  0
    7.9799    8.8250   52.0002 O   0  0  0  0  0  0  0  0  0  0  0  0
    4.0985    9.5806   50.6300 O   0  0  0  0  0  0  0  0  0  0  0  0
    4.9970   10.8589   48.6704 H   0  0  0  0  0  0  0  0  0  0  0  0
    7.4234    8.1011   49.1013 H   0  0  0  0  0  0  0  0  0  0  0  0
    8.1142    9.7700   52.1728 H   0  0  0  0  0  0  0  0  0  0  0  0
    3.0737    9.4074   52.7925 C   0  0  0  0  0  0  0  0  0  0  0  0
    1.9991    9.8863   52.0018 O   0  0  0  0  0  0  0  0  0  0  0  0
    2.3145   10.6003   51.4259 H   0  0  0  0  0  0  0  0  0  0  0  0
  2  3  1  0  0  0
  2  1  1  0  0  0
  2 10  1  0  0  0
  3  4  1  0  0  0
  3  7  1  0  0  0
  4  5  1  0  0  0
  4  8  1  0  0  0
  5  6  1  0  0  0
  5  9  1  0  0  0
  6 14  1  0  0  0
  6 10  1  0  0  0
 14 15  1  0  0  0
  1 20  1  0  0  0
 17 18  1  0  0  0
 17 22  1  0  0  0
 17 25  1  0  0  0
 18 19  1  0  0  0
 18 23  1  0  0  0
 19 20  1  0  0  0
 19 24  1  0  0  0
 20 21  1  0  0  0
 21 29  1  0  0  0
 21 25  1  0  0  0
 29 30  1  0  0  0
  7 11  1  0  0  0
  8 12  1  0  0  0
  9 13  1  0  0  0
 15 16  1  0  0  0
 22 26  1  0  0  0
 23 27  1  0  0  0
 24 28  1  0  0  0
 30 31  1  0  0  0
M  END
> <minimizedAffinity>
-8.28440

$$$$
1GWV_LAT_A_1371


 31 32  0  0  0  0  0  0  0  0999 V2000
    6.7804   10.4396   52.7177 O   0  0  0  0  0  0  0  0  0  0  0  0
    5.6213   10.3217   51.9079 C   0  0  0  0  0  0  0  0  0  0  0  0
    5.4606   11.5740   51.0543 C   0  0  0  0  0  0  0  0  0  0  0  0
    4.2356   11.4052   50.1380 C   0  0  0  0  0  0  0  0  0  0  0  0
    4.4484   10.1297   49.2818 C   0  0  0  0  0  0  0  0  0  0  0  0
    4.6374    8.9032   50.2228 C   0  0  0  0  0  0  0  0  0  0  0  0
    5.2846   12.7509   51.8640 O   0  0  0  0  0  0  0  0  0  0  0  0
    4.0815   12.5657   49.3308 O   0  0  0  0  0  0  0  0  0  0  0  0
    5.6149   10.2562   48.4457 O   0  0  0  0  0  0  0  0  0  0  0  0
    5.7820    9.1301   51.1133 O   0  0  0  0  0  0  0  0  0  0  0  0
    4.4800   12.6588   52.3978 H   0  0  0  0  0  0  0  0  0  0  0  0
    4.8813   12.6975   48.7980 H   0  0  0  0  0  0  0  0  0  0  0  0
    6.4001   10.3772   49.0023 H   0  0  0  0  0  0  0  0  0  0  0  0
    4.8459    7.7649   49.5314 C   0  0  0  0  0  0  0  0  0  0  0  0
    6.2309    7.6203   49.2812 O   0  0  0  0  0  0  0  0  0  0  0  0
    6.5473    8.3790   48.7662 H   0  0  0  0  0  0  0  0  0  0  0  0
    7.7410    9.1091   56.6026 C   0  0  0  0  0  0  0  0  0  0  0  0
    6.4634    8.4879   55.9943 C   0  0  0  0  0  0  0  0  0  0  0  0
    6.5453    8.6733   54.4575 C   0  0  0  0  0  0  0  0  0  0  0  0
    6.6504   10.1798   54.1461 C   0  0  0  0  0  0  0  0  0  0  0  0
    7.8819   10.7966   54.8272 C   0  0  0  0  0  0  0  0  0  0  0  0
    7.7098    8.9759   57.9867 O   0  0  0  0  0  0  0  0  0  0  0  0
    6.3642    7.1170   56.2819 O   0  0  0  0  0  0  0  0  0  0  0  0
    5.3965    8.0883   53.8736 O   0  0  0  0  0  0  0  0  0  0  0  0
    7.8212   10.5243   56.2612 O   0  0  0  0  0  0  0  0  0  0  0  0
    6.9334    9.4389   58.3386 H   0  0  0  0  0  0  0  0  0  0  0  0
    7.1326    6.6531   55.9141 H   0  0  0  0  0  0  0  0  0  0  0  0
    4.6007    8.5119   54.2315 H   0  0  0  0  0  0  0  0  0  0  0  0
    7.9632   12.3102   54.6652 C   0  0  0  0  0  0  0  0  0  0  0  0
    6.7085   12.8279   54.2567 O   0  0  0  0  0  0  0  0  0  0  0  0
    6.4585   12.4356   53.4056 H   0  0  0  0  0  0  0  0  0  0  0  0
  2  3  1  0  0  0
  2  1  1  0  0  0
  2 10  1  0  0  0
  3  4  1  0  0  0
  3  7  1  0  0  0
  4  5  1  0  0  0
  4  8  1  0  0  0
  5  6  1  0  0  0
  5  9  1  0  0  0
  6 14  1  0  0  0
  6 10  1  0  0  0
 14 15  1  0  0  0
  1 20  1  0  0  0
 17 18  1  0  0  0
 17 22  1  0  0  0
 17 25  1  0  0  0
 18 19  1  0  0  0
 18 23  1  0  0  0
 19 20  1  0  0  0
 19 24  1  0  0  0
 20 21  1  0  0  0
 21 29  1  0  0  0
 21 25  1  0  0  0
 29 30  1  0  0  0
  7 11  1  0  0  0
  8 12  1  0  0  0
  9 13  1  0  0  0
 15 16  1  0  0  0
 22 26  1  0  0  0
 23 27  1  0  0  0
 24 28  1  0  0  0
 30 31  1  0  0  0
M  END
> <minimizedAffinity>
-8.13358

$$$$
1GWV_LAT_A_1371


 31 32  0  0  0  0  0  0  0  0999 V2000
    6.3386    8.3559   52.6516 O   0  0  0  0  0  0  0  0  0  0  0  0
    6.6160    9.2148   53.7463 C   0  0  0  0  0  0  0  0  0  0  0  0
    6.6735    8.4034   55.0351 C   0  0  0  0  0  0  0  0  0  0  0  0
    7.0357    9.3381   56.2030 C   0  0  0  0  0  0  0  0  0  0  0  0
    8.3896   10.0180   55.8719 C   0  0  0  0  0  0  0  0  0  0  0  0
    8.2602   10.7970   54.5294 C   0  0  0  0  0  0  0  0  0  0  0  0
    5.4159    7.7627   55.3171 O   0  0  0  0  0  0  0  0  0  0  0  0
    7.1001    8.5889   57.4099 O   0  0  0  0  0  0  0  0  0  0  0  0
    9.4409    9.0416   55.7415 O   0  0  0  0  0  0  0  0  0  0  0  0
    7.8625    9.8777   53.4564 O   0  0  0  0  0  0  0  0  0  0  0  0
    4.7276    8.4368   55.4296 H   0  0  0  0  0  0  0  0  0  0  0  0
    7.7676    7.8906   57.3218 H   0  0  0  0  0  0  0  0  0  0  0  0
    9.2278    8.4317   55.0179 H   0  0  0  0  0  0  0  0  0  0  0  0
    9.4167   11.3952   54.1804 C   0  0  0  0  0  0  0  0  0  0  0  0
   10.1031   11.7978   55.3502 O   0  0  0  0  0  0  0  0  0  0  0  0
    9.5514   12.4186   55.8513 H   0  0  0  0  0  0  0  0  0  0  0  0
    3.6033   10.7822   50.5502 C   0  0  0  0  0  0  0  0  0  0  0  0
    2.9645    9.6729   51.4161 C   0  0  0  0  0  0  0  0  0  0  0  0
    4.0187    9.2425   52.4679 C   0  0  0  0  0  0  0  0  0  0  0  0
    5.2752    8.7374   51.7305 C   0  0  0  0  0  0  0  0  0  0  0  0
    5.8482    9.8277   50.8120 C   0  0  0  0  0  0  0  0  0  0  0  0
    2.6958   11.1965   49.5810 O   0  0  0  0  0  0  0  0  0  0  0  0
    1.8171   10.1306   52.0837 O   0  0  0  0  0  0  0  0  0  0  0  0
    3.4478    8.2434   53.2917 O   0  0  0  0  0  0  0  0  0  0  0  0
    4.8037   10.2770   49.8948 O   0  0  0  0  0  0  0  0  0  0  0  0
    2.4636   10.4451   49.0132 H   0  0  0  0  0  0  0  0  0  0  0  0
    2.0544   10.8706   52.6642 H   0  0  0  0  0  0  0  0  0  0  0  0
    3.1764    7.4896   52.7449 H   0  0  0  0  0  0  0  0  0  0  0  0
    7.0124    9.3418   49.9562 C   0  0  0  0  0  0  0  0  0  0  0  0
    8.2257    9.4279   50.6840 O   0  0  0  0  0  0  0  0  0  0  0  0
    8.3869   10.3507   50.9357 H   0  0  0  0  0  0  0  0  0  0  0  0
  2  3  1  0  0  0
  2  1  1  0  0  0
  2 10  1  0  0  0
  3  4  1  0  0  0
  3  7  1  0  0  0
  4  5  1  0  0  0
  4  8  1  0  0  0
  5  6  1  0  0  0
  5  9  1  0  0  0
  6 14  1  0  0  0
  6 10  1  0  0  0
 14 15  1  0  0  0
  1 20  1  0  0  0
 17 18  1  0  0  0
 17 22  1  0  0  0
 17 25  1  0  0  0
 18 19  1  0  0  0
 18 23  1  0  0  0
 19 20  1  0  0  0
 19 24  1  0  0  0
 20 21  1  0  0  0
 21 29  1  0  0  0
 21 25  1  0  0  0
 29 30  1  0  0  0
  7 11  1  0  0  0
  8 12  1  0  0  0
  9 13  1  0  0  0
 15 16  1  0  0  0
 22 26  1  0  0  0
 23 27  1  0  0  0
 24 28  1  0  0  0
 30 31  1  0  0  0
M  END
> <minimizedAffinity>
-7.98133

$$$$
1GWV_LAT_A_1371


 31 32  0  0  0  0  0  0  0  0999 V2000
    7.3719   10.1981   52.3373 O   0  0  0  0  0  0  0  0  0  0  0  0
    6.3694   10.6128   51.4230 C   0  0  0  0  0  0  0  0  0  0  0  0
    6.0894    9.4955   50.4250 C   0  0  0  0  0  0  0  0  0  0  0  0
    4.9579    9.9367   49.4794 C   0  0  0  0  0  0  0  0  0  0  0  0
    3.7173   10.2821   50.3434 C   0  0  0  0  0  0  0  0  0  0  0  0
    4.0913   11.4040   51.3569 C   0  0  0  0  0  0  0  0  0  0  0  0
    7.2558    9.1733   49.6457 O   0  0  0  0  0  0  0  0  0  0  0  0
    4.6829    8.8973   48.5488 O   0  0  0  0  0  0  0  0  0  0  0  0
    3.2598    9.1293   51.0765 O   0  0  0  0  0  0  0  0  0  0  0  0
    5.2073   10.9607   52.2011 O   0  0  0  0  0  0  0  0  0  0  0  0
    7.5311    9.9528   49.1383 H   0  0  0  0  0  0  0  0  0  0  0  0
    4.4238    8.0946   49.0278 H   0  0  0  0  0  0  0  0  0  0  0  0
    3.9628    8.8244   51.6712 H   0  0  0  0  0  0  0  0  0  0  0  0
    3.0525   11.7333   52.1503 C   0  0  0  0  0  0  0  0  0  0  0  0
    1.8431   11.4182   51.4870 O   0  0  0  0  0  0  0  0  0  0  0  0
    1.7911   11.9158   50.6560 H   0  0  0  0  0  0  0  0  0  0  0  0
    7.6574    9.1532   56.4131 C   0  0  0  0  0  0  0  0  0  0  0  0
    6.4990    8.4794   55.6434 C   0  0  0  0  0  0  0  0  0  0  0  0
    6.8403    8.5568   54.1333 C   0  0  0  0  0  0  0  0  0  0  0  0
    7.0014   10.0385   53.7381 C   0  0  0  0  0  0  0  0  0  0  0  0
    8.1020   10.7126   54.5719 C   0  0  0  0  0  0  0  0  0  0  0  0
    7.3921    9.1176   57.7780 O   0  0  0  0  0  0  0  0  0  0  0  0
    6.3482    7.1314   56.0066 O   0  0  0  0  0  0  0  0  0  0  0  0
    5.8049    7.9221   53.4067 O   0  0  0  0  0  0  0  0  0  0  0  0
    7.7988   10.5415   55.9907 O   0  0  0  0  0  0  0  0  0  0  0  0
    6.5690    9.5974   57.9599 H   0  0  0  0  0  0  0  0  0  0  0  0
    7.1662    6.6495   55.8078 H   0  0  0  0  0  0  0  0  0  0  0  0
    4.9613    8.3628   53.5941 H   0  0  0  0  0  0  0  0  0  0  0  0
    8.2145   12.2116   54.3190 C   0  0  0  0  0  0  0  0  0  0  0  0
    6.9368   12.7597   54.0425 O   0  0  0  0  0  0  0  0  0  0  0  0
    6.5676   12.3363   53.2517 H   0  0  0  0  0  0  0  0  0  0  0  0
  2  3  1  0  0  0
  2  1  1  0  0  0
  2 10  1  0  0  0
  3  4  1  0  0  0
  3  7  1  0  0  0
  4  5  1  0  0  0
  4  8  1  0  0  0
  5  6  1  0  0  0
  5  9  1  0  0  0
  6 14  1  0  0  0
  6 10  1  0  0  0
 14 15  1  0  0  0
  1 20  1  0  0  0
 17 18  1  0  0  0
 17 22  1  0  0  0
 17 25  1  0  0  0
 18 19  1  0  0  0
 18 23  1  0  0  0
 19 20  1  0  0  0
 19 24  1  0  0  0
 20 21  1  0  0  0
 21 29  1  0  0  0
 21 25  1  0  0  0
 29 30  1  0  0  0
  7 11  1  0  0  0
  8 12  1  0  0  0
  9 13  1  0  0  0
 15 16  1  0  0  0
 22 26  1  0  0  0
 23 27  1  0  0  0
 24 28  1  0  0  0
 30 31  1  0  0  0
M  END
> <minimizedAffinity>
-7.97046

$$$$
1GWV_LAT_A_1371


 31 32  0  0  0  0  0  0  0  0999 V2000
    7.4746   10.4954   51.3542 O   0  0  0  0  0  0  0  0  0  0  0  0
    7.3607   10.4974   52.7684 C   0  0  0  0  0  0  0  0  0  0  0  0
    8.4169    9.5787   53.3709 C   0  0  0  0  0  0  0  0  0  0  0  0
    8.3207    9.6391   54.9058 C   0  0  0  0  0  0  0  0  0  0  0  0
    8.5048   11.1163   55.3407 C   0  0  0  0  0  0  0  0  0  0  0  0
    7.4128   11.9937   54.6601 C   0  0  0  0  0  0  0  0  0  0  0  0
    8.2443    8.2158   52.9414 O   0  0  0  0  0  0  0  0  0  0  0  0
    9.3081    8.7911   55.4784 O   0  0  0  0  0  0  0  0  0  0  0  0
    9.8023   11.6110   54.9568 O   0  0  0  0  0  0  0  0  0  0  0  0
    7.5077   11.8643   53.2010 O   0  0  0  0  0  0  0  0  0  0  0  0
    7.3778    7.8920   53.2335 H   0  0  0  0  0  0  0  0  0  0  0  0
   10.1881    9.0772   55.1875 H   0  0  0  0  0  0  0  0  0  0  0  0
    9.8913   11.5702   53.9918 H   0  0  0  0  0  0  0  0  0  0  0  0
    7.5354   13.2955   54.9881 C   0  0  0  0  0  0  0  0  0  0  0  0
    6.2998   13.9485   54.7679 O   0  0  0  0  0  0  0  0  0  0  0  0
    6.0536   13.8681   53.8332 H   0  0  0  0  0  0  0  0  0  0  0  0
    3.4045   10.4189   50.2526 C   0  0  0  0  0  0  0  0  0  0  0  0
    4.0785    9.0330   50.3677 C   0  0  0  0  0  0  0  0  0  0  0  0
    5.3467    9.2065   51.2420 C   0  0  0  0  0  0  0  0  0  0  0  0
    6.2746   10.2373   50.5680 C   0  0  0  0  0  0  0  0  0  0  0  0
    5.5589   11.5849   50.3877 C   0  0  0  0  0  0  0  0  0  0  0  0
    2.2620   10.3169   49.4658 O   0  0  0  0  0  0  0  0  0  0  0  0
    3.2321    8.0924   50.9766 O   0  0  0  0  0  0  0  0  0  0  0  0
    5.9692    7.9436   51.3843 O   0  0  0  0  0  0  0  0  0  0  0  0
    4.3218   11.3726   49.6403 O   0  0  0  0  0  0  0  0  0  0  0  0
    2.5065   10.0085   48.5793 H   0  0  0  0  0  0  0  0  0  0  0  0
    3.0028    8.3940   51.8695 H   0  0  0  0  0  0  0  0  0  0  0  0
    6.1975    7.5950   50.5084 H   0  0  0  0  0  0  0  0  0  0  0  0
    6.3816   12.6024   49.6056 C   0  0  0  0  0  0  0  0  0  0  0  0
    7.3506   11.9417   48.8093 O   0  0  0  0  0  0  0  0  0  0  0  0
    7.9457   11.4318   49.3809 H   0  0  0  0  0  0  0  0  0  0  0  0
  2  3  1  0  0  0
  2  1  1  0  0  0
  2 10  1  0  0  0
  3  4  1  0  0  0
  3  7  1  0  0  0
  4  5  1  0  0  0
  4  8  1  0  0  0
  5  6  1  0  0  0
  5  9  1  0  0  0
  6 14  1  0  0  0
  6 10  1  0  0  0
 14 15  1  0  0  0
  1 20  1  0  0  0
 17 18  1  0  0  0
 17 22  1  0  0  0
 17 25  1  0  0  0
 18 19  1  0  0  0
 18 23  1  0  0  0
 19 20  1  0  0  0
 19 24  1  0  0  0
 20 21  1  0  0  0
 21 29  1  0  0  0
 21 25  1  0  0  0
 29 30  1  0  0  0
  7 11  1  0  0  0
  8 12  1  0  0  0
  9 13  1  0  0  0
 15 16  1  0  0  0
 22 26  1  0  0  0
 23 27  1  0  0  0
 24 28  1  0  0  0
 30 31  1  0  0  0
M  END
> <minimizedAffinity>
-7.74474

$$$$
1GWV_LAT_A_1371


 31 32  0  0  0  0  0  0  0  0999 V2000
    7.4429    8.5566   54.0273 O   0  0  0  0  0  0  0  0  0  0  0  0
    6.6112    9.1830   53.0635 C   0  0  0  0  0  0  0  0  0  0  0  0
    7.1943    8.9790   51.6703 C   0  0  0  0  0  0  0  0  0  0  0  0
    6.2500    9.6101   50.6317 C   0  0  0  0  0  0  0  0  0  0  0  0
    4.8541    8.9534   50.7901 C   0  0  0  0  0  0  0  0  0  0  0  0
    4.3422    9.1755   52.2441 C   0  0  0  0  0  0  0  0  0  0  0  0
    8.4979    9.5765   51.5463 O   0  0  0  0  0  0  0  0  0  0  0  0
    6.7811    9.4180   49.3267 O   0  0  0  0  0  0  0  0  0  0  0  0
    4.9160    7.5373   50.5320 O   0  0  0  0  0  0  0  0  0  0  0  0
    5.2979    8.6054   53.2012 O   0  0  0  0  0  0  0  0  0  0  0  0
    8.4308   10.5327   51.6952 H   0  0  0  0  0  0  0  0  0  0  0  0
    6.8801    8.4685   49.1545 H   0  0  0  0  0  0  0  0  0  0  0  0
    5.5173    7.1188   51.1678 H   0  0  0  0  0  0  0  0  0  0  0  0
    3.1364    8.6076   52.4462 C   0  0  0  0  0  0  0  0  0  0  0  0
    2.3322    8.8040   51.2988 O   0  0  0  0  0  0  0  0  0  0  0  0
    2.2239    9.7546   51.1387 H   0  0  0  0  0  0  0  0  0  0  0  0
    8.3540    8.9424   58.1268 C   0  0  0  0  0  0  0  0  0  0  0  0
    6.8872    8.5701   57.8137 C   0  0  0  0  0  0  0  0  0  0  0  0
    6.8548    7.9848   56.3787 C   0  0  0  0  0  0  0  0  0  0  0  0
    7.3949    9.0464   55.3994 C   0  0  0  0  0  0  0  0  0  0  0  0
    8.8247    9.4639   55.7762 C   0  0  0  0  0  0  0  0  0  0  0  0
    8.4340    9.4834   59.4057 O   0  0  0  0  0  0  0  0  0  0  0  0
    6.3929    7.6073   58.7084 O   0  0  0  0  0  0  0  0  0  0  0  0
    5.5235    7.6112   56.0770 O   0  0  0  0  0  0  0  0  0  0  0  0
    8.8385    9.9231   57.1629 O   0  0  0  0  0  0  0  0  0  0  0  0
    7.8867   10.2829   59.4534 H   0  0  0  0  0  0  0  0  0  0  0  0
    6.9307    6.8024   58.6467 H   0  0  0  0  0  0  0  0  0  0  0  0
    4.9460    8.3874   56.1476 H   0  0  0  0  0  0  0  0  0  0  0  0
    9.3610   10.6082   54.9236 C   0  0  0  0  0  0  0  0  0  0  0  0
    8.3361   11.5545   54.6718 O   0  0  0  0  0  0  0  0  0  0  0  0
    7.6087   11.1243   54.1956 H   0  0  0  0  0  0  0  0  0  0  0  0
  2  3  1  0  0  0
  2  1  1  0  0  0
  2 10  1  0  0  0
  3  4  1  0  0  0
  3  7  1  0  0  0
  4  5  1  0  0  0
  4  8  1  0  0  0
  5  6  1  0  0  0
  5  9  1  0  0  0
  6 14  1  0  0  0
  6 10  1  0  0  0
 14 15  1  0  0  0
  1 20  1  0  0  0
 17 18  1  0  0  0
 17 22  1  0  0  0
 17 25  1  0  0  0
 18 19  1  0  0  0
 18 23  1  0  0  0
 19 20  1  0  0  0
 19 24  1  0  0  0
 20 21  1  0  0  0
 21 29  1  0  0  0
 21 25  1  0  0  0
 29 30  1  0  0  0
  7 11  1  0  0  0
  8 12  1  0  0  0
  9 13  1  0  0  0
 15 16  1  0  0  0
 22 26  1  0  0  0
 23 27  1  0  0  0
 24 28  1  0  0  0
 30 31  1  0  0  0
M  END
> <minimizedAffinity>
-7.63985

$$$$
1GWV_LAT_A_1371


 31 32  0  0  0  0  0  0  0  0999 V2000
    5.6610    9.5707   52.8200 O   0  0  0  0  0  0  0  0  0  0  0  0
    5.2221    9.6107   51.4713 C   0  0  0  0  0  0  0  0  0  0  0  0
    3.6989    9.6323   51.4265 C   0  0  0  0  0  0  0  0  0  0  0  0
    3.2396    9.7379   49.9613 C   0  0  0  0  0  0  0  0  0  0  0  0
    3.8671   11.0187   49.3524 C   0  0  0  0  0  0  0  0  0  0  0  0
    5.4182   10.9364   49.4654 C   0  0  0  0  0  0  0  0  0  0  0  0
    3.1323    8.4466   52.0135 O   0  0  0  0  0  0  0  0  0  0  0  0
    1.8189    9.7672   49.9088 O   0  0  0  0  0  0  0  0  0  0  0  0
    3.4139   12.1973   50.0463 O   0  0  0  0  0  0  0  0  0  0  0  0
    5.8078   10.7834   50.8723 O   0  0  0  0  0  0  0  0  0  0  0  0
    3.4259    7.6675   51.5158 H   0  0  0  0  0  0  0  0  0  0  0  0
    1.4922   10.5263   50.4166 H   0  0  0  0  0  0  0  0  0  0  0  0
    3.6811   12.1471   50.9774 H   0  0  0  0  0  0  0  0  0  0  0  0
    6.0189   12.0355   48.9670 C   0  0  0  0  0  0  0  0  0  0  0  0
    6.4217   12.8700   50.0362 O   0  0  0  0  0  0  0  0  0  0  0  0
    5.6441   13.1287   50.5551 H   0  0  0  0  0  0  0  0  0  0  0  0
    8.7271   11.2697   55.1647 C   0  0  0  0  0  0  0  0  0  0  0  0
    7.9841   12.2601   54.2398 C   0  0  0  0  0  0  0  0  0  0  0  0
    6.6252   11.6143   53.8670 C   0  0  0  0  0  0  0  0  0  0  0  0
    6.8937   10.2690   53.1629 C   0  0  0  0  0  0  0  0  0  0  0  0
    7.7045    9.3282   54.0675 C   0  0  0  0  0  0  0  0  0  0  0  0
    9.9619   11.8021   55.5204 O   0  0  0  0  0  0  0  0  0  0  0  0
    7.7438   13.4874   54.8786 O   0  0  0  0  0  0  0  0  0  0  0  0
    5.9130   12.5148   53.0396 O   0  0  0  0  0  0  0  0  0  0  0  0
    8.9349   10.0014   54.4763 O   0  0  0  0  0  0  0  0  0  0  0  0
   10.4925   11.9495   54.7219 H   0  0  0  0  0  0  0  0  0  0  0  0
    7.1984   13.3402   55.6671 H   0  0  0  0  0  0  0  0  0  0  0  0
    6.4353   12.7058   52.2448 H   0  0  0  0  0  0  0  0  0  0  0  0
    8.1152    8.0341   53.3743 C   0  0  0  0  0  0  0  0  0  0  0  0
    7.0859    7.0666   53.4919 O   0  0  0  0  0  0  0  0  0  0  0  0
    6.9228    6.8804   54.4298 H   0  0  0  0  0  0  0  0  0  0  0  0
  2  3  1  0  0  0
  2  1  1  0  0  0
  2 10  1  0  0  0
  3  4  1  0  0  0
  3  7  1  0  0  0
  4  5  1  0  0  0
  4  8  1  0  0  0
  5  6  1  0  0  0
  5  9  1  0  0  0
  6 14  1  0  0  0
  6 10  1  0  0  0
 14 15  1  0  0  0
  1 20  1  0  0  0
 17 18  1  0  0  0
 17 22  1  0  0  0
 17 25  1  0  0  0
 18 19  1  0  0  0
 18 23  1  0  0  0
 19 20  1  0  0  0
 19 24  1  0  0  0
 20 21  1  0  0  0
 21 29  1  0  0  0
 21 25  1  0  0  0
 29 30  1  0  0  0
  7 11  1  0  0  0
  8 12  1  0  0  0
  9 13  1  0  0  0
 15 16  1  0  0  0
 22 26  1  0  0  0
 23 27  1  0  0  0
 24 28  1  0  0  0
 30 31  1  0  0  0
M  END
> <minimizedAffinity>
-7.61061

$$$$
1GWV_LAT_A_1371


 31 32  0  0  0  0  0  0  0  0999 V2000
    9.8500    9.7537   56.1236 O   0  0  0  0  0  0  0  0  0  0  0  0
    8.4928    9.7300   55.7104 C   0  0  0  0  0  0  0  0  0  0  0  0
    8.4192    9.6053   54.1932 C   0  0  0  0  0  0  0  0  0  0  0  0
    6.9431    9.5188   53.7661 C   0  0  0  0  0  0  0  0  0  0  0  0
    6.3037    8.3058   54.4905 C   0  0  0  0  0  0  0  0  0  0  0  0
    6.4480    8.4906   56.0302 C   0  0  0  0  0  0  0  0  0  0  0  0
    9.0346   10.7284   53.5364 O   0  0  0  0  0  0  0  0  0  0  0  0
    6.8634    9.3938   52.3518 O   0  0  0  0  0  0  0  0  0  0  0  0
    6.9497    7.0758   54.1090 O   0  0  0  0  0  0  0  0  0  0  0  0
    7.8661    8.6216   56.3855 O   0  0  0  0  0  0  0  0  0  0  0  0
    8.5686   11.5425   53.7832 H   0  0  0  0  0  0  0  0  0  0  0  0
    7.3396    8.5970   52.0703 H   0  0  0  0  0  0  0  0  0  0  0  0
    7.8867    7.1122   54.3570 H   0  0  0  0  0  0  0  0  0  0  0  0
    5.9246    7.4531   56.7136 C   0  0  0  0  0  0  0  0  0  0  0  0
    6.9728    6.7140   57.3108 O   0  0  0  0  0  0  0  0  0  0  0  0
    7.5696    6.3841   56.6209 H   0  0  0  0  0  0  0  0  0  0  0  0
   12.0476   10.4083   59.6630 C   0  0  0  0  0  0  0  0  0  0  0  0
   10.9246    9.3525   59.7746 C   0  0  0  0  0  0  0  0  0  0  0  0
   10.5876    8.8818   58.3367 C   0  0  0  0  0  0  0  0  0  0  0  0
   10.1410   10.1034   57.5084 C   0  0  0  0  0  0  0  0  0  0  0  0
   11.2396   11.1772   57.4777 C   0  0  0  0  0  0  0  0  0  0  0  0
   12.3797   10.8705   60.9321 O   0  0  0  0  0  0  0  0  0  0  0  0
   11.3288    8.2421   60.5332 O   0  0  0  0  0  0  0  0  0  0  0  0
    9.5777    7.8934   58.4137 O   0  0  0  0  0  0  0  0  0  0  0  0
   11.5996   11.5316   58.8484 O   0  0  0  0  0  0  0  0  0  0  0  0
   11.6007   11.2781   61.3419 H   0  0  0  0  0  0  0  0  0  0  0  0
   12.0971    7.8254   60.1125 H   0  0  0  0  0  0  0  0  0  0  0  0
    8.7944    8.2648   58.8490 H   0  0  0  0  0  0  0  0  0  0  0  0
   10.8033   12.4636   56.7859 C   0  0  0  0  0  0  0  0  0  0  0  0
   10.8812   12.3144   55.3785 O   0  0  0  0  0  0  0  0  0  0  0  0
   11.7965   12.1179   55.1243 H   0  0  0  0  0  0  0  0  0  0  0  0
  2  3  1  0  0  0
  2  1  1  0  0  0
  2 10  1  0  0  0
  3  4  1  0  0  0
  3  7  1  0  0  0
  4  5  1  0  0  0
  4  8  1  0  0  0
  5  6  1  0  0  0
  5  9  1  0  0  0
  6 14  1  0  0  0
  6 10  1  0  0  0
 14 15  1  0  0  0
  1 20  1  0  0  0
 17 18  1  0  0  0
 17 22  1  0  0  0
 17 25  1  0  0  0
 18 19  1  0  0  0
 18 23  1  0  0  0
 19 20  1  0  0  0
 19 24  1  0  0  0
 20 21  1  0  0  0
 21 29  1  0  0  0
 21 25  1  0  0  0
 29 30  1  0  0  0
  7 11  1  0  0  0
  8 12  1  0  0  0
  9 13  1  0  0  0
 15 16  1  0  0  0
 22 26  1  0  0  0
 23 27  1  0  0  0
 24 28  1  0  0  0
 30 31  1  0  0  0
M  END
> <minimizedAffinity>
-7.31547

$$$$
1GWV_LAT_A_1371


 31 32  0  0  0  0  0  0  0  0999 V2000
    8.7660    8.8796   55.4708 O   0  0  0  0  0  0  0  0  0  0  0  0
    9.1944    9.8061   56.4564 C   0  0  0  0  0  0  0  0  0  0  0  0
   10.1781    9.1306   57.4044 C   0  0  0  0  0  0  0  0  0  0  0  0
   10.6802   10.1635   58.4290 C   0  0  0  0  0  0  0  0  0  0  0  0
   11.3236   11.3396   57.6494 C   0  0  0  0  0  0  0  0  0  0  0  0
   10.2695   11.9539   56.6813 C   0  0  0  0  0  0  0  0  0  0  0  0
    9.5714    8.0290   58.1046 O   0  0  0  0  0  0  0  0  0  0  0  0
   11.6057    9.5450   59.3139 O   0  0  0  0  0  0  0  0  0  0  0  0
   12.4553   10.8920   56.8783 O   0  0  0  0  0  0  0  0  0  0  0  0
    9.7801   10.9228   55.7585 O   0  0  0  0  0  0  0  0  0  0  0  0
    8.8305    8.3546   58.6393 H   0  0  0  0  0  0  0  0  0  0  0  0
   12.3513    9.1896   58.8053 H   0  0  0  0  0  0  0  0  0  0  0  0
   12.1648   10.2288   56.2328 H   0  0  0  0  0  0  0  0  0  0  0  0
   10.7801   12.9725   55.9609 C   0  0  0  0  0  0  0  0  0  0  0  0
   11.0674   12.5179   54.6523 O   0  0  0  0  0  0  0  0  0  0  0  0
   11.7103   11.7929   54.6958 H   0  0  0  0  0  0  0  0  0  0  0  0
    5.8994    8.6655   52.3851 C   0  0  0  0  0  0  0  0  0  0  0  0
    6.8798    9.8561   52.2875 C   0  0  0  0  0  0  0  0  0  0  0  0
    8.1201    9.5059   53.1487 C   0  0  0  0  0  0  0  0  0  0  0  0
    7.6613    9.2630   54.6007 C   0  0  0  0  0  0  0  0  0  0  0  0
    6.6252    8.1304   54.6668 C   0  0  0  0  0  0  0  0  0  0  0  0
    4.7610    8.9371   51.6335 O   0  0  0  0  0  0  0  0  0  0  0  0
    7.2939   10.0813   50.9647 O   0  0  0  0  0  0  0  0  0  0  0  0
    9.0464   10.5717   53.0548 O   0  0  0  0  0  0  0  0  0  0  0  0
    5.5132    8.4474   53.7741 O   0  0  0  0  0  0  0  0  0  0  0  0
    4.3281    9.7335   51.9788 H   0  0  0  0  0  0  0  0  0  0  0  0
    7.7420    9.2900   50.6271 H   0  0  0  0  0  0  0  0  0  0  0  0
    8.6294   11.3907   53.3651 H   0  0  0  0  0  0  0  0  0  0  0  0
    6.0358    7.9357   56.0591 C   0  0  0  0  0  0  0  0  0  0  0  0
    6.8948    7.1291   56.8471 O   0  0  0  0  0  0  0  0  0  0  0  0
    6.9980    6.2607   56.4273 H   0  0  0  0  0  0  0  0  0  0  0  0
  2  3  1  0  0  0
  2  1  1  0  0  0
  2 10  1  0  0  0
  3  4  1  0  0  0
  3  7  1  0  0  0
  4  5  1  0  0  0
  4  8  1  0  0  0
  5  6  1  0  0  0
  5  9  1  0  0  0
  6 14  1  0  0  0
  6 10  1  0  0  0
 14 15  1  0  0  0
  1 20  1  0  0  0
 17 18  1  0  0  0
 17 22  1  0  0  0
 17 25  1  0  0  0
 18 19  1  0  0  0
 18 23  1  0  0  0
 19 20  1  0  0  0
 19 24  1  0  0  0
 20 21  1  0  0  0
 21 29  1  0  0  0
 21 25  1  0  0  0
 29 30  1  0  0  0
  7 11  1  0  0  0
  8 12  1  0  0  0
  9 13  1  0  0  0
 15 16  1  0  0  0
 22 26  1  0  0  0
 23 27  1  0  0  0
 24 28  1  0  0  0
 30 31  1  0  0  0
M  END
> <minimizedAffinity>
-7.27558

$$$$
1GWV_LAT_A_1371


 31 32  0  0  0  0  0  0  0  0999 V2000
    6.5606    9.8746   54.5825 O   0  0  0  0  0  0  0  0  0  0  0  0
    6.5805    9.9329   53.1650 C   0  0  0  0  0  0  0  0  0  0  0  0
    6.0841    8.6122   52.5887 C   0  0  0  0  0  0  0  0  0  0  0  0
    6.0532    8.7127   51.0532 C   0  0  0  0  0  0  0  0  0  0  0  0
    5.1403    9.9058   50.6683 C   0  0  0  0  0  0  0  0  0  0  0  0
    5.6925   11.2082   51.3198 C   0  0  0  0  0  0  0  0  0  0  0  0
    6.9304    7.5128   52.9719 O   0  0  0  0  0  0  0  0  0  0  0  0
    5.5832    7.4875   50.5054 O   0  0  0  0  0  0  0  0  0  0  0  0
    3.7911    9.6943   51.1272 O   0  0  0  0  0  0  0  0  0  0  0  0
    5.7543   11.0485   52.7776 O   0  0  0  0  0  0  0  0  0  0  0  0
    7.8261    7.6598   52.6299 H   0  0  0  0  0  0  0  0  0  0  0  0
    4.6942    7.3011   50.8458 H   0  0  0  0  0  0  0  0  0  0  0  0
    3.7871    9.6145   52.0939 H   0  0  0  0  0  0  0  0  0  0  0  0
    4.9253   12.2792   51.0338 C   0  0  0  0  0  0  0  0  0  0  0  0
    4.4685   12.1802   49.6984 O   0  0  0  0  0  0  0  0  0  0  0  0
    5.2295   12.1526   49.0976 H   0  0  0  0  0  0  0  0  0  0  0  0
    9.5293    9.3288   57.5277 C   0  0  0  0  0  0  0  0  0  0  0  0
   10.0591    9.6972   56.1234 C   0  0  0  0  0  0  0  0  0  0  0  0
    8.8863   10.3413   55.3408 C   0  0  0  0  0  0  0  0  0  0  0  0
    7.7269    9.3276   55.2646 C   0  0  0  0  0  0  0  0  0  0  0  0
    7.2687    8.9109   56.6708 C   0  0  0  0  0  0  0  0  0  0  0  0
   10.5466    8.7360   58.2681 O   0  0  0  0  0  0  0  0  0  0  0  0
   11.1185   10.6163   56.1922 O   0  0  0  0  0  0  0  0  0  0  0  0
    9.3538   10.7121   54.0576 O   0  0  0  0  0  0  0  0  0  0  0  0
    8.4157    8.3946   57.4135 O   0  0  0  0  0  0  0  0  0  0  0  0
   10.8447    7.9291   57.8199 H   0  0  0  0  0  0  0  0  0  0  0  0
   10.8138   11.4291   56.6251 H   0  0  0  0  0  0  0  0  0  0  0  0
    9.6884    9.9272   53.5961 H   0  0  0  0  0  0  0  0  0  0  0  0
    6.2151    7.8092   56.6576 C   0  0  0  0  0  0  0  0  0  0  0  0
    6.5054    6.8650   55.6411 O   0  0  0  0  0  0  0  0  0  0  0  0
    6.5046    7.3083   54.7783 H   0  0  0  0  0  0  0  0  0  0  0  0
  2  3  1  0  0  0
  2  1  1  0  0  0
  2 10  1  0  0  0
  3  4  1  0  0  0
  3  7  1  0  0  0
  4  5  1  0  0  0
  4  8  1  0  0  0
  5  6  1  0  0  0
  5  9  1  0  0  0
  6 14  1  0  0  0
  6 10  1  0  0  0
 14 15  1  0  0  0
  1 20  1  0  0  0
 17 18  1  0  0  0
 17 22  1  0  0  0
 17 25  1  0  0  0
 18 19  1  0  0  0
 18 23  1  0  0  0
 19 20  1  0  0  0
 19 24  1  0  0  0
 20 21  1  0  0  0
 21 29  1  0  0  0
 21 25  1  0  0  0
 29 30  1  0  0  0
  7 11  1  0  0  0
  8 12  1  0  0  0
  9 13  1  0  0  0
 15 16  1  0  0  0
 22 26  1  0  0  0
 23 27  1  0  0  0
 24 28  1  0  0  0
 30 31  1  0  0  0
M  END
> <minimizedAffinity>
-7.08378

$$$$
