1GWV_LAT_A_1371
  RCSB PDB12061702393D
Coordinates from PDB:1GWV:A:1371 Model:1 without hydrogens
 23 24  0  0  0  0            999 V2000
    8.3750    9.7520   55.8080   C 0  0  0  0  0  0  0  0  0  0  0  0
    8.2590    9.6630   54.2910   C 0  0  0  0  0  0  0  0  0  0  0  0
    6.7730    9.5550   53.9050   C 0  0  0  0  0  0  0  0  0  0  0  0
    6.1810    8.3110   54.6170   C 0  0  0  0  0  0  0  0  0  0  0  0
    6.3670    8.4610   56.1560   C 0  0  0  0  0  0  0  0  0  0  0  0
    5.8860    7.3960   56.8280   C 0  0  0  0  0  0  0  0  0  0  0  0
    9.7430    9.7950   56.1820   O 0  0  0  0  0  0  0  0  0  0  0  0
    8.8310   10.8150   53.6450   O 0  0  0  0  0  0  0  0  0  0  0  0
    6.6540    9.4630   52.4910   O 0  0  0  0  0  0  0  0  0  0  0  0
    6.8410    7.1050   54.1860   O 0  0  0  0  0  0  0  0  0  0  0  0
    7.7920    8.6140   56.4730   O 0  0  0  0  0  0  0  0  0  0  0  0
    5.8790    7.6850   58.2130   O 0  0  0  0  0  0  0  0  0  0  0  0
   11.9910   10.4990   59.6800   C 0  0  0  0  0  0  0  0  0  0  0  0
   10.7230    9.6380   59.8780   C 0  0  0  0  0  0  0  0  0  0  0  0
   10.3290    9.0690   58.4910   C 0  0  0  0  0  0  0  0  0  0  0  0
   10.0740   10.2460   57.5280   C 0  0  0  0  0  0  0  0  0  0  0  0
   11.3200   11.1370   57.4080   C 0  0  0  0  0  0  0  0  0  0  0  0
   11.0840   12.3910   56.5740   C 0  0  0  0  0  0  0  0  0  0  0  0
   12.3800   11.0420   60.9000   O 0  0  0  0  0  0  0  0  0  0  0  0
   10.9530    8.5690   60.7590   O 0  0  0  0  0  0  0  0  0  0  0  0
    9.1830    8.2540   58.6500   O 0  0  0  0  0  0  0  0  0  0  0  0
   11.7200   11.5810   58.7410   O 0  0  0  0  0  0  0  0  0  0  0  0
   12.3030   12.8390   56.0060   O 0  0  0  0  0  0  0  0  0  0  0  0
  1  2  1  0  0  0  0
  1  7  1  0  0  0  0
  1 11  1  0  0  0  0
  2  3  1  0  0  0  0
  2  8  1  0  0  0  0
  3  4  1  0  0  0  0
  3  9  1  0  0  0  0
  4  5  1  0  0  0  0
  4 10  1  0  0  0  0
  5  6  1  0  0  0  0
  5 11  1  0  0  0  0
  6 12  1  0  0  0  0
  7 16  1  0  0  0  0
 13 14  1  0  0  0  0
 13 19  1  0  0  0  0
 13 22  1  0  0  0  0
 14 15  1  0  0  0  0
 14 20  1  0  0  0  0
 15 16  1  0  0  0  0
 15 21  1  0  0  0  0
 16 17  1  0  0  0  0
 17 18  1  0  0  0  0
 17 22  1  0  0  0  0
 18 23  1  0  0  0  0
A    1
C1
A    2
C2
A    3
C3
A    4
C4
A    5
C5
A    6
C6
A    7
O1
A    8
O2
A    9
O3
A   10
O4
A   11
O5
A   12
O6
A   13
C1'
A   14
C2'
A   15
C3'
A   16
C4'
A   17
C5'
A   18
C6'
A   19
O1'
A   20
O2'
A   21
O3'
A   22
O5'
A   23
O6'
M  END
>  <InstanceId>
1GWV_LAT_A_1371

>  <ChemCompId>
LAT

>  <PdbId>
1GWV

>  <ChainId>
A

>  <ResidueNumber>
1371

>  <InsertionCode>


>  <Model>
1

>  <AltIds>


>  <MissingHeavyAtoms>
0

>  <ObservedFormula>
C12 O11

>  <Name>
BETA-LACTOSE

>  <SystematicName>
(2R,3R,4S,5R,6S)-2-(hydroxymethyl)-6-[(2R,3S,4R,5R,6R)-4,5,6-trihydroxy-2-(hydroxymethyl)oxan-3-yl]oxy-oxane-3,4,5-triol

>  <Synonyms>


>  <Type>
SACCHARIDE

>  <Formula>
C12 H22 O11

>  <MolecularWeight>
342.296

>  <ModifiedDate>
2011-06-04

>  <Parent>


>  <OneLetterCode>


>  <SubcomponentList>


>  <AmbiguousFlag>
N

>  <InChI>
InChI=1S/C12H22O11/c13-1-3-5(15)6(16)9(19)12(22-3)23-10-4(2-14)21-11(20)8(18)7(10)17/h3-20H,1-2H2/t3-,4-,5+,6+,7-,8-,9-,10-,11-,12+/m1/s1

>  <InChIKey>
GUBGYTABKSRVRQ-DCSYEGIMSA-N

>  <SMILES>
C([C@@H]1[C@@H]([C@@H]([C@H]([C@@H](O1)O[C@@H]2[C@H](O[C@H]([C@@H]([C@H]2O)O)O)CO)O)O)O)O

$$$$
