2HZL_PYR_A_601
  RCSB PDB12061705513D
Coordinates from PDB:2HZL:A:601 Model:1 without hydrogens
  6  5  0  0  0  0            999 V2000
   63.0350   76.2620   27.3310   C 0  0  0  0  0  0  0  0  0  0  0  0
   63.8110   75.2510   27.5920   O 0  0  0  0  0  0  0  0  0  0  0  0
   63.5600   77.4570   27.2800   O 0  0  0  0  0  0  0  0  0  0  0  0
   61.6580   76.1090   27.1100   C 0  0  0  0  0  0  0  0  0  0  0  0
   60.9730   77.1310   26.6870   O 0  0  0  0  0  0  0  0  0  0  0  0
   60.9450   74.8150   27.3390   C 0  0  0  0  0  0  0  0  0  0  0  0
  1  2  2  0  0  0  0
  1  3  1  0  0  0  0
  1  4  1  0  0  0  0
  4  5  2  0  0  0  0
  4  6  1  0  0  0  0
A    1
C1
A    2
O1
A    3
O2
A    4
C2
A    5
O3
A    6
C3
M  END
>  <InstanceId>
2HZL_PYR_A_601

>  <ChemCompId>
PYR

>  <PdbId>
2HZL

>  <ChainId>
A

>  <ResidueNumber>
601

>  <InsertionCode>


>  <Model>
1

>  <AltIds>


>  <MissingHeavyAtoms>
0

>  <ObservedFormula>
C3 O3

>  <Name>
PYRUVIC ACID

>  <SystematicName>
2-oxidanylidenepropanoic acid

>  <Synonyms>


>  <Type>
NON-POLYMER

>  <Formula>
C3 H4 O3

>  <MolecularWeight>
88.062

>  <ModifiedDate>
2017-11-15

>  <Parent>


>  <OneLetterCode>


>  <SubcomponentList>


>  <AmbiguousFlag>
N

>  <InChI>
InChI=1S/C3H4O3/c1-2(4)3(5)6/h1H3,(H,5,6)

>  <InChIKey>
LCTONWCANYUPML-UHFFFAOYSA-N

>  <SMILES>
CC(=O)C(=O)O

$$$$
