2CSN_CKI_A_300


 21 22  0  0  0  0  0  0  0  0999 V2000
  -24.4539   50.3855   49.8612 C   0  0  0  0  0  0  0  0  0  0  0  0
  -23.6690   50.0683   50.9108 N   0  0  0  0  0  0  0  0  0  0  0  0
  -23.3860   51.0483   51.8595 C   0  0  0  0  0  0  0  0  0  0  0  0
  -23.8930   52.3802   51.8191 C   0  0  0  0  0  0  0  0  0  0  0  0
  -25.3173   54.0086   50.5356 C   0  0  0  0  0  0  0  0  0  0  0  0
  -25.0458   55.2029   51.6422 Cl  0  0  0  0  0  0  0  0  0  0  0  0
  -26.1808   54.2677   49.4472 C   0  0  0  0  0  0  0  0  0  0  0  0
  -26.4518   53.2532   48.4997 C   0  0  0  0  0  0  0  0  0  0  0  0
  -25.8678   51.9749   48.6670 C   0  0  0  0  0  0  0  0  0  0  0  0
  -25.0077   51.6889   49.7541 C   0  0  0  0  0  0  0  0  0  0  0  0
  -24.7364   52.7015   50.7122 C   0  0  0  0  0  0  0  0  0  0  0  0
  -26.1210   50.7128   47.4665 S   0  0  0  0  0  0  0  0  0  0  0  0
  -26.7992   49.6500   48.0677 O   0  0  0  0  0  0  0  0  0  0  0  0
  -26.7943   51.4079   46.4936 O   0  0  0  0  0  0  0  0  0  0  0  0
  -24.7172   50.1931   46.6519 N   0  0  0  0  0  0  0  0  0  0  0  0
  -24.0203   50.1662   47.3963 H   0  0  0  0  0  0  0  0  0  0  0  0
  -24.3608   48.9986   45.8190 C   0  0  0  0  0  0  0  0  0  0  0  0
  -22.9676   48.4099   46.1894 C   0  0  0  0  0  0  0  0  0  0  0  0
  -22.2725   47.2946   45.4825 N   0  0  0  0  0  0  0  0  0  0  0  0
  -22.7638   46.4191   45.6630 H   0  0  0  0  0  0  0  0  0  0  0  0
  -21.3133   47.2224   45.8219 H   0  0  0  0  0  0  0  0  0  0  0  0
  1  2  2  0  0  0
  1 10  1  0  0  0
  2  3  1  0  0  0
  3  4  2  0  0  0
  4 11  1  0  0  0
  5  6  1  0  0  0
  5  7  2  0  0  0
  5 11  1  0  0  0
  7  8  1  0  0  0
  8  9  2  0  0  0
  9 10  1  0  0  0
  9 12  1  0  0  0
 10 11  2  0  0  0
 12 13  2  0  0  0
 12 14  2  0  0  0
 12 15  1  0  0  0
 15 17  1  0  0  0
 17 18  1  0  0  0
 18 19  1  0  0  0
 15 16  1  0  0  0
 19 20  1  0  0  0
 19 21  1  0  0  0
M  END
> <minimizedAffinity>
-6.83553

$$$$
2CSN_CKI_A_300


 21 22  0  0  0  0  0  0  0  0999 V2000
  -25.6986   51.2217   48.3065 C   0  0  0  0  0  0  0  0  0  0  0  0
  -26.4453   52.0774   47.5795 N   0  0  0  0  0  0  0  0  0  0  0  0
  -26.6619   53.3638   48.0683 C   0  0  0  0  0  0  0  0  0  0  0  0
  -26.1232   53.8635   49.2900 C   0  0  0  0  0  0  0  0  0  0  0  0
  -24.7144   53.3172   51.3011 C   0  0  0  0  0  0  0  0  0  0  0  0
  -24.9071   54.8362   51.9174 Cl  0  0  0  0  0  0  0  0  0  0  0  0
  -23.8923   52.3979   51.9915 C   0  0  0  0  0  0  0  0  0  0  0  0
  -23.6885   51.0987   51.4709 C   0  0  0  0  0  0  0  0  0  0  0  0
  -24.2974   50.7402   50.2446 C   0  0  0  0  0  0  0  0  0  0  0  0
  -25.1167   51.6468   49.5303 C   0  0  0  0  0  0  0  0  0  0  0  0
  -25.3204   52.9548   50.0447 C   0  0  0  0  0  0  0  0  0  0  0  0
  -24.1287   49.1085   49.6065 S   0  0  0  0  0  0  0  0  0  0  0  0
  -25.3493   48.7131   49.0545 O   0  0  0  0  0  0  0  0  0  0  0  0
  -23.0793   49.2741   48.7379 O   0  0  0  0  0  0  0  0  0  0  0  0
  -23.5250   47.9568   50.7081 N   0  0  0  0  0  0  0  0  0  0  0  0
  -24.2839   47.2776   50.7642 H   0  0  0  0  0  0  0  0  0  0  0  0
  -22.3007   47.0935   50.7682 C   0  0  0  0  0  0  0  0  0  0  0  0
  -21.0521   47.8679   51.2839 C   0  0  0  0  0  0  0  0  0  0  0  0
  -20.5140   49.1387   50.7162 N   0  0  0  0  0  0  0  0  0  0  0  0
  -20.1039   48.9552   49.8005 H   0  0  0  0  0  0  0  0  0  0  0  0
  -19.7994   49.5140   51.3398 H   0  0  0  0  0  0  0  0  0  0  0  0
  1  2  2  0  0  0
  1 10  1  0  0  0
  2  3  1  0  0  0
  3  4  2  0  0  0
  4 11  1  0  0  0
  5  6  1  0  0  0
  5  7  2  0  0  0
  5 11  1  0  0  0
  7  8  1  0  0  0
  8  9  2  0  0  0
  9 10  1  0  0  0
  9 12  1  0  0  0
 10 11  2  0  0  0
 12 13  2  0  0  0
 12 14  2  0  0  0
 12 15  1  0  0  0
 15 17  1  0  0  0
 17 18  1  0  0  0
 18 19  1  0  0  0
 15 16  1  0  0  0
 19 20  1  0  0  0
 19 21  1  0  0  0
M  END
> <minimizedAffinity>
-6.54613

$$$$
2CSN_CKI_A_300


 21 22  0  0  0  0  0  0  0  0999 V2000
  -24.3393   50.1814   49.9565 C   0  0  0  0  0  0  0  0  0  0  0  0
  -23.5502   50.0190   51.0377 N   0  0  0  0  0  0  0  0  0  0  0  0
  -23.3346   51.1056   51.8825 C   0  0  0  0  0  0  0  0  0  0  0  0
  -23.9160   52.3948   51.7024 C   0  0  0  0  0  0  0  0  0  0  0  0
  -25.4153   53.7985   50.2499 C   0  0  0  0  0  0  0  0  0  0  0  0
  -25.2253   55.1133   51.2296 Cl  0  0  0  0  0  0  0  0  0  0  0  0
  -26.2792   53.8946   49.1355 C   0  0  0  0  0  0  0  0  0  0  0  0
  -26.4809   52.7746   48.2957 C   0  0  0  0  0  0  0  0  0  0  0  0
  -25.8270   51.5560   48.5969 C   0  0  0  0  0  0  0  0  0  0  0  0
  -24.9651   51.4328   49.7127 C   0  0  0  0  0  0  0  0  0  0  0  0
  -24.7632   52.5520   50.5633 C   0  0  0  0  0  0  0  0  0  0  0  0
  -25.9938   50.1653   47.5310 S   0  0  0  0  0  0  0  0  0  0  0  0
  -24.7302   49.8117   47.0520 O   0  0  0  0  0  0  0  0  0  0  0  0
  -26.6146   49.2693   48.3646 O   0  0  0  0  0  0  0  0  0  0  0  0
  -27.1247   50.3486   46.2693 N   0  0  0  0  0  0  0  0  0  0  0  0
  -27.9182   50.7856   46.7382 H   0  0  0  0  0  0  0  0  0  0  0  0
  -27.1142   51.0260   44.9320 C   0  0  0  0  0  0  0  0  0  0  0  0
  -26.4045   50.1733   43.8393 C   0  0  0  0  0  0  0  0  0  0  0  0
  -25.1661   49.3625   44.0289 N   0  0  0  0  0  0  0  0  0  0  0  0
  -24.3681   49.9851   44.1550 H   0  0  0  0  0  0  0  0  0  0  0  0
  -25.0141   48.7770   43.2076 H   0  0  0  0  0  0  0  0  0  0  0  0
  1  2  2  0  0  0
  1 10  1  0  0  0
  2  3  1  0  0  0
  3  4  2  0  0  0
  4 11  1  0  0  0
  5  6  1  0  0  0
  5  7  2  0  0  0
  5 11  1  0  0  0
  7  8  1  0  0  0
  8  9  2  0  0  0
  9 10  1  0  0  0
  9 12  1  0  0  0
 10 11  2  0  0  0
 12 13  2  0  0  0
 12 14  2  0  0  0
 12 15  1  0  0  0
 15 17  1  0  0  0
 17 18  1  0  0  0
 18 19  1  0  0  0
 15 16  1  0  0  0
 19 20  1  0  0  0
 19 21  1  0  0  0
M  END
> <minimizedAffinity>
-6.38011

$$$$
2CSN_CKI_A_300


 21 22  0  0  0  0  0  0  0  0999 V2000
  -25.6026   51.1147   48.1645 C   0  0  0  0  0  0  0  0  0  0  0  0
  -26.3813   51.8941   47.3870 N   0  0  0  0  0  0  0  0  0  0  0  0
  -26.7211   53.1678   47.8376 C   0  0  0  0  0  0  0  0  0  0  0  0
  -26.2795   53.7316   49.0702 C   0  0  0  0  0  0  0  0  0  0  0  0
  -24.9240   53.3372   51.1523 C   0  0  0  0  0  0  0  0  0  0  0  0
  -25.2643   54.8471   51.7260 Cl  0  0  0  0  0  0  0  0  0  0  0  0
  -24.0635   52.4998   51.8978 C   0  0  0  0  0  0  0  0  0  0  0  0
  -23.7340   51.2118   51.4154 C   0  0  0  0  0  0  0  0  0  0  0  0
  -24.2565   50.7831   50.1719 C   0  0  0  0  0  0  0  0  0  0  0  0
  -25.1121   51.6076   49.4029 C   0  0  0  0  0  0  0  0  0  0  0  0
  -25.4420   52.9043   49.8790 C   0  0  0  0  0  0  0  0  0  0  0  0
  -23.9302   49.1586   49.5778 S   0  0  0  0  0  0  0  0  0  0  0  0
  -25.1444   48.4887   49.4104 O   0  0  0  0  0  0  0  0  0  0  0  0
  -23.2118   49.4346   48.4416 O   0  0  0  0  0  0  0  0  0  0  0  0
  -22.8263   48.2531   50.5083 N   0  0  0  0  0  0  0  0  0  0  0  0
  -23.0736   48.5080   51.4645 H   0  0  0  0  0  0  0  0  0  0  0  0
  -22.4917   46.7967   50.6280 C   0  0  0  0  0  0  0  0  0  0  0  0
  -23.5947   45.9931   51.3780 C   0  0  0  0  0  0  0  0  0  0  0  0
  -24.9511   45.6652   50.8493 N   0  0  0  0  0  0  0  0  0  0  0  0
  -25.5116   46.5159   50.8001 H   0  0  0  0  0  0  0  0  0  0  0  0
  -25.4048   44.9945   51.4696 H   0  0  0  0  0  0  0  0  0  0  0  0
  1  2  2  0  0  0
  1 10  1  0  0  0
  2  3  1  0  0  0
  3  4  2  0  0  0
  4 11  1  0  0  0
  5  6  1  0  0  0
  5  7  2  0  0  0
  5 11  1  0  0  0
  7  8  1  0  0  0
  8  9  2  0  0  0
  9 10  1  0  0  0
  9 12  1  0  0  0
 10 11  2  0  0  0
 12 13  2  0  0  0
 12 14  2  0  0  0
 12 15  1  0  0  0
 15 17  1  0  0  0
 17 18  1  0  0  0
 18 19  1  0  0  0
 15 16  1  0  0  0
 19 20  1  0  0  0
 19 21  1  0  0  0
M  END
> <minimizedAffinity>
-6.36619

$$$$
2CSN_CKI_A_300


 21 22  0  0  0  0  0  0  0  0999 V2000
  -23.4955   51.0511   51.4637 C   0  0  0  0  0  0  0  0  0  0  0  0
  -23.6152   51.9420   52.4688 N   0  0  0  0  0  0  0  0  0  0  0  0
  -24.5121   52.9986   52.3278 C   0  0  0  0  0  0  0  0  0  0  0  0
  -25.3483   53.2003   51.1908 C   0  0  0  0  0  0  0  0  0  0  0  0
  -26.0019   52.3197   48.9269 C   0  0  0  0  0  0  0  0  0  0  0  0
  -27.1045   53.5295   48.7138 Cl  0  0  0  0  0  0  0  0  0  0  0  0
  -25.8776   51.3240   47.9316 C   0  0  0  0  0  0  0  0  0  0  0  0
  -24.9599   50.2615   48.1020 C   0  0  0  0  0  0  0  0  0  0  0  0
  -24.1876   50.1961   49.2863 C   0  0  0  0  0  0  0  0  0  0  0  0
  -24.3017   51.1759   50.3012 C   0  0  0  0  0  0  0  0  0  0  0  0
  -25.2257   52.2421   50.1388 C   0  0  0  0  0  0  0  0  0  0  0  0
  -22.9812   48.9320   49.4977 S   0  0  0  0  0  0  0  0  0  0  0  0
  -22.9679   48.1276   48.3558 O   0  0  0  0  0  0  0  0  0  0  0  0
  -21.8574   49.6806   49.7426 O   0  0  0  0  0  0  0  0  0  0  0  0
  -23.1360   48.0114   50.9234 N   0  0  0  0  0  0  0  0  0  0  0  0
  -23.5357   47.1360   50.5854 H   0  0  0  0  0  0  0  0  0  0  0  0
  -22.1903   47.5543   51.9932 C   0  0  0  0  0  0  0  0  0  0  0  0
  -22.9187   46.8169   53.1552 C   0  0  0  0  0  0  0  0  0  0  0  0
  -23.1188   47.3436   54.5370 N   0  0  0  0  0  0  0  0  0  0  0  0
  -22.2234   47.3667   55.0250 H   0  0  0  0  0  0  0  0  0  0  0  0
  -23.7655   46.7373   55.0416 H   0  0  0  0  0  0  0  0  0  0  0  0
  1  2  2  0  0  0
  1 10  1  0  0  0
  2  3  1  0  0  0
  3  4  2  0  0  0
  4 11  1  0  0  0
  5  6  1  0  0  0
  5  7  2  0  0  0
  5 11  1  0  0  0
  7  8  1  0  0  0
  8  9  2  0  0  0
  9 10  1  0  0  0
  9 12  1  0  0  0
 10 11  2  0  0  0
 12 13  2  0  0  0
 12 14  2  0  0  0
 12 15  1  0  0  0
 15 17  1  0  0  0
 17 18  1  0  0  0
 18 19  1  0  0  0
 15 16  1  0  0  0
 19 20  1  0  0  0
 19 21  1  0  0  0
M  END
> <minimizedAffinity>
-6.22637

$$$$
2CSN_CKI_A_300


 21 22  0  0  0  0  0  0  0  0999 V2000
  -25.6506   51.2163   48.1866 C   0  0  0  0  0  0  0  0  0  0  0  0
  -26.4356   52.0158   47.4364 N   0  0  0  0  0  0  0  0  0  0  0  0
  -26.7509   53.2868   47.9118 C   0  0  0  0  0  0  0  0  0  0  0  0
  -26.2773   53.8276   49.1430 C   0  0  0  0  0  0  0  0  0  0  0  0
  -24.8842   53.3875   51.1908 C   0  0  0  0  0  0  0  0  0  0  0  0
  -25.1945   54.8928   51.7927 Cl  0  0  0  0  0  0  0  0  0  0  0  0
  -24.0187   52.5295   51.9064 C   0  0  0  0  0  0  0  0  0  0  0  0
  -23.7146   51.2448   51.3991 C   0  0  0  0  0  0  0  0  0  0  0  0
  -24.2676   50.8401   50.1607 C   0  0  0  0  0  0  0  0  0  0  0  0
  -25.1289   51.6855   49.4213 C   0  0  0  0  0  0  0  0  0  0  0  0
  -25.4334   52.9791   49.9224 C   0  0  0  0  0  0  0  0  0  0  0  0
  -23.9731   49.2206   49.5371 S   0  0  0  0  0  0  0  0  0  0  0  0
  -23.2263   48.5060   50.4766 O   0  0  0  0  0  0  0  0  0  0  0  0
  -25.2560   48.7911   49.3074 O   0  0  0  0  0  0  0  0  0  0  0  0
  -23.2729   49.1564   47.9847 N   0  0  0  0  0  0  0  0  0  0  0  0
  -22.4373   49.7319   48.0892 H   0  0  0  0  0  0  0  0  0  0  0  0
  -22.8072   48.0544   47.0812 C   0  0  0  0  0  0  0  0  0  0  0  0
  -23.9816   47.3784   46.3140 C   0  0  0  0  0  0  0  0  0  0  0  0
  -25.4216   47.7588   46.4064 N   0  0  0  0  0  0  0  0  0  0  0  0
  -25.7839   47.4984   47.3236 H   0  0  0  0  0  0  0  0  0  0  0  0
  -25.9491   47.2719   45.6818 H   0  0  0  0  0  0  0  0  0  0  0  0
  1  2  2  0  0  0
  1 10  1  0  0  0
  2  3  1  0  0  0
  3  4  2  0  0  0
  4 11  1  0  0  0
  5  6  1  0  0  0
  5  7  2  0  0  0
  5 11  1  0  0  0
  7  8  1  0  0  0
  8  9  2  0  0  0
  9 10  1  0  0  0
  9 12  1  0  0  0
 10 11  2  0  0  0
 12 13  2  0  0  0
 12 14  2  0  0  0
 12 15  1  0  0  0
 15 17  1  0  0  0
 17 18  1  0  0  0
 18 19  1  0  0  0
 15 16  1  0  0  0
 19 20  1  0  0  0
 19 21  1  0  0  0
M  END
> <minimizedAffinity>
-6.16630

$$$$
2CSN_CKI_A_300


 21 22  0  0  0  0  0  0  0  0999 V2000
  -25.1812   49.9908   47.0857 C   0  0  0  0  0  0  0  0  0  0  0  0
  -26.2835   50.7419   47.2829 N   0  0  0  0  0  0  0  0  0  0  0  0
  -26.4794   51.3350   48.5282 C   0  0  0  0  0  0  0  0  0  0  0  0
  -25.5736   51.2279   49.6238 C   0  0  0  0  0  0  0  0  0  0  0  0
  -23.3991   50.2415   50.4157 C   0  0  0  0  0  0  0  0  0  0  0  0
  -23.5579   50.9442   51.9008 Cl  0  0  0  0  0  0  0  0  0  0  0  0
  -22.2341   49.4928   50.1339 C   0  0  0  0  0  0  0  0  0  0  0  0
  -22.0607   48.9031   48.8601 C   0  0  0  0  0  0  0  0  0  0  0  0
  -23.0536   49.0902   47.8690 C   0  0  0  0  0  0  0  0  0  0  0  0
  -24.2240   49.8439   48.1245 C   0  0  0  0  0  0  0  0  0  0  0  0
  -24.4012   50.4437   49.3996 C   0  0  0  0  0  0  0  0  0  0  0  0
  -22.9078   48.3074   46.2992 S   0  0  0  0  0  0  0  0  0  0  0  0
  -22.8318   49.2918   45.3112 O   0  0  0  0  0  0  0  0  0  0  0  0
  -21.7898   47.5359   46.4940 O   0  0  0  0  0  0  0  0  0  0  0  0
  -24.1072   47.1477   45.9517 N   0  0  0  0  0  0  0  0  0  0  0  0
  -24.7218   47.2073   46.7636 H   0  0  0  0  0  0  0  0  0  0  0  0
  -25.0683   46.9283   44.8223 C   0  0  0  0  0  0  0  0  0  0  0  0
  -24.9204   45.5169   44.1814 C   0  0  0  0  0  0  0  0  0  0  0  0
  -23.7089   44.6482   44.2475 N   0  0  0  0  0  0  0  0  0  0  0  0
  -22.9664   45.0563   43.6796 H   0  0  0  0  0  0  0  0  0  0  0  0
  -23.9367   43.7194   43.8927 H   0  0  0  0  0  0  0  0  0  0  0  0
  1  2  2  0  0  0
  1 10  1  0  0  0
  2  3  1  0  0  0
  3  4  2  0  0  0
  4 11  1  0  0  0
  5  6  1  0  0  0
  5  7  2  0  0  0
  5 11  1  0  0  0
  7  8  1  0  0  0
  8  9  2  0  0  0
  9 10  1  0  0  0
  9 12  1  0  0  0
 10 11  2  0  0  0
 12 13  2  0  0  0
 12 14  2  0  0  0
 12 15  1  0  0  0
 15 17  1  0  0  0
 17 18  1  0  0  0
 18 19  1  0  0  0
 15 16  1  0  0  0
 19 20  1  0  0  0
 19 21  1  0  0  0
M  END
> <minimizedAffinity>
-6.14473

$$$$
2CSN_CKI_A_300


 21 22  0  0  0  0  0  0  0  0999 V2000
  -24.0725   50.1826   48.6214 C   0  0  0  0  0  0  0  0  0  0  0  0
  -24.1598   50.8231   49.8047 N   0  0  0  0  0  0  0  0  0  0  0  0
  -23.4427   50.3285   50.8919 C   0  0  0  0  0  0  0  0  0  0  0  0
  -22.5866   49.1897   50.8423 C   0  0  0  0  0  0  0  0  0  0  0  0
  -21.6662   47.3610   49.3805 C   0  0  0  0  0  0  0  0  0  0  0  0
  -20.7677   46.7461   50.6211 Cl  0  0  0  0  0  0  0  0  0  0  0  0
  -21.5667   46.7654   48.1027 C   0  0  0  0  0  0  0  0  0  0  0  0
  -22.3050   47.2897   47.0162 C   0  0  0  0  0  0  0  0  0  0  0  0
  -23.1235   48.4264   47.2190 C   0  0  0  0  0  0  0  0  0  0  0  0
  -23.2317   49.0459   48.4869 C   0  0  0  0  0  0  0  0  0  0  0  0
  -22.4882   48.5279   49.5805 C   0  0  0  0  0  0  0  0  0  0  0  0
  -24.1152   49.0585   45.9093 S   0  0  0  0  0  0  0  0  0  0  0  0
  -23.4540   50.1426   45.3275 O   0  0  0  0  0  0  0  0  0  0  0  0
  -24.2704   47.9371   45.1336 O   0  0  0  0  0  0  0  0  0  0  0  0
  -25.7197   49.4448   46.3346 N   0  0  0  0  0  0  0  0  0  0  0  0
  -25.5990   50.0540   47.1437 H   0  0  0  0  0  0  0  0  0  0  0  0
  -26.8809   50.0674   45.6194 C   0  0  0  0  0  0  0  0  0  0  0  0
  -26.6926   51.5973   45.3994 C   0  0  0  0  0  0  0  0  0  0  0  0
  -26.0122   52.5392   46.3358 N   0  0  0  0  0  0  0  0  0  0  0  0
  -26.5860   52.6630   47.1700 H   0  0  0  0  0  0  0  0  0  0  0  0
  -25.8816   53.4404   45.8762 H   0  0  0  0  0  0  0  0  0  0  0  0
  1  2  2  0  0  0
  1 10  1  0  0  0
  2  3  1  0  0  0
  3  4  2  0  0  0
  4 11  1  0  0  0
  5  6  1  0  0  0
  5  7  2  0  0  0
  5 11  1  0  0  0
  7  8  1  0  0  0
  8  9  2  0  0  0
  9 10  1  0  0  0
  9 12  1  0  0  0
 10 11  2  0  0  0
 12 13  2  0  0  0
 12 14  2  0  0  0
 12 15  1  0  0  0
 15 17  1  0  0  0
 17 18  1  0  0  0
 18 19  1  0  0  0
 15 16  1  0  0  0
 19 20  1  0  0  0
 19 21  1  0  0  0
M  END
> <minimizedAffinity>
-5.87773

$$$$
2CSN_CKI_A_300


 21 22  0  0  0  0  0  0  0  0999 V2000
  -22.4569   49.1076   48.9200 C   0  0  0  0  0  0  0  0  0  0  0  0
  -21.9859   49.2706   50.1729 N   0  0  0  0  0  0  0  0  0  0  0  0
  -22.7000   50.0720   51.0610 C   0  0  0  0  0  0  0  0  0  0  0  0
  -23.9280   50.7255   50.7488 C   0  0  0  0  0  0  0  0  0  0  0  0
  -25.6526   51.1355   48.9640 C   0  0  0  0  0  0  0  0  0  0  0  0
  -26.5602   52.0693   49.9784 Cl  0  0  0  0  0  0  0  0  0  0  0  0
  -26.1289   50.8819   47.6578 C   0  0  0  0  0  0  0  0  0  0  0  0
  -25.3839   50.0628   46.7778 C   0  0  0  0  0  0  0  0  0  0  0  0
  -24.1725   49.4852   47.2272 C   0  0  0  0  0  0  0  0  0  0  0  0
  -23.6803   49.7167   48.5339 C   0  0  0  0  0  0  0  0  0  0  0  0
  -24.4267   50.5334   49.4244 C   0  0  0  0  0  0  0  0  0  0  0  0
  -23.1814   48.5244   46.1351 S   0  0  0  0  0  0  0  0  0  0  0  0
  -23.9866   47.5552   45.5324 O   0  0  0  0  0  0  0  0  0  0  0  0
  -22.6692   49.5011   45.3185 O   0  0  0  0  0  0  0  0  0  0  0  0
  -21.7816   47.8462   46.8315 N   0  0  0  0  0  0  0  0  0  0  0  0
  -21.9795   47.8949   47.8309 H   0  0  0  0  0  0  0  0  0  0  0  0
  -21.0639   46.5368   46.6978 C   0  0  0  0  0  0  0  0  0  0  0  0
  -21.7388   45.4020   47.5231 C   0  0  0  0  0  0  0  0  0  0  0  0
  -22.2997   45.5355   48.8996 N   0  0  0  0  0  0  0  0  0  0  0  0
  -21.5379   45.6577   49.5667 H   0  0  0  0  0  0  0  0  0  0  0  0
  -22.8263   44.6943   49.1352 H   0  0  0  0  0  0  0  0  0  0  0  0
  1  2  2  0  0  0
  1 10  1  0  0  0
  2  3  1  0  0  0
  3  4  2  0  0  0
  4 11  1  0  0  0
  5  6  1  0  0  0
  5  7  2  0  0  0
  5 11  1  0  0  0
  7  8  1  0  0  0
  8  9  2  0  0  0
  9 10  1  0  0  0
  9 12  1  0  0  0
 10 11  2  0  0  0
 12 13  2  0  0  0
 12 14  2  0  0  0
 12 15  1  0  0  0
 15 17  1  0  0  0
 17 18  1  0  0  0
 18 19  1  0  0  0
 15 16  1  0  0  0
 19 20  1  0  0  0
 19 21  1  0  0  0
M  END
> <minimizedAffinity>
-5.85204

$$$$
2CSN_CKI_A_300


 21 22  0  0  0  0  0  0  0  0999 V2000
  -25.7359   51.0579   46.3539 C   0  0  0  0  0  0  0  0  0  0  0  0
  -26.5680   52.1158   46.2711 N   0  0  0  0  0  0  0  0  0  0  0  0
  -26.8650   52.8303   47.4296 C   0  0  0  0  0  0  0  0  0  0  0  0
  -26.3264   52.5390   48.7170 C   0  0  0  0  0  0  0  0  0  0  0  0
  -24.8163   51.0106   50.0253 C   0  0  0  0  0  0  0  0  0  0  0  0
  -25.1030   51.8360   51.4257 Cl  0  0  0  0  0  0  0  0  0  0  0  0
  -23.9055   49.9301   50.0421 C   0  0  0  0  0  0  0  0  0  0  0  0
  -23.6213   49.2234   48.8503 C   0  0  0  0  0  0  0  0  0  0  0  0
  -24.2407   49.6244   47.6425 C   0  0  0  0  0  0  0  0  0  0  0  0
  -25.1486   50.7094   47.5991 C   0  0  0  0  0  0  0  0  0  0  0  0
  -25.4335   51.4268   48.7912 C   0  0  0  0  0  0  0  0  0  0  0  0
  -23.9702   48.7205   46.1566 S   0  0  0  0  0  0  0  0  0  0  0  0
  -25.1907   48.5673   45.4950 O   0  0  0  0  0  0  0  0  0  0  0  0
  -23.0251   49.5032   45.5423 O   0  0  0  0  0  0  0  0  0  0  0  0
  -23.1586   47.2342   46.3482 N   0  0  0  0  0  0  0  0  0  0  0  0
  -23.5176   46.8936   47.2401 H   0  0  0  0  0  0  0  0  0  0  0  0
  -23.0454   45.9804   45.5342 C   0  0  0  0  0  0  0  0  0  0  0  0
  -21.6427   45.3158   45.6582 C   0  0  0  0  0  0  0  0  0  0  0  0
  -20.3526   45.8999   45.1878 N   0  0  0  0  0  0  0  0  0  0  0  0
  -20.3332   45.9044   44.1680 H   0  0  0  0  0  0  0  0  0  0  0  0
  -19.5769   45.3391   45.5401 H   0  0  0  0  0  0  0  0  0  0  0  0
  1  2  2  0  0  0
  1 10  1  0  0  0
  2  3  1  0  0  0
  3  4  2  0  0  0
  4 11  1  0  0  0
  5  6  1  0  0  0
  5  7  2  0  0  0
  5 11  1  0  0  0
  7  8  1  0  0  0
  8  9  2  0  0  0
  9 10  1  0  0  0
  9 12  1  0  0  0
 10 11  2  0  0  0
 12 13  2  0  0  0
 12 14  2  0  0  0
 12 15  1  0  0  0
 15 17  1  0  0  0
 17 18  1  0  0  0
 18 19  1  0  0  0
 15 16  1  0  0  0
 19 20  1  0  0  0
 19 21  1  0  0  0
M  END
> <minimizedAffinity>
-5.82452

$$$$
