3VDB_149_A_2001


 16 16  0  0  0  0  0  0  0  0999 V2000
  -12.9318  -27.9392  -25.6300 C   0  0  0  0  0  0  0  0  0  0  0  0
  -13.2528  -27.5535  -27.0487 C   0  0  0  0  0  0  0  0  0  0  0  0
  -12.5132  -28.4701  -28.0054 C   0  0  0  0  0  0  0  0  0  0  0  0
  -11.0376  -28.5837  -27.6107 C   0  0  0  0  0  0  0  0  0  0  0  0
  -10.8987  -29.2640  -26.2522 C   0  0  0  0  0  0  0  0  0  0  0  0
  -13.6903  -27.6459  -24.7262 O   0  0  0  0  0  0  0  0  0  0  0  0
  -14.6541  -27.6566  -27.3223 O   0  0  0  0  0  0  0  0  0  0  0  0
  -12.6735  -27.9540  -29.3316 O   0  0  0  0  0  0  0  0  0  0  0  0
  -10.4052  -27.3019  -27.5297 O   0  0  0  0  0  0  0  0  0  0  0  0
  -11.7163  -28.6499  -25.2529 O   0  0  0  0  0  0  0  0  0  0  0  0
  -14.9396  -28.5762  -27.2053 H   0  0  0  0  0  0  0  0  0  0  0  0
  -12.3082  -27.0565  -29.3757 H   0  0  0  0  0  0  0  0  0  0  0  0
  -10.8341  -26.7728  -26.8391 H   0  0  0  0  0  0  0  0  0  0  0  0
   -9.4659  -29.1890  -25.7408 C   0  0  0  0  0  0  0  0  0  0  0  0
   -9.3103  -28.0747  -24.8579 O   0  0  0  0  0  0  0  0  0  0  0  0
   -9.5137  -27.2543  -25.3338 H   0  0  0  0  0  0  0  0  0  0  0  0
  1  2  1  0  0  0
  1  6  2  0  0  0
  1 10  1  0  0  0
  2  3  1  0  0  0
  2  7  1  0  0  0
  3  4  1  0  0  0
  3  8  1  0  0  0
  4  5  1  0  0  0
  4  9  1  0  0  0
  5 14  1  0  0  0
  5 10  1  0  0  0
 14 15  1  0  0  0
  7 11  1  0  0  0
  8 12  1  0  0  0
  9 13  1  0  0  0
 15 16  1  0  0  0
M  END
> <minimizedAffinity>
-6.63301

$$$$
3VDB_149_A_2001


 16 16  0  0  0  0  0  0  0  0999 V2000
  -12.7273  -27.8519  -27.9007 C   0  0  0  0  0  0  0  0  0  0  0  0
  -11.7060  -27.1908  -27.0150 C   0  0  0  0  0  0  0  0  0  0  0  0
  -11.8468  -27.7135  -25.5975 C   0  0  0  0  0  0  0  0  0  0  0  0
  -13.3120  -27.6762  -25.1523 C   0  0  0  0  0  0  0  0  0  0  0  0
  -14.1504  -28.6341  -25.9932 C   0  0  0  0  0  0  0  0  0  0  0  0
  -12.5507  -27.9154  -29.1020 O   0  0  0  0  0  0  0  0  0  0  0  0
  -10.3703  -27.4526  -27.4586 O   0  0  0  0  0  0  0  0  0  0  0  0
  -11.0091  -26.9239  -24.7455 O   0  0  0  0  0  0  0  0  0  0  0  0
  -13.8765  -26.3668  -25.2792 O   0  0  0  0  0  0  0  0  0  0  0  0
  -13.9693  -28.4238  -27.3957 O   0  0  0  0  0  0  0  0  0  0  0  0
  -10.2003  -28.4070  -27.4269 H   0  0  0  0  0  0  0  0  0  0  0  0
  -11.2857  -25.9953  -24.7906 H   0  0  0  0  0  0  0  0  0  0  0  0
  -13.8660  -26.0991  -26.2114 H   0  0  0  0  0  0  0  0  0  0  0  0
  -15.6377  -28.4520  -25.7199 C   0  0  0  0  0  0  0  0  0  0  0  0
  -16.1959  -27.4936  -26.6227 O   0  0  0  0  0  0  0  0  0  0  0  0
  -15.7513  -26.6398  -26.5035 H   0  0  0  0  0  0  0  0  0  0  0  0
  1  2  1  0  0  0
  1  6  2  0  0  0
  1 10  1  0  0  0
  2  3  1  0  0  0
  2  7  1  0  0  0
  3  4  1  0  0  0
  3  8  1  0  0  0
  4  5  1  0  0  0
  4  9  1  0  0  0
  5 14  1  0  0  0
  5 10  1  0  0  0
 14 15  1  0  0  0
  7 11  1  0  0  0
  8 12  1  0  0  0
  9 13  1  0  0  0
 15 16  1  0  0  0
M  END
> <minimizedAffinity>
-6.50400

$$$$
3VDB_149_A_2001


 16 16  0  0  0  0  0  0  0  0999 V2000
  -11.7844  -27.4157  -25.7455 C   0  0  0  0  0  0  0  0  0  0  0  0
  -11.3291  -28.0498  -27.0320 C   0  0  0  0  0  0  0  0  0  0  0  0
  -12.4755  -28.0651  -28.0258 C   0  0  0  0  0  0  0  0  0  0  0  0
  -13.7492  -28.6087  -27.3711 C   0  0  0  0  0  0  0  0  0  0  0  0
  -14.2219  -27.6725  -26.2632 C   0  0  0  0  0  0  0  0  0  0  0  0
  -10.9755  -26.9261  -24.9811 O   0  0  0  0  0  0  0  0  0  0  0  0
  -10.2369  -27.3341  -27.6187 O   0  0  0  0  0  0  0  0  0  0  0  0
  -12.0773  -28.8515  -29.1545 O   0  0  0  0  0  0  0  0  0  0  0  0
  -13.5447  -29.9043  -26.7975 O   0  0  0  0  0  0  0  0  0  0  0  0
  -13.1812  -27.3668  -25.3318 O   0  0  0  0  0  0  0  0  0  0  0  0
  -10.5189  -26.4304  -27.8302 H   0  0  0  0  0  0  0  0  0  0  0  0
  -11.8722  -29.7538  -28.8637 H   0  0  0  0  0  0  0  0  0  0  0  0
  -12.8785  -29.8454  -26.0949 H   0  0  0  0  0  0  0  0  0  0  0  0
  -15.3513  -28.2985  -25.4554 C   0  0  0  0  0  0  0  0  0  0  0  0
  -16.1809  -29.1016  -26.2993 O   0  0  0  0  0  0  0  0  0  0  0  0
  -16.5669  -28.5473  -26.9954 H   0  0  0  0  0  0  0  0  0  0  0  0
  1  2  1  0  0  0
  1  6  2  0  0  0
  1 10  1  0  0  0
  2  3  1  0  0  0
  2  7  1  0  0  0
  3  4  1  0  0  0
  3  8  1  0  0  0
  4  5  1  0  0  0
  4  9  1  0  0  0
  5 14  1  0  0  0
  5 10  1  0  0  0
 14 15  1  0  0  0
  7 11  1  0  0  0
  8 12  1  0  0  0
  9 13  1  0  0  0
 15 16  1  0  0  0
M  END
> <minimizedAffinity>
-6.42971

$$$$
3VDB_149_A_2001


 16 16  0  0  0  0  0  0  0  0999 V2000
  -12.2373  -27.8424  -27.8380 C   0  0  0  0  0  0  0  0  0  0  0  0
  -11.4147  -28.7010  -26.9157 C   0  0  0  0  0  0  0  0  0  0  0  0
  -12.3288  -29.6129  -26.1186 C   0  0  0  0  0  0  0  0  0  0  0  0
  -13.4883  -28.8169  -25.5117 C   0  0  0  0  0  0  0  0  0  0  0  0
  -14.3827  -28.2529  -26.6115 C   0  0  0  0  0  0  0  0  0  0  0  0
  -11.7376  -27.3554  -28.8337 O   0  0  0  0  0  0  0  0  0  0  0  0
  -10.4865  -29.5172  -27.6378 O   0  0  0  0  0  0  0  0  0  0  0  0
  -11.5436  -30.2640  -25.1133 O   0  0  0  0  0  0  0  0  0  0  0  0
  -13.0258  -27.7222  -24.7135 O   0  0  0  0  0  0  0  0  0  0  0  0
  -13.6399  -27.5288  -27.5953 O   0  0  0  0  0  0  0  0  0  0  0  0
  -10.9721  -30.1154  -28.2270 H   0  0  0  0  0  0  0  0  0  0  0  0
  -11.1442  -29.5973  -24.5329 H   0  0  0  0  0  0  0  0  0  0  0  0
  -12.5296  -27.1026  -25.2709 H   0  0  0  0  0  0  0  0  0  0  0  0
  -15.4081  -27.2797  -26.0448 C   0  0  0  0  0  0  0  0  0  0  0  0
  -15.9669  -27.7950  -24.8334 O   0  0  0  0  0  0  0  0  0  0  0  0
  -16.4074  -28.6401  -25.0143 H   0  0  0  0  0  0  0  0  0  0  0  0
  1  2  1  0  0  0
  1  6  2  0  0  0
  1 10  1  0  0  0
  2  3  1  0  0  0
  2  7  1  0  0  0
  3  4  1  0  0  0
  3  8  1  0  0  0
  4  5  1  0  0  0
  4  9  1  0  0  0
  5 14  1  0  0  0
  5 10  1  0  0  0
 14 15  1  0  0  0
  7 11  1  0  0  0
  8 12  1  0  0  0
  9 13  1  0  0  0
 15 16  1  0  0  0
M  END
> <minimizedAffinity>
-6.29920

$$$$
3VDB_149_A_2001


 16 16  0  0  0  0  0  0  0  0999 V2000
  -11.2850  -28.6465  -28.3401 C   0  0  0  0  0  0  0  0  0  0  0  0
  -12.2408  -27.7104  -27.6512 C   0  0  0  0  0  0  0  0  0  0  0  0
  -11.6356  -27.2368  -26.3429 C   0  0  0  0  0  0  0  0  0  0  0  0
  -11.0911  -28.4225  -25.5404 C   0  0  0  0  0  0  0  0  0  0  0  0
   -9.9286  -29.0787  -26.2789 C   0  0  0  0  0  0  0  0  0  0  0  0
  -11.3520  -28.8193  -29.5418 O   0  0  0  0  0  0  0  0  0  0  0  0
  -12.5286  -26.5607  -28.4541 O   0  0  0  0  0  0  0  0  0  0  0  0
  -12.6418  -26.5189  -25.6197 O   0  0  0  0  0  0  0  0  0  0  0  0
  -12.0920  -29.4210  -25.3156 O   0  0  0  0  0  0  0  0  0  0  0  0
  -10.2599  -29.4026  -27.6314 O   0  0  0  0  0  0  0  0  0  0  0  0
  -11.7102  -26.0654  -28.6147 H   0  0  0  0  0  0  0  0  0  0  0  0
  -13.3965  -27.1038  -25.4489 H   0  0  0  0  0  0  0  0  0  0  0  0
  -12.3886  -29.7788  -26.1670 H   0  0  0  0  0  0  0  0  0  0  0  0
   -9.5178  -30.3853  -25.6125 C   0  0  0  0  0  0  0  0  0  0  0  0
   -9.3526  -30.1954  -24.2046 O   0  0  0  0  0  0  0  0  0  0  0  0
   -8.6602  -29.5348  -24.0465 H   0  0  0  0  0  0  0  0  0  0  0  0
  1  2  1  0  0  0
  1  6  2  0  0  0
  1 10  1  0  0  0
  2  3  1  0  0  0
  2  7  1  0  0  0
  3  4  1  0  0  0
  3  8  1  0  0  0
  4  5  1  0  0  0
  4  9  1  0  0  0
  5 14  1  0  0  0
  5 10  1  0  0  0
 14 15  1  0  0  0
  7 11  1  0  0  0
  8 12  1  0  0  0
  9 13  1  0  0  0
 15 16  1  0  0  0
M  END
> <minimizedAffinity>
-6.19981

$$$$
3VDB_149_A_2001


 16 16  0  0  0  0  0  0  0  0999 V2000
  -14.5588  -27.7617  -26.9273 C   0  0  0  0  0  0  0  0  0  0  0  0
  -14.3467  -27.4854  -25.4634 C   0  0  0  0  0  0  0  0  0  0  0  0
  -12.9702  -26.8829  -25.2531 C   0  0  0  0  0  0  0  0  0  0  0  0
  -11.9051  -27.7019  -25.9887 C   0  0  0  0  0  0  0  0  0  0  0  0
  -12.1229  -27.6296  -27.4970 C   0  0  0  0  0  0  0  0  0  0  0  0
  -15.6838  -27.8454  -27.3808 O   0  0  0  0  0  0  0  0  0  0  0  0
  -15.3200  -26.5697  -24.9500 O   0  0  0  0  0  0  0  0  0  0  0  0
  -12.7197  -26.8230  -23.8443 O   0  0  0  0  0  0  0  0  0  0  0  0
  -11.9304  -29.0806  -25.6042 O   0  0  0  0  0  0  0  0  0  0  0  0
  -13.4630  -27.9629  -27.8673 O   0  0  0  0  0  0  0  0  0  0  0  0
  -15.2426  -25.7216  -25.4144 H   0  0  0  0  0  0  0  0  0  0  0  0
  -12.7558  -27.7176  -23.4712 H   0  0  0  0  0  0  0  0  0  0  0  0
  -12.7874  -29.4672  -25.8429 H   0  0  0  0  0  0  0  0  0  0  0  0
  -11.2176  -28.6084  -28.2334 C   0  0  0  0  0  0  0  0  0  0  0  0
  -11.6777  -28.7999  -29.5739 O   0  0  0  0  0  0  0  0  0  0  0  0
  -12.5779  -29.1608  -29.5583 H   0  0  0  0  0  0  0  0  0  0  0  0
  1  2  1  0  0  0
  1  6  2  0  0  0
  1 10  1  0  0  0
  2  3  1  0  0  0
  2  7  1  0  0  0
  3  4  1  0  0  0
  3  8  1  0  0  0
  4  5  1  0  0  0
  4  9  1  0  0  0
  5 14  1  0  0  0
  5 10  1  0  0  0
 14 15  1  0  0  0
  7 11  1  0  0  0
  8 12  1  0  0  0
  9 13  1  0  0  0
 15 16  1  0  0  0
M  END
> <minimizedAffinity>
-6.17728

$$$$
3VDB_149_A_2001


 16 16  0  0  0  0  0  0  0  0999 V2000
  -14.1970  -28.7450  -25.9134 C   0  0  0  0  0  0  0  0  0  0  0  0
  -14.0828  -27.5176  -25.0503 C   0  0  0  0  0  0  0  0  0  0  0  0
  -13.5064  -26.3743  -25.8646 C   0  0  0  0  0  0  0  0  0  0  0  0
  -12.2596  -26.8313  -26.6280 C   0  0  0  0  0  0  0  0  0  0  0  0
  -12.6259  -27.8876  -27.6661 C   0  0  0  0  0  0  0  0  0  0  0  0
  -14.9835  -29.6269  -25.6274 O   0  0  0  0  0  0  0  0  0  0  0  0
  -15.3560  -27.1073  -24.5404 O   0  0  0  0  0  0  0  0  0  0  0  0
  -13.2199  -25.2912  -24.9726 O   0  0  0  0  0  0  0  0  0  0  0  0
  -11.2737  -27.3929  -25.7551 O   0  0  0  0  0  0  0  0  0  0  0  0
  -13.3816  -28.9621  -27.1019 O   0  0  0  0  0  0  0  0  0  0  0  0
  -15.9431  -26.8829  -25.2792 H   0  0  0  0  0  0  0  0  0  0  0  0
  -12.5809  -25.5834  -24.3039 H   0  0  0  0  0  0  0  0  0  0  0  0
  -11.6361  -28.1824  -25.3235 H   0  0  0  0  0  0  0  0  0  0  0  0
  -11.3807  -28.5139  -28.2801 C   0  0  0  0  0  0  0  0  0  0  0  0
  -11.6315  -28.8938  -29.6359 O   0  0  0  0  0  0  0  0  0  0  0  0
  -12.3512  -29.5437  -29.6617 H   0  0  0  0  0  0  0  0  0  0  0  0
  1  2  1  0  0  0
  1  6  2  0  0  0
  1 10  1  0  0  0
  2  3  1  0  0  0
  2  7  1  0  0  0
  3  4  1  0  0  0
  3  8  1  0  0  0
  4  5  1  0  0  0
  4  9  1  0  0  0
  5 14  1  0  0  0
  5 10  1  0  0  0
 14 15  1  0  0  0
  7 11  1  0  0  0
  8 12  1  0  0  0
  9 13  1  0  0  0
 15 16  1  0  0  0
M  END
> <minimizedAffinity>
-6.10706

$$$$
3VDB_149_A_2001


 16 16  0  0  0  0  0  0  0  0999 V2000
  -13.2855  -26.4243  -25.3678 C   0  0  0  0  0  0  0  0  0  0  0  0
  -14.5640  -27.0644  -25.8370 C   0  0  0  0  0  0  0  0  0  0  0  0
  -14.3698  -28.5648  -25.9526 C   0  0  0  0  0  0  0  0  0  0  0  0
  -13.0847  -28.8841  -26.7226 C   0  0  0  0  0  0  0  0  0  0  0  0
  -11.8628  -28.4037  -25.9454 C   0  0  0  0  0  0  0  0  0  0  0  0
  -13.3062  -25.3400  -24.8182 O   0  0  0  0  0  0  0  0  0  0  0  0
  -15.6436  -26.8209  -24.9288 O   0  0  0  0  0  0  0  0  0  0  0  0
  -15.5267  -29.1166  -26.5914 O   0  0  0  0  0  0  0  0  0  0  0  0
  -13.0632  -28.2591  -28.0103 O   0  0  0  0  0  0  0  0  0  0  0  0
  -11.9743  -27.0330  -25.5546 O   0  0  0  0  0  0  0  0  0  0  0  0
  -15.4320  -27.2066  -24.0643 H   0  0  0  0  0  0  0  0  0  0  0  0
  -15.6292  -28.7220  -27.4716 H   0  0  0  0  0  0  0  0  0  0  0  0
  -13.0863  -27.2954  -27.9024 H   0  0  0  0  0  0  0  0  0  0  0  0
  -10.5970  -28.5093  -26.7859 C   0  0  0  0  0  0  0  0  0  0  0  0
  -10.4296  -27.3341  -27.5835 O   0  0  0  0  0  0  0  0  0  0  0  0
  -11.1899  -27.2357  -28.1778 H   0  0  0  0  0  0  0  0  0  0  0  0
  1  2  1  0  0  0
  1  6  2  0  0  0
  1 10  1  0  0  0
  2  3  1  0  0  0
  2  7  1  0  0  0
  3  4  1  0  0  0
  3  8  1  0  0  0
  4  5  1  0  0  0
  4  9  1  0  0  0
  5 14  1  0  0  0
  5 10  1  0  0  0
 14 15  1  0  0  0
  7 11  1  0  0  0
  8 12  1  0  0  0
  9 13  1  0  0  0
 15 16  1  0  0  0
M  END
> <minimizedAffinity>
-5.78273

$$$$
3VDB_149_A_2001


 16 16  0  0  0  0  0  0  0  0999 V2000
  -12.0980  -26.6665  -25.9032 C   0  0  0  0  0  0  0  0  0  0  0  0
  -11.0809  -27.5368  -25.2157 C   0  0  0  0  0  0  0  0  0  0  0  0
  -10.0959  -28.0733  -26.2376 C   0  0  0  0  0  0  0  0  0  0  0  0
  -10.8361  -28.6549  -27.4459 C   0  0  0  0  0  0  0  0  0  0  0  0
  -11.5912  -27.5572  -28.1891 C   0  0  0  0  0  0  0  0  0  0  0  0
  -12.7086  -25.8219  -25.2770 O   0  0  0  0  0  0  0  0  0  0  0  0
  -10.3468  -26.8119  -24.2232 O   0  0  0  0  0  0  0  0  0  0  0  0
   -9.2730  -29.0522  -25.5930 O   0  0  0  0  0  0  0  0  0  0  0  0
  -11.7812  -29.6592  -27.0618 O   0  0  0  0  0  0  0  0  0  0  0  0
  -12.4251  -26.7887  -27.3184 O   0  0  0  0  0  0  0  0  0  0  0  0
   -9.8619  -26.0858  -24.6458 H   0  0  0  0  0  0  0  0  0  0  0  0
   -9.8301  -29.7701  -25.2536 H   0  0  0  0  0  0  0  0  0  0  0  0
  -12.4577  -29.2645  -26.4894 H   0  0  0  0  0  0  0  0  0  0  0  0
  -12.5074  -28.1420  -29.2561 C   0  0  0  0  0  0  0  0  0  0  0  0
  -11.7804  -29.0406  -30.0983 O   0  0  0  0  0  0  0  0  0  0  0  0
  -11.0596  -28.5615  -30.5363 H   0  0  0  0  0  0  0  0  0  0  0  0
  1  2  1  0  0  0
  1  6  2  0  0  0
  1 10  1  0  0  0
  2  3  1  0  0  0
  2  7  1  0  0  0
  3  4  1  0  0  0
  3  8  1  0  0  0
  4  5  1  0  0  0
  4  9  1  0  0  0
  5 14  1  0  0  0
  5 10  1  0  0  0
 14 15  1  0  0  0
  7 11  1  0  0  0
  8 12  1  0  0  0
  9 13  1  0  0  0
 15 16  1  0  0  0
M  END
> <minimizedAffinity>
-5.56298

$$$$
3VDB_149_A_2001


 16 16  0  0  0  0  0  0  0  0999 V2000
  -10.7122  -28.1615  -25.6327 C   0  0  0  0  0  0  0  0  0  0  0  0
  -11.3814  -29.2415  -26.4390 C   0  0  0  0  0  0  0  0  0  0  0  0
  -12.7517  -28.7678  -26.8866 C   0  0  0  0  0  0  0  0  0  0  0  0
  -13.5266  -28.1697  -25.7084 C   0  0  0  0  0  0  0  0  0  0  0  0
  -12.8371  -26.9067  -25.2015 C   0  0  0  0  0  0  0  0  0  0  0  0
   -9.5014  -28.1349  -25.5255 O   0  0  0  0  0  0  0  0  0  0  0  0
  -10.6221  -29.5813  -27.6041 O   0  0  0  0  0  0  0  0  0  0  0  0
  -13.4400  -29.8802  -27.4695 O   0  0  0  0  0  0  0  0  0  0  0  0
  -13.6285  -29.0871  -24.6142 O   0  0  0  0  0  0  0  0  0  0  0  0
  -11.4496  -27.1191  -24.9296 O   0  0  0  0  0  0  0  0  0  0  0  0
  -10.5449  -28.8032  -28.1781 H   0  0  0  0  0  0  0  0  0  0  0  0
  -13.5271  -30.5874  -26.8114 H   0  0  0  0  0  0  0  0  0  0  0  0
  -12.7409  -29.2942  -24.2822 H   0  0  0  0  0  0  0  0  0  0  0  0
  -13.4607  -26.4216  -23.8993 C   0  0  0  0  0  0  0  0  0  0  0  0
  -14.8862  -26.5187  -23.9637 O   0  0  0  0  0  0  0  0  0  0  0  0
  -15.2153  -25.9670  -24.6904 H   0  0  0  0  0  0  0  0  0  0  0  0
  1  2  1  0  0  0
  1  6  2  0  0  0
  1 10  1  0  0  0
  2  3  1  0  0  0
  2  7  1  0  0  0
  3  4  1  0  0  0
  3  8  1  0  0  0
  4  5  1  0  0  0
  4  9  1  0  0  0
  5 14  1  0  0  0
  5 10  1  0  0  0
 14 15  1  0  0  0
  7 11  1  0  0  0
  8 12  1  0  0  0
  9 13  1  0  0  0
 15 16  1  0  0  0
M  END
> <minimizedAffinity>
-5.53887

$$$$
