3VDB_149_A_2001
  RCSB PDB12061711123D
Coordinates from PDB:3VDB:A:2001 Model:1 without hydrogens
 12 12  0  0  0  0            999 V2000
  -11.2710  -26.9760  -25.6780   C 0  0  0  0  0  0  0  0  0  0  0  0
  -10.3110  -28.0180  -25.1710   C 0  0  0  0  0  0  0  0  0  0  0  0
   -9.5880  -28.6570  -26.3420   C 0  0  0  0  0  0  0  0  0  0  0  0
  -10.5840  -29.0700  -27.4300   C 0  0  0  0  0  0  0  0  0  0  0  0
  -11.2610  -27.8410  -28.0290   C 0  0  0  0  0  0  0  0  0  0  0  0
  -12.4080  -28.2360  -28.9500   C 0  0  0  0  0  0  0  0  0  0  0  0
  -11.6400  -26.0740  -24.9510   O 0  0  0  0  0  0  0  0  0  0  0  0
   -9.3310  -27.4540  -24.2930   O 0  0  0  0  0  0  0  0  0  0  0  0
   -8.8410  -29.7750  -25.8490   O 0  0  0  0  0  0  0  0  0  0  0  0
  -11.6060  -29.9330  -26.9200   O 0  0  0  0  0  0  0  0  0  0  0  0
  -11.8230  -26.9900  -27.0270   O 0  0  0  0  0  0  0  0  0  0  0  0
  -11.9010  -28.7990  -30.1630   O 0  0  0  0  0  0  0  0  0  0  0  0
  1  2  1  0  0  0  0
  1  7  2  0  0  0  0
  1 11  1  0  0  0  0
  2  3  1  0  0  0  0
  2  8  1  0  0  0  0
  3  4  1  0  0  0  0
  3  9  1  0  0  0  0
  4  5  1  0  0  0  0
  4 10  1  0  0  0  0
  5  6  1  0  0  0  0
  5 11  1  0  0  0  0
  6 12  1  0  0  0  0
A    1
C1
A    2
C2
A    3
C3
A    4
C4
A    5
C5
A    6
C6
A    7
O1
A    8
O2
A    9
O3
A   10
O4
A   11
O5
A   12
O6
M  END
>  <InstanceId>
3VDB_149_A_2001

>  <ChemCompId>
149

>  <PdbId>
3VDB

>  <ChainId>
A

>  <ResidueNumber>
2001

>  <InsertionCode>


>  <Model>
1

>  <AltIds>


>  <MissingHeavyAtoms>
0

>  <ObservedFormula>
C6 O6

>  <Name>
D-galactonolactone

>  <SystematicName>
(3R,4S,5R,6R)-3,4,5-trihydroxy-6-(hydroxymethyl)oxan-2-one

>  <Synonyms>
(3R,4S,5R,6R)-3,4,5-trihydroxy-6-(hydroxymethyl)oxan-2-one

>  <Type>
D-SACCHARIDE

>  <Formula>
C6 H10 O6

>  <MolecularWeight>
178.14

>  <ModifiedDate>
2011-06-04

>  <Parent>


>  <OneLetterCode>


>  <SubcomponentList>


>  <AmbiguousFlag>
N

>  <InChI>
InChI=1S/C6H10O6/c7-1-2-3(8)4(9)5(10)6(11)12-2/h2-5,7-10H,1H2/t2-,3+,4+,5-/m1/s1

>  <InChIKey>
PHOQVHQSTUBQQK-MGCNEYSASA-N

>  <SMILES>
C([C@@H]1[C@@H]([C@@H]([C@H](C(=O)O1)O)O)O)O

$$$$
