3TD4_API_A_401
  RCSB PDB12061710523D
Coordinates from PDB:3TD4:A:401 Model:1 without hydrogens
 13 12  0  0  0  0            999 V2000
   22.5490    1.0090   30.0020   C 0  0  0  0  0  0  0  0  0  0  0  0
   21.4150    1.9200   30.3680   C 0  0  0  0  0  0  0  0  0  0  0  0
   20.7920    2.5830   29.0850   C 0  0  0  0  0  0  0  0  0  0  0  0
   20.4200    1.6020   28.0020   C 0  0  0  0  0  0  0  0  0  0  0  0
   19.0930    2.0760   27.3030   C 0  0  0  0  0  0  0  0  0  0  0  0
   19.4270    3.0420   26.1780   C 0  0  0  0  0  0  0  0  0  0  0  0
   18.1670    3.8350   25.7830   C 0  0  0  0  0  0  0  0  0  0  0  0
   23.5700    1.5790   29.5070   O 0  0  0  0  0  0  0  0  0  0  0  0
   22.4150   -0.2280   30.1640   O 0  0  0  0  0  0  0  0  0  0  0  0
   17.9270    3.8710   24.5670   O 0  0  0  0  0  0  0  0  0  0  0  0
   17.4070    4.4110   26.5810   O 0  0  0  0  0  0  0  0  0  0  0  0
   22.0200    2.9840   31.1580   N 0  0  0  0  0  0  0  0  0  0  0  0
   20.0250    2.2620   25.0780   N 0  0  0  0  0  0  0  0  0  0  0  0
  1  2  1  0  0  0  0
  1  8  2  0  0  0  0
  1  9  1  0  0  0  0
  2  3  1  0  0  0  0
  2 12  1  0  0  0  0
  3  4  1  0  0  0  0
  4  5  1  0  0  0  0
  5  6  1  0  0  0  0
  6  7  1  0  0  0  0
  6 13  1  0  0  0  0
  7 10  2  0  0  0  0
  7 11  1  0  0  0  0
A    1
C1
A    2
C2
A    3
C3
A    4
C4
A    5
C5
A    6
C6
A    7
C7
A    8
O1
A    9
O2
A   10
O3
A   11
O4
A   12
N2
A   13
N6
M  END
>  <InstanceId>
3TD4_API_A_401

>  <ChemCompId>
API

>  <PdbId>
3TD4

>  <ChainId>
A

>  <ResidueNumber>
401

>  <InsertionCode>


>  <Model>
1

>  <AltIds>


>  <MissingHeavyAtoms>
0

>  <ObservedFormula>
C7 N2 O4

>  <Name>
2,6-DIAMINOPIMELIC ACID

>  <SystematicName>
(2S,6R)-2,6-bis(azanyl)heptanedioic acid

>  <Synonyms>


>  <Type>
L-PEPTIDE LINKING

>  <Formula>
C7 H14 N2 O4

>  <MolecularWeight>
190.197

>  <ModifiedDate>
2011-09-05

>  <Parent>
LYS

>  <OneLetterCode>
K

>  <SubcomponentList>


>  <AmbiguousFlag>
N

>  <InChI>
InChI=1S/C7H14N2O4/c8-4(6(10)11)2-1-3-5(9)7(12)13/h4-5H,1-3,8-9H2,(H,10,11)(H,12,13)/t4-,5+

>  <InChIKey>
GMKMEZVLHJARHF-SYDPRGILSA-N

>  <SMILES>
C(C[C@H](C(=O)O)N)C[C@@H](C(=O)O)N

$$$$
