1SWR_BTN_A_300
  RCSB PDB12061704023D
Coordinates from PDB:1SWR:A:300 Model:1 without hydrogens
 16 17  0  0  0  0            999 V2000
    7.4080  -16.0990   24.0450   C 0  0  0  0  0  0  0  0  0  0  0  0
    7.0070  -14.9830   24.4470   O 0  0  0  0  0  0  0  0  0  0  0  0
    6.7640  -16.7410   23.1830   O 0  0  0  0  0  0  0  0  0  0  0  0
    8.6590  -16.6300   24.6440   C 0  0  0  0  0  0  0  0  0  0  0  0
    9.5830  -15.4990   25.1190   C 0  0  0  0  0  0  0  0  0  0  0  0
   10.3040  -14.8620   23.9330   C 0  0  0  0  0  0  0  0  0  0  0  0
   11.1450  -13.6110   24.3200   C 0  0  0  0  0  0  0  0  0  0  0  0
   11.9520  -12.9880   23.2080   C 0  0  0  0  0  0  0  0  0  0  0  0
   13.1150  -14.1100   22.3480   S 0  0  0  0  0  0  0  0  0  0  0  0
   13.7500  -12.7120   21.3850   C 0  0  0  0  0  0  0  0  0  0  0  0
   13.8110  -11.5200   22.3220   C 0  0  0  0  0  0  0  0  0  0  0  0
   15.0560  -11.4480   23.0560   N 0  0  0  0  0  0  0  0  0  0  0  0
   14.8650  -11.5730   24.3750   C 0  0  0  0  0  0  0  0  0  0  0  0
   15.7480  -11.5180   25.2520   O 0  0  0  0  0  0  0  0  0  0  0  0
   13.5530  -11.7380   24.6300   N 0  0  0  0  0  0  0  0  0  0  0  0
   12.7470  -11.7210   23.4340   C 0  0  0  0  0  0  0  0  0  0  0  0
  1  2  2  0  0  0  0
  1  3  1  0  0  0  0
  1  4  1  0  0  0  0
  4  5  1  0  0  0  0
  5  6  1  0  0  0  0
  6  7  1  0  0  0  0
  7  8  1  0  0  0  0
  8  9  1  0  0  0  0
  8 16  1  0  0  0  0
  9 10  1  0  0  0  0
 10 11  1  0  0  0  0
 11 12  1  0  0  0  0
 11 16  1  0  0  0  0
 12 13  1  0  0  0  0
 13 14  2  0  0  0  0
 13 15  1  0  0  0  0
 15 16  1  0  0  0  0
A    1
C11
A    2
O11
A    3
O12
A    4
C10
A    5
C9
A    6
C8
A    7
C7
A    8
C2
A    9
S1
A   10
C6
A   11
C5
A   12
N1
A   13
C3
A   14
O3
A   15
N2
A   16
C4
M  END
>  <InstanceId>
1SWR_BTN_A_300

>  <ChemCompId>
BTN

>  <PdbId>
1SWR

>  <ChainId>
A

>  <ResidueNumber>
300

>  <InsertionCode>


>  <Model>
1

>  <AltIds>


>  <MissingHeavyAtoms>
0

>  <ObservedFormula>
C10 N2 O3 S

>  <Name>
BIOTIN

>  <SystematicName>
5-[(3aS,4S,6aR)-2-oxidanylidene-1,3,3a,4,6,6a-hexahydrothieno[3,4-d]imidazol-4-yl]pentanoic acid

>  <Synonyms>


>  <Type>
NON-POLYMER

>  <Formula>
C10 H16 N2 O3 S

>  <MolecularWeight>
244.311

>  <ModifiedDate>
2014-04-29

>  <Parent>


>  <OneLetterCode>


>  <SubcomponentList>


>  <AmbiguousFlag>
N

>  <InChI>
InChI=1S/C10H16N2O3S/c13-8(14)4-2-1-3-7-9-6(5-16-7)11-10(15)12-9/h6-7,9H,1-5H2,(H,13,14)(H2,11,12,15)/t6-,7-,9-/m0/s1

>  <InChIKey>
YBJHBAHKTGYVGT-ZKWXMUAHSA-N

>  <SMILES>
C1[C@H]2[C@@H]([C@@H](S1)CCCCC(=O)O)NC(=O)N2

$$$$
