3U8K_09P_A_211


 17 18  0  0  0  0  0  0  0  0999 V2000
   80.8293   70.8569   -9.2641 C   0  0  0  0  0  0  0  0  0  0  0  0
   81.1413   70.3340  -10.5293 C   0  0  0  0  0  0  0  0  0  0  0  0
   82.4918   70.4417  -10.9497 C   0  0  0  0  0  0  0  0  0  0  0  0
   83.4491   71.0497  -10.1059 C   0  0  0  0  0  0  0  0  0  0  0  0
   82.9895   71.5320   -8.8622 C   0  0  0  0  0  0  0  0  0  0  0  0
   81.7130   71.4423   -8.4469 N   0  0  0  0  0  0  0  0  0  0  0  0
   86.5642   72.9386  -10.8710 C   0  0  0  0  0  0  0  0  0  0  0  0
   85.9083   73.2237  -12.1653 N   0  0  0  0  0  0  0  0  0  0  0  0
   85.9767   72.1875  -13.2284 C   0  0  0  0  0  0  0  0  0  0  0  0
   85.0932   70.9634  -12.9142 C   0  0  0  0  0  0  0  0  0  0  0  0
   85.3523   70.3427  -11.5323 C   0  0  0  0  0  0  0  0  0  0  0  0
   84.7392   71.1750  -10.4830 N   0  0  0  0  0  0  0  0  0  0  0  0
   85.6579   72.1714   -9.8824 C   0  0  0  0  0  0  0  0  0  0  0  0
   84.9214   73.3958  -11.9732 H   0  0  0  0  0  0  0  0  0  0  0  0
   80.1068   69.7899  -11.2798 O   0  0  0  0  0  0  0  0  0  0  0  0
   79.6885   68.4454  -11.0438 C   0  0  0  0  0  0  0  0  0  0  0  0
   78.7619   68.0344  -12.1850 C   0  0  0  0  0  0  0  0  0  0  0  0
  9 10  1  0  0  0
  9  8  1  0  0  0
 10 11  1  0  0  0
  8  7  1  0  0  0
 11 12  1  0  0  0
  7 13  1  0  0  0
 16 17  1  0  0  0
 16 15  1  0  0  0
 12 13  1  0  0  0
 12  4  1  0  0  0
  3  4  2  0  0  0
  3  2  1  0  0  0
 15  2  1  0  0  0
  4  5  1  0  0  0
  2  1  2  0  0  0
  5  6  2  0  0  0
  1  6  1  0  0  0
  8 14  1  0  0  0
M  END
> <minimizedAffinity>
-7.20345

$$$$
3U8K_09P_A_211


 17 18  0  0  0  0  0  0  0  0999 V2000
   80.8978   70.8204   -9.1415 C   0  0  0  0  0  0  0  0  0  0  0  0
   81.8741   71.0191   -8.1521 C   0  0  0  0  0  0  0  0  0  0  0  0
   83.2172   71.1335   -8.5938 C   0  0  0  0  0  0  0  0  0  0  0  0
   83.5181   71.0500   -9.9724 C   0  0  0  0  0  0  0  0  0  0  0  0
   82.4337   70.8462  -10.8516 C   0  0  0  0  0  0  0  0  0  0  0  0
   81.1540   70.7319  -10.4523 N   0  0  0  0  0  0  0  0  0  0  0  0
   86.6413   72.8627  -10.8763 C   0  0  0  0  0  0  0  0  0  0  0  0
   85.9209   73.1983  -12.1233 N   0  0  0  0  0  0  0  0  0  0  0  0
   85.8953   72.1864  -13.2114 C   0  0  0  0  0  0  0  0  0  0  0  0
   84.9937   70.9820  -12.8734 C   0  0  0  0  0  0  0  0  0  0  0  0
   85.3126   70.3208  -11.5231 C   0  0  0  0  0  0  0  0  0  0  0  0
   84.7875   71.1456  -10.4214 N   0  0  0  0  0  0  0  0  0  0  0  0
   85.7701   72.0994   -9.8537 C   0  0  0  0  0  0  0  0  0  0  0  0
   84.9526   73.3951  -11.8700 H   0  0  0  0  0  0  0  0  0  0  0  0
   81.4582   71.0511   -6.8272 O   0  0  0  0  0  0  0  0  0  0  0  0
   80.8719   72.2390   -6.2949 C   0  0  0  0  0  0  0  0  0  0  0  0
   81.9880   73.2575   -6.0782 C   0  0  0  0  0  0  0  0  0  0  0  0
  9 10  1  0  0  0
  9  8  1  0  0  0
 10 11  1  0  0  0
  8  7  1  0  0  0
 11 12  1  0  0  0
  7 13  1  0  0  0
 16 17  1  0  0  0
 16 15  1  0  0  0
 12 13  1  0  0  0
 12  4  1  0  0  0
  3  4  2  0  0  0
  3  2  1  0  0  0
 15  2  1  0  0  0
  4  5  1  0  0  0
  2  1  2  0  0  0
  5  6  2  0  0  0
  1  6  1  0  0  0
  8 14  1  0  0  0
M  END
> <minimizedAffinity>
-6.91252

$$$$
3U8K_09P_A_211


 17 18  0  0  0  0  0  0  0  0999 V2000
   78.6165   67.6869  -12.2084 C   0  0  0  0  0  0  0  0  0  0  0  0
   79.4170   67.3073  -11.1191 C   0  0  0  0  0  0  0  0  0  0  0  0
   80.1670   68.3334  -10.4893 C   0  0  0  0  0  0  0  0  0  0  0  0
   80.0834   69.6628  -10.9622 C   0  0  0  0  0  0  0  0  0  0  0  0
   79.2387   69.8953  -12.0681 C   0  0  0  0  0  0  0  0  0  0  0  0
   78.5221   68.9356  -12.6810 N   0  0  0  0  0  0  0  0  0  0  0  0
   83.1529   71.2319   -9.5574 C   0  0  0  0  0  0  0  0  0  0  0  0
   82.8396   70.4367   -8.3507 N   0  0  0  0  0  0  0  0  0  0  0  0
   81.8285   70.9720   -7.4021 C   0  0  0  0  0  0  0  0  0  0  0  0
   80.3956   70.9002   -7.9674 C   0  0  0  0  0  0  0  0  0  0  0  0
   80.2366   71.5455   -9.3533 C   0  0  0  0  0  0  0  0  0  0  0  0
   80.7927   70.6582  -10.3892 N   0  0  0  0  0  0  0  0  0  0  0  0
   82.2037   70.9447  -10.7422 C   0  0  0  0  0  0  0  0  0  0  0  0
   82.5061   69.5259   -8.6665 H   0  0  0  0  0  0  0  0  0  0  0  0
   79.4411   65.9634  -10.7686 O   0  0  0  0  0  0  0  0  0  0  0  0
   78.2288   65.3012  -10.4078 C   0  0  0  0  0  0  0  0  0  0  0  0
   77.7794   65.8477   -9.0554 C   0  0  0  0  0  0  0  0  0  0  0  0
  9 10  1  0  0  0
  9  8  1  0  0  0
 10 11  1  0  0  0
  8  7  1  0  0  0
 11 12  1  0  0  0
  7 13  1  0  0  0
 16 17  1  0  0  0
 16 15  1  0  0  0
 12 13  1  0  0  0
 12  4  1  0  0  0
  3  4  2  0  0  0
  3  2  1  0  0  0
 15  2  1  0  0  0
  4  5  1  0  0  0
  2  1  2  0  0  0
  5  6  2  0  0  0
  1  6  1  0  0  0
  8 14  1  0  0  0
M  END
> <minimizedAffinity>
-5.41553

$$$$
3U8K_09P_A_211


 17 18  0  0  0  0  0  0  0  0999 V2000
   79.5058   70.2726  -11.6630 C   0  0  0  0  0  0  0  0  0  0  0  0
   80.3749   69.6836  -10.7307 C   0  0  0  0  0  0  0  0  0  0  0  0
   80.3773   68.2666  -10.6660 C   0  0  0  0  0  0  0  0  0  0  0  0
   79.5336   67.5182  -11.5181 C   0  0  0  0  0  0  0  0  0  0  0  0
   78.7117   68.2466  -12.4037 C   0  0  0  0  0  0  0  0  0  0  0  0
   78.6926   69.5899  -12.4779 N   0  0  0  0  0  0  0  0  0  0  0  0
   78.1605   64.1496  -12.3085 C   0  0  0  0  0  0  0  0  0  0  0  0
   77.1922   64.4440  -11.2303 N   0  0  0  0  0  0  0  0  0  0  0  0
   77.6185   64.2168   -9.8248 C   0  0  0  0  0  0  0  0  0  0  0  0
   78.6494   65.2593   -9.3471 C   0  0  0  0  0  0  0  0  0  0  0  0
   79.8705   65.4004  -10.2698 C   0  0  0  0  0  0  0  0  0  0  0  0
   79.5072   66.1693  -11.4725 N   0  0  0  0  0  0  0  0  0  0  0  0
   79.0989   65.3348  -12.6277 C   0  0  0  0  0  0  0  0  0  0  0  0
   76.9360   65.4278  -11.3138 H   0  0  0  0  0  0  0  0  0  0  0  0
   81.1310   70.5262   -9.9259 O   0  0  0  0  0  0  0  0  0  0  0  0
   80.5655   71.0626   -8.7297 C   0  0  0  0  0  0  0  0  0  0  0  0
   81.6490   71.0586   -7.6547 C   0  0  0  0  0  0  0  0  0  0  0  0
  9 10  1  0  0  0
  9  8  1  0  0  0
 10 11  1  0  0  0
  8  7  1  0  0  0
 11 12  1  0  0  0
  7 13  1  0  0  0
 16 17  1  0  0  0
 16 15  1  0  0  0
 12 13  1  0  0  0
 12  4  1  0  0  0
  3  4  2  0  0  0
  3  2  1  0  0  0
 15  2  1  0  0  0
  4  5  1  0  0  0
  2  1  2  0  0  0
  5  6  2  0  0  0
  1  6  1  0  0  0
  8 14  1  0  0  0
M  END
> <minimizedAffinity>
-5.34802

$$$$
3U8K_09P_A_211


 17 18  0  0  0  0  0  0  0  0999 V2000
   79.6695   70.2488  -11.6281 C   0  0  0  0  0  0  0  0  0  0  0  0
   80.2205   69.5761  -10.5257 C   0  0  0  0  0  0  0  0  0  0  0  0
   79.8455   68.2191  -10.3526 C   0  0  0  0  0  0  0  0  0  0  0  0
   78.9601   67.6075  -11.2692 C   0  0  0  0  0  0  0  0  0  0  0  0
   78.4841   68.4082  -12.3287 C   0  0  0  0  0  0  0  0  0  0  0  0
   78.8252   69.6973  -12.5081 N   0  0  0  0  0  0  0  0  0  0  0  0
   77.9363   64.5969   -9.3336 C   0  0  0  0  0  0  0  0  0  0  0  0
   79.3830   64.4478   -9.0662 N   0  0  0  0  0  0  0  0  0  0  0  0
   80.2247   63.8018  -10.1068 C   0  0  0  0  0  0  0  0  0  0  0  0
   80.4242   64.7009  -11.3435 C   0  0  0  0  0  0  0  0  0  0  0  0
   79.1149   65.2272  -11.9525 C   0  0  0  0  0  0  0  0  0  0  0  0
   78.5778   66.3209  -11.1248 N   0  0  0  0  0  0  0  0  0  0  0  0
   77.5881   65.8864  -10.1103 C   0  0  0  0  0  0  0  0  0  0  0  0
   79.7598   65.3826   -8.9093 H   0  0  0  0  0  0  0  0  0  0  0  0
   81.0531   70.2944   -9.6770 O   0  0  0  0  0  0  0  0  0  0  0  0
   80.4882   71.1166   -8.6556 C   0  0  0  0  0  0  0  0  0  0  0  0
   81.4398   71.1039   -7.4622 C   0  0  0  0  0  0  0  0  0  0  0  0
  9 10  1  0  0  0
  9  8  1  0  0  0
 10 11  1  0  0  0
  8  7  1  0  0  0
 11 12  1  0  0  0
  7 13  1  0  0  0
 16 17  1  0  0  0
 16 15  1  0  0  0
 12 13  1  0  0  0
 12  4  1  0  0  0
  3  4  2  0  0  0
  3  2  1  0  0  0
 15  2  1  0  0  0
  4  5  1  0  0  0
  2  1  2  0  0  0
  5  6  2  0  0  0
  1  6  1  0  0  0
  8 14  1  0  0  0
M  END
> <minimizedAffinity>
-5.28028

$$$$
3U8K_09P_A_211


 17 18  0  0  0  0  0  0  0  0999 V2000
   82.1757   71.3334   -9.9540 C   0  0  0  0  0  0  0  0  0  0  0  0
   82.7708   70.3485  -10.7585 C   0  0  0  0  0  0  0  0  0  0  0  0
   81.9345   69.2894  -11.1955 C   0  0  0  0  0  0  0  0  0  0  0  0
   80.5716   69.2637  -10.8212 C   0  0  0  0  0  0  0  0  0  0  0  0
   80.1129   70.3207  -10.0070 C   0  0  0  0  0  0  0  0  0  0  0  0
   80.8907   71.3319   -9.5797 N   0  0  0  0  0  0  0  0  0  0  0  0
   79.7741   66.0022  -12.4287 C   0  0  0  0  0  0  0  0  0  0  0  0
   79.8409   66.7666  -13.6927 N   0  0  0  0  0  0  0  0  0  0  0  0
   78.6446   67.5469  -14.1034 C   0  0  0  0  0  0  0  0  0  0  0  0
   78.4242   68.7929  -13.2222 C   0  0  0  0  0  0  0  0  0  0  0  0
   78.3882   68.4951  -11.7148 C   0  0  0  0  0  0  0  0  0  0  0  0
   79.7540   68.2639  -11.2139 N   0  0  0  0  0  0  0  0  0  0  0  0
   80.1593   66.8383  -11.1877 C   0  0  0  0  0  0  0  0  0  0  0  0
   80.6167   67.4235  -13.6087 H   0  0  0  0  0  0  0  0  0  0  0  0
   84.1277   70.4660  -11.0313 O   0  0  0  0  0  0  0  0  0  0  0  0
   84.5986   70.3180  -12.3710 C   0  0  0  0  0  0  0  0  0  0  0  0
   85.2384   71.6381  -12.7927 C   0  0  0  0  0  0  0  0  0  0  0  0
  9 10  1  0  0  0
  9  8  1  0  0  0
 10 11  1  0  0  0
  8  7  1  0  0  0
 11 12  1  0  0  0
  7 13  1  0  0  0
 16 17  1  0  0  0
 16 15  1  0  0  0
 12 13  1  0  0  0
 12  4  1  0  0  0
  3  4  2  0  0  0
  3  2  1  0  0  0
 15  2  1  0  0  0
  4  5  1  0  0  0
  2  1  2  0  0  0
  5  6  2  0  0  0
  1  6  1  0  0  0
  8 14  1  0  0  0
M  END
> <minimizedAffinity>
-4.77409

$$$$
3U8K_09P_A_211


 17 18  0  0  0  0  0  0  0  0999 V2000
   78.6950   69.0371  -12.3547 C   0  0  0  0  0  0  0  0  0  0  0  0
   79.1950   67.9521  -11.6171 C   0  0  0  0  0  0  0  0  0  0  0  0
   80.1721   68.2456  -10.6316 C   0  0  0  0  0  0  0  0  0  0  0  0
   80.5941   69.5794  -10.4290 C   0  0  0  0  0  0  0  0  0  0  0  0
   80.0051   70.5668  -11.2467 C   0  0  0  0  0  0  0  0  0  0  0  0
   79.0798   70.3083  -12.1885 N   0  0  0  0  0  0  0  0  0  0  0  0
   82.2318   71.7598   -7.8950 C   0  0  0  0  0  0  0  0  0  0  0  0
   82.8183   72.4451   -9.0668 N   0  0  0  0  0  0  0  0  0  0  0  0
   84.0233   71.8464   -9.6977 C   0  0  0  0  0  0  0  0  0  0  0  0
   83.7014   70.5494  -10.4671 C   0  0  0  0  0  0  0  0  0  0  0  0
   82.9442   69.5008   -9.6369 C   0  0  0  0  0  0  0  0  0  0  0  0
   81.5291   69.8879   -9.5054 N   0  0  0  0  0  0  0  0  0  0  0  0
   81.2201   70.6559   -8.2758 C   0  0  0  0  0  0  0  0  0  0  0  0
   82.0938   72.4936   -9.7832 H   0  0  0  0  0  0  0  0  0  0  0  0
   78.7261   66.6828  -11.9310 O   0  0  0  0  0  0  0  0  0  0  0  0
   78.5800   65.7045  -10.9015 C   0  0  0  0  0  0  0  0  0  0  0  0
   77.3691   66.0895  -10.0557 C   0  0  0  0  0  0  0  0  0  0  0  0
  9 10  1  0  0  0
  9  8  1  0  0  0
 10 11  1  0  0  0
  8  7  1  0  0  0
 11 12  1  0  0  0
  7 13  1  0  0  0
 16 17  1  0  0  0
 16 15  1  0  0  0
 12 13  1  0  0  0
 12  4  1  0  0  0
  3  4  2  0  0  0
  3  2  1  0  0  0
 15  2  1  0  0  0
  4  5  1  0  0  0
  2  1  2  0  0  0
  5  6  2  0  0  0
  1  6  1  0  0  0
  8 14  1  0  0  0
M  END
> <minimizedAffinity>
-4.56201

$$$$
3U8K_09P_A_211


 17 18  0  0  0  0  0  0  0  0999 V2000
   86.0280   72.1085   -9.8132 C   0  0  0  0  0  0  0  0  0  0  0  0
   85.6693   71.2168  -10.8368 C   0  0  0  0  0  0  0  0  0  0  0  0
   84.4013   70.5912  -10.7238 C   0  0  0  0  0  0  0  0  0  0  0  0
   83.5657   70.8799   -9.6208 C   0  0  0  0  0  0  0  0  0  0  0  0
   84.0598   71.7954   -8.6677 C   0  0  0  0  0  0  0  0  0  0  0  0
   85.2602   72.3965   -8.7553 N   0  0  0  0  0  0  0  0  0  0  0  0
   80.1804   69.8326  -10.7610 C   0  0  0  0  0  0  0  0  0  0  0  0
   79.8010   71.2315  -10.4683 N   0  0  0  0  0  0  0  0  0  0  0  0
   79.4901   71.5930   -9.0607 C   0  0  0  0  0  0  0  0  0  0  0  0
   80.7479   71.6217   -8.1692 C   0  0  0  0  0  0  0  0  0  0  0  0
   81.5861   70.3348   -8.2278 C   0  0  0  0  0  0  0  0  0  0  0  0
   82.3582   70.2927   -9.4815 N   0  0  0  0  0  0  0  0  0  0  0  0
   81.6906   69.5589  -10.5829 C   0  0  0  0  0  0  0  0  0  0  0  0
   80.5745   71.8244  -10.7693 H   0  0  0  0  0  0  0  0  0  0  0  0
   86.5898   70.9902  -11.8521 O   0  0  0  0  0  0  0  0  0  0  0  0
   86.9559   72.0548  -12.7301 C   0  0  0  0  0  0  0  0  0  0  0  0
   85.6839   72.5742  -13.3949 C   0  0  0  0  0  0  0  0  0  0  0  0
  9 10  1  0  0  0
  9  8  1  0  0  0
 10 11  1  0  0  0
  8  7  1  0  0  0
 11 12  1  0  0  0
  7 13  1  0  0  0
 16 17  1  0  0  0
 16 15  1  0  0  0
 12 13  1  0  0  0
 12  4  1  0  0  0
  3  4  2  0  0  0
  3  2  1  0  0  0
 15  2  1  0  0  0
  4  5  1  0  0  0
  2  1  2  0  0  0
  5  6  2  0  0  0
  1  6  1  0  0  0
  8 14  1  0  0  0
M  END
> <minimizedAffinity>
-4.40679

$$$$
3U8K_09P_A_211


 17 18  0  0  0  0  0  0  0  0999 V2000
   77.9627   65.1762   -8.4759 C   0  0  0  0  0  0  0  0  0  0  0  0
   79.1275   64.7215   -9.1146 C   0  0  0  0  0  0  0  0  0  0  0  0
   79.5428   65.4341  -10.2686 C   0  0  0  0  0  0  0  0  0  0  0  0
   78.7957   66.5455  -10.7209 C   0  0  0  0  0  0  0  0  0  0  0  0
   77.6449   66.8860   -9.9791 C   0  0  0  0  0  0  0  0  0  0  0  0
   77.2327   66.2211   -8.8844 N   0  0  0  0  0  0  0  0  0  0  0  0
   78.4921   69.2696  -13.2397 C   0  0  0  0  0  0  0  0  0  0  0  0
   77.4407   68.4153  -13.8326 N   0  0  0  0  0  0  0  0  0  0  0  0
   77.8621   67.3001  -14.7199 C   0  0  0  0  0  0  0  0  0  0  0  0
   78.5268   66.1474  -13.9406 C   0  0  0  0  0  0  0  0  0  0  0  0
   79.6873   66.5910  -13.0359 C   0  0  0  0  0  0  0  0  0  0  0  0
   79.1611   67.2369  -11.8212 N   0  0  0  0  0  0  0  0  0  0  0  0
   79.0563   68.7127  -11.9135 C   0  0  0  0  0  0  0  0  0  0  0  0
   76.9127   68.0060  -13.0618 H   0  0  0  0  0  0  0  0  0  0  0  0
   79.7566   63.5978   -8.5941 O   0  0  0  0  0  0  0  0  0  0  0  0
   80.2034   63.5976   -7.2381 C   0  0  0  0  0  0  0  0  0  0  0  0
   81.7296   63.6169   -7.2463 C   0  0  0  0  0  0  0  0  0  0  0  0
  9 10  1  0  0  0
  9  8  1  0  0  0
 10 11  1  0  0  0
  8  7  1  0  0  0
 11 12  1  0  0  0
  7 13  1  0  0  0
 16 17  1  0  0  0
 16 15  1  0  0  0
 12 13  1  0  0  0
 12  4  1  0  0  0
  3  4  2  0  0  0
  3  2  1  0  0  0
 15  2  1  0  0  0
  4  5  1  0  0  0
  2  1  2  0  0  0
  5  6  2  0  0  0
  1  6  1  0  0  0
  8 14  1  0  0  0
M  END
> <minimizedAffinity>
-4.38371

$$$$
3U8K_09P_A_211


 17 18  0  0  0  0  0  0  0  0999 V2000
   80.9126   70.6466  -11.1523 C   0  0  0  0  0  0  0  0  0  0  0  0
   81.5156   69.5970  -10.4408 C   0  0  0  0  0  0  0  0  0  0  0  0
   80.7998   68.3739  -10.3778 C   0  0  0  0  0  0  0  0  0  0  0  0
   79.5444   68.2552  -11.0166 C   0  0  0  0  0  0  0  0  0  0  0  0
   79.0619   69.3953  -11.6933 C   0  0  0  0  0  0  0  0  0  0  0  0
   79.7237   70.5646  -11.7616 N   0  0  0  0  0  0  0  0  0  0  0  0
   78.2436   65.1718   -9.3862 C   0  0  0  0  0  0  0  0  0  0  0  0
   79.5797   64.6150   -9.6889 N   0  0  0  0  0  0  0  0  0  0  0  0
   79.8259   64.0896  -11.0571 C   0  0  0  0  0  0  0  0  0  0  0  0
   79.9236   65.2123  -12.1095 C   0  0  0  0  0  0  0  0  0  0  0  0
   78.7295   66.1798  -12.1052 C   0  0  0  0  0  0  0  0  0  0  0  0
   78.8361   67.1072  -10.9658 N   0  0  0  0  0  0  0  0  0  0  0  0
   78.1072   66.6667   -9.7525 C   0  0  0  0  0  0  0  0  0  0  0  0
   80.2612   65.3552   -9.5216 H   0  0  0  0  0  0  0  0  0  0  0  0
   82.7372   69.8458   -9.8282 O   0  0  0  0  0  0  0  0  0  0  0  0
   83.5100   70.9809  -10.2190 C   0  0  0  0  0  0  0  0  0  0  0  0
   84.3504   70.5831  -11.4294 C   0  0  0  0  0  0  0  0  0  0  0  0
  9 10  1  0  0  0
  9  8  1  0  0  0
 10 11  1  0  0  0
  8  7  1  0  0  0
 11 12  1  0  0  0
  7 13  1  0  0  0
 16 17  1  0  0  0
 16 15  1  0  0  0
 12 13  1  0  0  0
 12  4  1  0  0  0
  3  4  2  0  0  0
  3  2  1  0  0  0
 15  2  1  0  0  0
  4  5  1  0  0  0
  2  1  2  0  0  0
  5  6  2  0  0  0
  1  6  1  0  0  0
  8 14  1  0  0  0
M  END
> <minimizedAffinity>
-4.29343

$$$$
