4W9H_3JF_C_301
  RCSB PDB12061715563D
Coordinates from PDB:4W9H:C:301 Model:1 without hydrogens
 33 35  0  0  0  0            999 V2000
    9.7950   56.2440   95.0880   C 0  0  0  0  0  0  0  0  0  0  0  0
   11.1050   55.6490   94.5390   C 0  0  0  0  0  0  0  0  0  0  0  0
   12.1640   56.2220   94.7630   O 0  0  0  0  0  0  0  0  0  0  0  0
   10.9830   54.4680   93.9020   N 0  0  0  0  0  0  0  0  0  0  0  0
   12.1050   53.7530   93.2640   C 0  0  0  0  0  0  0  0  0  0  0  0
   12.2460   52.3070   93.8150   C 0  0  0  0  0  0  0  0  0  0  0  0
   12.5770   52.3600   95.3120   C 0  0  0  0  0  0  0  0  0  0  0  0
   13.3960   51.5840   93.0920   C 0  0  0  0  0  0  0  0  0  0  0  0
   10.9360   51.4850   93.6750   C 0  0  0  0  0  0  0  0  0  0  0  0
   11.7940   53.8090   91.7400   C 0  0  0  0  0  0  0  0  0  0  0  0
   10.6420   53.6410   91.3560   O 0  0  0  0  0  0  0  0  0  0  0  0
   12.7880   54.0820   90.8660   N 0  0  0  0  0  0  0  0  0  0  0  0
   14.2430   54.3770   91.0510   C 0  0  0  0  0  0  0  0  0  0  0  0
   14.6280   55.2010   89.8160   C 0  0  0  0  0  0  0  0  0  0  0  0
   14.2960   56.5900   89.9680   O 0  0  0  0  0  0  0  0  0  0  0  0
   13.7830   54.6250   88.7250   C 0  0  0  0  0  0  0  0  0  0  0  0
   12.4600   54.2030   89.3800   C 0  0  0  0  0  0  0  0  0  0  0  0
   12.0210   53.0100   88.7650   C 0  0  0  0  0  0  0  0  0  0  0  0
   12.4490   51.9300   89.1560   O 0  0  0  0  0  0  0  0  0  0  0  0
   11.2160   53.1280   87.6810   N 0  0  0  0  0  0  0  0  0  0  0  0
   10.7750   51.9460   86.9360   C 0  0  0  0  0  0  0  0  0  0  0  0
   11.5790   51.7750   85.7660   C 0  0  0  0  0  0  0  0  0  0  0  0
   12.4090   52.7680   85.2270   C 0  0  0  0  0  0  0  0  0  0  0  0
   13.1790   52.5240   84.0770   C 0  0  0  0  0  0  0  0  0  0  0  0
   11.5530   50.5390   85.1170   C 0  0  0  0  0  0  0  0  0  0  0  0
   12.3150   50.2980   83.9740   C 0  0  0  0  0  0  0  0  0  0  0  0
   13.1450   51.2900   83.4270   C 0  0  0  0  0  0  0  0  0  0  0  0
   13.8760   51.0670   82.3110   C 0  0  0  0  0  0  0  0  0  0  0  0
   15.5020   51.4650   82.0540   S 0  0  0  0  0  0  0  0  0  0  0  0
   15.5700   50.8640   80.5030   C 0  0  0  0  0  0  0  0  0  0  0  0
   14.3640   50.3760   80.1960   N 0  0  0  0  0  0  0  0  0  0  0  0
   13.4440   50.4860   81.1700   C 0  0  0  0  0  0  0  0  0  0  0  0
   12.0320   49.9440   80.9210   C 0  0  0  0  0  0  0  0  0  0  0  0
 31 30  2  0  0  0  0
 31 32  1  0  0  0  0
 30 29  1  0  0  0  0
 33 32  1  0  0  0  0
 32 28  2  0  0  0  0
 29 28  1  0  0  0  0
 28 27  1  0  0  0  0
 27 26  2  0  0  0  0
 27 24  1  0  0  0  0
 26 25  1  0  0  0  0
 24 23  2  0  0  0  0
 25 22  2  0  0  0  0
 23 22  1  0  0  0  0
 22 21  1  0  0  0  0
 21 20  1  0  0  0  0
 20 18  1  0  0  0  0
 16 17  1  0  0  0  0
 16 14  1  0  0  0  0
 18 19  2  0  0  0  0
 18 17  1  0  0  0  0
 17 12  1  0  0  0  0
 14 15  1  0  0  0  0
 14 13  1  0  0  0  0
 12 13  1  0  0  0  0
 12 10  1  0  0  0  0
 11 10  2  0  0  0  0
 10  5  1  0  0  0  0
  8  6  1  0  0  0  0
  5  6  1  0  0  0  0
  5  4  1  0  0  0  0
  9  6  1  0  0  0  0
  6  7  1  0  0  0  0
  4  2  1  0  0  0  0
  2  3  2  0  0  0  0
  2  1  1  0  0  0  0
A    1
CAA
A    2
CAV
A    3
OAF
A    4
NAT
A    5
CBE
A    6
CBG
A    7
CAD
A    8
CAE
A    9
CAC
A   10
CAX
A   11
OAH
A   12
N
A   13
CD2
A   14
CG
A   15
OD1
A   16
CB
A   17
CA
A   18
C
A   19
O
A   20
NAS
A   21
CAO
A   22
CAY
A   23
CAK
A   24
CAM
A   25
CAJ
A   26
CAL
A   27
CBA
A   28
CBB
A   29
SAU
A   30
CAN
A   31
NAR
A   32
CAZ
A   33
CAB
M  END
>  <InstanceId>
4W9H_3JF_C_301

>  <ChemCompId>
3JF

>  <PdbId>
4W9H

>  <ChainId>
C

>  <ResidueNumber>
301

>  <InsertionCode>


>  <Model>
1

>  <AltIds>


>  <MissingHeavyAtoms>
0

>  <ObservedFormula>
C24 N4 O4 S

>  <Name>
N-acetyl-3-methyl-L-valyl-(4R)-4-hydroxy-N-[4-(4-methyl-1,3-thiazol-5-yl)benzyl]-L-prolinamide

>  <SystematicName>
(2S,4R)-1-[(2S)-2-acetamido-3,3-dimethyl-butanoyl]-N-[[4-(4-methyl-1,3-thiazol-5-yl)phenyl]methyl]-4-oxidanyl-pyrrolidine-2-carboxamide

>  <Synonyms>


>  <Type>
NON-POLYMER

>  <Formula>
C24 H32 N4 O4 S

>  <MolecularWeight>
472.6

>  <ModifiedDate>
2014-09-05

>  <Parent>


>  <OneLetterCode>


>  <SubcomponentList>


>  <AmbiguousFlag>
N

>  <InChI>
InChI=1S/C24H32N4O4S/c1-14-20(33-13-26-14)17-8-6-16(7-9-17)11-25-22(31)19-10-18(30)12-28(19)23(32)21(24(3,4)5)27-15(2)29/h6-9,13,18-19,21,30H,10-12H2,1-5H3,(H,25,31)(H,27,29)/t18-,19+,21-/m1/s1

>  <InChIKey>
GFVIEZBZIUKYOG-SVFBPWRDSA-N

>  <SMILES>
Cc1c(scn1)c2ccc(cc2)CNC(=O)[C@@H]3C[C@H](CN3C(=O)[C@H](C(C)(C)C)NC(=O)C)O

$$$$
