3CYX_ROC_A_201


 55 59  0  0  0  0  0  0  0  0999 V2000
   17.1412   23.7737   18.4567 C   0  0  0  0  0  0  0  0  0  0  0  0
   18.8812   24.7376   17.0268 C   0  0  0  0  0  0  0  0  0  0  0  0
   18.9080   23.8095   16.1863 O   0  0  0  0  0  0  0  0  0  0  0  0
   18.1173   24.8191   18.1129 N   0  0  0  0  0  0  0  0  0  0  0  0
   18.2079   25.6016   18.7035 H   0  0  0  0  0  0  0  0  0  0  0  0
   19.8446   25.9000   16.8037 C   0  0  0  0  0  0  0  0  0  0  0  0
   21.3718   26.5247   18.6156 C   0  0  0  0  0  0  0  0  0  0  0  0
   20.8505   27.6410   18.8087 O   0  0  0  0  0  0  0  0  0  0  0  0
   20.9853   25.6819   17.6373 N   0  0  0  0  0  0  0  0  0  0  0  0
   21.5198   24.8686   17.4882 H   0  0  0  0  0  0  0  0  0  0  0  0
   23.1159   24.8427   19.0126 N   0  0  0  0  0  0  0  0  0  0  0  0
   22.4854   25.9725   19.4129 C   0  0  0  0  0  0  0  0  0  0  0  0
   22.8952   26.6777   20.5647 C   0  0  0  0  0  0  0  0  0  0  0  0
   23.8961   26.0651   21.3297 C   0  0  0  0  0  0  0  0  0  0  0  0
   25.5668   24.3301   21.6349 C   0  0  0  0  0  0  0  0  0  0  0  0
   26.2494   23.2145   21.1987 C   0  0  0  0  0  0  0  0  0  0  0  0
   25.7954   22.6153   20.0520 C   0  0  0  0  0  0  0  0  0  0  0  0
   24.8080   23.1494   19.2973 C   0  0  0  0  0  0  0  0  0  0  0  0
   24.5591   24.9235   20.9028 C   0  0  0  0  0  0  0  0  0  0  0  0
   24.1348   24.2996   19.7277 C   0  0  0  0  0  0  0  0  0  0  0  0
   20.1831   26.0314   15.3397 C   0  0  0  0  0  0  0  0  0  0  0  0
   20.2682   27.4667   15.0397 C   0  0  0  0  0  0  0  0  0  0  0  0
   20.9740   28.3391   15.5645 O   0  0  0  0  0  0  0  0  0  0  0  0
   19.4855   27.8969   14.1308 N   0  0  0  0  0  0  0  0  0  0  0  0
   18.8879   27.2722   13.6597 H   0  0  0  0  0  0  0  0  0  0  0  0
   19.4784   28.8538   13.8997 H   0  0  0  0  0  0  0  0  0  0  0  0
   15.7532   24.2444   18.0062 C   0  0  0  0  0  0  0  0  0  0  0  0
   15.3720   25.4171   18.7142 O   0  0  0  0  0  0  0  0  0  0  0  0
   15.2990   25.2144   19.6599 H   0  0  0  0  0  0  0  0  0  0  0  0
   14.6916   23.1809   18.1262 C   0  0  0  0  0  0  0  0  0  0  0  0
   14.5720   22.4152   16.9136 N   0  0  0  0  0  0  0  0  0  0  0  0
   13.8870   21.0920   17.1077 C   0  0  0  0  0  0  0  0  0  0  0  0
   13.8108   20.3691   15.8066 C   0  0  0  0  0  0  0  0  0  0  0  0
   13.1323   21.1395   14.7127 C   0  0  0  0  0  0  0  0  0  0  0  0
   13.1178   20.4216   13.3694 C   0  0  0  0  0  0  0  0  0  0  0  0
   14.4591   20.3895   12.6719 C   0  0  0  0  0  0  0  0  0  0  0  0
   15.0193   21.7752   12.5137 C   0  0  0  0  0  0  0  0  0  0  0  0
   15.1509   22.3654   13.9106 C   0  0  0  0  0  0  0  0  0  0  0  0
   13.8476   22.4949   14.6176 C   0  0  0  0  0  0  0  0  0  0  0  0
   13.8851   23.1955   15.9144 C   0  0  0  0  0  0  0  0  0  0  0  0
   14.6531   20.2160   18.1127 C   0  0  0  0  0  0  0  0  0  0  0  0
   15.8528   20.0176   18.0078 O   0  0  0  0  0  0  0  0  0  0  0  0
   13.9011   19.7296   19.1310 N   0  0  0  0  0  0  0  0  0  0  0  0
   12.9653   20.0291   19.1927 H   0  0  0  0  0  0  0  0  0  0  0  0
   14.3795   18.7982   20.1363 C   0  0  0  0  0  0  0  0  0  0  0  0
   14.9629   17.6011   19.4407 C   0  0  0  0  0  0  0  0  0  0  0  0
   13.2137   18.3735   21.0023 C   0  0  0  0  0  0  0  0  0  0  0  0
   15.3730   19.5053   21.0226 C   0  0  0  0  0  0  0  0  0  0  0  0
   17.2450   23.5324   19.9595 C   0  0  0  0  0  0  0  0  0  0  0  0
   18.6428   23.2674   20.4526 C   0  0  0  0  0  0  0  0  0  0  0  0
   19.3136   24.2082   21.2066 C   0  0  0  0  0  0  0  0  0  0  0  0
   19.2695   22.0861   20.1690 C   0  0  0  0  0  0  0  0  0  0  0  0
   20.5939   23.9880   21.6175 C   0  0  0  0  0  0  0  0  0  0  0  0
   20.5436   21.8484   20.6152 C   0  0  0  0  0  0  0  0  0  0  0  0
   21.2113   22.8052   21.3148 C   0  0  0  0  0  0  0  0  0  0  0  0
  8  7  2  0  0  0
  7 12  1  0  0  0
 11 12  2  0  0  0
 11 20  1  0  0  0
 12 13  1  0  0  0
 13 14  2  0  0  0
 14 19  1  0  0  0
 19 15  2  0  0  0
 19 20  1  0  0  0
 15 16  1  0  0  0
 16 17  2  0  0  0
 17 18  1  0  0  0
 18 20  2  0  0  0
  9  6  1  0  0  0
  6  2  1  0  0  0
  6 21  1  0  0  0
  2  3  2  0  0  0
 21 22  1  0  0  0
 22 23  2  0  0  0
 22 24  1  0  0  0
 27 28  1  0  0  0
 27  1  1  0  0  0
  1  4  1  0  0  0
  1 49  1  0  0  0
 49 50  1  0  0  0
 50 51  2  0  0  0
 50 52  1  0  0  0
 51 53  1  0  0  0
 52 54  2  0  0  0
 53 55  2  0  0  0
 54 55  1  0  0  0
 31 30  1  0  0  0
 31 32  1  0  0  0
 31 40  1  0  0  0
 32 41  1  0  0  0
 32 33  1  0  0  0
 41 42  2  0  0  0
 33 34  1  0  0  0
 34 35  1  0  0  0
 34 39  1  0  0  0
 35 36  1  0  0  0
 36 37  1  0  0  0
 37 38  1  0  0  0
 38 39  1  0  0  0
 39 40  1  0  0  0
 43 45  1  0  0  0
 45 46  1  0  0  0
 45 47  1  0  0  0
 45 48  1  0  0  0
  7  9  1  0  0  0
  2  4  1  0  0  0
 27 30  1  0  0  0
 41 43  1  0  0  0
  9 10  1  0  0  0
 24 25  1  0  0  0
 24 26  1  0  0  0
 28 29  1  0  0  0
  4  5  1  0  0  0
 43 44  1  0  0  0
M  END
> <minimizedAffinity>
-12.57089

$$$$
3CYX_ROC_A_201


 55 59  0  0  0  0  0  0  0  0999 V2000
   17.1575   23.8514   18.5016 C   0  0  0  0  0  0  0  0  0  0  0  0
   18.6501   24.6758   16.7426 C   0  0  0  0  0  0  0  0  0  0  0  0
   18.5458   23.6823   15.9873 O   0  0  0  0  0  0  0  0  0  0  0  0
   18.0661   24.8541   17.9245 N   0  0  0  0  0  0  0  0  0  0  0  0
   18.2472   25.6809   18.4275 H   0  0  0  0  0  0  0  0  0  0  0  0
   19.5649   25.8051   16.2768 C   0  0  0  0  0  0  0  0  0  0  0  0
   21.5438   26.8430   17.2830 C   0  0  0  0  0  0  0  0  0  0  0  0
   21.4282   27.9141   16.6550 O   0  0  0  0  0  0  0  0  0  0  0  0
   20.7340   25.7813   17.0993 N   0  0  0  0  0  0  0  0  0  0  0  0
   20.9608   24.9404   17.5583 H   0  0  0  0  0  0  0  0  0  0  0  0
   22.2792   26.6559   19.6181 N   0  0  0  0  0  0  0  0  0  0  0  0
   22.5809   26.5775   18.3001 C   0  0  0  0  0  0  0  0  0  0  0  0
   23.8670   26.1990   17.8587 C   0  0  0  0  0  0  0  0  0  0  0  0
   24.8335   26.0438   18.8608 C   0  0  0  0  0  0  0  0  0  0  0  0
   25.4544   25.9155   21.2044 C   0  0  0  0  0  0  0  0  0  0  0  0
   25.1357   25.9358   22.5456 C   0  0  0  0  0  0  0  0  0  0  0  0
   23.8518   26.2859   22.8756 C   0  0  0  0  0  0  0  0  0  0  0  0
   22.8914   26.4807   21.9432 C   0  0  0  0  0  0  0  0  0  0  0  0
   24.5151   26.0970   20.2102 C   0  0  0  0  0  0  0  0  0  0  0  0
   23.2108   26.4311   20.5805 C   0  0  0  0  0  0  0  0  0  0  0  0
   19.8603   25.6713   14.8037 C   0  0  0  0  0  0  0  0  0  0  0  0
   19.0724   26.6965   14.1069 C   0  0  0  0  0  0  0  0  0  0  0  0
   17.9819   26.5917   13.5284 O   0  0  0  0  0  0  0  0  0  0  0  0
   19.5879   27.8607   14.0552 N   0  0  0  0  0  0  0  0  0  0  0  0
   20.4546   28.0350   14.4884 H   0  0  0  0  0  0  0  0  0  0  0  0
   19.1194   28.5859   13.5820 H   0  0  0  0  0  0  0  0  0  0  0  0
   15.7256   24.1989   18.0775 C   0  0  0  0  0  0  0  0  0  0  0  0
   15.2599   25.3396   18.7874 O   0  0  0  0  0  0  0  0  0  0  0  0
   15.2235   25.1377   19.7354 H   0  0  0  0  0  0  0  0  0  0  0  0
   14.7614   23.0495   18.2246 C   0  0  0  0  0  0  0  0  0  0  0  0
   14.6283   22.3116   16.9964 N   0  0  0  0  0  0  0  0  0  0  0  0
   13.8735   21.0218   17.1531 C   0  0  0  0  0  0  0  0  0  0  0  0
   13.7876   20.3259   15.8380 C   0  0  0  0  0  0  0  0  0  0  0  0
   13.1716   21.1482   14.7450 C   0  0  0  0  0  0  0  0  0  0  0  0
   13.1485   20.4549   13.3889 C   0  0  0  0  0  0  0  0  0  0  0  0
   14.5005   20.3666   12.7176 C   0  0  0  0  0  0  0  0  0  0  0  0
   15.1330   21.7245   12.5954 C   0  0  0  0  0  0  0  0  0  0  0  0
   15.2656   22.2834   14.0050 C   0  0  0  0  0  0  0  0  0  0  0  0
   13.9562   22.4670   14.6884 C   0  0  0  0  0  0  0  0  0  0  0  0
   14.0023   23.1426   15.9981 C   0  0  0  0  0  0  0  0  0  0  0  0
   14.5736   20.0911   18.1571 C   0  0  0  0  0  0  0  0  0  0  0  0
   15.7571   19.8108   18.0556 O   0  0  0  0  0  0  0  0  0  0  0  0
   13.7860   19.6537   19.1708 N   0  0  0  0  0  0  0  0  0  0  0  0
   12.8728   20.0169   19.2305 H   0  0  0  0  0  0  0  0  0  0  0  0
   14.1952   18.6876   20.1737 C   0  0  0  0  0  0  0  0  0  0  0  0
   14.7376   17.4730   19.4753 C   0  0  0  0  0  0  0  0  0  0  0  0
   12.9901   18.3081   21.0061 C   0  0  0  0  0  0  0  0  0  0  0  0
   15.1997   19.3348   21.0929 C   0  0  0  0  0  0  0  0  0  0  0  0
   17.3662   23.8661   20.0127 C   0  0  0  0  0  0  0  0  0  0  0  0
   18.7040   23.3405   20.4617 C   0  0  0  0  0  0  0  0  0  0  0  0
   19.5874   24.1531   21.1419 C   0  0  0  0  0  0  0  0  0  0  0  0
   19.0639   22.0458   20.2108 C   0  0  0  0  0  0  0  0  0  0  0  0
   20.8152   23.6921   21.5115 C   0  0  0  0  0  0  0  0  0  0  0  0
   20.2838   21.5704   20.6165 C   0  0  0  0  0  0  0  0  0  0  0  0
   21.1648   22.3972   21.2419 C   0  0  0  0  0  0  0  0  0  0  0  0
  8  7  2  0  0  0
  7 12  1  0  0  0
 11 12  2  0  0  0
 11 20  1  0  0  0
 12 13  1  0  0  0
 13 14  2  0  0  0
 14 19  1  0  0  0
 19 15  2  0  0  0
 19 20  1  0  0  0
 15 16  1  0  0  0
 16 17  2  0  0  0
 17 18  1  0  0  0
 18 20  2  0  0  0
  9  6  1  0  0  0
  6  2  1  0  0  0
  6 21  1  0  0  0
  2  3  2  0  0  0
 21 22  1  0  0  0
 22 23  2  0  0  0
 22 24  1  0  0  0
 27 28  1  0  0  0
 27  1  1  0  0  0
  1  4  1  0  0  0
  1 49  1  0  0  0
 49 50  1  0  0  0
 50 51  2  0  0  0
 50 52  1  0  0  0
 51 53  1  0  0  0
 52 54  2  0  0  0
 53 55  2  0  0  0
 54 55  1  0  0  0
 31 30  1  0  0  0
 31 32  1  0  0  0
 31 40  1  0  0  0
 32 41  1  0  0  0
 32 33  1  0  0  0
 41 42  2  0  0  0
 33 34  1  0  0  0
 34 35  1  0  0  0
 34 39  1  0  0  0
 35 36  1  0  0  0
 36 37  1  0  0  0
 37 38  1  0  0  0
 38 39  1  0  0  0
 39 40  1  0  0  0
 43 45  1  0  0  0
 45 46  1  0  0  0
 45 47  1  0  0  0
 45 48  1  0  0  0
  7  9  1  0  0  0
  2  4  1  0  0  0
 27 30  1  0  0  0
 41 43  1  0  0  0
  9 10  1  0  0  0
 24 25  1  0  0  0
 24 26  1  0  0  0
 28 29  1  0  0  0
  4  5  1  0  0  0
 43 44  1  0  0  0
M  END
> <minimizedAffinity>
-11.42035

$$$$
3CYX_ROC_A_201


 55 59  0  0  0  0  0  0  0  0999 V2000
   18.2946   23.4923   17.8330 C   0  0  0  0  0  0  0  0  0  0  0  0
   20.0587   24.8075   18.9098 C   0  0  0  0  0  0  0  0  0  0  0  0
   19.8644   25.8641   18.2662 O   0  0  0  0  0  0  0  0  0  0  0  0
   19.4043   23.6560   18.7847 N   0  0  0  0  0  0  0  0  0  0  0  0
   19.6704   22.8915   19.3450 H   0  0  0  0  0  0  0  0  0  0  0  0
   21.1849   24.8228   19.9397 C   0  0  0  0  0  0  0  0  0  0  0  0
   23.5486   24.4603   19.4039 C   0  0  0  0  0  0  0  0  0  0  0  0
   23.7103   23.5636   20.2552 O   0  0  0  0  0  0  0  0  0  0  0  0
   22.3961   25.1423   19.2508 N   0  0  0  0  0  0  0  0  0  0  0  0
   22.3880   25.9050   18.6283 H   0  0  0  0  0  0  0  0  0  0  0  0
   24.3736   25.9974   17.6761 N   0  0  0  0  0  0  0  0  0  0  0  0
   24.5877   24.9115   18.4567 C   0  0  0  0  0  0  0  0  0  0  0  0
   25.8125   24.2107   18.4262 C   0  0  0  0  0  0  0  0  0  0  0  0
   26.7278   24.6265   17.4507 C   0  0  0  0  0  0  0  0  0  0  0  0
   27.4270   26.1904   15.7302 C   0  0  0  0  0  0  0  0  0  0  0  0
   27.2360   27.3298   14.9779 C   0  0  0  0  0  0  0  0  0  0  0  0
   26.0240   27.9597   15.0979 C   0  0  0  0  0  0  0  0  0  0  0  0
   25.0933   27.5742   16.0006 C   0  0  0  0  0  0  0  0  0  0  0  0
   26.5176   25.7558   16.6725 C   0  0  0  0  0  0  0  0  0  0  0  0
   25.3014   26.4328   16.7848 C   0  0  0  0  0  0  0  0  0  0  0  0
   20.8599   25.7756   21.0630 C   0  0  0  0  0  0  0  0  0  0  0  0
   21.4591   27.0723   20.7209 C   0  0  0  0  0  0  0  0  0  0  0  0
   22.6350   27.4474   20.8267 O   0  0  0  0  0  0  0  0  0  0  0  0
   20.6592   27.9604   20.2790 N   0  0  0  0  0  0  0  0  0  0  0  0
   19.7046   27.7492   20.1630 H   0  0  0  0  0  0  0  0  0  0  0  0
   20.9957   28.8577   20.0537 H   0  0  0  0  0  0  0  0  0  0  0  0
   17.4056   22.3434   18.3235 C   0  0  0  0  0  0  0  0  0  0  0  0
   17.6770   21.1565   17.5890 O   0  0  0  0  0  0  0  0  0  0  0  0
   17.4541   21.2960   16.6553 H   0  0  0  0  0  0  0  0  0  0  0  0
   15.9337   22.6673   18.2877 C   0  0  0  0  0  0  0  0  0  0  0  0
   15.3021   22.1241   17.1143 N   0  0  0  0  0  0  0  0  0  0  0  0
   14.0913   21.2886   17.4203 C   0  0  0  0  0  0  0  0  0  0  0  0
   13.5065   20.7667   16.1527 C   0  0  0  0  0  0  0  0  0  0  0  0
   13.1544   21.8289   15.1536 C   0  0  0  0  0  0  0  0  0  0  0  0
   12.6200   21.2839   13.8354 C   0  0  0  0  0  0  0  0  0  0  0  0
   13.6738   20.6465   12.9582 C   0  0  0  0  0  0  0  0  0  0  0  0
   14.8118   21.5950   12.7043 C   0  0  0  0  0  0  0  0  0  0  0  0
   15.3922   21.9687   14.0609 C   0  0  0  0  0  0  0  0  0  0  0  0
   14.4198   22.6724   14.9409 C   0  0  0  0  0  0  0  0  0  0  0  0
   14.9597   23.1938   16.2101 C   0  0  0  0  0  0  0  0  0  0  0  0
   14.4563   20.0966   18.3206 C   0  0  0  0  0  0  0  0  0  0  0  0
   15.4855   19.4610   18.1586 O   0  0  0  0  0  0  0  0  0  0  0  0
   13.5728   19.8474   19.3188 N   0  0  0  0  0  0  0  0  0  0  0  0
   12.8261   20.4779   19.4375 H   0  0  0  0  0  0  0  0  0  0  0  0
   13.6512   18.7157   20.2244 C   0  0  0  0  0  0  0  0  0  0  0  0
   13.7875   17.4600   19.4108 C   0  0  0  0  0  0  0  0  0  0  0  0
   12.3831   18.6610   21.0479 C   0  0  0  0  0  0  0  0  0  0  0  0
   14.8030   18.9294   21.1732 C   0  0  0  0  0  0  0  0  0  0  0  0
   18.9083   23.2441   16.4585 C   0  0  0  0  0  0  0  0  0  0  0  0
   18.7062   24.3659   15.4745 C   0  0  0  0  0  0  0  0  0  0  0  0
   19.7872   24.9923   14.8893 C   0  0  0  0  0  0  0  0  0  0  0  0
   17.4474   24.7783   15.1369 C   0  0  0  0  0  0  0  0  0  0  0  0
   19.6076   26.0356   14.0315 C   0  0  0  0  0  0  0  0  0  0  0  0
   17.2656   25.8025   14.2442 C   0  0  0  0  0  0  0  0  0  0  0  0
   18.3413   26.4441   13.7133 C   0  0  0  0  0  0  0  0  0  0  0  0
  8  7  2  0  0  0
  7 12  1  0  0  0
 11 12  2  0  0  0
 11 20  1  0  0  0
 12 13  1  0  0  0
 13 14  2  0  0  0
 14 19  1  0  0  0
 19 15  2  0  0  0
 19 20  1  0  0  0
 15 16  1  0  0  0
 16 17  2  0  0  0
 17 18  1  0  0  0
 18 20  2  0  0  0
  9  6  1  0  0  0
  6  2  1  0  0  0
  6 21  1  0  0  0
  2  3  2  0  0  0
 21 22  1  0  0  0
 22 23  2  0  0  0
 22 24  1  0  0  0
 27 28  1  0  0  0
 27  1  1  0  0  0
  1  4  1  0  0  0
  1 49  1  0  0  0
 49 50  1  0  0  0
 50 51  2  0  0  0
 50 52  1  0  0  0
 51 53  1  0  0  0
 52 54  2  0  0  0
 53 55  2  0  0  0
 54 55  1  0  0  0
 31 30  1  0  0  0
 31 32  1  0  0  0
 31 40  1  0  0  0
 32 41  1  0  0  0
 32 33  1  0  0  0
 41 42  2  0  0  0
 33 34  1  0  0  0
 34 35  1  0  0  0
 34 39  1  0  0  0
 35 36  1  0  0  0
 36 37  1  0  0  0
 37 38  1  0  0  0
 38 39  1  0  0  0
 39 40  1  0  0  0
 43 45  1  0  0  0
 45 46  1  0  0  0
 45 47  1  0  0  0
 45 48  1  0  0  0
  7  9  1  0  0  0
  2  4  1  0  0  0
 27 30  1  0  0  0
 41 43  1  0  0  0
  9 10  1  0  0  0
 24 25  1  0  0  0
 24 26  1  0  0  0
 28 29  1  0  0  0
  4  5  1  0  0  0
 43 44  1  0  0  0
M  END
> <minimizedAffinity>
-11.31795

$$$$
3CYX_ROC_A_201


 55 59  0  0  0  0  0  0  0  0999 V2000
   18.6157   23.5801   17.6363 C   0  0  0  0  0  0  0  0  0  0  0  0
   20.3182   24.7975   18.9093 C   0  0  0  0  0  0  0  0  0  0  0  0
   20.1973   25.8883   18.3059 O   0  0  0  0  0  0  0  0  0  0  0  0
   19.6511   23.6702   18.6773 N   0  0  0  0  0  0  0  0  0  0  0  0
   19.8563   22.8734   19.2179 H   0  0  0  0  0  0  0  0  0  0  0  0
   21.3607   24.7353   20.0221 C   0  0  0  0  0  0  0  0  0  0  0  0
   23.6737   24.1460   19.4666 C   0  0  0  0  0  0  0  0  0  0  0  0
   23.6684   23.0836   20.1196 O   0  0  0  0  0  0  0  0  0  0  0  0
   22.6360   25.0056   19.4351 N   0  0  0  0  0  0  0  0  0  0  0  0
   22.7636   25.8699   18.9814 H   0  0  0  0  0  0  0  0  0  0  0  0
   24.6142   25.5519   17.6869 N   0  0  0  0  0  0  0  0  0  0  0  0
   24.8093   24.6204   18.6505 C   0  0  0  0  0  0  0  0  0  0  0  0
   26.0946   24.1120   18.9360 C   0  0  0  0  0  0  0  0  0  0  0  0
   27.1192   24.5296   18.0770 C   0  0  0  0  0  0  0  0  0  0  0  0
   27.9324   25.9440   16.2789 C   0  0  0  0  0  0  0  0  0  0  0  0
   27.7480   26.9350   15.3384 C   0  0  0  0  0  0  0  0  0  0  0  0
   26.4670   27.3875   15.1532 C   0  0  0  0  0  0  0  0  0  0  0  0
   25.4373   26.9878   15.9341 C   0  0  0  0  0  0  0  0  0  0  0  0
   26.9222   25.5044   17.1096 C   0  0  0  0  0  0  0  0  0  0  0  0
   25.6327   26.0015   16.9089 C   0  0  0  0  0  0  0  0  0  0  0  0
   20.9976   25.6818   21.1390 C   0  0  0  0  0  0  0  0  0  0  0  0
   21.5591   26.9951   20.7965 C   0  0  0  0  0  0  0  0  0  0  0  0
   22.7284   27.3959   20.8785 O   0  0  0  0  0  0  0  0  0  0  0  0
   20.7291   27.8691   20.3830 N   0  0  0  0  0  0  0  0  0  0  0  0
   19.7770   27.6374   20.2873 H   0  0  0  0  0  0  0  0  0  0  0  0
   21.0399   28.7761   20.1592 H   0  0  0  0  0  0  0  0  0  0  0  0
   17.7980   22.3061   17.8798 C   0  0  0  0  0  0  0  0  0  0  0  0
   18.1002   21.3258   16.8951 O   0  0  0  0  0  0  0  0  0  0  0  0
   17.8402   21.6551   16.0206 H   0  0  0  0  0  0  0  0  0  0  0  0
   16.3123   22.5516   17.9490 C   0  0  0  0  0  0  0  0  0  0  0  0
   15.6274   21.4655   18.5988 N   0  0  0  0  0  0  0  0  0  0  0  0
   15.2131   20.3713   17.6562 C   0  0  0  0  0  0  0  0  0  0  0  0
   14.5112   19.2952   18.4115 C   0  0  0  0  0  0  0  0  0  0  0  0
   15.3072   18.7184   19.5448 C   0  0  0  0  0  0  0  0  0  0  0  0
   14.5581   17.6669   20.3531 C   0  0  0  0  0  0  0  0  0  0  0  0
   13.4770   18.2303   21.2476 C   0  0  0  0  0  0  0  0  0  0  0  0
   14.0279   19.2904   22.1595 C   0  0  0  0  0  0  0  0  0  0  0  0
   14.6173   20.3788   21.2735 C   0  0  0  0  0  0  0  0  0  0  0  0
   15.7421   19.8990   20.4251 C   0  0  0  0  0  0  0  0  0  0  0  0
   16.4543   20.9344   19.6538 C   0  0  0  0  0  0  0  0  0  0  0  0
   14.2659   20.9076   16.5700 C   0  0  0  0  0  0  0  0  0  0  0  0
   13.2560   21.5329   16.8504 O   0  0  0  0  0  0  0  0  0  0  0  0
   14.6675   20.6676   15.2972 N   0  0  0  0  0  0  0  0  0  0  0  0
   15.5491   20.2493   15.1663 H   0  0  0  0  0  0  0  0  0  0  0  0
   13.8883   20.9844   14.1142 C   0  0  0  0  0  0  0  0  0  0  0  0
   13.7862   22.4785   13.9941 C   0  0  0  0  0  0  0  0  0  0  0  0
   12.5077   20.3839   14.2640 C   0  0  0  0  0  0  0  0  0  0  0  0
   14.5384   20.3413   12.9156 C   0  0  0  0  0  0  0  0  0  0  0  0
   19.3263   23.5996   16.2865 C   0  0  0  0  0  0  0  0  0  0  0  0
   18.7484   24.5719   15.2924 C   0  0  0  0  0  0  0  0  0  0  0  0
   19.4597   25.6886   14.9047 C   0  0  0  0  0  0  0  0  0  0  0  0
   17.5116   24.3611   14.7498 C   0  0  0  0  0  0  0  0  0  0  0  0
   18.9212   26.5917   14.0381 C   0  0  0  0  0  0  0  0  0  0  0  0
   16.9854   25.2496   13.8483 C   0  0  0  0  0  0  0  0  0  0  0  0
   17.6770   26.3721   13.5134 C   0  0  0  0  0  0  0  0  0  0  0  0
  8  7  2  0  0  0
  7 12  1  0  0  0
 11 12  2  0  0  0
 11 20  1  0  0  0
 12 13  1  0  0  0
 13 14  2  0  0  0
 14 19  1  0  0  0
 19 15  2  0  0  0
 19 20  1  0  0  0
 15 16  1  0  0  0
 16 17  2  0  0  0
 17 18  1  0  0  0
 18 20  2  0  0  0
  9  6  1  0  0  0
  6  2  1  0  0  0
  6 21  1  0  0  0
  2  3  2  0  0  0
 21 22  1  0  0  0
 22 23  2  0  0  0
 22 24  1  0  0  0
 27 28  1  0  0  0
 27  1  1  0  0  0
  1  4  1  0  0  0
  1 49  1  0  0  0
 49 50  1  0  0  0
 50 51  2  0  0  0
 50 52  1  0  0  0
 51 53  1  0  0  0
 52 54  2  0  0  0
 53 55  2  0  0  0
 54 55  1  0  0  0
 31 30  1  0  0  0
 31 32  1  0  0  0
 31 40  1  0  0  0
 32 41  1  0  0  0
 32 33  1  0  0  0
 41 42  2  0  0  0
 33 34  1  0  0  0
 34 35  1  0  0  0
 34 39  1  0  0  0
 35 36  1  0  0  0
 36 37  1  0  0  0
 37 38  1  0  0  0
 38 39  1  0  0  0
 39 40  1  0  0  0
 43 45  1  0  0  0
 45 46  1  0  0  0
 45 47  1  0  0  0
 45 48  1  0  0  0
  7  9  1  0  0  0
  2  4  1  0  0  0
 27 30  1  0  0  0
 41 43  1  0  0  0
  9 10  1  0  0  0
 24 25  1  0  0  0
 24 26  1  0  0  0
 28 29  1  0  0  0
  4  5  1  0  0  0
 43 44  1  0  0  0
M  END
> <minimizedAffinity>
-10.80084

$$$$
3CYX_ROC_A_201


 55 59  0  0  0  0  0  0  0  0999 V2000
   17.3811   21.3490   19.2563 C   0  0  0  0  0  0  0  0  0  0  0  0
   19.4382   22.4850   19.9486 C   0  0  0  0  0  0  0  0  0  0  0  0
   20.0194   21.4706   20.3975 O   0  0  0  0  0  0  0  0  0  0  0  0
   18.2222   22.5458   19.4125 N   0  0  0  0  0  0  0  0  0  0  0  0
   17.8752   23.4166   19.1118 H   0  0  0  0  0  0  0  0  0  0  0  0
   20.1895   23.8101   20.0423 C   0  0  0  0  0  0  0  0  0  0  0  0
   22.5199   24.0391   20.7652 C   0  0  0  0  0  0  0  0  0  0  0  0
   22.2773   24.9174   21.6165 O   0  0  0  0  0  0  0  0  0  0  0  0
   21.5864   23.5228   19.9414 N   0  0  0  0  0  0  0  0  0  0  0  0
   21.8838   22.9123   19.2286 H   0  0  0  0  0  0  0  0  0  0  0  0
   24.8805   23.7287   21.3651 N   0  0  0  0  0  0  0  0  0  0  0  0
   23.8531   23.4502   20.5277 C   0  0  0  0  0  0  0  0  0  0  0  0
   24.0067   22.5629   19.4409 C   0  0  0  0  0  0  0  0  0  0  0  0
   25.3093   22.1021   19.2104 C   0  0  0  0  0  0  0  0  0  0  0  0
   27.6327   21.8915   19.8828 C   0  0  0  0  0  0  0  0  0  0  0  0
   28.6646   22.1251   20.7668 C   0  0  0  0  0  0  0  0  0  0  0  0
   28.4105   22.9783   21.8096 C   0  0  0  0  0  0  0  0  0  0  0  0
   27.1772   23.4775   22.0534 C   0  0  0  0  0  0  0  0  0  0  0  0
   26.3531   22.3661   20.0855 C   0  0  0  0  0  0  0  0  0  0  0  0
   26.1227   23.2154   21.1698 C   0  0  0  0  0  0  0  0  0  0  0  0
   19.6940   24.7733   18.9927 C   0  0  0  0  0  0  0  0  0  0  0  0
   20.7210   25.8115   18.8350 C   0  0  0  0  0  0  0  0  0  0  0  0
   21.6776   25.8583   18.0493 O   0  0  0  0  0  0  0  0  0  0  0  0
   20.6479   26.7987   19.6374 N   0  0  0  0  0  0  0  0  0  0  0  0
   19.9185   26.8439   20.2971 H   0  0  0  0  0  0  0  0  0  0  0  0
   21.3208   27.5162   19.5977 H   0  0  0  0  0  0  0  0  0  0  0  0
   16.7624   21.3754   17.8537 C   0  0  0  0  0  0  0  0  0  0  0  0
   17.7454   21.0750   16.8711 O   0  0  0  0  0  0  0  0  0  0  0  0
   18.4320   21.7601   16.8806 H   0  0  0  0  0  0  0  0  0  0  0  0
   16.0650   22.6722   17.5306 C   0  0  0  0  0  0  0  0  0  0  0  0
   16.6755   23.3346   16.4084 N   0  0  0  0  0  0  0  0  0  0  0  0
   15.7220   23.5933   15.2763 C   0  0  0  0  0  0  0  0  0  0  0  0
   16.4377   24.2758   14.1614 C   0  0  0  0  0  0  0  0  0  0  0  0
   17.1189   25.5526   14.5568 C   0  0  0  0  0  0  0  0  0  0  0  0
   17.9036   26.2090   13.4283 C   0  0  0  0  0  0  0  0  0  0  0  0
   19.1902   25.4973   13.0757 C   0  0  0  0  0  0  0  0  0  0  0  0
   20.0646   25.3297   14.2866 C   0  0  0  0  0  0  0  0  0  0  0  0
   19.2665   24.5291   15.3059 C   0  0  0  0  0  0  0  0  0  0  0  0
   18.0249   25.2187   15.7508 C   0  0  0  0  0  0  0  0  0  0  0  0
   17.2831   24.5669   16.8458 C   0  0  0  0  0  0  0  0  0  0  0  0
   15.1253   22.2790   14.7459 C   0  0  0  0  0  0  0  0  0  0  0  0
   15.8322   21.3442   14.4055 O   0  0  0  0  0  0  0  0  0  0  0  0
   13.7700   22.2353   14.7324 N   0  0  0  0  0  0  0  0  0  0  0  0
   13.2834   22.9956   15.1253 H   0  0  0  0  0  0  0  0  0  0  0  0
   12.9867   21.1457   14.1792 C   0  0  0  0  0  0  0  0  0  0  0  0
   13.5258   20.8120   12.8171 C   0  0  0  0  0  0  0  0  0  0  0  0
   11.5443   21.5890   14.0680 C   0  0  0  0  0  0  0  0  0  0  0  0
   13.0336   19.9785   15.1322 C   0  0  0  0  0  0  0  0  0  0  0  0
   16.3481   21.3707   20.3787 C   0  0  0  0  0  0  0  0  0  0  0  0
   15.4954   20.1325   20.4642 C   0  0  0  0  0  0  0  0  0  0  0  0
   14.6445   19.9360   21.5323 C   0  0  0  0  0  0  0  0  0  0  0  0
   15.5428   19.1845   19.4805 C   0  0  0  0  0  0  0  0  0  0  0  0
   13.9040   18.7967   21.6331 C   0  0  0  0  0  0  0  0  0  0  0  0
   14.7690   18.0560   19.5623 C   0  0  0  0  0  0  0  0  0  0  0  0
   13.9722   17.8520   20.6458 C   0  0  0  0  0  0  0  0  0  0  0  0
  8  7  2  0  0  0
  7 12  1  0  0  0
 11 12  2  0  0  0
 11 20  1  0  0  0
 12 13  1  0  0  0
 13 14  2  0  0  0
 14 19  1  0  0  0
 19 15  2  0  0  0
 19 20  1  0  0  0
 15 16  1  0  0  0
 16 17  2  0  0  0
 17 18  1  0  0  0
 18 20  2  0  0  0
  9  6  1  0  0  0
  6  2  1  0  0  0
  6 21  1  0  0  0
  2  3  2  0  0  0
 21 22  1  0  0  0
 22 23  2  0  0  0
 22 24  1  0  0  0
 27 28  1  0  0  0
 27  1  1  0  0  0
  1  4  1  0  0  0
  1 49  1  0  0  0
 49 50  1  0  0  0
 50 51  2  0  0  0
 50 52  1  0  0  0
 51 53  1  0  0  0
 52 54  2  0  0  0
 53 55  2  0  0  0
 54 55  1  0  0  0
 31 30  1  0  0  0
 31 32  1  0  0  0
 31 40  1  0  0  0
 32 41  1  0  0  0
 32 33  1  0  0  0
 41 42  2  0  0  0
 33 34  1  0  0  0
 34 35  1  0  0  0
 34 39  1  0  0  0
 35 36  1  0  0  0
 36 37  1  0  0  0
 37 38  1  0  0  0
 38 39  1  0  0  0
 39 40  1  0  0  0
 43 45  1  0  0  0
 45 46  1  0  0  0
 45 47  1  0  0  0
 45 48  1  0  0  0
  7  9  1  0  0  0
  2  4  1  0  0  0
 27 30  1  0  0  0
 41 43  1  0  0  0
  9 10  1  0  0  0
 24 25  1  0  0  0
 24 26  1  0  0  0
 28 29  1  0  0  0
  4  5  1  0  0  0
 43 44  1  0  0  0
M  END
> <minimizedAffinity>
-10.73654

$$$$
3CYX_ROC_A_201


 55 59  0  0  0  0  0  0  0  0999 V2000
   18.6187   22.8341   17.4107 C   0  0  0  0  0  0  0  0  0  0  0  0
   18.7936   25.0410   16.3618 C   0  0  0  0  0  0  0  0  0  0  0  0
   17.9300   25.6068   17.0708 O   0  0  0  0  0  0  0  0  0  0  0  0
   19.1806   23.7698   16.4245 N   0  0  0  0  0  0  0  0  0  0  0  0
   19.8627   23.4460   15.7926 H   0  0  0  0  0  0  0  0  0  0  0  0
   19.4683   25.8884   15.2867 C   0  0  0  0  0  0  0  0  0  0  0  0
   21.4433   27.2398   15.8146 C   0  0  0  0  0  0  0  0  0  0  0  0
   20.9029   28.3268   15.5290 O   0  0  0  0  0  0  0  0  0  0  0  0
   20.8401   26.0447   15.6574 N   0  0  0  0  0  0  0  0  0  0  0  0
   21.3755   25.2321   15.8065 H   0  0  0  0  0  0  0  0  0  0  0  0
   23.8808   27.1994   15.5222 N   0  0  0  0  0  0  0  0  0  0  0  0
   22.8128   27.1016   16.3493 C   0  0  0  0  0  0  0  0  0  0  0  0
   22.9707   26.9134   17.7392 C   0  0  0  0  0  0  0  0  0  0  0  0
   24.2835   26.7023   18.1798 C   0  0  0  0  0  0  0  0  0  0  0  0
   26.6756   26.6546   17.7669 C   0  0  0  0  0  0  0  0  0  0  0  0
   27.7659   26.8132   16.9382 C   0  0  0  0  0  0  0  0  0  0  0  0
   27.5116   27.0224   15.6073 C   0  0  0  0  0  0  0  0  0  0  0  0
   26.2590   27.1974   15.1276 C   0  0  0  0  0  0  0  0  0  0  0  0
   25.3769   26.8310   17.3355 C   0  0  0  0  0  0  0  0  0  0  0  0
   25.1534   27.0645   15.9770 C   0  0  0  0  0  0  0  0  0  0  0  0
   19.2778   25.2648   13.9265 C   0  0  0  0  0  0  0  0  0  0  0  0
   17.9456   25.6588   13.4497 C   0  0  0  0  0  0  0  0  0  0  0  0
   17.4594   26.7910   13.3216 O   0  0  0  0  0  0  0  0  0  0  0  0
   17.1532   24.7069   13.1502 N   0  0  0  0  0  0  0  0  0  0  0  0
   17.4561   23.7730   13.2226 H   0  0  0  0  0  0  0  0  0  0  0  0
   16.2380   24.9053   12.8464 H   0  0  0  0  0  0  0  0  0  0  0  0
   17.2466   22.3707   16.9070 C   0  0  0  0  0  0  0  0  0  0  0  0
   17.0172   22.8421   15.5853 O   0  0  0  0  0  0  0  0  0  0  0  0
   16.9951   23.8118   15.5872 H   0  0  0  0  0  0  0  0  0  0  0  0
   16.1106   22.7624   17.8172 C   0  0  0  0  0  0  0  0  0  0  0  0
   15.5204   21.6124   18.4497 N   0  0  0  0  0  0  0  0  0  0  0  0
   15.2101   20.4972   17.4918 C   0  0  0  0  0  0  0  0  0  0  0  0
   14.6014   19.3544   18.2299 C   0  0  0  0  0  0  0  0  0  0  0  0
   15.4382   18.8367   19.3621 C   0  0  0  0  0  0  0  0  0  0  0  0
   14.7801   17.7136   20.1531 C   0  0  0  0  0  0  0  0  0  0  0  0
   13.6480   18.1686   21.0462 C   0  0  0  0  0  0  0  0  0  0  0  0
   14.0975   19.2622   21.9740 C   0  0  0  0  0  0  0  0  0  0  0  0
   14.5938   20.4089   21.1046 C   0  0  0  0  0  0  0  0  0  0  0  0
   15.7618   20.0404   20.2589 C   0  0  0  0  0  0  0  0  0  0  0  0
   16.3845   21.1437   19.5045 C   0  0  0  0  0  0  0  0  0  0  0  0
   14.2258   20.9608   16.4051 C   0  0  0  0  0  0  0  0  0  0  0  0
   13.1346   21.4303   16.6850 O   0  0  0  0  0  0  0  0  0  0  0  0
   14.6866   20.8455   15.1349 N   0  0  0  0  0  0  0  0  0  0  0  0
   15.6193   20.5558   15.0107 H   0  0  0  0  0  0  0  0  0  0  0  0
   13.9007   21.1193   13.9457 C   0  0  0  0  0  0  0  0  0  0  0  0
   13.1014   22.3701   14.1776 C   0  0  0  0  0  0  0  0  0  0  0  0
   12.9705   19.9524   13.6960 C   0  0  0  0  0  0  0  0  0  0  0  0
   14.8283   21.2253   12.7620 C   0  0  0  0  0  0  0  0  0  0  0  0
   18.5619   23.5649   18.7486 C   0  0  0  0  0  0  0  0  0  0  0  0
   19.7712   23.3597   19.6221 C   0  0  0  0  0  0  0  0  0  0  0  0
   20.7600   24.3193   19.6922 C   0  0  0  0  0  0  0  0  0  0  0  0
   19.9071   22.2224   20.3681 C   0  0  0  0  0  0  0  0  0  0  0  0
   21.8751   24.1170   20.4485 C   0  0  0  0  0  0  0  0  0  0  0  0
   21.0108   22.0355   21.1593 C   0  0  0  0  0  0  0  0  0  0  0  0
   22.0014   22.9676   21.1798 C   0  0  0  0  0  0  0  0  0  0  0  0
  8  7  2  0  0  0
  7 12  1  0  0  0
 11 12  2  0  0  0
 11 20  1  0  0  0
 12 13  1  0  0  0
 13 14  2  0  0  0
 14 19  1  0  0  0
 19 15  2  0  0  0
 19 20  1  0  0  0
 15 16  1  0  0  0
 16 17  2  0  0  0
 17 18  1  0  0  0
 18 20  2  0  0  0
  9  6  1  0  0  0
  6  2  1  0  0  0
  6 21  1  0  0  0
  2  3  2  0  0  0
 21 22  1  0  0  0
 22 23  2  0  0  0
 22 24  1  0  0  0
 27 28  1  0  0  0
 27  1  1  0  0  0
  1  4  1  0  0  0
  1 49  1  0  0  0
 49 50  1  0  0  0
 50 51  2  0  0  0
 50 52  1  0  0  0
 51 53  1  0  0  0
 52 54  2  0  0  0
 53 55  2  0  0  0
 54 55  1  0  0  0
 31 30  1  0  0  0
 31 32  1  0  0  0
 31 40  1  0  0  0
 32 41  1  0  0  0
 32 33  1  0  0  0
 41 42  2  0  0  0
 33 34  1  0  0  0
 34 35  1  0  0  0
 34 39  1  0  0  0
 35 36  1  0  0  0
 36 37  1  0  0  0
 37 38  1  0  0  0
 38 39  1  0  0  0
 39 40  1  0  0  0
 43 45  1  0  0  0
 45 46  1  0  0  0
 45 47  1  0  0  0
 45 48  1  0  0  0
  7  9  1  0  0  0
  2  4  1  0  0  0
 27 30  1  0  0  0
 41 43  1  0  0  0
  9 10  1  0  0  0
 24 25  1  0  0  0
 24 26  1  0  0  0
 28 29  1  0  0  0
  4  5  1  0  0  0
 43 44  1  0  0  0
M  END
> <minimizedAffinity>
-10.62994

$$$$
3CYX_ROC_A_201


 55 59  0  0  0  0  0  0  0  0999 V2000
   18.4382   23.1438   18.6555 C   0  0  0  0  0  0  0  0  0  0  0  0
   18.2238   24.9558   17.0209 C   0  0  0  0  0  0  0  0  0  0  0  0
   17.1298   25.3992   17.4394 O   0  0  0  0  0  0  0  0  0  0  0  0
   18.9082   23.9192   17.4971 N   0  0  0  0  0  0  0  0  0  0  0  0
   19.7534   23.6637   17.0618 H   0  0  0  0  0  0  0  0  0  0  0  0
   18.8396   25.6610   15.8157 C   0  0  0  0  0  0  0  0  0  0  0  0
   20.8339   27.0740   15.9954 C   0  0  0  0  0  0  0  0  0  0  0  0
   20.2861   28.0859   15.5147 O   0  0  0  0  0  0  0  0  0  0  0  0
   20.2236   25.8770   16.1021 N   0  0  0  0  0  0  0  0  0  0  0  0
   20.7622   25.1064   16.3942 H   0  0  0  0  0  0  0  0  0  0  0  0
   23.2612   27.2161   15.6543 N   0  0  0  0  0  0  0  0  0  0  0  0
   22.2205   27.0345   16.5018 C   0  0  0  0  0  0  0  0  0  0  0  0
   22.4201   26.8502   17.8868 C   0  0  0  0  0  0  0  0  0  0  0  0
   23.7537   26.7343   18.2996 C   0  0  0  0  0  0  0  0  0  0  0  0
   26.1338   26.8665   17.8389 C   0  0  0  0  0  0  0  0  0  0  0  0
   27.1923   27.1104   16.9899 C   0  0  0  0  0  0  0  0  0  0  0  0
   26.8962   27.3081   15.6658 C   0  0  0  0  0  0  0  0  0  0  0  0
   25.6245   27.3927   15.2125 C   0  0  0  0  0  0  0  0  0  0  0  0
   24.8172   26.9487   17.4347 C   0  0  0  0  0  0  0  0  0  0  0  0
   24.5493   27.1732   16.0827 C   0  0  0  0  0  0  0  0  0  0  0  0
   18.6008   24.8629   14.5583 C   0  0  0  0  0  0  0  0  0  0  0  0
   17.9167   25.7467   13.6052 C   0  0  0  0  0  0  0  0  0  0  0  0
   17.8551   26.9838   13.5848 O   0  0  0  0  0  0  0  0  0  0  0  0
   17.2615   25.1699   12.6767 N   0  0  0  0  0  0  0  0  0  0  0  0
   17.2547   24.1873   12.6163 H   0  0  0  0  0  0  0  0  0  0  0  0
   16.7622   25.7070   12.0198 H   0  0  0  0  0  0  0  0  0  0  0  0
   16.9601   22.7998   18.4366 C   0  0  0  0  0  0  0  0  0  0  0  0
   16.2005   23.1092   19.5981 O   0  0  0  0  0  0  0  0  0  0  0  0
   16.5030   22.5598   20.3381 H   0  0  0  0  0  0  0  0  0  0  0  0
   16.7334   21.3697   18.0170 C   0  0  0  0  0  0  0  0  0  0  0  0
   15.6430   21.2597   17.0845 N   0  0  0  0  0  0  0  0  0  0  0  0
   14.2941   21.4554   17.7168 C   0  0  0  0  0  0  0  0  0  0  0  0
   13.2292   21.3215   16.6827 C   0  0  0  0  0  0  0  0  0  0  0  0
   13.3848   22.2496   15.5145 C   0  0  0  0  0  0  0  0  0  0  0  0
   12.3311   22.0604   14.4310 C   0  0  0  0  0  0  0  0  0  0  0  0
   12.5123   20.8064   13.6058 C   0  0  0  0  0  0  0  0  0  0  0  0
   13.8894   20.7481   13.0063 C   0  0  0  0  0  0  0  0  0  0  0  0
   14.8805   20.7827   14.1610 C   0  0  0  0  0  0  0  0  0  0  0  0
   14.8018   22.0334   14.9639 C   0  0  0  0  0  0  0  0  0  0  0  0
   15.8332   22.1965   16.0050 C   0  0  0  0  0  0  0  0  0  0  0  0
   14.0441   20.4118   18.8181 C   0  0  0  0  0  0  0  0  0  0  0  0
   14.4103   20.5917   19.9683 O   0  0  0  0  0  0  0  0  0  0  0  0
   13.3548   19.3154   18.4157 N   0  0  0  0  0  0  0  0  0  0  0  0
   13.0076   19.3054   17.4945 H   0  0  0  0  0  0  0  0  0  0  0  0
   13.0934   18.1555   19.2483 C   0  0  0  0  0  0  0  0  0  0  0  0
   12.4745   18.6203   20.5360 C   0  0  0  0  0  0  0  0  0  0  0  0
   14.4029   17.4521   19.5304 C   0  0  0  0  0  0  0  0  0  0  0  0
   12.2147   17.1964   18.4862 C   0  0  0  0  0  0  0  0  0  0  0  0
   18.6894   23.9897   19.9000 C   0  0  0  0  0  0  0  0  0  0  0  0
   20.1357   24.0815   20.3090 C   0  0  0  0  0  0  0  0  0  0  0  0
   20.9695   22.9880   20.1976 C   0  0  0  0  0  0  0  0  0  0  0  0
   20.6507   25.2527   20.7903 C   0  0  0  0  0  0  0  0  0  0  0  0
   22.2673   23.0567   20.6070 C   0  0  0  0  0  0  0  0  0  0  0  0
   21.9665   25.3330   21.1661 C   0  0  0  0  0  0  0  0  0  0  0  0
   22.7641   24.2331   21.0979 C   0  0  0  0  0  0  0  0  0  0  0  0
  8  7  2  0  0  0
  7 12  1  0  0  0
 11 12  2  0  0  0
 11 20  1  0  0  0
 12 13  1  0  0  0
 13 14  2  0  0  0
 14 19  1  0  0  0
 19 15  2  0  0  0
 19 20  1  0  0  0
 15 16  1  0  0  0
 16 17  2  0  0  0
 17 18  1  0  0  0
 18 20  2  0  0  0
  9  6  1  0  0  0
  6  2  1  0  0  0
  6 21  1  0  0  0
  2  3  2  0  0  0
 21 22  1  0  0  0
 22 23  2  0  0  0
 22 24  1  0  0  0
 27 28  1  0  0  0
 27  1  1  0  0  0
  1  4  1  0  0  0
  1 49  1  0  0  0
 49 50  1  0  0  0
 50 51  2  0  0  0
 50 52  1  0  0  0
 51 53  1  0  0  0
 52 54  2  0  0  0
 53 55  2  0  0  0
 54 55  1  0  0  0
 31 30  1  0  0  0
 31 32  1  0  0  0
 31 40  1  0  0  0
 32 41  1  0  0  0
 32 33  1  0  0  0
 41 42  2  0  0  0
 33 34  1  0  0  0
 34 35  1  0  0  0
 34 39  1  0  0  0
 35 36  1  0  0  0
 36 37  1  0  0  0
 37 38  1  0  0  0
 38 39  1  0  0  0
 39 40  1  0  0  0
 43 45  1  0  0  0
 45 46  1  0  0  0
 45 47  1  0  0  0
 45 48  1  0  0  0
  7  9  1  0  0  0
  2  4  1  0  0  0
 27 30  1  0  0  0
 41 43  1  0  0  0
  9 10  1  0  0  0
 24 25  1  0  0  0
 24 26  1  0  0  0
 28 29  1  0  0  0
  4  5  1  0  0  0
 43 44  1  0  0  0
M  END
> <minimizedAffinity>
-10.59115

$$$$
3CYX_ROC_A_201


 55 59  0  0  0  0  0  0  0  0999 V2000
   15.1839   22.0114   18.3387 C   0  0  0  0  0  0  0  0  0  0  0  0
   14.2008   21.4595   16.1639 C   0  0  0  0  0  0  0  0  0  0  0  0
   13.0058   21.4697   16.5387 O   0  0  0  0  0  0  0  0  0  0  0  0
   15.2805   21.6834   16.9080 N   0  0  0  0  0  0  0  0  0  0  0  0
   16.1697   21.6280   16.4891 H   0  0  0  0  0  0  0  0  0  0  0  0
   14.4618   21.1320   14.6963 C   0  0  0  0  0  0  0  0  0  0  0  0
   12.5856   19.7418   13.9529 C   0  0  0  0  0  0  0  0  0  0  0  0
   11.7900   20.6954   13.8398 O   0  0  0  0  0  0  0  0  0  0  0  0
   13.8438   19.8733   14.4179 N   0  0  0  0  0  0  0  0  0  0  0  0
   14.3679   19.0548   14.5750 H   0  0  0  0  0  0  0  0  0  0  0  0
   11.1881   17.7336   14.1593 N   0  0  0  0  0  0  0  0  0  0  0  0
   12.2666   18.3413   13.6100 C   0  0  0  0  0  0  0  0  0  0  0  0
   13.0851   17.6820   12.6680 C   0  0  0  0  0  0  0  0  0  0  0  0
   12.7900   16.3309   12.4451 C   0  0  0  0  0  0  0  0  0  0  0  0
   11.3533   14.3974   12.7489 C   0  0  0  0  0  0  0  0  0  0  0  0
   10.2230   13.7955   13.2598 C   0  0  0  0  0  0  0  0  0  0  0  0
    9.4737   14.5270   14.1449 C   0  0  0  0  0  0  0  0  0  0  0  0
    9.7392   15.8245   14.4200 C   0  0  0  0  0  0  0  0  0  0  0  0
   11.6687   15.7193   12.9871 C   0  0  0  0  0  0  0  0  0  0  0  0
   10.8723   16.4431   13.8770 C   0  0  0  0  0  0  0  0  0  0  0  0
   13.9755   22.2522   13.8110 C   0  0  0  0  0  0  0  0  0  0  0  0
   14.7432   22.1834   12.5607 C   0  0  0  0  0  0  0  0  0  0  0  0
   14.5381   21.4989   11.5487 O   0  0  0  0  0  0  0  0  0  0  0  0
   15.7927   22.9041   12.5069 N   0  0  0  0  0  0  0  0  0  0  0  0
   16.0335   23.4806   13.2677 H   0  0  0  0  0  0  0  0  0  0  0  0
   16.3628   22.8844   11.7044 H   0  0  0  0  0  0  0  0  0  0  0  0
   15.5977   23.4759   18.5257 C   0  0  0  0  0  0  0  0  0  0  0  0
   14.4786   24.3351   18.3490 O   0  0  0  0  0  0  0  0  0  0  0  0
   14.1514   24.2568   17.4392 H   0  0  0  0  0  0  0  0  0  0  0  0
   16.7377   23.8952   17.6328 C   0  0  0  0  0  0  0  0  0  0  0  0
   18.0040   23.7879   18.3078 N   0  0  0  0  0  0  0  0  0  0  0  0
   18.9865   24.8519   17.9075 C   0  0  0  0  0  0  0  0  0  0  0  0
   20.2647   24.6619   18.6499 C   0  0  0  0  0  0  0  0  0  0  0  0
   20.1132   24.6424   20.1422 C   0  0  0  0  0  0  0  0  0  0  0  0
   21.4134   24.3808   20.8915 C   0  0  0  0  0  0  0  0  0  0  0  0
   21.8978   22.9510   20.8069 C   0  0  0  0  0  0  0  0  0  0  0  0
   20.8342   21.9921   21.2631 C   0  0  0  0  0  0  0  0  0  0  0  0
   19.6248   22.2066   20.3640 C   0  0  0  0  0  0  0  0  0  0  0  0
   19.0549   23.5778   20.4652 C   0  0  0  0  0  0  0  0  0  0  0  0
   17.7950   23.8072   19.7343 C   0  0  0  0  0  0  0  0  0  0  0  0
   19.2803   24.7927   16.3993 C   0  0  0  0  0  0  0  0  0  0  0  0
   19.5846   23.7488   15.8449 O   0  0  0  0  0  0  0  0  0  0  0  0
   19.1308   25.9709   15.7447 N   0  0  0  0  0  0  0  0  0  0  0  0
   18.7792   26.7364   16.2544 H   0  0  0  0  0  0  0  0  0  0  0  0
   19.4528   26.1822   14.3453 C   0  0  0  0  0  0  0  0  0  0  0  0
   20.6569   25.3525   14.0005 C   0  0  0  0  0  0  0  0  0  0  0  0
   19.7588   27.6484   14.1309 C   0  0  0  0  0  0  0  0  0  0  0  0
   18.2449   25.8409   13.5101 C   0  0  0  0  0  0  0  0  0  0  0  0
   16.0728   21.0260   19.0913 C   0  0  0  0  0  0  0  0  0  0  0  0
   15.3259   19.9164   19.7829 C   0  0  0  0  0  0  0  0  0  0  0  0
   15.1624   18.6903   19.1718 C   0  0  0  0  0  0  0  0  0  0  0  0
   14.8036   20.1012   21.0325 C   0  0  0  0  0  0  0  0  0  0  0  0
   14.4504   17.6991   19.7777 C   0  0  0  0  0  0  0  0  0  0  0  0
   14.1203   19.0912   21.6586 C   0  0  0  0  0  0  0  0  0  0  0  0
   13.9236   17.9044   21.0236 C   0  0  0  0  0  0  0  0  0  0  0  0
  8  7  2  0  0  0
  7 12  1  0  0  0
 11 12  2  0  0  0
 11 20  1  0  0  0
 12 13  1  0  0  0
 13 14  2  0  0  0
 14 19  1  0  0  0
 19 15  2  0  0  0
 19 20  1  0  0  0
 15 16  1  0  0  0
 16 17  2  0  0  0
 17 18  1  0  0  0
 18 20  2  0  0  0
  9  6  1  0  0  0
  6  2  1  0  0  0
  6 21  1  0  0  0
  2  3  2  0  0  0
 21 22  1  0  0  0
 22 23  2  0  0  0
 22 24  1  0  0  0
 27 28  1  0  0  0
 27  1  1  0  0  0
  1  4  1  0  0  0
  1 49  1  0  0  0
 49 50  1  0  0  0
 50 51  2  0  0  0
 50 52  1  0  0  0
 51 53  1  0  0  0
 52 54  2  0  0  0
 53 55  2  0  0  0
 54 55  1  0  0  0
 31 30  1  0  0  0
 31 32  1  0  0  0
 31 40  1  0  0  0
 32 41  1  0  0  0
 32 33  1  0  0  0
 41 42  2  0  0  0
 33 34  1  0  0  0
 34 35  1  0  0  0
 34 39  1  0  0  0
 35 36  1  0  0  0
 36 37  1  0  0  0
 37 38  1  0  0  0
 38 39  1  0  0  0
 39 40  1  0  0  0
 43 45  1  0  0  0
 45 46  1  0  0  0
 45 47  1  0  0  0
 45 48  1  0  0  0
  7  9  1  0  0  0
  2  4  1  0  0  0
 27 30  1  0  0  0
 41 43  1  0  0  0
  9 10  1  0  0  0
 24 25  1  0  0  0
 24 26  1  0  0  0
 28 29  1  0  0  0
  4  5  1  0  0  0
 43 44  1  0  0  0
M  END
> <minimizedAffinity>
-10.45432

$$$$
3CYX_ROC_A_201


 55 59  0  0  0  0  0  0  0  0999 V2000
   17.7739   22.6456   17.9043 C   0  0  0  0  0  0  0  0  0  0  0  0
   18.4417   24.8985   17.2117 C   0  0  0  0  0  0  0  0  0  0  0  0
   17.3520   25.4584   17.4713 O   0  0  0  0  0  0  0  0  0  0  0  0
   18.7418   23.6112   17.3613 N   0  0  0  0  0  0  0  0  0  0  0  0
   19.6374   23.2956   17.1012 H   0  0  0  0  0  0  0  0  0  0  0  0
   19.5501   25.7763   16.6370 C   0  0  0  0  0  0  0  0  0  0  0  0
   21.1775   26.5094   18.3163 C   0  0  0  0  0  0  0  0  0  0  0  0
   20.7160   27.6641   18.4089 O   0  0  0  0  0  0  0  0  0  0  0  0
   20.7130   25.5896   17.4473 N   0  0  0  0  0  0  0  0  0  0  0  0
   21.2032   24.7397   17.3658 H   0  0  0  0  0  0  0  0  0  0  0  0
   22.8712   24.8027   18.8134 N   0  0  0  0  0  0  0  0  0  0  0  0
   22.2966   25.9884   19.1267 C   0  0  0  0  0  0  0  0  0  0  0  0
   22.7711   26.7789   20.1954 C   0  0  0  0  0  0  0  0  0  0  0  0
   23.7743   26.1993   20.9828 C   0  0  0  0  0  0  0  0  0  0  0  0
   25.3897   24.4344   21.3957 C   0  0  0  0  0  0  0  0  0  0  0  0
   26.0155   23.2575   21.0437 C   0  0  0  0  0  0  0  0  0  0  0  0
   25.5011   22.5748   19.9718 C   0  0  0  0  0  0  0  0  0  0  0  0
   24.5087   23.0766   19.2016 C   0  0  0  0  0  0  0  0  0  0  0  0
   24.3800   24.9982   20.6431 C   0  0  0  0  0  0  0  0  0  0  0  0
   23.8933   24.2870   19.5442 C   0  0  0  0  0  0  0  0  0  0  0  0
   19.7726   25.4587   15.1794 C   0  0  0  0  0  0  0  0  0  0  0  0
   19.0849   26.4952   14.3982 C   0  0  0  0  0  0  0  0  0  0  0  0
   18.0553   26.4111   13.7146 O   0  0  0  0  0  0  0  0  0  0  0  0
   19.6331   27.6455   14.3878 N   0  0  0  0  0  0  0  0  0  0  0  0
   20.4566   27.8030   14.9040 H   0  0  0  0  0  0  0  0  0  0  0  0
   19.2332   28.3767   13.8638 H   0  0  0  0  0  0  0  0  0  0  0  0
   16.4852   22.7402   17.0789 C   0  0  0  0  0  0  0  0  0  0  0  0
   15.4900   23.4630   17.7924 O   0  0  0  0  0  0  0  0  0  0  0  0
   15.2611   22.9832   18.6037 H   0  0  0  0  0  0  0  0  0  0  0  0
   15.9563   21.3993   16.6378 C   0  0  0  0  0  0  0  0  0  0  0  0
   15.2311   20.7443   17.6942 N   0  0  0  0  0  0  0  0  0  0  0  0
   14.1056   19.8804   17.1997 C   0  0  0  0  0  0  0  0  0  0  0  0
   13.4112   19.2474   18.3566 C   0  0  0  0  0  0  0  0  0  0  0  0
   14.3108   18.4497   19.2537 C   0  0  0  0  0  0  0  0  0  0  0  0
   13.6067   17.8619   20.4698 C   0  0  0  0  0  0  0  0  0  0  0  0
   13.2577   18.8791   21.5327 C   0  0  0  0  0  0  0  0  0  0  0  0
   14.4733   19.6525   21.9606 C   0  0  0  0  0  0  0  0  0  0  0  0
   15.0264   20.3372   20.7187 C   0  0  0  0  0  0  0  0  0  0  0  0
   15.4613   19.3795   19.6658 C   0  0  0  0  0  0  0  0  0  0  0  0
   16.1430   19.9704   18.4994 C   0  0  0  0  0  0  0  0  0  0  0  0
   13.0821   20.7084   16.4051 C   0  0  0  0  0  0  0  0  0  0  0  0
   13.0023   21.9200   16.5278 O   0  0  0  0  0  0  0  0  0  0  0  0
   12.3216   19.9928   15.5399 N   0  0  0  0  0  0  0  0  0  0  0  0
   12.5290   19.0366   15.4308 H   0  0  0  0  0  0  0  0  0  0  0  0
   11.2231   20.5382   14.7636 C   0  0  0  0  0  0  0  0  0  0  0  0
   10.7841   19.5058   13.7643 C   0  0  0  0  0  0  0  0  0  0  0  0
   11.7030   21.7799   14.0445 C   0  0  0  0  0  0  0  0  0  0  0  0
   10.1200   20.9526   15.7040 C   0  0  0  0  0  0  0  0  0  0  0  0
   17.5786   22.9798   19.3800 C   0  0  0  0  0  0  0  0  0  0  0  0
   18.8526   23.0289   20.1812 C   0  0  0  0  0  0  0  0  0  0  0  0
   19.6681   21.9200   20.2754 C   0  0  0  0  0  0  0  0  0  0  0  0
   19.2284   24.1758   20.8230 C   0  0  0  0  0  0  0  0  0  0  0  0
   20.7992   21.9493   21.0346 C   0  0  0  0  0  0  0  0  0  0  0  0
   20.3863   24.2172   21.5554 C   0  0  0  0  0  0  0  0  0  0  0  0
   21.1549   23.1017   21.6806 C   0  0  0  0  0  0  0  0  0  0  0  0
  8  7  2  0  0  0
  7 12  1  0  0  0
 11 12  2  0  0  0
 11 20  1  0  0  0
 12 13  1  0  0  0
 13 14  2  0  0  0
 14 19  1  0  0  0
 19 15  2  0  0  0
 19 20  1  0  0  0
 15 16  1  0  0  0
 16 17  2  0  0  0
 17 18  1  0  0  0
 18 20  2  0  0  0
  9  6  1  0  0  0
  6  2  1  0  0  0
  6 21  1  0  0  0
  2  3  2  0  0  0
 21 22  1  0  0  0
 22 23  2  0  0  0
 22 24  1  0  0  0
 27 28  1  0  0  0
 27  1  1  0  0  0
  1  4  1  0  0  0
  1 49  1  0  0  0
 49 50  1  0  0  0
 50 51  2  0  0  0
 50 52  1  0  0  0
 51 53  1  0  0  0
 52 54  2  0  0  0
 53 55  2  0  0  0
 54 55  1  0  0  0
 31 30  1  0  0  0
 31 32  1  0  0  0
 31 40  1  0  0  0
 32 41  1  0  0  0
 32 33  1  0  0  0
 41 42  2  0  0  0
 33 34  1  0  0  0
 34 35  1  0  0  0
 34 39  1  0  0  0
 35 36  1  0  0  0
 36 37  1  0  0  0
 37 38  1  0  0  0
 38 39  1  0  0  0
 39 40  1  0  0  0
 43 45  1  0  0  0
 45 46  1  0  0  0
 45 47  1  0  0  0
 45 48  1  0  0  0
  7  9  1  0  0  0
  2  4  1  0  0  0
 27 30  1  0  0  0
 41 43  1  0  0  0
  9 10  1  0  0  0
 24 25  1  0  0  0
 24 26  1  0  0  0
 28 29  1  0  0  0
  4  5  1  0  0  0
 43 44  1  0  0  0
M  END
> <minimizedAffinity>
-10.25406

$$$$
3CYX_ROC_A_201


 55 59  0  0  0  0  0  0  0  0999 V2000
   16.9538   24.0095   17.3765 C   0  0  0  0  0  0  0  0  0  0  0  0
   19.1090   25.0415   17.9159 C   0  0  0  0  0  0  0  0  0  0  0  0
   19.2232   24.5475   19.0611 O   0  0  0  0  0  0  0  0  0  0  0  0
   18.1041   24.8705   17.0612 N   0  0  0  0  0  0  0  0  0  0  0  0
   18.1310   25.3334   16.1927 H   0  0  0  0  0  0  0  0  0  0  0  0
   20.2310   25.9632   17.4459 C   0  0  0  0  0  0  0  0  0  0  0  0
   21.9919   26.1969   19.1342 C   0  0  0  0  0  0  0  0  0  0  0  0
   21.5869   27.2996   19.5526 O   0  0  0  0  0  0  0  0  0  0  0  0
   21.4343   25.5447   18.0948 N   0  0  0  0  0  0  0  0  0  0  0  0
   21.8816   24.7329   17.7631 H   0  0  0  0  0  0  0  0  0  0  0  0
   23.5905   24.3337   19.0945 N   0  0  0  0  0  0  0  0  0  0  0  0
   23.1372   25.4567   19.7008 C   0  0  0  0  0  0  0  0  0  0  0  0
   23.7641   25.9776   20.8531 C   0  0  0  0  0  0  0  0  0  0  0  0
   24.7879   25.1914   21.3973 C   0  0  0  0  0  0  0  0  0  0  0  0
   26.2966   23.2933   21.2718 C   0  0  0  0  0  0  0  0  0  0  0  0
   26.7980   22.1842   20.6243 C   0  0  0  0  0  0  0  0  0  0  0  0
   26.1391   21.7713   19.4950 C   0  0  0  0  0  0  0  0  0  0  0  0
   25.1219   22.4775   18.9505 C   0  0  0  0  0  0  0  0  0  0  0  0
   25.2685   24.0571   20.7589 C   0  0  0  0  0  0  0  0  0  0  0  0
   24.6326   23.6207   19.5947 C   0  0  0  0  0  0  0  0  0  0  0  0
   20.3235   25.9569   15.9404 C   0  0  0  0  0  0  0  0  0  0  0  0
   21.1782   27.0866   15.5521 C   0  0  0  0  0  0  0  0  0  0  0  0
   20.9744   28.3030   15.6683 O   0  0  0  0  0  0  0  0  0  0  0  0
   22.2788   26.7875   14.9838 N   0  0  0  0  0  0  0  0  0  0  0  0
   22.5227   25.8431   14.8495 H   0  0  0  0  0  0  0  0  0  0  0  0
   22.8851   27.5006   14.6789 H   0  0  0  0  0  0  0  0  0  0  0  0
   17.4145   22.5484   17.3126 C   0  0  0  0  0  0  0  0  0  0  0  0
   18.6498   22.4468   16.6158 O   0  0  0  0  0  0  0  0  0  0  0  0
   18.5281   22.7360   15.6980 H   0  0  0  0  0  0  0  0  0  0  0  0
   16.3872   21.6218   16.7138 C   0  0  0  0  0  0  0  0  0  0  0  0
   15.6433   20.9294   17.7326 N   0  0  0  0  0  0  0  0  0  0  0  0
   14.7151   19.8816   17.1866 C   0  0  0  0  0  0  0  0  0  0  0  0
   13.9867   19.2212   18.3067 C   0  0  0  0  0  0  0  0  0  0  0  0
   14.8791   18.6183   19.3510 C   0  0  0  0  0  0  0  0  0  0  0  0
   14.1280   18.0045   20.5254 C   0  0  0  0  0  0  0  0  0  0  0  0
   13.5190   19.0189   21.4669 C   0  0  0  0  0  0  0  0  0  0  0  0
   14.5563   19.9867   21.9632 C   0  0  0  0  0  0  0  0  0  0  0  0
   15.1482   20.6724   20.7400 C   0  0  0  0  0  0  0  0  0  0  0  0
   15.8323   19.7300   19.8132 C   0  0  0  0  0  0  0  0  0  0  0  0
   16.5551   20.3464   18.6855 C   0  0  0  0  0  0  0  0  0  0  0  0
   13.6848   20.5020   16.2283 C   0  0  0  0  0  0  0  0  0  0  0  0
   12.8333   21.2838   16.6197 O   0  0  0  0  0  0  0  0  0  0  0  0
   13.8315   20.1453   14.9282 N   0  0  0  0  0  0  0  0  0  0  0  0
   14.6117   19.5942   14.6898 H   0  0  0  0  0  0  0  0  0  0  0  0
   12.9185   20.5193   13.8636 C   0  0  0  0  0  0  0  0  0  0  0  0
   12.6840   22.0016   13.9327 C   0  0  0  0  0  0  0  0  0  0  0  0
   11.6122   19.7813   14.0593 C   0  0  0  0  0  0  0  0  0  0  0  0
   13.4998   20.0768   12.5449 C   0  0  0  0  0  0  0  0  0  0  0  0
   15.8492   24.3445   16.3789 C   0  0  0  0  0  0  0  0  0  0  0  0
   16.3304   24.5723   14.9703 C   0  0  0  0  0  0  0  0  0  0  0  0
   16.0003   23.6900   13.9623 C   0  0  0  0  0  0  0  0  0  0  0  0
   17.0962   25.6622   14.6632 C   0  0  0  0  0  0  0  0  0  0  0  0
   16.4700   23.8712   12.6961 C   0  0  0  0  0  0  0  0  0  0  0  0
   17.5368   25.8655   13.3813 C   0  0  0  0  0  0  0  0  0  0  0  0
   17.2455   24.9608   12.4080 C   0  0  0  0  0  0  0  0  0  0  0  0
  8  7  2  0  0  0
  7 12  1  0  0  0
 11 12  2  0  0  0
 11 20  1  0  0  0
 12 13  1  0  0  0
 13 14  2  0  0  0
 14 19  1  0  0  0
 19 15  2  0  0  0
 19 20  1  0  0  0
 15 16  1  0  0  0
 16 17  2  0  0  0
 17 18  1  0  0  0
 18 20  2  0  0  0
  9  6  1  0  0  0
  6  2  1  0  0  0
  6 21  1  0  0  0
  2  3  2  0  0  0
 21 22  1  0  0  0
 22 23  2  0  0  0
 22 24  1  0  0  0
 27 28  1  0  0  0
 27  1  1  0  0  0
  1  4  1  0  0  0
  1 49  1  0  0  0
 49 50  1  0  0  0
 50 51  2  0  0  0
 50 52  1  0  0  0
 51 53  1  0  0  0
 52 54  2  0  0  0
 53 55  2  0  0  0
 54 55  1  0  0  0
 31 30  1  0  0  0
 31 32  1  0  0  0
 31 40  1  0  0  0
 32 41  1  0  0  0
 32 33  1  0  0  0
 41 42  2  0  0  0
 33 34  1  0  0  0
 34 35  1  0  0  0
 34 39  1  0  0  0
 35 36  1  0  0  0
 36 37  1  0  0  0
 37 38  1  0  0  0
 38 39  1  0  0  0
 39 40  1  0  0  0
 43 45  1  0  0  0
 45 46  1  0  0  0
 45 47  1  0  0  0
 45 48  1  0  0  0
  7  9  1  0  0  0
  2  4  1  0  0  0
 27 30  1  0  0  0
 41 43  1  0  0  0
  9 10  1  0  0  0
 24 25  1  0  0  0
 24 26  1  0  0  0
 28 29  1  0  0  0
  4  5  1  0  0  0
 43 44  1  0  0  0
M  END
> <minimizedAffinity>
-9.94152

$$$$
