2HOC_1CN_A_265


 27 28  0  0  0  0  0  0  0  0999 V2000
   -3.8213    1.4586   11.8029 S   0  0  0  0  0  0  0  0  0  0  0  0
   -3.0663    0.2774   11.8014 O   0  0  0  0  0  0  0  0  0  0  0  0
   -4.9996    1.2953   10.9553 O   0  0  0  0  0  0  0  0  0  0  0  0
   -4.4720    0.8330   14.4513 C   0  0  0  0  0  0  0  0  0  0  0  0
   -5.0361    3.1378   13.7325 C   0  0  0  0  0  0  0  0  0  0  0  0
   -5.1581    1.0322   15.6647 C   0  0  0  0  0  0  0  0  0  0  0  0
   -5.7384    2.3117   15.9612 C   0  0  0  0  0  0  0  0  0  0  0  0
   -5.7303    3.3500   14.9470 C   0  0  0  0  0  0  0  0  0  0  0  0
   -4.4355    1.8592   13.4468 C   0  0  0  0  0  0  0  0  0  0  0  0
   -5.1470    0.0752   16.5502 F   0  0  0  0  0  0  0  0  0  0  0  0
   -6.3476    4.7208   15.2318 Cl  0  0  0  0  0  0  0  0  0  0  0  0
   -6.3470    2.4953   17.2160 N   0  0  0  0  0  0  0  0  0  0  0  0
   -6.3336    1.7690   17.8805 H   0  0  0  0  0  0  0  0  0  0  0  0
   -6.7863    3.3500   17.4298 H   0  0  0  0  0  0  0  0  0  0  0  0
   -3.0582    2.5200   11.3409 N   0  0  0  0  0  0  0  0  0  0  0  0
   -3.3646    3.4133   11.6190 H   0  0  0  0  0  0  0  0  0  0  0  0
   -0.6364    3.3429    8.9217 N   0  0  0  0  0  0  0  0  0  0  0  0
   -1.8845    2.8244    9.2608 N   0  0  0  0  0  0  0  0  0  0  0  0
   -0.6688    3.0790   11.4043 S   0  0  0  0  0  0  0  0  0  0  0  0
    0.2016    3.2528    9.9442 C   0  0  0  0  0  0  0  0  0  0  0  0
   -1.9547    2.5018   10.5639 C   0  0  0  0  0  0  0  0  0  0  0  0
    1.8432    3.9719   10.0074 S   0  0  0  0  0  0  0  0  0  0  0  0
    1.7704    5.2827    9.5215 O   0  0  0  0  0  0  0  0  0  0  0  0
    2.7491    3.2027    9.2257 O   0  0  0  0  0  0  0  0  0  0  0  0
    2.3307    3.9844   11.5004 N   0  0  0  0  0  0  0  0  0  0  0  0
    3.2646    4.3917   11.5497 H   0  0  0  0  0  0  0  0  0  0  0  0
    2.3570    3.0293   11.8575 H   0  0  0  0  0  0  0  0  0  0  0  0
 22 23  2  0  0  0
 22 24  2  0  0  0
 22 25  1  0  0  0
 22 20  1  0  0  0
 17 18  1  0  0  0
 17 20  2  0  0  0
 18 21  2  0  0  0
 19 20  1  0  0  0
 19 21  1  0  0  0
 21 15  1  0  0  0
 15  1  1  0  0  0
  1  2  2  0  0  0
  1  3  2  0  0  0
  1  9  1  0  0  0
  4  6  1  0  0  0
  4  9  2  0  0  0
  5  8  2  0  0  0
  5  9  1  0  0  0
  6  7  2  0  0  0
  6 10  1  0  0  0
  7  8  1  0  0  0
  7 12  1  0  0  0
  8 11  1  0  0  0
 25 26  1  0  0  0
 25 27  1  0  0  0
 15 16  1  0  0  0
 12 13  1  0  0  0
 12 14  1  0  0  0
M  END
> <minimizedAffinity>
-7.87612

$$$$
2HOC_1CN_A_265


 27 28  0  0  0  0  0  0  0  0999 V2000
   -3.4140    1.4240   11.5843 S   0  0  0  0  0  0  0  0  0  0  0  0
   -2.5563    0.3560   11.8827 O   0  0  0  0  0  0  0  0  0  0  0  0
   -4.3241    1.0432   10.5071 O   0  0  0  0  0  0  0  0  0  0  0  0
   -5.2094    3.0822   12.9464 C   0  0  0  0  0  0  0  0  0  0  0  0
   -4.4180    1.1030   14.2126 C   0  0  0  0  0  0  0  0  0  0  0  0
   -5.8401    3.5823   14.1017 C   0  0  0  0  0  0  0  0  0  0  0  0
   -5.8269    2.8171   15.3168 C   0  0  0  0  0  0  0  0  0  0  0  0
   -5.0458    1.5955   15.3810 C   0  0  0  0  0  0  0  0  0  0  0  0
   -4.4515    1.8627   12.9883 C   0  0  0  0  0  0  0  0  0  0  0  0
   -6.5298    4.6848   14.0065 F   0  0  0  0  0  0  0  0  0  0  0  0
   -5.0069    0.7634   16.6644 Cl  0  0  0  0  0  0  0  0  0  0  0  0
   -6.5345    3.3129   16.4268 N   0  0  0  0  0  0  0  0  0  0  0  0
   -7.0545    4.1451   16.3474 H   0  0  0  0  0  0  0  0  0  0  0  0
   -6.5098    2.8276   17.2830 H   0  0  0  0  0  0  0  0  0  0  0  0
   -2.6826    2.5389   11.2044 N   0  0  0  0  0  0  0  0  0  0  0  0
   -3.0333    3.4025   11.5216 H   0  0  0  0  0  0  0  0  0  0  0  0
   -0.2423    3.5757    8.8882 N   0  0  0  0  0  0  0  0  0  0  0  0
   -1.4686    2.9781    9.1721 N   0  0  0  0  0  0  0  0  0  0  0  0
   -0.3312    3.2264   11.3588 S   0  0  0  0  0  0  0  0  0  0  0  0
    0.5696    3.4974    9.9325 C   0  0  0  0  0  0  0  0  0  0  0  0
   -1.5581    2.6080   10.4614 C   0  0  0  0  0  0  0  0  0  0  0  0
    2.1658    4.3033   10.0691 S   0  0  0  0  0  0  0  0  0  0  0  0
    2.0378    5.6184    9.6065 O   0  0  0  0  0  0  0  0  0  0  0  0
    3.1397    3.6015    9.3057 O   0  0  0  0  0  0  0  0  0  0  0  0
    2.5993    4.3103   11.5786 N   0  0  0  0  0  0  0  0  0  0  0  0
    3.5070    4.7667   11.6696 H   0  0  0  0  0  0  0  0  0  0  0  0
    2.6658    3.3506   11.9177 H   0  0  0  0  0  0  0  0  0  0  0  0
 22 23  2  0  0  0
 22 24  2  0  0  0
 22 25  1  0  0  0
 22 20  1  0  0  0
 17 18  1  0  0  0
 17 20  2  0  0  0
 18 21  2  0  0  0
 19 20  1  0  0  0
 19 21  1  0  0  0
 21 15  1  0  0  0
 15  1  1  0  0  0
  1  2  2  0  0  0
  1  3  2  0  0  0
  1  9  1  0  0  0
  4  6  1  0  0  0
  4  9  2  0  0  0
  5  8  2  0  0  0
  5  9  1  0  0  0
  6  7  2  0  0  0
  6 10  1  0  0  0
  7  8  1  0  0  0
  7 12  1  0  0  0
  8 11  1  0  0  0
 25 26  1  0  0  0
 25 27  1  0  0  0
 15 16  1  0  0  0
 12 13  1  0  0  0
 12 14  1  0  0  0
M  END
> <minimizedAffinity>
-7.48394

$$$$
2HOC_1CN_A_265


 27 28  0  0  0  0  0  0  0  0999 V2000
   -3.8000    3.8108   11.6311 S   0  0  0  0  0  0  0  0  0  0  0  0
   -4.7281    4.2985   10.7005 O   0  0  0  0  0  0  0  0  0  0  0  0
   -2.9129    4.8894   12.0591 O   0  0  0  0  0  0  0  0  0  0  0  0
   -5.4388    4.0856   13.8823 C   0  0  0  0  0  0  0  0  0  0  0  0
   -4.3042    1.8931   13.6529 C   0  0  0  0  0  0  0  0  0  0  0  0
   -5.8904    3.7293   15.1675 C   0  0  0  0  0  0  0  0  0  0  0  0
   -5.6123    2.4213   15.6906 C   0  0  0  0  0  0  0  0  0  0  0  0
   -4.7501    1.5238   14.9438 C   0  0  0  0  0  0  0  0  0  0  0  0
   -4.6034    3.1988   13.1211 C   0  0  0  0  0  0  0  0  0  0  0  0
   -6.6600    4.5630   15.8100 F   0  0  0  0  0  0  0  0  0  0  0  0
   -4.4303    0.1267   15.4798 Cl  0  0  0  0  0  0  0  0  0  0  0  0
   -6.1471    2.0752   16.9448 N   0  0  0  0  0  0  0  0  0  0  0  0
   -6.7287    2.7089   17.4237 H   0  0  0  0  0  0  0  0  0  0  0  0
   -5.9397    1.1994   17.3436 H   0  0  0  0  0  0  0  0  0  0  0  0
   -3.0516    2.7849   11.0745 N   0  0  0  0  0  0  0  0  0  0  0  0
   -3.3450    1.8741   11.3060 H   0  0  0  0  0  0  0  0  0  0  0  0
   -0.6108    3.9634    8.8276 N   0  0  0  0  0  0  0  0  0  0  0  0
   -1.9026    3.5098    9.0867 N   0  0  0  0  0  0  0  0  0  0  0  0
   -0.6121    3.0468   11.1500 S   0  0  0  0  0  0  0  0  0  0  0  0
    0.2359    3.5124    9.7416 C   0  0  0  0  0  0  0  0  0  0  0  0
   -1.9779    2.8581   10.2600 C   0  0  0  0  0  0  0  0  0  0  0  0
    1.9521    4.0077    9.9010 S   0  0  0  0  0  0  0  0  0  0  0  0
    2.0882    5.3020    9.3853 O   0  0  0  0  0  0  0  0  0  0  0  0
    2.7942    3.1024    9.1975 O   0  0  0  0  0  0  0  0  0  0  0  0
    2.3402    3.9980   11.4228 N   0  0  0  0  0  0  0  0  0  0  0  0
    3.3153    4.2783   11.5269 H   0  0  0  0  0  0  0  0  0  0  0  0
    2.2144    3.0586   11.7998 H   0  0  0  0  0  0  0  0  0  0  0  0
 22 23  2  0  0  0
 22 24  2  0  0  0
 22 25  1  0  0  0
 22 20  1  0  0  0
 17 18  1  0  0  0
 17 20  2  0  0  0
 18 21  2  0  0  0
 19 20  1  0  0  0
 19 21  1  0  0  0
 21 15  1  0  0  0
 15  1  1  0  0  0
  1  2  2  0  0  0
  1  3  2  0  0  0
  1  9  1  0  0  0
  4  6  1  0  0  0
  4  9  2  0  0  0
  5  8  2  0  0  0
  5  9  1  0  0  0
  6  7  2  0  0  0
  6 10  1  0  0  0
  7  8  1  0  0  0
  7 12  1  0  0  0
  8 11  1  0  0  0
 25 26  1  0  0  0
 25 27  1  0  0  0
 15 16  1  0  0  0
 12 13  1  0  0  0
 12 14  1  0  0  0
M  END
> <minimizedAffinity>
-7.12551

$$$$
2HOC_1CN_A_265


 27 28  0  0  0  0  0  0  0  0999 V2000
   -1.6258    2.6285   10.5737 S   0  0  0  0  0  0  0  0  0  0  0  0
   -1.5252    2.4723    9.1842 O   0  0  0  0  0  0  0  0  0  0  0  0
   -1.1255    1.4316   11.2449 O   0  0  0  0  0  0  0  0  0  0  0  0
   -1.2557    5.2378   11.5136 C   0  0  0  0  0  0  0  0  0  0  0  0
    0.8204    3.9302   11.1576 C   0  0  0  0  0  0  0  0  0  0  0  0
   -0.4959    6.3991   11.7520 C   0  0  0  0  0  0  0  0  0  0  0  0
    0.9383    6.3306   11.7631 C   0  0  0  0  0  0  0  0  0  0  0  0
    1.5952    5.0903   11.3932 C   0  0  0  0  0  0  0  0  0  0  0  0
   -0.6193    3.9971   11.1688 C   0  0  0  0  0  0  0  0  0  0  0  0
   -1.1212    7.4959   12.0779 F   0  0  0  0  0  0  0  0  0  0  0  0
    3.1220    4.9897   11.3890 Cl  0  0  0  0  0  0  0  0  0  0  0  0
    1.6608    7.4944   12.0826 N   0  0  0  0  0  0  0  0  0  0  0  0
    1.1823    8.3187   12.3293 H   0  0  0  0  0  0  0  0  0  0  0  0
    2.6450    7.4848   12.0596 H   0  0  0  0  0  0  0  0  0  0  0  0
   -2.9441    2.8520   10.9403 N   0  0  0  0  0  0  0  0  0  0  0  0
   -3.3618    3.6526   10.5482 H   0  0  0  0  0  0  0  0  0  0  0  0
   -4.2169    0.2688   12.9656 N   0  0  0  0  0  0  0  0  0  0  0  0
   -3.9440    0.8002   11.7068 N   0  0  0  0  0  0  0  0  0  0  0  0
   -3.5809    2.6595   13.3032 S   0  0  0  0  0  0  0  0  0  0  0  0
   -4.3370    1.2342   13.8654 C   0  0  0  0  0  0  0  0  0  0  0  0
   -3.7358    2.1273   11.7586 C   0  0  0  0  0  0  0  0  0  0  0  0
   -4.4939    0.9901   15.6351 S   0  0  0  0  0  0  0  0  0  0  0  0
   -3.2483    1.2315   16.2266 O   0  0  0  0  0  0  0  0  0  0  0  0
   -4.9268   -0.3360   15.9137 O   0  0  0  0  0  0  0  0  0  0  0  0
   -5.5533    2.0072   16.1921 N   0  0  0  0  0  0  0  0  0  0  0  0
   -5.6517    1.8782   17.1991 H   0  0  0  0  0  0  0  0  0  0  0  0
   -6.4524    1.8439   15.7389 H   0  0  0  0  0  0  0  0  0  0  0  0
 22 23  2  0  0  0
 22 24  2  0  0  0
 22 25  1  0  0  0
 22 20  1  0  0  0
 17 18  1  0  0  0
 17 20  2  0  0  0
 18 21  2  0  0  0
 19 20  1  0  0  0
 19 21  1  0  0  0
 21 15  1  0  0  0
 15  1  1  0  0  0
  1  2  2  0  0  0
  1  3  2  0  0  0
  1  9  1  0  0  0
  4  6  1  0  0  0
  4  9  2  0  0  0
  5  8  2  0  0  0
  5  9  1  0  0  0
  6  7  2  0  0  0
  6 10  1  0  0  0
  7  8  1  0  0  0
  7 12  1  0  0  0
  8 11  1  0  0  0
 25 26  1  0  0  0
 25 27  1  0  0  0
 15 16  1  0  0  0
 12 13  1  0  0  0
 12 14  1  0  0  0
M  END
> <minimizedAffinity>
-6.98748

$$$$
2HOC_1CN_A_265


 27 28  0  0  0  0  0  0  0  0999 V2000
   -3.2907    3.7224   10.3496 S   0  0  0  0  0  0  0  0  0  0  0  0
   -2.6246    3.4126    9.1556 O   0  0  0  0  0  0  0  0  0  0  0  0
   -2.3554    3.6606   11.4698 O   0  0  0  0  0  0  0  0  0  0  0  0
   -3.4097    6.3709   11.2441 C   0  0  0  0  0  0  0  0  0  0  0  0
   -5.1042    5.7437    9.5464 C   0  0  0  0  0  0  0  0  0  0  0  0
   -4.0455    7.6127   11.4352 C   0  0  0  0  0  0  0  0  0  0  0  0
   -5.1840    7.9684   10.6358 C   0  0  0  0  0  0  0  0  0  0  0  0
   -5.7534    6.9872    9.7304 C   0  0  0  0  0  0  0  0  0  0  0  0
   -3.9482    5.3980   10.3347 C   0  0  0  0  0  0  0  0  0  0  0  0
   -3.5069    8.4672   12.2597 F   0  0  0  0  0  0  0  0  0  0  0  0
   -6.9709    7.3353    8.8714 Cl  0  0  0  0  0  0  0  0  0  0  0  0
   -5.7433    9.2484   10.8010 N   0  0  0  0  0  0  0  0  0  0  0  0
   -5.3306    9.8893   11.4241 H   0  0  0  0  0  0  0  0  0  0  0  0
   -6.5474    9.5035   10.2935 H   0  0  0  0  0  0  0  0  0  0  0  0
   -4.3345    2.8355   10.5643 N   0  0  0  0  0  0  0  0  0  0  0  0
   -5.0678    2.8793    9.9088 H   0  0  0  0  0  0  0  0  0  0  0  0
   -3.6772    0.4511   13.0697 N   0  0  0  0  0  0  0  0  0  0  0  0
   -3.7577    0.8064   11.7248 N   0  0  0  0  0  0  0  0  0  0  0  0
   -4.8114    2.6730   12.9668 S   0  0  0  0  0  0  0  0  0  0  0  0
   -4.4582    1.2276   13.8066 C   0  0  0  0  0  0  0  0  0  0  0  0
   -4.4877    1.9207   11.5447 C   0  0  0  0  0  0  0  0  0  0  0  0
   -4.5105    1.2453   15.5991 S   0  0  0  0  0  0  0  0  0  0  0  0
   -5.3235    2.3094   16.0070 O   0  0  0  0  0  0  0  0  0  0  0  0
   -3.1987    1.3917   16.1295 O   0  0  0  0  0  0  0  0  0  0  0  0
   -5.1212   -0.1127   16.0989 N   0  0  0  0  0  0  0  0  0  0  0  0
   -5.1564   -0.1150   17.1183 H   0  0  0  0  0  0  0  0  0  0  0  0
   -4.5393   -0.8861   15.7770 H   0  0  0  0  0  0  0  0  0  0  0  0
 22 23  2  0  0  0
 22 24  2  0  0  0
 22 25  1  0  0  0
 22 20  1  0  0  0
 17 18  1  0  0  0
 17 20  2  0  0  0
 18 21  2  0  0  0
 19 20  1  0  0  0
 19 21  1  0  0  0
 21 15  1  0  0  0
 15  1  1  0  0  0
  1  2  2  0  0  0
  1  3  2  0  0  0
  1  9  1  0  0  0
  4  6  1  0  0  0
  4  9  2  0  0  0
  5  8  2  0  0  0
  5  9  1  0  0  0
  6  7  2  0  0  0
  6 10  1  0  0  0
  7  8  1  0  0  0
  7 12  1  0  0  0
  8 11  1  0  0  0
 25 26  1  0  0  0
 25 27  1  0  0  0
 15 16  1  0  0  0
 12 13  1  0  0  0
 12 14  1  0  0  0
M  END
> <minimizedAffinity>
-6.92532

$$$$
2HOC_1CN_A_265


 27 28  0  0  0  0  0  0  0  0999 V2000
    0.1343    5.5257   11.6239 S   0  0  0  0  0  0  0  0  0  0  0  0
   -0.1947    5.7007   10.2725 O   0  0  0  0  0  0  0  0  0  0  0  0
    1.5692    5.2878   11.7583 O   0  0  0  0  0  0  0  0  0  0  0  0
    0.6960    8.0983   12.5699 C   0  0  0  0  0  0  0  0  0  0  0  0
   -1.3302    7.0329   13.5220 C   0  0  0  0  0  0  0  0  0  0  0  0
    0.5821    9.1598   13.4880 C   0  0  0  0  0  0  0  0  0  0  0  0
   -0.5295    9.2097   14.3956 C   0  0  0  0  0  0  0  0  0  0  0  0
   -1.4546    8.0927   14.4511 C   0  0  0  0  0  0  0  0  0  0  0  0
   -0.2254    6.9966   12.5972 C   0  0  0  0  0  0  0  0  0  0  0  0
    1.4340   10.1439   13.4103 F   0  0  0  0  0  0  0  0  0  0  0  0
   -2.6441    8.1146   15.4133 Cl  0  0  0  0  0  0  0  0  0  0  0  0
   -0.6509   10.3256   15.2433 N   0  0  0  0  0  0  0  0  0  0  0  0
   -0.0051   11.0658   15.1782 H   0  0  0  0  0  0  0  0  0  0  0  0
   -1.3818   10.3664   15.9017 H   0  0  0  0  0  0  0  0  0  0  0  0
   -0.5676    4.4554   12.1570 N   0  0  0  0  0  0  0  0  0  0  0  0
   -0.7179    4.4909   13.1293 H   0  0  0  0  0  0  0  0  0  0  0  0
   -1.6147    1.1715   11.4400 N   0  0  0  0  0  0  0  0  0  0  0  0
   -0.6008    2.1150   11.5928 N   0  0  0  0  0  0  0  0  0  0  0  0
   -2.7136    3.4086   11.5874 S   0  0  0  0  0  0  0  0  0  0  0  0
   -2.7614    1.7615   11.1353 C   0  0  0  0  0  0  0  0  0  0  0  0
   -1.0739    3.3718   11.5317 C   0  0  0  0  0  0  0  0  0  0  0  0
   -4.3558    0.9460   11.0422 S   0  0  0  0  0  0  0  0  0  0  0  0
   -4.4206   -0.0151   12.0580 O   0  0  0  0  0  0  0  0  0  0  0  0
   -4.5233    0.3341    9.7689 O   0  0  0  0  0  0  0  0  0  0  0  0
   -5.4836    2.0188   11.2523 N   0  0  0  0  0  0  0  0  0  0  0  0
   -6.3965    1.5667   11.2015 H   0  0  0  0  0  0  0  0  0  0  0  0
   -5.4156    2.7305   10.5248 H   0  0  0  0  0  0  0  0  0  0  0  0
 22 23  2  0  0  0
 22 24  2  0  0  0
 22 25  1  0  0  0
 22 20  1  0  0  0
 17 18  1  0  0  0
 17 20  2  0  0  0
 18 21  2  0  0  0
 19 20  1  0  0  0
 19 21  1  0  0  0
 21 15  1  0  0  0
 15  1  1  0  0  0
  1  2  2  0  0  0
  1  3  2  0  0  0
  1  9  1  0  0  0
  4  6  1  0  0  0
  4  9  2  0  0  0
  5  8  2  0  0  0
  5  9  1  0  0  0
  6  7  2  0  0  0
  6 10  1  0  0  0
  7  8  1  0  0  0
  7 12  1  0  0  0
  8 11  1  0  0  0
 25 26  1  0  0  0
 25 27  1  0  0  0
 15 16  1  0  0  0
 12 13  1  0  0  0
 12 14  1  0  0  0
M  END
> <minimizedAffinity>
-6.92396

$$$$
2HOC_1CN_A_265


 27 28  0  0  0  0  0  0  0  0999 V2000
   -3.9231    5.0323   12.2609 S   0  0  0  0  0  0  0  0  0  0  0  0
   -4.8652    5.4644   11.3170 O   0  0  0  0  0  0  0  0  0  0  0  0
   -3.1303    3.9384   11.7056 O   0  0  0  0  0  0  0  0  0  0  0  0
   -1.6048    6.5449   11.8530 C   0  0  0  0  0  0  0  0  0  0  0  0
   -2.8628    7.0629   13.9257 C   0  0  0  0  0  0  0  0  0  0  0  0
   -0.5511    7.3800   12.2713 C   0  0  0  0  0  0  0  0  0  0  0  0
   -0.6649    8.1239   13.4942 C   0  0  0  0  0  0  0  0  0  0  0  0
   -1.8100    7.9033   14.3583 C   0  0  0  0  0  0  0  0  0  0  0  0
   -2.7554    6.3343   12.6868 C   0  0  0  0  0  0  0  0  0  0  0  0
    0.4632    7.5508   11.4699 F   0  0  0  0  0  0  0  0  0  0  0  0
   -1.9545    8.6761   15.6710 Cl  0  0  0  0  0  0  0  0  0  0  0  0
    0.3743    9.0071   13.8387 N   0  0  0  0  0  0  0  0  0  0  0  0
    1.1364    9.1325   13.2282 H   0  0  0  0  0  0  0  0  0  0  0  0
    0.3394    9.4999   14.6902 H   0  0  0  0  0  0  0  0  0  0  0  0
   -4.5585    4.6072   13.4176 N   0  0  0  0  0  0  0  0  0  0  0  0
   -5.1757    5.2576   13.8242 H   0  0  0  0  0  0  0  0  0  0  0  0
   -3.7069    2.1281   15.7679 N   0  0  0  0  0  0  0  0  0  0  0  0
   -3.3643    2.9574   14.7019 N   0  0  0  0  0  0  0  0  0  0  0  0
   -5.8281    3.1212   14.9028 S   0  0  0  0  0  0  0  0  0  0  0  0
   -5.0136    1.9087   15.7893 C   0  0  0  0  0  0  0  0  0  0  0  0
   -4.4508    3.4278   14.0650 C   0  0  0  0  0  0  0  0  0  0  0  0
   -5.9026    1.0617   17.0963 S   0  0  0  0  0  0  0  0  0  0  0  0
   -5.5927    1.6794   18.3137 O   0  0  0  0  0  0  0  0  0  0  0  0
   -5.5379   -0.3128   17.1305 O   0  0  0  0  0  0  0  0  0  0  0  0
   -7.4435    1.1806   16.8166 N   0  0  0  0  0  0  0  0  0  0  0  0
   -7.9608    0.7021   17.5541 H   0  0  0  0  0  0  0  0  0  0  0  0
   -7.6598    0.7521   15.9166 H   0  0  0  0  0  0  0  0  0  0  0  0
 22 23  2  0  0  0
 22 24  2  0  0  0
 22 25  1  0  0  0
 22 20  1  0  0  0
 17 18  1  0  0  0
 17 20  2  0  0  0
 18 21  2  0  0  0
 19 20  1  0  0  0
 19 21  1  0  0  0
 21 15  1  0  0  0
 15  1  1  0  0  0
  1  2  2  0  0  0
  1  3  2  0  0  0
  1  9  1  0  0  0
  4  6  1  0  0  0
  4  9  2  0  0  0
  5  8  2  0  0  0
  5  9  1  0  0  0
  6  7  2  0  0  0
  6 10  1  0  0  0
  7  8  1  0  0  0
  7 12  1  0  0  0
  8 11  1  0  0  0
 25 26  1  0  0  0
 25 27  1  0  0  0
 15 16  1  0  0  0
 12 13  1  0  0  0
 12 14  1  0  0  0
M  END
> <minimizedAffinity>
-6.91560

$$$$
2HOC_1CN_A_265


 27 28  0  0  0  0  0  0  0  0999 V2000
   -4.0219    4.0016   11.5176 S   0  0  0  0  0  0  0  0  0  0  0  0
   -4.8636    4.8742   10.8137 O   0  0  0  0  0  0  0  0  0  0  0  0
   -4.0204    2.6891   10.8766 O   0  0  0  0  0  0  0  0  0  0  0  0
   -1.2870    3.6933   11.0135 C   0  0  0  0  0  0  0  0  0  0  0  0
   -1.9310    5.8092   12.1337 C   0  0  0  0  0  0  0  0  0  0  0  0
    0.0751    3.9932   11.2067 C   0  0  0  0  0  0  0  0  0  0  0  0
    0.4589    5.2395   11.8078 C   0  0  0  0  0  0  0  0  0  0  0  0
   -0.5659    6.1213   12.3358 C   0  0  0  0  0  0  0  0  0  0  0  0
   -2.3131    4.5673   11.5101 C   0  0  0  0  0  0  0  0  0  0  0  0
    0.9673    3.1753   10.7219 F   0  0  0  0  0  0  0  0  0  0  0  0
   -0.1864    7.4523   12.9882 Cl  0  0  0  0  0  0  0  0  0  0  0  0
    1.8297    5.5373   11.9122 N   0  0  0  0  0  0  0  0  0  0  0  0
    2.4980    4.9160   11.5425 H   0  0  0  0  0  0  0  0  0  0  0  0
    2.1209    6.3670   12.3549 H   0  0  0  0  0  0  0  0  0  0  0  0
   -4.4452    3.8779   12.8320 N   0  0  0  0  0  0  0  0  0  0  0  0
   -4.6790    4.7219   13.2819 H   0  0  0  0  0  0  0  0  0  0  0  0
   -3.9408    1.3740   15.2549 N   0  0  0  0  0  0  0  0  0  0  0  0
   -3.5920    1.9861   14.0528 N   0  0  0  0  0  0  0  0  0  0  0  0
   -5.7672    2.9820   14.6962 S   0  0  0  0  0  0  0  0  0  0  0  0
   -5.2110    1.6101   15.5494 C   0  0  0  0  0  0  0  0  0  0  0  0
   -4.5820    2.7644   13.5822 C   0  0  0  0  0  0  0  0  0  0  0  0
   -6.0166    1.1776   17.0921 S   0  0  0  0  0  0  0  0  0  0  0  0
   -5.7775    2.2004   18.0174 O   0  0  0  0  0  0  0  0  0  0  0  0
   -5.5146   -0.0606   17.5806 O   0  0  0  0  0  0  0  0  0  0  0  0
   -7.5601    1.0437   16.8343 N   0  0  0  0  0  0  0  0  0  0  0  0
   -8.0302    0.7976   17.7054 H   0  0  0  0  0  0  0  0  0  0  0  0
   -7.7270    0.3151   16.1403 H   0  0  0  0  0  0  0  0  0  0  0  0
 22 23  2  0  0  0
 22 24  2  0  0  0
 22 25  1  0  0  0
 22 20  1  0  0  0
 17 18  1  0  0  0
 17 20  2  0  0  0
 18 21  2  0  0  0
 19 20  1  0  0  0
 19 21  1  0  0  0
 21 15  1  0  0  0
 15  1  1  0  0  0
  1  2  2  0  0  0
  1  3  2  0  0  0
  1  9  1  0  0  0
  4  6  1  0  0  0
  4  9  2  0  0  0
  5  8  2  0  0  0
  5  9  1  0  0  0
  6  7  2  0  0  0
  6 10  1  0  0  0
  7  8  1  0  0  0
  7 12  1  0  0  0
  8 11  1  0  0  0
 25 26  1  0  0  0
 25 27  1  0  0  0
 15 16  1  0  0  0
 12 13  1  0  0  0
 12 14  1  0  0  0
M  END
> <minimizedAffinity>
-6.87800

$$$$
2HOC_1CN_A_265


 27 28  0  0  0  0  0  0  0  0999 V2000
   -4.2516    3.8584   12.2717 S   0  0  0  0  0  0  0  0  0  0  0  0
   -4.5400    3.1291   11.1097 O   0  0  0  0  0  0  0  0  0  0  0  0
   -5.1124    5.0362   12.3446 O   0  0  0  0  0  0  0  0  0  0  0  0
   -4.1107    1.5471   13.8424 C   0  0  0  0  0  0  0  0  0  0  0  0
   -5.4335    3.4097   14.8057 C   0  0  0  0  0  0  0  0  0  0  0  0
   -4.5437    0.6921   14.8739 C   0  0  0  0  0  0  0  0  0  0  0  0
   -5.3766    1.2003   15.9274 C   0  0  0  0  0  0  0  0  0  0  0  0
   -5.8774    2.5602   15.8464 C   0  0  0  0  0  0  0  0  0  0  0  0
   -4.5794    2.9025   13.7614 C   0  0  0  0  0  0  0  0  0  0  0  0
   -4.0754   -0.5242   14.9118 F   0  0  0  0  0  0  0  0  0  0  0  0
   -6.7728    3.1266   16.9504 Cl  0  0  0  0  0  0  0  0  0  0  0  0
   -5.7237    0.3359   16.9813 N   0  0  0  0  0  0  0  0  0  0  0  0
   -5.3653   -0.5808   17.0045 H   0  0  0  0  0  0  0  0  0  0  0  0
   -6.3251    0.6475   17.6959 H   0  0  0  0  0  0  0  0  0  0  0  0
   -2.9221    4.2515   12.2776 N   0  0  0  0  0  0  0  0  0  0  0  0
   -2.5742    4.5525   13.1480 H   0  0  0  0  0  0  0  0  0  0  0  0
   -0.5935    5.3522    9.8773 N   0  0  0  0  0  0  0  0  0  0  0  0
   -1.9050    5.2491   10.3366 N   0  0  0  0  0  0  0  0  0  0  0  0
   -0.5807    3.7200   11.7666 S   0  0  0  0  0  0  0  0  0  0  0  0
    0.1530    4.3741   10.3690 C   0  0  0  0  0  0  0  0  0  0  0  0
   -2.0372    4.2801   11.2589 C   0  0  0  0  0  0  0  0  0  0  0  0
    1.9326    4.2380   10.1939 S   0  0  0  0  0  0  0  0  0  0  0  0
    2.2131    3.1377    9.3752 O   0  0  0  0  0  0  0  0  0  0  0  0
    2.5428    4.0762   11.4686 O   0  0  0  0  0  0  0  0  0  0  0  0
    2.4749    5.5511    9.5243 N   0  0  0  0  0  0  0  0  0  0  0  0
    3.4874    5.4859    9.4191 H   0  0  0  0  0  0  0  0  0  0  0  0
    2.2451    6.3524   10.1121 H   0  0  0  0  0  0  0  0  0  0  0  0
 22 23  2  0  0  0
 22 24  2  0  0  0
 22 25  1  0  0  0
 22 20  1  0  0  0
 17 18  1  0  0  0
 17 20  2  0  0  0
 18 21  2  0  0  0
 19 20  1  0  0  0
 19 21  1  0  0  0
 21 15  1  0  0  0
 15  1  1  0  0  0
  1  2  2  0  0  0
  1  3  2  0  0  0
  1  9  1  0  0  0
  4  6  1  0  0  0
  4  9  2  0  0  0
  5  8  2  0  0  0
  5  9  1  0  0  0
  6  7  2  0  0  0
  6 10  1  0  0  0
  7  8  1  0  0  0
  7 12  1  0  0  0
  8 11  1  0  0  0
 25 26  1  0  0  0
 25 27  1  0  0  0
 15 16  1  0  0  0
 12 13  1  0  0  0
 12 14  1  0  0  0
M  END
> <minimizedAffinity>
-6.82927

$$$$
2HOC_1CN_A_265


 27 28  0  0  0  0  0  0  0  0999 V2000
   -4.0915    5.3150   12.4513 S   0  0  0  0  0  0  0  0  0  0  0  0
   -4.5910    6.6095   12.2515 O   0  0  0  0  0  0  0  0  0  0  0  0
   -4.7620    4.3801   11.5512 O   0  0  0  0  0  0  0  0  0  0  0  0
   -1.4468    6.2208   12.5690 C   0  0  0  0  0  0  0  0  0  0  0  0
   -1.8255    4.2230   11.1505 C   0  0  0  0  0  0  0  0  0  0  0  0
   -0.1206    6.3122   12.1047 C   0  0  0  0  0  0  0  0  0  0  0  0
    0.3965    5.3196   11.2052 C   0  0  0  0  0  0  0  0  0  0  0  0
   -0.4956    4.3049   10.6747 C   0  0  0  0  0  0  0  0  0  0  0  0
   -2.3354    5.2082   12.0706 C   0  0  0  0  0  0  0  0  0  0  0  0
    0.6501    7.2392   12.6013 F   0  0  0  0  0  0  0  0  0  0  0  0
    0.0255    3.2388    9.7086 Cl  0  0  0  0  0  0  0  0  0  0  0  0
    1.7485    5.4006   10.8257 N   0  0  0  0  0  0  0  0  0  0  0  0
    2.3253    6.1022   11.2058 H   0  0  0  0  0  0  0  0  0  0  0  0
    2.1181    4.7558   10.1801 H   0  0  0  0  0  0  0  0  0  0  0  0
   -4.2880    4.9190   13.7654 N   0  0  0  0  0  0  0  0  0  0  0  0
   -4.3786    5.6505   14.4180 H   0  0  0  0  0  0  0  0  0  0  0  0
   -3.8398    2.0846   15.8050 N   0  0  0  0  0  0  0  0  0  0  0  0
   -3.3739    2.9607   14.8267 N   0  0  0  0  0  0  0  0  0  0  0  0
   -5.7734    3.5055   15.1149 S   0  0  0  0  0  0  0  0  0  0  0  0
   -5.1644    2.0831   15.8397 C   0  0  0  0  0  0  0  0  0  0  0  0
   -4.3726    3.6728   14.2765 C   0  0  0  0  0  0  0  0  0  0  0  0
   -6.1695    1.2528   17.0712 S   0  0  0  0  0  0  0  0  0  0  0  0
   -7.4742    1.1433   16.5758 O   0  0  0  0  0  0  0  0  0  0  0  0
   -6.1616    1.9858   18.2902 O   0  0  0  0  0  0  0  0  0  0  0  0
   -5.5751   -0.1786   17.3251 N   0  0  0  0  0  0  0  0  0  0  0  0
   -6.1388   -0.6617   18.0246 H   0  0  0  0  0  0  0  0  0  0  0  0
   -4.6157   -0.0937   17.6610 H   0  0  0  0  0  0  0  0  0  0  0  0
 22 23  2  0  0  0
 22 24  2  0  0  0
 22 25  1  0  0  0
 22 20  1  0  0  0
 17 18  1  0  0  0
 17 20  2  0  0  0
 18 21  2  0  0  0
 19 20  1  0  0  0
 19 21  1  0  0  0
 21 15  1  0  0  0
 15  1  1  0  0  0
  1  2  2  0  0  0
  1  3  2  0  0  0
  1  9  1  0  0  0
  4  6  1  0  0  0
  4  9  2  0  0  0
  5  8  2  0  0  0
  5  9  1  0  0  0
  6  7  2  0  0  0
  6 10  1  0  0  0
  7  8  1  0  0  0
  7 12  1  0  0  0
  8 11  1  0  0  0
 25 26  1  0  0  0
 25 27  1  0  0  0
 15 16  1  0  0  0
 12 13  1  0  0  0
 12 14  1  0  0  0
M  END
> <minimizedAffinity>
-6.79726

$$$$
