5NZE_G39_A_503


 24 24  0  0  0  0  0  0  0  0999 V2000
   -9.1616  -13.7320   -1.1419 C   0  0  0  0  0  0  0  0  0  0  0  0
   -8.5357  -12.6695   -2.0348 C   0  0  0  0  0  0  0  0  0  0  0  0
   -9.2134  -12.6517   -3.4377 C   0  0  0  0  0  0  0  0  0  0  0  0
  -10.7518  -12.6889   -3.3273 C   0  0  0  0  0  0  0  0  0  0  0  0
  -11.1414  -13.9869   -2.6826 C   0  0  0  0  0  0  0  0  0  0  0  0
  -10.3604  -14.2795   -1.4375 C   0  0  0  0  0  0  0  0  0  0  0  0
   -8.7553  -11.4844   -4.2008 N   0  0  0  0  0  0  0  0  0  0  0  0
   -9.0254  -10.6311   -3.7118 H   0  0  0  0  0  0  0  0  0  0  0  0
   -9.1821  -11.4950   -5.1272 H   0  0  0  0  0  0  0  0  0  0  0  0
  -11.3415  -12.6936   -4.6854 N   0  0  0  0  0  0  0  0  0  0  0  0
  -12.2718  -11.8324   -5.0605 C   0  0  0  0  0  0  0  0  0  0  0  0
  -12.8111  -11.0191   -4.2842 O   0  0  0  0  0  0  0  0  0  0  0  0
  -12.7144  -11.9689   -6.4852 C   0  0  0  0  0  0  0  0  0  0  0  0
  -11.0286  -13.3644   -5.3346 H   0  0  0  0  0  0  0  0  0  0  0  0
   -8.4119  -14.2327   -0.0082 C   0  0  0  0  0  0  0  0  0  0  0  0
   -9.0370  -14.5813    1.0256 O   0  0  0  0  0  0  0  0  0  0  0  0
   -7.1575  -14.2746   -0.1178 O   0  0  0  0  0  0  0  0  0  0  0  0
   -6.7475  -14.0011   -0.9147 H   0  0  0  0  0  0  0  0  0  0  0  0
  -12.5651  -14.0529   -2.3858 O   0  0  0  0  0  0  0  0  0  0  0  0
  -13.1721  -15.2868   -2.8664 C   0  0  0  0  0  0  0  0  0  0  0  0
  -13.8338  -16.1219   -1.7452 C   0  0  0  0  0  0  0  0  0  0  0  0
  -13.7801  -15.4892   -0.3837 C   0  0  0  0  0  0  0  0  0  0  0  0
  -14.1515  -14.9386   -3.9444 C   0  0  0  0  0  0  0  0  0  0  0  0
  -15.0439  -13.7730   -3.5403 C   0  0  0  0  0  0  0  0  0  0  0  0
 15 16  2  0  0  0
 15 17  1  0  0  0
 15  1  1  0  0  0
  1  2  1  0  0  0
  1  6  2  0  0  0
  2  3  1  0  0  0
  3  4  1  0  0  0
  3  7  1  0  0  0
  4 10  1  0  0  0
  4  5  1  0  0  0
 10 11  1  0  0  0
 11 12  2  0  0  0
 11 13  1  0  0  0
  5  6  1  0  0  0
  5 19  1  0  0  0
 19 20  1  0  0  0
 20 21  1  0  0  0
 20 23  1  0  0  0
 21 22  1  0  0  0
 23 24  1  0  0  0
 17 18  1  0  0  0
 10 14  1  0  0  0
  7  8  1  0  0  0
  7  9  1  0  0  0
M  END
> <minimizedAffinity>
-0.00069

$$$$
5NZE_G39_A_503


 24 24  0  0  0  0  0  0  0  0999 V2000
   -4.8314  -12.3736    0.1141 C   0  0  0  0  0  0  0  0  0  0  0  0
   -5.6519  -12.6962    1.3554 C   0  0  0  0  0  0  0  0  0  0  0  0
   -7.0884  -12.1034    1.2425 C   0  0  0  0  0  0  0  0  0  0  0  0
   -7.7175  -12.3940   -0.1359 C   0  0  0  0  0  0  0  0  0  0  0  0
   -6.8892  -11.7051   -1.1807 C   0  0  0  0  0  0  0  0  0  0  0  0
   -5.4215  -11.9682   -1.0312 C   0  0  0  0  0  0  0  0  0  0  0  0
   -7.9269  -12.6097    2.3358 N   0  0  0  0  0  0  0  0  0  0  0  0
   -8.0006  -13.6246    2.2658 H   0  0  0  0  0  0  0  0  0  0  0  0
   -8.8569  -12.1959    2.2706 H   0  0  0  0  0  0  0  0  0  0  0  0
   -9.0681  -11.7903   -0.1963 N   0  0  0  0  0  0  0  0  0  0  0  0
  -10.1425  -12.4821   -0.5353 C   0  0  0  0  0  0  0  0  0  0  0  0
  -10.1040  -13.6618   -0.9371 O   0  0  0  0  0  0  0  0  0  0  0  0
  -11.4241  -11.7071   -0.4989 C   0  0  0  0  0  0  0  0  0  0  0  0
   -9.1701  -10.8363    0.0247 H   0  0  0  0  0  0  0  0  0  0  0  0
   -3.3856  -12.4101    0.1943 C   0  0  0  0  0  0  0  0  0  0  0  0
   -2.7355  -12.8601   -0.7833 O   0  0  0  0  0  0  0  0  0  0  0  0
   -2.8554  -11.9990    1.2607 O   0  0  0  0  0  0  0  0  0  0  0  0
   -3.3928  -11.6741    1.9561 H   0  0  0  0  0  0  0  0  0  0  0  0
   -7.3055  -12.0481   -2.5329 O   0  0  0  0  0  0  0  0  0  0  0  0
   -7.5257  -10.8682   -3.3582 C   0  0  0  0  0  0  0  0  0  0  0  0
   -6.6007  -10.8045   -4.5962 C   0  0  0  0  0  0  0  0  0  0  0  0
   -5.7397  -12.0197   -4.7931 C   0  0  0  0  0  0  0  0  0  0  0  0
   -8.9710  -10.8322   -3.7486 C   0  0  0  0  0  0  0  0  0  0  0  0
   -9.4753  -12.2053   -4.1708 C   0  0  0  0  0  0  0  0  0  0  0  0
 15 16  2  0  0  0
 15 17  1  0  0  0
 15  1  1  0  0  0
  1  2  1  0  0  0
  1  6  2  0  0  0
  2  3  1  0  0  0
  3  4  1  0  0  0
  3  7  1  0  0  0
  4 10  1  0  0  0
  4  5  1  0  0  0
 10 11  1  0  0  0
 11 12  2  0  0  0
 11 13  1  0  0  0
  5  6  1  0  0  0
  5 19  1  0  0  0
 19 20  1  0  0  0
 20 21  1  0  0  0
 20 23  1  0  0  0
 21 22  1  0  0  0
 23 24  1  0  0  0
 17 18  1  0  0  0
 10 14  1  0  0  0
  7  8  1  0  0  0
  7  9  1  0  0  0
M  END
> <minimizedAffinity>
-0.00067

$$$$
5NZE_G39_A_503


 24 24  0  0  0  0  0  0  0  0999 V2000
  -10.6423  -10.4656   -1.1253 C   0  0  0  0  0  0  0  0  0  0  0  0
   -9.3924  -10.5120   -0.2572 C   0  0  0  0  0  0  0  0  0  0  0  0
   -8.3185  -11.4551   -0.8778 C   0  0  0  0  0  0  0  0  0  0  0  0
   -8.1406  -11.1989   -2.3887 C   0  0  0  0  0  0  0  0  0  0  0  0
   -9.4371  -11.5220   -3.0719 C   0  0  0  0  0  0  0  0  0  0  0  0
  -10.6222  -10.8899   -2.4074 C   0  0  0  0  0  0  0  0  0  0  0  0
   -7.0495  -11.3147   -0.1535 N   0  0  0  0  0  0  0  0  0  0  0  0
   -6.7123  -10.3560   -0.2410 H   0  0  0  0  0  0  0  0  0  0  0  0
   -6.3602  -11.9548   -0.5480 H   0  0  0  0  0  0  0  0  0  0  0  0
   -7.1288  -12.1348   -2.9296 N   0  0  0  0  0  0  0  0  0  0  0  0
   -6.0832  -11.7268   -3.6281 C   0  0  0  0  0  0  0  0  0  0  0  0
   -5.9123  -10.5447   -3.9861 O   0  0  0  0  0  0  0  0  0  0  0  0
   -5.1498  -12.8183   -4.0544 C   0  0  0  0  0  0  0  0  0  0  0  0
   -7.2391  -13.0988   -2.7625 H   0  0  0  0  0  0  0  0  0  0  0  0
  -11.8973  -10.0488   -0.5342 C   0  0  0  0  0  0  0  0  0  0  0  0
  -12.6680   -9.3143   -1.2032 O   0  0  0  0  0  0  0  0  0  0  0  0
  -12.1408  -10.4374    0.6392 O   0  0  0  0  0  0  0  0  0  0  0  0
  -11.5270  -10.9849    1.0883 H   0  0  0  0  0  0  0  0  0  0  0  0
   -9.4253  -11.1610   -4.4822 O   0  0  0  0  0  0  0  0  0  0  0  0
   -9.8572  -12.2591   -5.3363 C   0  0  0  0  0  0  0  0  0  0  0  0
  -11.1190  -11.9294   -6.1679 C   0  0  0  0  0  0  0  0  0  0  0  0
  -11.5976  -10.5114   -6.0372 C   0  0  0  0  0  0  0  0  0  0  0  0
   -8.7078  -12.6518   -6.2122 C   0  0  0  0  0  0  0  0  0  0  0  0
   -7.9974  -11.4351   -6.7894 C   0  0  0  0  0  0  0  0  0  0  0  0
 15 16  2  0  0  0
 15 17  1  0  0  0
 15  1  1  0  0  0
  1  2  1  0  0  0
  1  6  2  0  0  0
  2  3  1  0  0  0
  3  4  1  0  0  0
  3  7  1  0  0  0
  4 10  1  0  0  0
  4  5  1  0  0  0
 10 11  1  0  0  0
 11 12  2  0  0  0
 11 13  1  0  0  0
  5  6  1  0  0  0
  5 19  1  0  0  0
 19 20  1  0  0  0
 20 21  1  0  0  0
 20 23  1  0  0  0
 21 22  1  0  0  0
 23 24  1  0  0  0
 17 18  1  0  0  0
 10 14  1  0  0  0
  7  8  1  0  0  0
  7  9  1  0  0  0
M  END
> <minimizedAffinity>
-0.00066

$$$$
5NZE_G39_A_503


 24 24  0  0  0  0  0  0  0  0999 V2000
  -10.1069  -12.1358   -0.3964 C   0  0  0  0  0  0  0  0  0  0  0  0
   -9.3689  -13.4346   -0.1022 C   0  0  0  0  0  0  0  0  0  0  0  0
  -10.2156  -14.6672   -0.5399 C   0  0  0  0  0  0  0  0  0  0  0  0
  -10.8108  -14.4771   -1.9505 C   0  0  0  0  0  0  0  0  0  0  0  0
  -11.7514  -13.3086   -1.9058 C   0  0  0  0  0  0  0  0  0  0  0  0
  -11.1542  -12.1014   -1.2486 C   0  0  0  0  0  0  0  0  0  0  0  0
   -9.4044  -15.8877   -0.4565 N   0  0  0  0  0  0  0  0  0  0  0  0
   -8.6100  -15.8120   -1.0918 H   0  0  0  0  0  0  0  0  0  0  0  0
   -9.9734  -16.6927   -0.7181 H   0  0  0  0  0  0  0  0  0  0  0  0
  -11.6220  -15.6639   -2.3051 N   0  0  0  0  0  0  0  0  0  0  0  0
  -11.4450  -16.3371   -3.4291 C   0  0  0  0  0  0  0  0  0  0  0  0
  -10.6657  -15.9762   -4.3330 O   0  0  0  0  0  0  0  0  0  0  0  0
  -12.3339  -17.5322   -3.5905 C   0  0  0  0  0  0  0  0  0  0  0  0
  -12.3206  -15.9635   -1.6794 H   0  0  0  0  0  0  0  0  0  0  0  0
   -9.7386  -10.9353    0.3256 C   0  0  0  0  0  0  0  0  0  0  0  0
   -9.7538   -9.8343   -0.2813 O   0  0  0  0  0  0  0  0  0  0  0  0
   -9.4026  -11.0671    1.5327 O   0  0  0  0  0  0  0  0  0  0  0  0
   -9.4110  -11.9149    1.9315 H   0  0  0  0  0  0  0  0  0  0  0  0
  -12.2458  -12.9443   -3.2257 O   0  0  0  0  0  0  0  0  0  0  0  0
  -13.6966  -12.8175   -3.2556 C   0  0  0  0  0  0  0  0  0  0  0  0
  -14.1806  -11.4087   -3.6722 C   0  0  0  0  0  0  0  0  0  0  0  0
  -13.0802  -10.4611   -4.0568 C   0  0  0  0  0  0  0  0  0  0  0  0
  -14.2413  -13.8772   -4.1629 C   0  0  0  0  0  0  0  0  0  0  0  0
  -13.4512  -13.9684   -5.4613 C   0  0  0  0  0  0  0  0  0  0  0  0
 15 16  2  0  0  0
 15 17  1  0  0  0
 15  1  1  0  0  0
  1  2  1  0  0  0
  1  6  2  0  0  0
  2  3  1  0  0  0
  3  4  1  0  0  0
  3  7  1  0  0  0
  4 10  1  0  0  0
  4  5  1  0  0  0
 10 11  1  0  0  0
 11 12  2  0  0  0
 11 13  1  0  0  0
  5  6  1  0  0  0
  5 19  1  0  0  0
 19 20  1  0  0  0
 20 21  1  0  0  0
 20 23  1  0  0  0
 21 22  1  0  0  0
 23 24  1  0  0  0
 17 18  1  0  0  0
 10 14  1  0  0  0
  7  8  1  0  0  0
  7  9  1  0  0  0
M  END
> <minimizedAffinity>
-0.00047

$$$$
5NZE_G39_A_503


 24 24  0  0  0  0  0  0  0  0999 V2000
   -9.5779  -11.9676   -0.3048 C   0  0  0  0  0  0  0  0  0  0  0  0
   -9.3006  -12.1038    1.1860 C   0  0  0  0  0  0  0  0  0  0  0  0
  -10.4827  -11.5341    2.0262 C   0  0  0  0  0  0  0  0  0  0  0  0
  -11.8461  -12.0246    1.4965 C   0  0  0  0  0  0  0  0  0  0  0  0
  -12.0214  -11.4971    0.1025 C   0  0  0  0  0  0  0  0  0  0  0  0
  -10.8252  -11.7353   -0.7681 C   0  0  0  0  0  0  0  0  0  0  0  0
  -10.3003  -11.8738    3.4426 N   0  0  0  0  0  0  0  0  0  0  0  0
  -10.2989  -12.8879    3.5516 H   0  0  0  0  0  0  0  0  0  0  0  0
  -11.0632  -11.4741    3.9891 H   0  0  0  0  0  0  0  0  0  0  0  0
  -12.9311  -11.4364    2.3144 N   0  0  0  0  0  0  0  0  0  0  0  0
  -13.8737  -12.1705    2.8805 C   0  0  0  0  0  0  0  0  0  0  0  0
  -13.9996  -13.3964    2.6904 O   0  0  0  0  0  0  0  0  0  0  0  0
  -14.8600  -11.3987    3.7026 C   0  0  0  0  0  0  0  0  0  0  0  0
  -12.9514  -10.4604    2.4418 H   0  0  0  0  0  0  0  0  0  0  0  0
   -8.4675  -11.9918   -1.2346 C   0  0  0  0  0  0  0  0  0  0  0  0
   -8.6335  -12.5205   -2.3633 O   0  0  0  0  0  0  0  0  0  0  0  0
   -7.3786  -11.4902   -0.8475 O   0  0  0  0  0  0  0  0  0  0  0  0
   -7.3154  -11.1096    0.0064 H   0  0  0  0  0  0  0  0  0  0  0  0
  -13.2069  -12.0356   -0.5487 O   0  0  0  0  0  0  0  0  0  0  0  0
  -14.0352  -10.9918   -1.1371 C   0  0  0  0  0  0  0  0  0  0  0  0
  -14.2204  -11.1443   -2.6651 C   0  0  0  0  0  0  0  0  0  0  0  0
  -13.6003  -12.3829   -3.2467 C   0  0  0  0  0  0  0  0  0  0  0  0
  -15.3508  -10.9782   -0.4218 C   0  0  0  0  0  0  0  0  0  0  0  0
  -15.8967  -12.3850   -0.2190 C   0  0  0  0  0  0  0  0  0  0  0  0
 15 16  2  0  0  0
 15 17  1  0  0  0
 15  1  1  0  0  0
  1  2  1  0  0  0
  1  6  2  0  0  0
  2  3  1  0  0  0
  3  4  1  0  0  0
  3  7  1  0  0  0
  4 10  1  0  0  0
  4  5  1  0  0  0
 10 11  1  0  0  0
 11 12  2  0  0  0
 11 13  1  0  0  0
  5  6  1  0  0  0
  5 19  1  0  0  0
 19 20  1  0  0  0
 20 21  1  0  0  0
 20 23  1  0  0  0
 21 22  1  0  0  0
 23 24  1  0  0  0
 17 18  1  0  0  0
 10 14  1  0  0  0
  7  8  1  0  0  0
  7  9  1  0  0  0
M  END
> <minimizedAffinity>
-0.00047

$$$$
5NZE_G39_A_503


 24 24  0  0  0  0  0  0  0  0999 V2000
   -9.3130  -10.5706   -2.1773 C   0  0  0  0  0  0  0  0  0  0  0  0
   -9.9165  -11.5326   -3.1914 C   0  0  0  0  0  0  0  0  0  0  0  0
   -9.1516  -12.8900   -3.1944 C   0  0  0  0  0  0  0  0  0  0  0  0
   -8.9068  -13.4087   -1.7622 C   0  0  0  0  0  0  0  0  0  0  0  0
   -8.0232  -12.4235   -1.0545 C   0  0  0  0  0  0  0  0  0  0  0  0
   -8.4938  -11.0079   -1.1966 C   0  0  0  0  0  0  0  0  0  0  0  0
   -9.8779  -13.8729   -4.0074 N   0  0  0  0  0  0  0  0  0  0  0  0
  -10.8001  -14.0341   -3.6025 H   0  0  0  0  0  0  0  0  0  0  0  0
   -9.3571  -14.7497   -4.0267 H   0  0  0  0  0  0  0  0  0  0  0  0
   -8.1587  -14.6850   -1.8233 N   0  0  0  0  0  0  0  0  0  0  0  0
   -8.5696  -15.7811   -1.2088 C   0  0  0  0  0  0  0  0  0  0  0  0
   -9.5516  -15.8136   -0.4410 O   0  0  0  0  0  0  0  0  0  0  0  0
   -7.7005  -16.9825   -1.4222 C   0  0  0  0  0  0  0  0  0  0  0  0
   -7.3226  -14.7188   -2.3420 H   0  0  0  0  0  0  0  0  0  0  0  0
   -9.5458   -9.1488   -2.3275 C   0  0  0  0  0  0  0  0  0  0  0  0
   -9.6828   -8.4447   -1.2949 O   0  0  0  0  0  0  0  0  0  0  0  0
   -9.6159   -8.6955   -3.5009 O   0  0  0  0  0  0  0  0  0  0  0  0
   -9.5052   -9.2702   -4.2326 H   0  0  0  0  0  0  0  0  0  0  0  0
   -7.8615  -12.7387    0.3575 O   0  0  0  0  0  0  0  0  0  0  0  0
   -6.4622  -12.7578    0.7617 C   0  0  0  0  0  0  0  0  0  0  0  0
   -6.1284  -11.7267    1.8652 C   0  0  0  0  0  0  0  0  0  0  0  0
   -7.3164  -10.9739    2.3934 C   0  0  0  0  0  0  0  0  0  0  0  0
   -6.1162  -14.1512    1.1877 C   0  0  0  0  0  0  0  0  0  0  0  0
   -7.1949  -14.7529    2.0780 C   0  0  0  0  0  0  0  0  0  0  0  0
 15 16  2  0  0  0
 15 17  1  0  0  0
 15  1  1  0  0  0
  1  2  1  0  0  0
  1  6  2  0  0  0
  2  3  1  0  0  0
  3  4  1  0  0  0
  3  7  1  0  0  0
  4 10  1  0  0  0
  4  5  1  0  0  0
 10 11  1  0  0  0
 11 12  2  0  0  0
 11 13  1  0  0  0
  5  6  1  0  0  0
  5 19  1  0  0  0
 19 20  1  0  0  0
 20 21  1  0  0  0
 20 23  1  0  0  0
 21 22  1  0  0  0
 23 24  1  0  0  0
 17 18  1  0  0  0
 10 14  1  0  0  0
  7  8  1  0  0  0
  7  9  1  0  0  0
M  END
> <minimizedAffinity>
-0.00043

$$$$
5NZE_G39_A_503


 24 24  0  0  0  0  0  0  0  0999 V2000
   -6.9464  -18.0061   -3.3807 C   0  0  0  0  0  0  0  0  0  0  0  0
   -6.5524  -17.0151   -4.4672 C   0  0  0  0  0  0  0  0  0  0  0  0
   -5.7263  -15.8358   -3.8719 C   0  0  0  0  0  0  0  0  0  0  0  0
   -4.6236  -16.3382   -2.9168 C   0  0  0  0  0  0  0  0  0  0  0  0
   -5.2874  -17.0213   -1.7572 C   0  0  0  0  0  0  0  0  0  0  0  0
   -6.3282  -18.0132   -2.1799 C   0  0  0  0  0  0  0  0  0  0  0  0
   -5.1696  -15.0165   -4.9552 N   0  0  0  0  0  0  0  0  0  0  0  0
   -4.5403  -15.5847   -5.5223 H   0  0  0  0  0  0  0  0  0  0  0  0
   -4.6536  -14.2318   -4.5574 H   0  0  0  0  0  0  0  0  0  0  0  0
   -3.8872  -15.1787   -2.3640 N   0  0  0  0  0  0  0  0  0  0  0  0
   -2.5703  -15.0783   -2.4225 C   0  0  0  0  0  0  0  0  0  0  0  0
   -1.8278  -15.9875   -2.8430 O   0  0  0  0  0  0  0  0  0  0  0  0
   -2.0120  -13.8133   -1.8459 C   0  0  0  0  0  0  0  0  0  0  0  0
   -4.3983  -14.4542   -1.9361 H   0  0  0  0  0  0  0  0  0  0  0  0
   -8.0698  -18.8921   -3.6068 C   0  0  0  0  0  0  0  0  0  0  0  0
   -7.9925  -20.0825   -3.2095 O   0  0  0  0  0  0  0  0  0  0  0  0
   -9.0674  -18.4175   -4.2125 O   0  0  0  0  0  0  0  0  0  0  0  0
   -9.0672  -17.5209   -4.4848 H   0  0  0  0  0  0  0  0  0  0  0  0
   -4.3295  -17.6732   -0.8758 O   0  0  0  0  0  0  0  0  0  0  0  0
   -4.5256  -17.3061    0.5201 C   0  0  0  0  0  0  0  0  0  0  0  0
   -4.8529  -18.5122    1.4313 C   0  0  0  0  0  0  0  0  0  0  0  0
   -4.7916  -19.8465    0.7436 C   0  0  0  0  0  0  0  0  0  0  0  0
   -3.3044  -16.5772    0.9892 C   0  0  0  0  0  0  0  0  0  0  0  0
   -2.0261  -17.2616    0.5247 C   0  0  0  0  0  0  0  0  0  0  0  0
 15 16  2  0  0  0
 15 17  1  0  0  0
 15  1  1  0  0  0
  1  2  1  0  0  0
  1  6  2  0  0  0
  2  3  1  0  0  0
  3  4  1  0  0  0
  3  7  1  0  0  0
  4 10  1  0  0  0
  4  5  1  0  0  0
 10 11  1  0  0  0
 11 12  2  0  0  0
 11 13  1  0  0  0
  5  6  1  0  0  0
  5 19  1  0  0  0
 19 20  1  0  0  0
 20 21  1  0  0  0
 20 23  1  0  0  0
 21 22  1  0  0  0
 23 24  1  0  0  0
 17 18  1  0  0  0
 10 14  1  0  0  0
  7  8  1  0  0  0
  7  9  1  0  0  0
M  END
> <minimizedAffinity>
-0.00043

$$$$
5NZE_G39_A_503


 24 24  0  0  0  0  0  0  0  0999 V2000
   -3.6037  -15.6612   -0.6361 C   0  0  0  0  0  0  0  0  0  0  0  0
   -4.3122  -15.0943    0.5864 C   0  0  0  0  0  0  0  0  0  0  0  0
   -5.5477  -14.2420    0.1682 C   0  0  0  0  0  0  0  0  0  0  0  0
   -6.4034  -14.9628   -0.8941 C   0  0  0  0  0  0  0  0  0  0  0  0
   -5.5669  -15.1342   -2.1282 C   0  0  0  0  0  0  0  0  0  0  0  0
   -4.2112  -15.7050   -1.8416 C   0  0  0  0  0  0  0  0  0  0  0  0
   -6.3403  -13.8931    1.3535 N   0  0  0  0  0  0  0  0  0  0  0  0
   -6.6834  -14.7455    1.7961 H   0  0  0  0  0  0  0  0  0  0  0  0
   -7.1314  -13.3126    1.0747 H   0  0  0  0  0  0  0  0  0  0  0  0
   -7.5470  -14.1011   -1.2707 N   0  0  0  0  0  0  0  0  0  0  0  0
   -8.7986  -14.5261   -1.2411 C   0  0  0  0  0  0  0  0  0  0  0  0
   -9.1197  -15.7073   -1.0037 O   0  0  0  0  0  0  0  0  0  0  0  0
   -9.8192  -13.4960   -1.6173 C   0  0  0  0  0  0  0  0  0  0  0  0
   -7.3685  -13.1753   -1.5541 H   0  0  0  0  0  0  0  0  0  0  0  0
   -2.2191  -16.0713   -0.5228 C   0  0  0  0  0  0  0  0  0  0  0  0
   -1.4412  -15.3883    0.1908 O   0  0  0  0  0  0  0  0  0  0  0  0
   -1.8644  -17.0935   -1.1683 O   0  0  0  0  0  0  0  0  0  0  0  0
   -2.4906  -17.5626   -1.6839 H   0  0  0  0  0  0  0  0  0  0  0  0
   -6.2291  -15.9474   -3.1380 O   0  0  0  0  0  0  0  0  0  0  0  0
   -6.2357  -15.3056   -4.4456 C   0  0  0  0  0  0  0  0  0  0  0  0
   -5.5009  -16.1232   -5.5337 C   0  0  0  0  0  0  0  0  0  0  0  0
   -5.0210  -17.4727   -5.0804 C   0  0  0  0  0  0  0  0  0  0  0  0
   -7.6582  -15.0345   -4.8276 C   0  0  0  0  0  0  0  0  0  0  0  0
   -8.5591  -16.2246   -4.5275 C   0  0  0  0  0  0  0  0  0  0  0  0
 15 16  2  0  0  0
 15 17  1  0  0  0
 15  1  1  0  0  0
  1  2  1  0  0  0
  1  6  2  0  0  0
  2  3  1  0  0  0
  3  4  1  0  0  0
  3  7  1  0  0  0
  4 10  1  0  0  0
  4  5  1  0  0  0
 10 11  1  0  0  0
 11 12  2  0  0  0
 11 13  1  0  0  0
  5  6  1  0  0  0
  5 19  1  0  0  0
 19 20  1  0  0  0
 20 21  1  0  0  0
 20 23  1  0  0  0
 21 22  1  0  0  0
 23 24  1  0  0  0
 17 18  1  0  0  0
 10 14  1  0  0  0
  7  8  1  0  0  0
  7  9  1  0  0  0
M  END
> <minimizedAffinity>
-0.00043

$$$$
5NZE_G39_A_503


 24 24  0  0  0  0  0  0  0  0999 V2000
   -3.0321  -14.3761   -4.7145 C   0  0  0  0  0  0  0  0  0  0  0  0
   -3.3294  -12.9910   -4.1568 C   0  0  0  0  0  0  0  0  0  0  0  0
   -4.7762  -12.9210   -3.5827 C   0  0  0  0  0  0  0  0  0  0  0  0
   -5.0964  -14.1420   -2.6956 C   0  0  0  0  0  0  0  0  0  0  0  0
   -5.0383  -15.3706   -3.5553 C   0  0  0  0  0  0  0  0  0  0  0  0
   -3.7969  -15.4415   -4.3917 C   0  0  0  0  0  0  0  0  0  0  0  0
   -4.9662  -11.6605   -2.8549 N   0  0  0  0  0  0  0  0  0  0  0  0
   -4.3158  -11.6195   -2.0703 H   0  0  0  0  0  0  0  0  0  0  0  0
   -5.9234  -11.6103   -2.5060 H   0  0  0  0  0  0  0  0  0  0  0  0
   -6.4866  -14.0357   -2.1972 N   0  0  0  0  0  0  0  0  0  0  0  0
   -6.7919  -14.1285   -0.9143 C   0  0  0  0  0  0  0  0  0  0  0  0
   -5.9644  -14.4204   -0.0284 O   0  0  0  0  0  0  0  0  0  0  0  0
   -8.2468  -13.9543   -0.6021 C   0  0  0  0  0  0  0  0  0  0  0  0
   -7.2120  -13.8902   -2.8467 H   0  0  0  0  0  0  0  0  0  0  0  0
   -1.9678  -14.5332   -5.6845 C   0  0  0  0  0  0  0  0  0  0  0  0
   -1.2567  -15.5692   -5.6416 O   0  0  0  0  0  0  0  0  0  0  0  0
   -1.8022  -13.6018   -6.5166 O   0  0  0  0  0  0  0  0  0  0  0  0
   -2.3650  -12.8528   -6.4996 H   0  0  0  0  0  0  0  0  0  0  0  0
   -5.1684  -16.5960   -2.7801 O   0  0  0  0  0  0  0  0  0  0  0  0
   -6.1819  -17.4888   -3.3255 C   0  0  0  0  0  0  0  0  0  0  0  0
   -5.6223  -18.8682   -3.7456 C   0  0  0  0  0  0  0  0  0  0  0  0
   -4.1693  -19.0742   -3.4245 C   0  0  0  0  0  0  0  0  0  0  0  0
   -7.2796  -17.6244   -2.3158 C   0  0  0  0  0  0  0  0  0  0  0  0
   -6.7308  -17.8371   -0.9116 C   0  0  0  0  0  0  0  0  0  0  0  0
 15 16  2  0  0  0
 15 17  1  0  0  0
 15  1  1  0  0  0
  1  2  1  0  0  0
  1  6  2  0  0  0
  2  3  1  0  0  0
  3  4  1  0  0  0
  3  7  1  0  0  0
  4 10  1  0  0  0
  4  5  1  0  0  0
 10 11  1  0  0  0
 11 12  2  0  0  0
 11 13  1  0  0  0
  5  6  1  0  0  0
  5 19  1  0  0  0
 19 20  1  0  0  0
 20 21  1  0  0  0
 20 23  1  0  0  0
 21 22  1  0  0  0
 23 24  1  0  0  0
 17 18  1  0  0  0
 10 14  1  0  0  0
  7  8  1  0  0  0
  7  9  1  0  0  0
M  END
> <minimizedAffinity>
-0.00036

$$$$
5NZE_G39_A_503


 24 24  0  0  0  0  0  0  0  0999 V2000
   -9.2364  -13.2799    5.6454 C   0  0  0  0  0  0  0  0  0  0  0  0
   -7.7836  -13.7242    5.5454 C   0  0  0  0  0  0  0  0  0  0  0  0
   -7.6580  -15.0319    4.7077 C   0  0  0  0  0  0  0  0  0  0  0  0
   -8.4821  -14.9554    3.4057 C   0  0  0  0  0  0  0  0  0  0  0  0
   -9.9301  -14.8255    3.7778 C   0  0  0  0  0  0  0  0  0  0  0  0
  -10.1772  -13.7631    4.8055 C   0  0  0  0  0  0  0  0  0  0  0  0
   -6.2444  -15.3189    4.4355 N   0  0  0  0  0  0  0  0  0  0  0  0
   -5.8419  -14.5573    3.8892 H   0  0  0  0  0  0  0  0  0  0  0  0
   -6.1693  -16.1904    3.9107 H   0  0  0  0  0  0  0  0  0  0  0  0
   -8.3455  -16.2288    2.6626 N   0  0  0  0  0  0  0  0  0  0  0  0
   -7.9770  -16.2765    1.3939 C   0  0  0  0  0  0  0  0  0  0  0  0
   -7.8196  -15.2639    0.6835 O   0  0  0  0  0  0  0  0  0  0  0  0
   -7.8556  -17.6584    0.8281 C   0  0  0  0  0  0  0  0  0  0  0  0
   -8.5366  -17.0730    3.1317 H   0  0  0  0  0  0  0  0  0  0  0  0
   -9.6320  -12.3967    6.7231 C   0  0  0  0  0  0  0  0  0  0  0  0
  -10.4797  -11.4978    6.4899 O   0  0  0  0  0  0  0  0  0  0  0  0
   -9.0837  -12.5710    7.8440 O   0  0  0  0  0  0  0  0  0  0  0  0
   -8.4580  -13.2591    7.9575 H   0  0  0  0  0  0  0  0  0  0  0  0
  -10.7801  -14.5845    2.6208 O   0  0  0  0  0  0  0  0  0  0  0  0
  -11.9089  -15.5035    2.5646 C   0  0  0  0  0  0  0  0  0  0  0  0
  -13.2816  -14.7931    2.6240 C   0  0  0  0  0  0  0  0  0  0  0  0
  -13.2075  -13.2929    2.6003 C   0  0  0  0  0  0  0  0  0  0  0  0
  -11.7736  -16.3372    1.3280 C   0  0  0  0  0  0  0  0  0  0  0  0
  -11.3717  -15.4975    0.1231 C   0  0  0  0  0  0  0  0  0  0  0  0
 15 16  2  0  0  0
 15 17  1  0  0  0
 15  1  1  0  0  0
  1  2  1  0  0  0
  1  6  2  0  0  0
  2  3  1  0  0  0
  3  4  1  0  0  0
  3  7  1  0  0  0
  4 10  1  0  0  0
  4  5  1  0  0  0
 10 11  1  0  0  0
 11 12  2  0  0  0
 11 13  1  0  0  0
  5  6  1  0  0  0
  5 19  1  0  0  0
 19 20  1  0  0  0
 20 21  1  0  0  0
 20 23  1  0  0  0
 21 22  1  0  0  0
 23 24  1  0  0  0
 17 18  1  0  0  0
 10 14  1  0  0  0
  7  8  1  0  0  0
  7  9  1  0  0  0
M  END
> <minimizedAffinity>
-0.00035

$$$$
