5NZE_G39_A_503
  RCSB PDB06301801303D
Coordinates from PDB:5NZE:A:503 Model:1 without hydrogens
 20 20  0  0  0  0            999 V2000
   -5.5920  -12.4750    0.5960   C 0  0  0  0  0  0  0  0  0  0  0  0
   -4.7980  -12.0430   -0.2780   O 0  0  0  0  0  0  0  0  0  0  0  0
   -5.3890  -12.3830    1.8360   O 0  0  0  0  0  0  0  0  0  0  0  0
   -6.8070  -13.1380    0.1690   C 0  0  0  0  0  0  0  0  0  0  0  0
   -7.0920  -13.2780   -1.3200   C 0  0  0  0  0  0  0  0  0  0  0  0
   -8.1020  -14.4340   -1.5870   C 0  0  0  0  0  0  0  0  0  0  0  0
   -9.3050  -14.3730   -0.6230   C 0  0  0  0  0  0  0  0  0  0  0  0
  -10.2180  -15.5040   -0.9050   N 0  0  0  0  0  0  0  0  0  0  0  0
  -11.4350  -15.3320   -1.3920   C 0  0  0  0  0  0  0  0  0  0  0  0
  -11.9610  -14.2130   -1.5530   O 0  0  0  0  0  0  0  0  0  0  0  0
  -12.1920  -16.5990   -1.6490   C 0  0  0  0  0  0  0  0  0  0  0  0
   -8.7930  -14.5690    0.7740   C 0  0  0  0  0  0  0  0  0  0  0  0
   -7.6170  -13.6970    1.0940   C 0  0  0  0  0  0  0  0  0  0  0  0
   -9.8290  -14.3690    1.7770   O 0  0  0  0  0  0  0  0  0  0  0  0
  -10.2850  -15.6250    2.3570   C 0  0  0  0  0  0  0  0  0  0  0  0
   -9.2280  -16.3030    3.2600   C 0  0  0  0  0  0  0  0  0  0  0  0
  -11.5580  -15.3630    3.1010   C 0  0  0  0  0  0  0  0  0  0  0  0
  -12.6660  -14.8860    2.1720   C 0  0  0  0  0  0  0  0  0  0  0  0
   -8.8280  -15.4970    4.4630   C 0  0  0  0  0  0  0  0  0  0  0  0
   -8.5330  -14.4090   -2.9900   N 0  0  0  0  0  0  0  0  0  0  0  0
  1  2  2  0  0  0  0
  1  3  1  0  0  0  0
  1  4  1  0  0  0  0
  4  5  1  0  0  0  0
  4 13  2  0  0  0  0
  5  6  1  0  0  0  0
  6  7  1  0  0  0  0
  6 20  1  0  0  0  0
  7  8  1  0  0  0  0
  7 12  1  0  0  0  0
  8  9  1  0  0  0  0
  9 10  2  0  0  0  0
  9 11  1  0  0  0  0
 12 13  1  0  0  0  0
 12 14  1  0  0  0  0
 14 15  1  0  0  0  0
 15 16  1  0  0  0  0
 15 17  1  0  0  0  0
 16 19  1  0  0  0  0
 17 18  1  0  0  0  0
A    1
C1
A    2
O1A
A    3
O1B
A    4
C2
A    5
C3
A    6
C4
A    7
C5
A    8
N5
A    9
C10
A   10
O10
A   11
C11
A   12
C6
A   13
C7
A   14
O7
A   15
C8
A   16
C9
A   17
C81
A   18
C82
A   19
C91
A   20
N4
M  END
>  <InstanceId>
5NZE_G39_A_503

>  <ChemCompId>
G39

>  <PdbId>
5NZE

>  <ChainId>
A

>  <ResidueNumber>
503

>  <InsertionCode>


>  <Model>
1

>  <AltIds>


>  <MissingHeavyAtoms>
0

>  <ObservedFormula>
C14 N2 O4

>  <Name>
(3R,4R,5S)-4-(acetylamino)-5-amino-3-(pentan-3-yloxy)cyclohex-1-ene-1-carboxylic acid

>  <SystematicName>
(3R,4R,5S)-4-acetamido-5-azanyl-3-pentan-3-yloxy-cyclohexene-1-carboxylic acid

>  <Synonyms>
Oseltamivir carboxylate

>  <Type>
NON-POLYMER

>  <Formula>
C14 H24 N2 O4

>  <MolecularWeight>
284.351

>  <ModifiedDate>
2011-06-04

>  <Parent>


>  <OneLetterCode>


>  <SubcomponentList>


>  <AmbiguousFlag>
N

>  <InChI>
InChI=1S/C14H24N2O4/c1-4-10(5-2)20-12-7-9(14(18)19)6-11(15)13(12)16-8(3)17/h7,10-13H,4-6,15H2,1-3H3,(H,16,17)(H,18,19)/t11-,12+,13+/m0/s1

>  <InChIKey>
NENPYTRHICXVCS-YNEHKIRRSA-N

>  <SMILES>
CCC(CC)O[C@@H]1C=C(C[C@@H]([C@H]1NC(=O)C)N)C(=O)O

$$$$
