4J7E_I29_A_201


 37 40  0  0  0  0  0  0  0  0999 V2000
  -12.6485   -8.8511    2.4695 N   0  0  0  0  0  0  0  0  0  0  0  0
  -11.8426   -9.4941    1.4327 C   0  0  0  0  0  0  0  0  0  0  0  0
  -10.7933   -8.5424    0.8463 C   0  0  0  0  0  0  0  0  0  0  0  0
  -11.1755  -10.6196    2.2893 C   0  0  0  0  0  0  0  0  0  0  0  0
   -9.8077  -10.1411    2.7919 C   0  0  0  0  0  0  0  0  0  0  0  0
  -12.0925  -10.7833    3.4431 N   0  0  0  0  0  0  0  0  0  0  0  0
  -12.9464   -9.8339    3.4556 C   0  0  0  0  0  0  0  0  0  0  0  0
  -14.1870   -9.7596    4.3005 C   0  0  0  0  0  0  0  0  0  0  0  0
  -13.3679   -7.6200    2.2236 C   0  0  0  0  0  0  0  0  0  0  0  0
  -13.4213   -7.1466    1.0711 O   0  0  0  0  0  0  0  0  0  0  0  0
  -13.9850   -6.9630    3.3137 N   0  0  0  0  0  0  0  0  0  0  0  0
  -15.2843   -6.3291    3.1242 C   0  0  0  0  0  0  0  0  0  0  0  0
  -16.0459   -6.3290    4.4311 C   0  0  0  0  0  0  0  0  0  0  0  0
  -15.3645   -5.4711    5.4092 N   0  0  0  0  0  0  0  0  0  0  0  0
  -13.8978   -5.7784    5.5301 C   0  0  0  0  0  0  0  0  0  0  0  0
  -13.4572   -7.0193    4.7025 C   0  0  0  0  0  0  0  0  0  0  0  0
  -12.7529  -10.0685    0.3439 C   0  0  0  0  0  0  0  0  0  0  0  0
  -14.0831  -10.4026    0.6489 C   0  0  0  0  0  0  0  0  0  0  0  0
  -14.8895  -11.0289   -0.2980 C   0  0  0  0  0  0  0  0  0  0  0  0
  -14.3711  -11.3328   -1.5589 C   0  0  0  0  0  0  0  0  0  0  0  0
  -15.3382  -12.2780   -2.6940 Cl  0  0  0  0  0  0  0  0  0  0  0  0
  -13.0790  -10.9168   -1.9081 C   0  0  0  0  0  0  0  0  0  0  0  0
  -12.2708  -10.2869   -0.9532 C   0  0  0  0  0  0  0  0  0  0  0  0
  -11.0190  -11.9181    1.5460 C   0  0  0  0  0  0  0  0  0  0  0  0
   -9.8171  -12.1969    0.8835 C   0  0  0  0  0  0  0  0  0  0  0  0
   -9.6680  -13.3898    0.1821 C   0  0  0  0  0  0  0  0  0  0  0  0
  -10.7282  -14.2989    0.1347 C   0  0  0  0  0  0  0  0  0  0  0  0
  -10.5723  -15.7601   -0.8201 Cl  0  0  0  0  0  0  0  0  0  0  0  0
  -11.9160  -14.0413    0.8214 C   0  0  0  0  0  0  0  0  0  0  0  0
  -12.0569  -12.8476    1.5252 C   0  0  0  0  0  0  0  0  0  0  0  0
  -16.0523   -5.5477    6.7202 C   0  0  0  0  0  0  0  0  0  0  0  0
  -16.8999   -6.8197    6.8154 C   0  0  0  0  0  0  0  0  0  0  0  0
  -16.2280   -7.8403    7.7429 C   0  0  0  0  0  0  0  0  0  0  0  0
  -16.6851   -9.5053    7.2987 S   0  0  0  0  0  0  0  0  0  0  0  0
  -17.9158   -9.9884    8.4916 C   0  0  0  0  0  0  0  0  0  0  0  0
  -15.5182  -10.3701    7.4564 O   0  0  0  0  0  0  0  0  0  0  0  0
  -17.3029   -9.4815    5.9750 O   0  0  0  0  0  0  0  0  0  0  0  0
 21 20  1  0  0  0
 22 20  2  0  0  0
 22 23  1  0  0  0
 20 19  1  0  0  0
 23 17  2  0  0  0
 28 27  1  0  0  0
 19 18  2  0  0  0
 27 26  2  0  0  0
 27 29  1  0  0  0
 17 18  1  0  0  0
 17  2  1  0  0  0
 26 25  1  0  0  0
 29 30  2  0  0  0
  3  2  1  0  0  0
 10  9  2  0  0  0
 25 24  2  0  0  0
  2  4  1  0  0  0
  2  1  1  0  0  0
 30 24  1  0  0  0
 24  4  1  0  0  0
  9  1  1  0  0  0
  9 11  1  0  0  0
  4  5  1  0  0  0
  4  6  1  0  0  0
  1  7  1  0  0  0
 12 11  1  0  0  0
 12 13  1  0  0  0
 11 16  1  0  0  0
  7  6  2  0  0  0
  7  8  1  0  0  0
 13 14  1  0  0  0
 16 15  1  0  0  0
 14 15  1  0  0  0
 14 31  1  0  0  0
 31 32  1  0  0  0
 32 33  1  0  0  0
 33 34  1  0  0  0
 37 34  2  0  0  0
 34 36  2  0  0  0
 34 35  1  0  0  0
M  END
> <minimizedAffinity>
-7.54473

$$$$
4J7E_I29_A_201


 37 40  0  0  0  0  0  0  0  0999 V2000
  -12.6350   -8.7883    2.5232 N   0  0  0  0  0  0  0  0  0  0  0  0
  -11.8390   -9.4327    1.4796 C   0  0  0  0  0  0  0  0  0  0  0  0
  -10.7936   -8.4824    0.8838 C   0  0  0  0  0  0  0  0  0  0  0  0
  -11.1658  -10.5586    2.3309 C   0  0  0  0  0  0  0  0  0  0  0  0
   -9.7931  -10.0815    2.8215 C   0  0  0  0  0  0  0  0  0  0  0  0
  -12.0730  -10.7208    3.4927 N   0  0  0  0  0  0  0  0  0  0  0  0
  -12.9256   -9.7704    3.5122 C   0  0  0  0  0  0  0  0  0  0  0  0
  -14.1588   -9.6943    4.3677 C   0  0  0  0  0  0  0  0  0  0  0  0
  -13.3551   -7.5565    2.2830 C   0  0  0  0  0  0  0  0  0  0  0  0
  -13.4179   -7.0834    1.1308 O   0  0  0  0  0  0  0  0  0  0  0  0
  -13.9620   -6.8983    3.3782 N   0  0  0  0  0  0  0  0  0  0  0  0
  -15.2622   -6.2629    3.1997 C   0  0  0  0  0  0  0  0  0  0  0  0
  -16.0124   -6.2614    4.5130 C   0  0  0  0  0  0  0  0  0  0  0  0
  -15.3216   -5.4041    5.4849 N   0  0  0  0  0  0  0  0  0  0  0  0
  -13.8542   -5.7131    5.5933 C   0  0  0  0  0  0  0  0  0  0  0  0
  -13.4223   -6.9548    4.7624 C   0  0  0  0  0  0  0  0  0  0  0  0
  -12.7593  -10.0063    0.3990 C   0  0  0  0  0  0  0  0  0  0  0  0
  -14.0924  -10.3218    0.7109 C   0  0  0  0  0  0  0  0  0  0  0  0
  -14.9090  -10.9472   -0.2276 C   0  0  0  0  0  0  0  0  0  0  0  0
  -14.3981  -11.2690   -1.4871 C   0  0  0  0  0  0  0  0  0  0  0  0
  -15.3798  -12.2133   -2.6105 Cl  0  0  0  0  0  0  0  0  0  0  0  0
  -13.1022  -10.8717   -1.8440 C   0  0  0  0  0  0  0  0  0  0  0  0
  -12.2838  -10.2426   -0.8975 C   0  0  0  0  0  0  0  0  0  0  0  0
  -11.0173  -11.8576    1.5867 C   0  0  0  0  0  0  0  0  0  0  0  0
   -9.8496  -12.1075    0.8552 C   0  0  0  0  0  0  0  0  0  0  0  0
   -9.7089  -13.3009    0.1527 C   0  0  0  0  0  0  0  0  0  0  0  0
  -10.7439  -14.2394    0.1737 C   0  0  0  0  0  0  0  0  0  0  0  0
  -10.6040  -15.7026   -0.7806 Cl  0  0  0  0  0  0  0  0  0  0  0  0
  -11.8955  -14.0101    0.9287 C   0  0  0  0  0  0  0  0  0  0  0  0
  -12.0279  -12.8157    1.6331 C   0  0  0  0  0  0  0  0  0  0  0  0
  -15.9981   -5.4794    6.8019 C   0  0  0  0  0  0  0  0  0  0  0  0
  -17.1180   -4.4391    6.8975 C   0  0  0  0  0  0  0  0  0  0  0  0
  -18.4146   -5.0949    7.3897 C   0  0  0  0  0  0  0  0  0  0  0  0
  -19.4080   -5.6544    6.0191 S   0  0  0  0  0  0  0  0  0  0  0  0
  -21.0937   -5.5299    6.5795 C   0  0  0  0  0  0  0  0  0  0  0  0
  -19.1046   -7.0603    5.7627 O   0  0  0  0  0  0  0  0  0  0  0  0
  -19.2195   -4.7337    4.9005 O   0  0  0  0  0  0  0  0  0  0  0  0
 21 20  1  0  0  0
 22 20  2  0  0  0
 22 23  1  0  0  0
 20 19  1  0  0  0
 23 17  2  0  0  0
 28 27  1  0  0  0
 19 18  2  0  0  0
 27 26  2  0  0  0
 27 29  1  0  0  0
 17 18  1  0  0  0
 17  2  1  0  0  0
 26 25  1  0  0  0
 29 30  2  0  0  0
  3  2  1  0  0  0
 10  9  2  0  0  0
 25 24  2  0  0  0
  2  4  1  0  0  0
  2  1  1  0  0  0
 30 24  1  0  0  0
 24  4  1  0  0  0
  9  1  1  0  0  0
  9 11  1  0  0  0
  4  5  1  0  0  0
  4  6  1  0  0  0
  1  7  1  0  0  0
 12 11  1  0  0  0
 12 13  1  0  0  0
 11 16  1  0  0  0
  7  6  2  0  0  0
  7  8  1  0  0  0
 13 14  1  0  0  0
 16 15  1  0  0  0
 14 15  1  0  0  0
 14 31  1  0  0  0
 31 32  1  0  0  0
 32 33  1  0  0  0
 33 34  1  0  0  0
 37 34  2  0  0  0
 34 36  2  0  0  0
 34 35  1  0  0  0
M  END
> <minimizedAffinity>
-7.54290

$$$$
4J7E_I29_A_201


 37 40  0  0  0  0  0  0  0  0999 V2000
  -12.6292   -8.7405    2.5063 N   0  0  0  0  0  0  0  0  0  0  0  0
  -11.8413   -9.3918    1.4608 C   0  0  0  0  0  0  0  0  0  0  0  0
  -10.8032   -8.4445    0.8480 C   0  0  0  0  0  0  0  0  0  0  0  0
  -11.1584  -10.5097    2.3150 C   0  0  0  0  0  0  0  0  0  0  0  0
   -9.7822  -10.0261    2.7893 C   0  0  0  0  0  0  0  0  0  0  0  0
  -12.0547  -10.6641    3.4862 N   0  0  0  0  0  0  0  0  0  0  0  0
  -12.9089   -9.7152    3.5057 C   0  0  0  0  0  0  0  0  0  0  0  0
  -14.1345   -9.6344    4.3717 C   0  0  0  0  0  0  0  0  0  0  0  0
  -13.3537   -7.5120    2.2628 C   0  0  0  0  0  0  0  0  0  0  0  0
  -13.4278   -7.0483    1.1075 O   0  0  0  0  0  0  0  0  0  0  0  0
  -13.9519   -6.8461    3.3581 N   0  0  0  0  0  0  0  0  0  0  0  0
  -15.2549   -6.2146    3.1863 C   0  0  0  0  0  0  0  0  0  0  0  0
  -15.9932   -6.2039    4.5063 C   0  0  0  0  0  0  0  0  0  0  0  0
  -15.2952   -5.3375    5.4650 N   0  0  0  0  0  0  0  0  0  0  0  0
  -13.8264   -5.6429    5.5625 C   0  0  0  0  0  0  0  0  0  0  0  0
  -13.3996   -6.8905    4.7377 C   0  0  0  0  0  0  0  0  0  0  0  0
  -12.7703   -9.9758    0.3932 C   0  0  0  0  0  0  0  0  0  0  0  0
  -14.0929  -10.3133    0.7258 C   0  0  0  0  0  0  0  0  0  0  0  0
  -14.9151  -10.9480   -0.2017 C   0  0  0  0  0  0  0  0  0  0  0  0
  -14.4201  -11.2571   -1.4707 C   0  0  0  0  0  0  0  0  0  0  0  0
  -15.4053  -12.2125   -2.5815 Cl  0  0  0  0  0  0  0  0  0  0  0  0
  -13.1366  -10.8381   -1.8473 C   0  0  0  0  0  0  0  0  0  0  0  0
  -12.3126  -10.1998   -0.9118 C   0  0  0  0  0  0  0  0  0  0  0  0
  -11.0141  -11.8143    1.5799 C   0  0  0  0  0  0  0  0  0  0  0  0
   -9.8401  -12.0804    0.8643 C   0  0  0  0  0  0  0  0  0  0  0  0
   -9.7031  -13.2791    0.1703 C   0  0  0  0  0  0  0  0  0  0  0  0
  -10.7480  -14.2068    0.1837 C   0  0  0  0  0  0  0  0  0  0  0  0
  -10.6114  -15.6767   -0.7607 Cl  0  0  0  0  0  0  0  0  0  0  0  0
  -11.9063  -13.9613    0.9231 C   0  0  0  0  0  0  0  0  0  0  0  0
  -12.0351  -12.7617    1.6191 C   0  0  0  0  0  0  0  0  0  0  0  0
  -15.9598   -5.4034    6.7885 C   0  0  0  0  0  0  0  0  0  0  0  0
  -17.0917   -4.3759    6.8799 C   0  0  0  0  0  0  0  0  0  0  0  0
  -16.6342   -3.0264    6.3113 C   0  0  0  0  0  0  0  0  0  0  0  0
  -15.6529   -2.1315    7.5008 S   0  0  0  0  0  0  0  0  0  0  0  0
  -16.0284   -0.4133    7.2213 C   0  0  0  0  0  0  0  0  0  0  0  0
  -14.2396   -2.3539    7.2054 O   0  0  0  0  0  0  0  0  0  0  0  0
  -16.1020   -2.4945    8.8428 O   0  0  0  0  0  0  0  0  0  0  0  0
 21 20  1  0  0  0
 22 20  2  0  0  0
 22 23  1  0  0  0
 20 19  1  0  0  0
 23 17  2  0  0  0
 28 27  1  0  0  0
 19 18  2  0  0  0
 27 26  2  0  0  0
 27 29  1  0  0  0
 17 18  1  0  0  0
 17  2  1  0  0  0
 26 25  1  0  0  0
 29 30  2  0  0  0
  3  2  1  0  0  0
 10  9  2  0  0  0
 25 24  2  0  0  0
  2  4  1  0  0  0
  2  1  1  0  0  0
 30 24  1  0  0  0
 24  4  1  0  0  0
  9  1  1  0  0  0
  9 11  1  0  0  0
  4  5  1  0  0  0
  4  6  1  0  0  0
  1  7  1  0  0  0
 12 11  1  0  0  0
 12 13  1  0  0  0
 11 16  1  0  0  0
  7  6  2  0  0  0
  7  8  1  0  0  0
 13 14  1  0  0  0
 16 15  1  0  0  0
 14 15  1  0  0  0
 14 31  1  0  0  0
 31 32  1  0  0  0
 32 33  1  0  0  0
 33 34  1  0  0  0
 37 34  2  0  0  0
 34 36  2  0  0  0
 34 35  1  0  0  0
M  END
> <minimizedAffinity>
-6.72803

$$$$
4J7E_I29_A_201


 37 40  0  0  0  0  0  0  0  0999 V2000
  -14.1077   -8.8484    5.7049 N   0  0  0  0  0  0  0  0  0  0  0  0
  -14.7943   -8.0237    6.6980 C   0  0  0  0  0  0  0  0  0  0  0  0
  -13.8196   -7.4107    7.7103 C   0  0  0  0  0  0  0  0  0  0  0  0
  -15.3947   -6.9324    5.7523 C   0  0  0  0  0  0  0  0  0  0  0  0
  -14.4447   -5.7300    5.6861 C   0  0  0  0  0  0  0  0  0  0  0  0
  -15.4423   -7.5939    4.4260 N   0  0  0  0  0  0  0  0  0  0  0  0
  -14.7932   -8.6928    4.4668 C   0  0  0  0  0  0  0  0  0  0  0  0
  -14.8003   -9.7735    3.4224 C   0  0  0  0  0  0  0  0  0  0  0  0
  -13.2420   -9.9426    6.0880 C   0  0  0  0  0  0  0  0  0  0  0  0
  -13.1660  -10.2908    7.2831 O   0  0  0  0  0  0  0  0  0  0  0  0
  -12.4767  -10.5872    5.0881 N   0  0  0  0  0  0  0  0  0  0  0  0
  -12.2949  -12.0327    5.1472 C   0  0  0  0  0  0  0  0  0  0  0  0
  -12.1055  -12.5794    3.7497 C   0  0  0  0  0  0  0  0  0  0  0  0
  -10.8469  -12.0797    3.1814 N   0  0  0  0  0  0  0  0  0  0  0  0
  -10.7055  -10.5880    3.3032 C   0  0  0  0  0  0  0  0  0  0  0  0
  -11.9743   -9.8925    3.8734 C   0  0  0  0  0  0  0  0  0  0  0  0
  -15.8865   -8.8418    7.3922 C   0  0  0  0  0  0  0  0  0  0  0  0
  -16.1994   -8.5904    8.7385 C   0  0  0  0  0  0  0  0  0  0  0  0
  -17.1093   -9.3983    9.4156 C   0  0  0  0  0  0  0  0  0  0  0  0
  -17.7116  -10.4707    8.7536 C   0  0  0  0  0  0  0  0  0  0  0  0
  -18.7297  -11.5931    9.6595 Cl  0  0  0  0  0  0  0  0  0  0  0  0
  -17.4829  -10.6719    7.3854 C   0  0  0  0  0  0  0  0  0  0  0  0
  -16.5672   -9.8570    6.7077 C   0  0  0  0  0  0  0  0  0  0  0  0
  -16.7663   -6.4752    6.1682 C   0  0  0  0  0  0  0  0  0  0  0  0
  -16.9001   -5.5183    7.1819 C   0  0  0  0  0  0  0  0  0  0  0  0
  -18.1654   -5.0991    7.5824 C   0  0  0  0  0  0  0  0  0  0  0  0
  -19.2979   -5.6479    6.9749 C   0  0  0  0  0  0  0  0  0  0  0  0
  -20.8914   -5.1855    7.5387 Cl  0  0  0  0  0  0  0  0  0  0  0  0
  -19.1695   -6.5767    5.9408 C   0  0  0  0  0  0  0  0  0  0  0  0
  -17.9000   -6.9885    5.5417 C   0  0  0  0  0  0  0  0  0  0  0  0
  -10.7072  -12.5325    1.7767 C   0  0  0  0  0  0  0  0  0  0  0  0
  -12.0765  -12.8537    1.1708 C   0  0  0  0  0  0  0  0  0  0  0  0
  -12.0511  -12.6402   -0.3482 C   0  0  0  0  0  0  0  0  0  0  0  0
  -13.2719  -11.4397   -0.8452 S   0  0  0  0  0  0  0  0  0  0  0  0
  -12.9308   -9.9910    0.1326 C   0  0  0  0  0  0  0  0  0  0  0  0
  -14.5965  -11.9420   -0.4880 O   0  0  0  0  0  0  0  0  0  0  0  0
  -13.0580  -11.1130   -2.2530 O   0  0  0  0  0  0  0  0  0  0  0  0
 21 20  1  0  0  0
 22 20  2  0  0  0
 22 23  1  0  0  0
 20 19  1  0  0  0
 23 17  2  0  0  0
 28 27  1  0  0  0
 19 18  2  0  0  0
 27 26  2  0  0  0
 27 29  1  0  0  0
 17 18  1  0  0  0
 17  2  1  0  0  0
 26 25  1  0  0  0
 29 30  2  0  0  0
  3  2  1  0  0  0
 10  9  2  0  0  0
 25 24  2  0  0  0
  2  4  1  0  0  0
  2  1  1  0  0  0
 30 24  1  0  0  0
 24  4  1  0  0  0
  9  1  1  0  0  0
  9 11  1  0  0  0
  4  5  1  0  0  0
  4  6  1  0  0  0
  1  7  1  0  0  0
 12 11  1  0  0  0
 12 13  1  0  0  0
 11 16  1  0  0  0
  7  6  2  0  0  0
  7  8  1  0  0  0
 13 14  1  0  0  0
 16 15  1  0  0  0
 14 15  1  0  0  0
 14 31  1  0  0  0
 31 32  1  0  0  0
 32 33  1  0  0  0
 33 34  1  0  0  0
 37 34  2  0  0  0
 34 36  2  0  0  0
 34 35  1  0  0  0
M  END
> <minimizedAffinity>
-6.27947

$$$$
4J7E_I29_A_201


 37 40  0  0  0  0  0  0  0  0999 V2000
  -12.4590   -8.8218    3.0232 N   0  0  0  0  0  0  0  0  0  0  0  0
  -11.7471   -8.8975    1.7483 C   0  0  0  0  0  0  0  0  0  0  0  0
  -12.3438   -7.9526    0.6987 C   0  0  0  0  0  0  0  0  0  0  0  0
  -10.3356   -8.4121    2.2151 C   0  0  0  0  0  0  0  0  0  0  0  0
  -10.2082   -6.9014    1.9821 C   0  0  0  0  0  0  0  0  0  0  0  0
  -10.3258   -8.6863    3.6723 N   0  0  0  0  0  0  0  0  0  0  0  0
  -11.5017   -8.9952    4.0627 C   0  0  0  0  0  0  0  0  0  0  0  0
  -11.8759   -9.5765    5.3971 C   0  0  0  0  0  0  0  0  0  0  0  0
  -13.8880   -9.0307    3.1132 C   0  0  0  0  0  0  0  0  0  0  0  0
  -14.5282   -9.4126    2.1136 O   0  0  0  0  0  0  0  0  0  0  0  0
  -14.5371   -8.7740    4.3436 N   0  0  0  0  0  0  0  0  0  0  0  0
  -15.6137   -9.6544    4.7815 C   0  0  0  0  0  0  0  0  0  0  0  0
  -15.6747   -9.6708    6.2927 C   0  0  0  0  0  0  0  0  0  0  0  0
  -16.0643   -8.3465    6.7940 N   0  0  0  0  0  0  0  0  0  0  0  0
  -15.2397   -7.2360    6.2047 C   0  0  0  0  0  0  0  0  0  0  0  0
  -14.0738   -7.7421    5.3085 C   0  0  0  0  0  0  0  0  0  0  0  0
  -11.7177  -10.3452    1.2509 C   0  0  0  0  0  0  0  0  0  0  0  0
  -11.7263  -11.4027    2.1758 C   0  0  0  0  0  0  0  0  0  0  0  0
  -11.5870  -12.7196    1.7451 C   0  0  0  0  0  0  0  0  0  0  0  0
  -11.4318  -12.9917    0.3839 C   0  0  0  0  0  0  0  0  0  0  0  0
  -11.0840  -14.6411   -0.1410 Cl  0  0  0  0  0  0  0  0  0  0  0  0
  -11.5203  -11.9556   -0.5560 C   0  0  0  0  0  0  0  0  0  0  0  0
  -11.6606  -10.6323   -0.1191 C   0  0  0  0  0  0  0  0  0  0  0  0
   -9.2043   -9.1299    1.5311 C   0  0  0  0  0  0  0  0  0  0  0  0
   -8.6154  -10.2411    2.1472 C   0  0  0  0  0  0  0  0  0  0  0  0
   -7.5593  -10.9035    1.5281 C   0  0  0  0  0  0  0  0  0  0  0  0
   -7.0853  -10.4449    0.2962 C   0  0  0  0  0  0  0  0  0  0  0  0
   -5.6999  -11.2243   -0.4417 Cl  0  0  0  0  0  0  0  0  0  0  0  0
   -7.6907   -9.3588   -0.3382 C   0  0  0  0  0  0  0  0  0  0  0  0
   -8.7502   -8.7033    0.2848 C   0  0  0  0  0  0  0  0  0  0  0  0
  -16.0277   -8.3318    8.2759 C   0  0  0  0  0  0  0  0  0  0  0  0
  -15.3536   -9.5968    8.8151 C   0  0  0  0  0  0  0  0  0  0  0  0
  -16.2150  -10.2335    9.9134 C   0  0  0  0  0  0  0  0  0  0  0  0
  -17.2155  -11.5543    9.2556 S   0  0  0  0  0  0  0  0  0  0  0  0
  -17.8543  -12.4129   10.6790 C   0  0  0  0  0  0  0  0  0  0  0  0
  -16.3545  -12.4675    8.5079 O   0  0  0  0  0  0  0  0  0  0  0  0
  -18.3357  -10.9696    8.5224 O   0  0  0  0  0  0  0  0  0  0  0  0
 21 20  1  0  0  0
 22 20  2  0  0  0
 22 23  1  0  0  0
 20 19  1  0  0  0
 23 17  2  0  0  0
 28 27  1  0  0  0
 19 18  2  0  0  0
 27 26  2  0  0  0
 27 29  1  0  0  0
 17 18  1  0  0  0
 17  2  1  0  0  0
 26 25  1  0  0  0
 29 30  2  0  0  0
  3  2  1  0  0  0
 10  9  2  0  0  0
 25 24  2  0  0  0
  2  4  1  0  0  0
  2  1  1  0  0  0
 30 24  1  0  0  0
 24  4  1  0  0  0
  9  1  1  0  0  0
  9 11  1  0  0  0
  4  5  1  0  0  0
  4  6  1  0  0  0
  1  7  1  0  0  0
 12 11  1  0  0  0
 12 13  1  0  0  0
 11 16  1  0  0  0
  7  6  2  0  0  0
  7  8  1  0  0  0
 13 14  1  0  0  0
 16 15  1  0  0  0
 14 15  1  0  0  0
 14 31  1  0  0  0
 31 32  1  0  0  0
 32 33  1  0  0  0
 33 34  1  0  0  0
 37 34  2  0  0  0
 34 36  2  0  0  0
 34 35  1  0  0  0
M  END
> <minimizedAffinity>
-6.19315

$$$$
4J7E_I29_A_201


 37 40  0  0  0  0  0  0  0  0999 V2000
  -12.4228   -8.6395    2.9019 N   0  0  0  0  0  0  0  0  0  0  0  0
  -11.6945   -8.7687    1.6406 C   0  0  0  0  0  0  0  0  0  0  0  0
  -12.3057   -7.9041    0.5317 C   0  0  0  0  0  0  0  0  0  0  0  0
  -10.3028   -8.2164    2.0919 C   0  0  0  0  0  0  0  0  0  0  0  0
  -10.2154   -6.7188    1.7721 C   0  0  0  0  0  0  0  0  0  0  0  0
  -10.3019   -8.4049    3.5627 N   0  0  0  0  0  0  0  0  0  0  0  0
  -11.4730   -8.7243    3.9590 C   0  0  0  0  0  0  0  0  0  0  0  0
  -11.8458   -9.2375    5.3214 C   0  0  0  0  0  0  0  0  0  0  0  0
  -13.8463   -8.8839    2.9901 C   0  0  0  0  0  0  0  0  0  0  0  0
  -14.4640   -9.3417    2.0083 O   0  0  0  0  0  0  0  0  0  0  0  0
  -14.5164   -8.5748    4.1969 N   0  0  0  0  0  0  0  0  0  0  0  0
  -15.5727   -9.4589    4.6751 C   0  0  0  0  0  0  0  0  0  0  0  0
  -15.6504   -9.3891    6.1840 C   0  0  0  0  0  0  0  0  0  0  0  0
  -16.0829   -8.0496    6.6031 N   0  0  0  0  0  0  0  0  0  0  0  0
  -15.2833   -6.9520    5.9579 C   0  0  0  0  0  0  0  0  0  0  0  0
  -14.0934   -7.4755    5.1042 C   0  0  0  0  0  0  0  0  0  0  0  0
  -11.6187  -10.2414    1.2291 C   0  0  0  0  0  0  0  0  0  0  0  0
  -11.5154  -11.2383    2.2138 C   0  0  0  0  0  0  0  0  0  0  0  0
  -11.3329  -12.5711    1.8540 C   0  0  0  0  0  0  0  0  0  0  0  0
  -11.2459  -12.9197    0.5042 C   0  0  0  0  0  0  0  0  0  0  0  0
  -10.8435  -14.5797    0.0572 Cl  0  0  0  0  0  0  0  0  0  0  0  0
  -11.4456  -11.9500   -0.4880 C   0  0  0  0  0  0  0  0  0  0  0  0
  -11.6292  -10.6105   -0.1223 C   0  0  0  0  0  0  0  0  0  0  0  0
   -9.1439   -8.9400    1.4622 C   0  0  0  0  0  0  0  0  0  0  0  0
   -8.7330   -8.5966    0.1682 C   0  0  0  0  0  0  0  0  0  0  0  0
   -7.6703   -9.2696   -0.4276 C   0  0  0  0  0  0  0  0  0  0  0  0
   -7.0264  -10.2954    0.2693 C   0  0  0  0  0  0  0  0  0  0  0  0
   -5.7463  -11.2013   -0.5130 Cl  0  0  0  0  0  0  0  0  0  0  0  0
   -7.4098  -10.6187    1.5721 C   0  0  0  0  0  0  0  0  0  0  0  0
   -8.4711   -9.9381    2.1641 C   0  0  0  0  0  0  0  0  0  0  0  0
  -16.0637   -7.9476    8.0819 C   0  0  0  0  0  0  0  0  0  0  0  0
  -17.2702   -7.1511    8.5872 C   0  0  0  0  0  0  0  0  0  0  0  0
  -18.5449   -7.5933    7.8572 C   0  0  0  0  0  0  0  0  0  0  0  0
  -19.2879   -6.2278    6.9844 S   0  0  0  0  0  0  0  0  0  0  0  0
  -18.4618   -4.7740    7.5971 C   0  0  0  0  0  0  0  0  0  0  0  0
  -20.7003   -6.1501    7.3496 O   0  0  0  0  0  0  0  0  0  0  0  0
  -18.9908   -6.3676    5.5608 O   0  0  0  0  0  0  0  0  0  0  0  0
 21 20  1  0  0  0
 22 20  2  0  0  0
 22 23  1  0  0  0
 20 19  1  0  0  0
 23 17  2  0  0  0
 28 27  1  0  0  0
 19 18  2  0  0  0
 27 26  2  0  0  0
 27 29  1  0  0  0
 17 18  1  0  0  0
 17  2  1  0  0  0
 26 25  1  0  0  0
 29 30  2  0  0  0
  3  2  1  0  0  0
 10  9  2  0  0  0
 25 24  2  0  0  0
  2  4  1  0  0  0
  2  1  1  0  0  0
 30 24  1  0  0  0
 24  4  1  0  0  0
  9  1  1  0  0  0
  9 11  1  0  0  0
  4  5  1  0  0  0
  4  6  1  0  0  0
  1  7  1  0  0  0
 12 11  1  0  0  0
 12 13  1  0  0  0
 11 16  1  0  0  0
  7  6  2  0  0  0
  7  8  1  0  0  0
 13 14  1  0  0  0
 16 15  1  0  0  0
 14 15  1  0  0  0
 14 31  1  0  0  0
 31 32  1  0  0  0
 32 33  1  0  0  0
 33 34  1  0  0  0
 37 34  2  0  0  0
 34 36  2  0  0  0
 34 35  1  0  0  0
M  END
> <minimizedAffinity>
-6.17772

$$$$
4J7E_I29_A_201


 37 40  0  0  0  0  0  0  0  0999 V2000
  -14.0782   -8.1932    5.3387 N   0  0  0  0  0  0  0  0  0  0  0  0
  -13.0784   -8.8100    4.4681 C   0  0  0  0  0  0  0  0  0  0  0  0
  -11.7710   -9.1058    5.2122 C   0  0  0  0  0  0  0  0  0  0  0  0
  -13.8367  -10.1280    4.1026 C   0  0  0  0  0  0  0  0  0  0  0  0
  -13.4163  -11.2468    5.0640 C   0  0  0  0  0  0  0  0  0  0  0  0
  -15.2638   -9.7958    4.3305 N   0  0  0  0  0  0  0  0  0  0  0  0
  -15.3560   -8.6763    4.9378 C   0  0  0  0  0  0  0  0  0  0  0  0
  -16.6079   -7.8693    5.1380 C   0  0  0  0  0  0  0  0  0  0  0  0
  -13.8000   -6.9847    6.0841 C   0  0  0  0  0  0  0  0  0  0  0  0
  -12.7341   -6.3654    5.8958 O   0  0  0  0  0  0  0  0  0  0  0  0
  -14.7468   -6.5390    7.0359 N   0  0  0  0  0  0  0  0  0  0  0  0
  -15.0005   -5.1101    7.1774 C   0  0  0  0  0  0  0  0  0  0  0  0
  -16.4191   -4.8899    7.6537 C   0  0  0  0  0  0  0  0  0  0  0  0
  -16.5805   -5.4220    9.0130 N   0  0  0  0  0  0  0  0  0  0  0  0
  -16.0778   -6.8323    9.1490 C   0  0  0  0  0  0  0  0  0  0  0  0
  -15.6297   -7.4604    7.7987 C   0  0  0  0  0  0  0  0  0  0  0  0
  -12.8399   -7.9286    3.2392 C   0  0  0  0  0  0  0  0  0  0  0  0
  -11.5760   -7.9109    2.6259 C   0  0  0  0  0  0  0  0  0  0  0  0
  -11.3108   -7.0326    1.5785 C   0  0  0  0  0  0  0  0  0  0  0  0
  -12.3065   -6.1581    1.1372 C   0  0  0  0  0  0  0  0  0  0  0  0
  -11.9161   -4.9311   -0.0707 Cl  0  0  0  0  0  0  0  0  0  0  0  0
  -13.5991   -6.2342    1.6739 C   0  0  0  0  0  0  0  0  0  0  0  0
  -13.8623   -7.1191    2.7272 C   0  0  0  0  0  0  0  0  0  0  0  0
  -13.6133  -10.5674    2.6813 C   0  0  0  0  0  0  0  0  0  0  0  0
  -14.5094  -10.1660    1.6829 C   0  0  0  0  0  0  0  0  0  0  0  0
  -14.3182  -10.5786    0.3674 C   0  0  0  0  0  0  0  0  0  0  0  0
  -13.2349  -11.4038    0.0542 C   0  0  0  0  0  0  0  0  0  0  0  0
  -13.0432  -11.9946   -1.5845 Cl  0  0  0  0  0  0  0  0  0  0  0  0
  -12.3197  -11.7789    1.0393 C   0  0  0  0  0  0  0  0  0  0  0  0
  -12.5144  -11.3587    2.3530 C   0  0  0  0  0  0  0  0  0  0  0  0
  -17.9936   -5.2979    9.4440 C   0  0  0  0  0  0  0  0  0  0  0  0
  -18.8987   -6.2060    8.6063 C   0  0  0  0  0  0  0  0  0  0  0  0
  -20.1156   -5.4229    8.0972 C   0  0  0  0  0  0  0  0  0  0  0  0
  -20.5410   -5.9120    6.4364 S   0  0  0  0  0  0  0  0  0  0  0  0
  -19.8728   -4.6384    5.3863 C   0  0  0  0  0  0  0  0  0  0  0  0
  -21.9960   -5.9092    6.3045 O   0  0  0  0  0  0  0  0  0  0  0  0
  -19.8627   -7.1699    6.1329 O   0  0  0  0  0  0  0  0  0  0  0  0
 21 20  1  0  0  0
 22 20  2  0  0  0
 22 23  1  0  0  0
 20 19  1  0  0  0
 23 17  2  0  0  0
 28 27  1  0  0  0
 19 18  2  0  0  0
 27 26  2  0  0  0
 27 29  1  0  0  0
 17 18  1  0  0  0
 17  2  1  0  0  0
 26 25  1  0  0  0
 29 30  2  0  0  0
  3  2  1  0  0  0
 10  9  2  0  0  0
 25 24  2  0  0  0
  2  4  1  0  0  0
  2  1  1  0  0  0
 30 24  1  0  0  0
 24  4  1  0  0  0
  9  1  1  0  0  0
  9 11  1  0  0  0
  4  5  1  0  0  0
  4  6  1  0  0  0
  1  7  1  0  0  0
 12 11  1  0  0  0
 12 13  1  0  0  0
 11 16  1  0  0  0
  7  6  2  0  0  0
  7  8  1  0  0  0
 13 14  1  0  0  0
 16 15  1  0  0  0
 14 15  1  0  0  0
 14 31  1  0  0  0
 31 32  1  0  0  0
 32 33  1  0  0  0
 33 34  1  0  0  0
 37 34  2  0  0  0
 34 36  2  0  0  0
 34 35  1  0  0  0
M  END
> <minimizedAffinity>
-6.02187

$$$$
4J7E_I29_A_201


 37 40  0  0  0  0  0  0  0  0999 V2000
  -12.7361   -6.4128    2.9183 N   0  0  0  0  0  0  0  0  0  0  0  0
  -11.9704   -6.7661    1.7238 C   0  0  0  0  0  0  0  0  0  0  0  0
  -12.2986   -5.8509    0.5382 C   0  0  0  0  0  0  0  0  0  0  0  0
  -10.5250   -6.5062    2.2611 C   0  0  0  0  0  0  0  0  0  0  0  0
  -10.0871   -5.0832    1.8921 C   0  0  0  0  0  0  0  0  0  0  0  0
  -10.6657   -6.6099    3.7336 N   0  0  0  0  0  0  0  0  0  0  0  0
  -11.9026   -6.6447    4.0490 C   0  0  0  0  0  0  0  0  0  0  0  0
  -12.4713   -6.9894    5.3967 C   0  0  0  0  0  0  0  0  0  0  0  0
  -14.1809   -6.3364    2.9041 C   0  0  0  0  0  0  0  0  0  0  0  0
  -14.8165   -6.7016    1.8952 O   0  0  0  0  0  0  0  0  0  0  0  0
  -14.8465   -5.8236    4.0421 N   0  0  0  0  0  0  0  0  0  0  0  0
  -16.1021   -6.4292    4.4697 C   0  0  0  0  0  0  0  0  0  0  0  0
  -16.2648   -6.2620    5.9641 C   0  0  0  0  0  0  0  0  0  0  0  0
  -16.4179   -4.8397    6.2965 N   0  0  0  0  0  0  0  0  0  0  0  0
  -15.3535   -3.9793    5.6744 C   0  0  0  0  0  0  0  0  0  0  0  0
  -14.2536   -4.7950    4.9370 C   0  0  0  0  0  0  0  0  0  0  0  0
  -12.1943   -8.2401    1.3760 C   0  0  0  0  0  0  0  0  0  0  0  0
  -12.1352   -8.6594    0.0364 C   0  0  0  0  0  0  0  0  0  0  0  0
  -12.4464   -9.9724   -0.3078 C   0  0  0  0  0  0  0  0  0  0  0  0
  -12.8259  -10.8785    0.6851 C   0  0  0  0  0  0  0  0  0  0  0  0
  -13.3845  -12.4896    0.2271 Cl  0  0  0  0  0  0  0  0  0  0  0  0
  -12.7935  -10.4997    2.0342 C   0  0  0  0  0  0  0  0  0  0  0  0
  -12.4797   -9.1783    2.3766 C   0  0  0  0  0  0  0  0  0  0  0  0
   -9.5147   -7.4978    1.7521 C   0  0  0  0  0  0  0  0  0  0  0  0
   -8.9624   -7.3315    0.4760 C   0  0  0  0  0  0  0  0  0  0  0  0
   -8.0369   -8.2513   -0.0085 C   0  0  0  0  0  0  0  0  0  0  0  0
   -7.6734   -9.3450    0.7816 C   0  0  0  0  0  0  0  0  0  0  0  0
   -6.5754  -10.5498    0.1381 Cl  0  0  0  0  0  0  0  0  0  0  0  0
   -8.1951   -9.4970    2.0674 C   0  0  0  0  0  0  0  0  0  0  0  0
   -9.1174   -8.5703    2.5480 C   0  0  0  0  0  0  0  0  0  0  0  0
  -16.4771   -4.6639    7.7673 C   0  0  0  0  0  0  0  0  0  0  0  0
  -17.8291   -4.0826    8.1909 C   0  0  0  0  0  0  0  0  0  0  0  0
  -18.8663   -4.2783    7.0776 C   0  0  0  0  0  0  0  0  0  0  0  0
  -20.0234   -5.5667    7.5016 S   0  0  0  0  0  0  0  0  0  0  0  0
  -19.8944   -6.7639    6.1896 C   0  0  0  0  0  0  0  0  0  0  0  0
  -21.3730   -5.0073    7.4912 O   0  0  0  0  0  0  0  0  0  0  0  0
  -19.5882   -6.1923    8.7480 O   0  0  0  0  0  0  0  0  0  0  0  0
 21 20  1  0  0  0
 22 20  2  0  0  0
 22 23  1  0  0  0
 20 19  1  0  0  0
 23 17  2  0  0  0
 28 27  1  0  0  0
 19 18  2  0  0  0
 27 26  2  0  0  0
 27 29  1  0  0  0
 17 18  1  0  0  0
 17  2  1  0  0  0
 26 25  1  0  0  0
 29 30  2  0  0  0
  3  2  1  0  0  0
 10  9  2  0  0  0
 25 24  2  0  0  0
  2  4  1  0  0  0
  2  1  1  0  0  0
 30 24  1  0  0  0
 24  4  1  0  0  0
  9  1  1  0  0  0
  9 11  1  0  0  0
  4  5  1  0  0  0
  4  6  1  0  0  0
  1  7  1  0  0  0
 12 11  1  0  0  0
 12 13  1  0  0  0
 11 16  1  0  0  0
  7  6  2  0  0  0
  7  8  1  0  0  0
 13 14  1  0  0  0
 16 15  1  0  0  0
 14 15  1  0  0  0
 14 31  1  0  0  0
 31 32  1  0  0  0
 32 33  1  0  0  0
 33 34  1  0  0  0
 37 34  2  0  0  0
 34 36  2  0  0  0
 34 35  1  0  0  0
M  END
> <minimizedAffinity>
-6.01151

$$$$
4J7E_I29_A_201


 37 40  0  0  0  0  0  0  0  0999 V2000
  -10.3668  -11.2895    3.1320 N   0  0  0  0  0  0  0  0  0  0  0  0
  -10.6098  -10.9801    1.7238 C   0  0  0  0  0  0  0  0  0  0  0  0
   -9.3110  -10.6706    0.9700 C   0  0  0  0  0  0  0  0  0  0  0  0
  -11.2235  -12.3435    1.2653 C   0  0  0  0  0  0  0  0  0  0  0  0
  -10.1190  -13.2354    0.6846 C   0  0  0  0  0  0  0  0  0  0  0  0
  -11.7330  -12.9475    2.5201 N   0  0  0  0  0  0  0  0  0  0  0  0
  -11.3086  -12.2825    3.5242 C   0  0  0  0  0  0  0  0  0  0  0  0
  -11.7836  -12.4088    4.9443 C   0  0  0  0  0  0  0  0  0  0  0  0
   -9.6474  -10.3823    3.9999 C   0  0  0  0  0  0  0  0  0  0  0  0
   -9.3302   -9.2471    3.5927 O   0  0  0  0  0  0  0  0  0  0  0  0
   -9.2985  -10.8172    5.3000 N   0  0  0  0  0  0  0  0  0  0  0  0
   -9.3761   -9.8784    6.4130 C   0  0  0  0  0  0  0  0  0  0  0  0
   -9.6583  -10.6307    7.6944 C   0  0  0  0  0  0  0  0  0  0  0  0
   -8.5198  -11.4958    8.0299 N   0  0  0  0  0  0  0  0  0  0  0  0
   -8.0805  -12.3526    6.8753 C   0  0  0  0  0  0  0  0  0  0  0  0
   -9.0088  -12.2369    5.6329 C   0  0  0  0  0  0  0  0  0  0  0  0
  -11.6161   -9.8323    1.6066 C   0  0  0  0  0  0  0  0  0  0  0  0
  -11.4039   -8.8093    0.6674 C   0  0  0  0  0  0  0  0  0  0  0  0
  -12.2478   -7.7025    0.6248 C   0  0  0  0  0  0  0  0  0  0  0  0
  -13.3103   -7.6050    1.5261 C   0  0  0  0  0  0  0  0  0  0  0  0
  -14.2713   -6.1250    1.5837 Cl  0  0  0  0  0  0  0  0  0  0  0  0
  -13.5911   -8.6636    2.4010 C   0  0  0  0  0  0  0  0  0  0  0  0
  -12.7402   -9.7753    2.4408 C   0  0  0  0  0  0  0  0  0  0  0  0
  -12.3328  -12.1879    0.2611 C   0  0  0  0  0  0  0  0  0  0  0  0
  -13.6566  -12.4319    0.6475 C   0  0  0  0  0  0  0  0  0  0  0  0
  -14.6881  -12.3034   -0.2781 C   0  0  0  0  0  0  0  0  0  0  0  0
  -14.3916  -11.9416   -1.5949 C   0  0  0  0  0  0  0  0  0  0  0  0
  -15.6791  -11.8650   -2.7813 Cl  0  0  0  0  0  0  0  0  0  0  0  0
  -13.0779  -11.6643   -1.9767 C   0  0  0  0  0  0  0  0  0  0  0  0
  -12.0509  -11.7903   -1.0442 C   0  0  0  0  0  0  0  0  0  0  0  0
   -8.8338  -12.3084    9.2295 C   0  0  0  0  0  0  0  0  0  0  0  0
   -9.2185  -13.7366    8.8326 C   0  0  0  0  0  0  0  0  0  0  0  0
  -10.7426  -13.9080    8.8688 C   0  0  0  0  0  0  0  0  0  0  0  0
  -11.2183  -15.5218    8.2787 S   0  0  0  0  0  0  0  0  0  0  0  0
   -9.7858  -16.5514    8.5216 C   0  0  0  0  0  0  0  0  0  0  0  0
  -11.4928  -15.4355    6.8464 O   0  0  0  0  0  0  0  0  0  0  0  0
  -12.3019  -16.0247    9.1196 O   0  0  0  0  0  0  0  0  0  0  0  0
 21 20  1  0  0  0
 22 20  2  0  0  0
 22 23  1  0  0  0
 20 19  1  0  0  0
 23 17  2  0  0  0
 28 27  1  0  0  0
 19 18  2  0  0  0
 27 26  2  0  0  0
 27 29  1  0  0  0
 17 18  1  0  0  0
 17  2  1  0  0  0
 26 25  1  0  0  0
 29 30  2  0  0  0
  3  2  1  0  0  0
 10  9  2  0  0  0
 25 24  2  0  0  0
  2  4  1  0  0  0
  2  1  1  0  0  0
 30 24  1  0  0  0
 24  4  1  0  0  0
  9  1  1  0  0  0
  9 11  1  0  0  0
  4  5  1  0  0  0
  4  6  1  0  0  0
  1  7  1  0  0  0
 12 11  1  0  0  0
 12 13  1  0  0  0
 11 16  1  0  0  0
  7  6  2  0  0  0
  7  8  1  0  0  0
 13 14  1  0  0  0
 16 15  1  0  0  0
 14 15  1  0  0  0
 14 31  1  0  0  0
 31 32  1  0  0  0
 32 33  1  0  0  0
 33 34  1  0  0  0
 37 34  2  0  0  0
 34 36  2  0  0  0
 34 35  1  0  0  0
M  END
> <minimizedAffinity>
-5.94407

$$$$
4J7E_I29_A_201


 37 40  0  0  0  0  0  0  0  0999 V2000
  -13.5195   -9.8711    4.1005 N   0  0  0  0  0  0  0  0  0  0  0  0
  -12.3995  -10.5152    3.4160 C   0  0  0  0  0  0  0  0  0  0  0  0
  -12.5343  -12.0425    3.4032 C   0  0  0  0  0  0  0  0  0  0  0  0
  -12.5950   -9.9141    1.9856 C   0  0  0  0  0  0  0  0  0  0  0  0
  -13.4276  -10.8785    1.1316 C   0  0  0  0  0  0  0  0  0  0  0  0
  -13.3708   -8.6725    2.2212 N   0  0  0  0  0  0  0  0  0  0  0  0
  -13.7892   -8.6459    3.4274 C   0  0  0  0  0  0  0  0  0  0  0  0
  -14.3957   -7.4678    4.1364 C   0  0  0  0  0  0  0  0  0  0  0  0
  -13.8865  -10.2173    5.4566 C   0  0  0  0  0  0  0  0  0  0  0  0
  -13.1658  -10.9873    6.1221 O   0  0  0  0  0  0  0  0  0  0  0  0
  -15.0802   -9.6833    5.9961 N   0  0  0  0  0  0  0  0  0  0  0  0
  -15.1103   -9.2674    7.3932 C   0  0  0  0  0  0  0  0  0  0  0  0
  -16.1194   -8.1549    7.5713 C   0  0  0  0  0  0  0  0  0  0  0  0
  -17.4744   -8.6604    7.3154 N   0  0  0  0  0  0  0  0  0  0  0  0
  -17.5797   -9.4100    6.0165 C   0  0  0  0  0  0  0  0  0  0  0  0
  -16.2753   -9.3653    5.1708 C   0  0  0  0  0  0  0  0  0  0  0  0
  -11.0765  -10.0719    4.0462 C   0  0  0  0  0  0  0  0  0  0  0  0
  -10.0575  -11.0133    4.2681 C   0  0  0  0  0  0  0  0  0  0  0  0
   -8.8939  -10.6500    4.9411 C   0  0  0  0  0  0  0  0  0  0  0  0
   -8.7402   -9.3414    5.4046 C   0  0  0  0  0  0  0  0  0  0  0  0
   -7.3447   -8.9293    6.4046 Cl  0  0  0  0  0  0  0  0  0  0  0  0
   -9.7047   -8.3699    5.1038 C   0  0  0  0  0  0  0  0  0  0  0  0
  -10.8738   -8.7389    4.4265 C   0  0  0  0  0  0  0  0  0  0  0  0
  -11.2980   -9.6065    1.2881 C   0  0  0  0  0  0  0  0  0  0  0  0
  -10.4519  -10.6544    0.9045 C   0  0  0  0  0  0  0  0  0  0  0  0
   -9.2438  -10.3787    0.2706 C   0  0  0  0  0  0  0  0  0  0  0  0
   -8.8778   -9.0515    0.0315 C   0  0  0  0  0  0  0  0  0  0  0  0
   -7.3185   -8.7005   -0.6871 Cl  0  0  0  0  0  0  0  0  0  0  0  0
   -9.7329   -8.0049    0.3811 C   0  0  0  0  0  0  0  0  0  0  0  0
  -10.9426   -8.2880    1.0110 C   0  0  0  0  0  0  0  0  0  0  0  0
  -18.4546   -7.5508    7.3910 C   0  0  0  0  0  0  0  0  0  0  0  0
  -18.9858   -7.1994    5.9983 C   0  0  0  0  0  0  0  0  0  0  0  0
  -19.3061   -5.7016    5.9118 C   0  0  0  0  0  0  0  0  0  0  0  0
  -21.0541   -5.4097    6.1065 S   0  0  0  0  0  0  0  0  0  0  0  0
  -21.2043   -4.4282    7.5848 C   0  0  0  0  0  0  0  0  0  0  0  0
  -21.7219   -6.6901    6.3273 O   0  0  0  0  0  0  0  0  0  0  0  0
  -21.5236   -4.6183    4.9717 O   0  0  0  0  0  0  0  0  0  0  0  0
 21 20  1  0  0  0
 22 20  2  0  0  0
 22 23  1  0  0  0
 20 19  1  0  0  0
 23 17  2  0  0  0
 28 27  1  0  0  0
 19 18  2  0  0  0
 27 26  2  0  0  0
 27 29  1  0  0  0
 17 18  1  0  0  0
 17  2  1  0  0  0
 26 25  1  0  0  0
 29 30  2  0  0  0
  3  2  1  0  0  0
 10  9  2  0  0  0
 25 24  2  0  0  0
  2  4  1  0  0  0
  2  1  1  0  0  0
 30 24  1  0  0  0
 24  4  1  0  0  0
  9  1  1  0  0  0
  9 11  1  0  0  0
  4  5  1  0  0  0
  4  6  1  0  0  0
  1  7  1  0  0  0
 12 11  1  0  0  0
 12 13  1  0  0  0
 11 16  1  0  0  0
  7  6  2  0  0  0
  7  8  1  0  0  0
 13 14  1  0  0  0
 16 15  1  0  0  0
 14 15  1  0  0  0
 14 31  1  0  0  0
 31 32  1  0  0  0
 32 33  1  0  0  0
 33 34  1  0  0  0
 37 34  2  0  0  0
 34 36  2  0  0  0
 34 35  1  0  0  0
M  END
> <minimizedAffinity>
-5.83279

$$$$
