4RN4_3T7_A_303


 45 49  0  0  0  0  0  0  0  0999 V2000
   17.0962    4.1400   12.7447 N   0  0  0  0  0  0  0  0  0  0  0  0
   15.8684    1.9456   15.6724 C   0  0  0  0  0  0  0  0  0  0  0  0
   16.6914    1.1100   14.9107 N   0  0  0  0  0  0  0  0  0  0  0  0
   17.1905    1.8707   13.7543 N   0  0  0  0  0  0  0  0  0  0  0  0
   16.7223    3.1801   13.7631 C   0  0  0  0  0  0  0  0  0  0  0  0
   15.7501    3.4886   15.0646 S   0  0  0  0  0  0  0  0  0  0  0  0
   15.3420   -0.0506   17.2965 O   0  0  0  0  0  0  0  0  0  0  0  0
   15.0640    1.3459   17.1399 S   0  0  0  0  0  0  0  0  0  0  0  0
   13.4732    1.6049   16.9259 N   0  0  0  0  0  0  0  0  0  0  0  0
   15.6370    2.0699   18.2298 O   0  0  0  0  0  0  0  0  0  0  0  0
   13.3030    2.6047   16.8173 H   0  0  0  0  0  0  0  0  0  0  0  0
   12.9603    1.2588   17.7369 H   0  0  0  0  0  0  0  0  0  0  0  0
   17.2576    5.5604   13.0617 C   0  0  0  0  0  0  0  0  0  0  0  0
   16.1008    6.3550   12.3936 C   0  0  0  0  0  0  0  0  0  0  0  0
   16.0630    6.9252   11.1256 C   0  0  0  0  0  0  0  0  0  0  0  0
   14.8509    7.4917   10.9849 N   0  0  0  0  0  0  0  0  0  0  0  0
   14.1355    7.2881   12.1127 N   0  0  0  0  0  0  0  0  0  0  0  0
   14.9157    6.5829   12.9885 N   0  0  0  0  0  0  0  0  0  0  0  0
   14.3434    8.1812    9.8539 C   0  0  0  0  0  0  0  0  0  0  0  0
   13.4967    7.5217    8.9708 C   0  0  0  0  0  0  0  0  0  0  0  0
   13.0115    8.1982    7.8462 C   0  0  0  0  0  0  0  0  0  0  0  0
   13.3814    9.5260    7.6059 C   0  0  0  0  0  0  0  0  0  0  0  0
   14.2369   10.1767    8.4897 C   0  0  0  0  0  0  0  0  0  0  0  0
   14.7207    9.4996    9.6124 C   0  0  0  0  0  0  0  0  0  0  0  0
   17.3073    3.6540   11.4017 C   0  0  0  0  0  0  0  0  0  0  0  0
   18.8085    3.6344   11.1072 C   0  0  0  0  0  0  0  0  0  0  0  0
   19.4951    4.6029   10.3816 C   0  0  0  0  0  0  0  0  0  0  0  0
   20.7688    4.2642   10.3520 N   0  0  0  0  0  0  0  0  0  0  0  0
   20.9413    3.0951   11.0410 N   0  0  0  0  0  0  0  0  0  0  0  0
   19.7116    2.7264   11.5149 N   0  0  0  0  0  0  0  0  0  0  0  0
   21.7691    5.0093    9.7072 C   0  0  0  0  0  0  0  0  0  0  0  0
   23.0846    4.4873   10.1952 C   0  0  0  0  0  0  0  0  0  0  0  0
   24.2188    4.7145    9.2453 C   0  0  0  0  0  0  0  0  0  0  0  0
   23.9660    5.7024    8.1627 C   0  0  0  0  0  0  0  0  0  0  0  0
   22.6488    5.5286    7.4412 C   0  0  0  0  0  0  0  0  0  0  0  0
   21.5920    4.8666    8.2584 O   0  0  0  0  0  0  0  0  0  0  0  0
   24.0095    7.0510    8.7276 O   0  0  0  0  0  0  0  0  0  0  0  0
   24.5961    3.4329    8.6527 O   0  0  0  0  0  0  0  0  0  0  0  0
   23.3589    5.1096   11.4743 O   0  0  0  0  0  0  0  0  0  0  0  0
   23.2984    7.1516    9.3795 H   0  0  0  0  0  0  0  0  0  0  0  0
   23.8540    3.0858    8.1334 H   0  0  0  0  0  0  0  0  0  0  0  0
   23.4235    6.0705   11.3592 H   0  0  0  0  0  0  0  0  0  0  0  0
   22.8325    4.7613    6.1618 C   0  0  0  0  0  0  0  0  0  0  0  0
   22.6572    3.3636    6.3632 O   0  0  0  0  0  0  0  0  0  0  0  0
   21.7574    3.1933    6.6827 H   0  0  0  0  0  0  0  0  0  0  0  0
 38 33  1  0  0  0
 33 34  1  0  0  0
 33 32  1  0  0  0
 39 32  1  0  0  0
 37 34  1  0  0  0
 34 35  1  0  0  0
 32 31  1  0  0  0
 44 43  1  0  0  0
 35 43  1  0  0  0
 35 36  1  0  0  0
 31 36  1  0  0  0
 31 28  1  0  0  0
 29 28  1  0  0  0
 29 30  2  0  0  0
 28 27  1  0  0  0
 30 26  1  0  0  0
 27 26  2  0  0  0
 26 25  1  0  0  0
 13 14  1  0  0  0
 13  1  1  0  0  0
 15 14  2  0  0  0
 15 16  1  0  0  0
 14 18  1  0  0  0
 24 23  2  0  0  0
 24 19  1  0  0  0
  1 25  1  0  0  0
  1  5  1  0  0  0
 23 22  1  0  0  0
 16 19  1  0  0  0
 16 17  1  0  0  0
 19 20  2  0  0  0
 22 21  2  0  0  0
  5  4  2  0  0  0
  5  6  1  0  0  0
 18 17  2  0  0  0
  4  3  1  0  0  0
 20 21  1  0  0  0
  6  2  1  0  0  0
  3  2  2  0  0  0
  2  8  1  0  0  0
  9  8  1  0  0  0
 10  8  2  0  0  0
  8  7  2  0  0  0
 44 45  1  0  0  0
 37 40  1  0  0  0
 38 41  1  0  0  0
 39 42  1  0  0  0
  9 11  1  0  0  0
  9 12  1  0  0  0
M  END
> <minimizedAffinity>
-9.53533

$$$$
4RN4_3T7_A_303


 45 49  0  0  0  0  0  0  0  0999 V2000
   18.8044    5.5029   11.2783 N   0  0  0  0  0  0  0  0  0  0  0  0
   18.0529    1.7181   11.2099 C   0  0  0  0  0  0  0  0  0  0  0  0
   19.3626    1.8210   11.6891 N   0  0  0  0  0  0  0  0  0  0  0  0
   19.7371    3.2435   11.7288 N   0  0  0  0  0  0  0  0  0  0  0  0
   18.6941    4.0588   11.3031 C   0  0  0  0  0  0  0  0  0  0  0  0
   17.3517    3.1896   10.8823 S   0  0  0  0  0  0  0  0  0  0  0  0
   18.2610   -0.8282   10.5993 O   0  0  0  0  0  0  0  0  0  0  0  0
   17.2772    0.1321   11.0022 S   0  0  0  0  0  0  0  0  0  0  0  0
   16.1442    0.3257    9.8523 N   0  0  0  0  0  0  0  0  0  0  0  0
   16.7597   -0.2268   12.2842 O   0  0  0  0  0  0  0  0  0  0  0  0
   15.4577    1.0129   10.1637 H   0  0  0  0  0  0  0  0  0  0  0  0
   15.6790   -0.5655    9.6798 H   0  0  0  0  0  0  0  0  0  0  0  0
   18.3312    6.3206   12.3972 C   0  0  0  0  0  0  0  0  0  0  0  0
   17.1885    5.5579   13.1239 C   0  0  0  0  0  0  0  0  0  0  0  0
   17.2909    4.5721   14.0998 C   0  0  0  0  0  0  0  0  0  0  0  0
   16.0370    4.2240   14.4406 N   0  0  0  0  0  0  0  0  0  0  0  0
   15.1635    4.9603   13.7195 N   0  0  0  0  0  0  0  0  0  0  0  0
   15.8820    5.7877   12.8994 N   0  0  0  0  0  0  0  0  0  0  0  0
   15.6367    3.2661   15.4073 C   0  0  0  0  0  0  0  0  0  0  0  0
   14.5105    3.5056   16.1857 C   0  0  0  0  0  0  0  0  0  0  0  0
   14.1276    2.5678   17.1509 C   0  0  0  0  0  0  0  0  0  0  0  0
   14.8764    1.4009   17.3386 C   0  0  0  0  0  0  0  0  0  0  0  0
   16.0081    1.1724   16.5618 C   0  0  0  0  0  0  0  0  0  0  0  0
   16.3892    2.1102   15.5983 C   0  0  0  0  0  0  0  0  0  0  0  0
   19.3979    6.1163   10.1139 C   0  0  0  0  0  0  0  0  0  0  0  0
   18.3411    6.2264    9.0131 C   0  0  0  0  0  0  0  0  0  0  0  0
   17.5031    7.3191    8.8138 C   0  0  0  0  0  0  0  0  0  0  0  0
   16.7446    7.0659    7.7657 N   0  0  0  0  0  0  0  0  0  0  0  0
   17.0610    5.8320    7.2668 N   0  0  0  0  0  0  0  0  0  0  0  0
   18.0663    5.3316    8.0488 N   0  0  0  0  0  0  0  0  0  0  0  0
   15.7735    7.9464    7.2626 C   0  0  0  0  0  0  0  0  0  0  0  0
   14.4405    7.3088    7.5025 C   0  0  0  0  0  0  0  0  0  0  0  0
   13.3070    8.2828    7.5861 C   0  0  0  0  0  0  0  0  0  0  0  0
   13.5939    9.6518    7.0808 C   0  0  0  0  0  0  0  0  0  0  0  0
   14.8923   10.2498    7.5730 C   0  0  0  0  0  0  0  0  0  0  0  0
   15.9259    9.2393    7.9381 O   0  0  0  0  0  0  0  0  0  0  0  0
   13.6221    9.6246    5.6185 O   0  0  0  0  0  0  0  0  0  0  0  0
   12.8614    8.3632    8.9757 O   0  0  0  0  0  0  0  0  0  0  0  0
   14.2121    6.3512    6.4398 O   0  0  0  0  0  0  0  0  0  0  0  0
   14.3451    9.0511    5.3197 H   0  0  0  0  0  0  0  0  0  0  0  0
   13.5796    8.7131    9.5259 H   0  0  0  0  0  0  0  0  0  0  0  0
   14.1924    6.8131    5.5870 H   0  0  0  0  0  0  0  0  0  0  0  0
   14.6564   11.1571    8.7479 C   0  0  0  0  0  0  0  0  0  0  0  0
   14.8864   10.4837    9.9801 O   0  0  0  0  0  0  0  0  0  0  0  0
   15.8085   10.1853   10.0183 H   0  0  0  0  0  0  0  0  0  0  0  0
 38 33  1  0  0  0
 33 34  1  0  0  0
 33 32  1  0  0  0
 39 32  1  0  0  0
 37 34  1  0  0  0
 34 35  1  0  0  0
 32 31  1  0  0  0
 44 43  1  0  0  0
 35 43  1  0  0  0
 35 36  1  0  0  0
 31 36  1  0  0  0
 31 28  1  0  0  0
 29 28  1  0  0  0
 29 30  2  0  0  0
 28 27  1  0  0  0
 30 26  1  0  0  0
 27 26  2  0  0  0
 26 25  1  0  0  0
 13 14  1  0  0  0
 13  1  1  0  0  0
 15 14  2  0  0  0
 15 16  1  0  0  0
 14 18  1  0  0  0
 24 23  2  0  0  0
 24 19  1  0  0  0
  1 25  1  0  0  0
  1  5  1  0  0  0
 23 22  1  0  0  0
 16 19  1  0  0  0
 16 17  1  0  0  0
 19 20  2  0  0  0
 22 21  2  0  0  0
  5  4  2  0  0  0
  5  6  1  0  0  0
 18 17  2  0  0  0
  4  3  1  0  0  0
 20 21  1  0  0  0
  6  2  1  0  0  0
  3  2  2  0  0  0
  2  8  1  0  0  0
  9  8  1  0  0  0
 10  8  2  0  0  0
  8  7  2  0  0  0
 44 45  1  0  0  0
 37 40  1  0  0  0
 38 41  1  0  0  0
 39 42  1  0  0  0
  9 11  1  0  0  0
  9 12  1  0  0  0
M  END
> <minimizedAffinity>
-9.42776

$$$$
4RN4_3T7_A_303


 45 49  0  0  0  0  0  0  0  0999 V2000
   16.7538    4.1870   12.6914 N   0  0  0  0  0  0  0  0  0  0  0  0
   15.7719    2.3442   15.9370 C   0  0  0  0  0  0  0  0  0  0  0  0
   17.1075    1.9970   15.7105 N   0  0  0  0  0  0  0  0  0  0  0  0
   17.5578    2.6488   14.4706 N   0  0  0  0  0  0  0  0  0  0  0  0
   16.5495    3.4206   13.9035 C   0  0  0  0  0  0  0  0  0  0  0  0
   15.1534    3.3751   14.7885 S   0  0  0  0  0  0  0  0  0  0  0  0
   13.5384    1.4153   16.9608 O   0  0  0  0  0  0  0  0  0  0  0  0
   14.8876    1.7088   17.3422 S   0  0  0  0  0  0  0  0  0  0  0  0
   14.9345    2.8740   18.4753 N   0  0  0  0  0  0  0  0  0  0  0  0
   15.5504    0.4993   17.7137 O   0  0  0  0  0  0  0  0  0  0  0  0
   15.9043    3.0632   18.7284 H   0  0  0  0  0  0  0  0  0  0  0  0
   14.4215    2.5658   19.3013 H   0  0  0  0  0  0  0  0  0  0  0  0
   17.1324    5.6006   12.7407 C   0  0  0  0  0  0  0  0  0  0  0  0
   15.9702    6.4490   12.1531 C   0  0  0  0  0  0  0  0  0  0  0  0
   15.9063    7.0929   10.9220 C   0  0  0  0  0  0  0  0  0  0  0  0
   14.6998    7.6834   10.8490 N   0  0  0  0  0  0  0  0  0  0  0  0
   14.0126    7.4242   11.9829 N   0  0  0  0  0  0  0  0  0  0  0  0
   14.8056    6.6581   12.7937 N   0  0  0  0  0  0  0  0  0  0  0  0
   14.1720    8.4450    9.7748 C   0  0  0  0  0  0  0  0  0  0  0  0
   13.1184    7.9360    9.0250 C   0  0  0  0  0  0  0  0  0  0  0  0
   12.6111    8.6809    7.9547 C   0  0  0  0  0  0  0  0  0  0  0  0
   13.1645    9.9254    7.6346 C   0  0  0  0  0  0  0  0  0  0  0  0
   14.2255   10.4244    8.3842 C   0  0  0  0  0  0  0  0  0  0  0  0
   14.7310    9.6790    9.4528 C   0  0  0  0  0  0  0  0  0  0  0  0
   16.5736    3.5140   11.4269 C   0  0  0  0  0  0  0  0  0  0  0  0
   17.7161    3.9025   10.4864 C   0  0  0  0  0  0  0  0  0  0  0  0
   19.0681    3.6914   10.7386 C   0  0  0  0  0  0  0  0  0  0  0  0
   19.7506    4.1332    9.7008 N   0  0  0  0  0  0  0  0  0  0  0  0
   18.8826    4.6312    8.7682 N   0  0  0  0  0  0  0  0  0  0  0  0
   17.6203    4.4658    9.2700 N   0  0  0  0  0  0  0  0  0  0  0  0
   21.1501    4.0845    9.5976 C   0  0  0  0  0  0  0  0  0  0  0  0
   21.5209    4.8170    8.3458 C   0  0  0  0  0  0  0  0  0  0  0  0
   22.9103    5.3735    8.3560 C   0  0  0  0  0  0  0  0  0  0  0  0
   23.8132    4.8357    9.4083 C   0  0  0  0  0  0  0  0  0  0  0  0
   23.2121    4.7870   10.7947 C   0  0  0  0  0  0  0  0  0  0  0  0
   21.7251    4.6805   10.8080 O   0  0  0  0  0  0  0  0  0  0  0  0
   24.2275    3.4831    9.0359 O   0  0  0  0  0  0  0  0  0  0  0  0
   22.8306    6.8273    8.4832 O   0  0  0  0  0  0  0  0  0  0  0  0
   21.3450    3.9059    7.2333 O   0  0  0  0  0  0  0  0  0  0  0  0
   23.4498    2.9045    9.0021 H   0  0  0  0  0  0  0  0  0  0  0  0
   22.4254    7.0557    9.3344 H   0  0  0  0  0  0  0  0  0  0  0  0
   21.9374    3.1455    7.3414 H   0  0  0  0  0  0  0  0  0  0  0  0
   23.6257    5.9844   11.6036 C   0  0  0  0  0  0  0  0  0  0  0  0
   22.7314    7.0748   11.4142 O   0  0  0  0  0  0  0  0  0  0  0  0
   21.8417    6.8171   11.7023 H   0  0  0  0  0  0  0  0  0  0  0  0
 38 33  1  0  0  0
 33 34  1  0  0  0
 33 32  1  0  0  0
 39 32  1  0  0  0
 37 34  1  0  0  0
 34 35  1  0  0  0
 32 31  1  0  0  0
 44 43  1  0  0  0
 35 43  1  0  0  0
 35 36  1  0  0  0
 31 36  1  0  0  0
 31 28  1  0  0  0
 29 28  1  0  0  0
 29 30  2  0  0  0
 28 27  1  0  0  0
 30 26  1  0  0  0
 27 26  2  0  0  0
 26 25  1  0  0  0
 13 14  1  0  0  0
 13  1  1  0  0  0
 15 14  2  0  0  0
 15 16  1  0  0  0
 14 18  1  0  0  0
 24 23  2  0  0  0
 24 19  1  0  0  0
  1 25  1  0  0  0
  1  5  1  0  0  0
 23 22  1  0  0  0
 16 19  1  0  0  0
 16 17  1  0  0  0
 19 20  2  0  0  0
 22 21  2  0  0  0
  5  4  2  0  0  0
  5  6  1  0  0  0
 18 17  2  0  0  0
  4  3  1  0  0  0
 20 21  1  0  0  0
  6  2  1  0  0  0
  3  2  2  0  0  0
  2  8  1  0  0  0
  9  8  1  0  0  0
 10  8  2  0  0  0
  8  7  2  0  0  0
 44 45  1  0  0  0
 37 40  1  0  0  0
 38 41  1  0  0  0
 39 42  1  0  0  0
  9 11  1  0  0  0
  9 12  1  0  0  0
M  END
> <minimizedAffinity>
-9.36730

$$$$
4RN4_3T7_A_303


 45 49  0  0  0  0  0  0  0  0999 V2000
   17.8110    5.9697   11.2207 N   0  0  0  0  0  0  0  0  0  0  0  0
   18.2717    2.1385   11.1602 C   0  0  0  0  0  0  0  0  0  0  0  0
   19.4718    2.6419   11.6721 N   0  0  0  0  0  0  0  0  0  0  0  0
   19.3858    4.1103   11.7111 N   0  0  0  0  0  0  0  0  0  0  0  0
   18.1531    4.5626   11.2530 C   0  0  0  0  0  0  0  0  0  0  0  0
   17.1579    3.3205   10.8042 S   0  0  0  0  0  0  0  0  0  0  0  0
   17.6016    0.1327    9.6023 O   0  0  0  0  0  0  0  0  0  0  0  0
   18.0316    0.3904   10.9442 S   0  0  0  0  0  0  0  0  0  0  0  0
   16.8924   -0.0494   12.0177 N   0  0  0  0  0  0  0  0  0  0  0  0
   19.3077   -0.2143   11.1589 O   0  0  0  0  0  0  0  0  0  0  0  0
   17.2232    0.1442   12.9630 H   0  0  0  0  0  0  0  0  0  0  0  0
   16.7019   -1.0469   11.9218 H   0  0  0  0  0  0  0  0  0  0  0  0
   17.3835    6.6759   12.4301 C   0  0  0  0  0  0  0  0  0  0  0  0
   16.4211    5.7552   13.2313 C   0  0  0  0  0  0  0  0  0  0  0  0
   16.7412    4.7353   14.1212 C   0  0  0  0  0  0  0  0  0  0  0  0
   15.5799    4.2348   14.5802 N   0  0  0  0  0  0  0  0  0  0  0  0
   14.5549    4.9093   14.0150 N   0  0  0  0  0  0  0  0  0  0  0  0
   15.0805    5.8531   13.1745 N   0  0  0  0  0  0  0  0  0  0  0  0
   15.3996    3.1882   15.5207 C   0  0  0  0  0  0  0  0  0  0  0  0
   16.2805    2.1132   15.5288 C   0  0  0  0  0  0  0  0  0  0  0  0
   16.0904    1.0733   16.4455 C   0  0  0  0  0  0  0  0  0  0  0  0
   15.0174    1.1093   17.3426 C   0  0  0  0  0  0  0  0  0  0  0  0
   14.1342    2.1845   17.3223 C   0  0  0  0  0  0  0  0  0  0  0  0
   14.3254    3.2223   16.4060 C   0  0  0  0  0  0  0  0  0  0  0  0
   17.9049    6.6600    9.9562 C   0  0  0  0  0  0  0  0  0  0  0  0
   16.4947    6.9318    9.4288 C   0  0  0  0  0  0  0  0  0  0  0  0
   16.1632    7.9081    8.4945 C   0  0  0  0  0  0  0  0  0  0  0  0
   14.8666    7.8334    8.2686 N   0  0  0  0  0  0  0  0  0  0  0  0
   14.3324    6.8309    9.0308 N   0  0  0  0  0  0  0  0  0  0  0  0
   15.3642    6.2729    9.7355 N   0  0  0  0  0  0  0  0  0  0  0  0
   14.1712    8.6660    7.3770 C   0  0  0  0  0  0  0  0  0  0  0  0
   13.0739    9.3205    8.1571 C   0  0  0  0  0  0  0  0  0  0  0  0
   12.6148   10.6246    7.5835 C   0  0  0  0  0  0  0  0  0  0  0  0
   13.0388   10.8993    6.1848 C   0  0  0  0  0  0  0  0  0  0  0  0
   14.5014   10.6402    5.9034 C   0  0  0  0  0  0  0  0  0  0  0  0
   15.1210    9.6232    6.8003 O   0  0  0  0  0  0  0  0  0  0  0  0
   12.2402   10.0790    5.2742 O   0  0  0  0  0  0  0  0  0  0  0  0
   13.0781   11.7058    8.4510 O   0  0  0  0  0  0  0  0  0  0  0  0
   11.9720    8.3838    8.2392 O   0  0  0  0  0  0  0  0  0  0  0  0
   12.4141    9.1406    5.4476 H   0  0  0  0  0  0  0  0  0  0  0  0
   14.0479   11.7223    8.4572 H   0  0  0  0  0  0  0  0  0  0  0  0
   11.6494    8.1849    7.3463 H   0  0  0  0  0  0  0  0  0  0  0  0
   15.2984   11.9124    5.9797 C   0  0  0  0  0  0  0  0  0  0  0  0
   15.7989   12.1352    7.2929 O   0  0  0  0  0  0  0  0  0  0  0  0
   16.3852   11.4043    7.5438 H   0  0  0  0  0  0  0  0  0  0  0  0
 38 33  1  0  0  0
 33 34  1  0  0  0
 33 32  1  0  0  0
 39 32  1  0  0  0
 37 34  1  0  0  0
 34 35  1  0  0  0
 32 31  1  0  0  0
 44 43  1  0  0  0
 35 43  1  0  0  0
 35 36  1  0  0  0
 31 36  1  0  0  0
 31 28  1  0  0  0
 29 28  1  0  0  0
 29 30  2  0  0  0
 28 27  1  0  0  0
 30 26  1  0  0  0
 27 26  2  0  0  0
 26 25  1  0  0  0
 13 14  1  0  0  0
 13  1  1  0  0  0
 15 14  2  0  0  0
 15 16  1  0  0  0
 14 18  1  0  0  0
 24 23  2  0  0  0
 24 19  1  0  0  0
  1 25  1  0  0  0
  1  5  1  0  0  0
 23 22  1  0  0  0
 16 19  1  0  0  0
 16 17  1  0  0  0
 19 20  2  0  0  0
 22 21  2  0  0  0
  5  4  2  0  0  0
  5  6  1  0  0  0
 18 17  2  0  0  0
  4  3  1  0  0  0
 20 21  1  0  0  0
  6  2  1  0  0  0
  3  2  2  0  0  0
  2  8  1  0  0  0
  9  8  1  0  0  0
 10  8  2  0  0  0
  8  7  2  0  0  0
 44 45  1  0  0  0
 37 40  1  0  0  0
 38 41  1  0  0  0
 39 42  1  0  0  0
  9 11  1  0  0  0
  9 12  1  0  0  0
M  END
> <minimizedAffinity>
-9.35406

$$$$
4RN4_3T7_A_303


 45 49  0  0  0  0  0  0  0  0999 V2000
   18.1648    4.6719   10.9182 N   0  0  0  0  0  0  0  0  0  0  0  0
   21.8827    4.6097    9.8849 C   0  0  0  0  0  0  0  0  0  0  0  0
   21.2150    3.8924    8.8872 N   0  0  0  0  0  0  0  0  0  0  0  0
   19.7817    3.8523    9.2177 N   0  0  0  0  0  0  0  0  0  0  0  0
   19.5090    4.5410   10.3946 C   0  0  0  0  0  0  0  0  0  0  0  0
   20.8707    5.1960   11.0665 S   0  0  0  0  0  0  0  0  0  0  0  0
   23.9396    6.1267    9.2788 O   0  0  0  0  0  0  0  0  0  0  0  0
   23.6450    4.8355    9.8248 S   0  0  0  0  0  0  0  0  0  0  0  0
   24.2240    3.6520    8.8721 N   0  0  0  0  0  0  0  0  0  0  0  0
   24.0983    4.7769   11.1780 O   0  0  0  0  0  0  0  0  0  0  0  0
   24.0012    2.7453    9.2828 H   0  0  0  0  0  0  0  0  0  0  0  0
   25.2360    3.7477    8.7880 H   0  0  0  0  0  0  0  0  0  0  0  0
   17.1813    3.5980   10.7644 C   0  0  0  0  0  0  0  0  0  0  0  0
   16.9874    2.8988   12.1388 C   0  0  0  0  0  0  0  0  0  0  0  0
   16.2490    3.3343   13.2341 C   0  0  0  0  0  0  0  0  0  0  0  0
   16.3624    2.3901   14.1856 N   0  0  0  0  0  0  0  0  0  0  0  0
   17.1355    1.3850   13.7196 N   0  0  0  0  0  0  0  0  0  0  0  0
   17.5251    1.7046   12.4471 N   0  0  0  0  0  0  0  0  0  0  0  0
   15.7712    2.3850   15.4751 C   0  0  0  0  0  0  0  0  0  0  0  0
   16.1286    1.4020   16.3903 C   0  0  0  0  0  0  0  0  0  0  0  0
   15.5311    1.3881   17.6554 C   0  0  0  0  0  0  0  0  0  0  0  0
   14.5745    2.3507   17.9958 C   0  0  0  0  0  0  0  0  0  0  0  0
   14.2149    3.3263   17.0709 C   0  0  0  0  0  0  0  0  0  0  0  0
   14.8126    3.3386   15.8077 C   0  0  0  0  0  0  0  0  0  0  0  0
   17.8208    5.8969   11.6005 C   0  0  0  0  0  0  0  0  0  0  0  0
   16.6309    6.5468   10.8916 C   0  0  0  0  0  0  0  0  0  0  0  0
   16.6813    7.1676    9.6475 C   0  0  0  0  0  0  0  0  0  0  0  0
   15.4674    7.5884    9.3518 N   0  0  0  0  0  0  0  0  0  0  0  0
   14.6152    7.2606   10.3704 N   0  0  0  0  0  0  0  0  0  0  0  0
   15.3559    6.6008   11.3131 N   0  0  0  0  0  0  0  0  0  0  0  0
   15.1325    8.2632    8.1669 C   0  0  0  0  0  0  0  0  0  0  0  0
   13.6853    7.9868    7.9017 C   0  0  0  0  0  0  0  0  0  0  0  0
   13.0091    9.0322    7.0709 C   0  0  0  0  0  0  0  0  0  0  0  0
   13.9127    9.9701    6.3528 C   0  0  0  0  0  0  0  0  0  0  0  0
   15.0253   10.5492    7.1968 C   0  0  0  0  0  0  0  0  0  0  0  0
   15.4252    9.6890    8.3470 O   0  0  0  0  0  0  0  0  0  0  0  0
   14.5105    9.2770    5.2117 O   0  0  0  0  0  0  0  0  0  0  0  0
   12.1014    9.7941    7.9263 O   0  0  0  0  0  0  0  0  0  0  0  0
   13.5940    6.6901    7.2623 O   0  0  0  0  0  0  0  0  0  0  0  0
   15.0557    8.5406    5.5301 H   0  0  0  0  0  0  0  0  0  0  0  0
   12.6124   10.2578    8.6081 H   0  0  0  0  0  0  0  0  0  0  0  0
   14.0713    6.7115    6.4181 H   0  0  0  0  0  0  0  0  0  0  0  0
   14.6585   11.9140    7.7090 C   0  0  0  0  0  0  0  0  0  0  0  0
   14.0290   11.8401    8.9829 O   0  0  0  0  0  0  0  0  0  0  0  0
   14.6387   11.4392    9.6221 H   0  0  0  0  0  0  0  0  0  0  0  0
 38 33  1  0  0  0
 33 34  1  0  0  0
 33 32  1  0  0  0
 39 32  1  0  0  0
 37 34  1  0  0  0
 34 35  1  0  0  0
 32 31  1  0  0  0
 44 43  1  0  0  0
 35 43  1  0  0  0
 35 36  1  0  0  0
 31 36  1  0  0  0
 31 28  1  0  0  0
 29 28  1  0  0  0
 29 30  2  0  0  0
 28 27  1  0  0  0
 30 26  1  0  0  0
 27 26  2  0  0  0
 26 25  1  0  0  0
 13 14  1  0  0  0
 13  1  1  0  0  0
 15 14  2  0  0  0
 15 16  1  0  0  0
 14 18  1  0  0  0
 24 23  2  0  0  0
 24 19  1  0  0  0
  1 25  1  0  0  0
  1  5  1  0  0  0
 23 22  1  0  0  0
 16 19  1  0  0  0
 16 17  1  0  0  0
 19 20  2  0  0  0
 22 21  2  0  0  0
  5  4  2  0  0  0
  5  6  1  0  0  0
 18 17  2  0  0  0
  4  3  1  0  0  0
 20 21  1  0  0  0
  6  2  1  0  0  0
  3  2  2  0  0  0
  2  8  1  0  0  0
  9  8  1  0  0  0
 10  8  2  0  0  0
  8  7  2  0  0  0
 44 45  1  0  0  0
 37 40  1  0  0  0
 38 41  1  0  0  0
 39 42  1  0  0  0
  9 11  1  0  0  0
  9 12  1  0  0  0
M  END
> <minimizedAffinity>
-9.34807

$$$$
4RN4_3T7_A_303


 45 49  0  0  0  0  0  0  0  0999 V2000
   17.9033    5.9653   11.1641 N   0  0  0  0  0  0  0  0  0  0  0  0
   17.7066    2.1267   10.8174 C   0  0  0  0  0  0  0  0  0  0  0  0
   16.5319    2.6064   10.2295 N   0  0  0  0  0  0  0  0  0  0  0  0
   16.5190    4.0739   10.3370 N   0  0  0  0  0  0  0  0  0  0  0  0
   17.6649    4.5506   10.9644 C   0  0  0  0  0  0  0  0  0  0  0  0
   18.6939    3.3314   11.3989 S   0  0  0  0  0  0  0  0  0  0  0  0
   17.7898   -0.2062    9.6132 O   0  0  0  0  0  0  0  0  0  0  0  0
   18.0448    0.3831   10.8937 S   0  0  0  0  0  0  0  0  0  0  0  0
   17.0490   -0.2252   12.0260 N   0  0  0  0  0  0  0  0  0  0  0  0
   19.4336    0.2622   11.2047 O   0  0  0  0  0  0  0  0  0  0  0  0
   17.2512    0.2102   12.9259 H   0  0  0  0  0  0  0  0  0  0  0  0
   17.1898   -1.2330   12.0966 H   0  0  0  0  0  0  0  0  0  0  0  0
   17.6550    6.6026   12.4589 C   0  0  0  0  0  0  0  0  0  0  0  0
   16.6256    5.7454   13.2473 C   0  0  0  0  0  0  0  0  0  0  0  0
   16.8680    4.6986   14.1304 C   0  0  0  0  0  0  0  0  0  0  0  0
   15.6717    4.2773   14.5790 N   0  0  0  0  0  0  0  0  0  0  0  0
   14.7000    5.0267   14.0139 N   0  0  0  0  0  0  0  0  0  0  0  0
   15.2955    5.9378   13.1841 N   0  0  0  0  0  0  0  0  0  0  0  0
   15.4128    3.2386   15.5098 C   0  0  0  0  0  0  0  0  0  0  0  0
   16.2468    2.1275   15.5481 C   0  0  0  0  0  0  0  0  0  0  0  0
   15.9794    1.0959   16.4548 C   0  0  0  0  0  0  0  0  0  0  0  0
   14.8761    1.1763   17.3115 C   0  0  0  0  0  0  0  0  0  0  0  0
   14.0402    2.2877   17.2609 C   0  0  0  0  0  0  0  0  0  0  0  0
   14.3087    3.3171   16.3547 C   0  0  0  0  0  0  0  0  0  0  0  0
   18.3961    6.7330   10.0452 C   0  0  0  0  0  0  0  0  0  0  0  0
   19.3705    5.8724    9.2386 C   0  0  0  0  0  0  0  0  0  0  0  0
   20.7229    5.7122    9.5240 C   0  0  0  0  0  0  0  0  0  0  0  0
   21.2336    4.8876    8.6312 N   0  0  0  0  0  0  0  0  0  0  0  0
   20.2514    4.4982    7.7623 N   0  0  0  0  0  0  0  0  0  0  0  0
   19.0964    5.1113    8.1655 N   0  0  0  0  0  0  0  0  0  0  0  0
   22.5795    4.4884    8.6040 C   0  0  0  0  0  0  0  0  0  0  0  0
   23.0438    4.6166    7.1866 C   0  0  0  0  0  0  0  0  0  0  0  0
   24.5216    4.8082    7.0460 C   0  0  0  0  0  0  0  0  0  0  0  0
   25.3307    4.4950    8.2539 C   0  0  0  0  0  0  0  0  0  0  0  0
   24.8026    5.0862    9.5412 C   0  0  0  0  0  0  0  0  0  0  0  0
   23.3322    5.3326    9.5375 O   0  0  0  0  0  0  0  0  0  0  0  0
   25.4116    3.0429    8.4108 O   0  0  0  0  0  0  0  0  0  0  0  0
   24.7773    6.1877    6.6365 O   0  0  0  0  0  0  0  0  0  0  0  0
   22.6134    3.4318    6.4726 O   0  0  0  0  0  0  0  0  0  0  0  0
   24.5229    2.6838    8.5598 H   0  0  0  0  0  0  0  0  0  0  0  0
   24.4759    6.7927    7.3322 H   0  0  0  0  0  0  0  0  0  0  0  0
   23.0241    2.6480    6.8698 H   0  0  0  0  0  0  0  0  0  0  0  0
   25.5139    6.3670    9.8776 C   0  0  0  0  0  0  0  0  0  0  0  0
   24.9533    7.4727    9.1793 O   0  0  0  0  0  0  0  0  0  0  0  0
   24.0227    7.5769    9.4324 H   0  0  0  0  0  0  0  0  0  0  0  0
 38 33  1  0  0  0
 33 34  1  0  0  0
 33 32  1  0  0  0
 39 32  1  0  0  0
 37 34  1  0  0  0
 34 35  1  0  0  0
 32 31  1  0  0  0
 44 43  1  0  0  0
 35 43  1  0  0  0
 35 36  1  0  0  0
 31 36  1  0  0  0
 31 28  1  0  0  0
 29 28  1  0  0  0
 29 30  2  0  0  0
 28 27  1  0  0  0
 30 26  1  0  0  0
 27 26  2  0  0  0
 26 25  1  0  0  0
 13 14  1  0  0  0
 13  1  1  0  0  0
 15 14  2  0  0  0
 15 16  1  0  0  0
 14 18  1  0  0  0
 24 23  2  0  0  0
 24 19  1  0  0  0
  1 25  1  0  0  0
  1  5  1  0  0  0
 23 22  1  0  0  0
 16 19  1  0  0  0
 16 17  1  0  0  0
 19 20  2  0  0  0
 22 21  2  0  0  0
  5  4  2  0  0  0
  5  6  1  0  0  0
 18 17  2  0  0  0
  4  3  1  0  0  0
 20 21  1  0  0  0
  6  2  1  0  0  0
  3  2  2  0  0  0
  2  8  1  0  0  0
  9  8  1  0  0  0
 10  8  2  0  0  0
  8  7  2  0  0  0
 44 45  1  0  0  0
 37 40  1  0  0  0
 38 41  1  0  0  0
 39 42  1  0  0  0
  9 11  1  0  0  0
  9 12  1  0  0  0
M  END
> <minimizedAffinity>
-9.31989

$$$$
4RN4_3T7_A_303


 45 49  0  0  0  0  0  0  0  0999 V2000
   17.2088    5.9713    9.8780 N   0  0  0  0  0  0  0  0  0  0  0  0
   16.6617    3.5991   12.8725 C   0  0  0  0  0  0  0  0  0  0  0  0
   16.1308    2.9225   11.7698 N   0  0  0  0  0  0  0  0  0  0  0  0
   16.2837    3.7735   10.5792 N   0  0  0  0  0  0  0  0  0  0  0  0
   16.9154    4.9737   10.8863 C   0  0  0  0  0  0  0  0  0  0  0  0
   17.3043    5.0840   12.4898 S   0  0  0  0  0  0  0  0  0  0  0  0
   17.6854    3.4207   15.2850 O   0  0  0  0  0  0  0  0  0  0  0  0
   16.6218    2.8750   14.4956 S   0  0  0  0  0  0  0  0  0  0  0  0
   16.8120    1.2740   14.2853 N   0  0  0  0  0  0  0  0  0  0  0  0
   15.3666    3.2490   15.0655 O   0  0  0  0  0  0  0  0  0  0  0  0
   16.0433    0.9115   13.7214 H   0  0  0  0  0  0  0  0  0  0  0  0
   16.8157    0.8099   15.1936 H   0  0  0  0  0  0  0  0  0  0  0  0
   16.7972    7.3665   10.0467 C   0  0  0  0  0  0  0  0  0  0  0  0
   15.4406    7.5777    9.3181 C   0  0  0  0  0  0  0  0  0  0  0  0
   14.9892    8.7058    8.6412 C   0  0  0  0  0  0  0  0  0  0  0  0
   13.7669    8.4136    8.1611 N   0  0  0  0  0  0  0  0  0  0  0  0
   13.4479    7.1475    8.5081 N   0  0  0  0  0  0  0  0  0  0  0  0
   14.4895    6.6303    9.2298 N   0  0  0  0  0  0  0  0  0  0  0  0
   12.9169    9.2482    7.3909 C   0  0  0  0  0  0  0  0  0  0  0  0
   11.5893    9.4112    7.7685 C   0  0  0  0  0  0  0  0  0  0  0  0
   10.7479   10.2207    6.9974 C   0  0  0  0  0  0  0  0  0  0  0  0
   11.2351   10.8556    5.8497 C   0  0  0  0  0  0  0  0  0  0  0  0
   12.5632   10.6801    5.4729 C   0  0  0  0  0  0  0  0  0  0  0  0
   13.4022    9.8712    6.2441 C   0  0  0  0  0  0  0  0  0  0  0  0
   17.9230    5.5493    8.6964 C   0  0  0  0  0  0  0  0  0  0  0  0
   19.2415    4.8962    9.1155 C   0  0  0  0  0  0  0  0  0  0  0  0
   20.2460    5.5190    9.8499 C   0  0  0  0  0  0  0  0  0  0  0  0
   21.2154    4.6457   10.0379 N   0  0  0  0  0  0  0  0  0  0  0  0
   20.8762    3.4600    9.4458 N   0  0  0  0  0  0  0  0  0  0  0  0
   19.6382    3.6324    8.8889 N   0  0  0  0  0  0  0  0  0  0  0  0
   22.3988    4.9192   10.7423 C   0  0  0  0  0  0  0  0  0  0  0  0
   23.4997    4.9997    9.7311 C   0  0  0  0  0  0  0  0  0  0  0  0
   24.6673    5.8278   10.1683 C   0  0  0  0  0  0  0  0  0  0  0  0
   24.7283    6.1415   11.6208 C   0  0  0  0  0  0  0  0  0  0  0  0
   23.4294    6.6336   12.2178 C   0  0  0  0  0  0  0  0  0  0  0  0
   22.2130    6.1641   11.4949 O   0  0  0  0  0  0  0  0  0  0  0  0
   25.1488    4.9452   12.3501 O   0  0  0  0  0  0  0  0  0  0  0  0
   24.6696    7.0733    9.4035 O   0  0  0  0  0  0  0  0  0  0  0  0
   23.9196    3.6468    9.4277 O   0  0  0  0  0  0  0  0  0  0  0  0
   24.4857    4.2466   12.2351 H   0  0  0  0  0  0  0  0  0  0  0  0
   23.8680    7.5797    9.6081 H   0  0  0  0  0  0  0  0  0  0  0  0
   24.2602    3.2258   10.2324 H   0  0  0  0  0  0  0  0  0  0  0  0
   23.4062    8.1345   12.2944 C   0  0  0  0  0  0  0  0  0  0  0  0
   22.8797    8.7085   11.1036 O   0  0  0  0  0  0  0  0  0  0  0  0
   21.9673    8.4055   10.9746 H   0  0  0  0  0  0  0  0  0  0  0  0
 38 33  1  0  0  0
 33 34  1  0  0  0
 33 32  1  0  0  0
 39 32  1  0  0  0
 37 34  1  0  0  0
 34 35  1  0  0  0
 32 31  1  0  0  0
 44 43  1  0  0  0
 35 43  1  0  0  0
 35 36  1  0  0  0
 31 36  1  0  0  0
 31 28  1  0  0  0
 29 28  1  0  0  0
 29 30  2  0  0  0
 28 27  1  0  0  0
 30 26  1  0  0  0
 27 26  2  0  0  0
 26 25  1  0  0  0
 13 14  1  0  0  0
 13  1  1  0  0  0
 15 14  2  0  0  0
 15 16  1  0  0  0
 14 18  1  0  0  0
 24 23  2  0  0  0
 24 19  1  0  0  0
  1 25  1  0  0  0
  1  5  1  0  0  0
 23 22  1  0  0  0
 16 19  1  0  0  0
 16 17  1  0  0  0
 19 20  2  0  0  0
 22 21  2  0  0  0
  5  4  2  0  0  0
  5  6  1  0  0  0
 18 17  2  0  0  0
  4  3  1  0  0  0
 20 21  1  0  0  0
  6  2  1  0  0  0
  3  2  2  0  0  0
  2  8  1  0  0  0
  9  8  1  0  0  0
 10  8  2  0  0  0
  8  7  2  0  0  0
 44 45  1  0  0  0
 37 40  1  0  0  0
 38 41  1  0  0  0
 39 42  1  0  0  0
  9 11  1  0  0  0
  9 12  1  0  0  0
M  END
> <minimizedAffinity>
-9.01822

$$$$
4RN4_3T7_A_303


 45 49  0  0  0  0  0  0  0  0999 V2000
   18.5219    5.7993   11.7207 N   0  0  0  0  0  0  0  0  0  0  0  0
   22.3509    5.8748   11.2444 C   0  0  0  0  0  0  0  0  0  0  0  0
   22.0403    7.0750   11.8914 N   0  0  0  0  0  0  0  0  0  0  0  0
   20.5844    7.1347   12.0958 N   0  0  0  0  0  0  0  0  0  0  0  0
   19.9530    5.9942   11.6114 C   0  0  0  0  0  0  0  0  0  0  0  0
   21.0226    4.9177   10.9546 S   0  0  0  0  0  0  0  0  0  0  0  0
   24.0331    4.3788    9.8909 O   0  0  0  0  0  0  0  0  0  0  0  0
   24.0283    5.4776   10.8100 S   0  0  0  0  0  0  0  0  0  0  0  0
   24.7773    5.0821   12.1979 N   0  0  0  0  0  0  0  0  0  0  0  0
   24.5562    6.6382   10.1661 O   0  0  0  0  0  0  0  0  0  0  0  0
   24.7598    5.8801   12.8330 H   0  0  0  0  0  0  0  0  0  0  0  0
   25.7446    4.8254   12.0010 H   0  0  0  0  0  0  0  0  0  0  0  0
   17.7076    6.6291   12.6109 C   0  0  0  0  0  0  0  0  0  0  0  0
   16.6801    5.7188   13.3399 C   0  0  0  0  0  0  0  0  0  0  0  0
   16.9252    4.6779   14.2291 C   0  0  0  0  0  0  0  0  0  0  0  0
   15.7283    4.1977   14.6123 N   0  0  0  0  0  0  0  0  0  0  0  0
   14.7532    4.9049   14.0008 N   0  0  0  0  0  0  0  0  0  0  0  0
   15.3475    5.8491   13.2080 N   0  0  0  0  0  0  0  0  0  0  0  0
   15.4706    3.1410   15.5230 C   0  0  0  0  0  0  0  0  0  0  0  0
   16.3227    2.0438   15.5604 C   0  0  0  0  0  0  0  0  0  0  0  0
   16.0567    0.9944   16.4469 C   0  0  0  0  0  0  0  0  0  0  0  0
   14.9369    1.0434   17.2843 C   0  0  0  0  0  0  0  0  0  0  0  0
   14.0830    2.1411   17.2345 C   0  0  0  0  0  0  0  0  0  0  0  0
   14.3502    3.1883   16.3485 C   0  0  0  0  0  0  0  0  0  0  0  0
   17.9177    4.7592   10.9223 C   0  0  0  0  0  0  0  0  0  0  0  0
   17.5587    5.3283    9.5483 C   0  0  0  0  0  0  0  0  0  0  0  0
   16.7212    6.4170    9.3262 C   0  0  0  0  0  0  0  0  0  0  0  0
   16.6639    6.6294    8.0264 N   0  0  0  0  0  0  0  0  0  0  0  0
   17.4436    5.7076    7.3833 N   0  0  0  0  0  0  0  0  0  0  0  0
   18.0027    4.9154    8.3489 N   0  0  0  0  0  0  0  0  0  0  0  0
   15.9122    7.6522    7.4259 C   0  0  0  0  0  0  0  0  0  0  0  0
   14.4817    7.2114    7.4459 C   0  0  0  0  0  0  0  0  0  0  0  0
   13.4977    8.3385    7.4061 C   0  0  0  0  0  0  0  0  0  0  0  0
   14.0469    9.6607    7.0038 C   0  0  0  0  0  0  0  0  0  0  0  0
   15.3297   10.0529    7.7010 C   0  0  0  0  0  0  0  0  0  0  0  0
   16.1445    8.8952    8.1687 O   0  0  0  0  0  0  0  0  0  0  0  0
   14.2866    9.6587    5.5607 O   0  0  0  0  0  0  0  0  0  0  0  0
   12.8676    8.4555    8.7197 O   0  0  0  0  0  0  0  0  0  0  0  0
   14.2796    6.3186    6.3231 O   0  0  0  0  0  0  0  0  0  0  0  0
   14.9574    8.9919    5.3453 H   0  0  0  0  0  0  0  0  0  0  0  0
   13.5388    8.6858    9.3809 H   0  0  0  0  0  0  0  0  0  0  0  0
   14.4516    6.7953    5.4960 H   0  0  0  0  0  0  0  0  0  0  0  0
   15.0536   10.9613    8.8662 C   0  0  0  0  0  0  0  0  0  0  0  0
   15.0732   10.2490   10.0978 O   0  0  0  0  0  0  0  0  0  0  0  0
   15.9504    9.8570   10.2307 H   0  0  0  0  0  0  0  0  0  0  0  0
 38 33  1  0  0  0
 33 34  1  0  0  0
 33 32  1  0  0  0
 39 32  1  0  0  0
 37 34  1  0  0  0
 34 35  1  0  0  0
 32 31  1  0  0  0
 44 43  1  0  0  0
 35 43  1  0  0  0
 35 36  1  0  0  0
 31 36  1  0  0  0
 31 28  1  0  0  0
 29 28  1  0  0  0
 29 30  2  0  0  0
 28 27  1  0  0  0
 30 26  1  0  0  0
 27 26  2  0  0  0
 26 25  1  0  0  0
 13 14  1  0  0  0
 13  1  1  0  0  0
 15 14  2  0  0  0
 15 16  1  0  0  0
 14 18  1  0  0  0
 24 23  2  0  0  0
 24 19  1  0  0  0
  1 25  1  0  0  0
  1  5  1  0  0  0
 23 22  1  0  0  0
 16 19  1  0  0  0
 16 17  1  0  0  0
 19 20  2  0  0  0
 22 21  2  0  0  0
  5  4  2  0  0  0
  5  6  1  0  0  0
 18 17  2  0  0  0
  4  3  1  0  0  0
 20 21  1  0  0  0
  6  2  1  0  0  0
  3  2  2  0  0  0
  2  8  1  0  0  0
  9  8  1  0  0  0
 10  8  2  0  0  0
  8  7  2  0  0  0
 44 45  1  0  0  0
 37 40  1  0  0  0
 38 41  1  0  0  0
 39 42  1  0  0  0
  9 11  1  0  0  0
  9 12  1  0  0  0
M  END
> <minimizedAffinity>
-8.91886

$$$$
4RN4_3T7_A_303


 45 49  0  0  0  0  0  0  0  0999 V2000
   17.4178    6.2505   11.2587 N   0  0  0  0  0  0  0  0  0  0  0  0
   17.6402    2.4185   10.8584 C   0  0  0  0  0  0  0  0  0  0  0  0
   16.3749    2.7629   10.3725 N   0  0  0  0  0  0  0  0  0  0  0  0
   16.2007    4.2178   10.5074 N   0  0  0  0  0  0  0  0  0  0  0  0
   17.3298    4.8195   11.0524 C   0  0  0  0  0  0  0  0  0  0  0  0
   18.5244    3.7250   11.3833 S   0  0  0  0  0  0  0  0  0  0  0  0
   17.8887    0.1196    9.6124 O   0  0  0  0  0  0  0  0  0  0  0  0
   18.1830    0.7258   10.8765 S   0  0  0  0  0  0  0  0  0  0  0  0
   17.3654   -0.0024   12.0785 N   0  0  0  0  0  0  0  0  0  0  0  0
   19.5981    0.7655   11.0668 O   0  0  0  0  0  0  0  0  0  0  0  0
   17.5924    0.4474   12.9654 H   0  0  0  0  0  0  0  0  0  0  0  0
   17.6273   -0.9873   12.1199 H   0  0  0  0  0  0  0  0  0  0  0  0
   17.1816    6.8444   12.5762 C   0  0  0  0  0  0  0  0  0  0  0  0
   16.2514    5.9010   13.3889 C   0  0  0  0  0  0  0  0  0  0  0  0
   16.6011    4.8044   14.1698 C   0  0  0  0  0  0  0  0  0  0  0  0
   15.4622    4.3134   14.6909 N   0  0  0  0  0  0  0  0  0  0  0  0
   14.4233    5.0670   14.2691 N   0  0  0  0  0  0  0  0  0  0  0  0
   14.9163    6.0526   13.4574 N   0  0  0  0  0  0  0  0  0  0  0  0
   15.3169    3.2049   15.5641 C   0  0  0  0  0  0  0  0  0  0  0  0
   14.2330    3.1524   16.4324 C   0  0  0  0  0  0  0  0  0  0  0  0
   14.1011    2.0669   17.3054 C   0  0  0  0  0  0  0  0  0  0  0  0
   15.0568    1.0449   17.3118 C   0  0  0  0  0  0  0  0  0  0  0  0
   16.1443    1.1091   16.4460 C   0  0  0  0  0  0  0  0  0  0  0  0
   16.2745    2.1940   15.5747 C   0  0  0  0  0  0  0  0  0  0  0  0
   17.7479    7.0788   10.1232 C   0  0  0  0  0  0  0  0  0  0  0  0
   16.4698    7.7300    9.5909 C   0  0  0  0  0  0  0  0  0  0  0  0
   16.4030    8.9737    8.9707 C   0  0  0  0  0  0  0  0  0  0  0  0
   15.1486    9.1928    8.6296 N   0  0  0  0  0  0  0  0  0  0  0  0
   14.3841    8.1238    9.0090 N   0  0  0  0  0  0  0  0  0  0  0  0
   15.2272    7.2181    9.5933 N   0  0  0  0  0  0  0  0  0  0  0  0
   14.6987   10.3520    7.9774 C   0  0  0  0  0  0  0  0  0  0  0  0
   13.4612    9.9760    7.2236 C   0  0  0  0  0  0  0  0  0  0  0  0
   12.5360   11.1233    6.9628 C   0  0  0  0  0  0  0  0  0  0  0  0
   13.1167   12.4782    7.1596 C   0  0  0  0  0  0  0  0  0  0  0  0
   13.8904   12.6554    8.4463 C   0  0  0  0  0  0  0  0  0  0  0  0
   14.4677   11.3912    8.9862 O   0  0  0  0  0  0  0  0  0  0  0  0
   14.0063   12.7834    6.0391 O   0  0  0  0  0  0  0  0  0  0  0  0
   11.3559   10.9744    7.8121 O   0  0  0  0  0  0  0  0  0  0  0  0
   13.8732    9.3605    5.9786 O   0  0  0  0  0  0  0  0  0  0  0  0
   14.7440   12.1535    6.0311 H   0  0  0  0  0  0  0  0  0  0  0  0
   11.6196   11.0265    8.7441 H   0  0  0  0  0  0  0  0  0  0  0  0
   14.3804    9.9998    5.4542 H   0  0  0  0  0  0  0  0  0  0  0  0
   13.0366   13.2962    9.5044 C   0  0  0  0  0  0  0  0  0  0  0  0
   11.7873   13.7256    8.9759 O   0  0  0  0  0  0  0  0  0  0  0  0
   11.3026   12.9601    8.6294 H   0  0  0  0  0  0  0  0  0  0  0  0
 38 33  1  0  0  0
 33 34  1  0  0  0
 33 32  1  0  0  0
 39 32  1  0  0  0
 37 34  1  0  0  0
 34 35  1  0  0  0
 32 31  1  0  0  0
 44 43  1  0  0  0
 35 43  1  0  0  0
 35 36  1  0  0  0
 31 36  1  0  0  0
 31 28  1  0  0  0
 29 28  1  0  0  0
 29 30  2  0  0  0
 28 27  1  0  0  0
 30 26  1  0  0  0
 27 26  2  0  0  0
 26 25  1  0  0  0
 13 14  1  0  0  0
 13  1  1  0  0  0
 15 14  2  0  0  0
 15 16  1  0  0  0
 14 18  1  0  0  0
 24 23  2  0  0  0
 24 19  1  0  0  0
  1 25  1  0  0  0
  1  5  1  0  0  0
 23 22  1  0  0  0
 16 19  1  0  0  0
 16 17  1  0  0  0
 19 20  2  0  0  0
 22 21  2  0  0  0
  5  4  2  0  0  0
  5  6  1  0  0  0
 18 17  2  0  0  0
  4  3  1  0  0  0
 20 21  1  0  0  0
  6  2  1  0  0  0
  3  2  2  0  0  0
  2  8  1  0  0  0
  9  8  1  0  0  0
 10  8  2  0  0  0
  8  7  2  0  0  0
 44 45  1  0  0  0
 37 40  1  0  0  0
 38 41  1  0  0  0
 39 42  1  0  0  0
  9 11  1  0  0  0
  9 12  1  0  0  0
M  END
> <minimizedAffinity>
-8.82397

$$$$
4RN4_3T7_A_303


 45 49  0  0  0  0  0  0  0  0999 V2000
   18.0990    5.5043   11.1168 N   0  0  0  0  0  0  0  0  0  0  0  0
   21.8782    5.5824   10.3390 C   0  0  0  0  0  0  0  0  0  0  0  0
   21.3108    6.5341    9.4858 N   0  0  0  0  0  0  0  0  0  0  0  0
   19.8563    6.5546    9.7073 N   0  0  0  0  0  0  0  0  0  0  0  0
   19.4766    5.6515   10.6943 C   0  0  0  0  0  0  0  0  0  0  0  0
   20.7675    4.8295   11.3208 S   0  0  0  0  0  0  0  0  0  0  0  0
   23.8966    4.1293    9.4937 O   0  0  0  0  0  0  0  0  0  0  0  0
   23.6276    5.2667   10.3220 S   0  0  0  0  0  0  0  0  0  0  0  0
   24.0542    4.9803   11.8646 N   0  0  0  0  0  0  0  0  0  0  0  0
   24.2339    6.4261    9.7491 O   0  0  0  0  0  0  0  0  0  0  0  0
   23.8527    5.8040   12.4316 H   0  0  0  0  0  0  0  0  0  0  0  0
   25.0519    4.7731   11.9086 H   0  0  0  0  0  0  0  0  0  0  0  0
   17.3221    4.3115   10.7736 C   0  0  0  0  0  0  0  0  0  0  0  0
   17.1361    3.4518   12.0551 C   0  0  0  0  0  0  0  0  0  0  0  0
   16.3167    3.6997   13.1513 C   0  0  0  0  0  0  0  0  0  0  0  0
   16.4762    2.6702   14.0025 N   0  0  0  0  0  0  0  0  0  0  0  0
   17.3560    1.7924   13.4729 N   0  0  0  0  0  0  0  0  0  0  0  0
   17.7670    2.2817   12.2626 N   0  0  0  0  0  0  0  0  0  0  0  0
   15.8353    2.4731   15.2526 C   0  0  0  0  0  0  0  0  0  0  0  0
   16.1342    1.3447   16.0069 C   0  0  0  0  0  0  0  0  0  0  0  0
   15.4878    1.1430   17.2313 C   0  0  0  0  0  0  0  0  0  0  0  0
   14.5410    2.0650   17.6909 C   0  0  0  0  0  0  0  0  0  0  0  0
   14.2402    3.1877   16.9257 C   0  0  0  0  0  0  0  0  0  0  0  0
   14.8867    3.3875   15.7030 C   0  0  0  0  0  0  0  0  0  0  0  0
   17.5108    6.5718   11.8907 C   0  0  0  0  0  0  0  0  0  0  0  0
   16.2471    7.0648   11.1831 C   0  0  0  0  0  0  0  0  0  0  0  0
   16.2213    7.7343    9.9637 C   0  0  0  0  0  0  0  0  0  0  0  0
   14.9624    7.9811    9.6601 N   0  0  0  0  0  0  0  0  0  0  0  0
   14.1548    7.4907   10.6493 N   0  0  0  0  0  0  0  0  0  0  0  0
   14.9727    6.9121   11.5814 N   0  0  0  0  0  0  0  0  0  0  0  0
   14.5467    8.6444    8.4944 C   0  0  0  0  0  0  0  0  0  0  0  0
   13.2949    7.9673    8.0301 C   0  0  0  0  0  0  0  0  0  0  0  0
   12.4055    8.8378    7.1987 C   0  0  0  0  0  0  0  0  0  0  0  0
   13.0296   10.0797    6.6695 C   0  0  0  0  0  0  0  0  0  0  0  0
   13.8137   10.8778    7.6863 C   0  0  0  0  0  0  0  0  0  0  0  0
   14.3529   10.0629    8.8124 O   0  0  0  0  0  0  0  0  0  0  0  0
   13.9238    9.7313    5.5655 O   0  0  0  0  0  0  0  0  0  0  0  0
   11.2247    9.1871    7.9861 O   0  0  0  0  0  0  0  0  0  0  0  0
   13.6822    6.7822    7.2923 O   0  0  0  0  0  0  0  0  0  0  0  0
   14.6411    9.1681    5.8958 H   0  0  0  0  0  0  0  0  0  0  0  0
   11.4937    9.7087    8.7583 H   0  0  0  0  0  0  0  0  0  0  0  0
   14.2072    7.0403    6.5186 H   0  0  0  0  0  0  0  0  0  0  0  0
   12.9850   12.0002    8.2455 C   0  0  0  0  0  0  0  0  0  0  0  0
   12.1614   12.5877    7.2451 O   0  0  0  0  0  0  0  0  0  0  0  0
   11.5532   11.9190    6.8931 H   0  0  0  0  0  0  0  0  0  0  0  0
 38 33  1  0  0  0
 33 34  1  0  0  0
 33 32  1  0  0  0
 39 32  1  0  0  0
 37 34  1  0  0  0
 34 35  1  0  0  0
 32 31  1  0  0  0
 44 43  1  0  0  0
 35 43  1  0  0  0
 35 36  1  0  0  0
 31 36  1  0  0  0
 31 28  1  0  0  0
 29 28  1  0  0  0
 29 30  2  0  0  0
 28 27  1  0  0  0
 30 26  1  0  0  0
 27 26  2  0  0  0
 26 25  1  0  0  0
 13 14  1  0  0  0
 13  1  1  0  0  0
 15 14  2  0  0  0
 15 16  1  0  0  0
 14 18  1  0  0  0
 24 23  2  0  0  0
 24 19  1  0  0  0
  1 25  1  0  0  0
  1  5  1  0  0  0
 23 22  1  0  0  0
 16 19  1  0  0  0
 16 17  1  0  0  0
 19 20  2  0  0  0
 22 21  2  0  0  0
  5  4  2  0  0  0
  5  6  1  0  0  0
 18 17  2  0  0  0
  4  3  1  0  0  0
 20 21  1  0  0  0
  6  2  1  0  0  0
  3  2  2  0  0  0
  2  8  1  0  0  0
  9  8  1  0  0  0
 10  8  2  0  0  0
  8  7  2  0  0  0
 44 45  1  0  0  0
 37 40  1  0  0  0
 38 41  1  0  0  0
 39 42  1  0  0  0
  9 11  1  0  0  0
  9 12  1  0  0  0
M  END
> <minimizedAffinity>
-8.80086

$$$$
