4ABB_K9S_A_1252


 13 14  0  0  0  0  0  0  0  0999 V2000
    0.7883  -15.4315   15.9832 C   0  0  0  0  0  0  0  0  0  0  0  0
    0.5394  -14.7447   14.4256 S   0  0  0  0  0  0  0  0  0  0  0  0
    1.4269  -13.2881   14.8242 C   0  0  0  0  0  0  0  0  0  0  0  0
    1.9314  -13.3910   16.1509 C   0  0  0  0  0  0  0  0  0  0  0  0
    1.5819  -14.5595   16.8044 C   0  0  0  0  0  0  0  0  0  0  0  0
    1.7227  -12.1725   14.0541 C   0  0  0  0  0  0  0  0  0  0  0  0
    2.4934  -11.0798   14.5983 C   0  0  0  0  0  0  0  0  0  0  0  0
    2.9310  -11.1666   15.8672 C   0  0  0  0  0  0  0  0  0  0  0  0
    2.6803  -12.3414   16.7276 C   0  0  0  0  0  0  0  0  0  0  0  0
    1.9677  -16.2441   18.5296 N   0  0  0  0  0  0  0  0  0  0  0  0
    1.9777  -14.8217   18.2064 C   0  0  0  0  0  0  0  0  0  0  0  0
    2.2462  -16.3738   19.5022 H   0  0  0  0  0  0  0  0  0  0  0  0
    2.6215  -16.7358   17.9203 H   0  0  0  0  0  0  0  0  0  0  0  0
  1  2  1  0  0  0
  1  5  2  0  0  0
 10 11  1  0  0  0
  2  3  1  0  0  0
  3  4  1  0  0  0
  3  6  2  0  0  0
  4  5  1  0  0  0
  4  9  2  0  0  0
  5 11  1  0  0  0
  6  7  1  0  0  0
  7  8  2  0  0  0
  8  9  1  0  0  0
 10 12  1  0  0  0
 10 13  1  0  0  0
M  END
> <minimizedAffinity>
-5.48761

$$$$
4ABB_K9S_A_1252


 13 14  0  0  0  0  0  0  0  0999 V2000
    2.3796  -10.9947   14.5495 C   0  0  0  0  0  0  0  0  0  0  0  0
    1.4259  -12.0179   13.5479 S   0  0  0  0  0  0  0  0  0  0  0  0
    1.4031  -13.3096   14.7309 C   0  0  0  0  0  0  0  0  0  0  0  0
    2.1063  -12.8946   15.8964 C   0  0  0  0  0  0  0  0  0  0  0  0
    2.6563  -11.6279   15.8093 C   0  0  0  0  0  0  0  0  0  0  0  0
    0.7879  -14.5528   14.6976 C   0  0  0  0  0  0  0  0  0  0  0  0
    0.8963  -15.4631   15.8129 C   0  0  0  0  0  0  0  0  0  0  0  0
    1.5982  -15.0795   16.8942 C   0  0  0  0  0  0  0  0  0  0  0  0
    2.2469  -13.7567   17.0064 C   0  0  0  0  0  0  0  0  0  0  0  0
    2.6323  -10.4365   17.9407 N   0  0  0  0  0  0  0  0  0  0  0  0
    3.4613  -11.0460   16.9067 C   0  0  0  0  0  0  0  0  0  0  0  0
    3.2297  -10.0511   18.6721 H   0  0  0  0  0  0  0  0  0  0  0  0
    2.0157  -11.1428   18.3424 H   0  0  0  0  0  0  0  0  0  0  0  0
  1  2  1  0  0  0
  1  5  2  0  0  0
 10 11  1  0  0  0
  2  3  1  0  0  0
  3  4  1  0  0  0
  3  6  2  0  0  0
  4  5  1  0  0  0
  4  9  2  0  0  0
  5 11  1  0  0  0
  6  7  1  0  0  0
  7  8  2  0  0  0
  8  9  1  0  0  0
 10 12  1  0  0  0
 10 13  1  0  0  0
M  END
> <minimizedAffinity>
-5.10319

$$$$
4ABB_K9S_A_1252


 13 14  0  0  0  0  0  0  0  0999 V2000
    1.2950  -10.6770   15.3122 C   0  0  0  0  0  0  0  0  0  0  0  0
    2.1434  -11.1761   16.7230 S   0  0  0  0  0  0  0  0  0  0  0  0
    1.6895  -12.8551   16.5144 C   0  0  0  0  0  0  0  0  0  0  0  0
    0.9203  -12.9917   15.3249 C   0  0  0  0  0  0  0  0  0  0  0  0
    0.6875  -11.8023   14.6572 C   0  0  0  0  0  0  0  0  0  0  0  0
    2.0094  -13.9764   17.2664 C   0  0  0  0  0  0  0  0  0  0  0  0
    1.5250  -15.2833   16.8904 C   0  0  0  0  0  0  0  0  0  0  0  0
    0.7635  -15.3977   15.7877 C   0  0  0  0  0  0  0  0  0  0  0  0
    0.4165  -14.2492   14.9251 C   0  0  0  0  0  0  0  0  0  0  0  0
   -1.5301  -11.4346   13.7033 N   0  0  0  0  0  0  0  0  0  0  0  0
   -0.1316  -11.7425   13.4257 C   0  0  0  0  0  0  0  0  0  0  0  0
   -2.0520  -11.4044   12.8274 H   0  0  0  0  0  0  0  0  0  0  0  0
   -1.5931  -10.5288   14.1680 H   0  0  0  0  0  0  0  0  0  0  0  0
  1  2  1  0  0  0
  1  5  2  0  0  0
 10 11  1  0  0  0
  2  3  1  0  0  0
  3  4  1  0  0  0
  3  6  2  0  0  0
  4  5  1  0  0  0
  4  9  2  0  0  0
  5 11  1  0  0  0
  6  7  1  0  0  0
  7  8  2  0  0  0
  8  9  1  0  0  0
 10 12  1  0  0  0
 10 13  1  0  0  0
M  END
> <minimizedAffinity>
-5.01304

$$$$
4ABB_K9S_A_1252


 13 14  0  0  0  0  0  0  0  0999 V2000
    1.4000  -15.1507   16.5221 C   0  0  0  0  0  0  0  0  0  0  0  0
    2.1762  -14.2804   17.7870 S   0  0  0  0  0  0  0  0  0  0  0  0
    2.1946  -12.7862   16.8730 C   0  0  0  0  0  0  0  0  0  0  0  0
    1.5569  -12.9930   15.6177 C   0  0  0  0  0  0  0  0  0  0  0  0
    1.1221  -14.2895   15.4061 C   0  0  0  0  0  0  0  0  0  0  0  0
    2.6590  -11.5245   17.2158 C   0  0  0  0  0  0  0  0  0  0  0  0
    2.5557  -10.4206   16.2912 C   0  0  0  0  0  0  0  0  0  0  0  0
    1.9894  -10.6345   15.0901 C   0  0  0  0  0  0  0  0  0  0  0  0
    1.4439  -11.9445   14.6780 C   0  0  0  0  0  0  0  0  0  0  0  0
    1.4416  -15.1852   13.1570 N   0  0  0  0  0  0  0  0  0  0  0  0
    0.4773  -14.7027   14.1395 C   0  0  0  0  0  0  0  0  0  0  0  0
    0.9515  -15.4571   12.3047 H   0  0  0  0  0  0  0  0  0  0  0  0
    1.9382  -15.9917   13.5356 H   0  0  0  0  0  0  0  0  0  0  0  0
  1  2  1  0  0  0
  1  5  2  0  0  0
 10 11  1  0  0  0
  2  3  1  0  0  0
  3  4  1  0  0  0
  3  6  2  0  0  0
  4  5  1  0  0  0
  4  9  2  0  0  0
  5 11  1  0  0  0
  6  7  1  0  0  0
  7  8  2  0  0  0
  8  9  1  0  0  0
 10 12  1  0  0  0
 10 13  1  0  0  0
M  END
> <minimizedAffinity>
-4.65469

$$$$
4ABB_K9S_A_1252


 13 14  0  0  0  0  0  0  0  0999 V2000
    2.2758  -13.0606   16.9558 C   0  0  0  0  0  0  0  0  0  0  0  0
    2.7346  -11.4039   17.0228 S   0  0  0  0  0  0  0  0  0  0  0  0
    2.3127  -11.1235   15.3459 C   0  0  0  0  0  0  0  0  0  0  0  0
    1.7850  -12.3205   14.7856 C   0  0  0  0  0  0  0  0  0  0  0  0
    1.7659  -13.3967   15.6552 C   0  0  0  0  0  0  0  0  0  0  0  0
    2.3688   -9.9661   14.5828 C   0  0  0  0  0  0  0  0  0  0  0  0
    1.9491   -9.9685   13.2015 C   0  0  0  0  0  0  0  0  0  0  0  0
    1.4908  -11.1147   12.6673 C   0  0  0  0  0  0  0  0  0  0  0  0
    1.3731  -12.3714   13.4355 C   0  0  0  0  0  0  0  0  0  0  0  0
    1.8458  -15.8032   16.0615 N   0  0  0  0  0  0  0  0  0  0  0  0
    1.2941  -14.7352   15.2351 C   0  0  0  0  0  0  0  0  0  0  0  0
    1.4931  -16.7028   15.7346 H   0  0  0  0  0  0  0  0  0  0  0  0
    1.5665  -15.6609   17.0321 H   0  0  0  0  0  0  0  0  0  0  0  0
  1  2  1  0  0  0
  1  5  2  0  0  0
 10 11  1  0  0  0
  2  3  1  0  0  0
  3  4  1  0  0  0
  3  6  2  0  0  0
  4  5  1  0  0  0
  4  9  2  0  0  0
  5 11  1  0  0  0
  6  7  1  0  0  0
  7  8  2  0  0  0
  8  9  1  0  0  0
 10 12  1  0  0  0
 10 13  1  0  0  0
M  END
> <minimizedAffinity>
-4.54126

$$$$
4ABB_K9S_A_1252


 13 14  0  0  0  0  0  0  0  0999 V2000
    1.9411  -13.7327   16.3745 C   0  0  0  0  0  0  0  0  0  0  0  0
    2.2478  -12.1987   17.0903 S   0  0  0  0  0  0  0  0  0  0  0  0
    1.1478  -11.3702   16.0077 C   0  0  0  0  0  0  0  0  0  0  0  0
    0.5363  -12.3181   15.1401 C   0  0  0  0  0  0  0  0  0  0  0  0
    0.9681  -13.6199   15.3233 C   0  0  0  0  0  0  0  0  0  0  0  0
    0.7869  -10.0323   15.9384 C   0  0  0  0  0  0  0  0  0  0  0  0
   -0.1654   -9.5719   14.9559 C   0  0  0  0  0  0  0  0  0  0  0  0
   -0.7073  -10.4678   14.1117 C   0  0  0  0  0  0  0  0  0  0  0  0
   -0.3920  -11.9107   14.1566 C   0  0  0  0  0  0  0  0  0  0  0  0
    1.3405  -14.9848   13.3330 N   0  0  0  0  0  0  0  0  0  0  0  0
    0.4770  -14.7341   14.4817 C   0  0  0  0  0  0  0  0  0  0  0  0
    0.9623  -15.7580   12.7857 H   0  0  0  0  0  0  0  0  0  0  0  0
    2.2773  -15.2243   13.6577 H   0  0  0  0  0  0  0  0  0  0  0  0
  1  2  1  0  0  0
  1  5  2  0  0  0
 10 11  1  0  0  0
  2  3  1  0  0  0
  3  4  1  0  0  0
  3  6  2  0  0  0
  4  5  1  0  0  0
  4  9  2  0  0  0
  5 11  1  0  0  0
  6  7  1  0  0  0
  7  8  2  0  0  0
  8  9  1  0  0  0
 10 12  1  0  0  0
 10 13  1  0  0  0
M  END
> <minimizedAffinity>
-4.48907

$$$$
4ABB_K9S_A_1252


 13 14  0  0  0  0  0  0  0  0999 V2000
    0.3663  -13.4989   14.8104 C   0  0  0  0  0  0  0  0  0  0  0  0
    0.0621  -12.1148   13.8351 S   0  0  0  0  0  0  0  0  0  0  0  0
    1.5319  -11.3136   14.3511 C   0  0  0  0  0  0  0  0  0  0  0  0
    2.2454  -12.1642   15.2413 C   0  0  0  0  0  0  0  0  0  0  0  0
    1.6138  -13.3656   15.5106 C   0  0  0  0  0  0  0  0  0  0  0  0
    2.0672  -10.0871   13.9849 C   0  0  0  0  0  0  0  0  0  0  0  0
    3.3197   -9.6303   14.5388 C   0  0  0  0  0  0  0  0  0  0  0  0
    3.9672  -10.4224   15.4119 C   0  0  0  0  0  0  0  0  0  0  0  0
    3.4687  -11.7535   15.8157 C   0  0  0  0  0  0  0  0  0  0  0  0
    1.8600  -15.7290   16.0733 N   0  0  0  0  0  0  0  0  0  0  0  0
    2.1842  -14.3574   16.4497 C   0  0  0  0  0  0  0  0  0  0  0  0
    2.2732  -16.3733   16.7475 H   0  0  0  0  0  0  0  0  0  0  0  0
    2.2330  -15.9238   15.1442 H   0  0  0  0  0  0  0  0  0  0  0  0
  1  2  1  0  0  0
  1  5  2  0  0  0
 10 11  1  0  0  0
  2  3  1  0  0  0
  3  4  1  0  0  0
  3  6  2  0  0  0
  4  5  1  0  0  0
  4  9  2  0  0  0
  5 11  1  0  0  0
  6  7  1  0  0  0
  7  8  2  0  0  0
  8  9  1  0  0  0
 10 12  1  0  0  0
 10 13  1  0  0  0
M  END
> <minimizedAffinity>
-4.48561

$$$$
4ABB_K9S_A_1252


 13 14  0  0  0  0  0  0  0  0999 V2000
    2.2576  -12.9581   15.6711 C   0  0  0  0  0  0  0  0  0  0  0  0
    1.4274  -13.3439   14.2146 S   0  0  0  0  0  0  0  0  0  0  0  0
    1.6041  -11.7226   13.5755 C   0  0  0  0  0  0  0  0  0  0  0  0
    2.3433  -10.9298   14.4976 C   0  0  0  0  0  0  0  0  0  0  0  0
    2.7026  -11.5920   15.6583 C   0  0  0  0  0  0  0  0  0  0  0  0
    1.2002  -11.1816   12.3634 C   0  0  0  0  0  0  0  0  0  0  0  0
    1.4708   -9.8005   12.0417 C   0  0  0  0  0  0  0  0  0  0  0  0
    2.1335   -9.0463   12.9368 C   0  0  0  0  0  0  0  0  0  0  0  0
    2.6211   -9.5712   14.2291 C   0  0  0  0  0  0  0  0  0  0  0  0
    2.6034  -10.7063   17.9318 N   0  0  0  0  0  0  0  0  0  0  0  0
    3.4353  -10.9149   16.7518 C   0  0  0  0  0  0  0  0  0  0  0  0
    3.1501  -10.2386   18.6548 H   0  0  0  0  0  0  0  0  0  0  0  0
    2.2773  -11.6073   18.2815 H   0  0  0  0  0  0  0  0  0  0  0  0
  1  2  1  0  0  0
  1  5  2  0  0  0
 10 11  1  0  0  0
  2  3  1  0  0  0
  3  4  1  0  0  0
  3  6  2  0  0  0
  4  5  1  0  0  0
  4  9  2  0  0  0
  5 11  1  0  0  0
  6  7  1  0  0  0
  7  8  2  0  0  0
  8  9  1  0  0  0
 10 12  1  0  0  0
 10 13  1  0  0  0
M  END
> <minimizedAffinity>
-4.20458

$$$$
4ABB_K9S_A_1252


 13 14  0  0  0  0  0  0  0  0999 V2000
    0.4193  -13.1965   14.5728 C   0  0  0  0  0  0  0  0  0  0  0  0
    1.7883  -13.5322   15.5591 S   0  0  0  0  0  0  0  0  0  0  0  0
    2.5156  -11.9705   15.2421 C   0  0  0  0  0  0  0  0  0  0  0  0
    1.6517  -11.2085   14.4064 C   0  0  0  0  0  0  0  0  0  0  0  0
    0.4993  -11.8715   14.0228 C   0  0  0  0  0  0  0  0  0  0  0  0
    3.6959  -11.4127   15.7121 C   0  0  0  0  0  0  0  0  0  0  0  0
    4.0936  -10.0814   15.3201 C   0  0  0  0  0  0  0  0  0  0  0  0
    3.2917   -9.3836   14.4961 C   0  0  0  0  0  0  0  0  0  0  0  0
    2.0060   -9.9065   13.9891 C   0  0  0  0  0  0  0  0  0  0  0  0
   -1.8390  -11.2540   13.6852 N   0  0  0  0  0  0  0  0  0  0  0  0
   -0.4954  -11.2539   13.1172 C   0  0  0  0  0  0  0  0  0  0  0  0
   -2.4863  -10.8201   13.0271 H   0  0  0  0  0  0  0  0  0  0  0  0
   -1.8388  -10.7279   14.5590 H   0  0  0  0  0  0  0  0  0  0  0  0
  1  2  1  0  0  0
  1  5  2  0  0  0
 10 11  1  0  0  0
  2  3  1  0  0  0
  3  4  1  0  0  0
  3  6  2  0  0  0
  4  5  1  0  0  0
  4  9  2  0  0  0
  5 11  1  0  0  0
  6  7  1  0  0  0
  7  8  2  0  0  0
  8  9  1  0  0  0
 10 12  1  0  0  0
 10 13  1  0  0  0
M  END
> <minimizedAffinity>
-4.16134

$$$$
4ABB_K9S_A_1252


 13 14  0  0  0  0  0  0  0  0999 V2000
    0.4410  -13.4872   14.6156 C   0  0  0  0  0  0  0  0  0  0  0  0
    1.6458  -13.8448   15.7904 S   0  0  0  0  0  0  0  0  0  0  0  0
    1.8977  -12.1560   16.1812 C   0  0  0  0  0  0  0  0  0  0  0  0
    1.0054  -11.3559   15.4139 C   0  0  0  0  0  0  0  0  0  0  0  0
    0.2039  -12.0720   14.5423 C   0  0  0  0  0  0  0  0  0  0  0  0
    2.7423  -11.5603   17.1069 C   0  0  0  0  0  0  0  0  0  0  0  0
    2.7715  -10.1259   17.2676 C   0  0  0  0  0  0  0  0  0  0  0  0
    1.9547   -9.3739   16.5085 C   0  0  0  0  0  0  0  0  0  0  0  0
    1.0076   -9.9482   15.5305 C   0  0  0  0  0  0  0  0  0  0  0  0
   -0.2695  -11.3581   12.2556 N   0  0  0  0  0  0  0  0  0  0  0  0
   -0.7533  -11.4055   13.6310 C   0  0  0  0  0  0  0  0  0  0  0  0
   -0.9606  -10.8916   11.6680 H   0  0  0  0  0  0  0  0  0  0  0  0
   -0.1192  -12.3078   11.9151 H   0  0  0  0  0  0  0  0  0  0  0  0
  1  2  1  0  0  0
  1  5  2  0  0  0
 10 11  1  0  0  0
  2  3  1  0  0  0
  3  4  1  0  0  0
  3  6  2  0  0  0
  4  5  1  0  0  0
  4  9  2  0  0  0
  5 11  1  0  0  0
  6  7  1  0  0  0
  7  8  2  0  0  0
  8  9  1  0  0  0
 10 12  1  0  0  0
 10 13  1  0  0  0
M  END
> <minimizedAffinity>
-4.02440

$$$$
