5OS8_J27_A_404


 20 21  0  0  0  0  0  0  0  0999 V2000
 -113.0548 -178.4387  310.6686 Cl  0  0  0  0  0  0  0  0  0  0  0  0
 -113.3958 -176.8552  310.0593 C   0  0  0  0  0  0  0  0  0  0  0  0
 -114.7128 -176.4927  309.8528 C   0  0  0  0  0  0  0  0  0  0  0  0
 -115.0274 -175.2113  309.4205 C   0  0  0  0  0  0  0  0  0  0  0  0
 -113.9852 -174.3247  309.1732 C   0  0  0  0  0  0  0  0  0  0  0  0
 -112.6657 -174.6964  309.3608 C   0  0  0  0  0  0  0  0  0  0  0  0
 -112.3451 -175.9746  309.8189 C   0  0  0  0  0  0  0  0  0  0  0  0
 -110.9170 -176.3429  310.0463 C   0  0  0  0  0  0  0  0  0  0  0  0
 -110.3139 -176.2642  311.3233 C   0  0  0  0  0  0  0  0  0  0  0  0
 -111.0237 -175.6800  312.5229 C   0  0  0  0  0  0  0  0  0  0  0  0
 -110.1912 -176.8693  308.9718 C   0  0  0  0  0  0  0  0  0  0  0  0
 -108.8942 -177.3176  309.1464 C   0  0  0  0  0  0  0  0  0  0  0  0
 -108.3401 -177.2236  310.3908 C   0  0  0  0  0  0  0  0  0  0  0  0
 -107.0653 -177.6433  310.5647 F   0  0  0  0  0  0  0  0  0  0  0  0
 -109.0113 -176.7206  311.4794 C   0  0  0  0  0  0  0  0  0  0  0  0
 -116.4645 -174.8021  309.2510 C   0  0  0  0  0  0  0  0  0  0  0  0
 -117.2553 -175.7415  308.4557 N   0  0  0  0  0  0  0  0  0  0  0  0
 -117.2815 -176.6466  308.9253 H   0  0  0  0  0  0  0  0  0  0  0  0
 -116.8307 -175.8486  307.5345 H   0  0  0  0  0  0  0  0  0  0  0  0
 -118.2052 -175.3843  308.3527 H   0  0  0  0  0  0  0  0  0  0  0  0
 17 16  1  0  0  0
 11 12  2  0  0  0
 11  8  1  0  0  0
 12 13  1  0  0  0
  5  6  2  0  0  0
  5  4  1  0  0  0
  6  7  1  0  0  0
 16  4  1  0  0  0
  4  3  2  0  0  0
  7  8  1  0  0  0
  7  2  2  0  0  0
  8  9  2  0  0  0
  3  2  1  0  0  0
  2  1  1  0  0  0
 13 14  1  0  0  0
 13 15  2  0  0  0
  9 15  1  0  0  0
  9 10  1  0  0  0
 17 18  1  0  0  0
 17 19  1  0  0  0
 17 20  1  0  0  0
M  CHG 1  17   1
M  END
> <minimizedAffinity>
-8.59394

$$$$
5OS8_J27_A_404


 20 21  0  0  0  0  0  0  0  0999 V2000
 -113.0615 -178.5117  310.4217 Cl  0  0  0  0  0  0  0  0  0  0  0  0
 -113.3385 -176.8583  309.9919 C   0  0  0  0  0  0  0  0  0  0  0  0
 -114.6250 -176.4586  309.6856 C   0  0  0  0  0  0  0  0  0  0  0  0
 -114.8944 -175.1282  309.3931 C   0  0  0  0  0  0  0  0  0  0  0  0
 -113.8353 -174.2273  309.3862 C   0  0  0  0  0  0  0  0  0  0  0  0
 -112.5442 -174.6338  309.6729 C   0  0  0  0  0  0  0  0  0  0  0  0
 -112.2717 -175.9644  309.9919 C   0  0  0  0  0  0  0  0  0  0  0  0
 -110.8773 -176.3738  310.3307 C   0  0  0  0  0  0  0  0  0  0  0  0
 -109.9682 -176.8322  309.3488 C   0  0  0  0  0  0  0  0  0  0  0  0
 -110.3739 -177.0677  307.9120 C   0  0  0  0  0  0  0  0  0  0  0  0
 -110.4410 -176.2051  311.6496 C   0  0  0  0  0  0  0  0  0  0  0  0
 -109.1310 -176.4765  312.0014 C   0  0  0  0  0  0  0  0  0  0  0  0
 -108.2801 -176.9214  311.0305 C   0  0  0  0  0  0  0  0  0  0  0  0
 -107.0018 -177.2063  311.3715 F   0  0  0  0  0  0  0  0  0  0  0  0
 -108.6566 -177.0981  309.7207 C   0  0  0  0  0  0  0  0  0  0  0  0
 -116.3046 -174.6858  309.1156 C   0  0  0  0  0  0  0  0  0  0  0  0
 -117.1460 -175.7300  308.5308 N   0  0  0  0  0  0  0  0  0  0  0  0
 -117.2266 -176.5081  309.1854 H   0  0  0  0  0  0  0  0  0  0  0  0
 -116.7251 -176.0589  307.6619 H   0  0  0  0  0  0  0  0  0  0  0  0
 -118.0731 -175.3511  308.3374 H   0  0  0  0  0  0  0  0  0  0  0  0
 17 16  1  0  0  0
 11 12  2  0  0  0
 11  8  1  0  0  0
 12 13  1  0  0  0
  5  6  2  0  0  0
  5  4  1  0  0  0
  6  7  1  0  0  0
 16  4  1  0  0  0
  4  3  2  0  0  0
  7  8  1  0  0  0
  7  2  2  0  0  0
  8  9  2  0  0  0
  3  2  1  0  0  0
  2  1  1  0  0  0
 13 14  1  0  0  0
 13 15  2  0  0  0
  9 15  1  0  0  0
  9 10  1  0  0  0
 17 18  1  0  0  0
 17 19  1  0  0  0
 17 20  1  0  0  0
M  CHG 1  17   1
M  END
> <minimizedAffinity>
-8.19466

$$$$
5OS8_J27_A_404


 20 21  0  0  0  0  0  0  0  0999 V2000
 -112.0892 -173.3402  309.7184 Cl  0  0  0  0  0  0  0  0  0  0  0  0
 -113.3188 -174.5565  309.7810 C   0  0  0  0  0  0  0  0  0  0  0  0
 -114.5902 -174.2382  309.3443 C   0  0  0  0  0  0  0  0  0  0  0  0
 -115.5870 -175.2048  309.3252 C   0  0  0  0  0  0  0  0  0  0  0  0
 -115.2774 -176.4799  309.7851 C   0  0  0  0  0  0  0  0  0  0  0  0
 -114.0088 -176.7910  310.2416 C   0  0  0  0  0  0  0  0  0  0  0  0
 -112.9969 -175.8305  310.2396 C   0  0  0  0  0  0  0  0  0  0  0  0
 -111.6273 -176.1973  310.7049 C   0  0  0  0  0  0  0  0  0  0  0  0
 -110.6176 -176.6225  309.8103 C   0  0  0  0  0  0  0  0  0  0  0  0
 -110.8816 -176.8644  308.3420 C   0  0  0  0  0  0  0  0  0  0  0  0
 -111.3198 -176.0206  312.0586 C   0  0  0  0  0  0  0  0  0  0  0  0
 -110.0398 -176.2520  312.5293 C   0  0  0  0  0  0  0  0  0  0  0  0
 -109.0894 -176.6656  311.6403 C   0  0  0  0  0  0  0  0  0  0  0  0
 -107.8395 -176.9115  312.0972 F   0  0  0  0  0  0  0  0  0  0  0  0
 -109.3380 -176.8485  310.3010 C   0  0  0  0  0  0  0  0  0  0  0  0
 -116.9544 -174.8702  308.7963 C   0  0  0  0  0  0  0  0  0  0  0  0
 -117.6969 -176.0311  308.3050 N   0  0  0  0  0  0  0  0  0  0  0  0
 -117.8521 -176.6850  309.0722 H   0  0  0  0  0  0  0  0  0  0  0  0
 -117.1607 -176.4912  307.5693 H   0  0  0  0  0  0  0  0  0  0  0  0
 -118.5956 -175.7264  307.9308 H   0  0  0  0  0  0  0  0  0  0  0  0
 17 16  1  0  0  0
 11 12  2  0  0  0
 11  8  1  0  0  0
 12 13  1  0  0  0
  5  6  2  0  0  0
  5  4  1  0  0  0
  6  7  1  0  0  0
 16  4  1  0  0  0
  4  3  2  0  0  0
  7  8  1  0  0  0
  7  2  2  0  0  0
  8  9  2  0  0  0
  3  2  1  0  0  0
  2  1  1  0  0  0
 13 14  1  0  0  0
 13 15  2  0  0  0
  9 15  1  0  0  0
  9 10  1  0  0  0
 17 18  1  0  0  0
 17 19  1  0  0  0
 17 20  1  0  0  0
M  CHG 1  17   1
M  END
> <minimizedAffinity>
-8.10861

$$$$
5OS8_J27_A_404


 20 21  0  0  0  0  0  0  0  0999 V2000
 -111.7812 -175.6167  312.3117 Cl  0  0  0  0  0  0  0  0  0  0  0  0
 -111.0671 -176.1883  310.8425 C   0  0  0  0  0  0  0  0  0  0  0  0
 -109.7713 -176.6659  310.8761 C   0  0  0  0  0  0  0  0  0  0  0  0
 -109.1863 -177.1864  309.7294 C   0  0  0  0  0  0  0  0  0  0  0  0
 -109.9259 -177.1816  308.5519 C   0  0  0  0  0  0  0  0  0  0  0  0
 -111.2163 -176.6836  308.5157 C   0  0  0  0  0  0  0  0  0  0  0  0
 -111.8178 -176.1824  309.6705 C   0  0  0  0  0  0  0  0  0  0  0  0
 -113.2224 -175.6814  309.6157 C   0  0  0  0  0  0  0  0  0  0  0  0
 -113.5442 -174.3972  309.1177 C   0  0  0  0  0  0  0  0  0  0  0  0
 -112.4884 -173.3883  308.7283 C   0  0  0  0  0  0  0  0  0  0  0  0
 -114.2508 -176.5558  309.9849 C   0  0  0  0  0  0  0  0  0  0  0  0
 -115.5765 -176.1800  309.8632 C   0  0  0  0  0  0  0  0  0  0  0  0
 -115.8528 -174.9319  309.3830 C   0  0  0  0  0  0  0  0  0  0  0  0
 -117.1472 -174.5508  309.2786 F   0  0  0  0  0  0  0  0  0  0  0  0
 -114.8809 -174.0382  309.0014 C   0  0  0  0  0  0  0  0  0  0  0  0
 -107.7961 -177.7573  309.7823 C   0  0  0  0  0  0  0  0  0  0  0  0
 -106.9769 -177.2154  310.8665 N   0  0  0  0  0  0  0  0  0  0  0  0
 -107.4031 -177.4480  311.7635 H   0  0  0  0  0  0  0  0  0  0  0  0
 -106.9152 -176.2017  310.7721 H   0  0  0  0  0  0  0  0  0  0  0  0
 -106.0412 -177.6188  310.8199 H   0  0  0  0  0  0  0  0  0  0  0  0
 17 16  1  0  0  0
 11 12  2  0  0  0
 11  8  1  0  0  0
 12 13  1  0  0  0
  5  6  2  0  0  0
  5  4  1  0  0  0
  6  7  1  0  0  0
 16  4  1  0  0  0
  4  3  2  0  0  0
  7  8  1  0  0  0
  7  2  2  0  0  0
  8  9  2  0  0  0
  3  2  1  0  0  0
  2  1  1  0  0  0
 13 14  1  0  0  0
 13 15  2  0  0  0
  9 15  1  0  0  0
  9 10  1  0  0  0
 17 18  1  0  0  0
 17 19  1  0  0  0
 17 20  1  0  0  0
M  CHG 1  17   1
M  END
> <minimizedAffinity>
-7.42354

$$$$
5OS8_J27_A_404


 20 21  0  0  0  0  0  0  0  0999 V2000
 -111.0231 -176.5941  307.7395 Cl  0  0  0  0  0  0  0  0  0  0  0  0
 -110.6680 -176.4149  309.4238 C   0  0  0  0  0  0  0  0  0  0  0  0
 -109.4074 -176.7536  309.8761 C   0  0  0  0  0  0  0  0  0  0  0  0
 -109.0682 -176.5681  311.2098 C   0  0  0  0  0  0  0  0  0  0  0  0
 -110.0367 -176.0673  312.0726 C   0  0  0  0  0  0  0  0  0  0  0  0
 -111.3053 -175.7483  311.6217 C   0  0  0  0  0  0  0  0  0  0  0  0
 -111.6437 -175.9091  310.2778 C   0  0  0  0  0  0  0  0  0  0  0  0
 -113.0072 -175.5270  309.8069 C   0  0  0  0  0  0  0  0  0  0  0  0
 -114.0535 -176.4711  309.6864 C   0  0  0  0  0  0  0  0  0  0  0  0
 -113.8400 -177.9525  309.8961 C   0  0  0  0  0  0  0  0  0  0  0  0
 -113.2692 -174.1729  309.5703 C   0  0  0  0  0  0  0  0  0  0  0  0
 -114.5397 -173.7479  309.2255 C   0  0  0  0  0  0  0  0  0  0  0  0
 -115.5263 -174.6853  309.1135 C   0  0  0  0  0  0  0  0  0  0  0  0
 -116.7674 -174.2790  308.7586 F   0  0  0  0  0  0  0  0  0  0  0  0
 -115.3229 -176.0254  309.3407 C   0  0  0  0  0  0  0  0  0  0  0  0
 -107.6778 -176.8845  311.6872 C   0  0  0  0  0  0  0  0  0  0  0  0
 -106.8076 -177.4332  310.6470 N   0  0  0  0  0  0  0  0  0  0  0  0
 -106.6920 -176.7454  309.9027 H   0  0  0  0  0  0  0  0  0  0  0  0
 -107.2272 -178.2806  310.2648 H   0  0  0  0  0  0  0  0  0  0  0  0
 -105.8967 -177.6561  311.0484 H   0  0  0  0  0  0  0  0  0  0  0  0
 17 16  1  0  0  0
 11 12  2  0  0  0
 11  8  1  0  0  0
 12 13  1  0  0  0
  5  6  2  0  0  0
  5  4  1  0  0  0
  6  7  1  0  0  0
 16  4  1  0  0  0
  4  3  2  0  0  0
  7  8  1  0  0  0
  7  2  2  0  0  0
  8  9  2  0  0  0
  3  2  1  0  0  0
  2  1  1  0  0  0
 13 14  1  0  0  0
 13 15  2  0  0  0
  9 15  1  0  0  0
  9 10  1  0  0  0
 17 18  1  0  0  0
 17 19  1  0  0  0
 17 20  1  0  0  0
M  CHG 1  17   1
M  END
> <minimizedAffinity>
-6.60065

$$$$
5OS8_J27_A_404


 20 21  0  0  0  0  0  0  0  0999 V2000
 -114.4158 -173.1095  308.8235 Cl  0  0  0  0  0  0  0  0  0  0  0  0
 -114.0510 -174.7537  309.2218 C   0  0  0  0  0  0  0  0  0  0  0  0
 -112.7270 -175.1427  309.2875 C   0  0  0  0  0  0  0  0  0  0  0  0
 -112.3950 -176.4383  309.6610 C   0  0  0  0  0  0  0  0  0  0  0  0
 -113.4262 -177.3308  309.9318 C   0  0  0  0  0  0  0  0  0  0  0  0
 -114.7521 -176.9448  309.8452 C   0  0  0  0  0  0  0  0  0  0  0  0
 -115.0909 -175.6376  309.4948 C   0  0  0  0  0  0  0  0  0  0  0  0
 -116.5265 -175.2341  309.4403 C   0  0  0  0  0  0  0  0  0  0  0  0
 -117.2861 -175.3153  308.2499 C   0  0  0  0  0  0  0  0  0  0  0  0
 -116.6745 -175.6883  306.9191 C   0  0  0  0  0  0  0  0  0  0  0  0
 -117.1519 -174.8542  310.6331 C   0  0  0  0  0  0  0  0  0  0  0  0
 -118.5038 -174.5627  310.6613 C   0  0  0  0  0  0  0  0  0  0  0  0
 -119.2074 -174.6467  309.4940 C   0  0  0  0  0  0  0  0  0  0  0  0
 -120.5266 -174.3451  309.5106 F   0  0  0  0  0  0  0  0  0  0  0  0
 -118.6426 -175.0203  308.2981 C   0  0  0  0  0  0  0  0  0  0  0  0
 -110.9521 -176.8426  309.7864 C   0  0  0  0  0  0  0  0  0  0  0  0
 -110.6429 -177.5465  311.0312 N   0  0  0  0  0  0  0  0  0  0  0  0
 -111.1756 -178.4153  311.0718 H   0  0  0  0  0  0  0  0  0  0  0  0
 -110.8920 -176.9574  311.8258 H   0  0  0  0  0  0  0  0  0  0  0  0
 -109.6455 -177.7574  311.0638 H   0  0  0  0  0  0  0  0  0  0  0  0
 17 16  1  0  0  0
 11 12  2  0  0  0
 11  8  1  0  0  0
 12 13  1  0  0  0
  5  6  2  0  0  0
  5  4  1  0  0  0
  6  7  1  0  0  0
 16  4  1  0  0  0
  4  3  2  0  0  0
  7  8  1  0  0  0
  7  2  2  0  0  0
  8  9  2  0  0  0
  3  2  1  0  0  0
  2  1  1  0  0  0
 13 14  1  0  0  0
 13 15  2  0  0  0
  9 15  1  0  0  0
  9 10  1  0  0  0
 17 18  1  0  0  0
 17 19  1  0  0  0
 17 20  1  0  0  0
M  CHG 1  17   1
M  END
> <minimizedAffinity>
-5.67810

$$$$
