5OS8_J27_A_404
  RCSB PDB02231823433D
Coordinates from PDB:5OS8:A:404 Model:1 without hydrogens
 17 18  0  0  0  0            999 V2000
 -113.0300 -178.3470  310.9010  Cl 0  0  0  0  0  0  0  0  0  0  0  0
 -113.4590 -176.8440  310.1580   C 0  0  0  0  0  0  0  0  0  0  0  0
 -114.7970 -176.5490  309.9810   C 0  0  0  0  0  0  0  0  0  0  0  0
 -115.1800 -175.3280  309.4420   C 0  0  0  0  0  0  0  0  0  0  0  0
 -116.6380 -174.9870  309.3030   C 0  0  0  0  0  0  0  0  0  0  0  0
 -117.3930 -175.9440  308.4940   N 0  3  0  0  0  0  0  0  0  0  0  0
 -114.1850 -174.4350  309.0600   C 0  0  0  0  0  0  0  0  0  0  0  0
 -112.8450 -174.7410  309.2190   C 0  0  0  0  0  0  0  0  0  0  0  0
 -112.4550 -175.9560  309.7830   C 0  0  0  0  0  0  0  0  0  0  0  0
 -111.0050 -176.2510  309.9760   C 0  0  0  0  0  0  0  0  0  0  0  0
 -110.4010 -176.2510  311.2550   C 0  0  0  0  0  0  0  0  0  0  0  0
 -111.1400 -175.8260  312.5030   C 0  0  0  0  0  0  0  0  0  0  0  0
 -110.2530 -176.6290  308.8580   C 0  0  0  0  0  0  0  0  0  0  0  0
 -108.9290 -177.0070  308.9910   C 0  0  0  0  0  0  0  0  0  0  0  0
 -108.3750 -176.9920  310.2390   C 0  0  0  0  0  0  0  0  0  0  0  0
 -107.0750 -177.3430  310.3740   F 0  0  0  0  0  0  0  0  0  0  0  0
 -109.0710 -176.6350  311.3690   C 0  0  0  0  0  0  0  0  0  0  0  0
  6  5  1  0  0  0  0
 13 14  2  0  0  0  0
 13 10  1  0  0  0  0
 14 15  1  0  0  0  0
  7  8  2  0  0  0  0
  7  4  1  0  0  0  0
  8  9  1  0  0  0  0
  5  4  1  0  0  0  0
  4  3  2  0  0  0  0
  9 10  1  0  0  0  0
  9  2  2  0  0  0  0
 10 11  2  0  0  0  0
  3  2  1  0  0  0  0
  2  1  1  0  0  0  0
 15 16  1  0  0  0  0
 15 17  2  0  0  0  0
 11 17  1  0  0  0  0
 11 12  1  0  0  0  0
M  CHG  1   6   1
A    1
CL
A    2
C13
A    3
C12
A    4
C10
A    5
C11
A    6
N
A    7
C9
A    8
C8
A    9
C7
A   10
C6
A   11
C1
A   12
C
A   13
C5
A   14
C4
A   15
C3
A   16
F
A   17
C2
M  END
>  <InstanceId>
5OS8_J27_A_404

>  <ChemCompId>
J27

>  <PdbId>
5OS8

>  <ChainId>
A

>  <ResidueNumber>
404

>  <InsertionCode>


>  <Model>
1

>  <AltIds>


>  <MissingHeavyAtoms>
0

>  <ObservedFormula>
C14 N F Cl

>  <Name>
[3-chloranyl-4-(4-fluoranyl-2-methyl-phenyl)phenyl]methylazanium

>  <SystematicName>
[3-chloranyl-4-(4-fluoranyl-2-methyl-phenyl)phenyl]methylazanium

>  <Synonyms>


>  <Type>
NON-POLYMER

>  <Formula>
C14 H14 Cl F N

>  <MolecularWeight>
250.719

>  <ModifiedDate>
2018-02-23

>  <Parent>


>  <OneLetterCode>


>  <SubcomponentList>


>  <AmbiguousFlag>
N

>  <InChI>
InChI=1S/C14H13ClFN/c1-9-6-11(16)3-5-12(9)13-4-2-10(8-17)7-14(13)15/h2-7H,8,17H2,1H3/p+1

>  <InChIKey>
NTGIJTSMASUCKW-UHFFFAOYSA-O

>  <SMILES>
Cc1cc(ccc1c2ccc(cc2Cl)C[NH3+])F

$$$$
