2R3W_G3G_A_2501


 46 50  0  0  0  0  0  0  0  0999 V2000
  -12.7900  -20.5155   18.1772 C   0  0  0  0  0  0  0  0  0  0  0  0
  -14.1023  -20.0050   18.8160 C   0  0  0  0  0  0  0  0  0  0  0  0
  -14.2098  -18.5483   18.5308 N   0  0  0  0  0  0  0  0  0  0  0  0
  -12.8527  -18.0426   18.1639 C   0  0  0  0  0  0  0  0  0  0  0  0
  -12.1989  -19.2449   17.4325 C   0  0  0  0  0  0  0  0  0  0  0  0
  -14.5484  -18.0585   19.3590 H   0  0  0  0  0  0  0  0  0  0  0  0
  -11.7558  -21.0385   19.1504 N   0  0  0  0  0  0  0  0  0  0  0  0
  -11.3204  -22.7027   18.9895 S   0  0  0  0  0  0  0  0  0  0  0  0
  -10.3404  -23.0396   20.0044 O   0  0  0  0  0  0  0  0  0  0  0  0
  -11.2343  -23.0603   17.5841 O   0  0  0  0  0  0  0  0  0  0  0  0
  -14.8549  -24.7652   19.3998 C   0  0  0  0  0  0  0  0  0  0  0  0
  -15.1925  -24.5089   20.7426 C   0  0  0  0  0  0  0  0  0  0  0  0
  -14.3651  -23.6942   21.5512 C   0  0  0  0  0  0  0  0  0  0  0  0
  -13.1727  -23.1525   21.0029 C   0  0  0  0  0  0  0  0  0  0  0  0
  -12.8217  -23.4043   19.6535 C   0  0  0  0  0  0  0  0  0  0  0  0
  -13.6737  -24.2030   18.8467 C   0  0  0  0  0  0  0  0  0  0  0  0
  -16.3153  -25.0359   21.2636 N   0  0  0  0  0  0  0  0  0  0  0  0
  -16.8964  -25.6039   20.7078 H   0  0  0  0  0  0  0  0  0  0  0  0
  -16.5558  -24.8537   22.2007 H   0  0  0  0  0  0  0  0  0  0  0  0
  -11.2603  -20.3127   20.3577 C   0  0  0  0  0  0  0  0  0  0  0  0
   -9.9418  -19.5678   20.1563 C   0  0  0  0  0  0  0  0  0  0  0  0
   -9.4873  -18.6673   21.1588 C   0  0  0  0  0  0  0  0  0  0  0  0
   -8.2734  -17.9550   21.0075 C   0  0  0  0  0  0  0  0  0  0  0  0
   -7.5074  -18.1628   19.8296 C   0  0  0  0  0  0  0  0  0  0  0  0
   -7.9540  -19.0785   18.8310 C   0  0  0  0  0  0  0  0  0  0  0  0
   -9.1804  -19.7778   18.9818 C   0  0  0  0  0  0  0  0  0  0  0  0
  -12.5457  -19.2390   15.9712 N   0  0  0  0  0  0  0  0  0  0  0  0
  -11.3163  -19.8029   14.9579 S   0  0  0  0  0  0  0  0  0  0  0  0
  -11.8741  -20.0138   13.6081 O   0  0  0  0  0  0  0  0  0  0  0  0
  -10.7226  -20.9919   15.5916 O   0  0  0  0  0  0  0  0  0  0  0  0
  -10.0666  -18.5657   14.8684 C   0  0  0  0  0  0  0  0  0  0  0  0
   -8.6696  -18.7721   15.0251 C   0  0  0  0  0  0  0  0  0  0  0  0
   -7.7404  -17.6871   14.9109 C   0  0  0  0  0  0  0  0  0  0  0  0
   -8.2163  -16.3466   14.6753 C   0  0  0  0  0  0  0  0  0  0  0  0
   -9.6196  -16.1286   14.5201 C   0  0  0  0  0  0  0  0  0  0  0  0
  -10.5179  -17.2329   14.5696 C   0  0  0  0  0  0  0  0  0  0  0  0
   -7.3814  -15.2851   14.6029 N   0  0  0  0  0  0  0  0  0  0  0  0
   -6.4109  -15.4141   14.7071 H   0  0  0  0  0  0  0  0  0  0  0  0
   -7.7440  -14.3834   14.4459 H   0  0  0  0  0  0  0  0  0  0  0  0
  -13.8685  -19.0170   15.3601 C   0  0  0  0  0  0  0  0  0  0  0  0
  -14.7957  -20.2302   15.3166 C   0  0  0  0  0  0  0  0  0  0  0  0
  -16.2116  -20.0235   15.3650 C   0  0  0  0  0  0  0  0  0  0  0  0
  -17.1274  -21.1132   15.3099 C   0  0  0  0  0  0  0  0  0  0  0  0
  -16.6149  -22.4440   15.2315 C   0  0  0  0  0  0  0  0  0  0  0  0
  -15.2063  -22.6600   15.2050 C   0  0  0  0  0  0  0  0  0  0  0  0
  -14.2904  -21.5635   15.2389 C   0  0  0  0  0  0  0  0  0  0  0  0
 11 12  2  0  0  0
 11 16  1  0  0  0
 12 13  1  0  0  0
 12 17  1  0  0  0
 13 14  2  0  0  0
 14 15  1  0  0  0
 15  8  1  0  0  0
 15 16  2  0  0  0
  8 10  2  0  0  0
  8  7  1  0  0  0
  8  9  2  0  0  0
  7  1  1  0  0  0
  7 20  1  0  0  0
 20 21  1  0  0  0
 21 26  1  0  0  0
 21 22  2  0  0  0
 22 23  1  0  0  0
 23 24  2  0  0  0
 24 25  1  0  0  0
 25 26  2  0  0  0
  1  5  1  0  0  0
  1  2  1  0  0  0
  2  3  1  0  0  0
  3  4  1  0  0  0
  4  5  1  0  0  0
  5 27  1  0  0  0
 27 28  1  0  0  0
 27 40  1  0  0  0
 40 41  1  0  0  0
 41 46  1  0  0  0
 41 42  2  0  0  0
 42 43  1  0  0  0
 43 44  2  0  0  0
 44 45  1  0  0  0
 45 46  2  0  0  0
 28 29  2  0  0  0
 28 31  1  0  0  0
 28 30  2  0  0  0
 31 32  1  0  0  0
 31 36  2  0  0  0
 32 33  2  0  0  0
 33 34  1  0  0  0
 34 37  1  0  0  0
 34 35  2  0  0  0
 35 36  1  0  0  0
  3  6  1  0  0  0
 37 38  1  0  0  0
 37 39  1  0  0  0
 17 18  1  0  0  0
 17 19  1  0  0  0
M  END
> <minimizedAffinity>
-12.08572

$$$$
2R3W_G3G_A_2501


 46 50  0  0  0  0  0  0  0  0999 V2000
  -12.7087  -20.5789   18.2287 C   0  0  0  0  0  0  0  0  0  0  0  0
  -14.0041  -19.9522   18.7943 C   0  0  0  0  0  0  0  0  0  0  0  0
  -14.0567  -18.5344   18.3452 N   0  0  0  0  0  0  0  0  0  0  0  0
  -12.6804  -18.1228   17.9350 C   0  0  0  0  0  0  0  0  0  0  0  0
  -12.0679  -19.4230   17.3501 C   0  0  0  0  0  0  0  0  0  0  0  0
  -14.3808  -17.9419   19.1096 H   0  0  0  0  0  0  0  0  0  0  0  0
  -11.6987  -21.0249   19.2637 N   0  0  0  0  0  0  0  0  0  0  0  0
  -11.2274  -22.6863   19.2125 S   0  0  0  0  0  0  0  0  0  0  0  0
  -10.3286  -22.9615   20.3172 O   0  0  0  0  0  0  0  0  0  0  0  0
  -11.0219  -23.1025   17.8359 O   0  0  0  0  0  0  0  0  0  0  0  0
  -14.7936  -24.7265   19.3994 C   0  0  0  0  0  0  0  0  0  0  0  0
  -15.2015  -24.4878   20.7258 C   0  0  0  0  0  0  0  0  0  0  0  0
  -14.4133  -23.6919   21.5904 C   0  0  0  0  0  0  0  0  0  0  0  0
  -13.1891  -23.1516   21.1157 C   0  0  0  0  0  0  0  0  0  0  0  0
  -12.7675  -23.3858   19.7835 C   0  0  0  0  0  0  0  0  0  0  0  0
  -13.5802  -24.1655   18.9197 C   0  0  0  0  0  0  0  0  0  0  0  0
  -16.3547  -25.0136   21.1772 N   0  0  0  0  0  0  0  0  0  0  0  0
  -16.9089  -25.5684   20.5821 H   0  0  0  0  0  0  0  0  0  0  0  0
  -16.6443  -24.8435   22.1027 H   0  0  0  0  0  0  0  0  0  0  0  0
  -11.2581  -20.2222   20.4433 C   0  0  0  0  0  0  0  0  0  0  0  0
   -9.9257  -19.4979   20.2588 C   0  0  0  0  0  0  0  0  0  0  0  0
   -9.5093  -18.5427   21.2267 C   0  0  0  0  0  0  0  0  0  0  0  0
   -8.2840  -17.8474   21.0892 C   0  0  0  0  0  0  0  0  0  0  0  0
   -7.4676  -18.1282   19.9614 C   0  0  0  0  0  0  0  0  0  0  0  0
   -7.8764  -19.0984   18.9987 C   0  0  0  0  0  0  0  0  0  0  0  0
   -9.1142  -19.7807   19.1343 C   0  0  0  0  0  0  0  0  0  0  0  0
  -12.4078  -19.5705   15.8945 N   0  0  0  0  0  0  0  0  0  0  0  0
  -11.9547  -18.2563   14.9335 S   0  0  0  0  0  0  0  0  0  0  0  0
  -12.7964  -17.0973   15.2883 O   0  0  0  0  0  0  0  0  0  0  0  0
  -12.0252  -18.6840   13.5264 O   0  0  0  0  0  0  0  0  0  0  0  0
  -10.2748  -17.8677   15.2897 C   0  0  0  0  0  0  0  0  0  0  0  0
   -9.8180  -16.8743   16.1972 C   0  0  0  0  0  0  0  0  0  0  0  0
   -8.4192  -16.6597   16.4223 C   0  0  0  0  0  0  0  0  0  0  0  0
   -7.4411  -17.4271   15.6918 C   0  0  0  0  0  0  0  0  0  0  0  0
   -7.8907  -18.4256   14.7744 C   0  0  0  0  0  0  0  0  0  0  0  0
   -9.2857  -18.6677   14.6181 C   0  0  0  0  0  0  0  0  0  0  0  0
   -6.1111  -17.2304   15.8387 N   0  0  0  0  0  0  0  0  0  0  0  0
   -5.7808  -16.5472   16.4659 H   0  0  0  0  0  0  0  0  0  0  0  0
   -5.4733  -17.7705   15.3184 H   0  0  0  0  0  0  0  0  0  0  0  0
  -12.8722  -20.7826   15.1962 C   0  0  0  0  0  0  0  0  0  0  0  0
  -14.3814  -21.0183   15.2001 C   0  0  0  0  0  0  0  0  0  0  0  0
  -14.8749  -22.3577   15.0892 C   0  0  0  0  0  0  0  0  0  0  0  0
  -16.2705  -22.6428   15.1051 C   0  0  0  0  0  0  0  0  0  0  0  0
  -17.1963  -21.5602   15.2073 C   0  0  0  0  0  0  0  0  0  0  0  0
  -16.7142  -20.2219   15.2960 C   0  0  0  0  0  0  0  0  0  0  0  0
  -15.3130  -19.9407   15.3013 C   0  0  0  0  0  0  0  0  0  0  0  0
 11 12  2  0  0  0
 11 16  1  0  0  0
 12 13  1  0  0  0
 12 17  1  0  0  0
 13 14  2  0  0  0
 14 15  1  0  0  0
 15  8  1  0  0  0
 15 16  2  0  0  0
  8 10  2  0  0  0
  8  7  1  0  0  0
  8  9  2  0  0  0
  7  1  1  0  0  0
  7 20  1  0  0  0
 20 21  1  0  0  0
 21 26  1  0  0  0
 21 22  2  0  0  0
 22 23  1  0  0  0
 23 24  2  0  0  0
 24 25  1  0  0  0
 25 26  2  0  0  0
  1  5  1  0  0  0
  1  2  1  0  0  0
  2  3  1  0  0  0
  3  4  1  0  0  0
  4  5  1  0  0  0
  5 27  1  0  0  0
 27 28  1  0  0  0
 27 40  1  0  0  0
 40 41  1  0  0  0
 41 46  1  0  0  0
 41 42  2  0  0  0
 42 43  1  0  0  0
 43 44  2  0  0  0
 44 45  1  0  0  0
 45 46  2  0  0  0
 28 29  2  0  0  0
 28 31  1  0  0  0
 28 30  2  0  0  0
 31 32  1  0  0  0
 31 36  2  0  0  0
 32 33  2  0  0  0
 33 34  1  0  0  0
 34 37  1  0  0  0
 34 35  2  0  0  0
 35 36  1  0  0  0
  3  6  1  0  0  0
 37 38  1  0  0  0
 37 39  1  0  0  0
 17 18  1  0  0  0
 17 19  1  0  0  0
M  END
> <minimizedAffinity>
-11.89545

$$$$
2R3W_G3G_A_2501


 46 50  0  0  0  0  0  0  0  0999 V2000
  -12.1549  -19.3251   17.1591 C   0  0  0  0  0  0  0  0  0  0  0  0
  -12.3436  -17.8794   17.6741 C   0  0  0  0  0  0  0  0  0  0  0  0
  -13.3287  -17.9192   18.7890 N   0  0  0  0  0  0  0  0  0  0  0  0
  -14.0918  -19.1999   18.6928 C   0  0  0  0  0  0  0  0  0  0  0  0
  -13.0524  -20.2045   18.1284 C   0  0  0  0  0  0  0  0  0  0  0  0
  -13.9692  -17.1291   18.7121 H   0  0  0  0  0  0  0  0  0  0  0  0
  -12.5936  -19.5670   15.7310 N   0  0  0  0  0  0  0  0  0  0  0  0
  -11.3612  -20.0446   14.6183 S   0  0  0  0  0  0  0  0  0  0  0  0
  -11.9067  -20.0469   13.2744 O   0  0  0  0  0  0  0  0  0  0  0  0
  -10.5488  -21.0997   15.1992 O   0  0  0  0  0  0  0  0  0  0  0  0
  -10.2223  -16.1081   14.2694 C   0  0  0  0  0  0  0  0  0  0  0  0
   -8.8889  -16.1451   14.7206 C   0  0  0  0  0  0  0  0  0  0  0  0
   -8.2991  -17.3651   15.1278 C   0  0  0  0  0  0  0  0  0  0  0  0
   -9.0728  -18.5553   15.1003 C   0  0  0  0  0  0  0  0  0  0  0  0
  -10.4158  -18.5306   14.6495 C   0  0  0  0  0  0  0  0  0  0  0  0
  -10.9869  -17.3040   14.2206 C   0  0  0  0  0  0  0  0  0  0  0  0
   -8.1631  -15.0131   14.7597 N   0  0  0  0  0  0  0  0  0  0  0  0
   -8.5659  -14.1600   14.4781 H   0  0  0  0  0  0  0  0  0  0  0  0
   -7.2290  -15.0377   15.0698 H   0  0  0  0  0  0  0  0  0  0  0  0
  -13.9296  -19.2133   15.1656 C   0  0  0  0  0  0  0  0  0  0  0  0
  -14.9507  -20.3494   15.1860 C   0  0  0  0  0  0  0  0  0  0  0  0
  -16.3387  -20.0415   15.2203 C   0  0  0  0  0  0  0  0  0  0  0  0
  -17.3156  -21.0657   15.2446 C   0  0  0  0  0  0  0  0  0  0  0  0
  -16.8812  -22.4179   15.2269 C   0  0  0  0  0  0  0  0  0  0  0  0
  -15.4897  -22.7278   15.1755 C   0  0  0  0  0  0  0  0  0  0  0  0
  -14.5146  -21.6957   15.1674 C   0  0  0  0  0  0  0  0  0  0  0  0
  -12.2453  -20.8220   19.2344 N   0  0  0  0  0  0  0  0  0  0  0  0
  -11.9057  -22.4635   19.0203 S   0  0  0  0  0  0  0  0  0  0  0  0
  -10.7156  -22.8096   19.8213 O   0  0  0  0  0  0  0  0  0  0  0  0
  -11.7909  -22.7131   17.5737 O   0  0  0  0  0  0  0  0  0  0  0  0
  -13.2790  -23.3914   19.6146 C   0  0  0  0  0  0  0  0  0  0  0  0
  -14.0335  -24.3405   18.8738 C   0  0  0  0  0  0  0  0  0  0  0  0
  -15.1235  -25.0535   19.4714 C   0  0  0  0  0  0  0  0  0  0  0  0
  -15.5040  -24.7853   20.8361 C   0  0  0  0  0  0  0  0  0  0  0  0
  -14.7538  -23.8298   21.5878 C   0  0  0  0  0  0  0  0  0  0  0  0
  -13.6319  -23.1838   20.9936 C   0  0  0  0  0  0  0  0  0  0  0  0
  -16.5519  -25.4013   21.4290 N   0  0  0  0  0  0  0  0  0  0  0  0
  -17.0816  -26.0629   20.9282 H   0  0  0  0  0  0  0  0  0  0  0  0
  -16.7849  -25.1881   22.3615 H   0  0  0  0  0  0  0  0  0  0  0  0
  -11.5494  -20.1318   20.3353 C   0  0  0  0  0  0  0  0  0  0  0  0
  -10.1960  -19.5151   19.9868 C   0  0  0  0  0  0  0  0  0  0  0  0
   -9.6886  -18.4510   20.7992 C   0  0  0  0  0  0  0  0  0  0  0  0
   -8.4252  -17.8479   20.5357 C   0  0  0  0  0  0  0  0  0  0  0  0
   -7.6624  -18.3014   19.4167 C   0  0  0  0  0  0  0  0  0  0  0  0
   -8.1701  -19.3453   18.5897 C   0  0  0  0  0  0  0  0  0  0  0  0
   -9.4282  -19.9629   18.8691 C   0  0  0  0  0  0  0  0  0  0  0  0
 11 12  2  0  0  0
 11 16  1  0  0  0
 12 13  1  0  0  0
 12 17  1  0  0  0
 13 14  2  0  0  0
 14 15  1  0  0  0
 15  8  1  0  0  0
 15 16  2  0  0  0
  8 10  2  0  0  0
  8  7  1  0  0  0
  8  9  2  0  0  0
  7  1  1  0  0  0
  7 20  1  0  0  0
 20 21  1  0  0  0
 21 26  1  0  0  0
 21 22  2  0  0  0
 22 23  1  0  0  0
 23 24  2  0  0  0
 24 25  1  0  0  0
 25 26  2  0  0  0
  1  5  1  0  0  0
  1  2  1  0  0  0
  2  3  1  0  0  0
  3  4  1  0  0  0
  4  5  1  0  0  0
  5 27  1  0  0  0
 27 28  1  0  0  0
 27 40  1  0  0  0
 40 41  1  0  0  0
 41 46  1  0  0  0
 41 42  2  0  0  0
 42 43  1  0  0  0
 43 44  2  0  0  0
 44 45  1  0  0  0
 45 46  2  0  0  0
 28 29  2  0  0  0
 28 31  1  0  0  0
 28 30  2  0  0  0
 31 32  1  0  0  0
 31 36  2  0  0  0
 32 33  2  0  0  0
 33 34  1  0  0  0
 34 37  1  0  0  0
 34 35  2  0  0  0
 35 36  1  0  0  0
  3  6  1  0  0  0
 37 38  1  0  0  0
 37 39  1  0  0  0
 17 18  1  0  0  0
 17 19  1  0  0  0
M  END
> <minimizedAffinity>
-11.18541

$$$$
2R3W_G3G_A_2501


 46 50  0  0  0  0  0  0  0  0999 V2000
  -13.1695  -20.8620   18.1911 C   0  0  0  0  0  0  0  0  0  0  0  0
  -14.3974  -20.1256   18.7746 C   0  0  0  0  0  0  0  0  0  0  0  0
  -14.2603  -18.6810   18.4440 N   0  0  0  0  0  0  0  0  0  0  0  0
  -12.8304  -18.4132   18.1038 C   0  0  0  0  0  0  0  0  0  0  0  0
  -12.3617  -19.7291   17.4279 C   0  0  0  0  0  0  0  0  0  0  0  0
  -14.5359  -18.1154   19.2468 H   0  0  0  0  0  0  0  0  0  0  0  0
  -12.2585  -21.5117   19.2101 N   0  0  0  0  0  0  0  0  0  0  0  0
  -10.6253  -21.7857   18.7176 S   0  0  0  0  0  0  0  0  0  0  0  0
  -10.5173  -21.5777   17.2862 O   0  0  0  0  0  0  0  0  0  0  0  0
  -10.0673  -22.9097   19.4496 O   0  0  0  0  0  0  0  0  0  0  0  0
   -8.3996  -18.3616   19.2040 C   0  0  0  0  0  0  0  0  0  0  0  0
   -8.8390  -17.8993   20.4594 C   0  0  0  0  0  0  0  0  0  0  0  0
   -9.8091  -18.6210   21.1943 C   0  0  0  0  0  0  0  0  0  0  0  0
  -10.3572  -19.8094   20.6435 C   0  0  0  0  0  0  0  0  0  0  0  0
   -9.9240  -20.2839   19.3807 C   0  0  0  0  0  0  0  0  0  0  0  0
   -8.9321  -19.5631   18.6656 C   0  0  0  0  0  0  0  0  0  0  0  0
   -8.3287  -16.7649   20.9719 N   0  0  0  0  0  0  0  0  0  0  0  0
   -7.6533  -16.2568   20.4670 H   0  0  0  0  0  0  0  0  0  0  0  0
   -8.6307  -16.4428   21.8518 H   0  0  0  0  0  0  0  0  0  0  0  0
  -12.7013  -22.1306   20.4949 C   0  0  0  0  0  0  0  0  0  0  0  0
  -13.7390  -23.2413   20.3422 C   0  0  0  0  0  0  0  0  0  0  0  0
  -13.7649  -24.0147   19.1491 C   0  0  0  0  0  0  0  0  0  0  0  0
  -14.7137  -25.0495   18.9677 C   0  0  0  0  0  0  0  0  0  0  0  0
  -15.6428  -25.3083   20.0104 C   0  0  0  0  0  0  0  0  0  0  0  0
  -15.6068  -24.5442   21.2146 C   0  0  0  0  0  0  0  0  0  0  0  0
  -14.6628  -23.4972   21.3835 C   0  0  0  0  0  0  0  0  0  0  0  0
  -12.6660  -19.7166   15.9572 N   0  0  0  0  0  0  0  0  0  0  0  0
  -12.2379  -18.2860   15.1661 S   0  0  0  0  0  0  0  0  0  0  0  0
  -12.8643  -17.1498   15.8693 O   0  0  0  0  0  0  0  0  0  0  0  0
  -12.6018  -18.4318   13.7468 O   0  0  0  0  0  0  0  0  0  0  0  0
  -10.4879  -18.1120   15.2531 C   0  0  0  0  0  0  0  0  0  0  0  0
   -9.5277  -19.0513   14.7898 C   0  0  0  0  0  0  0  0  0  0  0  0
   -8.1224  -18.7917   14.8959 C   0  0  0  0  0  0  0  0  0  0  0  0
   -7.6541  -17.5792   15.5202 C   0  0  0  0  0  0  0  0  0  0  0  0
   -8.6120  -16.6304   15.9925 C   0  0  0  0  0  0  0  0  0  0  0  0
  -10.0032  -16.8794   15.8144 C   0  0  0  0  0  0  0  0  0  0  0  0
   -6.3385  -17.3104   15.6816 N   0  0  0  0  0  0  0  0  0  0  0  0
   -5.6625  -17.9513   15.3630 H   0  0  0  0  0  0  0  0  0  0  0  0
   -6.0569  -16.4739   16.1176 H   0  0  0  0  0  0  0  0  0  0  0  0
  -13.0745  -20.8531   15.1121 C   0  0  0  0  0  0  0  0  0  0  0  0
  -14.5659  -21.1836   15.1132 C   0  0  0  0  0  0  0  0  0  0  0  0
  -15.5119  -20.1212   15.2756 C   0  0  0  0  0  0  0  0  0  0  0  0
  -16.9156  -20.3639   15.2671 C   0  0  0  0  0  0  0  0  0  0  0  0
  -17.3847  -21.7047   15.1195 C   0  0  0  0  0  0  0  0  0  0  0  0
  -16.4493  -22.7709   14.9793 C   0  0  0  0  0  0  0  0  0  0  0  0
  -15.0422  -22.5219   14.9669 C   0  0  0  0  0  0  0  0  0  0  0  0
 11 12  2  0  0  0
 11 16  1  0  0  0
 12 13  1  0  0  0
 12 17  1  0  0  0
 13 14  2  0  0  0
 14 15  1  0  0  0
 15  8  1  0  0  0
 15 16  2  0  0  0
  8 10  2  0  0  0
  8  7  1  0  0  0
  8  9  2  0  0  0
  7  1  1  0  0  0
  7 20  1  0  0  0
 20 21  1  0  0  0
 21 26  1  0  0  0
 21 22  2  0  0  0
 22 23  1  0  0  0
 23 24  2  0  0  0
 24 25  1  0  0  0
 25 26  2  0  0  0
  1  5  1  0  0  0
  1  2  1  0  0  0
  2  3  1  0  0  0
  3  4  1  0  0  0
  4  5  1  0  0  0
  5 27  1  0  0  0
 27 28  1  0  0  0
 27 40  1  0  0  0
 40 41  1  0  0  0
 41 46  1  0  0  0
 41 42  2  0  0  0
 42 43  1  0  0  0
 43 44  2  0  0  0
 44 45  1  0  0  0
 45 46  2  0  0  0
 28 29  2  0  0  0
 28 31  1  0  0  0
 28 30  2  0  0  0
 31 32  1  0  0  0
 31 36  2  0  0  0
 32 33  2  0  0  0
 33 34  1  0  0  0
 34 37  1  0  0  0
 34 35  2  0  0  0
 35 36  1  0  0  0
  3  6  1  0  0  0
 37 38  1  0  0  0
 37 39  1  0  0  0
 17 18  1  0  0  0
 17 19  1  0  0  0
M  END
> <minimizedAffinity>
-10.64822

$$$$
2R3W_G3G_A_2501


 46 50  0  0  0  0  0  0  0  0999 V2000
  -12.3097  -20.3726   18.0742 C   0  0  0  0  0  0  0  0  0  0  0  0
  -13.7317  -19.9157   18.4740 C   0  0  0  0  0  0  0  0  0  0  0  0
  -13.8032  -18.4405   18.2913 N   0  0  0  0  0  0  0  0  0  0  0  0
  -12.4085  -17.9069   18.2478 C   0  0  0  0  0  0  0  0  0  0  0  0
  -11.6015  -19.0453   17.5690 C   0  0  0  0  0  0  0  0  0  0  0  0
  -14.3094  -18.0202   19.0708 H   0  0  0  0  0  0  0  0  0  0  0  0
  -11.4841  -20.9741   19.1908 N   0  0  0  0  0  0  0  0  0  0  0  0
  -11.1635  -22.6685   19.0834 S   0  0  0  0  0  0  0  0  0  0  0  0
  -10.2637  -23.0525   20.1541 O   0  0  0  0  0  0  0  0  0  0  0  0
  -11.0323  -23.0622   17.6911 O   0  0  0  0  0  0  0  0  0  0  0  0
  -14.9265  -24.3141   19.3001 C   0  0  0  0  0  0  0  0  0  0  0  0
  -15.2392  -24.1581   20.6642 C   0  0  0  0  0  0  0  0  0  0  0  0
  -14.3238  -23.5383   21.5474 C   0  0  0  0  0  0  0  0  0  0  0  0
  -13.0704  -23.0931   21.0507 C   0  0  0  0  0  0  0  0  0  0  0  0
  -12.7438  -23.2457   19.6805 C   0  0  0  0  0  0  0  0  0  0  0  0
  -13.6817  -23.8468   18.8009 C   0  0  0  0  0  0  0  0  0  0  0  0
  -16.4215  -24.5945   21.1348 N   0  0  0  0  0  0  0  0  0  0  0  0
  -17.0640  -25.0268   20.5269 H   0  0  0  0  0  0  0  0  0  0  0  0
  -16.6442  -24.4816   22.0872 H   0  0  0  0  0  0  0  0  0  0  0  0
  -11.1254  -20.2870   20.4671 C   0  0  0  0  0  0  0  0  0  0  0  0
   -9.8396  -19.4643   20.4078 C   0  0  0  0  0  0  0  0  0  0  0  0
   -8.8982  -19.7121   19.3710 C   0  0  0  0  0  0  0  0  0  0  0  0
   -7.6931  -18.9744   19.2844 C   0  0  0  0  0  0  0  0  0  0  0  0
   -7.4421  -17.9689   20.2557 C   0  0  0  0  0  0  0  0  0  0  0  0
   -8.3935  -17.7080   21.2863 C   0  0  0  0  0  0  0  0  0  0  0  0
   -9.5929  -18.4625   21.3767 C   0  0  0  0  0  0  0  0  0  0  0  0
  -11.6472  -18.9192   16.0730 N   0  0  0  0  0  0  0  0  0  0  0  0
  -12.0342  -20.3502   15.2616 S   0  0  0  0  0  0  0  0  0  0  0  0
  -11.3743  -21.4775   15.9481 O   0  0  0  0  0  0  0  0  0  0  0  0
  -11.6759  -20.1734   13.8445 O   0  0  0  0  0  0  0  0  0  0  0  0
  -13.7782  -20.5764   15.3470 C   0  0  0  0  0  0  0  0  0  0  0  0
  -14.7635  -19.5634   15.1985 C   0  0  0  0  0  0  0  0  0  0  0  0
  -16.1616  -19.8703   15.2677 C   0  0  0  0  0  0  0  0  0  0  0  0
  -16.5955  -21.2192   15.5348 C   0  0  0  0  0  0  0  0  0  0  0  0
  -15.6121  -22.2438   15.6893 C   0  0  0  0  0  0  0  0  0  0  0  0
  -14.2305  -21.9270   15.5485 C   0  0  0  0  0  0  0  0  0  0  0  0
  -17.9020  -21.5487   15.6517 N   0  0  0  0  0  0  0  0  0  0  0  0
  -18.5952  -20.8573   15.5486 H   0  0  0  0  0  0  0  0  0  0  0  0
  -18.1598  -22.4801   15.8399 H   0  0  0  0  0  0  0  0  0  0  0  0
  -11.6149  -17.6824   15.2718 C   0  0  0  0  0  0  0  0  0  0  0  0
  -10.2295  -17.0994   14.9996 C   0  0  0  0  0  0  0  0  0  0  0  0
  -10.1234  -15.7464   14.5436 C   0  0  0  0  0  0  0  0  0  0  0  0
   -8.8591  -15.1411   14.2899 C   0  0  0  0  0  0  0  0  0  0  0  0
   -7.6729  -15.9155   14.4709 C   0  0  0  0  0  0  0  0  0  0  0  0
   -7.7705  -17.2700   14.9036 C   0  0  0  0  0  0  0  0  0  0  0  0
   -9.0392  -17.8680   15.1777 C   0  0  0  0  0  0  0  0  0  0  0  0
 11 12  2  0  0  0
 11 16  1  0  0  0
 12 13  1  0  0  0
 12 17  1  0  0  0
 13 14  2  0  0  0
 14 15  1  0  0  0
 15  8  1  0  0  0
 15 16  2  0  0  0
  8 10  2  0  0  0
  8  7  1  0  0  0
  8  9  2  0  0  0
  7  1  1  0  0  0
  7 20  1  0  0  0
 20 21  1  0  0  0
 21 26  1  0  0  0
 21 22  2  0  0  0
 22 23  1  0  0  0
 23 24  2  0  0  0
 24 25  1  0  0  0
 25 26  2  0  0  0
  1  5  1  0  0  0
  1  2  1  0  0  0
  2  3  1  0  0  0
  3  4  1  0  0  0
  4  5  1  0  0  0
  5 27  1  0  0  0
 27 28  1  0  0  0
 27 40  1  0  0  0
 40 41  1  0  0  0
 41 46  1  0  0  0
 41 42  2  0  0  0
 42 43  1  0  0  0
 43 44  2  0  0  0
 44 45  1  0  0  0
 45 46  2  0  0  0
 28 29  2  0  0  0
 28 31  1  0  0  0
 28 30  2  0  0  0
 31 32  1  0  0  0
 31 36  2  0  0  0
 32 33  2  0  0  0
 33 34  1  0  0  0
 34 37  1  0  0  0
 34 35  2  0  0  0
 35 36  1  0  0  0
  3  6  1  0  0  0
 37 38  1  0  0  0
 37 39  1  0  0  0
 17 18  1  0  0  0
 17 19  1  0  0  0
M  END
> <minimizedAffinity>
-10.59156

$$$$
2R3W_G3G_A_2501


 46 50  0  0  0  0  0  0  0  0999 V2000
  -12.4830  -20.8493   17.9854 C   0  0  0  0  0  0  0  0  0  0  0  0
  -12.6977  -20.8917   19.5160 C   0  0  0  0  0  0  0  0  0  0  0  0
  -14.1010  -20.4787   19.7897 N   0  0  0  0  0  0  0  0  0  0  0  0
  -14.6174  -19.7543   18.5895 C   0  0  0  0  0  0  0  0  0  0  0  0
  -13.9062  -20.4573   17.4029 C   0  0  0  0  0  0  0  0  0  0  0  0
  -14.1273  -19.8628   20.6024 H   0  0  0  0  0  0  0  0  0  0  0  0
  -11.4613  -19.8430   17.5017 N   0  0  0  0  0  0  0  0  0  0  0  0
  -10.2992  -20.4157   16.3586 S   0  0  0  0  0  0  0  0  0  0  0  0
  -10.4688  -21.8452   16.1812 O   0  0  0  0  0  0  0  0  0  0  0  0
   -9.0304  -19.7364   16.5570 O   0  0  0  0  0  0  0  0  0  0  0  0
  -12.6405  -19.9427   13.0105 C   0  0  0  0  0  0  0  0  0  0  0  0
  -12.2675  -18.6590   12.5680 C   0  0  0  0  0  0  0  0  0  0  0  0
  -11.2883  -17.9124   13.2649 C   0  0  0  0  0  0  0  0  0  0  0  0
  -10.6975  -18.4600   14.4341 C   0  0  0  0  0  0  0  0  0  0  0  0
  -11.0654  -19.7501   14.8899 C   0  0  0  0  0  0  0  0  0  0  0  0
  -12.0311  -20.4981   14.1670 C   0  0  0  0  0  0  0  0  0  0  0  0
  -12.8401  -18.1367   11.4683 N   0  0  0  0  0  0  0  0  0  0  0  0
  -13.5222  -18.6497   10.9776 H   0  0  0  0  0  0  0  0  0  0  0  0
  -12.5769  -17.2416   11.1542 H   0  0  0  0  0  0  0  0  0  0  0  0
  -11.2370  -18.4887   18.0892 C   0  0  0  0  0  0  0  0  0  0  0  0
  -10.1458  -18.4305   19.1567 C   0  0  0  0  0  0  0  0  0  0  0  0
   -8.9249  -17.7585   18.8726 C   0  0  0  0  0  0  0  0  0  0  0  0
   -7.8879  -17.6866   19.8335 C   0  0  0  0  0  0  0  0  0  0  0  0
   -8.0930  -18.2967   21.0997 C   0  0  0  0  0  0  0  0  0  0  0  0
   -9.3237  -18.9564   21.3916 C   0  0  0  0  0  0  0  0  0  0  0  0
  -10.3536  -19.0387   20.4176 C   0  0  0  0  0  0  0  0  0  0  0  0
  -14.6790  -21.6631   16.9505 N   0  0  0  0  0  0  0  0  0  0  0  0
  -15.8574  -21.3414   15.7826 S   0  0  0  0  0  0  0  0  0  0  0  0
  -15.4755  -20.1198   15.0481 O   0  0  0  0  0  0  0  0  0  0  0  0
  -17.1618  -21.2901   16.4637 O   0  0  0  0  0  0  0  0  0  0  0  0
  -15.8970  -22.6927   14.6546 C   0  0  0  0  0  0  0  0  0  0  0  0
  -14.8338  -23.1118   13.8103 C   0  0  0  0  0  0  0  0  0  0  0  0
  -14.9750  -24.2441   12.9433 C   0  0  0  0  0  0  0  0  0  0  0  0
  -16.2260  -24.9582   12.8812 C   0  0  0  0  0  0  0  0  0  0  0  0
  -17.3022  -24.5419   13.7235 C   0  0  0  0  0  0  0  0  0  0  0  0
  -17.1159  -23.4562   14.6266 C   0  0  0  0  0  0  0  0  0  0  0  0
  -16.4204  -26.0053   12.0476 N   0  0  0  0  0  0  0  0  0  0  0  0
  -15.6914  -26.3078   11.4590 H   0  0  0  0  0  0  0  0  0  0  0  0
  -17.2907  -26.4650   12.0293 H   0  0  0  0  0  0  0  0  0  0  0  0
  -14.3855  -23.0796   17.2336 C   0  0  0  0  0  0  0  0  0  0  0  0
  -15.0561  -23.6649   18.4750 C   0  0  0  0  0  0  0  0  0  0  0  0
  -14.2397  -24.0670   19.5803 C   0  0  0  0  0  0  0  0  0  0  0  0
  -14.8076  -24.6026   20.7719 C   0  0  0  0  0  0  0  0  0  0  0  0
  -16.2243  -24.7653   20.8503 C   0  0  0  0  0  0  0  0  0  0  0  0
  -17.0427  -24.3880   19.7461 C   0  0  0  0  0  0  0  0  0  0  0  0
  -16.4719  -23.8311   18.5602 C   0  0  0  0  0  0  0  0  0  0  0  0
 11 12  2  0  0  0
 11 16  1  0  0  0
 12 13  1  0  0  0
 12 17  1  0  0  0
 13 14  2  0  0  0
 14 15  1  0  0  0
 15  8  1  0  0  0
 15 16  2  0  0  0
  8 10  2  0  0  0
  8  7  1  0  0  0
  8  9  2  0  0  0
  7  1  1  0  0  0
  7 20  1  0  0  0
 20 21  1  0  0  0
 21 26  1  0  0  0
 21 22  2  0  0  0
 22 23  1  0  0  0
 23 24  2  0  0  0
 24 25  1  0  0  0
 25 26  2  0  0  0
  1  5  1  0  0  0
  1  2  1  0  0  0
  2  3  1  0  0  0
  3  4  1  0  0  0
  4  5  1  0  0  0
  5 27  1  0  0  0
 27 28  1  0  0  0
 27 40  1  0  0  0
 40 41  1  0  0  0
 41 46  1  0  0  0
 41 42  2  0  0  0
 42 43  1  0  0  0
 43 44  2  0  0  0
 44 45  1  0  0  0
 45 46  2  0  0  0
 28 29  2  0  0  0
 28 31  1  0  0  0
 28 30  2  0  0  0
 31 32  1  0  0  0
 31 36  2  0  0  0
 32 33  2  0  0  0
 33 34  1  0  0  0
 34 37  1  0  0  0
 34 35  2  0  0  0
 35 36  1  0  0  0
  3  6  1  0  0  0
 37 38  1  0  0  0
 37 39  1  0  0  0
 17 18  1  0  0  0
 17 19  1  0  0  0
M  END
> <minimizedAffinity>
-10.20233

$$$$
2R3W_G3G_A_2501


 46 50  0  0  0  0  0  0  0  0999 V2000
  -11.8541  -21.1976   17.3325 C   0  0  0  0  0  0  0  0  0  0  0  0
  -10.6657  -22.1771   17.4708 C   0  0  0  0  0  0  0  0  0  0  0  0
  -10.7994  -22.8718   18.7801 N   0  0  0  0  0  0  0  0  0  0  0  0
  -11.7163  -22.0686   19.6438 C   0  0  0  0  0  0  0  0  0  0  0  0
  -12.7226  -21.4520   18.6362 C   0  0  0  0  0  0  0  0  0  0  0  0
   -9.8849  -22.9485   19.2252 H   0  0  0  0  0  0  0  0  0  0  0  0
  -11.4823  -19.7320   17.2695 N   0  0  0  0  0  0  0  0  0  0  0  0
  -10.1273  -19.2405   18.2222 S   0  0  0  0  0  0  0  0  0  0  0  0
   -9.1839  -20.3386   18.3120 O   0  0  0  0  0  0  0  0  0  0  0  0
  -10.5736  -18.4204   19.3352 O   0  0  0  0  0  0  0  0  0  0  0  0
   -8.2184  -17.8323   14.8623 C   0  0  0  0  0  0  0  0  0  0  0  0
   -8.1670  -16.4472   15.1104 C   0  0  0  0  0  0  0  0  0  0  0  0
   -8.6964  -15.9088   16.3070 C   0  0  0  0  0  0  0  0  0  0  0  0
   -9.3047  -16.7772   17.2514 C   0  0  0  0  0  0  0  0  0  0  0  0
   -9.3636  -18.1725   17.0125 C   0  0  0  0  0  0  0  0  0  0  0  0
   -8.8064  -18.7018   15.8191 C   0  0  0  0  0  0  0  0  0  0  0  0
   -7.6033  -15.6251   14.2068 N   0  0  0  0  0  0  0  0  0  0  0  0
   -7.2326  -15.9917   13.3716 H   0  0  0  0  0  0  0  0  0  0  0  0
   -7.5616  -14.6570   14.3807 H   0  0  0  0  0  0  0  0  0  0  0  0
  -12.3099  -18.6565   16.6465 C   0  0  0  0  0  0  0  0  0  0  0  0
  -12.2541  -18.6134   15.1205 C   0  0  0  0  0  0  0  0  0  0  0  0
  -11.8405  -17.4185   14.4694 C   0  0  0  0  0  0  0  0  0  0  0  0
  -11.7800  -17.3372   13.0575 C   0  0  0  0  0  0  0  0  0  0  0  0
  -12.1359  -18.4824   12.2963 C   0  0  0  0  0  0  0  0  0  0  0  0
  -12.5347  -19.6868   12.9487 C   0  0  0  0  0  0  0  0  0  0  0  0
  -12.6085  -19.7565   14.3650 C   0  0  0  0  0  0  0  0  0  0  0  0
  -13.8657  -22.3904   18.3748 N   0  0  0  0  0  0  0  0  0  0  0  0
  -15.2067  -21.6720   17.6391 S   0  0  0  0  0  0  0  0  0  0  0  0
  -14.9409  -20.2298   17.4742 O   0  0  0  0  0  0  0  0  0  0  0  0
  -16.3938  -22.0102   18.4418 O   0  0  0  0  0  0  0  0  0  0  0  0
  -15.4147  -22.3961   16.0476 C   0  0  0  0  0  0  0  0  0  0  0  0
  -14.4010  -22.5727   15.0678 C   0  0  0  0  0  0  0  0  0  0  0  0
  -14.6843  -23.1964   13.8091 C   0  0  0  0  0  0  0  0  0  0  0  0
  -16.0263  -23.6206   13.4958 C   0  0  0  0  0  0  0  0  0  0  0  0
  -17.0531  -23.4437   14.4732 C   0  0  0  0  0  0  0  0  0  0  0  0
  -16.7333  -22.8837   15.7433 C   0  0  0  0  0  0  0  0  0  0  0  0
  -16.3503  -24.1744   12.3052 N   0  0  0  0  0  0  0  0  0  0  0  0
  -15.6573  -24.3049   11.6182 H   0  0  0  0  0  0  0  0  0  0  0  0
  -17.2791  -24.4469   12.1255 H   0  0  0  0  0  0  0  0  0  0  0  0
  -13.8659  -23.8608   18.4780 C   0  0  0  0  0  0  0  0  0  0  0  0
  -14.9558  -24.4679   19.3595 C   0  0  0  0  0  0  0  0  0  0  0  0
  -15.9813  -25.2588   18.7491 C   0  0  0  0  0  0  0  0  0  0  0  0
  -17.0140  -25.8659   19.5200 C   0  0  0  0  0  0  0  0  0  0  0  0
  -17.0375  -25.6553   20.9324 C   0  0  0  0  0  0  0  0  0  0  0  0
  -16.0329  -24.8512   21.5453 C   0  0  0  0  0  0  0  0  0  0  0  0
  -14.9860  -24.2609   20.7721 C   0  0  0  0  0  0  0  0  0  0  0  0
 11 12  2  0  0  0
 11 16  1  0  0  0
 12 13  1  0  0  0
 12 17  1  0  0  0
 13 14  2  0  0  0
 14 15  1  0  0  0
 15  8  1  0  0  0
 15 16  2  0  0  0
  8 10  2  0  0  0
  8  7  1  0  0  0
  8  9  2  0  0  0
  7  1  1  0  0  0
  7 20  1  0  0  0
 20 21  1  0  0  0
 21 26  1  0  0  0
 21 22  2  0  0  0
 22 23  1  0  0  0
 23 24  2  0  0  0
 24 25  1  0  0  0
 25 26  2  0  0  0
  1  5  1  0  0  0
  1  2  1  0  0  0
  2  3  1  0  0  0
  3  4  1  0  0  0
  4  5  1  0  0  0
  5 27  1  0  0  0
 27 28  1  0  0  0
 27 40  1  0  0  0
 40 41  1  0  0  0
 41 46  1  0  0  0
 41 42  2  0  0  0
 42 43  1  0  0  0
 43 44  2  0  0  0
 44 45  1  0  0  0
 45 46  2  0  0  0
 28 29  2  0  0  0
 28 31  1  0  0  0
 28 30  2  0  0  0
 31 32  1  0  0  0
 31 36  2  0  0  0
 32 33  2  0  0  0
 33 34  1  0  0  0
 34 37  1  0  0  0
 34 35  2  0  0  0
 35 36  1  0  0  0
  3  6  1  0  0  0
 37 38  1  0  0  0
 37 39  1  0  0  0
 17 18  1  0  0  0
 17 19  1  0  0  0
M  END
> <minimizedAffinity>
-10.04919

$$$$
2R3W_G3G_A_2501


 46 50  0  0  0  0  0  0  0  0999 V2000
  -12.4292  -20.8938   18.0304 C   0  0  0  0  0  0  0  0  0  0  0  0
  -12.6380  -20.9739   19.5604 C   0  0  0  0  0  0  0  0  0  0  0  0
  -14.0369  -20.5570   19.8505 N   0  0  0  0  0  0  0  0  0  0  0  0
  -14.5524  -19.7980   18.6715 C   0  0  0  0  0  0  0  0  0  0  0  0
  -13.8517  -20.4758   17.4642 C   0  0  0  0  0  0  0  0  0  0  0  0
  -14.0551  -19.9621   20.6789 H   0  0  0  0  0  0  0  0  0  0  0  0
  -11.4016  -19.8834   17.5683 N   0  0  0  0  0  0  0  0  0  0  0  0
  -11.4425  -18.3374   18.3386 S   0  0  0  0  0  0  0  0  0  0  0  0
  -11.6806  -18.5178   19.7579 O   0  0  0  0  0  0  0  0  0  0  0  0
  -12.1200  -17.3754   17.4866 O   0  0  0  0  0  0  0  0  0  0  0  0
   -7.7712  -16.7459   17.3878 C   0  0  0  0  0  0  0  0  0  0  0  0
   -6.9057  -17.4814   18.2201 C   0  0  0  0  0  0  0  0  0  0  0  0
   -7.4118  -18.4861   19.0783 C   0  0  0  0  0  0  0  0  0  0  0  0
   -8.8096  -18.7331   19.1121 C   0  0  0  0  0  0  0  0  0  0  0  0
   -9.6906  -17.9987   18.2803 C   0  0  0  0  0  0  0  0  0  0  0  0
   -9.1664  -17.0109   17.4061 C   0  0  0  0  0  0  0  0  0  0  0  0
   -5.5834  -17.2347   18.1968 N   0  0  0  0  0  0  0  0  0  0  0  0
   -5.2232  -16.5374   17.6025 H   0  0  0  0  0  0  0  0  0  0  0  0
   -4.9760  -17.7515   18.7741 H   0  0  0  0  0  0  0  0  0  0  0  0
  -10.5237  -20.0303   16.3693 C   0  0  0  0  0  0  0  0  0  0  0  0
  -11.1686  -19.6034   15.0519 C   0  0  0  0  0  0  0  0  0  0  0  0
  -10.8936  -18.3113   14.5252 C   0  0  0  0  0  0  0  0  0  0  0  0
  -11.4751  -17.8769   13.3099 C   0  0  0  0  0  0  0  0  0  0  0  0
  -12.3400  -18.7648   12.6164 C   0  0  0  0  0  0  0  0  0  0  0  0
  -12.6033  -20.0674   13.1352 C   0  0  0  0  0  0  0  0  0  0  0  0
  -12.0293  -20.4908   14.3629 C   0  0  0  0  0  0  0  0  0  0  0  0
  -14.6358  -21.6635   16.9843 N   0  0  0  0  0  0  0  0  0  0  0  0
  -15.7980  -21.3068   15.8104 S   0  0  0  0  0  0  0  0  0  0  0  0
  -15.3846  -20.0875   15.0893 O   0  0  0  0  0  0  0  0  0  0  0  0
  -17.1063  -21.2334   16.4821 O   0  0  0  0  0  0  0  0  0  0  0  0
  -15.8578  -22.6474   14.6705 C   0  0  0  0  0  0  0  0  0  0  0  0
  -14.7952  -23.0859   13.8353 C   0  0  0  0  0  0  0  0  0  0  0  0
  -14.9541  -24.2071   12.9571 C   0  0  0  0  0  0  0  0  0  0  0  0
  -16.2217  -24.8893   12.8742 C   0  0  0  0  0  0  0  0  0  0  0  0
  -17.2972  -24.4532   13.7073 C   0  0  0  0  0  0  0  0  0  0  0  0
  -17.0948  -23.3800   14.6217 C   0  0  0  0  0  0  0  0  0  0  0  0
  -16.4320  -25.9243   12.0294 N   0  0  0  0  0  0  0  0  0  0  0  0
  -15.7039  -26.2401   11.4469 H   0  0  0  0  0  0  0  0  0  0  0  0
  -17.3133  -26.3620   11.9970 H   0  0  0  0  0  0  0  0  0  0  0  0
  -14.3641  -23.0882   17.2469 C   0  0  0  0  0  0  0  0  0  0  0  0
  -15.0499  -23.6832   18.4753 C   0  0  0  0  0  0  0  0  0  0  0  0
  -14.2464  -24.1019   19.5839 C   0  0  0  0  0  0  0  0  0  0  0  0
  -14.8287  -24.6473   20.7640 C   0  0  0  0  0  0  0  0  0  0  0  0
  -16.2470  -24.8026   20.8272 C   0  0  0  0  0  0  0  0  0  0  0  0
  -17.0526  -24.4086   19.7194 C   0  0  0  0  0  0  0  0  0  0  0  0
  -16.4673  -23.8422   18.5452 C   0  0  0  0  0  0  0  0  0  0  0  0
 11 12  2  0  0  0
 11 16  1  0  0  0
 12 13  1  0  0  0
 12 17  1  0  0  0
 13 14  2  0  0  0
 14 15  1  0  0  0
 15  8  1  0  0  0
 15 16  2  0  0  0
  8 10  2  0  0  0
  8  7  1  0  0  0
  8  9  2  0  0  0
  7  1  1  0  0  0
  7 20  1  0  0  0
 20 21  1  0  0  0
 21 26  1  0  0  0
 21 22  2  0  0  0
 22 23  1  0  0  0
 23 24  2  0  0  0
 24 25  1  0  0  0
 25 26  2  0  0  0
  1  5  1  0  0  0
  1  2  1  0  0  0
  2  3  1  0  0  0
  3  4  1  0  0  0
  4  5  1  0  0  0
  5 27  1  0  0  0
 27 28  1  0  0  0
 27 40  1  0  0  0
 40 41  1  0  0  0
 41 46  1  0  0  0
 41 42  2  0  0  0
 42 43  1  0  0  0
 43 44  2  0  0  0
 44 45  1  0  0  0
 45 46  2  0  0  0
 28 29  2  0  0  0
 28 31  1  0  0  0
 28 30  2  0  0  0
 31 32  1  0  0  0
 31 36  2  0  0  0
 32 33  2  0  0  0
 33 34  1  0  0  0
 34 37  1  0  0  0
 34 35  2  0  0  0
 35 36  1  0  0  0
  3  6  1  0  0  0
 37 38  1  0  0  0
 37 39  1  0  0  0
 17 18  1  0  0  0
 17 19  1  0  0  0
M  END
> <minimizedAffinity>
-9.99371

$$$$
2R3W_G3G_A_2501


 46 50  0  0  0  0  0  0  0  0999 V2000
  -12.6059  -21.2227   18.1473 C   0  0  0  0  0  0  0  0  0  0  0  0
  -11.4589  -21.8033   19.0065 C   0  0  0  0  0  0  0  0  0  0  0  0
  -10.2173  -21.7740   18.1865 N   0  0  0  0  0  0  0  0  0  0  0  0
  -10.6086  -21.6459   16.7504 C   0  0  0  0  0  0  0  0  0  0  0  0
  -11.8973  -20.7828   16.7972 C   0  0  0  0  0  0  0  0  0  0  0  0
   -9.6915  -22.6369   18.3254 H   0  0  0  0  0  0  0  0  0  0  0  0
  -13.7247  -22.1883   17.8216 N   0  0  0  0  0  0  0  0  0  0  0  0
  -15.2556  -21.4886   17.4320 S   0  0  0  0  0  0  0  0  0  0  0  0
  -15.0562  -20.1230   16.9856 O   0  0  0  0  0  0  0  0  0  0  0  0
  -16.2590  -21.9240   18.3881 O   0  0  0  0  0  0  0  0  0  0  0  0
  -14.7275  -23.2063   13.7325 C   0  0  0  0  0  0  0  0  0  0  0  0
  -15.9979  -23.7584   13.4790 C   0  0  0  0  0  0  0  0  0  0  0  0
  -17.0480  -23.6113   14.4159 C   0  0  0  0  0  0  0  0  0  0  0  0
  -16.8042  -22.9193   15.6314 C   0  0  0  0  0  0  0  0  0  0  0  0
  -15.5298  -22.3605   15.8985 C   0  0  0  0  0  0  0  0  0  0  0  0
  -14.4927  -22.4942   14.9387 C   0  0  0  0  0  0  0  0  0  0  0  0
  -16.2215  -24.4265   12.3329 N   0  0  0  0  0  0  0  0  0  0  0  0
  -15.4963  -24.5333   11.6758 H   0  0  0  0  0  0  0  0  0  0  0  0
  -17.1105  -24.8087   12.1514 H   0  0  0  0  0  0  0  0  0  0  0  0
  -13.6780  -23.6665   18.0278 C   0  0  0  0  0  0  0  0  0  0  0  0
  -14.5682  -24.1803   19.1579 C   0  0  0  0  0  0  0  0  0  0  0  0
  -15.6704  -25.0249   18.8509 C   0  0  0  0  0  0  0  0  0  0  0  0
  -16.5213  -25.5177   19.8692 C   0  0  0  0  0  0  0  0  0  0  0  0
  -16.2480  -25.1563   21.2153 C   0  0  0  0  0  0  0  0  0  0  0  0
  -15.1327  -24.3228   21.5261 C   0  0  0  0  0  0  0  0  0  0  0  0
  -14.2927  -23.8189   20.4983 C   0  0  0  0  0  0  0  0  0  0  0  0
  -11.5645  -19.3182   16.7893 N   0  0  0  0  0  0  0  0  0  0  0  0
  -11.3820  -18.6503   15.2477 S   0  0  0  0  0  0  0  0  0  0  0  0
  -12.4509  -17.6560   15.0324 O   0  0  0  0  0  0  0  0  0  0  0  0
  -11.3433  -19.7593   14.2799 O   0  0  0  0  0  0  0  0  0  0  0  0
   -9.8244  -17.8318   15.1840 C   0  0  0  0  0  0  0  0  0  0  0  0
   -8.5578  -18.4516   15.0095 C   0  0  0  0  0  0  0  0  0  0  0  0
   -7.3529  -17.6779   14.9528 C   0  0  0  0  0  0  0  0  0  0  0  0
   -7.4022  -16.2462   15.1166 C   0  0  0  0  0  0  0  0  0  0  0  0
   -8.6707  -15.6143   15.2964 C   0  0  0  0  0  0  0  0  0  0  0  0
   -9.8607  -16.3970   15.2809 C   0  0  0  0  0  0  0  0  0  0  0  0
   -6.2882  -15.4793   15.1135 N   0  0  0  0  0  0  0  0  0  0  0  0
   -5.4044  -15.8954   14.9911 H   0  0  0  0  0  0  0  0  0  0  0  0
   -6.3611  -14.5049   15.2337 H   0  0  0  0  0  0  0  0  0  0  0  0
  -11.5991  -18.3804   17.9260 C   0  0  0  0  0  0  0  0  0  0  0  0
  -10.4072  -18.4429   18.8793 C   0  0  0  0  0  0  0  0  0  0  0  0
  -10.6475  -18.6143   20.2803 C   0  0  0  0  0  0  0  0  0  0  0  0
   -9.5771  -18.6980   21.2165 C   0  0  0  0  0  0  0  0  0  0  0  0
   -8.2344  -18.5806   20.7441 C   0  0  0  0  0  0  0  0  0  0  0  0
   -7.9871  -18.3878   19.3538 C   0  0  0  0  0  0  0  0  0  0  0  0
   -9.0621  -18.3256   18.4142 C   0  0  0  0  0  0  0  0  0  0  0  0
 11 12  2  0  0  0
 11 16  1  0  0  0
 12 13  1  0  0  0
 12 17  1  0  0  0
 13 14  2  0  0  0
 14 15  1  0  0  0
 15  8  1  0  0  0
 15 16  2  0  0  0
  8 10  2  0  0  0
  8  7  1  0  0  0
  8  9  2  0  0  0
  7  1  1  0  0  0
  7 20  1  0  0  0
 20 21  1  0  0  0
 21 26  1  0  0  0
 21 22  2  0  0  0
 22 23  1  0  0  0
 23 24  2  0  0  0
 24 25  1  0  0  0
 25 26  2  0  0  0
  1  5  1  0  0  0
  1  2  1  0  0  0
  2  3  1  0  0  0
  3  4  1  0  0  0
  4  5  1  0  0  0
  5 27  1  0  0  0
 27 28  1  0  0  0
 27 40  1  0  0  0
 40 41  1  0  0  0
 41 46  1  0  0  0
 41 42  2  0  0  0
 42 43  1  0  0  0
 43 44  2  0  0  0
 44 45  1  0  0  0
 45 46  2  0  0  0
 28 29  2  0  0  0
 28 31  1  0  0  0
 28 30  2  0  0  0
 31 32  1  0  0  0
 31 36  2  0  0  0
 32 33  2  0  0  0
 33 34  1  0  0  0
 34 37  1  0  0  0
 34 35  2  0  0  0
 35 36  1  0  0  0
  3  6  1  0  0  0
 37 38  1  0  0  0
 37 39  1  0  0  0
 17 18  1  0  0  0
 17 19  1  0  0  0
M  END
> <minimizedAffinity>
-9.95871

$$$$
2R3W_G3G_A_2501


 46 50  0  0  0  0  0  0  0  0999 V2000
  -11.6810  -20.3375   16.7565 C   0  0  0  0  0  0  0  0  0  0  0  0
  -11.5726  -21.8791   16.7068 C   0  0  0  0  0  0  0  0  0  0  0  0
  -10.5294  -22.2930   17.6843 N   0  0  0  0  0  0  0  0  0  0  0  0
   -9.6800  -21.1034   17.9928 C   0  0  0  0  0  0  0  0  0  0  0  0
  -10.6708  -19.9125   17.9042 C   0  0  0  0  0  0  0  0  0  0  0  0
   -9.9541  -23.0332   17.2825 H   0  0  0  0  0  0  0  0  0  0  0  0
  -11.3023  -19.6195   15.4793 N   0  0  0  0  0  0  0  0  0  0  0  0
  -12.6036  -18.9672   14.5487 S   0  0  0  0  0  0  0  0  0  0  0  0
  -12.3048  -19.1206   13.1377 O   0  0  0  0  0  0  0  0  0  0  0  0
  -13.1059  -17.7572   15.1764 O   0  0  0  0  0  0  0  0  0  0  0  0
  -15.8760  -21.1057   15.8268 C   0  0  0  0  0  0  0  0  0  0  0  0
  -15.6327  -22.3773   15.2731 C   0  0  0  0  0  0  0  0  0  0  0  0
  -14.4652  -22.6208   14.5116 C   0  0  0  0  0  0  0  0  0  0  0  0
  -13.5465  -21.5615   14.2884 C   0  0  0  0  0  0  0  0  0  0  0  0
  -13.7810  -20.2773   14.8393 C   0  0  0  0  0  0  0  0  0  0  0  0
  -14.9439  -20.0539   15.6219 C   0  0  0  0  0  0  0  0  0  0  0  0
  -16.5126  -23.3751   15.4737 N   0  0  0  0  0  0  0  0  0  0  0  0
  -17.3273  -23.2140   16.0023 H   0  0  0  0  0  0  0  0  0  0  0  0
  -16.3417  -24.2663   15.0918 H   0  0  0  0  0  0  0  0  0  0  0  0
   -9.9466  -19.6266   14.8534 C   0  0  0  0  0  0  0  0  0  0  0  0
   -9.2526  -18.2660   14.8220 C   0  0  0  0  0  0  0  0  0  0  0  0
   -7.8319  -18.2052   14.8430 C   0  0  0  0  0  0  0  0  0  0  0  0
   -7.1517  -16.9639   14.8197 C   0  0  0  0  0  0  0  0  0  0  0  0
   -7.9199  -15.7704   14.7674 C   0  0  0  0  0  0  0  0  0  0  0  0
   -9.3447  -15.8308   14.7293 C   0  0  0  0  0  0  0  0  0  0  0  0
  -10.0210  -17.0786   14.7690 C   0  0  0  0  0  0  0  0  0  0  0  0
  -11.3701  -19.6955   19.2156 N   0  0  0  0  0  0  0  0  0  0  0  0
  -10.3905  -19.0519   20.4329 S   0  0  0  0  0  0  0  0  0  0  0  0
   -9.9030  -20.1558   21.2823 O   0  0  0  0  0  0  0  0  0  0  0  0
  -11.1652  -18.0109   21.1288 O   0  0  0  0  0  0  0  0  0  0  0  0
   -9.0092  -18.2695   19.6712 C   0  0  0  0  0  0  0  0  0  0  0  0
   -9.0607  -17.1944   18.7436 C   0  0  0  0  0  0  0  0  0  0  0  0
   -7.8639  -16.6218   18.2020 C   0  0  0  0  0  0  0  0  0  0  0  0
   -6.5756  -17.1611   18.5603 C   0  0  0  0  0  0  0  0  0  0  0  0
   -6.5138  -18.2446   19.4893 C   0  0  0  0  0  0  0  0  0  0  0  0
   -7.7131  -18.7522   20.0666 C   0  0  0  0  0  0  0  0  0  0  0  0
   -5.4217  -16.6822   18.0422 N   0  0  0  0  0  0  0  0  0  0  0  0
   -5.4426  -15.9360   17.4004 H   0  0  0  0  0  0  0  0  0  0  0  0
   -4.5608  -17.0799   18.3068 H   0  0  0  0  0  0  0  0  0  0  0  0
  -12.8170  -19.7671   19.4876 C   0  0  0  0  0  0  0  0  0  0  0  0
  -13.3641  -21.1515   19.8303 C   0  0  0  0  0  0  0  0  0  0  0  0
  -12.8354  -21.8450   20.9658 C   0  0  0  0  0  0  0  0  0  0  0  0
  -13.3173  -23.1303   21.3464 C   0  0  0  0  0  0  0  0  0  0  0  0
  -14.3338  -23.7494   20.5570 C   0  0  0  0  0  0  0  0  0  0  0  0
  -14.8502  -23.0755   19.4122 C   0  0  0  0  0  0  0  0  0  0  0  0
  -14.3798  -21.7769   19.0452 C   0  0  0  0  0  0  0  0  0  0  0  0
 11 12  2  0  0  0
 11 16  1  0  0  0
 12 13  1  0  0  0
 12 17  1  0  0  0
 13 14  2  0  0  0
 14 15  1  0  0  0
 15  8  1  0  0  0
 15 16  2  0  0  0
  8 10  2  0  0  0
  8  7  1  0  0  0
  8  9  2  0  0  0
  7  1  1  0  0  0
  7 20  1  0  0  0
 20 21  1  0  0  0
 21 26  1  0  0  0
 21 22  2  0  0  0
 22 23  1  0  0  0
 23 24  2  0  0  0
 24 25  1  0  0  0
 25 26  2  0  0  0
  1  5  1  0  0  0
  1  2  1  0  0  0
  2  3  1  0  0  0
  3  4  1  0  0  0
  4  5  1  0  0  0
  5 27  1  0  0  0
 27 28  1  0  0  0
 27 40  1  0  0  0
 40 41  1  0  0  0
 41 46  1  0  0  0
 41 42  2  0  0  0
 42 43  1  0  0  0
 43 44  2  0  0  0
 44 45  1  0  0  0
 45 46  2  0  0  0
 28 29  2  0  0  0
 28 31  1  0  0  0
 28 30  2  0  0  0
 31 32  1  0  0  0
 31 36  2  0  0  0
 32 33  2  0  0  0
 33 34  1  0  0  0
 34 37  1  0  0  0
 34 35  2  0  0  0
 35 36  1  0  0  0
  3  6  1  0  0  0
 37 38  1  0  0  0
 37 39  1  0  0  0
 17 18  1  0  0  0
 17 19  1  0  0  0
M  END
> <minimizedAffinity>
-9.75578

$$$$
