2DOO_C4H_A_601


 30 31  0  0  0  0  0  0  0  0999 V2000
   29.7072   44.3558   37.6689 S   0  0  0  0  0  0  0  0  0  0  0  0
   28.9404   43.2642   38.3665 O   0  0  0  0  0  0  0  0  0  0  0  0
   29.3529   45.6693   38.2471 O   0  0  0  0  0  0  0  0  0  0  0  0
   29.3802   45.5017   33.6127 C   0  0  0  0  0  0  0  0  0  0  0  0
   28.6039   44.3460   33.1898 C   0  0  0  0  0  0  0  0  0  0  0  0
   29.8400   46.6589   32.7576 C   0  0  0  0  0  0  0  0  0  0  0  0
   30.5934   47.6970   33.3934 C   0  0  0  0  0  0  0  0  0  0  0  0
   30.9123   47.6849   34.7810 C   0  0  0  0  0  0  0  0  0  0  0  0
   30.4818   46.6004   35.5902 C   0  0  0  0  0  0  0  0  0  0  0  0
   29.7121   45.4987   35.0529 C   0  0  0  0  0  0  0  0  0  0  0  0
   29.2884   44.3743   35.9415 C   0  0  0  0  0  0  0  0  0  0  0  0
   28.5231   43.2906   35.3964 C   0  0  0  0  0  0  0  0  0  0  0  0
   28.1961   43.2878   34.0372 C   0  0  0  0  0  0  0  0  0  0  0  0
   29.5718   46.8103   31.2279 N   0  0  0  0  0  0  0  0  0  0  0  0
   30.3848   46.0061   30.5334 C   0  0  0  0  0  0  0  0  0  0  0  0
   29.5735   47.9406   30.7989 C   0  0  0  0  0  0  0  0  0  0  0  0
   31.1717   44.1885   37.9598 N   0  0  0  0  0  0  0  0  0  0  0  0
   31.2432   43.9953   38.9587 H   0  0  0  0  0  0  0  0  0  0  0  0
   31.9990   43.1651   37.2805 C   0  0  0  0  0  0  0  0  0  0  0  0
   33.5040   43.2808   37.7354 C   0  0  0  0  0  0  0  0  0  0  0  0
   33.8114   42.1933   38.8660 C   0  0  0  0  0  0  0  0  0  0  0  0
   33.6420   42.7252   40.2724 C   0  0  0  0  0  0  0  0  0  0  0  0
   34.1090   41.7622   41.3253 N   0  0  0  0  0  0  0  0  0  0  0  0
   35.0823   42.2723   42.3412 C   0  0  0  0  0  0  0  0  0  0  0  0
   35.4647   43.4414   42.2836 O   0  0  0  0  0  0  0  0  0  0  0  0
   33.7877   40.8319   41.3466 H   0  0  0  0  0  0  0  0  0  0  0  0
   35.5787   41.2556   43.4248 C   0  0  0  0  0  0  0  0  0  0  0  0
   34.9557   41.4590   44.7986 C   0  0  0  0  0  0  0  0  0  0  0  0
   33.3094   40.7683   45.1639 S   0  0  0  0  0  0  0  0  0  0  0  0
   32.3757   41.3916   44.3962 H   0  0  0  0  0  0  0  0  0  0  0  0
  4  5  1  0  0  0
  4  6  2  0  0  0
  4 10  1  0  0  0
  5 13  2  0  0  0
  6 14  1  0  0  0
  6  7  1  0  0  0
 14 15  1  0  0  0
 14 16  1  0  0  0
  7  8  2  0  0  0
  8  9  1  0  0  0
  9 10  2  0  0  0
 10 11  1  0  0  0
 11 12  2  0  0  0
 11  1  1  0  0  0
 12 13  1  0  0  0
  1 17  1  0  0  0
  1  2  2  0  0  0
  1  3  2  0  0  0
 17 19  1  0  0  0
 19 20  1  0  0  0
 20 21  1  0  0  0
 21 22  1  0  0  0
 22 23  1  0  0  0
 23 24  1  0  0  0
 24 25  2  0  0  0
 24 27  1  0  0  0
 27 28  1  0  0  0
 28 29  1  0  0  0
 17 18  1  0  0  0
 23 26  1  0  0  0
 29 30  1  0  0  0
M  END
> <minimizedAffinity>
-8.33985

$$$$
2DOO_C4H_A_601


 30 31  0  0  0  0  0  0  0  0999 V2000
   29.7535   44.4336   37.7225 S   0  0  0  0  0  0  0  0  0  0  0  0
   29.0681   43.2912   38.4233 O   0  0  0  0  0  0  0  0  0  0  0  0
   29.3118   45.7192   38.3033 O   0  0  0  0  0  0  0  0  0  0  0  0
   29.3947   45.5184   33.6521 C   0  0  0  0  0  0  0  0  0  0  0  0
   28.6273   44.3495   33.2499 C   0  0  0  0  0  0  0  0  0  0  0  0
   29.8389   46.6676   32.7783 C   0  0  0  0  0  0  0  0  0  0  0  0
   30.5856   47.7219   33.3953 C   0  0  0  0  0  0  0  0  0  0  0  0
   30.9117   47.7326   34.7812 C   0  0  0  0  0  0  0  0  0  0  0  0
   30.4958   46.6556   35.6080 C   0  0  0  0  0  0  0  0  0  0  0  0
   29.7340   45.5391   35.0905 C   0  0  0  0  0  0  0  0  0  0  0  0
   29.3257   44.4235   35.9972 C   0  0  0  0  0  0  0  0  0  0  0  0
   28.5681   43.3250   35.4716 C   0  0  0  0  0  0  0  0  0  0  0  0
   28.2341   43.2996   34.1143 C   0  0  0  0  0  0  0  0  0  0  0  0
   29.5614   46.7947   31.2480 N   0  0  0  0  0  0  0  0  0  0  0  0
   30.3896   46.0006   30.5597 C   0  0  0  0  0  0  0  0  0  0  0  0
   29.5359   47.9194   30.8056 C   0  0  0  0  0  0  0  0  0  0  0  0
   31.2276   44.3685   38.0058 N   0  0  0  0  0  0  0  0  0  0  0  0
   31.3194   44.0018   38.9532 H   0  0  0  0  0  0  0  0  0  0  0  0
   32.1583   43.5804   37.1656 C   0  0  0  0  0  0  0  0  0  0  0  0
   33.2849   42.9266   38.0536 C   0  0  0  0  0  0  0  0  0  0  0  0
   33.1872   41.3336   37.9632 C   0  0  0  0  0  0  0  0  0  0  0  0
   31.7748   40.8098   38.1059 C   0  0  0  0  0  0  0  0  0  0  0  0
   31.0965   41.2817   39.3594 N   0  0  0  0  0  0  0  0  0  0  0  0
   31.2556   40.4399   40.5865 C   0  0  0  0  0  0  0  0  0  0  0  0
   31.9223   39.4061   40.5324 O   0  0  0  0  0  0  0  0  0  0  0  0
   30.5680   42.1121   39.3735 H   0  0  0  0  0  0  0  0  0  0  0  0
   30.5290   40.9300   41.8850 C   0  0  0  0  0  0  0  0  0  0  0  0
   31.0760   40.3231   43.1691 C   0  0  0  0  0  0  0  0  0  0  0  0
   32.2290   41.2771   44.2090 S   0  0  0  0  0  0  0  0  0  0  0  0
   33.3940   41.4703   43.5344 H   0  0  0  0  0  0  0  0  0  0  0  0
  4  5  1  0  0  0
  4  6  2  0  0  0
  4 10  1  0  0  0
  5 13  2  0  0  0
  6 14  1  0  0  0
  6  7  1  0  0  0
 14 15  1  0  0  0
 14 16  1  0  0  0
  7  8  2  0  0  0
  8  9  1  0  0  0
  9 10  2  0  0  0
 10 11  1  0  0  0
 11 12  2  0  0  0
 11  1  1  0  0  0
 12 13  1  0  0  0
  1 17  1  0  0  0
  1  2  2  0  0  0
  1  3  2  0  0  0
 17 19  1  0  0  0
 19 20  1  0  0  0
 20 21  1  0  0  0
 21 22  1  0  0  0
 22 23  1  0  0  0
 23 24  1  0  0  0
 24 25  2  0  0  0
 24 27  1  0  0  0
 27 28  1  0  0  0
 28 29  1  0  0  0
 17 18  1  0  0  0
 23 26  1  0  0  0
 29 30  1  0  0  0
M  END
> <minimizedAffinity>
-8.29368

$$$$
2DOO_C4H_A_601


 30 31  0  0  0  0  0  0  0  0999 V2000
   30.5375   40.7543   40.8344 S   0  0  0  0  0  0  0  0  0  0  0  0
   30.5125   42.2588   40.8786 O   0  0  0  0  0  0  0  0  0  0  0  0
   29.1669   40.2227   40.9892 O   0  0  0  0  0  0  0  0  0  0  0  0
   33.6928   40.2051   43.5939 C   0  0  0  0  0  0  0  0  0  0  0  0
   33.0728   39.1055   44.3176 C   0  0  0  0  0  0  0  0  0  0  0  0
   35.0400   40.8336   43.8615 C   0  0  0  0  0  0  0  0  0  0  0  0
   35.4527   41.9086   43.0108 C   0  0  0  0  0  0  0  0  0  0  0  0
   34.6582   42.3936   41.9334 C   0  0  0  0  0  0  0  0  0  0  0  0
   33.3914   41.8059   41.6762 C   0  0  0  0  0  0  0  0  0  0  0  0
   32.8760   40.7117   42.4712 C   0  0  0  0  0  0  0  0  0  0  0  0
   31.5328   40.1307   42.1685 C   0  0  0  0  0  0  0  0  0  0  0  0
   31.0359   39.0444   42.9624 C   0  0  0  0  0  0  0  0  0  0  0  0
   31.8042   38.5515   44.0213 C   0  0  0  0  0  0  0  0  0  0  0  0
   36.0183   40.4147   45.0028 N   0  0  0  0  0  0  0  0  0  0  0  0
   35.6102   40.9217   46.1717 C   0  0  0  0  0  0  0  0  0  0  0  0
   37.1912   40.6253   44.7993 C   0  0  0  0  0  0  0  0  0  0  0  0
   30.9707   40.3117   39.4656 N   0  0  0  0  0  0  0  0  0  0  0  0
   30.2127   39.7357   39.0995 H   0  0  0  0  0  0  0  0  0  0  0  0
   31.3105   41.2770   38.3950 C   0  0  0  0  0  0  0  0  0  0  0  0
   32.8410   41.1804   38.0298 C   0  0  0  0  0  0  0  0  0  0  0  0
   33.4585   42.6489   37.8985 C   0  0  0  0  0  0  0  0  0  0  0  0
   32.5669   43.7285   38.4721 C   0  0  0  0  0  0  0  0  0  0  0  0
   31.9425   44.5968   37.4184 N   0  0  0  0  0  0  0  0  0  0  0  0
   30.4922   44.9317   37.5733 C   0  0  0  0  0  0  0  0  0  0  0  0
   29.8666   44.4930   38.5390 O   0  0  0  0  0  0  0  0  0  0  0  0
   32.4665   44.9325   36.6556 H   0  0  0  0  0  0  0  0  0  0  0  0
   29.8444   45.8225   36.4594 C   0  0  0  0  0  0  0  0  0  0  0  0
   29.0905   47.0326   36.9924 C   0  0  0  0  0  0  0  0  0  0  0  0
   27.3709   47.3369   36.4715 S   0  0  0  0  0  0  0  0  0  0  0  0
   27.3434   47.6195   35.1414 H   0  0  0  0  0  0  0  0  0  0  0  0
  4  5  1  0  0  0
  4  6  2  0  0  0
  4 10  1  0  0  0
  5 13  2  0  0  0
  6 14  1  0  0  0
  6  7  1  0  0  0
 14 15  1  0  0  0
 14 16  1  0  0  0
  7  8  2  0  0  0
  8  9  1  0  0  0
  9 10  2  0  0  0
 10 11  1  0  0  0
 11 12  2  0  0  0
 11  1  1  0  0  0
 12 13  1  0  0  0
  1 17  1  0  0  0
  1  2  2  0  0  0
  1  3  2  0  0  0
 17 19  1  0  0  0
 19 20  1  0  0  0
 20 21  1  0  0  0
 21 22  1  0  0  0
 22 23  1  0  0  0
 23 24  1  0  0  0
 24 25  2  0  0  0
 24 27  1  0  0  0
 27 28  1  0  0  0
 28 29  1  0  0  0
 17 18  1  0  0  0
 23 26  1  0  0  0
 29 30  1  0  0  0
M  END
> <minimizedAffinity>
-7.63866

$$$$
2DOO_C4H_A_601


 30 31  0  0  0  0  0  0  0  0999 V2000
   30.1435   44.3801   37.6305 S   0  0  0  0  0  0  0  0  0  0  0  0
   29.4545   45.4500   38.4348 O   0  0  0  0  0  0  0  0  0  0  0  0
   31.6039   44.6087   37.6340 O   0  0  0  0  0  0  0  0  0  0  0  0
   29.4851   45.5918   33.6341 C   0  0  0  0  0  0  0  0  0  0  0  0
   28.6472   44.4601   33.2677 C   0  0  0  0  0  0  0  0  0  0  0  0
   29.8943   46.7506   32.7559 C   0  0  0  0  0  0  0  0  0  0  0  0
   30.7255   47.7623   33.3351 C   0  0  0  0  0  0  0  0  0  0  0  0
   31.1659   47.7229   34.6885 C   0  0  0  0  0  0  0  0  0  0  0  0
   30.7834   46.6367   35.5192 C   0  0  0  0  0  0  0  0  0  0  0  0
   29.9432   45.5604   35.0389 C   0  0  0  0  0  0  0  0  0  0  0  0
   29.5736   44.4330   35.9477 C   0  0  0  0  0  0  0  0  0  0  0  0
   28.7377   43.3749   35.4594 C   0  0  0  0  0  0  0  0  0  0  0  0
   28.2913   43.3991   34.1348 C   0  0  0  0  0  0  0  0  0  0  0  0
   29.4951   46.9303   31.2582 N   0  0  0  0  0  0  0  0  0  0  0  0
   30.2150   46.1089   30.4854 C   0  0  0  0  0  0  0  0  0  0  0  0
   29.4962   48.0652   30.8419 C   0  0  0  0  0  0  0  0  0  0  0  0
   29.9586   43.0562   38.3164 N   0  0  0  0  0  0  0  0  0  0  0  0
   29.0358   42.7196   38.0414 H   0  0  0  0  0  0  0  0  0  0  0  0
   30.8902   41.9236   38.1095 C   0  0  0  0  0  0  0  0  0  0  0  0
   31.2732   41.2646   39.4894 C   0  0  0  0  0  0  0  0  0  0  0  0
   30.1388   41.5787   40.5710 C   0  0  0  0  0  0  0  0  0  0  0  0
   30.0798   40.5630   41.6911 C   0  0  0  0  0  0  0  0  0  0  0  0
   31.3827   40.4184   42.4229 N   0  0  0  0  0  0  0  0  0  0  0  0
   31.5919   41.2757   43.6316 C   0  0  0  0  0  0  0  0  0  0  0  0
   30.7086   42.0591   43.9817 O   0  0  0  0  0  0  0  0  0  0  0  0
   32.0723   39.7846   42.1196 H   0  0  0  0  0  0  0  0  0  0  0  0
   32.9616   41.1318   44.3780 C   0  0  0  0  0  0  0  0  0  0  0  0
   34.1727   41.1185   43.4562 C   0  0  0  0  0  0  0  0  0  0  0  0
   34.2412   42.2450   42.0253 S   0  0  0  0  0  0  0  0  0  0  0  0
   33.2726   41.9045   41.1335 H   0  0  0  0  0  0  0  0  0  0  0  0
  4  5  1  0  0  0
  4  6  2  0  0  0
  4 10  1  0  0  0
  5 13  2  0  0  0
  6 14  1  0  0  0
  6  7  1  0  0  0
 14 15  1  0  0  0
 14 16  1  0  0  0
  7  8  2  0  0  0
  8  9  1  0  0  0
  9 10  2  0  0  0
 10 11  1  0  0  0
 11 12  2  0  0  0
 11  1  1  0  0  0
 12 13  1  0  0  0
  1 17  1  0  0  0
  1  2  2  0  0  0
  1  3  2  0  0  0
 17 19  1  0  0  0
 19 20  1  0  0  0
 20 21  1  0  0  0
 21 22  1  0  0  0
 22 23  1  0  0  0
 23 24  1  0  0  0
 24 25  2  0  0  0
 24 27  1  0  0  0
 27 28  1  0  0  0
 28 29  1  0  0  0
 17 18  1  0  0  0
 23 26  1  0  0  0
 29 30  1  0  0  0
M  END
> <minimizedAffinity>
-7.54707

$$$$
2DOO_C4H_A_601


 30 31  0  0  0  0  0  0  0  0999 V2000
   32.9107   41.2924   38.4537 S   0  0  0  0  0  0  0  0  0  0  0  0
   32.2941   40.3745   37.4322 O   0  0  0  0  0  0  0  0  0  0  0  0
   34.2232   41.7728   37.9725 O   0  0  0  0  0  0  0  0  0  0  0  0
   34.0782   40.3130   42.3972 C   0  0  0  0  0  0  0  0  0  0  0  0
   33.5232   38.9680   42.3909 C   0  0  0  0  0  0  0  0  0  0  0  0
   34.8125   40.9955   43.5269 C   0  0  0  0  0  0  0  0  0  0  0  0
   35.2794   42.3307   43.3055 C   0  0  0  0  0  0  0  0  0  0  0  0
   35.0892   43.0248   42.0769 C   0  0  0  0  0  0  0  0  0  0  0  0
   34.4007   42.3879   41.0108 C   0  0  0  0  0  0  0  0  0  0  0  0
   33.8883   41.0390   41.1238 C   0  0  0  0  0  0  0  0  0  0  0  0
   33.1620   40.4126   39.9777 C   0  0  0  0  0  0  0  0  0  0  0  0
   32.6626   39.0740   40.1024 C   0  0  0  0  0  0  0  0  0  0  0  0
   32.8444   38.3749   41.2992 C   0  0  0  0  0  0  0  0  0  0  0  0
   35.0939   40.3674   44.9273 N   0  0  0  0  0  0  0  0  0  0  0  0
   34.1114   40.6789   45.7804 C   0  0  0  0  0  0  0  0  0  0  0  0
   36.1881   40.5822   45.3943 C   0  0  0  0  0  0  0  0  0  0  0  0
   32.0669   42.5298   38.5730 N   0  0  0  0  0  0  0  0  0  0  0  0
   32.0567   42.7730   39.5635 H   0  0  0  0  0  0  0  0  0  0  0  0
   32.3897   43.7779   37.8441 C   0  0  0  0  0  0  0  0  0  0  0  0
   31.1451   44.2675   37.0095 C   0  0  0  0  0  0  0  0  0  0  0  0
   29.7990   43.9513   37.8115 C   0  0  0  0  0  0  0  0  0  0  0  0
   28.5711   43.9041   36.9284 C   0  0  0  0  0  0  0  0  0  0  0  0
   28.9003   43.7512   35.4716 N   0  0  0  0  0  0  0  0  0  0  0  0
   28.3861   44.8001   34.5362 C   0  0  0  0  0  0  0  0  0  0  0  0
   27.7208   45.7367   34.9794 O   0  0  0  0  0  0  0  0  0  0  0  0
   29.4333   42.9908   35.1445 H   0  0  0  0  0  0  0  0  0  0  0  0
   28.7183   44.6226   33.0156 C   0  0  0  0  0  0  0  0  0  0  0  0
   29.6616   45.6793   32.4587 C   0  0  0  0  0  0  0  0  0  0  0  0
   30.3234   45.5107   30.7690 S   0  0  0  0  0  0  0  0  0  0  0  0
   31.1380   44.4234   30.7076 H   0  0  0  0  0  0  0  0  0  0  0  0
  4  5  1  0  0  0
  4  6  2  0  0  0
  4 10  1  0  0  0
  5 13  2  0  0  0
  6 14  1  0  0  0
  6  7  1  0  0  0
 14 15  1  0  0  0
 14 16  1  0  0  0
  7  8  2  0  0  0
  8  9  1  0  0  0
  9 10  2  0  0  0
 10 11  1  0  0  0
 11 12  2  0  0  0
 11  1  1  0  0  0
 12 13  1  0  0  0
  1 17  1  0  0  0
  1  2  2  0  0  0
  1  3  2  0  0  0
 17 19  1  0  0  0
 19 20  1  0  0  0
 20 21  1  0  0  0
 21 22  1  0  0  0
 22 23  1  0  0  0
 23 24  1  0  0  0
 24 25  2  0  0  0
 24 27  1  0  0  0
 27 28  1  0  0  0
 28 29  1  0  0  0
 17 18  1  0  0  0
 23 26  1  0  0  0
 29 30  1  0  0  0
M  END
> <minimizedAffinity>
-7.51582

$$$$
2DOO_C4H_A_601


 30 31  0  0  0  0  0  0  0  0999 V2000
   29.9616   44.4686   37.6274 S   0  0  0  0  0  0  0  0  0  0  0  0
   29.4045   43.2471   38.3083 O   0  0  0  0  0  0  0  0  0  0  0  0
   29.4384   45.6898   38.2757 O   0  0  0  0  0  0  0  0  0  0  0  0
   29.4420   45.6129   33.5908 C   0  0  0  0  0  0  0  0  0  0  0  0
   28.6539   44.4527   33.2037 C   0  0  0  0  0  0  0  0  0  0  0  0
   29.8551   46.7728   32.7159 C   0  0  0  0  0  0  0  0  0  0  0  0
   30.6308   47.8154   33.3169 C   0  0  0  0  0  0  0  0  0  0  0  0
   31.0131   47.8051   34.6884 C   0  0  0  0  0  0  0  0  0  0  0  0
   30.6267   46.7179   35.5161 C   0  0  0  0  0  0  0  0  0  0  0  0
   29.8396   45.6117   35.0144 C   0  0  0  0  0  0  0  0  0  0  0  0
   29.4638   44.4848   35.9211 C   0  0  0  0  0  0  0  0  0  0  0  0
   28.6808   43.3967   35.4113 C   0  0  0  0  0  0  0  0  0  0  0  0
   28.2917   43.3920   34.0686 C   0  0  0  0  0  0  0  0  0  0  0  0
   29.5161   46.9228   31.2002 N   0  0  0  0  0  0  0  0  0  0  0  0
   30.2728   46.0936   30.4722 C   0  0  0  0  0  0  0  0  0  0  0  0
   29.5260   48.0502   30.7640 C   0  0  0  0  0  0  0  0  0  0  0  0
   31.4466   44.5194   37.8504 N   0  0  0  0  0  0  0  0  0  0  0  0
   31.6477   45.4496   38.2174 H   0  0  0  0  0  0  0  0  0  0  0  0
   32.1435   43.5638   38.7417 C   0  0  0  0  0  0  0  0  0  0  0  0
   32.6224   42.3002   37.9299 C   0  0  0  0  0  0  0  0  0  0  0  0
   32.5451   41.0010   38.8580 C   0  0  0  0  0  0  0  0  0  0  0  0
   32.8058   39.7121   38.1095 C   0  0  0  0  0  0  0  0  0  0  0  0
   31.5528   39.0740   37.5834 N   0  0  0  0  0  0  0  0  0  0  0  0
   31.7014   37.8034   36.8069 C   0  0  0  0  0  0  0  0  0  0  0  0
   32.8234   37.3299   36.6246 O   0  0  0  0  0  0  0  0  0  0  0  0
   30.6682   39.4756   37.7431 H   0  0  0  0  0  0  0  0  0  0  0  0
   30.3906   37.1545   36.2458 C   0  0  0  0  0  0  0  0  0  0  0  0
   29.6888   37.9905   35.1850 C   0  0  0  0  0  0  0  0  0  0  0  0
   28.0556   37.4816   34.5569 S   0  0  0  0  0  0  0  0  0  0  0  0
   28.1759   36.3086   33.8792 H   0  0  0  0  0  0  0  0  0  0  0  0
  4  5  1  0  0  0
  4  6  2  0  0  0
  4 10  1  0  0  0
  5 13  2  0  0  0
  6 14  1  0  0  0
  6  7  1  0  0  0
 14 15  1  0  0  0
 14 16  1  0  0  0
  7  8  2  0  0  0
  8  9  1  0  0  0
  9 10  2  0  0  0
 10 11  1  0  0  0
 11 12  2  0  0  0
 11  1  1  0  0  0
 12 13  1  0  0  0
  1 17  1  0  0  0
  1  2  2  0  0  0
  1  3  2  0  0  0
 17 19  1  0  0  0
 19 20  1  0  0  0
 20 21  1  0  0  0
 21 22  1  0  0  0
 22 23  1  0  0  0
 23 24  1  0  0  0
 24 25  2  0  0  0
 24 27  1  0  0  0
 27 28  1  0  0  0
 28 29  1  0  0  0
 17 18  1  0  0  0
 23 26  1  0  0  0
 29 30  1  0  0  0
M  END
> <minimizedAffinity>
-7.51561

$$$$
2DOO_C4H_A_601


 30 31  0  0  0  0  0  0  0  0999 V2000
   30.6280   41.7040   40.0686 S   0  0  0  0  0  0  0  0  0  0  0  0
   29.4849   41.7695   41.0459 O   0  0  0  0  0  0  0  0  0  0  0  0
   30.5886   40.4231   39.3319 O   0  0  0  0  0  0  0  0  0  0  0  0
   33.7075   41.0553   42.8916 C   0  0  0  0  0  0  0  0  0  0  0  0
   34.6603   41.9774   42.2925 C   0  0  0  0  0  0  0  0  0  0  0  0
   33.9032   40.2120   44.1293 C   0  0  0  0  0  0  0  0  0  0  0  0
   32.8174   39.3749   44.5419 C   0  0  0  0  0  0  0  0  0  0  0  0
   31.5766   39.3155   43.8462 C   0  0  0  0  0  0  0  0  0  0  0  0
   31.3862   40.1069   42.6827 C   0  0  0  0  0  0  0  0  0  0  0  0
   32.4150   40.9907   42.1774 C   0  0  0  0  0  0  0  0  0  0  0  0
   32.1724   41.7982   40.9435 C   0  0  0  0  0  0  0  0  0  0  0  0
   33.1995   42.6724   40.4560 C   0  0  0  0  0  0  0  0  0  0  0  0
   34.4227   42.7479   41.1289 C   0  0  0  0  0  0  0  0  0  0  0  0
   35.2026   40.1674   44.9922 N   0  0  0  0  0  0  0  0  0  0  0  0
   35.3937   38.9355   45.4780 C   0  0  0  0  0  0  0  0  0  0  0  0
   35.2993   41.0151   45.8487 C   0  0  0  0  0  0  0  0  0  0  0  0
   30.4347   42.7599   39.0173 N   0  0  0  0  0  0  0  0  0  0  0  0
   30.9388   43.5838   39.3452 H   0  0  0  0  0  0  0  0  0  0  0  0
   30.8472   42.5562   37.6095 C   0  0  0  0  0  0  0  0  0  0  0  0
   31.3322   43.9150   36.9742 C   0  0  0  0  0  0  0  0  0  0  0  0
   30.3971   45.1101   37.4767 C   0  0  0  0  0  0  0  0  0  0  0  0
   30.0180   46.0785   36.3776 C   0  0  0  0  0  0  0  0  0  0  0  0
   30.0246   45.4515   35.0135 N   0  0  0  0  0  0  0  0  0  0  0  0
   28.6996   45.2061   34.3625 C   0  0  0  0  0  0  0  0  0  0  0  0
   27.6650   45.5173   34.9533 O   0  0  0  0  0  0  0  0  0  0  0  0
   30.8674   45.2112   34.5649 H   0  0  0  0  0  0  0  0  0  0  0  0
   28.7152   44.5343   32.9474 C   0  0  0  0  0  0  0  0  0  0  0  0
   29.0038   45.4985   31.8056 C   0  0  0  0  0  0  0  0  0  0  0  0
   30.6272   45.4710   30.9779 S   0  0  0  0  0  0  0  0  0  0  0  0
   31.5899   45.8625   31.8551 H   0  0  0  0  0  0  0  0  0  0  0  0
  4  5  1  0  0  0
  4  6  2  0  0  0
  4 10  1  0  0  0
  5 13  2  0  0  0
  6 14  1  0  0  0
  6  7  1  0  0  0
 14 15  1  0  0  0
 14 16  1  0  0  0
  7  8  2  0  0  0
  8  9  1  0  0  0
  9 10  2  0  0  0
 10 11  1  0  0  0
 11 12  2  0  0  0
 11  1  1  0  0  0
 12 13  1  0  0  0
  1 17  1  0  0  0
  1  2  2  0  0  0
  1  3  2  0  0  0
 17 19  1  0  0  0
 19 20  1  0  0  0
 20 21  1  0  0  0
 21 22  1  0  0  0
 22 23  1  0  0  0
 23 24  1  0  0  0
 24 25  2  0  0  0
 24 27  1  0  0  0
 27 28  1  0  0  0
 28 29  1  0  0  0
 17 18  1  0  0  0
 23 26  1  0  0  0
 29 30  1  0  0  0
M  END
> <minimizedAffinity>
-7.40776

$$$$
2DOO_C4H_A_601


 30 31  0  0  0  0  0  0  0  0999 V2000
   31.8777   40.7241   37.8748 S   0  0  0  0  0  0  0  0  0  0  0  0
   33.2257   40.0725   38.0313 O   0  0  0  0  0  0  0  0  0  0  0  0
   31.1423   40.0984   36.7555 O   0  0  0  0  0  0  0  0  0  0  0  0
   31.1246   44.7122   36.6914 C   0  0  0  0  0  0  0  0  0  0  0  0
   32.4659   45.2073   36.9615 C   0  0  0  0  0  0  0  0  0  0  0  0
   29.9495   45.4960   36.1563 C   0  0  0  0  0  0  0  0  0  0  0  0
   28.7164   44.7951   35.9613 C   0  0  0  0  0  0  0  0  0  0  0  0
   28.5612   43.4073   36.2390 C   0  0  0  0  0  0  0  0  0  0  0  0
   29.6626   42.6650   36.7410 C   0  0  0  0  0  0  0  0  0  0  0  0
   30.9562   43.2712   36.9734 C   0  0  0  0  0  0  0  0  0  0  0  0
   32.0842   42.4517   37.5114 C   0  0  0  0  0  0  0  0  0  0  0  0
   33.3616   43.0647   37.7337 C   0  0  0  0  0  0  0  0  0  0  0  0
   33.5345   44.4251   37.4619 C   0  0  0  0  0  0  0  0  0  0  0  0
   29.9647   47.0174   35.8096 N   0  0  0  0  0  0  0  0  0  0  0  0
   28.7793   47.5689   36.0935 C   0  0  0  0  0  0  0  0  0  0  0  0
   30.3464   47.3039   34.6989 C   0  0  0  0  0  0  0  0  0  0  0  0
   31.0480   40.4318   39.0928 N   0  0  0  0  0  0  0  0  0  0  0  0
   31.4040   39.5564   39.4764 H   0  0  0  0  0  0  0  0  0  0  0  0
   30.9578   41.3754   40.2308 C   0  0  0  0  0  0  0  0  0  0  0  0
   32.1282   41.1185   41.2551 C   0  0  0  0  0  0  0  0  0  0  0  0
   33.1720   42.3279   41.1967 C   0  0  0  0  0  0  0  0  0  0  0  0
   34.2380   42.2530   42.2679 C   0  0  0  0  0  0  0  0  0  0  0  0
   33.6802   41.9761   43.6340 N   0  0  0  0  0  0  0  0  0  0  0  0
   34.3940   40.9664   44.4770 C   0  0  0  0  0  0  0  0  0  0  0  0
   35.3953   40.4031   44.0339 O   0  0  0  0  0  0  0  0  0  0  0  0
   32.8766   42.4405   43.9624 H   0  0  0  0  0  0  0  0  0  0  0  0
   33.7942   40.6700   45.8936 C   0  0  0  0  0  0  0  0  0  0  0  0
   33.7409   39.1908   46.2481 C   0  0  0  0  0  0  0  0  0  0  0  0
   32.8916   38.0184   45.1413 S   0  0  0  0  0  0  0  0  0  0  0  0
   31.5603   38.2960   45.1225 H   0  0  0  0  0  0  0  0  0  0  0  0
  4  5  1  0  0  0
  4  6  2  0  0  0
  4 10  1  0  0  0
  5 13  2  0  0  0
  6 14  1  0  0  0
  6  7  1  0  0  0
 14 15  1  0  0  0
 14 16  1  0  0  0
  7  8  2  0  0  0
  8  9  1  0  0  0
  9 10  2  0  0  0
 10 11  1  0  0  0
 11 12  2  0  0  0
 11  1  1  0  0  0
 12 13  1  0  0  0
  1 17  1  0  0  0
  1  2  2  0  0  0
  1  3  2  0  0  0
 17 19  1  0  0  0
 19 20  1  0  0  0
 20 21  1  0  0  0
 21 22  1  0  0  0
 22 23  1  0  0  0
 23 24  1  0  0  0
 24 25  2  0  0  0
 24 27  1  0  0  0
 27 28  1  0  0  0
 28 29  1  0  0  0
 17 18  1  0  0  0
 23 26  1  0  0  0
 29 30  1  0  0  0
M  END
> <minimizedAffinity>
-7.30487

$$$$
2DOO_C4H_A_601


 30 31  0  0  0  0  0  0  0  0999 V2000
   30.8741   41.8052   39.7938 S   0  0  0  0  0  0  0  0  0  0  0  0
   29.6344   42.0529   40.6111 O   0  0  0  0  0  0  0  0  0  0  0  0
   30.7944   40.4785   39.1467 O   0  0  0  0  0  0  0  0  0  0  0  0
   33.5783   40.9727   42.9350 C   0  0  0  0  0  0  0  0  0  0  0  0
   34.6150   41.8922   42.4914 C   0  0  0  0  0  0  0  0  0  0  0  0
   33.6065   40.0787   44.1522 C   0  0  0  0  0  0  0  0  0  0  0  0
   32.4620   39.2546   44.3983 C   0  0  0  0  0  0  0  0  0  0  0  0
   31.3126   39.2529   43.5579 C   0  0  0  0  0  0  0  0  0  0  0  0
   31.2797   40.0921   42.4129 C   0  0  0  0  0  0  0  0  0  0  0  0
   32.3798   40.9679   42.0700 C   0  0  0  0  0  0  0  0  0  0  0  0
   32.3039   41.8271   40.8496 C   0  0  0  0  0  0  0  0  0  0  0  0
   33.4000   42.6927   40.5237 C   0  0  0  0  0  0  0  0  0  0  0  0
   34.5348   42.7118   41.3399 C   0  0  0  0  0  0  0  0  0  0  0  0
   34.7917   39.9687   45.1613 N   0  0  0  0  0  0  0  0  0  0  0  0
   34.9005   38.7139   45.6126 C   0  0  0  0  0  0  0  0  0  0  0  0
   34.8002   40.7783   46.0590 C   0  0  0  0  0  0  0  0  0  0  0  0
   30.9157   42.7869   38.6572 N   0  0  0  0  0  0  0  0  0  0  0  0
   30.9641   42.2316   37.8030 H   0  0  0  0  0  0  0  0  0  0  0  0
   29.8459   43.7877   38.4396 C   0  0  0  0  0  0  0  0  0  0  0  0
   29.2317   43.6342   36.9958 C   0  0  0  0  0  0  0  0  0  0  0  0
   29.8731   44.7237   36.0176 C   0  0  0  0  0  0  0  0  0  0  0  0
   30.4368   45.9252   36.7444 C   0  0  0  0  0  0  0  0  0  0  0  0
   31.7275   46.4163   36.1555 N   0  0  0  0  0  0  0  0  0  0  0  0
   32.9946   45.8135   36.6757 C   0  0  0  0  0  0  0  0  0  0  0  0
   32.9423   44.9521   37.5541 O   0  0  0  0  0  0  0  0  0  0  0  0
   31.7398   47.1077   35.4547 H   0  0  0  0  0  0  0  0  0  0  0  0
   34.3375   46.3453   36.0690 C   0  0  0  0  0  0  0  0  0  0  0  0
   34.1543   47.3729   34.9613 C   0  0  0  0  0  0  0  0  0  0  0  0
   34.7346   49.0838   35.2004 S   0  0  0  0  0  0  0  0  0  0  0  0
   34.0054   49.6766   36.1835 H   0  0  0  0  0  0  0  0  0  0  0  0
  4  5  1  0  0  0
  4  6  2  0  0  0
  4 10  1  0  0  0
  5 13  2  0  0  0
  6 14  1  0  0  0
  6  7  1  0  0  0
 14 15  1  0  0  0
 14 16  1  0  0  0
  7  8  2  0  0  0
  8  9  1  0  0  0
  9 10  2  0  0  0
 10 11  1  0  0  0
 11 12  2  0  0  0
 11  1  1  0  0  0
 12 13  1  0  0  0
  1 17  1  0  0  0
  1  2  2  0  0  0
  1  3  2  0  0  0
 17 19  1  0  0  0
 19 20  1  0  0  0
 20 21  1  0  0  0
 21 22  1  0  0  0
 22 23  1  0  0  0
 23 24  1  0  0  0
 24 25  2  0  0  0
 24 27  1  0  0  0
 27 28  1  0  0  0
 28 29  1  0  0  0
 17 18  1  0  0  0
 23 26  1  0  0  0
 29 30  1  0  0  0
M  END
> <minimizedAffinity>
-7.25866

$$$$
2DOO_C4H_A_601


 30 31  0  0  0  0  0  0  0  0999 V2000
   30.8904   42.7451   38.7145 S   0  0  0  0  0  0  0  0  0  0  0  0
   30.9259   41.4254   37.9911 O   0  0  0  0  0  0  0  0  0  0  0  0
   29.4990   43.0797   39.0846 O   0  0  0  0  0  0  0  0  0  0  0  0
   31.1868   45.6727   35.6789 C   0  0  0  0  0  0  0  0  0  0  0  0
   32.5451   46.0856   35.9974 C   0  0  0  0  0  0  0  0  0  0  0  0
   30.2995   46.2107   34.5813 C   0  0  0  0  0  0  0  0  0  0  0  0
   28.9906   45.6461   34.4479 C   0  0  0  0  0  0  0  0  0  0  0  0
   28.5050   44.6066   35.2910 C   0  0  0  0  0  0  0  0  0  0  0  0
   29.3350   44.0959   36.3239 C   0  0  0  0  0  0  0  0  0  0  0  0
   30.6765   44.5910   36.5474 C   0  0  0  0  0  0  0  0  0  0  0  0
   31.5104   44.0289   37.6528 C   0  0  0  0  0  0  0  0  0  0  0  0
   32.8393   44.5266   37.8608 C   0  0  0  0  0  0  0  0  0  0  0  0
   33.3352   45.5434   37.0395 C   0  0  0  0  0  0  0  0  0  0  0  0
   30.6886   47.3463   33.5843 N   0  0  0  0  0  0  0  0  0  0  0  0
   30.7205   48.5256   34.2153 C   0  0  0  0  0  0  0  0  0  0  0  0
   30.0484   47.3946   32.5600 C   0  0  0  0  0  0  0  0  0  0  0  0
   31.6150   42.6059   40.0233 N   0  0  0  0  0  0  0  0  0  0  0  0
   30.9001   42.4160   40.7256 H   0  0  0  0  0  0  0  0  0  0  0  0
   32.6786   41.5969   40.2327 C   0  0  0  0  0  0  0  0  0  0  0  0
   34.0834   42.2974   40.3782 C   0  0  0  0  0  0  0  0  0  0  0  0
   34.5886   42.1853   41.8906 C   0  0  0  0  0  0  0  0  0  0  0  0
   33.8295   41.1586   42.7025 C   0  0  0  0  0  0  0  0  0  0  0  0
   34.5116   40.8087   43.9934 N   0  0  0  0  0  0  0  0  0  0  0  0
   33.6891   40.8611   45.2425 C   0  0  0  0  0  0  0  0  0  0  0  0
   32.5028   41.1847   45.1763 O   0  0  0  0  0  0  0  0  0  0  0  0
   35.4625   40.5548   44.0172 H   0  0  0  0  0  0  0  0  0  0  0  0
   34.4137   40.5127   46.5871 C   0  0  0  0  0  0  0  0  0  0  0  0
   34.9250   39.0813   46.6640 C   0  0  0  0  0  0  0  0  0  0  0  0
   34.0837   37.8693   47.7337 S   0  0  0  0  0  0  0  0  0  0  0  0
   34.2317   38.2339   49.0356 H   0  0  0  0  0  0  0  0  0  0  0  0
  4  5  1  0  0  0
  4  6  2  0  0  0
  4 10  1  0  0  0
  5 13  2  0  0  0
  6 14  1  0  0  0
  6  7  1  0  0  0
 14 15  1  0  0  0
 14 16  1  0  0  0
  7  8  2  0  0  0
  8  9  1  0  0  0
  9 10  2  0  0  0
 10 11  1  0  0  0
 11 12  2  0  0  0
 11  1  1  0  0  0
 12 13  1  0  0  0
  1 17  1  0  0  0
  1  2  2  0  0  0
  1  3  2  0  0  0
 17 19  1  0  0  0
 19 20  1  0  0  0
 20 21  1  0  0  0
 21 22  1  0  0  0
 22 23  1  0  0  0
 23 24  1  0  0  0
 24 25  2  0  0  0
 24 27  1  0  0  0
 27 28  1  0  0  0
 28 29  1  0  0  0
 17 18  1  0  0  0
 23 26  1  0  0  0
 29 30  1  0  0  0
M  END
> <minimizedAffinity>
-7.08878

$$$$
