1MMR_SRS_A_269


 37 39  0  0  0  0  0  0  0  0999 V2000
   49.6130  -37.2796   46.4161 C   0  0  0  0  0  0  0  0  0  0  0  0
   49.8055  -35.7842   46.2224 C   0  0  0  0  0  0  0  0  0  0  0  0
   48.8939  -34.9883   46.4532 O   0  0  0  0  0  0  0  0  0  0  0  0
   50.9958  -35.3843   45.8007 N   0  0  0  0  0  0  0  0  0  0  0  0
   51.3225  -33.9814   45.5223 C   0  0  0  0  0  0  0  0  0  0  0  0
   52.5680  -33.9643   44.5873 C   0  0  0  0  0  0  0  0  0  0  0  0
   52.2698  -33.4421   43.1758 C   0  0  0  0  0  0  0  0  0  0  0  0
   51.7513  -34.5216   42.2510 C   0  0  0  0  0  0  0  0  0  0  0  0
   50.5340  -34.0698   41.4313 C   0  0  0  0  0  0  0  0  0  0  0  0
   49.7208  -35.2961   40.9525 C   0  0  0  0  0  0  0  0  0  0  0  0
   49.6701  -36.3734   41.9724 N   0  0  0  0  0  0  0  0  0  0  0  0
   48.7708  -37.8732   45.2703 C   0  0  0  0  0  0  0  0  0  0  0  0
   49.3084  -37.5203   43.9206 C   0  0  0  0  0  0  0  0  0  0  0  0
   49.0389  -36.3547   43.1715 C   0  0  0  0  0  0  0  0  0  0  0  0
   50.1600  -38.2772   43.0990 C   0  0  0  0  0  0  0  0  0  0  0  0
   50.3609  -37.5366   41.8987 C   0  0  0  0  0  0  0  0  0  0  0  0
   50.7730  -39.5218   43.2696 C   0  0  0  0  0  0  0  0  0  0  0  0
   51.1763  -38.0485   40.8745 C   0  0  0  0  0  0  0  0  0  0  0  0
   51.5778  -40.0269   42.2452 C   0  0  0  0  0  0  0  0  0  0  0  0
   51.7800  -39.2997   41.0578 C   0  0  0  0  0  0  0  0  0  0  0  0
   51.6966  -36.0628   45.6673 H   0  0  0  0  0  0  0  0  0  0  0  0
   49.6138  -38.0418   48.7251 C   0  0  0  0  0  0  0  0  0  0  0  0
   50.8188  -38.2829   48.6430 O   0  0  0  0  0  0  0  0  0  0  0  0
   48.9492  -37.5362   47.6877 N   0  0  0  0  0  0  0  0  0  0  0  0
   47.9907  -37.3318   47.7818 H   0  0  0  0  0  0  0  0  0  0  0  0
   48.8564  -38.2509   50.0327 C   0  0  0  0  0  0  0  0  0  0  0  0
   49.3770  -39.4089   50.8909 C   0  0  0  0  0  0  0  0  0  0  0  0
   48.5792  -40.9309   50.5933 S   0  0  0  0  0  0  0  0  0  0  0  0
   48.2474  -41.8877   51.8342 N   0  0  0  0  0  0  0  0  0  0  0  0
   49.7758  -41.7601   49.9426 N   0  0  0  0  0  0  0  0  0  0  0  0
   47.2964  -40.7445   49.4148 C   0  0  0  0  0  0  0  0  0  0  0  0
   48.9229  -42.0377   52.5345 H   0  0  0  0  0  0  0  0  0  0  0  0
   50.5827  -41.9570   50.4712 H   0  0  0  0  0  0  0  0  0  0  0  0
   49.0777  -37.0122   50.9332 C   0  0  0  0  0  0  0  0  0  0  0  0
   48.0524  -35.8866   51.1101 C   0  0  0  0  0  0  0  0  0  0  0  0
   46.5978  -36.3068   50.8014 C   0  0  0  0  0  0  0  0  0  0  0  0
   48.1623  -35.4930   52.5965 C   0  0  0  0  0  0  0  0  0  0  0  0
 28 29  2  0  0  0
 28 30  2  0  0  0
 28 27  1  0  0  0
 28 31  1  0  0  0
 27 26  1  0  0  0
 26 22  1  0  0  0
 26 34  1  0  0  0
 22 23  2  0  0  0
 22 24  1  0  0  0
 24  1  1  0  0  0
  1  2  1  0  0  0
  1 12  1  0  0  0
  2  3  2  0  0  0
  2  4  1  0  0  0
  4  5  1  0  0  0
  5  6  1  0  0  0
  6  7  1  0  0  0
  7  8  1  0  0  0
  8  9  1  0  0  0
  9 10  1  0  0  0
 10 11  1  0  0  0
 11 14  1  0  0  0
 11 16  1  0  0  0
 34 35  1  0  0  0
 35 36  1  0  0  0
 35 37  1  0  0  0
 12 13  1  0  0  0
 13 14  2  0  0  0
 13 15  1  0  0  0
 15 16  2  0  0  0
 15 17  1  0  0  0
 16 18  1  0  0  0
 17 19  2  0  0  0
 18 20  2  0  0  0
 19 20  1  0  0  0
 29 32  1  0  0  0
 30 33  1  0  0  0
 24 25  1  0  0  0
  4 21  1  0  0  0
M  END
> <minimizedAffinity>
-9.18577

$$$$
1MMR_SRS_A_269


 37 39  0  0  0  0  0  0  0  0999 V2000
   49.5702  -37.9373   46.8536 C   0  0  0  0  0  0  0  0  0  0  0  0
   49.6340  -36.4264   46.6992 C   0  0  0  0  0  0  0  0  0  0  0  0
   48.6588  -35.7173   46.9526 O   0  0  0  0  0  0  0  0  0  0  0  0
   50.7841  -35.9157   46.2861 N   0  0  0  0  0  0  0  0  0  0  0  0
   50.9891  -34.4832   46.0444 C   0  0  0  0  0  0  0  0  0  0  0  0
   52.2248  -34.3356   45.1078 C   0  0  0  0  0  0  0  0  0  0  0  0
   51.8775  -33.8039   43.7112 C   0  0  0  0  0  0  0  0  0  0  0  0
   51.4491  -34.8991   42.7591 C   0  0  0  0  0  0  0  0  0  0  0  0
   50.1945  -34.5313   41.9538 C   0  0  0  0  0  0  0  0  0  0  0  0
   49.4867  -35.8095   41.4442 C   0  0  0  0  0  0  0  0  0  0  0  0
   49.5320  -36.9135   42.4354 N   0  0  0  0  0  0  0  0  0  0  0  0
   48.7770  -38.5703   45.6941 C   0  0  0  0  0  0  0  0  0  0  0  0
   49.2771  -38.1377   44.3532 C   0  0  0  0  0  0  0  0  0  0  0  0
   48.9064  -36.9801   43.6357 C   0  0  0  0  0  0  0  0  0  0  0  0
   50.1868  -38.7974   43.5104 C   0  0  0  0  0  0  0  0  0  0  0  0
   50.3190  -38.0113   42.3298 C   0  0  0  0  0  0  0  0  0  0  0  0
   50.9041  -39.9894   43.6470 C   0  0  0  0  0  0  0  0  0  0  0  0
   51.1709  -38.4248   41.2909 C   0  0  0  0  0  0  0  0  0  0  0  0
   51.7448  -40.3971   42.6081 C   0  0  0  0  0  0  0  0  0  0  0  0
   51.8796  -39.6245   41.4400 C   0  0  0  0  0  0  0  0  0  0  0  0
   51.5396  -36.5282   46.1336 H   0  0  0  0  0  0  0  0  0  0  0  0
   49.6232  -38.8610   49.1023 C   0  0  0  0  0  0  0  0  0  0  0  0
   50.8254  -39.0966   48.9750 O   0  0  0  0  0  0  0  0  0  0  0  0
   48.9357  -38.2828   48.1193 N   0  0  0  0  0  0  0  0  0  0  0  0
   47.9803  -38.0848   48.2501 H   0  0  0  0  0  0  0  0  0  0  0  0
   48.8962  -39.1615   50.4093 C   0  0  0  0  0  0  0  0  0  0  0  0
   47.6749  -38.2749   50.6760 C   0  0  0  0  0  0  0  0  0  0  0  0
   48.0616  -36.7141   51.3513 S   0  0  0  0  0  0  0  0  0  0  0  0
   46.9063  -35.8770   52.0794 N   0  0  0  0  0  0  0  0  0  0  0  0
   48.2024  -35.8511   50.0179 N   0  0  0  0  0  0  0  0  0  0  0  0
   49.6049  -36.7560   52.1793 C   0  0  0  0  0  0  0  0  0  0  0  0
   46.0135  -35.8112   51.6699 H   0  0  0  0  0  0  0  0  0  0  0  0
   47.4238  -35.7245   49.4289 H   0  0  0  0  0  0  0  0  0  0  0  0
   48.2921  -40.5833   50.3210 C   0  0  0  0  0  0  0  0  0  0  0  0
   49.1210  -41.8716   50.3711 C   0  0  0  0  0  0  0  0  0  0  0  0
   48.6135  -42.9063   51.4004 C   0  0  0  0  0  0  0  0  0  0  0  0
   49.0003  -42.4650   48.9534 C   0  0  0  0  0  0  0  0  0  0  0  0
 28 29  2  0  0  0
 28 30  2  0  0  0
 28 27  1  0  0  0
 28 31  1  0  0  0
 27 26  1  0  0  0
 26 22  1  0  0  0
 26 34  1  0  0  0
 22 23  2  0  0  0
 22 24  1  0  0  0
 24  1  1  0  0  0
  1  2  1  0  0  0
  1 12  1  0  0  0
  2  3  2  0  0  0
  2  4  1  0  0  0
  4  5  1  0  0  0
  5  6  1  0  0  0
  6  7  1  0  0  0
  7  8  1  0  0  0
  8  9  1  0  0  0
  9 10  1  0  0  0
 10 11  1  0  0  0
 11 14  1  0  0  0
 11 16  1  0  0  0
 34 35  1  0  0  0
 35 36  1  0  0  0
 35 37  1  0  0  0
 12 13  1  0  0  0
 13 14  2  0  0  0
 13 15  1  0  0  0
 15 16  2  0  0  0
 15 17  1  0  0  0
 16 18  1  0  0  0
 17 19  2  0  0  0
 18 20  2  0  0  0
 19 20  1  0  0  0
 29 32  1  0  0  0
 30 33  1  0  0  0
 24 25  1  0  0  0
  4 21  1  0  0  0
M  END
> <minimizedAffinity>
-8.55512

$$$$
1MMR_SRS_A_269


 37 39  0  0  0  0  0  0  0  0999 V2000
   48.7491  -37.7331   46.6172 C   0  0  0  0  0  0  0  0  0  0  0  0
   48.7459  -38.8743   45.6131 C   0  0  0  0  0  0  0  0  0  0  0  0
   49.5759  -39.7827   45.6769 O   0  0  0  0  0  0  0  0  0  0  0  0
   47.8095  -38.8444   44.6769 N   0  0  0  0  0  0  0  0  0  0  0  0
   47.7036  -39.8467   43.6108 C   0  0  0  0  0  0  0  0  0  0  0  0
   46.8663  -39.2201   42.4566 C   0  0  0  0  0  0  0  0  0  0  0  0
   47.6744  -38.9699   41.1766 C   0  0  0  0  0  0  0  0  0  0  0  0
   48.4019  -37.6433   41.1952 C   0  0  0  0  0  0  0  0  0  0  0  0
   49.8579  -37.7555   40.7207 C   0  0  0  0  0  0  0  0  0  0  0  0
   50.6949  -36.5726   41.2633 C   0  0  0  0  0  0  0  0  0  0  0  0
   50.3086  -36.1946   42.6458 N   0  0  0  0  0  0  0  0  0  0  0  0
   49.8915  -36.7444   46.3144 C   0  0  0  0  0  0  0  0  0  0  0  0
   49.8846  -36.2771   44.8942 C   0  0  0  0  0  0  0  0  0  0  0  0
   50.4825  -36.9103   43.7833 C   0  0  0  0  0  0  0  0  0  0  0  0
   49.3193  -35.1039   44.3678 C   0  0  0  0  0  0  0  0  0  0  0  0
   49.6034  -35.0846   42.9720 C   0  0  0  0  0  0  0  0  0  0  0  0
   48.5960  -34.0612   44.9538 C   0  0  0  0  0  0  0  0  0  0  0  0
   49.1604  -34.0186   42.1700 C   0  0  0  0  0  0  0  0  0  0  0  0
   48.1634  -33.0020   44.1517 C   0  0  0  0  0  0  0  0  0  0  0  0
   48.4409  -32.9779   42.7725 C   0  0  0  0  0  0  0  0  0  0  0  0
   47.1513  -38.1125   44.6974 H   0  0  0  0  0  0  0  0  0  0  0  0
   48.7080  -37.4883   49.0361 C   0  0  0  0  0  0  0  0  0  0  0  0
   48.3569  -36.3146   48.9093 O   0  0  0  0  0  0  0  0  0  0  0  0
   48.9082  -38.2574   47.9675 N   0  0  0  0  0  0  0  0  0  0  0  0
   49.1687  -39.1986   48.0923 H   0  0  0  0  0  0  0  0  0  0  0  0
   48.8619  -38.1193   50.4164 C   0  0  0  0  0  0  0  0  0  0  0  0
   49.6111  -39.4562   50.4244 C   0  0  0  0  0  0  0  0  0  0  0  0
   48.6058  -40.8382   50.0764 S   0  0  0  0  0  0  0  0  0  0  0  0
   47.0876  -40.5984   49.6262 N   0  0  0  0  0  0  0  0  0  0  0  0
   48.3524  -41.3878   51.5517 N   0  0  0  0  0  0  0  0  0  0  0  0
   49.4897  -42.0382   49.1556 C   0  0  0  0  0  0  0  0  0  0  0  0
   46.5320  -39.9381   50.1002 H   0  0  0  0  0  0  0  0  0  0  0  0
   47.8658  -40.8359   52.2058 H   0  0  0  0  0  0  0  0  0  0  0  0
   49.7604  -37.2019   51.2797 C   0  0  0  0  0  0  0  0  0  0  0  0
   49.2429  -36.3327   52.4313 C   0  0  0  0  0  0  0  0  0  0  0  0
   49.8242  -34.9012   52.4492 C   0  0  0  0  0  0  0  0  0  0  0  0
   47.7196  -36.2591   52.2064 C   0  0  0  0  0  0  0  0  0  0  0  0
 28 29  2  0  0  0
 28 30  2  0  0  0
 28 27  1  0  0  0
 28 31  1  0  0  0
 27 26  1  0  0  0
 26 22  1  0  0  0
 26 34  1  0  0  0
 22 23  2  0  0  0
 22 24  1  0  0  0
 24  1  1  0  0  0
  1  2  1  0  0  0
  1 12  1  0  0  0
  2  3  2  0  0  0
  2  4  1  0  0  0
  4  5  1  0  0  0
  5  6  1  0  0  0
  6  7  1  0  0  0
  7  8  1  0  0  0
  8  9  1  0  0  0
  9 10  1  0  0  0
 10 11  1  0  0  0
 11 14  1  0  0  0
 11 16  1  0  0  0
 34 35  1  0  0  0
 35 36  1  0  0  0
 35 37  1  0  0  0
 12 13  1  0  0  0
 13 14  2  0  0  0
 13 15  1  0  0  0
 15 16  2  0  0  0
 15 17  1  0  0  0
 16 18  1  0  0  0
 17 19  2  0  0  0
 18 20  2  0  0  0
 19 20  1  0  0  0
 29 32  1  0  0  0
 30 33  1  0  0  0
 24 25  1  0  0  0
  4 21  1  0  0  0
M  END
> <minimizedAffinity>
-7.56239

$$$$
1MMR_SRS_A_269


 37 39  0  0  0  0  0  0  0  0999 V2000
   49.5263  -37.5683   46.0071 C   0  0  0  0  0  0  0  0  0  0  0  0
   49.9552  -37.7586   47.4530 C   0  0  0  0  0  0  0  0  0  0  0  0
   51.1447  -37.7413   47.7733 O   0  0  0  0  0  0  0  0  0  0  0  0
   48.9915  -37.9378   48.3438 N   0  0  0  0  0  0  0  0  0  0  0  0
   49.2459  -38.1809   49.7681 C   0  0  0  0  0  0  0  0  0  0  0  0
   47.9693  -38.8407   50.3688 C   0  0  0  0  0  0  0  0  0  0  0  0
   48.1771  -40.2970   50.8049 C   0  0  0  0  0  0  0  0  0  0  0  0
   47.9929  -41.2789   49.6686 C   0  0  0  0  0  0  0  0  0  0  0  0
   49.0989  -42.3428   49.6154 C   0  0  0  0  0  0  0  0  0  0  0  0
   49.2002  -42.9451   48.1936 C   0  0  0  0  0  0  0  0  0  0  0  0
   48.9869  -41.9285   47.1332 N   0  0  0  0  0  0  0  0  0  0  0  0
   49.7914  -38.8460   45.1876 C   0  0  0  0  0  0  0  0  0  0  0  0
   49.2012  -40.0657   45.8195 C   0  0  0  0  0  0  0  0  0  0  0  0
   49.7882  -40.8854   46.8074 C   0  0  0  0  0  0  0  0  0  0  0  0
   47.9650  -40.6743   45.5468 C   0  0  0  0  0  0  0  0  0  0  0  0
   47.8668  -41.8274   46.3776 C   0  0  0  0  0  0  0  0  0  0  0  0
   46.9271  -40.3481   44.6692 C   0  0  0  0  0  0  0  0  0  0  0  0
   46.7270  -42.6484   46.3240 C   0  0  0  0  0  0  0  0  0  0  0  0
   45.7995  -41.1716   44.6172 C   0  0  0  0  0  0  0  0  0  0  0  0
   45.6970  -42.3115   45.4357 C   0  0  0  0  0  0  0  0  0  0  0  0
   48.0574  -37.9062   48.0346 H   0  0  0  0  0  0  0  0  0  0  0  0
   49.8069  -35.2031   45.5174 C   0  0  0  0  0  0  0  0  0  0  0  0
   48.7753  -34.9534   46.1422 O   0  0  0  0  0  0  0  0  0  0  0  0
   50.2535  -36.4534   45.4140 N   0  0  0  0  0  0  0  0  0  0  0  0
   51.0913  -36.6279   44.9273 H   0  0  0  0  0  0  0  0  0  0  0  0
   50.6419  -34.0867   44.8981 C   0  0  0  0  0  0  0  0  0  0  0  0
   50.3063  -33.7785   43.4349 C   0  0  0  0  0  0  0  0  0  0  0  0
   51.2125  -34.7228   42.2821 S   0  0  0  0  0  0  0  0  0  0  0  0
   51.0642  -36.3175   42.2995 N   0  0  0  0  0  0  0  0  0  0  0  0
   52.6788  -34.5947   42.8953 N   0  0  0  0  0  0  0  0  0  0  0  0
   51.1801  -33.9750   40.6982 C   0  0  0  0  0  0  0  0  0  0  0  0
   51.0740  -36.8035   43.1556 H   0  0  0  0  0  0  0  0  0  0  0  0
   52.8738  -34.9646   43.7865 H   0  0  0  0  0  0  0  0  0  0  0  0
   50.3106  -32.7622   45.6265 C   0  0  0  0  0  0  0  0  0  0  0  0
   51.3119  -31.9833   46.4868 C   0  0  0  0  0  0  0  0  0  0  0  0
   52.7850  -32.3924   46.2631 C   0  0  0  0  0  0  0  0  0  0  0  0
   51.1238  -30.5128   46.0639 C   0  0  0  0  0  0  0  0  0  0  0  0
 28 29  2  0  0  0
 28 30  2  0  0  0
 28 27  1  0  0  0
 28 31  1  0  0  0
 27 26  1  0  0  0
 26 22  1  0  0  0
 26 34  1  0  0  0
 22 23  2  0  0  0
 22 24  1  0  0  0
 24  1  1  0  0  0
  1  2  1  0  0  0
  1 12  1  0  0  0
  2  3  2  0  0  0
  2  4  1  0  0  0
  4  5  1  0  0  0
  5  6  1  0  0  0
  6  7  1  0  0  0
  7  8  1  0  0  0
  8  9  1  0  0  0
  9 10  1  0  0  0
 10 11  1  0  0  0
 11 14  1  0  0  0
 11 16  1  0  0  0
 34 35  1  0  0  0
 35 36  1  0  0  0
 35 37  1  0  0  0
 12 13  1  0  0  0
 13 14  2  0  0  0
 13 15  1  0  0  0
 15 16  2  0  0  0
 15 17  1  0  0  0
 16 18  1  0  0  0
 17 19  2  0  0  0
 18 20  2  0  0  0
 19 20  1  0  0  0
 29 32  1  0  0  0
 30 33  1  0  0  0
 24 25  1  0  0  0
  4 21  1  0  0  0
M  END
> <minimizedAffinity>
-7.45135

$$$$
1MMR_SRS_A_269


 37 39  0  0  0  0  0  0  0  0999 V2000
   49.0197  -36.0087   46.3226 C   0  0  0  0  0  0  0  0  0  0  0  0
   49.1295  -36.8107   45.0359 C   0  0  0  0  0  0  0  0  0  0  0  0
   49.7290  -37.8865   45.0038 O   0  0  0  0  0  0  0  0  0  0  0  0
   48.5481  -36.2994   43.9613 N   0  0  0  0  0  0  0  0  0  0  0  0
   48.6050  -36.9294   42.6375 C   0  0  0  0  0  0  0  0  0  0  0  0
   48.2867  -35.8319   41.5793 C   0  0  0  0  0  0  0  0  0  0  0  0
   49.4811  -35.4759   40.6845 C   0  0  0  0  0  0  0  0  0  0  0  0
   50.3851  -34.4330   41.3047 C   0  0  0  0  0  0  0  0  0  0  0  0
   51.8740  -34.7898   41.1878 C   0  0  0  0  0  0  0  0  0  0  0  0
   52.6938  -34.0444   42.2680 C   0  0  0  0  0  0  0  0  0  0  0  0
   51.9708  -33.9506   43.5610 N   0  0  0  0  0  0  0  0  0  0  0  0
   50.3527  -35.3041   46.6407 C   0  0  0  0  0  0  0  0  0  0  0  0
   50.8656  -34.4999   45.4894 C   0  0  0  0  0  0  0  0  0  0  0  0
   51.6584  -34.9560   44.4143 C   0  0  0  0  0  0  0  0  0  0  0  0
   50.7023  -33.1259   45.2475 C   0  0  0  0  0  0  0  0  0  0  0  0
   51.4025  -32.8200   44.0452 C   0  0  0  0  0  0  0  0  0  0  0  0
   50.0251  -32.1204   45.9435 C   0  0  0  0  0  0  0  0  0  0  0  0
   51.4201  -31.5060   43.5464 C   0  0  0  0  0  0  0  0  0  0  0  0
   50.0514  -30.8155   45.4448 C   0  0  0  0  0  0  0  0  0  0  0  0
   50.7410  -30.5077   44.2576 C   0  0  0  0  0  0  0  0  0  0  0  0
   48.0527  -35.4538   44.0555 H   0  0  0  0  0  0  0  0  0  0  0  0
   49.5924  -37.5171   48.1418 C   0  0  0  0  0  0  0  0  0  0  0  0
   50.7886  -37.3522   47.8992 O   0  0  0  0  0  0  0  0  0  0  0  0
   48.6608  -36.8872   47.4285 N   0  0  0  0  0  0  0  0  0  0  0  0
   47.7110  -37.0175   47.6527 H   0  0  0  0  0  0  0  0  0  0  0  0
   49.1384  -38.3934   49.3050 C   0  0  0  0  0  0  0  0  0  0  0  0
   49.9532  -39.6784   49.4888 C   0  0  0  0  0  0  0  0  0  0  0  0
   48.9872  -41.0945   49.8098 S   0  0  0  0  0  0  0  0  0  0  0  0
   47.3930  -40.9492   49.8636 N   0  0  0  0  0  0  0  0  0  0  0  0
   49.2793  -41.2951   51.3645 N   0  0  0  0  0  0  0  0  0  0  0  0
   49.5934  -42.4789   48.9237 C   0  0  0  0  0  0  0  0  0  0  0  0
   46.9835  -40.1943   50.3448 H   0  0  0  0  0  0  0  0  0  0  0  0
   49.0022  -40.6056   52.0103 H   0  0  0  0  0  0  0  0  0  0  0  0
   49.3829  -37.6244   50.6253 C   0  0  0  0  0  0  0  0  0  0  0  0
   48.5480  -36.4242   51.0857 C   0  0  0  0  0  0  0  0  0  0  0  0
   47.0478  -36.5285   50.7305 C   0  0  0  0  0  0  0  0  0  0  0  0
   48.7065  -36.4077   52.6190 C   0  0  0  0  0  0  0  0  0  0  0  0
 28 29  2  0  0  0
 28 30  2  0  0  0
 28 27  1  0  0  0
 28 31  1  0  0  0
 27 26  1  0  0  0
 26 22  1  0  0  0
 26 34  1  0  0  0
 22 23  2  0  0  0
 22 24  1  0  0  0
 24  1  1  0  0  0
  1  2  1  0  0  0
  1 12  1  0  0  0
  2  3  2  0  0  0
  2  4  1  0  0  0
  4  5  1  0  0  0
  5  6  1  0  0  0
  6  7  1  0  0  0
  7  8  1  0  0  0
  8  9  1  0  0  0
  9 10  1  0  0  0
 10 11  1  0  0  0
 11 14  1  0  0  0
 11 16  1  0  0  0
 34 35  1  0  0  0
 35 36  1  0  0  0
 35 37  1  0  0  0
 12 13  1  0  0  0
 13 14  2  0  0  0
 13 15  1  0  0  0
 15 16  2  0  0  0
 15 17  1  0  0  0
 16 18  1  0  0  0
 17 19  2  0  0  0
 18 20  2  0  0  0
 19 20  1  0  0  0
 29 32  1  0  0  0
 30 33  1  0  0  0
 24 25  1  0  0  0
  4 21  1  0  0  0
M  END
> <minimizedAffinity>
-7.40299

$$$$
1MMR_SRS_A_269


 37 39  0  0  0  0  0  0  0  0999 V2000
   49.5149  -37.3489   46.1233 C   0  0  0  0  0  0  0  0  0  0  0  0
   49.9572  -37.6492   47.5463 C   0  0  0  0  0  0  0  0  0  0  0  0
   51.1486  -37.6372   47.8602 O   0  0  0  0  0  0  0  0  0  0  0  0
   49.0032  -37.9177   48.4249 N   0  0  0  0  0  0  0  0  0  0  0  0
   49.2718  -38.2720   49.8230 C   0  0  0  0  0  0  0  0  0  0  0  0
   48.0109  -39.0011   50.3749 C   0  0  0  0  0  0  0  0  0  0  0  0
   48.2468  -40.4842   50.6891 C   0  0  0  0  0  0  0  0  0  0  0  0
   48.0714  -41.3731   49.4772 C   0  0  0  0  0  0  0  0  0  0  0  0
   49.1951  -42.4094   49.3308 C   0  0  0  0  0  0  0  0  0  0  0  0
   49.2966  -42.8914   47.8639 C   0  0  0  0  0  0  0  0  0  0  0  0
   49.0584  -41.7955   46.8916 N   0  0  0  0  0  0  0  0  0  0  0  0
   49.7961  -38.5504   45.2005 C   0  0  0  0  0  0  0  0  0  0  0  0
   49.2314  -39.8280   45.7336 C   0  0  0  0  0  0  0  0  0  0  0  0
   49.8394  -40.7152   46.6478 C   0  0  0  0  0  0  0  0  0  0  0  0
   48.0039  -40.4340   45.4190 C   0  0  0  0  0  0  0  0  0  0  0  0
   47.9314  -41.6528   46.1531 C   0  0  0  0  0  0  0  0  0  0  0  0
   46.9544  -40.0555   44.5770 C   0  0  0  0  0  0  0  0  0  0  0  0
   46.8055  -42.4866   46.0390 C   0  0  0  0  0  0  0  0  0  0  0  0
   45.8408  -40.8918   44.4641 C   0  0  0  0  0  0  0  0  0  0  0  0
   45.7636  -42.0964   45.1871 C   0  0  0  0  0  0  0  0  0  0  0  0
   48.0664  -37.8774   48.1246 H   0  0  0  0  0  0  0  0  0  0  0  0
   49.6117  -34.9955   45.5195 C   0  0  0  0  0  0  0  0  0  0  0  0
   48.4410  -34.8578   45.8764 O   0  0  0  0  0  0  0  0  0  0  0  0
   50.2187  -36.1766   45.6194 N   0  0  0  0  0  0  0  0  0  0  0  0
   51.1613  -36.2593   45.3474 H   0  0  0  0  0  0  0  0  0  0  0  0
   50.4254  -33.8082   45.0141 C   0  0  0  0  0  0  0  0  0  0  0  0
   49.7539  -32.4454   45.2151 C   0  0  0  0  0  0  0  0  0  0  0  0
   48.8407  -31.8910   43.8365 S   0  0  0  0  0  0  0  0  0  0  0  0
   48.4479  -30.3413   43.7395 N   0  0  0  0  0  0  0  0  0  0  0  0
   47.4067  -32.4985   44.1787 N   0  0  0  0  0  0  0  0  0  0  0  0
   49.4385  -32.6161   42.3580 C   0  0  0  0  0  0  0  0  0  0  0  0
   48.1049  -29.8699   44.5328 H   0  0  0  0  0  0  0  0  0  0  0  0
   46.9241  -32.1984   44.9827 H   0  0  0  0  0  0  0  0  0  0  0  0
   51.7151  -33.6986   45.8621 C   0  0  0  0  0  0  0  0  0  0  0  0
   53.1190  -33.5322   45.2698 C   0  0  0  0  0  0  0  0  0  0  0  0
   53.1298  -33.2055   43.7596 C   0  0  0  0  0  0  0  0  0  0  0  0
   53.7302  -32.3507   46.0489 C   0  0  0  0  0  0  0  0  0  0  0  0
 28 29  2  0  0  0
 28 30  2  0  0  0
 28 27  1  0  0  0
 28 31  1  0  0  0
 27 26  1  0  0  0
 26 22  1  0  0  0
 26 34  1  0  0  0
 22 23  2  0  0  0
 22 24  1  0  0  0
 24  1  1  0  0  0
  1  2  1  0  0  0
  1 12  1  0  0  0
  2  3  2  0  0  0
  2  4  1  0  0  0
  4  5  1  0  0  0
  5  6  1  0  0  0
  6  7  1  0  0  0
  7  8  1  0  0  0
  8  9  1  0  0  0
  9 10  1  0  0  0
 10 11  1  0  0  0
 11 14  1  0  0  0
 11 16  1  0  0  0
 34 35  1  0  0  0
 35 36  1  0  0  0
 35 37  1  0  0  0
 12 13  1  0  0  0
 13 14  2  0  0  0
 13 15  1  0  0  0
 15 16  2  0  0  0
 15 17  1  0  0  0
 16 18  1  0  0  0
 17 19  2  0  0  0
 18 20  2  0  0  0
 19 20  1  0  0  0
 29 32  1  0  0  0
 30 33  1  0  0  0
 24 25  1  0  0  0
  4 21  1  0  0  0
M  END
> <minimizedAffinity>
-7.34676

$$$$
1MMR_SRS_A_269


 37 39  0  0  0  0  0  0  0  0999 V2000
   50.1225  -35.4428   45.7586 C   0  0  0  0  0  0  0  0  0  0  0  0
   49.4832  -35.5798   44.3864 C   0  0  0  0  0  0  0  0  0  0  0  0
   49.7631  -36.5217   43.6431 O   0  0  0  0  0  0  0  0  0  0  0  0
   48.6133  -34.6445   44.0360 N   0  0  0  0  0  0  0  0  0  0  0  0
   47.9482  -34.6117   42.7287 C   0  0  0  0  0  0  0  0  0  0  0  0
   47.4401  -33.1580   42.4949 C   0  0  0  0  0  0  0  0  0  0  0  0
   48.1664  -32.4286   41.3573 C   0  0  0  0  0  0  0  0  0  0  0  0
   49.4500  -31.7689   41.8120 C   0  0  0  0  0  0  0  0  0  0  0  0
   50.6226  -32.0235   40.8539 C   0  0  0  0  0  0  0  0  0  0  0  0
   51.9709  -31.8371   41.5898 C   0  0  0  0  0  0  0  0  0  0  0  0
   51.9267  -32.3402   42.9856 N   0  0  0  0  0  0  0  0  0  0  0  0
   51.5760  -34.9462   45.6352 C   0  0  0  0  0  0  0  0  0  0  0  0
   51.6904  -33.7063   44.8076 C   0  0  0  0  0  0  0  0  0  0  0  0
   51.8138  -33.6243   43.4039 C   0  0  0  0  0  0  0  0  0  0  0  0
   51.7347  -32.3716   45.2430 C   0  0  0  0  0  0  0  0  0  0  0  0
   51.8840  -31.5524   44.0871 C   0  0  0  0  0  0  0  0  0  0  0  0
   51.6631  -31.7916   46.5128 C   0  0  0  0  0  0  0  0  0  0  0  0
   51.9607  -30.1543   44.2106 C   0  0  0  0  0  0  0  0  0  0  0  0
   51.7455  -30.4016   46.6286 C   0  0  0  0  0  0  0  0  0  0  0  0
   51.8926  -29.5877   45.4904 C   0  0  0  0  0  0  0  0  0  0  0  0
   48.4023  -33.9355   44.6856 H   0  0  0  0  0  0  0  0  0  0  0  0
   49.3636  -36.9203   47.5345 C   0  0  0  0  0  0  0  0  0  0  0  0
   48.6472  -36.0203   47.9744 O   0  0  0  0  0  0  0  0  0  0  0  0
   50.1069  -36.7275   46.4465 N   0  0  0  0  0  0  0  0  0  0  0  0
   50.6565  -37.4672   46.1001 H   0  0  0  0  0  0  0  0  0  0  0  0
   49.3751  -38.3032   48.1784 C   0  0  0  0  0  0  0  0  0  0  0  0
   50.0949  -39.3801   47.3593 C   0  0  0  0  0  0  0  0  0  0  0  0
   49.4707  -40.9913   47.5962 S   0  0  0  0  0  0  0  0  0  0  0  0
   49.9314  -41.8186   48.8880 N   0  0  0  0  0  0  0  0  0  0  0  0
   50.2879  -41.7831   46.4792 N   0  0  0  0  0  0  0  0  0  0  0  0
   47.7609  -41.0608   47.2208 C   0  0  0  0  0  0  0  0  0  0  0  0
   50.8783  -41.8238   49.1573 H   0  0  0  0  0  0  0  0  0  0  0  0
   51.2689  -41.8435   46.5371 H   0  0  0  0  0  0  0  0  0  0  0  0
   50.2058  -38.2322   49.4821 C   0  0  0  0  0  0  0  0  0  0  0  0
   49.6102  -38.3762   50.8870 C   0  0  0  0  0  0  0  0  0  0  0  0
   49.9900  -37.2303   51.8515 C   0  0  0  0  0  0  0  0  0  0  0  0
   48.0849  -38.3669   50.6637 C   0  0  0  0  0  0  0  0  0  0  0  0
 28 29  2  0  0  0
 28 30  2  0  0  0
 28 27  1  0  0  0
 28 31  1  0  0  0
 27 26  1  0  0  0
 26 22  1  0  0  0
 26 34  1  0  0  0
 22 23  2  0  0  0
 22 24  1  0  0  0
 24  1  1  0  0  0
  1  2  1  0  0  0
  1 12  1  0  0  0
  2  3  2  0  0  0
  2  4  1  0  0  0
  4  5  1  0  0  0
  5  6  1  0  0  0
  6  7  1  0  0  0
  7  8  1  0  0  0
  8  9  1  0  0  0
  9 10  1  0  0  0
 10 11  1  0  0  0
 11 14  1  0  0  0
 11 16  1  0  0  0
 34 35  1  0  0  0
 35 36  1  0  0  0
 35 37  1  0  0  0
 12 13  1  0  0  0
 13 14  2  0  0  0
 13 15  1  0  0  0
 15 16  2  0  0  0
 15 17  1  0  0  0
 16 18  1  0  0  0
 17 19  2  0  0  0
 18 20  2  0  0  0
 19 20  1  0  0  0
 29 32  1  0  0  0
 30 33  1  0  0  0
 24 25  1  0  0  0
  4 21  1  0  0  0
M  END
> <minimizedAffinity>
-6.91723

$$$$
1MMR_SRS_A_269


 37 39  0  0  0  0  0  0  0  0999 V2000
   49.5308  -37.5178   46.0434 C   0  0  0  0  0  0  0  0  0  0  0  0
   49.9627  -37.7240   47.4862 C   0  0  0  0  0  0  0  0  0  0  0  0
   51.1523  -37.6987   47.8060 O   0  0  0  0  0  0  0  0  0  0  0  0
   49.0016  -37.9259   48.3750 N   0  0  0  0  0  0  0  0  0  0  0  0
   49.2596  -38.1864   49.7956 C   0  0  0  0  0  0  0  0  0  0  0  0
   47.9904  -38.8681   50.3876 C   0  0  0  0  0  0  0  0  0  0  0  0
   48.2139  -40.3280   50.8029 C   0  0  0  0  0  0  0  0  0  0  0  0
   48.0392  -41.2957   49.6530 C   0  0  0  0  0  0  0  0  0  0  0  0
   49.1563  -42.3471   49.5841 C   0  0  0  0  0  0  0  0  0  0  0  0
   49.2629  -42.9281   48.1539 C   0  0  0  0  0  0  0  0  0  0  0  0
   49.0381  -41.8990   47.1081 N   0  0  0  0  0  0  0  0  0  0  0  0
   49.8087  -38.7809   45.2058 C   0  0  0  0  0  0  0  0  0  0  0  0
   49.2319  -40.0156   45.8207 C   0  0  0  0  0  0  0  0  0  0  0  0
   49.8282  -40.8429   46.7966 C   0  0  0  0  0  0  0  0  0  0  0  0
   48.0019  -40.6333   45.5402 C   0  0  0  0  0  0  0  0  0  0  0  0
   47.9165  -41.7990   46.3546 C   0  0  0  0  0  0  0  0  0  0  0  0
   46.9601  -40.3056   44.6678 C   0  0  0  0  0  0  0  0  0  0  0  0
   46.7854  -42.6311   46.2901 C   0  0  0  0  0  0  0  0  0  0  0  0
   45.8412  -41.1402   44.6049 C   0  0  0  0  0  0  0  0  0  0  0  0
   45.7512  -42.2925   45.4072 C   0  0  0  0  0  0  0  0  0  0  0  0
   48.0670  -37.8997   48.0668 H   0  0  0  0  0  0  0  0  0  0  0  0
   49.6597  -35.2004   45.3186 C   0  0  0  0  0  0  0  0  0  0  0  0
   48.5000  -35.0210   45.6925 O   0  0  0  0  0  0  0  0  0  0  0  0
   50.2458  -36.3870   45.4657 N   0  0  0  0  0  0  0  0  0  0  0  0
   51.1804  -36.5027   45.1786 H   0  0  0  0  0  0  0  0  0  0  0  0
   50.4849  -34.0570   44.7363 C   0  0  0  0  0  0  0  0  0  0  0  0
   51.9654  -34.0755   45.1321 C   0  0  0  0  0  0  0  0  0  0  0  0
   52.5854  -32.5277   45.6432 S   0  0  0  0  0  0  0  0  0  0  0  0
   54.0830  -32.4397   46.2043 N   0  0  0  0  0  0  0  0  0  0  0  0
   51.7874  -32.3358   47.0104 N   0  0  0  0  0  0  0  0  0  0  0  0
   52.1207  -31.2662   44.5200 C   0  0  0  0  0  0  0  0  0  0  0  0
   54.4112  -33.1163   46.8397 H   0  0  0  0  0  0  0  0  0  0  0  0
   51.9300  -32.9630   47.7557 H   0  0  0  0  0  0  0  0  0  0  0  0
   50.5254  -34.2133   43.1973 C   0  0  0  0  0  0  0  0  0  0  0  0
   51.5945  -35.0132   42.4446 C   0  0  0  0  0  0  0  0  0  0  0  0
   51.1190  -36.4034   41.9661 C   0  0  0  0  0  0  0  0  0  0  0  0
   51.9365  -34.1440   41.2183 C   0  0  0  0  0  0  0  0  0  0  0  0
 28 29  2  0  0  0
 28 30  2  0  0  0
 28 27  1  0  0  0
 28 31  1  0  0  0
 27 26  1  0  0  0
 26 22  1  0  0  0
 26 34  1  0  0  0
 22 23  2  0  0  0
 22 24  1  0  0  0
 24  1  1  0  0  0
  1  2  1  0  0  0
  1 12  1  0  0  0
  2  3  2  0  0  0
  2  4  1  0  0  0
  4  5  1  0  0  0
  5  6  1  0  0  0
  6  7  1  0  0  0
  7  8  1  0  0  0
  8  9  1  0  0  0
  9 10  1  0  0  0
 10 11  1  0  0  0
 11 14  1  0  0  0
 11 16  1  0  0  0
 34 35  1  0  0  0
 35 36  1  0  0  0
 35 37  1  0  0  0
 12 13  1  0  0  0
 13 14  2  0  0  0
 13 15  1  0  0  0
 15 16  2  0  0  0
 15 17  1  0  0  0
 16 18  1  0  0  0
 17 19  2  0  0  0
 18 20  2  0  0  0
 19 20  1  0  0  0
 29 32  1  0  0  0
 30 33  1  0  0  0
 24 25  1  0  0  0
  4 21  1  0  0  0
M  END
> <minimizedAffinity>
-6.88696

$$$$
1MMR_SRS_A_269


 37 39  0  0  0  0  0  0  0  0999 V2000
   49.8337  -35.1486   45.7517 C   0  0  0  0  0  0  0  0  0  0  0  0
   50.9551  -34.1500   45.9879 C   0  0  0  0  0  0  0  0  0  0  0  0
   50.9173  -33.3597   46.9324 O   0  0  0  0  0  0  0  0  0  0  0  0
   51.9687  -34.1765   45.1357 N   0  0  0  0  0  0  0  0  0  0  0  0
   53.1020  -33.2471   45.2024 C   0  0  0  0  0  0  0  0  0  0  0  0
   53.7829  -33.2332   43.8016 C   0  0  0  0  0  0  0  0  0  0  0  0
   53.6382  -31.8974   43.0611 C   0  0  0  0  0  0  0  0  0  0  0  0
   52.3412  -31.7953   42.2885 C   0  0  0  0  0  0  0  0  0  0  0  0
   51.6337  -30.4471   42.4876 C   0  0  0  0  0  0  0  0  0  0  0  0
   50.1247  -30.5779   42.1711 C   0  0  0  0  0  0  0  0  0  0  0  0
   49.5629  -31.8749   42.6243 N   0  0  0  0  0  0  0  0  0  0  0  0
   48.5995  -34.4494   45.1499 C   0  0  0  0  0  0  0  0  0  0  0  0
   48.9322  -33.6421   43.9362 C   0  0  0  0  0  0  0  0  0  0  0  0
   49.3890  -32.3071   43.8969 C   0  0  0  0  0  0  0  0  0  0  0  0
   48.8310  -34.0190   42.5869 C   0  0  0  0  0  0  0  0  0  0  0  0
   49.2277  -32.8983   41.8019 C   0  0  0  0  0  0  0  0  0  0  0  0
   48.4370  -35.2086   41.9676 C   0  0  0  0  0  0  0  0  0  0  0  0
   49.2272  -32.9763   40.3985 C   0  0  0  0  0  0  0  0  0  0  0  0
   48.4337  -35.2773   40.5721 C   0  0  0  0  0  0  0  0  0  0  0  0
   48.8249  -34.1737   39.7918 C   0  0  0  0  0  0  0  0  0  0  0  0
   51.9612  -34.8540   44.4215 H   0  0  0  0  0  0  0  0  0  0  0  0
   49.1885  -37.0902   47.0657 C   0  0  0  0  0  0  0  0  0  0  0  0
   49.2661  -37.7950   46.0586 O   0  0  0  0  0  0  0  0  0  0  0  0
   49.4630  -35.7884   47.0074 N   0  0  0  0  0  0  0  0  0  0  0  0
   49.4145  -35.2477   47.8287 H   0  0  0  0  0  0  0  0  0  0  0  0
   48.8408  -37.6926   48.4234 C   0  0  0  0  0  0  0  0  0  0  0  0
   49.8416  -38.7364   48.9310 C   0  0  0  0  0  0  0  0  0  0  0  0
   49.1019  -40.1788   49.5743 S   0  0  0  0  0  0  0  0  0  0  0  0
   47.5361  -40.1625   49.9112 N   0  0  0  0  0  0  0  0  0  0  0  0
   49.6840  -40.1626   51.0587 N   0  0  0  0  0  0  0  0  0  0  0  0
   49.6836  -41.6052   48.7400 C   0  0  0  0  0  0  0  0  0  0  0  0
   47.1413  -39.3915   50.3790 H   0  0  0  0  0  0  0  0  0  0  0  0
   49.4548  -39.4252   51.6693 H   0  0  0  0  0  0  0  0  0  0  0  0
   48.9177  -36.5759   49.4917 C   0  0  0  0  0  0  0  0  0  0  0  0
   48.3666  -36.7121   50.9155 C   0  0  0  0  0  0  0  0  0  0  0  0
   49.3116  -36.1679   52.0103 C   0  0  0  0  0  0  0  0  0  0  0  0
   47.0672  -35.8828   50.9086 C   0  0  0  0  0  0  0  0  0  0  0  0
 28 29  2  0  0  0
 28 30  2  0  0  0
 28 27  1  0  0  0
 28 31  1  0  0  0
 27 26  1  0  0  0
 26 22  1  0  0  0
 26 34  1  0  0  0
 22 23  2  0  0  0
 22 24  1  0  0  0
 24  1  1  0  0  0
  1  2  1  0  0  0
  1 12  1  0  0  0
  2  3  2  0  0  0
  2  4  1  0  0  0
  4  5  1  0  0  0
  5  6  1  0  0  0
  6  7  1  0  0  0
  7  8  1  0  0  0
  8  9  1  0  0  0
  9 10  1  0  0  0
 10 11  1  0  0  0
 11 14  1  0  0  0
 11 16  1  0  0  0
 34 35  1  0  0  0
 35 36  1  0  0  0
 35 37  1  0  0  0
 12 13  1  0  0  0
 13 14  2  0  0  0
 13 15  1  0  0  0
 15 16  2  0  0  0
 15 17  1  0  0  0
 16 18  1  0  0  0
 17 19  2  0  0  0
 18 20  2  0  0  0
 19 20  1  0  0  0
 29 32  1  0  0  0
 30 33  1  0  0  0
 24 25  1  0  0  0
  4 21  1  0  0  0
M  END
> <minimizedAffinity>
-6.76358

$$$$
1MMR_SRS_A_269


 37 39  0  0  0  0  0  0  0  0999 V2000
   48.9760  -36.7980   45.3900 C   0  0  0  0  0  0  0  0  0  0  0  0
   49.4546  -36.5583   46.8127 C   0  0  0  0  0  0  0  0  0  0  0  0
   50.6263  -36.2605   47.0501 O   0  0  0  0  0  0  0  0  0  0  0  0
   48.5531  -36.6804   47.7753 N   0  0  0  0  0  0  0  0  0  0  0  0
   48.8694  -36.5263   49.1997 C   0  0  0  0  0  0  0  0  0  0  0  0
   47.7424  -37.2312   50.0114 C   0  0  0  0  0  0  0  0  0  0  0  0
   48.2166  -38.4817   50.7633 C   0  0  0  0  0  0  0  0  0  0  0  0
   48.1951  -39.7249   49.9010 C   0  0  0  0  0  0  0  0  0  0  0  0
   49.4741  -40.5642   50.0339 C   0  0  0  0  0  0  0  0  0  0  0  0
   49.6604  -41.4643   48.7891 C   0  0  0  0  0  0  0  0  0  0  0  0
   49.2505  -40.7850   47.5345 N   0  0  0  0  0  0  0  0  0  0  0  0
   49.4547  -38.1703   44.8782 C   0  0  0  0  0  0  0  0  0  0  0  0
   49.1045  -39.2848   45.8112 C   0  0  0  0  0  0  0  0  0  0  0  0
   49.8452  -39.7293   46.9276 C   0  0  0  0  0  0  0  0  0  0  0  0
   47.9944  -40.1440   45.7611 C   0  0  0  0  0  0  0  0  0  0  0  0
   48.1190  -41.0625   46.8429 C   0  0  0  0  0  0  0  0  0  0  0  0
   46.9012  -40.2217   44.8935 C   0  0  0  0  0  0  0  0  0  0  0  0
   47.1455  -42.0553   47.0495 C   0  0  0  0  0  0  0  0  0  0  0  0
   45.9402  -41.2145   45.1016 C   0  0  0  0  0  0  0  0  0  0  0  0
   46.0579  -42.1240   46.1686 C   0  0  0  0  0  0  0  0  0  0  0  0
   47.6240  -36.8850   47.5223 H   0  0  0  0  0  0  0  0  0  0  0  0
   49.0633  -34.4914   44.6253 C   0  0  0  0  0  0  0  0  0  0  0  0
   48.2547  -34.1735   45.4983 O   0  0  0  0  0  0  0  0  0  0  0  0
   49.4806  -35.7509   44.5110 N   0  0  0  0  0  0  0  0  0  0  0  0
   50.1429  -35.9790   43.8193 H   0  0  0  0  0  0  0  0  0  0  0  0
   49.6634  -33.4464   43.6899 C   0  0  0  0  0  0  0  0  0  0  0  0
   50.8268  -33.9547   42.8315 C   0  0  0  0  0  0  0  0  0  0  0  0
   52.4028  -33.6362   43.5071 S   0  0  0  0  0  0  0  0  0  0  0  0
   53.7010  -34.1440   42.7184 N   0  0  0  0  0  0  0  0  0  0  0  0
   52.4130  -34.6768   44.7153 N   0  0  0  0  0  0  0  0  0  0  0  0
   52.4918  -32.0072   44.1455 C   0  0  0  0  0  0  0  0  0  0  0  0
   53.7199  -35.0498   42.3330 H   0  0  0  0  0  0  0  0  0  0  0  0
   52.3683  -35.6432   44.5329 H   0  0  0  0  0  0  0  0  0  0  0  0
   48.5945  -33.0507   42.6434 C   0  0  0  0  0  0  0  0  0  0  0  0
   48.0231  -31.6362   42.4942 C   0  0  0  0  0  0  0  0  0  0  0  0
   49.0738  -30.5140   42.6498 C   0  0  0  0  0  0  0  0  0  0  0  0
   47.4493  -31.5994   41.0639 C   0  0  0  0  0  0  0  0  0  0  0  0
 28 29  2  0  0  0
 28 30  2  0  0  0
 28 27  1  0  0  0
 28 31  1  0  0  0
 27 26  1  0  0  0
 26 22  1  0  0  0
 26 34  1  0  0  0
 22 23  2  0  0  0
 22 24  1  0  0  0
 24  1  1  0  0  0
  1  2  1  0  0  0
  1 12  1  0  0  0
  2  3  2  0  0  0
  2  4  1  0  0  0
  4  5  1  0  0  0
  5  6  1  0  0  0
  6  7  1  0  0  0
  7  8  1  0  0  0
  8  9  1  0  0  0
  9 10  1  0  0  0
 10 11  1  0  0  0
 11 14  1  0  0  0
 11 16  1  0  0  0
 34 35  1  0  0  0
 35 36  1  0  0  0
 35 37  1  0  0  0
 12 13  1  0  0  0
 13 14  2  0  0  0
 13 15  1  0  0  0
 15 16  2  0  0  0
 15 17  1  0  0  0
 16 18  1  0  0  0
 17 19  2  0  0  0
 18 20  2  0  0  0
 19 20  1  0  0  0
 29 32  1  0  0  0
 30 33  1  0  0  0
 24 25  1  0  0  0
  4 21  1  0  0  0
M  END
> <minimizedAffinity>
-6.74222

$$$$
