5D0R_B1T_A_501


 21 22  0  0  0  0  0  0  0  0999 V2000
   16.1117   25.8147    0.0845 S   0  0  0  0  0  0  0  0  0  0  0  0
   17.4364   22.9411   -0.2379 O   0  0  0  0  0  0  0  0  0  0  0  0
   16.7923   23.2016    0.9203 C   0  0  0  0  0  0  0  0  0  0  0  0
   16.7132   22.1473    1.9893 C   0  0  0  0  0  0  0  0  0  0  0  0
   17.4965   20.5024    1.7975 Cl  0  0  0  0  0  0  0  0  0  0  0  0
   16.0610   22.5063    3.1755 C   0  0  0  0  0  0  0  0  0  0  0  0
   15.4849   23.7767    3.3582 C   0  0  0  0  0  0  0  0  0  0  0  0
   14.6451   24.2713    4.8712 Cl  0  0  0  0  0  0  0  0  0  0  0  0
   15.5314   24.7563    2.3834 C   0  0  0  0  0  0  0  0  0  0  0  0
   16.1431   24.5214    1.1681 C   0  0  0  0  0  0  0  0  0  0  0  0
   17.4859   23.5979   -0.9044 H   0  0  0  0  0  0  0  0  0  0  0  0
   17.4428   26.7363    0.5527 C   0  0  0  0  0  0  0  0  0  0  0  0
   18.4607   26.2880    1.3995 C   0  0  0  0  0  0  0  0  0  0  0  0
   19.5150   27.1391    1.7263 C   0  0  0  0  0  0  0  0  0  0  0  0
   20.8096   26.5952    2.8283 Cl  0  0  0  0  0  0  0  0  0  0  0  0
   19.6253   28.4203    1.2222 C   0  0  0  0  0  0  0  0  0  0  0  0
   18.6557   28.9252    0.3553 C   0  0  0  0  0  0  0  0  0  0  0  0
   18.8318   30.5963   -0.2764 Cl  0  0  0  0  0  0  0  0  0  0  0  0
   17.4989   28.0850   -0.0362 C   0  0  0  0  0  0  0  0  0  0  0  0
   16.5152   28.5152   -0.8887 O   0  0  0  0  0  0  0  0  0  0  0  0
   15.8027   27.9470   -1.1068 H   0  0  0  0  0  0  0  0  0  0  0  0
  2  3  1  0  0  0
 10  3  2  0  0  0
  3  4  1  0  0  0
  4  6  2  0  0  0
  4  5  1  0  0  0
  7  6  1  0  0  0
  9  7  2  0  0  0
  7  8  1  0  0  0
 10  9  1  0  0  0
  1 10  1  0  0  0
  1 12  1  0  0  0
 13 12  2  0  0  0
 12 19  1  0  0  0
 13 14  1  0  0  0
 15 14  1  0  0  0
 14 16  2  0  0  0
 16 17  1  0  0  0
 19 17  2  0  0  0
 17 18  1  0  0  0
 19 20  1  0  0  0
  2 11  1  0  0  0
 20 21  1  0  0  0
M  END
> <minimizedAffinity>
-8.30677

$$$$
5D0R_B1T_A_501


 21 22  0  0  0  0  0  0  0  0999 V2000
   17.9088   30.8929   -0.3626 S   0  0  0  0  0  0  0  0  0  0  0  0
   20.3630   32.8120   -1.0034 O   0  0  0  0  0  0  0  0  0  0  0  0
   19.9932   31.9355   -1.9621 C   0  0  0  0  0  0  0  0  0  0  0  0
   20.7270   31.9036   -3.2740 C   0  0  0  0  0  0  0  0  0  0  0  0
   22.1506   33.0024   -3.6228 Cl  0  0  0  0  0  0  0  0  0  0  0  0
   20.3082   30.9421   -4.2022 C   0  0  0  0  0  0  0  0  0  0  0  0
   19.2413   30.0633   -3.9402 C   0  0  0  0  0  0  0  0  0  0  0  0
   18.6822   28.8138   -5.1086 Cl  0  0  0  0  0  0  0  0  0  0  0  0
   18.5418   30.0851   -2.7477 C   0  0  0  0  0  0  0  0  0  0  0  0
   18.8576   30.9910   -1.7547 C   0  0  0  0  0  0  0  0  0  0  0  0
   19.9060   32.8322   -0.1857 H   0  0  0  0  0  0  0  0  0  0  0  0
   18.0984   29.2878    0.1152 C   0  0  0  0  0  0  0  0  0  0  0  0
   19.2579   28.7632    0.6935 C   0  0  0  0  0  0  0  0  0  0  0  0
   19.3074   27.4156    1.0461 C   0  0  0  0  0  0  0  0  0  0  0  0
   20.7884   26.7201    1.7597 Cl  0  0  0  0  0  0  0  0  0  0  0  0
   18.2369   26.5592    0.8783 C   0  0  0  0  0  0  0  0  0  0  0  0
   17.0417   27.0206    0.3260 C   0  0  0  0  0  0  0  0  0  0  0  0
   15.6736   25.8766    0.1205 Cl  0  0  0  0  0  0  0  0  0  0  0  0
   16.9105   28.4399   -0.0813 C   0  0  0  0  0  0  0  0  0  0  0  0
   15.7637   28.9607   -0.6230 O   0  0  0  0  0  0  0  0  0  0  0  0
   15.7288   29.8652   -0.8652 H   0  0  0  0  0  0  0  0  0  0  0  0
  2  3  1  0  0  0
 10  3  2  0  0  0
  3  4  1  0  0  0
  4  6  2  0  0  0
  4  5  1  0  0  0
  7  6  1  0  0  0
  9  7  2  0  0  0
  7  8  1  0  0  0
 10  9  1  0  0  0
  1 10  1  0  0  0
  1 12  1  0  0  0
 13 12  2  0  0  0
 12 19  1  0  0  0
 13 14  1  0  0  0
 15 14  1  0  0  0
 14 16  2  0  0  0
 16 17  1  0  0  0
 19 17  2  0  0  0
 17 18  1  0  0  0
 19 20  1  0  0  0
  2 11  1  0  0  0
 20 21  1  0  0  0
M  END
> <minimizedAffinity>
-8.02692

$$$$
5D0R_B1T_A_501


 21 22  0  0  0  0  0  0  0  0999 V2000
   16.8352   28.9828   -1.0890 S   0  0  0  0  0  0  0  0  0  0  0  0
   19.4794   29.3132    0.6475 O   0  0  0  0  0  0  0  0  0  0  0  0
   18.8231   28.1359    0.7334 C   0  0  0  0  0  0  0  0  0  0  0  0
   19.3563   27.0414    1.6157 C   0  0  0  0  0  0  0  0  0  0  0  0
   20.8708   27.2519    2.6245 Cl  0  0  0  0  0  0  0  0  0  0  0  0
   18.5996   25.8648    1.6799 C   0  0  0  0  0  0  0  0  0  0  0  0
   17.4136   25.6961    0.9422 C   0  0  0  0  0  0  0  0  0  0  0  0
   16.4156   24.1997    1.0065 Cl  0  0  0  0  0  0  0  0  0  0  0  0
   16.9129   26.6823    0.1125 C   0  0  0  0  0  0  0  0  0  0  0  0
   17.5715   27.8864   -0.0385 C   0  0  0  0  0  0  0  0  0  0  0  0
   19.1475   29.9956    0.0978 H   0  0  0  0  0  0  0  0  0  0  0  0
   15.5993   29.6391   -0.1497 C   0  0  0  0  0  0  0  0  0  0  0  0
   14.3138   29.1008   -0.0403 C   0  0  0  0  0  0  0  0  0  0  0  0
   13.3650   29.7309    0.7631 C   0  0  0  0  0  0  0  0  0  0  0  0
   11.7100   29.0753    0.8938 Cl  0  0  0  0  0  0  0  0  0  0  0  0
   13.6432   30.8673    1.4972 C   0  0  0  0  0  0  0  0  0  0  0  0
   14.9117   31.4463    1.4511 C   0  0  0  0  0  0  0  0  0  0  0  0
   15.2341   32.9251    2.4164 Cl  0  0  0  0  0  0  0  0  0  0  0  0
   15.9751   30.8404    0.6148 C   0  0  0  0  0  0  0  0  0  0  0  0
   17.2439   31.3527    0.5294 O   0  0  0  0  0  0  0  0  0  0  0  0
   17.8827   30.9340   -0.0134 H   0  0  0  0  0  0  0  0  0  0  0  0
  2  3  1  0  0  0
 10  3  2  0  0  0
  3  4  1  0  0  0
  4  6  2  0  0  0
  4  5  1  0  0  0
  7  6  1  0  0  0
  9  7  2  0  0  0
  7  8  1  0  0  0
 10  9  1  0  0  0
  1 10  1  0  0  0
  1 12  1  0  0  0
 13 12  2  0  0  0
 12 19  1  0  0  0
 13 14  1  0  0  0
 15 14  1  0  0  0
 14 16  2  0  0  0
 16 17  1  0  0  0
 19 17  2  0  0  0
 17 18  1  0  0  0
 19 20  1  0  0  0
  2 11  1  0  0  0
 20 21  1  0  0  0
M  END
> <minimizedAffinity>
-7.98158

$$$$
5D0R_B1T_A_501


 21 22  0  0  0  0  0  0  0  0999 V2000
   17.1967   28.1191   -0.9113 S   0  0  0  0  0  0  0  0  0  0  0  0
   15.7491   25.4608    0.0656 O   0  0  0  0  0  0  0  0  0  0  0  0
   16.8793   25.8248    0.7091 C   0  0  0  0  0  0  0  0  0  0  0  0
   17.3981   24.9896    1.8467 C   0  0  0  0  0  0  0  0  0  0  0  0
   16.5640   23.4508    2.3870 Cl  0  0  0  0  0  0  0  0  0  0  0  0
   18.5949   25.4123    2.4385 C   0  0  0  0  0  0  0  0  0  0  0  0
   19.2717   26.5705    2.0144 C   0  0  0  0  0  0  0  0  0  0  0  0
   20.8134   27.1378    2.7496 Cl  0  0  0  0  0  0  0  0  0  0  0  0
   18.8051   27.3625    0.9815 C   0  0  0  0  0  0  0  0  0  0  0  0
   17.6326   27.0524    0.3216 C   0  0  0  0  0  0  0  0  0  0  0  0
   15.4254   25.9809   -0.6434 H   0  0  0  0  0  0  0  0  0  0  0  0
   16.0330   29.0933   -0.1782 C   0  0  0  0  0  0  0  0  0  0  0  0
   14.6897   28.7416   -0.0175 C   0  0  0  0  0  0  0  0  0  0  0  0
   13.8104   29.6292    0.6003 C   0  0  0  0  0  0  0  0  0  0  0  0
   12.0855   29.2105    0.7896 Cl  0  0  0  0  0  0  0  0  0  0  0  0
   14.2116   30.8525    1.1004 C   0  0  0  0  0  0  0  0  0  0  0  0
   15.5420   31.2588    0.9926 C   0  0  0  0  0  0  0  0  0  0  0  0
   16.0247   32.8574    1.6517 Cl  0  0  0  0  0  0  0  0  0  0  0  0
   16.5386   30.3747    0.3427 C   0  0  0  0  0  0  0  0  0  0  0  0
   17.8618   30.7081    0.2101 O   0  0  0  0  0  0  0  0  0  0  0  0
   18.4546   30.1155   -0.2088 H   0  0  0  0  0  0  0  0  0  0  0  0
  2  3  1  0  0  0
 10  3  2  0  0  0
  3  4  1  0  0  0
  4  6  2  0  0  0
  4  5  1  0  0  0
  7  6  1  0  0  0
  9  7  2  0  0  0
  7  8  1  0  0  0
 10  9  1  0  0  0
  1 10  1  0  0  0
  1 12  1  0  0  0
 13 12  2  0  0  0
 12 19  1  0  0  0
 13 14  1  0  0  0
 15 14  1  0  0  0
 14 16  2  0  0  0
 16 17  1  0  0  0
 19 17  2  0  0  0
 17 18  1  0  0  0
 19 20  1  0  0  0
  2 11  1  0  0  0
 20 21  1  0  0  0
M  END
> <minimizedAffinity>
-7.94569

$$$$
5D0R_B1T_A_501


 21 22  0  0  0  0  0  0  0  0999 V2000
   16.9137   28.8711   -1.0447 S   0  0  0  0  0  0  0  0  0  0  0  0
   17.2223   31.5425    0.6537 O   0  0  0  0  0  0  0  0  0  0  0  0
   16.0174   30.9326    0.6690 C   0  0  0  0  0  0  0  0  0  0  0  0
   14.8914   31.5143    1.4779 C   0  0  0  0  0  0  0  0  0  0  0  0
   15.0780   33.0638    2.4372 Cl  0  0  0  0  0  0  0  0  0  0  0  0
   13.6631   30.8448    1.4129 C   0  0  0  0  0  0  0  0  0  0  0  0
   13.4878   29.6741    0.6526 C   0  0  0  0  0  0  0  0  0  0  0  0
   11.9220   28.7933    0.5436 Cl  0  0  0  0  0  0  0  0  0  0  0  0
   14.5127   29.1124   -0.0860 C   0  0  0  0  0  0  0  0  0  0  0  0
   15.7723   29.6778   -0.0991 C   0  0  0  0  0  0  0  0  0  0  0  0
   17.9244   31.1804    0.1497 H   0  0  0  0  0  0  0  0  0  0  0  0
   17.5007   27.6836   -0.0027 C   0  0  0  0  0  0  0  0  0  0  0  0
   16.9128   26.4290    0.1831 C   0  0  0  0  0  0  0  0  0  0  0  0
   17.4812   25.5232    1.0771 C   0  0  0  0  0  0  0  0  0  0  0  0
   16.7297   23.9272    1.3495 Cl  0  0  0  0  0  0  0  0  0  0  0  0
   18.6375   25.7943    1.7820 C   0  0  0  0  0  0  0  0  0  0  0  0
   19.2883   27.0189    1.6295 C   0  0  0  0  0  0  0  0  0  0  0  0
   20.7870   27.3359    2.5656 Cl  0  0  0  0  0  0  0  0  0  0  0  0
   18.7437   28.0394    0.7025 C   0  0  0  0  0  0  0  0  0  0  0  0
   19.3360   29.2591    0.4995 O   0  0  0  0  0  0  0  0  0  0  0  0
   18.9538   29.8720   -0.0974 H   0  0  0  0  0  0  0  0  0  0  0  0
  2  3  1  0  0  0
 10  3  2  0  0  0
  3  4  1  0  0  0
  4  6  2  0  0  0
  4  5  1  0  0  0
  7  6  1  0  0  0
  9  7  2  0  0  0
  7  8  1  0  0  0
 10  9  1  0  0  0
  1 10  1  0  0  0
  1 12  1  0  0  0
 13 12  2  0  0  0
 12 19  1  0  0  0
 13 14  1  0  0  0
 15 14  1  0  0  0
 14 16  2  0  0  0
 16 17  1  0  0  0
 19 17  2  0  0  0
 17 18  1  0  0  0
 19 20  1  0  0  0
  2 11  1  0  0  0
 20 21  1  0  0  0
M  END
> <minimizedAffinity>
-7.92797

$$$$
5D0R_B1T_A_501


 21 22  0  0  0  0  0  0  0  0999 V2000
   16.3009   25.7128   -0.1807 S   0  0  0  0  0  0  0  0  0  0  0  0
   16.6509   28.7503   -1.0568 O   0  0  0  0  0  0  0  0  0  0  0  0
   17.5598   28.2437   -0.1959 C   0  0  0  0  0  0  0  0  0  0  0  0
   18.6874   29.1061    0.2996 C   0  0  0  0  0  0  0  0  0  0  0  0
   18.8665   30.8596   -0.1993 Cl  0  0  0  0  0  0  0  0  0  0  0  0
   19.5668   28.5197    1.2183 C   0  0  0  0  0  0  0  0  0  0  0  0
   19.4258   27.1861    1.6434 C   0  0  0  0  0  0  0  0  0  0  0  0
   20.5348   26.4047    2.8261 Cl  0  0  0  0  0  0  0  0  0  0  0  0
   18.4065   26.3696    1.1893 C   0  0  0  0  0  0  0  0  0  0  0  0
   17.4783   26.8316    0.2775 C   0  0  0  0  0  0  0  0  0  0  0  0
   15.9481   28.2132   -1.3658 H   0  0  0  0  0  0  0  0  0  0  0  0
   16.1570   24.7316    1.1820 C   0  0  0  0  0  0  0  0  0  0  0  0
   15.5362   25.1149    2.3745 C   0  0  0  0  0  0  0  0  0  0  0  0
   15.4789   24.2224    3.4435 C   0  0  0  0  0  0  0  0  0  0  0  0
   14.7157   24.7025    4.9840 Cl  0  0  0  0  0  0  0  0  0  0  0  0
   15.9876   22.9401    3.3750 C   0  0  0  0  0  0  0  0  0  0  0  0
   16.6023   22.4845    2.2083 C   0  0  0  0  0  0  0  0  0  0  0  0
   17.2545   20.8127    2.1586 Cl  0  0  0  0  0  0  0  0  0  0  0  0
   16.7094   23.3752    1.0283 C   0  0  0  0  0  0  0  0  0  0  0  0
   17.2937   22.9895   -0.1506 O   0  0  0  0  0  0  0  0  0  0  0  0
   17.3378   23.5887   -0.8696 H   0  0  0  0  0  0  0  0  0  0  0  0
  2  3  1  0  0  0
 10  3  2  0  0  0
  3  4  1  0  0  0
  4  6  2  0  0  0
  4  5  1  0  0  0
  7  6  1  0  0  0
  9  7  2  0  0  0
  7  8  1  0  0  0
 10  9  1  0  0  0
  1 10  1  0  0  0
  1 12  1  0  0  0
 13 12  2  0  0  0
 12 19  1  0  0  0
 13 14  1  0  0  0
 15 14  1  0  0  0
 14 16  2  0  0  0
 16 17  1  0  0  0
 19 17  2  0  0  0
 17 18  1  0  0  0
 19 20  1  0  0  0
  2 11  1  0  0  0
 20 21  1  0  0  0
M  END
> <minimizedAffinity>
-7.80423

$$$$
5D0R_B1T_A_501


 21 22  0  0  0  0  0  0  0  0999 V2000
   17.0402   28.1527   -0.8709 S   0  0  0  0  0  0  0  0  0  0  0  0
   15.6197   25.5279    0.2286 O   0  0  0  0  0  0  0  0  0  0  0  0
   16.7841   25.8928    0.8076 C   0  0  0  0  0  0  0  0  0  0  0  0
   17.3519   25.0741    1.9336 C   0  0  0  0  0  0  0  0  0  0  0  0
   16.5322   23.5542    2.5449 Cl  0  0  0  0  0  0  0  0  0  0  0  0
   18.5807   25.4960    2.4564 C   0  0  0  0  0  0  0  0  0  0  0  0
   19.2457   26.6392    1.9765 C   0  0  0  0  0  0  0  0  0  0  0  0
   20.8275   27.2049    2.6225 Cl  0  0  0  0  0  0  0  0  0  0  0  0
   18.7350   27.4161    0.9532 C   0  0  0  0  0  0  0  0  0  0  0  0
   17.5280   27.1053    0.3590 C   0  0  0  0  0  0  0  0  0  0  0  0
   15.2655   26.0378   -0.4732 H   0  0  0  0  0  0  0  0  0  0  0  0
   16.1015   29.2890   -0.0534 C   0  0  0  0  0  0  0  0  0  0  0  0
   16.5862   30.4920    0.4682 C   0  0  0  0  0  0  0  0  0  0  0  0
   15.7196   31.3578    1.1330 C   0  0  0  0  0  0  0  0  0  0  0  0
   16.3247   32.8853    1.8308 Cl  0  0  0  0  0  0  0  0  0  0  0  0
   14.3711   31.0984    1.2803 C   0  0  0  0  0  0  0  0  0  0  0  0
   13.8160   29.9261    0.7662 C   0  0  0  0  0  0  0  0  0  0  0  0
   12.0597   29.6224    0.9806 Cl  0  0  0  0  0  0  0  0  0  0  0  0
   14.6722   28.9499    0.0512 C   0  0  0  0  0  0  0  0  0  0  0  0
   14.1912   27.7832   -0.4845 O   0  0  0  0  0  0  0  0  0  0  0  0
   14.7721   27.1968   -0.9281 H   0  0  0  0  0  0  0  0  0  0  0  0
  2  3  1  0  0  0
 10  3  2  0  0  0
  3  4  1  0  0  0
  4  6  2  0  0  0
  4  5  1  0  0  0
  7  6  1  0  0  0
  9  7  2  0  0  0
  7  8  1  0  0  0
 10  9  1  0  0  0
  1 10  1  0  0  0
  1 12  1  0  0  0
 13 12  2  0  0  0
 12 19  1  0  0  0
 13 14  1  0  0  0
 15 14  1  0  0  0
 14 16  2  0  0  0
 16 17  1  0  0  0
 19 17  2  0  0  0
 17 18  1  0  0  0
 19 20  1  0  0  0
  2 11  1  0  0  0
 20 21  1  0  0  0
M  END
> <minimizedAffinity>
-7.72420

$$$$
5D0R_B1T_A_501


 21 22  0  0  0  0  0  0  0  0999 V2000
   16.9033   28.0676   -0.9737 S   0  0  0  0  0  0  0  0  0  0  0  0
   17.6761   30.8943    0.2628 O   0  0  0  0  0  0  0  0  0  0  0  0
   16.3977   30.4829    0.4052 C   0  0  0  0  0  0  0  0  0  0  0  0
   15.4075   31.3467    1.1360 C   0  0  0  0  0  0  0  0  0  0  0  0
   15.8621   32.9810    1.8275 Cl  0  0  0  0  0  0  0  0  0  0  0  0
   14.0935   30.8680    1.2092 C   0  0  0  0  0  0  0  0  0  0  0  0
   13.7145   29.6328    0.6525 C   0  0  0  0  0  0  0  0  0  0  0  0
   12.0343   28.9918    0.7245 Cl  0  0  0  0  0  0  0  0  0  0  0  0
   14.6109   28.8146   -0.0098 C   0  0  0  0  0  0  0  0  0  0  0  0
   15.9371   29.1748   -0.1440 C   0  0  0  0  0  0  0  0  0  0  0  0
   18.2935   30.3563   -0.1925 H   0  0  0  0  0  0  0  0  0  0  0  0
   17.6248   27.1860    0.2684 C   0  0  0  0  0  0  0  0  0  0  0  0
   18.8002   27.5582    0.9272 C   0  0  0  0  0  0  0  0  0  0  0  0
   19.3129   26.7487    1.9394 C   0  0  0  0  0  0  0  0  0  0  0  0
   20.8276   27.1919    2.7734 Cl  0  0  0  0  0  0  0  0  0  0  0  0
   18.6907   25.5881    2.3558 C   0  0  0  0  0  0  0  0  0  0  0  0
   17.5033   25.1677    1.7559 C   0  0  0  0  0  0  0  0  0  0  0  0
   16.7260   23.6518    2.3221 Cl  0  0  0  0  0  0  0  0  0  0  0  0
   16.8964   25.9697    0.6670 C   0  0  0  0  0  0  0  0  0  0  0  0
   15.7288   25.6190    0.0399 O   0  0  0  0  0  0  0  0  0  0  0  0
   15.3839   26.1587   -0.6441 H   0  0  0  0  0  0  0  0  0  0  0  0
  2  3  1  0  0  0
 10  3  2  0  0  0
  3  4  1  0  0  0
  4  6  2  0  0  0
  4  5  1  0  0  0
  7  6  1  0  0  0
  9  7  2  0  0  0
  7  8  1  0  0  0
 10  9  1  0  0  0
  1 10  1  0  0  0
  1 12  1  0  0  0
 13 12  2  0  0  0
 12 19  1  0  0  0
 13 14  1  0  0  0
 15 14  1  0  0  0
 14 16  2  0  0  0
 16 17  1  0  0  0
 19 17  2  0  0  0
 17 18  1  0  0  0
 19 20  1  0  0  0
  2 11  1  0  0  0
 20 21  1  0  0  0
M  END
> <minimizedAffinity>
-7.70807

$$$$
5D0R_B1T_A_501


 21 22  0  0  0  0  0  0  0  0999 V2000
   16.9904   28.0571   -0.9756 S   0  0  0  0  0  0  0  0  0  0  0  0
   13.9431   27.5784   -0.2003 O   0  0  0  0  0  0  0  0  0  0  0  0
   14.4942   28.7611    0.1483 C   0  0  0  0  0  0  0  0  0  0  0  0
   13.6672   29.7934    0.8633 C   0  0  0  0  0  0  0  0  0  0  0  0
   11.9180   29.4972    1.3197 Cl  0  0  0  0  0  0  0  0  0  0  0  0
   14.3203   30.9786    1.2238 C   0  0  0  0  0  0  0  0  0  0  0  0
   15.6732   31.2114    0.9161 C   0  0  0  0  0  0  0  0  0  0  0  0
   16.5431   32.7203    1.3696 Cl  0  0  0  0  0  0  0  0  0  0  0  0
   16.4487   30.2836    0.2455 C   0  0  0  0  0  0  0  0  0  0  0  0
   15.9172   29.0778   -0.1668 C   0  0  0  0  0  0  0  0  0  0  0  0
   14.4581   26.9348   -0.6459 H   0  0  0  0  0  0  0  0  0  0  0  0
   17.6896   27.1709    0.2760 C   0  0  0  0  0  0  0  0  0  0  0  0
   18.8415   27.5509    0.9709 C   0  0  0  0  0  0  0  0  0  0  0  0
   19.3373   26.7367    1.9877 C   0  0  0  0  0  0  0  0  0  0  0  0
   20.8226   27.1902    2.8678 Cl  0  0  0  0  0  0  0  0  0  0  0  0
   18.7197   25.5633    2.3740 C   0  0  0  0  0  0  0  0  0  0  0  0
   17.5548   25.1342    1.7371 C   0  0  0  0  0  0  0  0  0  0  0  0
   16.7828   23.6018    2.2649 Cl  0  0  0  0  0  0  0  0  0  0  0  0
   16.9671   25.9406    0.6409 C   0  0  0  0  0  0  0  0  0  0  0  0
   15.8218   25.5817   -0.0219 O   0  0  0  0  0  0  0  0  0  0  0  0
   15.4885   26.1246   -0.7089 H   0  0  0  0  0  0  0  0  0  0  0  0
  2  3  1  0  0  0
 10  3  2  0  0  0
  3  4  1  0  0  0
  4  6  2  0  0  0
  4  5  1  0  0  0
  7  6  1  0  0  0
  9  7  2  0  0  0
  7  8  1  0  0  0
 10  9  1  0  0  0
  1 10  1  0  0  0
  1 12  1  0  0  0
 13 12  2  0  0  0
 12 19  1  0  0  0
 13 14  1  0  0  0
 15 14  1  0  0  0
 14 16  2  0  0  0
 16 17  1  0  0  0
 19 17  2  0  0  0
 17 18  1  0  0  0
 19 20  1  0  0  0
  2 11  1  0  0  0
 20 21  1  0  0  0
M  END
> <minimizedAffinity>
-7.64647

$$$$
5D0R_B1T_A_501


 21 22  0  0  0  0  0  0  0  0999 V2000
   16.8036   29.1765   -0.9453 S   0  0  0  0  0  0  0  0  0  0  0  0
   13.8519   28.0330   -0.6350 O   0  0  0  0  0  0  0  0  0  0  0  0
   14.1609   29.1505    0.0576 C   0  0  0  0  0  0  0  0  0  0  0  0
   13.1224   29.8095    0.9224 C   0  0  0  0  0  0  0  0  0  0  0  0
   11.4312   29.1297    1.1060 Cl  0  0  0  0  0  0  0  0  0  0  0  0
   13.5305   30.9423    1.6375 C   0  0  0  0  0  0  0  0  0  0  0  0
   14.8352   31.4594    1.5400 C   0  0  0  0  0  0  0  0  0  0  0  0
   15.3928   32.9092    2.4491 Cl  0  0  0  0  0  0  0  0  0  0  0  0
   15.8019   30.8798    0.7391 C   0  0  0  0  0  0  0  0  0  0  0  0
   15.5199   29.7605   -0.0185 C   0  0  0  0  0  0  0  0  0  0  0  0
   14.4987   27.6220   -1.1741 H   0  0  0  0  0  0  0  0  0  0  0  0
   17.4079   27.9141   -0.0063 C   0  0  0  0  0  0  0  0  0  0  0  0
   16.8057   26.6589    0.1190 C   0  0  0  0  0  0  0  0  0  0  0  0
   17.3908   25.6877    0.9297 C   0  0  0  0  0  0  0  0  0  0  0  0
   16.6225   24.0884    1.1251 Cl  0  0  0  0  0  0  0  0  0  0  0  0
   18.5767   25.8944    1.6067 C   0  0  0  0  0  0  0  0  0  0  0  0
   19.2424   27.1167    1.5103 C   0  0  0  0  0  0  0  0  0  0  0  0
   20.7798   27.3489    2.4078 Cl  0  0  0  0  0  0  0  0  0  0  0  0
   18.6819   28.2042    0.6733 C   0  0  0  0  0  0  0  0  0  0  0  0
   19.2872   29.4257    0.5284 O   0  0  0  0  0  0  0  0  0  0  0  0
   18.8940   30.0823   -0.0122 H   0  0  0  0  0  0  0  0  0  0  0  0
  2  3  1  0  0  0
 10  3  2  0  0  0
  3  4  1  0  0  0
  4  6  2  0  0  0
  4  5  1  0  0  0
  7  6  1  0  0  0
  9  7  2  0  0  0
  7  8  1  0  0  0
 10  9  1  0  0  0
  1 10  1  0  0  0
  1 12  1  0  0  0
 13 12  2  0  0  0
 12 19  1  0  0  0
 13 14  1  0  0  0
 15 14  1  0  0  0
 14 16  2  0  0  0
 16 17  1  0  0  0
 19 17  2  0  0  0
 17 18  1  0  0  0
 19 20  1  0  0  0
  2 11  1  0  0  0
 20 21  1  0  0  0
M  END
> <minimizedAffinity>
-7.60830

$$$$
