4IID_NOJ_A_940
  RCSB PDB12061713013D
Coordinates from PDB:4IID:A:940 Model:1 without hydrogens
 11 11  0  0  0  0            999 V2000
  -20.8870  -20.3580  -23.4400   C 0  0  0  0  0  0  0  0  0  0  0  0
  -22.0330  -19.7770  -24.2580   C 0  0  0  0  0  0  0  0  0  0  0  0
  -22.8080  -20.8310  -24.8510   O 0  0  0  0  0  0  0  0  0  0  0  0
  -21.5510  -18.8710  -25.3870   C 0  0  0  0  0  0  0  0  0  0  0  0
  -22.7050  -18.1920  -25.9100   O 0  0  0  0  0  0  0  0  0  0  0  0
  -20.5550  -17.8490  -24.8340   C 0  0  0  0  0  0  0  0  0  0  0  0
  -20.1510  -16.9300  -25.8340   O 0  0  0  0  0  0  0  0  0  0  0  0
  -19.3580  -18.5730  -24.2430   C 0  0  0  0  0  0  0  0  0  0  0  0
  -19.8890  -19.3230  -23.0880   N 0  0  0  0  0  0  0  0  0  0  0  0
  -18.3320  -17.6240  -23.6960   C 0  0  0  0  0  0  0  0  0  0  0  0
  -18.9200  -16.8110  -22.6920   O 0  0  0  0  0  0  0  0  0  0  0  0
  1  2  1  0  0  0  0
  1  9  1  0  0  0  0
  2  3  1  0  0  0  0
  2  4  1  0  0  0  0
  4  5  1  0  0  0  0
  4  6  1  0  0  0  0
  6  7  1  0  0  0  0
  6  8  1  0  0  0  0
  8  9  1  0  0  0  0
  8 10  1  0  0  0  0
 10 11  1  0  0  0  0
A    1
C1
A    2
C2
A    3
O2
A    4
C3
A    5
O3
A    6
C4
A    7
O4
A    8
C5
A    9
N5
A   10
C6
A   11
O6
M  END
>  <InstanceId>
4IID_NOJ_A_940

>  <ChemCompId>
NOJ

>  <PdbId>
4IID

>  <ChainId>
A

>  <ResidueNumber>
940

>  <InsertionCode>


>  <Model>
1

>  <AltIds>


>  <MissingHeavyAtoms>
0

>  <ObservedFormula>
C6 N O4

>  <Name>
1-DEOXYNOJIRIMYCIN

>  <SystematicName>
(2R,3R,4R,5S)-2-(hydroxymethyl)piperidine-3,4,5-triol

>  <Synonyms>
MORANOLINE

>  <Type>
NON-POLYMER

>  <Formula>
C6 H13 N O4

>  <MolecularWeight>
163.172

>  <ModifiedDate>
2011-06-04

>  <Parent>


>  <OneLetterCode>


>  <SubcomponentList>


>  <AmbiguousFlag>
N

>  <InChI>
InChI=1S/C6H13NO4/c8-2-3-5(10)6(11)4(9)1-7-3/h3-11H,1-2H2/t3-,4+,5-,6-/m1/s1

>  <InChIKey>
LXBIFEVIBLOUGU-JGWLITMVSA-N

>  <SMILES>
C1[C@@H]([C@H]([C@@H]([C@H](N1)CO)O)O)O

$$$$
