3LJG_EEF_A_302


 41 42  0  0  0  0  0  0  0  0999 V2000
    8.5323   28.1804    5.7291 C   0  0  0  0  0  0  0  0  0  0  0  0
    8.4167   25.9322    4.5833 C   0  0  0  0  0  0  0  0  0  0  0  0
    9.6162   25.8052    4.5980 O   0  0  0  0  0  0  0  0  0  0  0  0
    7.7343   27.0999    5.1289 N   0  0  0  0  0  0  0  0  0  0  0  0
    6.7525   27.1643    5.0960 H   0  0  0  0  0  0  0  0  0  0  0  0
    7.5233   24.7923    4.0532 C   0  0  0  0  0  0  0  0  0  0  0  0
    7.3825   23.6370    5.0532 C   0  0  0  0  0  0  0  0  0  0  0  0
    5.8012   22.2365    6.4148 C   0  0  0  0  0  0  0  0  0  0  0  0
    4.4856   21.8318    6.8714 C   0  0  0  0  0  0  0  0  0  0  0  0
    3.3315   22.5870    6.3977 C   0  0  0  0  0  0  0  0  0  0  0  0
    5.9583   23.3005    5.5503 C   0  0  0  0  0  0  0  0  0  0  0  0
    3.4786   23.6944    5.5060 C   0  0  0  0  0  0  0  0  0  0  0  0
    4.7641   24.0859    5.0597 C   0  0  0  0  0  0  0  0  0  0  0  0
    1.9451   22.1611    6.8781 C   0  0  0  0  0  0  0  0  0  0  0  0
    1.8348   21.0650    7.8840 C   0  0  0  0  0  0  0  0  0  0  0  0
    0.5888   20.6493    8.3263 C   0  0  0  0  0  0  0  0  0  0  0  0
   -0.4410   22.3309    6.8541 C   0  0  0  0  0  0  0  0  0  0  0  0
    0.8551   22.7632    6.3912 C   0  0  0  0  0  0  0  0  0  0  0  0
   -0.5650   21.2748    7.8087 C   0  0  0  0  0  0  0  0  0  0  0  0
    7.8871   28.5736    7.0547 C   0  0  0  0  0  0  0  0  0  0  0  0
    6.7460   28.9362    7.0731 O   0  0  0  0  0  0  0  0  0  0  0  0
    8.7515   28.8032    8.1920 N   0  0  0  0  0  0  0  0  0  0  0  0
    9.7130   28.5941    8.1601 H   0  0  0  0  0  0  0  0  0  0  0  0
    8.1337   29.3557    9.3794 C   0  0  0  0  0  0  0  0  0  0  0  0
    9.0901   30.2908   10.0960 C   0  0  0  0  0  0  0  0  0  0  0  0
   10.2085   30.4171    9.7185 O   0  0  0  0  0  0  0  0  0  0  0  0
    8.5889   30.9589   11.2791 N   0  0  0  0  0  0  0  0  0  0  0  0
    9.1704   31.5757   11.7797 H   0  0  0  0  0  0  0  0  0  0  0  0
    7.6666   30.7963   11.5827 H   0  0  0  0  0  0  0  0  0  0  0  0
    7.5341   28.3256   10.3428 C   0  0  0  0  0  0  0  0  0  0  0  0
    8.5303   27.4549   11.1417 C   0  0  0  0  0  0  0  0  0  0  0  0
    8.5304   27.4849   12.6810 C   0  0  0  0  0  0  0  0  0  0  0  0
    8.4289   28.5175   13.2522 O   0  0  0  0  0  0  0  0  0  0  0  0
    8.9268   26.3401   13.4065 O   0  0  0  0  0  0  0  0  0  0  0  0
    9.0120   25.5152   12.9703 H   0  0  0  0  0  0  0  0  0  0  0  0
    8.5782   29.4248    4.8163 C   0  0  0  0  0  0  0  0  0  0  0  0
    9.6994   29.5246    3.7860 C   0  0  0  0  0  0  0  0  0  0  0  0
    9.5542   28.6128    2.5708 C   0  0  0  0  0  0  0  0  0  0  0  0
    8.4892   28.4182    2.0991 O   0  0  0  0  0  0  0  0  0  0  0  0
   10.5535   27.6734    2.3305 O   0  0  0  0  0  0  0  0  0  0  0  0
   11.4097   27.7978    2.6902 H   0  0  0  0  0  0  0  0  0  0  0  0
 39 38  2  0  0  0
 38 40  1  0  0  0
 38 37  1  0  0  0
 37 36  1  0  0  0
  6  2  1  0  0  0
  6  7  1  0  0  0
  2  4  1  0  0  0
  2  3  2  0  0  0
  7 11  1  0  0  0
  4  1  1  0  0  0
 36  1  1  0  0  0
 13 11  2  0  0  0
 13 12  1  0  0  0
 11  8  1  0  0  0
  1 20  1  0  0  0
 12 10  2  0  0  0
  8  9  2  0  0  0
 18 17  2  0  0  0
 18 14  1  0  0  0
 10  9  1  0  0  0
 10 14  1  0  0  0
 20 21  2  0  0  0
 20 22  1  0  0  0
 17 19  1  0  0  0
 14 15  2  0  0  0
 22 24  1  0  0  0
 26 25  2  0  0  0
 19 16  2  0  0  0
 15 16  1  0  0  0
 25 24  1  0  0  0
 25 27  1  0  0  0
 24 30  1  0  0  0
 30 31  1  0  0  0
 31 32  1  0  0  0
 33 32  2  0  0  0
 32 34  1  0  0  0
  4  5  1  0  0  0
 40 41  1  0  0  0
 22 23  1  0  0  0
 34 35  1  0  0  0
 27 28  1  0  0  0
 27 29  1  0  0  0
M  END
> <minimizedAffinity>
-10.00698

$$$$
3LJG_EEF_A_302


 41 42  0  0  0  0  0  0  0  0999 V2000
   10.3937   26.5963    1.5841 C   0  0  0  0  0  0  0  0  0  0  0  0
    9.2516   25.1820    3.3380 C   0  0  0  0  0  0  0  0  0  0  0  0
    9.9140   25.6576    4.2269 O   0  0  0  0  0  0  0  0  0  0  0  0
    9.3976   25.5741    1.9409 N   0  0  0  0  0  0  0  0  0  0  0  0
    8.8369   25.1601    1.2456 H   0  0  0  0  0  0  0  0  0  0  0  0
    8.1282   24.1761    3.6616 C   0  0  0  0  0  0  0  0  0  0  0  0
    7.8081   24.1089    5.1609 C   0  0  0  0  0  0  0  0  0  0  0  0
    5.2979   24.1922    5.0722 C   0  0  0  0  0  0  0  0  0  0  0  0
    3.9678   23.7638    5.4598 C   0  0  0  0  0  0  0  0  0  0  0  0
    3.8492   22.6383    6.3795 C   0  0  0  0  0  0  0  0  0  0  0  0
    6.4211   23.5597    5.5647 C   0  0  0  0  0  0  0  0  0  0  0  0
    5.0030   21.9699    6.8943 C   0  0  0  0  0  0  0  0  0  0  0  0
    6.3006   22.3919    6.5163 C   0  0  0  0  0  0  0  0  0  0  0  0
    2.4481   22.1865    6.7884 C   0  0  0  0  0  0  0  0  0  0  0  0
    1.2685   22.9511    6.2892 C   0  0  0  0  0  0  0  0  0  0  0  0
   -0.0129   22.5715    6.6563 C   0  0  0  0  0  0  0  0  0  0  0  0
    0.9605   20.7308    7.9677 C   0  0  0  0  0  0  0  0  0  0  0  0
    2.2950   21.1260    7.5882 C   0  0  0  0  0  0  0  0  0  0  0  0
   -0.1797   21.4590    7.5076 C   0  0  0  0  0  0  0  0  0  0  0  0
    9.6991   27.9546    1.5585 C   0  0  0  0  0  0  0  0  0  0  0  0
    9.6517   28.5759    0.5360 O   0  0  0  0  0  0  0  0  0  0  0  0
    9.4028   28.5927    2.8228 N   0  0  0  0  0  0  0  0  0  0  0  0
    9.5244   28.1226    3.6793 H   0  0  0  0  0  0  0  0  0  0  0  0
    8.9187   29.9562    2.7673 C   0  0  0  0  0  0  0  0  0  0  0  0
   10.0444   30.9366    3.0400 C   0  0  0  0  0  0  0  0  0  0  0  0
   11.1069   30.5511    3.4028 O   0  0  0  0  0  0  0  0  0  0  0  0
    9.7360   32.3441    2.8951 N   0  0  0  0  0  0  0  0  0  0  0  0
   10.4322   33.0202    3.0608 H   0  0  0  0  0  0  0  0  0  0  0  0
    8.8302   32.6249    2.6308 H   0  0  0  0  0  0  0  0  0  0  0  0
    7.6972   30.2516    3.6444 C   0  0  0  0  0  0  0  0  0  0  0  0
    7.8258   29.9300    5.1507 C   0  0  0  0  0  0  0  0  0  0  0  0
    8.0062   28.4761    5.6240 C   0  0  0  0  0  0  0  0  0  0  0  0
    7.1153   27.9167    6.1682 O   0  0  0  0  0  0  0  0  0  0  0  0
    9.2973   27.9056    5.6664 O   0  0  0  0  0  0  0  0  0  0  0  0
   10.0134   28.3350    5.2413 H   0  0  0  0  0  0  0  0  0  0  0  0
   11.0046   26.3300    0.1913 C   0  0  0  0  0  0  0  0  0  0  0  0
   10.1439   25.6246   -0.8528 C   0  0  0  0  0  0  0  0  0  0  0  0
   10.2849   24.1056   -0.8988 C   0  0  0  0  0  0  0  0  0  0  0  0
   10.4014   23.5519   -1.9353 O   0  0  0  0  0  0  0  0  0  0  0  0
    9.8107   23.3682    0.1829 O   0  0  0  0  0  0  0  0  0  0  0  0
    9.7066   23.7774    1.0193 H   0  0  0  0  0  0  0  0  0  0  0  0
 39 38  2  0  0  0
 38 40  1  0  0  0
 38 37  1  0  0  0
 37 36  1  0  0  0
  6  2  1  0  0  0
  6  7  1  0  0  0
  2  4  1  0  0  0
  2  3  2  0  0  0
  7 11  1  0  0  0
  4  1  1  0  0  0
 36  1  1  0  0  0
 13 11  2  0  0  0
 13 12  1  0  0  0
 11  8  1  0  0  0
  1 20  1  0  0  0
 12 10  2  0  0  0
  8  9  2  0  0  0
 18 17  2  0  0  0
 18 14  1  0  0  0
 10  9  1  0  0  0
 10 14  1  0  0  0
 20 21  2  0  0  0
 20 22  1  0  0  0
 17 19  1  0  0  0
 14 15  2  0  0  0
 22 24  1  0  0  0
 26 25  2  0  0  0
 19 16  2  0  0  0
 15 16  1  0  0  0
 25 24  1  0  0  0
 25 27  1  0  0  0
 24 30  1  0  0  0
 30 31  1  0  0  0
 31 32  1  0  0  0
 33 32  2  0  0  0
 32 34  1  0  0  0
  4  5  1  0  0  0
 40 41  1  0  0  0
 22 23  1  0  0  0
 34 35  1  0  0  0
 27 28  1  0  0  0
 27 29  1  0  0  0
M  END
> <minimizedAffinity>
-9.78023

$$$$
3LJG_EEF_A_302


 41 42  0  0  0  0  0  0  0  0999 V2000
    9.2284   27.8131    3.6288 C   0  0  0  0  0  0  0  0  0  0  0  0
    8.9245   25.3215    3.9118 C   0  0  0  0  0  0  0  0  0  0  0  0
   10.0780   25.1644    4.2279 O   0  0  0  0  0  0  0  0  0  0  0  0
    8.3618   26.6253    3.5795 N   0  0  0  0  0  0  0  0  0  0  0  0
    7.4143   26.7094    3.3256 H   0  0  0  0  0  0  0  0  0  0  0  0
    7.9460   24.1295    3.9335 C   0  0  0  0  0  0  0  0  0  0  0  0
    7.7021   23.5899    5.3491 C   0  0  0  0  0  0  0  0  0  0  0  0
    5.2177   23.9313    5.1850 C   0  0  0  0  0  0  0  0  0  0  0  0
    3.8397   23.6463    5.5356 C   0  0  0  0  0  0  0  0  0  0  0  0
    3.5785   22.5481    6.4588 C   0  0  0  0  0  0  0  0  0  0  0  0
    6.2545   23.1909    5.7150 C   0  0  0  0  0  0  0  0  0  0  0  0
    4.6415   21.7691    7.0122 C   0  0  0  0  0  0  0  0  0  0  0  0
    5.9863   22.0510    6.6703 C   0  0  0  0  0  0  0  0  0  0  0  0
    2.1270   22.2474    6.8287 C   0  0  0  0  0  0  0  0  0  0  0  0
    1.8368   21.1059    7.7443 C   0  0  0  0  0  0  0  0  0  0  0  0
    0.5281   20.8023    8.0847 C   0  0  0  0  0  0  0  0  0  0  0  0
   -0.2211   22.6814    6.6837 C   0  0  0  0  0  0  0  0  0  0  0  0
    1.1404   22.9974    6.3266 C   0  0  0  0  0  0  0  0  0  0  0  0
   -0.5173   21.5846    7.5503 C   0  0  0  0  0  0  0  0  0  0  0  0
    8.4522   28.9459    4.2939 C   0  0  0  0  0  0  0  0  0  0  0  0
    7.9529   29.7983    3.6171 O   0  0  0  0  0  0  0  0  0  0  0  0
    8.6099   29.1352    5.7196 N   0  0  0  0  0  0  0  0  0  0  0  0
    9.0984   28.4859    6.2756 H   0  0  0  0  0  0  0  0  0  0  0  0
    8.0146   30.3260    6.2890 C   0  0  0  0  0  0  0  0  0  0  0  0
    9.0500   31.4255    6.4362 C   0  0  0  0  0  0  0  0  0  0  0  0
    9.3622   31.8217    7.5108 O   0  0  0  0  0  0  0  0  0  0  0  0
    9.5786   31.9947    5.2140 N   0  0  0  0  0  0  0  0  0  0  0  0
   10.2528   32.7109    5.2558 H   0  0  0  0  0  0  0  0  0  0  0  0
    9.2638   31.6654    4.3412 H   0  0  0  0  0  0  0  0  0  0  0  0
    7.2418   30.1092    7.5945 C   0  0  0  0  0  0  0  0  0  0  0  0
    7.6784   28.9155    8.4737 C   0  0  0  0  0  0  0  0  0  0  0  0
    8.7446   29.1033    9.5684 C   0  0  0  0  0  0  0  0  0  0  0  0
    8.4162   29.2111   10.7013 O   0  0  0  0  0  0  0  0  0  0  0  0
   10.0719   29.4251    9.2093 O   0  0  0  0  0  0  0  0  0  0  0  0
   10.3484   29.3455    8.3176 H   0  0  0  0  0  0  0  0  0  0  0  0
    9.6468   28.2681    2.2139 C   0  0  0  0  0  0  0  0  0  0  0  0
    9.0016   27.5815    1.0135 C   0  0  0  0  0  0  0  0  0  0  0  0
    9.6377   26.2583    0.5968 C   0  0  0  0  0  0  0  0  0  0  0  0
    8.9808   25.2791    0.5310 O   0  0  0  0  0  0  0  0  0  0  0  0
   11.0124   26.1095    0.7598 O   0  0  0  0  0  0  0  0  0  0  0  0
   11.5622   26.8661    0.8157 H   0  0  0  0  0  0  0  0  0  0  0  0
 39 38  2  0  0  0
 38 40  1  0  0  0
 38 37  1  0  0  0
 37 36  1  0  0  0
  6  2  1  0  0  0
  6  7  1  0  0  0
  2  4  1  0  0  0
  2  3  2  0  0  0
  7 11  1  0  0  0
  4  1  1  0  0  0
 36  1  1  0  0  0
 13 11  2  0  0  0
 13 12  1  0  0  0
 11  8  1  0  0  0
  1 20  1  0  0  0
 12 10  2  0  0  0
  8  9  2  0  0  0
 18 17  2  0  0  0
 18 14  1  0  0  0
 10  9  1  0  0  0
 10 14  1  0  0  0
 20 21  2  0  0  0
 20 22  1  0  0  0
 17 19  1  0  0  0
 14 15  2  0  0  0
 22 24  1  0  0  0
 26 25  2  0  0  0
 19 16  2  0  0  0
 15 16  1  0  0  0
 25 24  1  0  0  0
 25 27  1  0  0  0
 24 30  1  0  0  0
 30 31  1  0  0  0
 31 32  1  0  0  0
 33 32  2  0  0  0
 32 34  1  0  0  0
  4  5  1  0  0  0
 40 41  1  0  0  0
 22 23  1  0  0  0
 34 35  1  0  0  0
 27 28  1  0  0  0
 27 29  1  0  0  0
M  END
> <minimizedAffinity>
-9.69728

$$$$
3LJG_EEF_A_302


 41 42  0  0  0  0  0  0  0  0999 V2000
   10.2574   26.8769    2.5172 C   0  0  0  0  0  0  0  0  0  0  0  0
    9.0805   24.9294    3.6139 C   0  0  0  0  0  0  0  0  0  0  0  0
   10.0386   24.6694    4.2991 O   0  0  0  0  0  0  0  0  0  0  0  0
    9.0611   26.0326    2.6603 N   0  0  0  0  0  0  0  0  0  0  0  0
    8.2579   26.2101    2.1193 H   0  0  0  0  0  0  0  0  0  0  0  0
    7.7671   24.1396    3.7866 C   0  0  0  0  0  0  0  0  0  0  0  0
    7.5733   23.6195    5.2172 C   0  0  0  0  0  0  0  0  0  0  0  0
    5.9372   22.2441    6.5391 C   0  0  0  0  0  0  0  0  0  0  0  0
    4.6040   21.8474    6.9491 C   0  0  0  0  0  0  0  0  0  0  0  0
    3.4704   22.5929    6.4144 C   0  0  0  0  0  0  0  0  0  0  0  0
    6.1299   23.2917    5.6619 C   0  0  0  0  0  0  0  0  0  0  0  0
    3.6542   23.6834    5.5088 C   0  0  0  0  0  0  0  0  0  0  0  0
    4.9570   24.0671    5.1082 C   0  0  0  0  0  0  0  0  0  0  0  0
    2.0654   22.1754    6.8457 C   0  0  0  0  0  0  0  0  0  0  0  0
    1.9119   21.0561    7.8198 C   0  0  0  0  0  0  0  0  0  0  0  0
    0.6485   20.6477    8.2171 C   0  0  0  0  0  0  0  0  0  0  0  0
   -0.3165   22.3807    6.7608 C   0  0  0  0  0  0  0  0  0  0  0  0
    0.9978   22.8055    6.3447 C   0  0  0  0  0  0  0  0  0  0  0  0
   -0.4816   21.3029    7.6842 C   0  0  0  0  0  0  0  0  0  0  0  0
    9.8517   28.3282    2.7565 C   0  0  0  0  0  0  0  0  0  0  0  0
   10.6708   29.1959    2.6561 O   0  0  0  0  0  0  0  0  0  0  0  0
    8.5833   28.5836    3.4039 N   0  0  0  0  0  0  0  0  0  0  0  0
    7.9366   27.8613    3.5755 H   0  0  0  0  0  0  0  0  0  0  0  0
    8.3110   29.9531    3.7871 C   0  0  0  0  0  0  0  0  0  0  0  0
    7.8613   30.0257    5.2346 C   0  0  0  0  0  0  0  0  0  0  0  0
    7.9112   31.0502    5.8323 O   0  0  0  0  0  0  0  0  0  0  0  0
    7.4352   28.7863    5.8506 N   0  0  0  0  0  0  0  0  0  0  0  0
    7.1343   28.7804    6.7879 H   0  0  0  0  0  0  0  0  0  0  0  0
    7.4465   27.9495    5.3320 H   0  0  0  0  0  0  0  0  0  0  0  0
    7.3485   30.7100    2.8655 C   0  0  0  0  0  0  0  0  0  0  0  0
    7.7030   30.7421    1.3615 C   0  0  0  0  0  0  0  0  0  0  0  0
    7.2207   29.6205    0.4235 C   0  0  0  0  0  0  0  0  0  0  0  0
    6.6470   29.8920   -0.5765 O   0  0  0  0  0  0  0  0  0  0  0  0
    7.2079   28.2827    0.8756 O   0  0  0  0  0  0  0  0  0  0  0  0
    7.6566   28.0506    1.6648 H   0  0  0  0  0  0  0  0  0  0  0  0
   10.8652   26.7630    1.1024 C   0  0  0  0  0  0  0  0  0  0  0  0
    9.9870   26.2170   -0.0198 C   0  0  0  0  0  0  0  0  0  0  0  0
   10.2050   24.7463   -0.3643 C   0  0  0  0  0  0  0  0  0  0  0  0
   10.4958   24.4317   -1.4648 O   0  0  0  0  0  0  0  0  0  0  0  0
    9.6154   23.7851    0.4526 O   0  0  0  0  0  0  0  0  0  0  0  0
    9.3726   24.0021    1.3312 H   0  0  0  0  0  0  0  0  0  0  0  0
 39 38  2  0  0  0
 38 40  1  0  0  0
 38 37  1  0  0  0
 37 36  1  0  0  0
  6  2  1  0  0  0
  6  7  1  0  0  0
  2  4  1  0  0  0
  2  3  2  0  0  0
  7 11  1  0  0  0
  4  1  1  0  0  0
 36  1  1  0  0  0
 13 11  2  0  0  0
 13 12  1  0  0  0
 11  8  1  0  0  0
  1 20  1  0  0  0
 12 10  2  0  0  0
  8  9  2  0  0  0
 18 17  2  0  0  0
 18 14  1  0  0  0
 10  9  1  0  0  0
 10 14  1  0  0  0
 20 21  2  0  0  0
 20 22  1  0  0  0
 17 19  1  0  0  0
 14 15  2  0  0  0
 22 24  1  0  0  0
 26 25  2  0  0  0
 19 16  2  0  0  0
 15 16  1  0  0  0
 25 24  1  0  0  0
 25 27  1  0  0  0
 24 30  1  0  0  0
 30 31  1  0  0  0
 31 32  1  0  0  0
 33 32  2  0  0  0
 32 34  1  0  0  0
  4  5  1  0  0  0
 40 41  1  0  0  0
 22 23  1  0  0  0
 34 35  1  0  0  0
 27 28  1  0  0  0
 27 29  1  0  0  0
M  END
> <minimizedAffinity>
-9.64309

$$$$
3LJG_EEF_A_302


 41 42  0  0  0  0  0  0  0  0999 V2000
    8.2828   28.4081    5.5940 C   0  0  0  0  0  0  0  0  0  0  0  0
    8.4997   26.1056    4.5781 C   0  0  0  0  0  0  0  0  0  0  0  0
    9.7041   26.1714    4.5579 O   0  0  0  0  0  0  0  0  0  0  0  0
    7.6532   27.1809    5.0822 N   0  0  0  0  0  0  0  0  0  0  0  0
    6.6733   27.0868    5.0801 H   0  0  0  0  0  0  0  0  0  0  0  0
    7.7872   24.8089    4.1428 C   0  0  0  0  0  0  0  0  0  0  0  0
    7.6575   23.7929    5.2855 C   0  0  0  0  0  0  0  0  0  0  0  0
    5.1596   24.0415    5.1653 C   0  0  0  0  0  0  0  0  0  0  0  0
    3.7991   23.6955    5.5289 C   0  0  0  0  0  0  0  0  0  0  0  0
    3.5944   22.5672    6.4299 C   0  0  0  0  0  0  0  0  0  0  0  0
    6.2321   23.3299    5.6628 C   0  0  0  0  0  0  0  0  0  0  0  0
    4.6949   21.8175    6.9495 C   0  0  0  0  0  0  0  0  0  0  0  0
    6.0224   22.1590    6.5949 C   0  0  0  0  0  0  0  0  0  0  0  0
    2.1613   22.2021    6.8135 C   0  0  0  0  0  0  0  0  0  0  0  0
    1.9328   21.0711    7.7589 C   0  0  0  0  0  0  0  0  0  0  0  0
    0.6423   20.7096    8.1126 C   0  0  0  0  0  0  0  0  0  0  0  0
   -0.2063   22.5118    6.6678 C   0  0  0  0  0  0  0  0  0  0  0  0
    1.1361   22.8877    6.2970 C   0  0  0  0  0  0  0  0  0  0  0  0
   -0.4433   21.4237    7.5631 C   0  0  0  0  0  0  0  0  0  0  0  0
    7.8735   28.5846    7.0532 C   0  0  0  0  0  0  0  0  0  0  0  0
    6.7124   28.6512    7.3383 O   0  0  0  0  0  0  0  0  0  0  0  0
    8.8894   28.9844    8.0027 N   0  0  0  0  0  0  0  0  0  0  0  0
    9.8414   29.0221    7.7548 H   0  0  0  0  0  0  0  0  0  0  0  0
    8.4378   29.3264    9.3353 C   0  0  0  0  0  0  0  0  0  0  0  0
    8.2616   30.8273    9.4732 C   0  0  0  0  0  0  0  0  0  0  0  0
    7.3330   31.2753   10.0615 O   0  0  0  0  0  0  0  0  0  0  0  0
    9.2373   31.6648    8.8070 N   0  0  0  0  0  0  0  0  0  0  0  0
    9.1670   32.6450    8.8661 H   0  0  0  0  0  0  0  0  0  0  0  0
    9.9710   31.2539    8.2949 H   0  0  0  0  0  0  0  0  0  0  0  0
    9.2855   28.7571   10.4781 C   0  0  0  0  0  0  0  0  0  0  0  0
    8.5434   27.9294   11.5518 C   0  0  0  0  0  0  0  0  0  0  0  0
    9.3145   26.9361   12.4402 C   0  0  0  0  0  0  0  0  0  0  0  0
    8.7239   26.1304   13.0765 O   0  0  0  0  0  0  0  0  0  0  0  0
   10.6818   27.1552   12.7168 O   0  0  0  0  0  0  0  0  0  0  0  0
   11.1641   27.7889   12.2230 H   0  0  0  0  0  0  0  0  0  0  0  0
    7.8263   29.6519    4.8013 C   0  0  0  0  0  0  0  0  0  0  0  0
    8.8549   30.7406    4.5090 C   0  0  0  0  0  0  0  0  0  0  0  0
    8.8380   31.9302    5.4649 C   0  0  0  0  0  0  0  0  0  0  0  0
    9.8481   32.3421    5.9172 O   0  0  0  0  0  0  0  0  0  0  0  0
    7.6581   32.2057    6.1510 O   0  0  0  0  0  0  0  0  0  0  0  0
    6.8393   31.8934    5.8191 H   0  0  0  0  0  0  0  0  0  0  0  0
 39 38  2  0  0  0
 38 40  1  0  0  0
 38 37  1  0  0  0
 37 36  1  0  0  0
  6  2  1  0  0  0
  6  7  1  0  0  0
  2  4  1  0  0  0
  2  3  2  0  0  0
  7 11  1  0  0  0
  4  1  1  0  0  0
 36  1  1  0  0  0
 13 11  2  0  0  0
 13 12  1  0  0  0
 11  8  1  0  0  0
  1 20  1  0  0  0
 12 10  2  0  0  0
  8  9  2  0  0  0
 18 17  2  0  0  0
 18 14  1  0  0  0
 10  9  1  0  0  0
 10 14  1  0  0  0
 20 21  2  0  0  0
 20 22  1  0  0  0
 17 19  1  0  0  0
 14 15  2  0  0  0
 22 24  1  0  0  0
 26 25  2  0  0  0
 19 16  2  0  0  0
 15 16  1  0  0  0
 25 24  1  0  0  0
 25 27  1  0  0  0
 24 30  1  0  0  0
 30 31  1  0  0  0
 31 32  1  0  0  0
 33 32  2  0  0  0
 32 34  1  0  0  0
  4  5  1  0  0  0
 40 41  1  0  0  0
 22 23  1  0  0  0
 34 35  1  0  0  0
 27 28  1  0  0  0
 27 29  1  0  0  0
M  END
> <minimizedAffinity>
-9.52546

$$$$
3LJG_EEF_A_302


 41 42  0  0  0  0  0  0  0  0999 V2000
    8.8646   27.7588    4.9305 C   0  0  0  0  0  0  0  0  0  0  0  0
    8.4922   25.3151    4.4107 C   0  0  0  0  0  0  0  0  0  0  0  0
    9.6588   25.0508    4.5666 O   0  0  0  0  0  0  0  0  0  0  0  0
    7.9546   26.6618    4.5661 N   0  0  0  0  0  0  0  0  0  0  0  0
    6.9951   26.8346    4.4288 H   0  0  0  0  0  0  0  0  0  0  0  0
    7.4754   24.1923    4.1206 C   0  0  0  0  0  0  0  0  0  0  0  0
    7.2750   23.2520    5.3166 C   0  0  0  0  0  0  0  0  0  0  0  0
    5.5887   21.9604    6.6597 C   0  0  0  0  0  0  0  0  0  0  0  0
    4.2428   21.6347    7.0904 C   0  0  0  0  0  0  0  0  0  0  0  0
    3.1428   22.4438    6.5786 C   0  0  0  0  0  0  0  0  0  0  0  0
    5.8235   23.0008    5.7842 C   0  0  0  0  0  0  0  0  0  0  0  0
    3.3707   23.5277    5.6751 C   0  0  0  0  0  0  0  0  0  0  0  0
    4.6855   23.8421    5.2541 C   0  0  0  0  0  0  0  0  0  0  0  0
    1.7246   22.1011    7.0318 C   0  0  0  0  0  0  0  0  0  0  0  0
    0.5749   22.8241    6.4146 C   0  0  0  0  0  0  0  0  0  0  0  0
   -0.7211   22.5429    6.8175 C   0  0  0  0  0  0  0  0  0  0  0  0
    0.1806   20.8789    8.3902 C   0  0  0  0  0  0  0  0  0  0  0  0
    1.5302   21.1720    7.9735 C   0  0  0  0  0  0  0  0  0  0  0  0
   -0.9311   21.5701    7.8174 C   0  0  0  0  0  0  0  0  0  0  0  0
    8.1566   28.6527    5.9442 C   0  0  0  0  0  0  0  0  0  0  0  0
    7.0183   28.4267    6.2393 O   0  0  0  0  0  0  0  0  0  0  0  0
    8.7654   29.9227    6.2756 N   0  0  0  0  0  0  0  0  0  0  0  0
    9.6681   30.1598    5.9623 H   0  0  0  0  0  0  0  0  0  0  0  0
    7.9825   30.8280    7.0906 C   0  0  0  0  0  0  0  0  0  0  0  0
    7.6409   32.0876    6.3163 C   0  0  0  0  0  0  0  0  0  0  0  0
    8.2343   32.3686    5.3273 O   0  0  0  0  0  0  0  0  0  0  0  0
    6.6131   32.9410    6.8753 N   0  0  0  0  0  0  0  0  0  0  0  0
    6.3551   33.7698    6.4108 H   0  0  0  0  0  0  0  0  0  0  0  0
    6.1723   32.6923    7.7197 H   0  0  0  0  0  0  0  0  0  0  0  0
    8.5855   31.1613    8.4596 C   0  0  0  0  0  0  0  0  0  0  0  0
    7.8871   30.5522    9.6965 C   0  0  0  0  0  0  0  0  0  0  0  0
    7.0940   29.2382    9.5748 C   0  0  0  0  0  0  0  0  0  0  0  0
    7.6030   28.2107    9.8714 O   0  0  0  0  0  0  0  0  0  0  0  0
    5.8777   29.2150    8.8576 O   0  0  0  0  0  0  0  0  0  0  0  0
    5.4615   30.0186    8.6149 H   0  0  0  0  0  0  0  0  0  0  0  0
    9.2429   28.6130    3.7012 C   0  0  0  0  0  0  0  0  0  0  0  0
    9.2201   27.9512    2.3264 C   0  0  0  0  0  0  0  0  0  0  0  0
   10.5708   27.4574    1.8156 C   0  0  0  0  0  0  0  0  0  0  0  0
   11.0213   27.8920    0.8142 O   0  0  0  0  0  0  0  0  0  0  0  0
   11.0198   26.2107    2.2435 O   0  0  0  0  0  0  0  0  0  0  0  0
   10.6826   25.8373    3.0339 H   0  0  0  0  0  0  0  0  0  0  0  0
 39 38  2  0  0  0
 38 40  1  0  0  0
 38 37  1  0  0  0
 37 36  1  0  0  0
  6  2  1  0  0  0
  6  7  1  0  0  0
  2  4  1  0  0  0
  2  3  2  0  0  0
  7 11  1  0  0  0
  4  1  1  0  0  0
 36  1  1  0  0  0
 13 11  2  0  0  0
 13 12  1  0  0  0
 11  8  1  0  0  0
  1 20  1  0  0  0
 12 10  2  0  0  0
  8  9  2  0  0  0
 18 17  2  0  0  0
 18 14  1  0  0  0
 10  9  1  0  0  0
 10 14  1  0  0  0
 20 21  2  0  0  0
 20 22  1  0  0  0
 17 19  1  0  0  0
 14 15  2  0  0  0
 22 24  1  0  0  0
 26 25  2  0  0  0
 19 16  2  0  0  0
 15 16  1  0  0  0
 25 24  1  0  0  0
 25 27  1  0  0  0
 24 30  1  0  0  0
 30 31  1  0  0  0
 31 32  1  0  0  0
 33 32  2  0  0  0
 32 34  1  0  0  0
  4  5  1  0  0  0
 40 41  1  0  0  0
 22 23  1  0  0  0
 34 35  1  0  0  0
 27 28  1  0  0  0
 27 29  1  0  0  0
M  END
> <minimizedAffinity>
-9.25691

$$$$
3LJG_EEF_A_302


 41 42  0  0  0  0  0  0  0  0999 V2000
    8.4319   25.3707    2.8975 C   0  0  0  0  0  0  0  0  0  0  0  0
    6.8023   24.2788    4.4891 C   0  0  0  0  0  0  0  0  0  0  0  0
    7.6446   23.5303    4.9198 O   0  0  0  0  0  0  0  0  0  0  0  0
    7.0732   25.2681    3.4524 N   0  0  0  0  0  0  0  0  0  0  0  0
    6.3561   25.8597    3.1281 H   0  0  0  0  0  0  0  0  0  0  0  0
    5.3850   24.2825    5.0972 C   0  0  0  0  0  0  0  0  0  0  0  0
    5.0439   22.9675    5.8108 C   0  0  0  0  0  0  0  0  0  0  0  0
    2.6090   23.5709    5.6585 C   0  0  0  0  0  0  0  0  0  0  0  0
    1.2118   23.4425    6.0249 C   0  0  0  0  0  0  0  0  0  0  0  0
    0.8431   22.3965    6.9718 C   0  0  0  0  0  0  0  0  0  0  0  0
    3.5654   22.7336    6.1954 C   0  0  0  0  0  0  0  0  0  0  0  0
    1.8215   21.5184    7.5327 C   0  0  0  0  0  0  0  0  0  0  0  0
    3.1855   21.6476    7.1752 C   0  0  0  0  0  0  0  0  0  0  0  0
   -0.6288   22.2608    7.3584 C   0  0  0  0  0  0  0  0  0  0  0  0
   -1.3869   23.4829    7.7546 C   0  0  0  0  0  0  0  0  0  0  0  0
   -2.7193   23.3862    8.1237 C   0  0  0  0  0  0  0  0  0  0  0  0
   -2.6022   20.9602    7.7282 C   0  0  0  0  0  0  0  0  0  0  0  0
   -1.2147   21.0590    7.3459 C   0  0  0  0  0  0  0  0  0  0  0  0
   -3.3398   22.1192    8.1214 C   0  0  0  0  0  0  0  0  0  0  0  0
    9.1514   26.5184    3.5997 C   0  0  0  0  0  0  0  0  0  0  0  0
    9.9556   26.2785    4.4538 O   0  0  0  0  0  0  0  0  0  0  0  0
    8.6177   27.8542    3.4444 N   0  0  0  0  0  0  0  0  0  0  0  0
    7.8914   28.0493    2.8091 H   0  0  0  0  0  0  0  0  0  0  0  0
    9.2038   28.8903    4.2689 C   0  0  0  0  0  0  0  0  0  0  0  0
    8.1984   29.4006    5.2844 C   0  0  0  0  0  0  0  0  0  0  0  0
    8.2977   30.4937    5.7366 O   0  0  0  0  0  0  0  0  0  0  0  0
    7.1682   28.4749    5.7077 N   0  0  0  0  0  0  0  0  0  0  0  0
    6.4921   28.7578    6.3650 H   0  0  0  0  0  0  0  0  0  0  0  0
    7.1441   27.5627    5.3382 H   0  0  0  0  0  0  0  0  0  0  0  0
    9.8558   30.0451    3.5008 C   0  0  0  0  0  0  0  0  0  0  0  0
    9.5834   30.1139    1.9810 C   0  0  0  0  0  0  0  0  0  0  0  0
    8.2178   30.5930    1.4554 C   0  0  0  0  0  0  0  0  0  0  0  0
    8.1523   31.5615    0.7767 O   0  0  0  0  0  0  0  0  0  0  0  0
    7.0287   30.0585    1.9980 O   0  0  0  0  0  0  0  0  0  0  0  0
    7.0625   29.2929    2.5371 H   0  0  0  0  0  0  0  0  0  0  0  0
    8.4040   25.6618    1.3815 C   0  0  0  0  0  0  0  0  0  0  0  0
    9.7307   25.7019    0.6286 C   0  0  0  0  0  0  0  0  0  0  0  0
    9.9679   24.5473   -0.3408 C   0  0  0  0  0  0  0  0  0  0  0  0
    9.8607   24.7181   -1.5044 O   0  0  0  0  0  0  0  0  0  0  0  0
    9.8372   23.2473    0.1404 O   0  0  0  0  0  0  0  0  0  0  0  0
    9.9168   23.0773    1.0584 H   0  0  0  0  0  0  0  0  0  0  0  0
 39 38  2  0  0  0
 38 40  1  0  0  0
 38 37  1  0  0  0
 37 36  1  0  0  0
  6  2  1  0  0  0
  6  7  1  0  0  0
  2  4  1  0  0  0
  2  3  2  0  0  0
  7 11  1  0  0  0
  4  1  1  0  0  0
 36  1  1  0  0  0
 13 11  2  0  0  0
 13 12  1  0  0  0
 11  8  1  0  0  0
  1 20  1  0  0  0
 12 10  2  0  0  0
  8  9  2  0  0  0
 18 17  2  0  0  0
 18 14  1  0  0  0
 10  9  1  0  0  0
 10 14  1  0  0  0
 20 21  2  0  0  0
 20 22  1  0  0  0
 17 19  1  0  0  0
 14 15  2  0  0  0
 22 24  1  0  0  0
 26 25  2  0  0  0
 19 16  2  0  0  0
 15 16  1  0  0  0
 25 24  1  0  0  0
 25 27  1  0  0  0
 24 30  1  0  0  0
 30 31  1  0  0  0
 31 32  1  0  0  0
 33 32  2  0  0  0
 32 34  1  0  0  0
  4  5  1  0  0  0
 40 41  1  0  0  0
 22 23  1  0  0  0
 34 35  1  0  0  0
 27 28  1  0  0  0
 27 29  1  0  0  0
M  END
> <minimizedAffinity>
-9.22536

$$$$
3LJG_EEF_A_302


 41 42  0  0  0  0  0  0  0  0999 V2000
    9.6771   27.7451    2.8545 C   0  0  0  0  0  0  0  0  0  0  0  0
    8.7713   25.5740    3.7748 C   0  0  0  0  0  0  0  0  0  0  0  0
    9.6578   25.4892    4.5885 O   0  0  0  0  0  0  0  0  0  0  0  0
    8.6647   26.6779    2.8277 N   0  0  0  0  0  0  0  0  0  0  0  0
    7.9250   26.7085    2.1787 H   0  0  0  0  0  0  0  0  0  0  0  0
    7.6304   24.5363    3.7608 C   0  0  0  0  0  0  0  0  0  0  0  0
    7.5302   23.7495    5.0744 C   0  0  0  0  0  0  0  0  0  0  0  0
    5.9900   22.3118    6.4444 C   0  0  0  0  0  0  0  0  0  0  0  0
    4.6864   21.8651    6.8961 C   0  0  0  0  0  0  0  0  0  0  0  0
    3.5092   22.5689    6.4006 C   0  0  0  0  0  0  0  0  0  0  0  0
    6.1151   23.3674    5.5646 C   0  0  0  0  0  0  0  0  0  0  0  0
    3.6229   23.6670    5.4927 C   0  0  0  0  0  0  0  0  0  0  0  0
    4.8968   24.0996    5.0514 C   0  0  0  0  0  0  0  0  0  0  0  0
    2.1354   22.0986    6.8758 C   0  0  0  0  0  0  0  0  0  0  0  0
    0.9183   22.7976    6.3703 C   0  0  0  0  0  0  0  0  0  0  0  0
   -0.3395   22.4007    6.7963 C   0  0  0  0  0  0  0  0  0  0  0  0
    0.7289   20.6676    8.1785 C   0  0  0  0  0  0  0  0  0  0  0  0
    2.0389   21.0810    7.7378 C   0  0  0  0  0  0  0  0  0  0  0  0
   -0.4465   21.3336    7.7129 C   0  0  0  0  0  0  0  0  0  0  0  0
    8.9900   29.0480    3.2526 C   0  0  0  0  0  0  0  0  0  0  0  0
    8.2922   29.6148    2.4616 O   0  0  0  0  0  0  0  0  0  0  0  0
    9.4488   29.7232    4.4472 N   0  0  0  0  0  0  0  0  0  0  0  0
   10.0945   29.3045    5.0611 H   0  0  0  0  0  0  0  0  0  0  0  0
    8.9119   31.0448    4.6958 C   0  0  0  0  0  0  0  0  0  0  0  0
   10.0217   32.0797    4.7149 C   0  0  0  0  0  0  0  0  0  0  0  0
   10.1795   32.7792    5.6609 O   0  0  0  0  0  0  0  0  0  0  0  0
   10.8209   32.2045    3.5137 N   0  0  0  0  0  0  0  0  0  0  0  0
   11.5532   32.8615    3.4758 H   0  0  0  0  0  0  0  0  0  0  0  0
   10.6320   31.6325    2.7351 H   0  0  0  0  0  0  0  0  0  0  0  0
    8.0172   31.1637    5.9344 C   0  0  0  0  0  0  0  0  0  0  0  0
    8.2403   30.1265    7.0583 C   0  0  0  0  0  0  0  0  0  0  0  0
    7.2796   28.9342    7.2197 C   0  0  0  0  0  0  0  0  0  0  0  0
    7.2583   28.0773    6.4023 O   0  0  0  0  0  0  0  0  0  0  0  0
    6.2401   28.9930    8.1737 O   0  0  0  0  0  0  0  0  0  0  0  0
    6.2415   29.6644    8.8273 H   0  0  0  0  0  0  0  0  0  0  0  0
   10.3334   27.9381    1.4704 C   0  0  0  0  0  0  0  0  0  0  0  0
   11.1997   26.8100    0.9175 C   0  0  0  0  0  0  0  0  0  0  0  0
   12.1902   27.2185   -0.1694 C   0  0  0  0  0  0  0  0  0  0  0  0
   13.1687   26.5823   -0.3497 O   0  0  0  0  0  0  0  0  0  0  0  0
   12.1882   28.5437   -0.5965 O   0  0  0  0  0  0  0  0  0  0  0  0
   11.4278   29.0760   -0.4686 H   0  0  0  0  0  0  0  0  0  0  0  0
 39 38  2  0  0  0
 38 40  1  0  0  0
 38 37  1  0  0  0
 37 36  1  0  0  0
  6  2  1  0  0  0
  6  7  1  0  0  0
  2  4  1  0  0  0
  2  3  2  0  0  0
  7 11  1  0  0  0
  4  1  1  0  0  0
 36  1  1  0  0  0
 13 11  2  0  0  0
 13 12  1  0  0  0
 11  8  1  0  0  0
  1 20  1  0  0  0
 12 10  2  0  0  0
  8  9  2  0  0  0
 18 17  2  0  0  0
 18 14  1  0  0  0
 10  9  1  0  0  0
 10 14  1  0  0  0
 20 21  2  0  0  0
 20 22  1  0  0  0
 17 19  1  0  0  0
 14 15  2  0  0  0
 22 24  1  0  0  0
 26 25  2  0  0  0
 19 16  2  0  0  0
 15 16  1  0  0  0
 25 24  1  0  0  0
 25 27  1  0  0  0
 24 30  1  0  0  0
 30 31  1  0  0  0
 31 32  1  0  0  0
 33 32  2  0  0  0
 32 34  1  0  0  0
  4  5  1  0  0  0
 40 41  1  0  0  0
 22 23  1  0  0  0
 34 35  1  0  0  0
 27 28  1  0  0  0
 27 29  1  0  0  0
M  END
> <minimizedAffinity>
-9.19678

$$$$
3LJG_EEF_A_302


 41 42  0  0  0  0  0  0  0  0999 V2000
    8.6747   27.3405    3.2002 C   0  0  0  0  0  0  0  0  0  0  0  0
    7.9073   25.7574    5.0129 C   0  0  0  0  0  0  0  0  0  0  0  0
    7.0380   26.5112    5.3751 O   0  0  0  0  0  0  0  0  0  0  0  0
    8.8146   26.0606    3.9121 N   0  0  0  0  0  0  0  0  0  0  0  0
    9.5117   25.4172    3.6488 H   0  0  0  0  0  0  0  0  0  0  0  0
    8.0422   24.3631    5.6581 C   0  0  0  0  0  0  0  0  0  0  0  0
    7.1838   23.3014    4.9576 C   0  0  0  0  0  0  0  0  0  0  0  0
    5.5657   22.0275    6.3980 C   0  0  0  0  0  0  0  0  0  0  0  0
    4.2441   21.7157    6.9070 C   0  0  0  0  0  0  0  0  0  0  0  0
    3.1245   22.5363    6.4600 C   0  0  0  0  0  0  0  0  0  0  0  0
    5.7597   23.0654    5.5097 C   0  0  0  0  0  0  0  0  0  0  0  0
    3.3102   23.6178    5.5441 C   0  0  0  0  0  0  0  0  0  0  0  0
    4.6014   23.9184    5.0466 C   0  0  0  0  0  0  0  0  0  0  0  0
    1.7317   22.2084    6.9958 C   0  0  0  0  0  0  0  0  0  0  0  0
    1.5835   21.1160    8.0008 C   0  0  0  0  0  0  0  0  0  0  0  0
    0.3299   20.7883    8.4926 C   0  0  0  0  0  0  0  0  0  0  0  0
   -0.6347   22.5504    7.0713 C   0  0  0  0  0  0  0  0  0  0  0  0
    0.6692   22.8911    6.5568 C   0  0  0  0  0  0  0  0  0  0  0  0
   -0.7957   21.4993    8.0258 C   0  0  0  0  0  0  0  0  0  0  0  0
    9.2029   27.1598    1.7803 C   0  0  0  0  0  0  0  0  0  0  0  0
    8.7478   27.8201    0.8910 O   0  0  0  0  0  0  0  0  0  0  0  0
   10.0001   25.9870    1.4936 N   0  0  0  0  0  0  0  0  0  0  0  0
   10.3055   25.3830    2.2085 H   0  0  0  0  0  0  0  0  0  0  0  0
   10.3271   25.7447    0.1039 C   0  0  0  0  0  0  0  0  0  0  0  0
    9.9736   24.3226   -0.2903 C   0  0  0  0  0  0  0  0  0  0  0  0
    9.4008   23.6102    0.4670 O   0  0  0  0  0  0  0  0  0  0  0  0
   10.4206   23.8741   -1.5927 N   0  0  0  0  0  0  0  0  0  0  0  0
   10.2165   22.9597   -1.8952 H   0  0  0  0  0  0  0  0  0  0  0  0
   10.9285   24.4836   -2.1756 H   0  0  0  0  0  0  0  0  0  0  0  0
   11.7637   26.0945   -0.2993 C   0  0  0  0  0  0  0  0  0  0  0  0
   11.9386   27.1742   -1.3913 C   0  0  0  0  0  0  0  0  0  0  0  0
   11.6622   28.6551   -1.0735 C   0  0  0  0  0  0  0  0  0  0  0  0
   12.5146   29.3271   -0.5995 O   0  0  0  0  0  0  0  0  0  0  0  0
   10.3360   29.1402   -1.0811 O   0  0  0  0  0  0  0  0  0  0  0  0
    9.6496   28.6215   -1.4521 H   0  0  0  0  0  0  0  0  0  0  0  0
    9.4837   28.4620    3.8870 C   0  0  0  0  0  0  0  0  0  0  0  0
    8.8369   29.8368    4.0289 C   0  0  0  0  0  0  0  0  0  0  0  0
    8.2491   30.1445    5.4033 C   0  0  0  0  0  0  0  0  0  0  0  0
    8.8008   30.8940    6.1302 O   0  0  0  0  0  0  0  0  0  0  0  0
    7.3721   29.2204    5.9652 O   0  0  0  0  0  0  0  0  0  0  0  0
    6.9182   28.6115    5.4164 H   0  0  0  0  0  0  0  0  0  0  0  0
 39 38  2  0  0  0
 38 40  1  0  0  0
 38 37  1  0  0  0
 37 36  1  0  0  0
  6  2  1  0  0  0
  6  7  1  0  0  0
  2  4  1  0  0  0
  2  3  2  0  0  0
  7 11  1  0  0  0
  4  1  1  0  0  0
 36  1  1  0  0  0
 13 11  2  0  0  0
 13 12  1  0  0  0
 11  8  1  0  0  0
  1 20  1  0  0  0
 12 10  2  0  0  0
  8  9  2  0  0  0
 18 17  2  0  0  0
 18 14  1  0  0  0
 10  9  1  0  0  0
 10 14  1  0  0  0
 20 21  2  0  0  0
 20 22  1  0  0  0
 17 19  1  0  0  0
 14 15  2  0  0  0
 22 24  1  0  0  0
 26 25  2  0  0  0
 19 16  2  0  0  0
 15 16  1  0  0  0
 25 24  1  0  0  0
 25 27  1  0  0  0
 24 30  1  0  0  0
 30 31  1  0  0  0
 31 32  1  0  0  0
 33 32  2  0  0  0
 32 34  1  0  0  0
  4  5  1  0  0  0
 40 41  1  0  0  0
 22 23  1  0  0  0
 34 35  1  0  0  0
 27 28  1  0  0  0
 27 29  1  0  0  0
M  END
> <minimizedAffinity>
-9.09232

$$$$
3LJG_EEF_A_302


 41 42  0  0  0  0  0  0  0  0999 V2000
    8.6726   27.9272    2.2932 C   0  0  0  0  0  0  0  0  0  0  0  0
    8.1648   25.7899    3.5400 C   0  0  0  0  0  0  0  0  0  0  0  0
    7.8430   25.2157    2.5291 O   0  0  0  0  0  0  0  0  0  0  0  0
    8.6084   27.1790    3.5583 N   0  0  0  0  0  0  0  0  0  0  0  0
    8.8615   27.6105    4.4062 H   0  0  0  0  0  0  0  0  0  0  0  0
    8.2080   25.0309    4.8819 C   0  0  0  0  0  0  0  0  0  0  0  0
    7.6793   23.5950    4.7668 C   0  0  0  0  0  0  0  0  0  0  0  0
    6.1981   22.2568    6.2937 C   0  0  0  0  0  0  0  0  0  0  0  0
    4.9203   21.8876    6.8713 C   0  0  0  0  0  0  0  0  0  0  0  0
    3.7423   22.6527    6.4793 C   0  0  0  0  0  0  0  0  0  0  0  0
    6.2979   23.2969    5.3924 C   0  0  0  0  0  0  0  0  0  0  0  0
    3.8304   23.7357    5.5506 C   0  0  0  0  0  0  0  0  0  0  0  0
    5.0789   24.0925    4.9861 C   0  0  0  0  0  0  0  0  0  0  0  0
    2.3956   22.2641    7.0873 C   0  0  0  0  0  0  0  0  0  0  0  0
    1.3051   23.2809    7.1360 C   0  0  0  0  0  0  0  0  0  0  0  0
    0.0784   22.9595    7.6951 C   0  0  0  0  0  0  0  0  0  0  0  0
    0.9340   20.6979    8.1519 C   0  0  0  0  0  0  0  0  0  0  0  0
    2.2121   21.0317    7.5723 C   0  0  0  0  0  0  0  0  0  0  0  0
   -0.1174   21.6634    8.2169 C   0  0  0  0  0  0  0  0  0  0  0  0
    9.9755   27.5642    1.5869 C   0  0  0  0  0  0  0  0  0  0  0  0
   10.8995   27.1497    2.2258 O   0  0  0  0  0  0  0  0  0  0  0  0
   10.1669   28.0269    0.2294 N   0  0  0  0  0  0  0  0  0  0  0  0
    9.4390   28.4537   -0.2779 H   0  0  0  0  0  0  0  0  0  0  0  0
   11.4809   27.8317   -0.3467 C   0  0  0  0  0  0  0  0  0  0  0  0
   12.0190   29.1345   -0.9088 C   0  0  0  0  0  0  0  0  0  0  0  0
   12.5513   29.1609   -1.9695 O   0  0  0  0  0  0  0  0  0  0  0  0
   11.9037   30.3076   -0.0675 N   0  0  0  0  0  0  0  0  0  0  0  0
   12.2378   31.1769   -0.3865 H   0  0  0  0  0  0  0  0  0  0  0  0
   11.4911   30.2357    0.8235 H   0  0  0  0  0  0  0  0  0  0  0  0
   11.5821   26.6977   -1.3725 C   0  0  0  0  0  0  0  0  0  0  0  0
   11.4542   25.2552   -0.8327 C   0  0  0  0  0  0  0  0  0  0  0  0
   10.0679   24.6072   -0.6629 C   0  0  0  0  0  0  0  0  0  0  0  0
    9.2067   24.8409   -1.4417 O   0  0  0  0  0  0  0  0  0  0  0  0
    9.7346   23.9679    0.5513 O   0  0  0  0  0  0  0  0  0  0  0  0
   10.4036   23.7756    1.1786 H   0  0  0  0  0  0  0  0  0  0  0  0
    8.6526   29.4520    2.5352 C   0  0  0  0  0  0  0  0  0  0  0  0
    9.4756   30.0111    3.6923 C   0  0  0  0  0  0  0  0  0  0  0  0
    8.6762   30.4181    4.9270 C   0  0  0  0  0  0  0  0  0  0  0  0
    9.1370   31.1726    5.7098 O   0  0  0  0  0  0  0  0  0  0  0  0
    7.6595   29.5713    5.3605 O   0  0  0  0  0  0  0  0  0  0  0  0
    7.2722   28.9607    4.7646 H   0  0  0  0  0  0  0  0  0  0  0  0
 39 38  2  0  0  0
 38 40  1  0  0  0
 38 37  1  0  0  0
 37 36  1  0  0  0
  6  2  1  0  0  0
  6  7  1  0  0  0
  2  4  1  0  0  0
  2  3  2  0  0  0
  7 11  1  0  0  0
  4  1  1  0  0  0
 36  1  1  0  0  0
 13 11  2  0  0  0
 13 12  1  0  0  0
 11  8  1  0  0  0
  1 20  1  0  0  0
 12 10  2  0  0  0
  8  9  2  0  0  0
 18 17  2  0  0  0
 18 14  1  0  0  0
 10  9  1  0  0  0
 10 14  1  0  0  0
 20 21  2  0  0  0
 20 22  1  0  0  0
 17 19  1  0  0  0
 14 15  2  0  0  0
 22 24  1  0  0  0
 26 25  2  0  0  0
 19 16  2  0  0  0
 15 16  1  0  0  0
 25 24  1  0  0  0
 25 27  1  0  0  0
 24 30  1  0  0  0
 30 31  1  0  0  0
 31 32  1  0  0  0
 33 32  2  0  0  0
 32 34  1  0  0  0
  4  5  1  0  0  0
 40 41  1  0  0  0
 22 23  1  0  0  0
 34 35  1  0  0  0
 27 28  1  0  0  0
 27 29  1  0  0  0
M  END
> <minimizedAffinity>
-8.88170

$$$$
