5WQC_7MA_A_2001
  RCSB PDB12061720103D
Coordinates from PDB:5WQC:A:2001 Model:1 without hydrogens
 32 34  0  0  0  0            999 V2000
   36.6470   38.3720  -49.9890   C 0  0  0  0  0  0  0  0  0  0  0  0
   39.7970   39.0240  -55.0480   C 0  0  0  0  0  0  0  0  0  0  0  0
   41.3220   40.7000  -54.0850   C 0  0  0  0  0  0  0  0  0  0  0  0
   41.4890   41.8530  -54.8680   C 0  0  0  0  0  0  0  0  0  0  0  0
   42.2690   44.1220  -50.6390   C 0  0  0  0  0  0  0  0  0  0  0  0
   43.4760   39.7370  -56.3420   C 0  0  0  0  0  0  0  0  0  0  0  0
   43.8350   40.6610  -58.5270   C 0  0  0  0  0  0  0  0  0  0  0  0
   44.8190   40.5760  -54.4480   C 0  0  0  0  0  0  0  0  0  0  0  0
   44.4690   40.5830  -55.8120   C 0  0  0  0  0  0  0  0  0  0  0  0
   45.1410   41.4610  -56.6590   C 0  0  0  0  0  0  0  0  0  0  0  0
   44.8260   41.4970  -58.0150   C 0  0  0  0  0  0  0  0  0  0  0  0
   43.1600   39.7830  -57.6960   C 0  0  0  0  0  0  0  0  0  0  0  0
   42.5180   38.5770  -55.3360   S 0  0  0  0  0  0  0  0  0  0  0  0
   41.9670   37.4740  -56.2980   O 0  0  0  0  0  0  0  0  0  0  0  0
   43.3850   37.9740  -54.2270   O 0  0  0  0  0  0  0  0  0  0  0  0
   41.0600   39.4100  -54.4790   N 0  0  0  0  0  0  0  0  0  0  0  0
   41.5020   40.8000  -52.7080   C 0  0  0  0  0  0  0  0  0  0  0  0
   41.8280   41.9520  -52.0570   N 0  0  0  0  0  0  0  0  0  0  0  0
   41.8340   43.0520  -54.1880   C 0  0  0  0  0  0  0  0  0  0  0  0
   41.9840   43.0780  -52.7660   C 0  0  0  0  0  0  0  0  0  0  0  0
   42.3120   44.2040  -52.0630   O 0  0  0  0  0  0  0  0  0  0  0  0
   38.6740   39.0520  -54.0130   C 0  0  0  0  0  0  0  0  0  0  0  0
   37.9460   40.0310  -54.0260   O 0  0  0  0  0  0  0  0  0  0  0  0
   38.4640   38.0070  -53.1730   N 0  0  0  0  0  0  0  0  0  0  0  0
   39.3260   36.7990  -53.0560   C 0  0  0  0  0  0  0  0  0  0  0  0
   38.7670   35.6040  -53.8490   C 0  0  0  0  0  0  0  0  0  0  0  0
   37.3160   38.0600  -52.2580   C 0  0  0  0  0  0  0  0  0  0  0  0
   37.6420   38.4810  -50.9310   C 0  0  0  0  0  0  0  0  0  0  0  0
   36.8620   38.7200  -48.6730   C 0  0  0  0  0  0  0  0  0  0  0  0
   38.0890   39.2090  -48.2860   C 0  0  0  0  0  0  0  0  0  0  0  0
   39.1080   39.3130  -49.2220   N 0  0  0  0  0  0  0  0  0  0  0  0
   38.8940   38.9750  -50.5750   C 0  0  0  0  0  0  0  0  0  0  0  0
  7 11  1  0  0  0  0
  7 12  2  0  0  0  0
 11 10  2  0  0  0  0
 12  6  1  0  0  0  0
 10  9  1  0  0  0  0
  6  9  2  0  0  0  0
  6 13  1  0  0  0  0
 14 13  2  0  0  0  0
  9  8  1  0  0  0  0
 13 16  1  0  0  0  0
 13 15  2  0  0  0  0
  2 16  1  0  0  0  0
  2 22  1  0  0  0  0
  4 19  2  0  0  0  0
  4  3  1  0  0  0  0
 16  3  1  0  0  0  0
 19 20  1  0  0  0  0
  3 17  2  0  0  0  0
 22 23  2  0  0  0  0
 22 24  1  0  0  0  0
 26 25  1  0  0  0  0
 24 25  1  0  0  0  0
 24 27  1  0  0  0  0
 20 18  2  0  0  0  0
 20 21  1  0  0  0  0
 17 18  1  0  0  0  0
 27 28  1  0  0  0  0
 21  5  1  0  0  0  0
 28 32  2  0  0  0  0
 28  1  1  0  0  0  0
 32 31  1  0  0  0  0
  1 29  2  0  0  0  0
 31 30  2  0  0  0  0
 29 30  1  0  0  0  0
A    1
C10
A    2
C13
A    3
C15
A    4
C20
A    5
C22
A    6
C26
A    7
C28
A    8
C32
A    9
C31
A   10
C30
A   11
C29
A   12
C27
A   13
S23
A   14
O24
A   15
O25
A   16
N14
A   17
C16
A   18
N17
A   19
C19
A   20
C18
A   21
O21
A   22
C11
A   23
O12
A   24
N03
A   25
C02
A   26
C01
A   27
C04
A   28
C05
A   29
C09
A   30
C08
A   31
N07
A   32
C06
M  END
>  <InstanceId>
5WQC_7MA_A_2001

>  <ChemCompId>
7MA

>  <PdbId>
5WQC

>  <ChainId>
A

>  <ResidueNumber>
2001

>  <InsertionCode>


>  <Model>
1

>  <AltIds>


>  <MissingHeavyAtoms>
0

>  <ObservedFormula>
C23 N4 O4 S

>  <Name>
N-ethyl-2-[(6-methoxypyridin-3-yl)-(2-methylphenyl)sulfonyl-amino]-N-(pyridin-3-ylmethyl)ethanamide

>  <SystematicName>
~{N}-ethyl-2-[(6-methoxypyridin-3-yl)-(2-methylphenyl)sulfonyl-amino]-~{N}-(pyridin-3-ylmethyl)ethanamide

>  <Synonyms>


>  <Type>
NON-POLYMER

>  <Formula>
C23 H26 N4 O4 S

>  <MolecularWeight>
454.542

>  <ModifiedDate>
2017-11-24

>  <Parent>


>  <OneLetterCode>


>  <SubcomponentList>


>  <AmbiguousFlag>
N

>  <InChI>
InChI=1S/C23H26N4O4S/c1-4-26(16-19-9-7-13-24-14-19)23(28)17-27(20-11-12-22(31-3)25-15-20)32(29,30)21-10-6-5-8-18(21)2/h5-15H,4,16-17H2,1-3H3

>  <InChIKey>
KJPHTXTWFHVJIG-UHFFFAOYSA-N

>  <SMILES>
CCN(Cc1cccnc1)C(=O)CN(c2ccc(nc2)OC)S(=O)(=O)c3ccccc3C

$$$$
