4RPO_T6C_A_401


 11 11  0  0  0  0  0  0  0  0999 V2000
  -33.1421  -11.2434   20.0362 Cl  0  0  0  0  0  0  0  0  0  0  0  0
  -31.9370  -12.4955   20.0335 C   0  0  0  0  0  0  0  0  0  0  0  0
  -30.6002  -12.1675   20.1223 C   0  0  0  0  0  0  0  0  0  0  0  0
  -29.6576  -13.1729   20.1641 C   0  0  0  0  0  0  0  0  0  0  0  0
  -27.9876  -12.7540   20.2660 Cl  0  0  0  0  0  0  0  0  0  0  0  0
  -30.2138  -10.8189   20.1895 O   0  0  0  0  0  0  0  0  0  0  0  0
  -32.3269  -13.8135   19.9507 C   0  0  0  0  0  0  0  0  0  0  0  0
  -31.3650  -14.7936   19.9877 C   0  0  0  0  0  0  0  0  0  0  0  0
  -31.8916  -16.4295   19.9304 Cl  0  0  0  0  0  0  0  0  0  0  0  0
  -30.0271  -14.5002   20.1003 C   0  0  0  0  0  0  0  0  0  0  0  0
  -30.8627  -10.1436   20.1602 H   0  0  0  0  0  0  0  0  0  0  0  0
  1  2  1  0  0  0
  9  8  1  0  0  0
  7  2  2  0  0  0
  7  8  1  0  0  0
  2  3  1  0  0  0
  8 10  2  0  0  0
  3  6  1  0  0  0
  3  4  2  0  0  0
 10  4  1  0  0  0
  4  5  1  0  0  0
  6 11  1  0  0  0
M  END
> <minimizedAffinity>
-7.20479

$$$$
4RPO_T6C_A_401


 11 11  0  0  0  0  0  0  0  0999 V2000
  -28.0067  -12.7691   20.2411 Cl  0  0  0  0  0  0  0  0  0  0  0  0
  -29.6974  -13.1586   20.1433 C   0  0  0  0  0  0  0  0  0  0  0  0
  -30.6365  -12.1498   20.0880 C   0  0  0  0  0  0  0  0  0  0  0  0
  -31.9712  -12.4730   19.9655 C   0  0  0  0  0  0  0  0  0  0  0  0
  -33.1397  -11.2057   19.9063 Cl  0  0  0  0  0  0  0  0  0  0  0  0
  -30.2250  -10.8078   20.1364 O   0  0  0  0  0  0  0  0  0  0  0  0
  -30.0899  -14.4780   20.1129 C   0  0  0  0  0  0  0  0  0  0  0  0
  -31.4273  -14.7700   19.9974 C   0  0  0  0  0  0  0  0  0  0  0  0
  -31.8769  -16.4277   19.9143 Cl  0  0  0  0  0  0  0  0  0  0  0  0
  -32.3851  -13.7877   19.9155 C   0  0  0  0  0  0  0  0  0  0  0  0
  -29.3153  -10.5994   20.2198 H   0  0  0  0  0  0  0  0  0  0  0  0
  1  2  1  0  0  0
  9  8  1  0  0  0
  7  2  2  0  0  0
  7  8  1  0  0  0
  2  3  1  0  0  0
  8 10  2  0  0  0
  3  6  1  0  0  0
  3  4  2  0  0  0
 10  4  1  0  0  0
  4  5  1  0  0  0
  6 11  1  0  0  0
M  END
> <minimizedAffinity>
-7.17653

$$$$
4RPO_T6C_A_401


 11 11  0  0  0  0  0  0  0  0999 V2000
  -28.1559  -12.1856   20.5015 Cl  0  0  0  0  0  0  0  0  0  0  0  0
  -29.7782  -12.7371   20.2124 C   0  0  0  0  0  0  0  0  0  0  0  0
  -30.0517  -14.0885   20.1739 C   0  0  0  0  0  0  0  0  0  0  0  0
  -31.3508  -14.5115   19.9881 C   0  0  0  0  0  0  0  0  0  0  0  0
  -31.6828  -16.2031   19.9321 Cl  0  0  0  0  0  0  0  0  0  0  0  0
  -29.0123  -15.0176   20.3437 O   0  0  0  0  0  0  0  0  0  0  0  0
  -30.7864  -11.8169   20.0311 C   0  0  0  0  0  0  0  0  0  0  0  0
  -32.0701  -12.2678   19.8410 C   0  0  0  0  0  0  0  0  0  0  0  0
  -33.3107  -11.0901   19.6659 Cl  0  0  0  0  0  0  0  0  0  0  0  0
  -32.3786  -13.6070   19.8220 C   0  0  0  0  0  0  0  0  0  0  0  0
  -28.1330  -14.7191   20.4692 H   0  0  0  0  0  0  0  0  0  0  0  0
  1  2  1  0  0  0
  9  8  1  0  0  0
  7  2  2  0  0  0
  7  8  1  0  0  0
  2  3  1  0  0  0
  8 10  2  0  0  0
  3  6  1  0  0  0
  3  4  2  0  0  0
 10  4  1  0  0  0
  4  5  1  0  0  0
  6 11  1  0  0  0
M  END
> <minimizedAffinity>
-6.03066

$$$$
4RPO_T6C_A_401


 11 11  0  0  0  0  0  0  0  0999 V2000
  -31.7526  -16.1972   19.7577 Cl  0  0  0  0  0  0  0  0  0  0  0  0
  -31.3849  -14.5046   19.8979 C   0  0  0  0  0  0  0  0  0  0  0  0
  -30.0874  -14.0963   20.1267 C   0  0  0  0  0  0  0  0  0  0  0  0
  -29.8030  -12.7488   20.1911 C   0  0  0  0  0  0  0  0  0  0  0  0
  -28.1795  -12.2469   20.4866 Cl  0  0  0  0  0  0  0  0  0  0  0  0
  -29.0686  -15.0522   20.2710 O   0  0  0  0  0  0  0  0  0  0  0  0
  -32.3948  -13.5773   19.7708 C   0  0  0  0  0  0  0  0  0  0  0  0
  -32.0827  -12.2416   19.8465 C   0  0  0  0  0  0  0  0  0  0  0  0
  -33.3611  -11.1112   19.6355 Cl  0  0  0  0  0  0  0  0  0  0  0  0
  -30.7962  -11.8025   20.0491 C   0  0  0  0  0  0  0  0  0  0  0  0
  -29.2731  -15.9655   20.2255 H   0  0  0  0  0  0  0  0  0  0  0  0
  1  2  1  0  0  0
  9  8  1  0  0  0
  7  2  2  0  0  0
  7  8  1  0  0  0
  2  3  1  0  0  0
  8 10  2  0  0  0
  3  6  1  0  0  0
  3  4  2  0  0  0
 10  4  1  0  0  0
  4  5  1  0  0  0
  6 11  1  0  0  0
M  END
> <minimizedAffinity>
-6.02990

$$$$
4RPO_T6C_A_401


 11 11  0  0  0  0  0  0  0  0999 V2000
  -31.3847  -16.5348   20.3390 Cl  0  0  0  0  0  0  0  0  0  0  0  0
  -30.9901  -14.8941   19.9240 C   0  0  0  0  0  0  0  0  0  0  0  0
  -31.9094  -14.1097   19.2591 C   0  0  0  0  0  0  0  0  0  0  0  0
  -31.5999  -12.7963   18.9757 C   0  0  0  0  0  0  0  0  0  0  0  0
  -32.7515  -11.8251   18.1359 Cl  0  0  0  0  0  0  0  0  0  0  0  0
  -33.1550  -14.6475   18.8960 O   0  0  0  0  0  0  0  0  0  0  0  0
  -29.7595  -14.3828   20.2708 C   0  0  0  0  0  0  0  0  0  0  0  0
  -29.4764  -13.0727   19.9693 C   0  0  0  0  0  0  0  0  0  0  0  0
  -27.9488  -12.4543   20.4599 Cl  0  0  0  0  0  0  0  0  0  0  0  0
  -30.3801  -12.2586   19.3295 C   0  0  0  0  0  0  0  0  0  0  0  0
  -33.3549  -15.5414   19.0934 H   0  0  0  0  0  0  0  0  0  0  0  0
  1  2  1  0  0  0
  9  8  1  0  0  0
  7  2  2  0  0  0
  7  8  1  0  0  0
  2  3  1  0  0  0
  8 10  2  0  0  0
  3  6  1  0  0  0
  3  4  2  0  0  0
 10  4  1  0  0  0
  4  5  1  0  0  0
  6 11  1  0  0  0
M  END
> <minimizedAffinity>
-5.33807

$$$$
4RPO_T6C_A_401


 11 11  0  0  0  0  0  0  0  0999 V2000
  -32.8317  -11.7299   18.3438 Cl  0  0  0  0  0  0  0  0  0  0  0  0
  -31.6525  -12.7142   19.1564 C   0  0  0  0  0  0  0  0  0  0  0  0
  -31.9240  -14.0404   19.4209 C   0  0  0  0  0  0  0  0  0  0  0  0
  -30.9620  -14.8210   20.0261 C   0  0  0  0  0  0  0  0  0  0  0  0
  -31.3130  -16.4760   20.3615 Cl  0  0  0  0  0  0  0  0  0  0  0  0
  -33.1649  -14.5868   19.0547 O   0  0  0  0  0  0  0  0  0  0  0  0
  -30.4456  -12.1633   19.5252 C   0  0  0  0  0  0  0  0  0  0  0  0
  -29.5089  -12.9635   20.1330 C   0  0  0  0  0  0  0  0  0  0  0  0
  -27.9955  -12.2539   20.5363 Cl  0  0  0  0  0  0  0  0  0  0  0  0
  -29.7398  -14.2942   20.3880 C   0  0  0  0  0  0  0  0  0  0  0  0
  -33.8116  -14.0472   18.6440 H   0  0  0  0  0  0  0  0  0  0  0  0
  1  2  1  0  0  0
  9  8  1  0  0  0
  7  2  2  0  0  0
  7  8  1  0  0  0
  2  3  1  0  0  0
  8 10  2  0  0  0
  3  6  1  0  0  0
  3  4  2  0  0  0
 10  4  1  0  0  0
  4  5  1  0  0  0
  6 11  1  0  0  0
M  END
> <minimizedAffinity>
-5.29248

$$$$
4RPO_T6C_A_401


 11 11  0  0  0  0  0  0  0  0999 V2000
  -30.6475  -11.9369   16.6781 Cl  0  0  0  0  0  0  0  0  0  0  0  0
  -30.8403  -12.2276   18.3805 C   0  0  0  0  0  0  0  0  0  0  0  0
  -32.0127  -11.8710   19.0136 C   0  0  0  0  0  0  0  0  0  0  0  0
  -32.1692  -12.1482   20.3551 C   0  0  0  0  0  0  0  0  0  0  0  0
  -33.6347  -11.6906   21.1412 Cl  0  0  0  0  0  0  0  0  0  0  0  0
  -33.0401  -11.2497   18.2849 O   0  0  0  0  0  0  0  0  0  0  0  0
  -29.8197  -12.8226   19.0879 C   0  0  0  0  0  0  0  0  0  0  0  0
  -30.0014  -13.0802   20.4250 C   0  0  0  0  0  0  0  0  0  0  0  0
  -28.7246  -13.8675   21.2657 Cl  0  0  0  0  0  0  0  0  0  0  0  0
  -31.1669  -12.7593   21.0790 C   0  0  0  0  0  0  0  0  0  0  0  0
  -32.9230  -11.0659   17.3736 H   0  0  0  0  0  0  0  0  0  0  0  0
  1  2  1  0  0  0
  9  8  1  0  0  0
  7  2  2  0  0  0
  7  8  1  0  0  0
  2  3  1  0  0  0
  8 10  2  0  0  0
  3  6  1  0  0  0
  3  4  2  0  0  0
 10  4  1  0  0  0
  4  5  1  0  0  0
  6 11  1  0  0  0
M  END
> <minimizedAffinity>
-4.65398

$$$$
4RPO_T6C_A_401


 11 11  0  0  0  0  0  0  0  0999 V2000
  -33.6201  -11.6916   21.1306 Cl  0  0  0  0  0  0  0  0  0  0  0  0
  -32.1535  -12.1759   20.3342 C   0  0  0  0  0  0  0  0  0  0  0  0
  -31.9737  -11.9052   18.9937 C   0  0  0  0  0  0  0  0  0  0  0  0
  -30.7869  -12.2552   18.3854 C   0  0  0  0  0  0  0  0  0  0  0  0
  -30.5738  -11.9214   16.7067 Cl  0  0  0  0  0  0  0  0  0  0  0  0
  -32.9886  -11.2601   18.2682 O   0  0  0  0  0  0  0  0  0  0  0  0
  -31.1722  -12.8223   21.0520 C   0  0  0  0  0  0  0  0  0  0  0  0
  -30.0029  -13.1652   20.4177 C   0  0  0  0  0  0  0  0  0  0  0  0
  -28.7809  -13.9280   21.3567 Cl  0  0  0  0  0  0  0  0  0  0  0  0
  -29.7837  -12.8875   19.0897 C   0  0  0  0  0  0  0  0  0  0  0  0
  -33.7912  -11.0268   18.6915 H   0  0  0  0  0  0  0  0  0  0  0  0
  1  2  1  0  0  0
  9  8  1  0  0  0
  7  2  2  0  0  0
  7  8  1  0  0  0
  2  3  1  0  0  0
  8 10  2  0  0  0
  3  6  1  0  0  0
  3  4  2  0  0  0
 10  4  1  0  0  0
  4  5  1  0  0  0
  6 11  1  0  0  0
M  END
> <minimizedAffinity>
-4.65035

$$$$
4RPO_T6C_A_401


 11 11  0  0  0  0  0  0  0  0999 V2000
  -28.1228  -12.1289   20.8784 Cl  0  0  0  0  0  0  0  0  0  0  0  0
  -29.5628  -12.1081   19.9060 C   0  0  0  0  0  0  0  0  0  0  0  0
  -30.8003  -12.0051   20.5065 C   0  0  0  0  0  0  0  0  0  0  0  0
  -31.9315  -11.9447   19.7206 C   0  0  0  0  0  0  0  0  0  0  0  0
  -33.4756  -11.8253   20.4798 Cl  0  0  0  0  0  0  0  0  0  0  0  0
  -30.8953  -11.9426   21.9064 O   0  0  0  0  0  0  0  0  0  0  0  0
  -29.4582  -12.1863   18.5352 C   0  0  0  0  0  0  0  0  0  0  0  0
  -30.6031  -12.1307   17.7780 C   0  0  0  0  0  0  0  0  0  0  0  0
  -30.4309  -12.1830   16.0679 Cl  0  0  0  0  0  0  0  0  0  0  0  0
  -31.8485  -12.0037   18.3452 C   0  0  0  0  0  0  0  0  0  0  0  0
  -30.1201  -11.9846   22.4309 H   0  0  0  0  0  0  0  0  0  0  0  0
  1  2  1  0  0  0
  9  8  1  0  0  0
  7  2  2  0  0  0
  7  8  1  0  0  0
  2  3  1  0  0  0
  8 10  2  0  0  0
  3  6  1  0  0  0
  3  4  2  0  0  0
 10  4  1  0  0  0
  4  5  1  0  0  0
  6 11  1  0  0  0
M  END
> <minimizedAffinity>
-4.48419

$$$$
