2CBU_CTS_A_1447
  RCSB PDB12061705143D
Coordinates from PDB:2CBU:A:1447 Model:1 without hydrogens
 13 14  0  0  0  0            999 V2000
   -0.5070   10.8440   10.6270   C 0  0  0  0  0  0  0  0  0  0  0  0
    0.3330   11.6930    9.6800   C 0  0  0  0  0  0  0  0  0  0  0  0
   -0.2730   11.9170    8.2970   C 0  0  0  0  0  0  0  0  0  0  0  0
   -1.0850   10.6940    7.8910   C 0  0  0  0  0  0  0  0  0  0  0  0
   -2.3280   10.6590    8.7820   C 0  0  0  0  0  0  0  0  0  0  0  0
   -3.1010    9.3570    8.7240   C 0  0  0  0  0  0  0  0  0  0  0  0
    0.5420   12.9510   10.3040   O 0  0  0  0  0  0  0  0  0  0  0  0
    0.8230   12.2310    7.4310   O 0  0  0  0  0  0  0  0  0  0  0  0
   -1.5210   10.8180    6.5390   O 0  0  0  0  0  0  0  0  0  0  0  0
   -2.2500    8.1960    8.8240   O 0  0  0  0  0  0  0  0  0  0  0  0
   -1.8710   10.5690   10.1820   N 0  0  0  0  0  0  0  0  0  0  0  0
   -3.8450    9.3820   10.0520   C 0  0  0  0  0  0  0  0  0  0  0  0
   -2.8230    9.8740   11.0510   C 0  0  0  0  0  0  0  0  0  0  0  0
  1  2  1  0  0  0  0
  1 11  1  0  0  0  0
  2  3  1  0  0  0  0
  2  7  1  0  0  0  0
  3  4  1  0  0  0  0
  3  8  1  0  0  0  0
  4  5  1  0  0  0  0
  4  9  1  0  0  0  0
  5  6  1  0  0  0  0
  5 11  1  0  0  0  0
  6 10  1  0  0  0  0
  6 12  1  0  0  0  0
 11 13  1  0  0  0  0
 12 13  1  0  0  0  0
A    1
C1
A    2
C2
A    3
C3
A    4
C4
A    5
C5
A    6
C6
A    7
O2
A    8
O3
A    9
O4
A   10
O6
A   11
N
A   12
C7
A   13
C8
M  END
>  <InstanceId>
2CBU_CTS_A_1447

>  <ChemCompId>
CTS

>  <PdbId>
2CBU

>  <ChainId>
A

>  <ResidueNumber>
1447

>  <InsertionCode>


>  <Model>
1

>  <AltIds>


>  <MissingHeavyAtoms>
0

>  <ObservedFormula>
C8 N O4

>  <Name>
CASTANOSPERMINE

>  <SystematicName>
(1S,4S,6S,7R,8R,8aR)-1,2,3,5,6,7,8,8a-octahydroindolizine-1,6,7,8-tetrol

>  <Synonyms>
(1S,6S,7R,8R,8AR)-1,6,7,8-TETRAHYDROXYINDOLIZIDINE

>  <Type>
NON-POLYMER

>  <Formula>
C8 H15 N O4

>  <MolecularWeight>
189.209

>  <ModifiedDate>
2011-06-04

>  <Parent>


>  <OneLetterCode>


>  <SubcomponentList>


>  <AmbiguousFlag>
N

>  <InChI>
InChI=1S/C8H15NO4/c10-4-1-2-9-3-5(11)7(12)8(13)6(4)9/h4-8,10-13H,1-3H2/t4-,5-,6+,7+,8+/m0/s1

>  <InChIKey>
JDVVGAQPNNXQDW-TVNFTVLESA-N

>  <SMILES>
C1C[N@]2C[C@@H]([C@H]([C@@H]([C@H]2[C@H]1O)O)O)O

$$$$
