4Q90_4H2_A_302
  RCSB PDB12061714223D
Coordinates from PDB:4Q90:A:302 Model:1 without hydrogens
  8  8  0  0  0  0            999 V2000
   14.9650    5.1160   15.3870   C 0  0  0  0  0  0  0  0  0  0  0  0
   15.4050    3.6850   15.0980   C 0  0  0  0  0  0  0  0  0  0  0  0
   15.0420    2.6320   15.9920   C 0  0  0  0  0  0  0  0  0  0  0  0
   15.4480    1.3690   15.7460   C 0  0  0  0  0  0  0  0  0  0  0  0
   15.0110    0.0610   16.8650   S 0  0  0  0  0  0  0  0  0  0  0  0
   16.2230    1.0920   14.6150   N 0  0  0  0  0  0  0  0  0  0  0  0
   16.5300    2.0980   13.7300   C 0  0  0  0  0  0  0  0  0  0  0  0
   16.1180    3.4100   13.9910   C 0  0  0  0  0  0  0  0  0  0  0  0
  7  8  2  0  0  0  0
  7  6  1  0  0  0  0
  8  2  1  0  0  0  0
  6  4  1  0  0  0  0
  2  1  1  0  0  0  0
  2  3  2  0  0  0  0
  4  3  1  0  0  0  0
  4  5  2  0  0  0  0
A    1
C6
A    2
C3
A    3
C2
A    4
C1
A    5
S1
A    6
N1
A    7
C5
A    8
C4
M  END
>  <InstanceId>
4Q90_4H2_A_302

>  <ChemCompId>
4H2

>  <PdbId>
4Q90

>  <ChainId>
A

>  <ResidueNumber>
302

>  <InsertionCode>


>  <Model>
1

>  <AltIds>


>  <MissingHeavyAtoms>
0

>  <ObservedFormula>
C6 N S

>  <Name>
4-methylpyridine-2(1H)-thione

>  <SystematicName>
4-methyl-1H-pyridine-2-thione

>  <Synonyms>


>  <Type>
NON-POLYMER

>  <Formula>
C6 H7 N S

>  <MolecularWeight>
125.191

>  <ModifiedDate>
2015-03-06

>  <Parent>


>  <OneLetterCode>


>  <SubcomponentList>


>  <AmbiguousFlag>
N

>  <InChI>
InChI=1S/C6H7NS/c1-5-2-3-7-6(8)4-5/h2-4H,1H3,(H,7,8)

>  <InChIKey>
KGYJCSZMSPBJFS-UHFFFAOYSA-N

>  <SMILES>
CC1=CC(=S)NC=C1

$$$$
