4FEW_PP2_A_302
  RCSB PDB12061712313D
Coordinates from PDB:4FEW:A:302 Model:1 without hydrogens
 21 23  0  0  0  0            999 V2000
  -21.3120  -27.3190  -17.9070   C 0  0  0  0  0  0  0  0  0  0  0  0
  -21.4630  -26.0450  -18.3030   N 0  0  0  0  0  0  0  0  0  0  0  0
  -21.7980  -25.7750  -19.5440   C 0  0  0  0  0  0  0  0  0  0  0  0
  -21.9830  -26.7390  -20.4280   N 0  0  0  0  0  0  0  0  0  0  0  0
  -21.8410  -28.0290  -20.1120   C 0  0  0  0  0  0  0  0  0  0  0  0
  -21.4900  -28.3660  -18.8030   C 0  0  0  0  0  0  0  0  0  0  0  0
  -21.2480  -29.5130  -18.0280   C 0  0  0  0  0  0  0  0  0  0  0  0
  -20.9500  -29.1030  -16.7960   N 0  3  0  0  0  0  0  0  0  0  0  0
  -20.9900  -27.8700  -16.7340   N 0  0  0  0  0  0  0  0  0  0  0  0
  -21.2940  -30.8560  -18.3990   C 0  0  0  0  0  0  0  0  0  0  0  0
  -21.6080  -31.2860  -19.6790   C 0  0  0  0  0  0  0  0  0  0  0  0
  -21.6520  -32.6310  -20.0010   C 0  0  0  0  0  0  0  0  0  0  0  0
  -21.3820  -33.5730  -19.0210   C 0  0  0  0  0  0  0  0  0  0  0  0
  -21.0710  -33.1640  -17.7290   C 0  0  0  0  0  0  0  0  0  0  0  0
  -21.0320  -31.8090  -17.4200   C 0  0  0  0  0  0  0  0  0  0  0  0
  -20.6860  -27.1140  -15.4890   C 0  0  0  0  0  0  0  0  0  0  0  0
  -21.9360  -26.3730  -15.0330   C 0  0  0  0  0  0  0  0  0  0  0  0
  -20.2340  -28.1320  -14.4450   C 0  0  0  0  0  0  0  0  0  0  0  0
  -19.5410  -26.1240  -15.7610   C 0  0  0  0  0  0  0  0  0  0  0  0
  -22.0540  -28.9110  -21.0800   N 0  0  0  0  0  0  0  0  0  0  0  0
  -21.4320  -35.2520  -19.4220  Cl 0  0  0  0  0  0  0  0  0  0  0  0
  1  2  1  0  0  0  0
  1  6  2  0  0  0  0
  1  9  1  0  0  0  0
  2  3  2  0  0  0  0
  3  4  1  0  0  0  0
  4  5  2  0  0  0  0
  5  6  1  0  0  0  0
  5 20  1  0  0  0  0
  6  7  1  0  0  0  0
  7  8  2  0  0  0  0
  7 10  1  0  0  0  0
  8  9  1  0  0  0  0
  9 16  1  0  0  0  0
 10 11  1  0  0  0  0
 10 15  2  0  0  0  0
 11 12  2  0  0  0  0
 12 13  1  0  0  0  0
 13 14  2  0  0  0  0
 13 21  1  0  0  0  0
 14 15  1  0  0  0  0
 16 17  1  0  0  0  0
 16 18  1  0  0  0  0
 16 19  1  0  0  0  0
M  CHG  1   8   1
A    1
C1
A    2
N2
A    3
C3
A    4
N4
A    5
C5
A    6
C6
A    7
C8
A    8
N9
A    9
N10
A   10
C11
A   11
C12
A   12
C13
A   13
C14
A   14
C15
A   15
C16
A   16
C22
A   17
C23
A   18
C24
A   19
C25
A   20
N25
A   21
CL
M  END
>  <InstanceId>
4FEW_PP2_A_302

>  <ChemCompId>
PP2

>  <PdbId>
4FEW

>  <ChainId>
A

>  <ResidueNumber>
302

>  <InsertionCode>


>  <Model>
1

>  <AltIds>


>  <MissingHeavyAtoms>
0

>  <ObservedFormula>
C15 N5 Cl

>  <Name>
1-TERT-BUTYL-3-(4-CHLORO-PHENYL)-1H-PYRAZOLO[3,4-D]PYRIMIDIN-4-YLAMINE

>  <SystematicName>
1-tert-butyl-3-(4-chlorophenyl)pyrazolo[4,5-e]pyrimidin-2-ium-4-amine

>  <Synonyms>


>  <Type>
NON-POLYMER

>  <Formula>
C15 H17 Cl N5

>  <MolecularWeight>
302.782

>  <ModifiedDate>
2011-06-04

>  <Parent>


>  <OneLetterCode>


>  <SubcomponentList>


>  <AmbiguousFlag>
N

>  <InChI>
InChI=1S/C15H16ClN5/c1-15(2,3)21-14-11(13(17)18-8-19-14)12(20-21)9-4-6-10(16)7-5-9/h4-8H,1-3H3,(H2,17,18,19)/p+1

>  <InChIKey>
PBBRWFOVCUAONR-UHFFFAOYSA-O

>  <SMILES>
CC(C)(C)n1c2c(c([nH+]1)c3ccc(cc3)Cl)c(ncn2)N

$$$$
