5SZ6_72G_A_302


 20 21  0  0  0  0  0  0  0  0999 V2000
   16.3610    5.4530   15.2425 C   0  0  0  0  0  0  0  0  0  0  0  0
   15.1894    5.1804   15.7194 C   0  0  0  0  0  0  0  0  0  0  0  0
   14.8875    3.8475   16.2762 C   0  0  0  0  0  0  0  0  0  0  0  0
   15.8307    2.8819   16.3268 C   0  0  0  0  0  0  0  0  0  0  0  0
   17.1710    3.2181   15.7576 C   0  0  0  0  0  0  0  0  0  0  0  0
   17.4022    4.4014   15.2309 C   0  0  0  0  0  0  0  0  0  0  0  0
   17.8285    8.8467   14.2882 C   0  0  0  0  0  0  0  0  0  0  0  0
   17.6799    7.5822   14.8467 C   0  0  0  0  0  0  0  0  0  0  0  0
   16.7768    9.3464   13.5852 C   0  0  0  0  0  0  0  0  0  0  0  0
   15.6536    8.6506   13.3681 C   0  0  0  0  0  0  0  0  0  0  0  0
   15.5283    7.3938   13.9215 C   0  0  0  0  0  0  0  0  0  0  0  0
   16.5397    6.8428   14.6220 C   0  0  0  0  0  0  0  0  0  0  0  0
   19.9638    9.3797   15.3232 O   0  0  0  0  0  0  0  0  0  0  0  0
   19.1301    9.6338   14.5127 C   0  0  0  0  0  0  0  0  0  0  0  0
   15.5036    1.2388   16.9484 S   0  0  0  0  0  0  0  0  0  0  0  0
   15.9467    1.3239   18.3584 O   0  0  0  0  0  0  0  0  0  0  0  0
   14.0733    0.9499   16.7845 O   0  0  0  0  0  0  0  0  0  0  0  0
   16.3965    0.2140   16.0654 N   0  0  0  0  0  0  0  0  0  0  0  0
   17.3855    0.4293   16.1915 H   0  0  0  0  0  0  0  0  0  0  0  0
   16.1504    0.3106   15.0803 H   0  0  0  0  0  0  0  0  0  0  0  0
  9 10  2  0  0  0
  9  7  1  0  0  0
 14  7  1  0  0  0
 14 13  2  0  0  0
 10 11  1  0  0  0
  7  8  2  0  0  0
 11 12  2  0  0  0
  8 12  1  0  0  0
 12  1  1  0  0  0
  6  1  2  0  0  0
  6  5  1  0  0  0
  1  2  1  0  0  0
  5  4  2  0  0  0
  2  3  2  0  0  0
  4  3  1  0  0  0
  4 15  1  0  0  0
 18 15  1  0  0  0
 15 16  2  0  0  0
 15 17  2  0  0  0
 18 19  1  0  0  0
 18 20  1  0  0  0
M  END
> <minimizedAffinity>
-7.48447

$$$$
5SZ6_72G_A_302


 20 21  0  0  0  0  0  0  0  0999 V2000
   16.3495    5.4433   15.1845 C   0  0  0  0  0  0  0  0  0  0  0  0
   17.2801    4.5449   15.1522 C   0  0  0  0  0  0  0  0  0  0  0  0
   17.0542    3.1972   15.7094 C   0  0  0  0  0  0  0  0  0  0  0  0
   15.8632    2.8544   16.2467 C   0  0  0  0  0  0  0  0  0  0  0  0
   14.8102    3.9142   16.2836 C   0  0  0  0  0  0  0  0  0  0  0  0
   15.0507    5.1202   15.8158 C   0  0  0  0  0  0  0  0  0  0  0  0
   18.3109    8.6044   14.3231 C   0  0  0  0  0  0  0  0  0  0  0  0
   17.9879    7.3413   14.8059 C   0  0  0  0  0  0  0  0  0  0  0  0
   17.3087    9.3344   13.7639 C   0  0  0  0  0  0  0  0  0  0  0  0
   16.0650    8.8619   13.6127 C   0  0  0  0  0  0  0  0  0  0  0  0
   15.7658    7.6028   14.0885 C   0  0  0  0  0  0  0  0  0  0  0  0
   16.7191    6.8296   14.6457 C   0  0  0  0  0  0  0  0  0  0  0  0
   20.3028    9.3558   15.4990 O   0  0  0  0  0  0  0  0  0  0  0  0
   19.7464    9.1353   14.4702 C   0  0  0  0  0  0  0  0  0  0  0  0
   15.5534    1.2525   16.9753 S   0  0  0  0  0  0  0  0  0  0  0  0
   16.3133    0.3359   16.0953 O   0  0  0  0  0  0  0  0  0  0  0  0
   16.0183    1.2712   18.3680 O   0  0  0  0  0  0  0  0  0  0  0  0
   13.9525    1.0073   16.9125 N   0  0  0  0  0  0  0  0  0  0  0  0
   13.6479    0.9974   15.9391 H   0  0  0  0  0  0  0  0  0  0  0  0
   13.4738    1.7576   17.4109 H   0  0  0  0  0  0  0  0  0  0  0  0
  9 10  2  0  0  0
  9  7  1  0  0  0
 14  7  1  0  0  0
 14 13  2  0  0  0
 10 11  1  0  0  0
  7  8  2  0  0  0
 11 12  2  0  0  0
  8 12  1  0  0  0
 12  1  1  0  0  0
  6  1  2  0  0  0
  6  5  1  0  0  0
  1  2  1  0  0  0
  5  4  2  0  0  0
  2  3  2  0  0  0
  4  3  1  0  0  0
  4 15  1  0  0  0
 18 15  1  0  0  0
 15 16  2  0  0  0
 15 17  2  0  0  0
 18 19  1  0  0  0
 18 20  1  0  0  0
M  END
> <minimizedAffinity>
-7.26127

$$$$
5SZ6_72G_A_302


 20 21  0  0  0  0  0  0  0  0999 V2000
   16.1941    5.3712   15.1140 C   0  0  0  0  0  0  0  0  0  0  0  0
   15.0468    5.1553   15.6718 C   0  0  0  0  0  0  0  0  0  0  0  0
   14.7432    3.8583   16.3070 C   0  0  0  0  0  0  0  0  0  0  0  0
   15.6613    2.8682   16.3463 C   0  0  0  0  0  0  0  0  0  0  0  0
   16.9732    3.1385   15.6834 C   0  0  0  0  0  0  0  0  0  0  0  0
   17.2039    4.2896   15.0894 C   0  0  0  0  0  0  0  0  0  0  0  0
   16.1041    8.1599   12.5070 C   0  0  0  0  0  0  0  0  0  0  0  0
   15.9284    6.9307   13.1322 C   0  0  0  0  0  0  0  0  0  0  0  0
   16.7966    9.1130   13.1868 C   0  0  0  0  0  0  0  0  0  0  0  0
   17.2502    8.9292   14.4331 C   0  0  0  0  0  0  0  0  0  0  0  0
   17.0575    7.7066   15.0411 C   0  0  0  0  0  0  0  0  0  0  0  0
   16.3724    6.7259   14.4199 C   0  0  0  0  0  0  0  0  0  0  0  0
   15.0966    7.5399   10.3821 O   0  0  0  0  0  0  0  0  0  0  0  0
   15.5573    8.3809   11.0871 C   0  0  0  0  0  0  0  0  0  0  0  0
   15.3283    1.2652   17.0621 S   0  0  0  0  0  0  0  0  0  0  0  0
   13.8545    1.1603   16.9685 O   0  0  0  0  0  0  0  0  0  0  0  0
   16.0532    0.2464   16.2921 O   0  0  0  0  0  0  0  0  0  0  0  0
   15.8633    1.3109   18.5913 N   0  0  0  0  0  0  0  0  0  0  0  0
   15.3494    2.0230   19.1102 H   0  0  0  0  0  0  0  0  0  0  0  0
   16.8578    1.5377   18.5969 H   0  0  0  0  0  0  0  0  0  0  0  0
  9 10  2  0  0  0
  9  7  1  0  0  0
 14  7  1  0  0  0
 14 13  2  0  0  0
 10 11  1  0  0  0
  7  8  2  0  0  0
 11 12  2  0  0  0
  8 12  1  0  0  0
 12  1  1  0  0  0
  6  1  2  0  0  0
  6  5  1  0  0  0
  1  2  1  0  0  0
  5  4  2  0  0  0
  2  3  2  0  0  0
  4  3  1  0  0  0
  4 15  1  0  0  0
 18 15  1  0  0  0
 15 16  2  0  0  0
 15 17  2  0  0  0
 18 19  1  0  0  0
 18 20  1  0  0  0
M  END
> <minimizedAffinity>
-6.97931

$$$$
5SZ6_72G_A_302


 20 21  0  0  0  0  0  0  0  0999 V2000
   16.8376    5.1963   15.0945 C   0  0  0  0  0  0  0  0  0  0  0  0
   17.6908    4.2485   15.3137 C   0  0  0  0  0  0  0  0  0  0  0  0
   17.2719    2.9794   15.9395 C   0  0  0  0  0  0  0  0  0  0  0  0
   15.9831    2.7603   16.2791 C   0  0  0  0  0  0  0  0  0  0  0  0
   15.0206    3.8757   16.0276 C   0  0  0  0  0  0  0  0  0  0  0  0
   15.4277    5.0123   15.5048 C   0  0  0  0  0  0  0  0  0  0  0  0
   19.0608    7.6907   13.2461 C   0  0  0  0  0  0  0  0  0  0  0  0
   18.5551    6.5036   13.7637 C   0  0  0  0  0  0  0  0  0  0  0  0
   18.4124    8.8408   13.5729 C   0  0  0  0  0  0  0  0  0  0  0  0
   17.2944    8.8587   14.3094 C   0  0  0  0  0  0  0  0  0  0  0  0
   16.8017    7.6702   14.8057 C   0  0  0  0  0  0  0  0  0  0  0  0
   17.3971    6.4976   14.5096 C   0  0  0  0  0  0  0  0  0  0  0  0
   21.4463    7.7442   12.7758 O   0  0  0  0  0  0  0  0  0  0  0  0
   20.3280    7.6670   12.3757 C   0  0  0  0  0  0  0  0  0  0  0  0
   15.4330    1.2608   17.0802 S   0  0  0  0  0  0  0  0  0  0  0  0
   16.0345    0.1982   16.2431 O   0  0  0  0  0  0  0  0  0  0  0  0
   15.9052    1.2698   18.4706 O   0  0  0  0  0  0  0  0  0  0  0  0
   13.8130    1.2655   17.0289 N   0  0  0  0  0  0  0  0  0  0  0  0
   13.5036    1.2592   16.0570 H   0  0  0  0  0  0  0  0  0  0  0  0
   13.4606    2.1029   17.4925 H   0  0  0  0  0  0  0  0  0  0  0  0
  9 10  2  0  0  0
  9  7  1  0  0  0
 14  7  1  0  0  0
 14 13  2  0  0  0
 10 11  1  0  0  0
  7  8  2  0  0  0
 11 12  2  0  0  0
  8 12  1  0  0  0
 12  1  1  0  0  0
  6  1  2  0  0  0
  6  5  1  0  0  0
  1  2  1  0  0  0
  5  4  2  0  0  0
  2  3  2  0  0  0
  4  3  1  0  0  0
  4 15  1  0  0  0
 18 15  1  0  0  0
 15 16  2  0  0  0
 15 17  2  0  0  0
 18 19  1  0  0  0
 18 20  1  0  0  0
M  END
> <minimizedAffinity>
-6.96511

$$$$
5SZ6_72G_A_302


 20 21  0  0  0  0  0  0  0  0999 V2000
   16.7968    5.3272   15.0469 C   0  0  0  0  0  0  0  0  0  0  0  0
   17.6630    4.3852   15.2386 C   0  0  0  0  0  0  0  0  0  0  0  0
   17.2668    3.1024   15.8510 C   0  0  0  0  0  0  0  0  0  0  0  0
   15.9855    2.8646   16.2066 C   0  0  0  0  0  0  0  0  0  0  0  0
   15.0079    3.9734   15.9866 C   0  0  0  0  0  0  0  0  0  0  0  0
   15.3953    5.1222   15.4753 C   0  0  0  0  0  0  0  0  0  0  0  0
   17.0351    8.6531   13.1860 C   0  0  0  0  0  0  0  0  0  0  0  0
   16.5358    7.4663   13.7106 C   0  0  0  0  0  0  0  0  0  0  0  0
   18.3527    8.9209   13.3909 C   0  0  0  0  0  0  0  0  0  0  0  0
   19.1498    8.1264   14.1164 C   0  0  0  0  0  0  0  0  0  0  0  0
   18.6343    6.9585   14.6376 C   0  0  0  0  0  0  0  0  0  0  0  0
   17.3340    6.6431   14.4737 C   0  0  0  0  0  0  0  0  0  0  0  0
   15.5993    9.3135   11.3374 O   0  0  0  0  0  0  0  0  0  0  0  0
   16.1122    9.5800   12.3778 C   0  0  0  0  0  0  0  0  0  0  0  0
   15.4631    1.3473   16.9926 S   0  0  0  0  0  0  0  0  0  0  0  0
   16.0799    0.3042   16.1421 O   0  0  0  0  0  0  0  0  0  0  0  0
   15.9393    1.3490   18.3817 O   0  0  0  0  0  0  0  0  0  0  0  0
   13.8431    1.3253   16.9460 N   0  0  0  0  0  0  0  0  0  0  0  0
   13.5309    1.3244   15.9749 H   0  0  0  0  0  0  0  0  0  0  0  0
   13.4781    2.1515   17.4197 H   0  0  0  0  0  0  0  0  0  0  0  0
  9 10  2  0  0  0
  9  7  1  0  0  0
 14  7  1  0  0  0
 14 13  2  0  0  0
 10 11  1  0  0  0
  7  8  2  0  0  0
 11 12  2  0  0  0
  8 12  1  0  0  0
 12  1  1  0  0  0
  6  1  2  0  0  0
  6  5  1  0  0  0
  1  2  1  0  0  0
  5  4  2  0  0  0
  2  3  2  0  0  0
  4  3  1  0  0  0
  4 15  1  0  0  0
 18 15  1  0  0  0
 15 16  2  0  0  0
 15 17  2  0  0  0
 18 19  1  0  0  0
 18 20  1  0  0  0
M  END
> <minimizedAffinity>
-6.95624

$$$$
5SZ6_72G_A_302


 20 21  0  0  0  0  0  0  0  0999 V2000
   16.9841    5.1081   15.0283 C   0  0  0  0  0  0  0  0  0  0  0  0
   17.6941    4.0916   15.3984 C   0  0  0  0  0  0  0  0  0  0  0  0
   17.0836    2.9652   16.1307 C   0  0  0  0  0  0  0  0  0  0  0  0
   15.7631    2.9506   16.4145 C   0  0  0  0  0  0  0  0  0  0  0  0
   14.9685    4.1424   15.9878 C   0  0  0  0  0  0  0  0  0  0  0  0
   15.5452    5.1515   15.3712 C   0  0  0  0  0  0  0  0  0  0  0  0
   19.6192    7.0829   13.0949 C   0  0  0  0  0  0  0  0  0  0  0  0
   18.9389    6.0358   13.7061 C   0  0  0  0  0  0  0  0  0  0  0  0
   19.0897    8.3294   13.2206 C   0  0  0  0  0  0  0  0  0  0  0  0
   17.9301    8.5648   13.8473 C   0  0  0  0  0  0  0  0  0  0  0  0
   17.2642    7.5121   14.4387 C   0  0  0  0  0  0  0  0  0  0  0  0
   17.7363    6.2532   14.3415 C   0  0  0  0  0  0  0  0  0  0  0  0
   21.1173    5.9368   11.5596 O   0  0  0  0  0  0  0  0  0  0  0  0
   20.9358    6.8081   12.3499 C   0  0  0  0  0  0  0  0  0  0  0  0
   14.9843    1.6337   17.3377 S   0  0  0  0  0  0  0  0  0  0  0  0
   15.0406    2.1285   18.7319 O   0  0  0  0  0  0  0  0  0  0  0  0
   13.6227    1.4401   16.8234 O   0  0  0  0  0  0  0  0  0  0  0  0
   15.8767    0.3012   17.1028 N   0  0  0  0  0  0  0  0  0  0  0  0
   16.8177    0.4539   17.4656 H   0  0  0  0  0  0  0  0  0  0  0  0
   15.9261    0.0967   16.1048 H   0  0  0  0  0  0  0  0  0  0  0  0
  9 10  2  0  0  0
  9  7  1  0  0  0
 14  7  1  0  0  0
 14 13  2  0  0  0
 10 11  1  0  0  0
  7  8  2  0  0  0
 11 12  2  0  0  0
  8 12  1  0  0  0
 12  1  1  0  0  0
  6  1  2  0  0  0
  6  5  1  0  0  0
  1  2  1  0  0  0
  5  4  2  0  0  0
  2  3  2  0  0  0
  4  3  1  0  0  0
  4 15  1  0  0  0
 18 15  1  0  0  0
 15 16  2  0  0  0
 15 17  2  0  0  0
 18 19  1  0  0  0
 18 20  1  0  0  0
M  END
> <minimizedAffinity>
-6.80003

$$$$
5SZ6_72G_A_302


 20 21  0  0  0  0  0  0  0  0999 V2000
   16.0540    5.9699   15.0862 C   0  0  0  0  0  0  0  0  0  0  0  0
   17.2376    6.0840   14.5760 C   0  0  0  0  0  0  0  0  0  0  0  0
   17.6645    7.3353   13.9203 C   0  0  0  0  0  0  0  0  0  0  0  0
   16.8424    8.4051   13.8551 C   0  0  0  0  0  0  0  0  0  0  0  0
   15.4768    8.2426   14.4400 C   0  0  0  0  0  0  0  0  0  0  0  0
   15.1074    7.1028   14.9836 C   0  0  0  0  0  0  0  0  0  0  0  0
   16.0035    2.2196   15.8034 C   0  0  0  0  0  0  0  0  0  0  0  0
   16.3456    3.4578   15.2718 C   0  0  0  0  0  0  0  0  0  0  0  0
   14.9543    2.1795   16.6680 C   0  0  0  0  0  0  0  0  0  0  0  0
   14.2959    3.2774   17.0605 C   0  0  0  0  0  0  0  0  0  0  0  0
   14.6561    4.4983   16.5304 C   0  0  0  0  0  0  0  0  0  0  0  0
   15.6925    4.6017   15.6745 C   0  0  0  0  0  0  0  0  0  0  0  0
   17.6428    0.4339   15.9999 O   0  0  0  0  0  0  0  0  0  0  0  0
   16.7788    0.9628   15.3752 C   0  0  0  0  0  0  0  0  0  0  0  0
   17.2940    9.9260   13.0330 S   0  0  0  0  0  0  0  0  0  0  0  0
   16.2083   10.1018   12.0420 O   0  0  0  0  0  0  0  0  0  0  0  0
   17.3723   10.9968   14.0347 O   0  0  0  0  0  0  0  0  0  0  0  0
   18.7421    9.6801   12.3479 N   0  0  0  0  0  0  0  0  0  0  0  0
   18.6687    8.9342   11.6561 H   0  0  0  0  0  0  0  0  0  0  0  0
   19.4167    9.4134   13.0651 H   0  0  0  0  0  0  0  0  0  0  0  0
  9 10  2  0  0  0
  9  7  1  0  0  0
 14  7  1  0  0  0
 14 13  2  0  0  0
 10 11  1  0  0  0
  7  8  2  0  0  0
 11 12  2  0  0  0
  8 12  1  0  0  0
 12  1  1  0  0  0
  6  1  2  0  0  0
  6  5  1  0  0  0
  1  2  1  0  0  0
  5  4  2  0  0  0
  2  3  2  0  0  0
  4  3  1  0  0  0
  4 15  1  0  0  0
 18 15  1  0  0  0
 15 16  2  0  0  0
 15 17  2  0  0  0
 18 19  1  0  0  0
 18 20  1  0  0  0
M  END
> <minimizedAffinity>
-6.77896

$$$$
5SZ6_72G_A_302


 20 21  0  0  0  0  0  0  0  0999 V2000
   17.5995    6.8487   14.7195 C   0  0  0  0  0  0  0  0  0  0  0  0
   18.5447    5.9735   14.5974 C   0  0  0  0  0  0  0  0  0  0  0  0
   18.2917    4.5421   14.8521 C   0  0  0  0  0  0  0  0  0  0  0  0
   17.0623    4.1006   15.1958 C   0  0  0  0  0  0  0  0  0  0  0  0
   15.9919    5.1332   15.3429 C   0  0  0  0  0  0  0  0  0  0  0  0
   16.2536    6.4079   15.1487 C   0  0  0  0  0  0  0  0  0  0  0  0
   19.5673   10.1212   14.7138 C   0  0  0  0  0  0  0  0  0  0  0  0
   19.2232    8.7876   14.9038 C   0  0  0  0  0  0  0  0  0  0  0  0
   18.6163   10.9438   14.1953 C   0  0  0  0  0  0  0  0  0  0  0  0
   17.4091   10.5070   13.8147 C   0  0  0  0  0  0  0  0  0  0  0  0
   17.0893    9.1788   14.0014 C   0  0  0  0  0  0  0  0  0  0  0  0
   17.9931    8.3141   14.5041 C   0  0  0  0  0  0  0  0  0  0  0  0
   21.3922   11.7123   14.9437 O   0  0  0  0  0  0  0  0  0  0  0  0
   20.9640   10.6165   15.1235 C   0  0  0  0  0  0  0  0  0  0  0  0
   16.7144    2.3860   15.5591 S   0  0  0  0  0  0  0  0  0  0  0  0
   16.7679    1.7472   14.2246 O   0  0  0  0  0  0  0  0  0  0  0  0
   17.7243    1.8909   16.5031 O   0  0  0  0  0  0  0  0  0  0  0  0
   15.2381    2.3352   16.2261 N   0  0  0  0  0  0  0  0  0  0  0  0
   14.5507    2.6822   15.5572 H   0  0  0  0  0  0  0  0  0  0  0  0
   15.2228    2.9184   17.0628 H   0  0  0  0  0  0  0  0  0  0  0  0
  9 10  2  0  0  0
  9  7  1  0  0  0
 14  7  1  0  0  0
 14 13  2  0  0  0
 10 11  1  0  0  0
  7  8  2  0  0  0
 11 12  2  0  0  0
  8 12  1  0  0  0
 12  1  1  0  0  0
  6  1  2  0  0  0
  6  5  1  0  0  0
  1  2  1  0  0  0
  5  4  2  0  0  0
  2  3  2  0  0  0
  4  3  1  0  0  0
  4 15  1  0  0  0
 18 15  1  0  0  0
 15 16  2  0  0  0
 15 17  2  0  0  0
 18 19  1  0  0  0
 18 20  1  0  0  0
M  END
> <minimizedAffinity>
-6.77342

$$$$
5SZ6_72G_A_302


 20 21  0  0  0  0  0  0  0  0999 V2000
   17.5460    4.2742   14.2901 C   0  0  0  0  0  0  0  0  0  0  0  0
   18.5318    4.9978   14.7131 C   0  0  0  0  0  0  0  0  0  0  0  0
   19.6690    5.3224   13.8304 C   0  0  0  0  0  0  0  0  0  0  0  0
   19.7028    4.8952   12.5494 C   0  0  0  0  0  0  0  0  0  0  0  0
   18.5586    4.0506   12.0900 C   0  0  0  0  0  0  0  0  0  0  0  0
   17.5764    3.7426   12.9094 C   0  0  0  0  0  0  0  0  0  0  0  0
   15.3546    2.3754   16.7749 C   0  0  0  0  0  0  0  0  0  0  0  0
   16.3526    2.6745   15.8543 C   0  0  0  0  0  0  0  0  0  0  0  0
   14.4492    3.3513   17.0535 C   0  0  0  0  0  0  0  0  0  0  0  0
   14.5232    4.5806   16.5278 C   0  0  0  0  0  0  0  0  0  0  0  0
   15.5262    4.8620   15.6243 C   0  0  0  0  0  0  0  0  0  0  0  0
   16.4569    3.9374   15.3144 C   0  0  0  0  0  0  0  0  0  0  0  0
   15.7769   -0.0134   16.9490 O   0  0  0  0  0  0  0  0  0  0  0  0
   15.2872    0.9728   17.4010 C   0  0  0  0  0  0  0  0  0  0  0  0
   21.0764    5.2220   11.4543 S   0  0  0  0  0  0  0  0  0  0  0  0
   21.6649    3.8788   11.2512 O   0  0  0  0  0  0  0  0  0  0  0  0
   20.5624    5.8445   10.2277 O   0  0  0  0  0  0  0  0  0  0  0  0
   22.0706    6.2369   12.2345 N   0  0  0  0  0  0  0  0  0  0  0  0
   22.4173    5.7884   13.0824 H   0  0  0  0  0  0  0  0  0  0  0  0
   21.5633    7.0864   12.4823 H   0  0  0  0  0  0  0  0  0  0  0  0
  9 10  2  0  0  0
  9  7  1  0  0  0
 14  7  1  0  0  0
 14 13  2  0  0  0
 10 11  1  0  0  0
  7  8  2  0  0  0
 11 12  2  0  0  0
  8 12  1  0  0  0
 12  1  1  0  0  0
  6  1  2  0  0  0
  6  5  1  0  0  0
  1  2  1  0  0  0
  5  4  2  0  0  0
  2  3  2  0  0  0
  4  3  1  0  0  0
  4 15  1  0  0  0
 18 15  1  0  0  0
 15 16  2  0  0  0
 15 17  2  0  0  0
 18 19  1  0  0  0
 18 20  1  0  0  0
M  END
> <minimizedAffinity>
-6.71547

$$$$
5SZ6_72G_A_302


 20 21  0  0  0  0  0  0  0  0999 V2000
   17.9625    4.6329   14.1553 C   0  0  0  0  0  0  0  0  0  0  0  0
   18.0682    4.0194   13.0210 C   0  0  0  0  0  0  0  0  0  0  0  0
   19.0752    4.4333   12.0248 C   0  0  0  0  0  0  0  0  0  0  0  0
   19.9313    5.4472   12.2771 C   0  0  0  0  0  0  0  0  0  0  0  0
   19.7794    6.1474   13.5887 C   0  0  0  0  0  0  0  0  0  0  0  0
   18.8469    5.7840   14.4428 C   0  0  0  0  0  0  0  0  0  0  0  0
   15.7420    2.4536   16.3694 C   0  0  0  0  0  0  0  0  0  0  0  0
   16.7761    2.8694   15.5383 C   0  0  0  0  0  0  0  0  0  0  0  0
   14.7594    3.3537   16.6418 C   0  0  0  0  0  0  0  0  0  0  0  0
   14.7878    4.6156   16.1948 C   0  0  0  0  0  0  0  0  0  0  0  0
   15.8268    5.0129   15.3801 C   0  0  0  0  0  0  0  0  0  0  0  0
   16.8334    4.1675   15.0812 C   0  0  0  0  0  0  0  0  0  0  0  0
   15.8848    0.6939   18.0421 O   0  0  0  0  0  0  0  0  0  0  0  0
   15.7248    1.0131   16.9067 C   0  0  0  0  0  0  0  0  0  0  0  0
   21.1373    6.0165   11.0878 S   0  0  0  0  0  0  0  0  0  0  0  0
   22.2751    6.4279   11.9409 O   0  0  0  0  0  0  0  0  0  0  0  0
   21.4448    4.9156   10.1659 O   0  0  0  0  0  0  0  0  0  0  0  0
   20.4642    7.2563   10.2898 N   0  0  0  0  0  0  0  0  0  0  0  0
   20.2577    8.0103   10.9449 H   0  0  0  0  0  0  0  0  0  0  0  0
   19.6001    6.9457    9.8456 H   0  0  0  0  0  0  0  0  0  0  0  0
  9 10  2  0  0  0
  9  7  1  0  0  0
 14  7  1  0  0  0
 14 13  2  0  0  0
 10 11  1  0  0  0
  7  8  2  0  0  0
 11 12  2  0  0  0
  8 12  1  0  0  0
 12  1  1  0  0  0
  6  1  2  0  0  0
  6  5  1  0  0  0
  1  2  1  0  0  0
  5  4  2  0  0  0
  2  3  2  0  0  0
  4  3  1  0  0  0
  4 15  1  0  0  0
 18 15  1  0  0  0
 15 16  2  0  0  0
 15 17  2  0  0  0
 18 19  1  0  0  0
 18 20  1  0  0  0
M  END
> <minimizedAffinity>
-6.21937

$$$$
