3O56_ZG1_A_506


 32 36  0  0  0  0  0  0  0  0999 V2000
   44.6321   46.3406   62.6086 N   0  0  0  0  0  0  0  0  0  0  0  0
   45.1737   46.7705   63.7575 N   0  0  0  0  0  0  0  0  0  0  0  0
   46.5103   46.6154   63.6721 C   0  0  0  0  0  0  0  0  0  0  0  0
   46.8659   46.0539   62.3721 C   0  0  0  0  0  0  0  0  0  0  0  0
   48.0073   45.6661   61.6816 C   0  0  0  0  0  0  0  0  0  0  0  0
   47.8098   45.1342   60.3776 C   0  0  0  0  0  0  0  0  0  0  0  0
   46.5092   45.0297   59.8699 C   0  0  0  0  0  0  0  0  0  0  0  0
   45.4286   45.4147   60.5361 N   0  0  0  0  0  0  0  0  0  0  0  0
   45.5867   45.9141   61.7798 C   0  0  0  0  0  0  0  0  0  0  0  0
   48.9081   44.6424   59.5421 C   0  0  0  0  0  0  0  0  0  0  0  0
   48.8672   43.7223   58.5485 O   0  0  0  0  0  0  0  0  0  0  0  0
   50.1900   43.5872   58.0810 N   0  0  0  0  0  0  0  0  0  0  0  0
   50.9169   44.4154   58.8414 C   0  0  0  0  0  0  0  0  0  0  0  0
   50.1698   45.0686   59.7347 N   0  0  0  0  0  0  0  0  0  0  0  0
   52.4119   44.6228   58.6779 C   0  0  0  0  0  0  0  0  0  0  0  0
   53.7369   43.9288   60.5858 N   0  0  0  0  0  0  0  0  0  0  0  0
   53.0816   43.4993   59.4742 C   0  0  0  0  0  0  0  0  0  0  0  0
   53.7774   45.3294   60.9926 C   0  0  0  0  0  0  0  0  0  0  0  0
   54.4507   43.0165   61.4741 C   0  0  0  0  0  0  0  0  0  0  0  0
   53.0396   42.3284   59.1066 O   0  0  0  0  0  0  0  0  0  0  0  0
   54.5619   45.3350   62.3126 C   0  0  0  0  0  0  0  0  0  0  0  0
   54.7610   43.8608   62.7182 C   0  0  0  0  0  0  0  0  0  0  0  0
   42.5675   45.1275   62.9742 C   0  0  0  0  0  0  0  0  0  0  0  0
   43.1985   46.3636   62.3594 C   0  0  0  0  0  0  0  0  0  0  0  0
   49.3008   45.7251   62.1439 N   0  0  0  0  0  0  0  0  0  0  0  0
   49.9131   46.3469   61.6883 H   0  0  0  0  0  0  0  0  0  0  0  0
   49.8396   44.9535   63.2407 C   0  0  0  0  0  0  0  0  0  0  0  0
   50.6532   45.9392   64.0768 C   0  0  0  0  0  0  0  0  0  0  0  0
   51.2793   45.1985   65.2479 C   0  0  0  0  0  0  0  0  0  0  0  0
   52.0754   44.1629   64.7041 O   0  0  0  0  0  0  0  0  0  0  0  0
   51.3127   43.1642   64.0520 C   0  0  0  0  0  0  0  0  0  0  0  0
   50.6745   43.7659   62.8048 C   0  0  0  0  0  0  0  0  0  0  0  0
 24 23  1  0  0  0
  1 24  1  0  0  0
  2  1  1  0  0  0
  1  9  1  0  0  0
  2  3  2  0  0  0
  3  4  1  0  0  0
  4  9  2  0  0  0
  4  5  1  0  0  0
 25  5  1  0  0  0
  5  6  2  0  0  0
 27 25  1  0  0  0
 32 27  1  0  0  0
 27 28  1  0  0  0
 29 28  1  0  0  0
 30 29  1  0  0  0
 31 30  1  0  0  0
 31 32  1  0  0  0
  6  7  1  0  0  0
  6 10  1  0  0  0
  8  7  2  0  0  0
  9  8  1  0  0  0
 14 10  2  0  0  0
 10 11  1  0  0  0
 11 12  1  0  0  0
 13 12  2  0  0  0
 14 13  1  0  0  0
 15 13  1  0  0  0
 15 17  1  0  0  0
 18 16  1  0  0  0
 19 16  1  0  0  0
 16 17  1  0  0  0
 17 20  2  0  0  0
 21 18  1  0  0  0
 22 19  1  0  0  0
 21 22  1  0  0  0
 25 26  1  0  0  0
M  END
> <minimizedAffinity>
-9.02103

$$$$
3O56_ZG1_A_506


 32 36  0  0  0  0  0  0  0  0999 V2000
   43.4291   46.5080   63.5305 N   0  0  0  0  0  0  0  0  0  0  0  0
   43.7543   46.7622   64.8064 N   0  0  0  0  0  0  0  0  0  0  0  0
   45.0992   46.7598   64.9022 C   0  0  0  0  0  0  0  0  0  0  0  0
   45.6927   46.4952   63.5947 C   0  0  0  0  0  0  0  0  0  0  0  0
   46.9555   46.3618   63.0314 C   0  0  0  0  0  0  0  0  0  0  0  0
   47.0020   46.0719   61.6400 C   0  0  0  0  0  0  0  0  0  0  0  0
   45.8043   45.9377   60.9275 C   0  0  0  0  0  0  0  0  0  0  0  0
   44.6047   46.0789   61.4760 N   0  0  0  0  0  0  0  0  0  0  0  0
   44.5316   46.3447   62.7972 C   0  0  0  0  0  0  0  0  0  0  0  0
   48.2550   45.8603   60.9109 C   0  0  0  0  0  0  0  0  0  0  0  0
   48.9001   46.7095   60.0753 O   0  0  0  0  0  0  0  0  0  0  0  0
   50.0408   46.0207   59.6159 N   0  0  0  0  0  0  0  0  0  0  0  0
   49.9771   44.8137   60.1919 C   0  0  0  0  0  0  0  0  0  0  0  0
   48.9082   44.6860   60.9817 N   0  0  0  0  0  0  0  0  0  0  0  0
   51.0232   43.7296   60.0049 C   0  0  0  0  0  0  0  0  0  0  0  0
   53.0120   44.1476   61.3267 N   0  0  0  0  0  0  0  0  0  0  0  0
   51.7587   43.6200   61.3434 C   0  0  0  0  0  0  0  0  0  0  0  0
   53.5919   44.7800   60.1465 C   0  0  0  0  0  0  0  0  0  0  0  0
   53.8825   44.1325   62.4983 C   0  0  0  0  0  0  0  0  0  0  0  0
   51.2516   43.0758   62.3206 O   0  0  0  0  0  0  0  0  0  0  0  0
   54.9727   45.2745   60.6014 C   0  0  0  0  0  0  0  0  0  0  0  0
   55.0346   45.0777   62.1294 C   0  0  0  0  0  0  0  0  0  0  0  0
   41.4902   45.0624   63.3945 C   0  0  0  0  0  0  0  0  0  0  0  0
   42.0500   46.4357   63.0712 C   0  0  0  0  0  0  0  0  0  0  0  0
   48.1580   46.4595   63.6907 N   0  0  0  0  0  0  0  0  0  0  0  0
   48.7163   45.6495   63.7299 H   0  0  0  0  0  0  0  0  0  0  0  0
   48.6738   47.6480   64.3311 C   0  0  0  0  0  0  0  0  0  0  0  0
   50.0859   47.8329   63.7795 C   0  0  0  0  0  0  0  0  0  0  0  0
   50.7144   49.0582   64.4244 C   0  0  0  0  0  0  0  0  0  0  0  0
   50.7028   48.8412   65.8226 O   0  0  0  0  0  0  0  0  0  0  0  0
   49.3962   48.8157   66.3669 C   0  0  0  0  0  0  0  0  0  0  0  0
   48.6679   47.5818   65.8454 C   0  0  0  0  0  0  0  0  0  0  0  0
 24 23  1  0  0  0
  1 24  1  0  0  0
  2  1  1  0  0  0
  1  9  1  0  0  0
  2  3  2  0  0  0
  3  4  1  0  0  0
  4  9  2  0  0  0
  4  5  1  0  0  0
 25  5  1  0  0  0
  5  6  2  0  0  0
 27 25  1  0  0  0
 32 27  1  0  0  0
 27 28  1  0  0  0
 29 28  1  0  0  0
 30 29  1  0  0  0
 31 30  1  0  0  0
 31 32  1  0  0  0
  6  7  1  0  0  0
  6 10  1  0  0  0
  8  7  2  0  0  0
  9  8  1  0  0  0
 14 10  2  0  0  0
 10 11  1  0  0  0
 11 12  1  0  0  0
 13 12  2  0  0  0
 14 13  1  0  0  0
 15 13  1  0  0  0
 15 17  1  0  0  0
 18 16  1  0  0  0
 19 16  1  0  0  0
 16 17  1  0  0  0
 17 20  2  0  0  0
 21 18  1  0  0  0
 22 19  1  0  0  0
 21 22  1  0  0  0
 25 26  1  0  0  0
M  END
> <minimizedAffinity>
-8.59136

$$$$
3O56_ZG1_A_506


 32 36  0  0  0  0  0  0  0  0999 V2000
   43.9674   46.2172   62.2791 N   0  0  0  0  0  0  0  0  0  0  0  0
   44.0639   45.9772   60.9633 N   0  0  0  0  0  0  0  0  0  0  0  0
   45.3697   46.0065   60.6287 C   0  0  0  0  0  0  0  0  0  0  0  0
   46.1824   46.2747   61.8116 C   0  0  0  0  0  0  0  0  0  0  0  0
   47.5230   46.4295   62.1415 C   0  0  0  0  0  0  0  0  0  0  0  0
   47.8123   46.7118   63.5049 C   0  0  0  0  0  0  0  0  0  0  0  0
   46.7589   46.8182   64.4212 C   0  0  0  0  0  0  0  0  0  0  0  0
   45.4834   46.6568   64.0944 N   0  0  0  0  0  0  0  0  0  0  0  0
   45.1801   46.3976   62.8051 C   0  0  0  0  0  0  0  0  0  0  0  0
   49.1713   46.9434   64.0005 C   0  0  0  0  0  0  0  0  0  0  0  0
   49.7833   48.1219   64.2694 O   0  0  0  0  0  0  0  0  0  0  0  0
   51.0883   47.8011   64.6943 N   0  0  0  0  0  0  0  0  0  0  0  0
   51.1610   46.4659   64.6257 C   0  0  0  0  0  0  0  0  0  0  0  0
   50.0168   45.9177   64.2098 N   0  0  0  0  0  0  0  0  0  0  0  0
   52.3881   45.6632   65.0187 C   0  0  0  0  0  0  0  0  0  0  0  0
   52.5988   43.5954   63.7708 N   0  0  0  0  0  0  0  0  0  0  0  0
   52.8375   44.9341   63.7494 C   0  0  0  0  0  0  0  0  0  0  0  0
   51.9528   42.9216   64.8923 C   0  0  0  0  0  0  0  0  0  0  0  0
   52.9635   42.7182   62.6625 C   0  0  0  0  0  0  0  0  0  0  0  0
   53.3864   45.5228   62.8219 O   0  0  0  0  0  0  0  0  0  0  0  0
   51.8383   41.4531   64.4582 C   0  0  0  0  0  0  0  0  0  0  0  0
   52.2510   41.3945   62.9738 C   0  0  0  0  0  0  0  0  0  0  0  0
   42.1549   44.8470   63.1188 C   0  0  0  0  0  0  0  0  0  0  0  0
   42.6916   46.2598   62.9779 C   0  0  0  0  0  0  0  0  0  0  0  0
   48.5899   46.3593   61.2771 N   0  0  0  0  0  0  0  0  0  0  0  0
   49.1059   47.1851   61.1321 H   0  0  0  0  0  0  0  0  0  0  0  0
   49.0196   45.1787   60.5630 C   0  0  0  0  0  0  0  0  0  0  0  0
   50.5401   45.1438   60.7027 C   0  0  0  0  0  0  0  0  0  0  0  0
   51.0799   43.9354   59.9539 C   0  0  0  0  0  0  0  0  0  0  0  0
   50.6620   44.0624   58.6080 O   0  0  0  0  0  0  0  0  0  0  0  0
   49.2596   43.9477   58.4518 C   0  0  0  0  0  0  0  0  0  0  0  0
   48.5895   45.1489   59.1099 C   0  0  0  0  0  0  0  0  0  0  0  0
 24 23  1  0  0  0
  1 24  1  0  0  0
  2  1  1  0  0  0
  1  9  1  0  0  0
  2  3  2  0  0  0
  3  4  1  0  0  0
  4  9  2  0  0  0
  4  5  1  0  0  0
 25  5  1  0  0  0
  5  6  2  0  0  0
 27 25  1  0  0  0
 32 27  1  0  0  0
 27 28  1  0  0  0
 29 28  1  0  0  0
 30 29  1  0  0  0
 31 30  1  0  0  0
 31 32  1  0  0  0
  6  7  1  0  0  0
  6 10  1  0  0  0
  8  7  2  0  0  0
  9  8  1  0  0  0
 14 10  2  0  0  0
 10 11  1  0  0  0
 11 12  1  0  0  0
 13 12  2  0  0  0
 14 13  1  0  0  0
 15 13  1  0  0  0
 15 17  1  0  0  0
 18 16  1  0  0  0
 19 16  1  0  0  0
 16 17  1  0  0  0
 17 20  2  0  0  0
 21 18  1  0  0  0
 22 19  1  0  0  0
 21 22  1  0  0  0
 25 26  1  0  0  0
M  END
> <minimizedAffinity>
-8.53798

$$$$
3O56_ZG1_A_506


 32 36  0  0  0  0  0  0  0  0999 V2000
   46.5101   46.1210   61.5974 N   0  0  0  0  0  0  0  0  0  0  0  0
   46.6942   46.6202   62.8283 N   0  0  0  0  0  0  0  0  0  0  0  0
   47.9727   46.3855   63.1864 C   0  0  0  0  0  0  0  0  0  0  0  0
   48.6742   45.6932   62.1092 C   0  0  0  0  0  0  0  0  0  0  0  0
   49.9403   45.1844   61.8484 C   0  0  0  0  0  0  0  0  0  0  0  0
   50.1223   44.5513   60.5881 C   0  0  0  0  0  0  0  0  0  0  0  0
   49.0442   44.4737   59.6981 C   0  0  0  0  0  0  0  0  0  0  0  0
   47.8429   44.9741   59.9556 N   0  0  0  0  0  0  0  0  0  0  0  0
   47.6401   45.5717   61.1486 C   0  0  0  0  0  0  0  0  0  0  0  0
   51.3850   43.9286   60.1833 C   0  0  0  0  0  0  0  0  0  0  0  0
   51.6106   43.0550   59.1726 O   0  0  0  0  0  0  0  0  0  0  0  0
   52.9837   42.7409   59.2214 N   0  0  0  0  0  0  0  0  0  0  0  0
   53.4641   43.4298   60.2641 C   0  0  0  0  0  0  0  0  0  0  0  0
   52.5213   44.1586   60.8664 N   0  0  0  0  0  0  0  0  0  0  0  0
   54.9222   43.4198   60.6866 C   0  0  0  0  0  0  0  0  0  0  0  0
   55.7091   45.3064   61.9900 N   0  0  0  0  0  0  0  0  0  0  0  0
   55.3526   44.8881   60.7460 C   0  0  0  0  0  0  0  0  0  0  0  0
   55.7030   44.4284   63.1554 C   0  0  0  0  0  0  0  0  0  0  0  0
   56.1387   46.6748   62.2616 C   0  0  0  0  0  0  0  0  0  0  0  0
   55.3417   45.6090   59.7519 O   0  0  0  0  0  0  0  0  0  0  0  0
   56.2274   45.2975   64.3076 C   0  0  0  0  0  0  0  0  0  0  0  0
   56.7213   46.6168   63.6808 C   0  0  0  0  0  0  0  0  0  0  0  0
   44.1135   45.9150   61.8832 C   0  0  0  0  0  0  0  0  0  0  0  0
   45.2348   46.2001   60.9007 C   0  0  0  0  0  0  0  0  0  0  0  0
   51.0223   45.2132   62.6961 N   0  0  0  0  0  0  0  0  0  0  0  0
   51.8739   45.5413   62.3269 H   0  0  0  0  0  0  0  0  0  0  0  0
   51.0181   44.8036   64.0821 C   0  0  0  0  0  0  0  0  0  0  0  0
   51.2291   46.0826   64.8898 C   0  0  0  0  0  0  0  0  0  0  0  0
   51.2614   45.7354   66.3699 C   0  0  0  0  0  0  0  0  0  0  0  0
   52.3074   44.8002   66.5524 O   0  0  0  0  0  0  0  0  0  0  0  0
   52.0515   43.5560   65.9274 C   0  0  0  0  0  0  0  0  0  0  0  0
   52.0578   43.7523   64.4154 C   0  0  0  0  0  0  0  0  0  0  0  0
 24 23  1  0  0  0
  1 24  1  0  0  0
  2  1  1  0  0  0
  1  9  1  0  0  0
  2  3  2  0  0  0
  3  4  1  0  0  0
  4  9  2  0  0  0
  4  5  1  0  0  0
 25  5  1  0  0  0
  5  6  2  0  0  0
 27 25  1  0  0  0
 32 27  1  0  0  0
 27 28  1  0  0  0
 29 28  1  0  0  0
 30 29  1  0  0  0
 31 30  1  0  0  0
 31 32  1  0  0  0
  6  7  1  0  0  0
  6 10  1  0  0  0
  8  7  2  0  0  0
  9  8  1  0  0  0
 14 10  2  0  0  0
 10 11  1  0  0  0
 11 12  1  0  0  0
 13 12  2  0  0  0
 14 13  1  0  0  0
 15 13  1  0  0  0
 15 17  1  0  0  0
 18 16  1  0  0  0
 19 16  1  0  0  0
 16 17  1  0  0  0
 17 20  2  0  0  0
 21 18  1  0  0  0
 22 19  1  0  0  0
 21 22  1  0  0  0
 25 26  1  0  0  0
M  END
> <minimizedAffinity>
-8.42062

$$$$
3O56_ZG1_A_506


 32 36  0  0  0  0  0  0  0  0999 V2000
   46.7265   47.5237   66.1330 N   0  0  0  0  0  0  0  0  0  0  0  0
   47.8481   47.7864   66.8195 N   0  0  0  0  0  0  0  0  0  0  0  0
   48.8993   47.4513   66.0446 C   0  0  0  0  0  0  0  0  0  0  0  0
   48.4301   46.9436   64.7585 C   0  0  0  0  0  0  0  0  0  0  0  0
   48.9651   46.4513   63.5747 C   0  0  0  0  0  0  0  0  0  0  0  0
   48.0349   46.0511   62.5764 C   0  0  0  0  0  0  0  0  0  0  0  0
   46.6632   46.1690   62.8310 C   0  0  0  0  0  0  0  0  0  0  0  0
   46.1660   46.6517   63.9622 N   0  0  0  0  0  0  0  0  0  0  0  0
   47.0266   47.0298   64.9305 C   0  0  0  0  0  0  0  0  0  0  0  0
   48.4416   45.4730   61.2932 C   0  0  0  0  0  0  0  0  0  0  0  0
   47.7034   44.7412   60.4242 O   0  0  0  0  0  0  0  0  0  0  0  0
   48.5642   44.4060   59.3597 N   0  0  0  0  0  0  0  0  0  0  0  0
   49.7477   44.9416   59.6840 C   0  0  0  0  0  0  0  0  0  0  0  0
   49.7057   45.5941   60.8481 N   0  0  0  0  0  0  0  0  0  0  0  0
   50.9847   44.8561   58.8080 C   0  0  0  0  0  0  0  0  0  0  0  0
   52.9644   43.8599   59.7906 N   0  0  0  0  0  0  0  0  0  0  0  0
   51.7370   43.6029   59.2644 C   0  0  0  0  0  0  0  0  0  0  0  0
   53.5034   45.2089   59.9277 C   0  0  0  0  0  0  0  0  0  0  0  0
   53.8457   42.8009   60.2731 C   0  0  0  0  0  0  0  0  0  0  0  0
   51.2648   42.4772   59.1311 O   0  0  0  0  0  0  0  0  0  0  0  0
   54.8640   45.0229   60.6147 C   0  0  0  0  0  0  0  0  0  0  0  0
   54.9494   43.5433   61.0397 C   0  0  0  0  0  0  0  0  0  0  0  0
   45.5177   48.0899   68.1544 C   0  0  0  0  0  0  0  0  0  0  0  0
   45.3984   47.7669   66.6761 C   0  0  0  0  0  0  0  0  0  0  0  0
   50.2999   46.2929   63.2857 N   0  0  0  0  0  0  0  0  0  0  0  0
   50.6577   46.8003   62.5216 H   0  0  0  0  0  0  0  0  0  0  0  0
   51.2234   45.4463   64.0062 C   0  0  0  0  0  0  0  0  0  0  0  0
   52.6148   45.8507   63.5233 C   0  0  0  0  0  0  0  0  0  0  0  0
   53.6531   44.9853   64.2200 C   0  0  0  0  0  0  0  0  0  0  0  0
   53.3427   43.6394   63.9130 O   0  0  0  0  0  0  0  0  0  0  0  0
   52.1198   43.2105   64.4830 C   0  0  0  0  0  0  0  0  0  0  0  0
   50.9735   43.9634   63.8167 C   0  0  0  0  0  0  0  0  0  0  0  0
 24 23  1  0  0  0
  1 24  1  0  0  0
  2  1  1  0  0  0
  1  9  1  0  0  0
  2  3  2  0  0  0
  3  4  1  0  0  0
  4  9  2  0  0  0
  4  5  1  0  0  0
 25  5  1  0  0  0
  5  6  2  0  0  0
 27 25  1  0  0  0
 32 27  1  0  0  0
 27 28  1  0  0  0
 29 28  1  0  0  0
 30 29  1  0  0  0
 31 30  1  0  0  0
 31 32  1  0  0  0
  6  7  1  0  0  0
  6 10  1  0  0  0
  8  7  2  0  0  0
  9  8  1  0  0  0
 14 10  2  0  0  0
 10 11  1  0  0  0
 11 12  1  0  0  0
 13 12  2  0  0  0
 14 13  1  0  0  0
 15 13  1  0  0  0
 15 17  1  0  0  0
 18 16  1  0  0  0
 19 16  1  0  0  0
 16 17  1  0  0  0
 17 20  2  0  0  0
 21 18  1  0  0  0
 22 19  1  0  0  0
 21 22  1  0  0  0
 25 26  1  0  0  0
M  END
> <minimizedAffinity>
-8.15419

$$$$
3O56_ZG1_A_506


 32 36  0  0  0  0  0  0  0  0999 V2000
   43.1610   46.3671   63.0908 N   0  0  0  0  0  0  0  0  0  0  0  0
   43.5872   46.0634   61.8562 N   0  0  0  0  0  0  0  0  0  0  0  0
   44.9347   46.1078   61.8576 C   0  0  0  0  0  0  0  0  0  0  0  0
   45.4216   46.4553   63.1895 C   0  0  0  0  0  0  0  0  0  0  0  0
   46.6347   46.6594   63.8351 C   0  0  0  0  0  0  0  0  0  0  0  0
   46.5694   47.0172   65.2098 C   0  0  0  0  0  0  0  0  0  0  0  0
   45.3187   47.1439   65.8263 C   0  0  0  0  0  0  0  0  0  0  0  0
   44.1679   46.9350   65.2005 N   0  0  0  0  0  0  0  0  0  0  0  0
   44.2008   46.6036   63.8926 C   0  0  0  0  0  0  0  0  0  0  0  0
   47.7579   47.3069   66.0159 C   0  0  0  0  0  0  0  0  0  0  0  0
   47.8402   47.5324   67.3493 O   0  0  0  0  0  0  0  0  0  0  0  0
   49.1992   47.7863   67.6236 N   0  0  0  0  0  0  0  0  0  0  0  0
   49.8156   47.7148   66.4372 C   0  0  0  0  0  0  0  0  0  0  0  0
   48.9705   47.4258   65.4447 N   0  0  0  0  0  0  0  0  0  0  0  0
   51.3107   47.8967   66.2471 C   0  0  0  0  0  0  0  0  0  0  0  0
   52.4588   46.0267   65.2164 N   0  0  0  0  0  0  0  0  0  0  0  0
   51.9235   46.4991   66.3738 C   0  0  0  0  0  0  0  0  0  0  0  0
   52.4675   46.7927   63.9745 C   0  0  0  0  0  0  0  0  0  0  0  0
   53.0809   44.7095   65.1229 C   0  0  0  0  0  0  0  0  0  0  0  0
   51.8966   45.8713   67.4289 O   0  0  0  0  0  0  0  0  0  0  0  0
   53.2146   45.9054   62.9682 C   0  0  0  0  0  0  0  0  0  0  0  0
   53.7988   44.7224   63.7660 C   0  0  0  0  0  0  0  0  0  0  0  0
   41.1305   45.0504   63.1971 C   0  0  0  0  0  0  0  0  0  0  0  0
   41.7502   46.4136   63.4451 C   0  0  0  0  0  0  0  0  0  0  0  0
   47.8850   46.5718   63.2701 N   0  0  0  0  0  0  0  0  0  0  0  0
   48.4966   47.3301   63.4122 H   0  0  0  0  0  0  0  0  0  0  0  0
   48.3796   45.4633   62.4857 C   0  0  0  0  0  0  0  0  0  0  0  0
   49.5250   44.8628   63.2982 C   0  0  0  0  0  0  0  0  0  0  0  0
   50.1218   43.6957   62.5276 C   0  0  0  0  0  0  0  0  0  0  0  0
   50.5509   44.2017   61.2778 O   0  0  0  0  0  0  0  0  0  0  0  0
   49.4789   44.6258   60.4560 C   0  0  0  0  0  0  0  0  0  0  0  0
   48.8252   45.8490   61.0892 C   0  0  0  0  0  0  0  0  0  0  0  0
 24 23  1  0  0  0
  1 24  1  0  0  0
  2  1  1  0  0  0
  1  9  1  0  0  0
  2  3  2  0  0  0
  3  4  1  0  0  0
  4  9  2  0  0  0
  4  5  1  0  0  0
 25  5  1  0  0  0
  5  6  2  0  0  0
 27 25  1  0  0  0
 32 27  1  0  0  0
 27 28  1  0  0  0
 29 28  1  0  0  0
 30 29  1  0  0  0
 31 30  1  0  0  0
 31 32  1  0  0  0
  6  7  1  0  0  0
  6 10  1  0  0  0
  8  7  2  0  0  0
  9  8  1  0  0  0
 14 10  2  0  0  0
 10 11  1  0  0  0
 11 12  1  0  0  0
 13 12  2  0  0  0
 14 13  1  0  0  0
 15 13  1  0  0  0
 15 17  1  0  0  0
 18 16  1  0  0  0
 19 16  1  0  0  0
 16 17  1  0  0  0
 17 20  2  0  0  0
 21 18  1  0  0  0
 22 19  1  0  0  0
 21 22  1  0  0  0
 25 26  1  0  0  0
M  END
> <minimizedAffinity>
-7.84501

$$$$
3O56_ZG1_A_506


 32 36  0  0  0  0  0  0  0  0999 V2000
   44.1560   46.0447   62.3937 N   0  0  0  0  0  0  0  0  0  0  0  0
   44.1836   45.7579   61.0840 N   0  0  0  0  0  0  0  0  0  0  0  0
   45.4615   45.8496   60.6640 C   0  0  0  0  0  0  0  0  0  0  0  0
   46.3295   46.2123   61.7806 C   0  0  0  0  0  0  0  0  0  0  0  0
   47.6764   46.4580   62.0163 C   0  0  0  0  0  0  0  0  0  0  0  0
   48.0334   46.8114   63.3467 C   0  0  0  0  0  0  0  0  0  0  0  0
   47.0354   46.8932   64.3253 C   0  0  0  0  0  0  0  0  0  0  0  0
   45.7540   46.6447   64.0888 N   0  0  0  0  0  0  0  0  0  0  0  0
   45.3863   46.3166   62.8324 C   0  0  0  0  0  0  0  0  0  0  0  0
   49.4044   47.1416   63.7436 C   0  0  0  0  0  0  0  0  0  0  0  0
   49.9971   48.3585   63.8025 O   0  0  0  0  0  0  0  0  0  0  0  0
   51.3250   48.1310   64.2167 N   0  0  0  0  0  0  0  0  0  0  0  0
   51.4278   46.8029   64.3510 C   0  0  0  0  0  0  0  0  0  0  0  0
   50.2822   46.1762   64.0723 N   0  0  0  0  0  0  0  0  0  0  0  0
   52.6884   46.0930   64.8110 C   0  0  0  0  0  0  0  0  0  0  0  0
   54.7317   47.0153   63.8883 N   0  0  0  0  0  0  0  0  0  0  0  0
   53.6762   46.1931   63.6452 C   0  0  0  0  0  0  0  0  0  0  0  0
   54.9158   47.7188   65.1533 C   0  0  0  0  0  0  0  0  0  0  0  0
   55.7790   47.2563   62.9004 C   0  0  0  0  0  0  0  0  0  0  0  0
   53.4948   45.5968   62.5870 O   0  0  0  0  0  0  0  0  0  0  0  0
   56.2484   48.4661   64.9996 C   0  0  0  0  0  0  0  0  0  0  0  0
   56.8869   47.9717   63.6861 C   0  0  0  0  0  0  0  0  0  0  0  0
   42.1552   47.3173   62.8890 C   0  0  0  0  0  0  0  0  0  0  0  0
   42.9266   46.0411   63.1724 C   0  0  0  0  0  0  0  0  0  0  0  0
   48.6889   46.4153   61.0872 N   0  0  0  0  0  0  0  0  0  0  0  0
   49.1073   47.2711   60.8387 H   0  0  0  0  0  0  0  0  0  0  0  0
   49.1923   45.2232   60.4437 C   0  0  0  0  0  0  0  0  0  0  0  0
   50.7126   45.2990   60.5684 C   0  0  0  0  0  0  0  0  0  0  0  0
   51.3276   44.0845   59.8909 C   0  0  0  0  0  0  0  0  0  0  0  0
   50.8928   44.0978   58.5445 O   0  0  0  0  0  0  0  0  0  0  0  0
   49.5003   43.8799   58.4114 C   0  0  0  0  0  0  0  0  0  0  0  0
   48.7552   45.0727   59.0002 C   0  0  0  0  0  0  0  0  0  0  0  0
 24 23  1  0  0  0
  1 24  1  0  0  0
  2  1  1  0  0  0
  1  9  1  0  0  0
  2  3  2  0  0  0
  3  4  1  0  0  0
  4  9  2  0  0  0
  4  5  1  0  0  0
 25  5  1  0  0  0
  5  6  2  0  0  0
 27 25  1  0  0  0
 32 27  1  0  0  0
 27 28  1  0  0  0
 29 28  1  0  0  0
 30 29  1  0  0  0
 31 30  1  0  0  0
 31 32  1  0  0  0
  6  7  1  0  0  0
  6 10  1  0  0  0
  8  7  2  0  0  0
  9  8  1  0  0  0
 14 10  2  0  0  0
 10 11  1  0  0  0
 11 12  1  0  0  0
 13 12  2  0  0  0
 14 13  1  0  0  0
 15 13  1  0  0  0
 15 17  1  0  0  0
 18 16  1  0  0  0
 19 16  1  0  0  0
 16 17  1  0  0  0
 17 20  2  0  0  0
 21 18  1  0  0  0
 22 19  1  0  0  0
 21 22  1  0  0  0
 25 26  1  0  0  0
M  END
> <minimizedAffinity>
-7.62556

$$$$
3O56_ZG1_A_506


 32 36  0  0  0  0  0  0  0  0999 V2000
   55.6175   45.4529   65.9442 N   0  0  0  0  0  0  0  0  0  0  0  0
   54.6018   45.3122   66.8083 N   0  0  0  0  0  0  0  0  0  0  0  0
   53.4989   44.9841   66.1056 C   0  0  0  0  0  0  0  0  0  0  0  0
   53.8205   44.8952   64.6841 C   0  0  0  0  0  0  0  0  0  0  0  0
   53.1757   44.6177   63.4853 C   0  0  0  0  0  0  0  0  0  0  0  0
   53.9707   44.6807   62.3080 C   0  0  0  0  0  0  0  0  0  0  0  0
   55.3269   45.0121   62.4138 C   0  0  0  0  0  0  0  0  0  0  0  0
   55.9327   45.2637   63.5668 N   0  0  0  0  0  0  0  0  0  0  0  0
   55.1992   45.2204   64.6988 C   0  0  0  0  0  0  0  0  0  0  0  0
   53.4277   44.4564   60.9660 C   0  0  0  0  0  0  0  0  0  0  0  0
   53.8612   43.5979   60.0117 O   0  0  0  0  0  0  0  0  0  0  0  0
   53.0165   43.7852   58.8990 N   0  0  0  0  0  0  0  0  0  0  0  0
   52.1635   44.7502   59.2650 C   0  0  0  0  0  0  0  0  0  0  0  0
   52.3863   45.1766   60.5105 N   0  0  0  0  0  0  0  0  0  0  0  0
   51.0426   45.2693   58.3825 C   0  0  0  0  0  0  0  0  0  0  0  0
   48.7696   44.7693   59.0613 N   0  0  0  0  0  0  0  0  0  0  0  0
   49.9023   44.2554   58.5115 C   0  0  0  0  0  0  0  0  0  0  0  0
   48.6469   46.1649   59.4690 C   0  0  0  0  0  0  0  0  0  0  0  0
   47.5724   43.9638   59.2818 C   0  0  0  0  0  0  0  0  0  0  0  0
   50.0330   43.0836   58.1681 O   0  0  0  0  0  0  0  0  0  0  0  0
   47.2017   46.3051   59.9686 C   0  0  0  0  0  0  0  0  0  0  0  0
   46.4798   44.9888   59.6174 C   0  0  0  0  0  0  0  0  0  0  0  0
   57.2140   47.2717   66.0500 C   0  0  0  0  0  0  0  0  0  0  0  0
   56.9641   45.8083   66.3665 C   0  0  0  0  0  0  0  0  0  0  0  0
   51.8447   44.3123   63.3259 N   0  0  0  0  0  0  0  0  0  0  0  0
   51.6290   43.4622   62.8787 H   0  0  0  0  0  0  0  0  0  0  0  0
   50.7346   45.1309   63.7577 C   0  0  0  0  0  0  0  0  0  0  0  0
   49.5647   44.7478   62.8537 C   0  0  0  0  0  0  0  0  0  0  0  0
   48.3526   45.5862   63.2282 C   0  0  0  0  0  0  0  0  0  0  0  0
   48.7278   46.9429   63.0836 O   0  0  0  0  0  0  0  0  0  0  0  0
   49.7103   47.3472   64.0193 C   0  0  0  0  0  0  0  0  0  0  0  0
   51.0145   46.6198   63.7113 C   0  0  0  0  0  0  0  0  0  0  0  0
 24 23  1  0  0  0
  1 24  1  0  0  0
  2  1  1  0  0  0
  1  9  1  0  0  0
  2  3  2  0  0  0
  3  4  1  0  0  0
  4  9  2  0  0  0
  4  5  1  0  0  0
 25  5  1  0  0  0
  5  6  2  0  0  0
 27 25  1  0  0  0
 32 27  1  0  0  0
 27 28  1  0  0  0
 29 28  1  0  0  0
 30 29  1  0  0  0
 31 30  1  0  0  0
 31 32  1  0  0  0
  6  7  1  0  0  0
  6 10  1  0  0  0
  8  7  2  0  0  0
  9  8  1  0  0  0
 14 10  2  0  0  0
 10 11  1  0  0  0
 11 12  1  0  0  0
 13 12  2  0  0  0
 14 13  1  0  0  0
 15 13  1  0  0  0
 15 17  1  0  0  0
 18 16  1  0  0  0
 19 16  1  0  0  0
 16 17  1  0  0  0
 17 20  2  0  0  0
 21 18  1  0  0  0
 22 19  1  0  0  0
 21 22  1  0  0  0
 25 26  1  0  0  0
M  END
> <minimizedAffinity>
-7.61911

$$$$
3O56_ZG1_A_506


 32 36  0  0  0  0  0  0  0  0999 V2000
   56.1428   49.8715   64.9663 N   0  0  0  0  0  0  0  0  0  0  0  0
   55.4456   49.9040   66.1113 N   0  0  0  0  0  0  0  0  0  0  0  0
   54.8158   48.7199   66.2497 C   0  0  0  0  0  0  0  0  0  0  0  0
   55.1326   47.8507   65.1202 C   0  0  0  0  0  0  0  0  0  0  0  0
   54.8265   46.5720   64.6714 C   0  0  0  0  0  0  0  0  0  0  0  0
   55.4070   46.1779   63.4345 C   0  0  0  0  0  0  0  0  0  0  0  0
   56.2345   47.0755   62.7490 C   0  0  0  0  0  0  0  0  0  0  0  0
   56.5276   48.2900   63.1949 N   0  0  0  0  0  0  0  0  0  0  0  0
   55.9822   48.6931   64.3617 C   0  0  0  0  0  0  0  0  0  0  0  0
   55.1463   44.8791   62.8091 C   0  0  0  0  0  0  0  0  0  0  0  0
   56.0374   43.9435   62.4014 O   0  0  0  0  0  0  0  0  0  0  0  0
   55.2800   42.8931   61.8448 N   0  0  0  0  0  0  0  0  0  0  0  0
   54.0051   43.2900   61.9429 C   0  0  0  0  0  0  0  0  0  0  0  0
   53.8912   44.4874   62.5224 N   0  0  0  0  0  0  0  0  0  0  0  0
   52.8209   42.4556   61.4888 C   0  0  0  0  0  0  0  0  0  0  0  0
   51.2455   43.7010   60.1308 N   0  0  0  0  0  0  0  0  0  0  0  0
   52.4166   43.0098   60.1198 C   0  0  0  0  0  0  0  0  0  0  0  0
   50.4597   43.9132   61.3418 C   0  0  0  0  0  0  0  0  0  0  0  0
   50.6792   44.2992   58.9257 C   0  0  0  0  0  0  0  0  0  0  0  0
   53.0915   42.8108   59.1134 O   0  0  0  0  0  0  0  0  0  0  0  0
   49.2741   44.7815   60.8964 C   0  0  0  0  0  0  0  0  0  0  0  0
   49.5588   45.2121   59.4435 C   0  0  0  0  0  0  0  0  0  0  0  0
   56.0662   51.9324   63.6955 C   0  0  0  0  0  0  0  0  0  0  0  0
   56.9446   50.9943   64.5032 C   0  0  0  0  0  0  0  0  0  0  0  0
   54.0022   45.6641   65.2931 N   0  0  0  0  0  0  0  0  0  0  0  0
   53.3061   45.2383   64.7424 H   0  0  0  0  0  0  0  0  0  0  0  0
   54.0688   45.2806   66.6849 C   0  0  0  0  0  0  0  0  0  0  0  0
   55.5342   44.9401   66.9483 C   0  0  0  0  0  0  0  0  0  0  0  0
   55.6894   44.5004   68.3957 C   0  0  0  0  0  0  0  0  0  0  0  0
   54.8326   43.3903   68.5846 O   0  0  0  0  0  0  0  0  0  0  0  0
   53.4612   43.7281   68.4878 C   0  0  0  0  0  0  0  0  0  0  0  0
   53.1519   44.1302   67.0500 C   0  0  0  0  0  0  0  0  0  0  0  0
 24 23  1  0  0  0
  1 24  1  0  0  0
  2  1  1  0  0  0
  1  9  1  0  0  0
  2  3  2  0  0  0
  3  4  1  0  0  0
  4  9  2  0  0  0
  4  5  1  0  0  0
 25  5  1  0  0  0
  5  6  2  0  0  0
 27 25  1  0  0  0
 32 27  1  0  0  0
 27 28  1  0  0  0
 29 28  1  0  0  0
 30 29  1  0  0  0
 31 30  1  0  0  0
 31 32  1  0  0  0
  6  7  1  0  0  0
  6 10  1  0  0  0
  8  7  2  0  0  0
  9  8  1  0  0  0
 14 10  2  0  0  0
 10 11  1  0  0  0
 11 12  1  0  0  0
 13 12  2  0  0  0
 14 13  1  0  0  0
 15 13  1  0  0  0
 15 17  1  0  0  0
 18 16  1  0  0  0
 19 16  1  0  0  0
 16 17  1  0  0  0
 17 20  2  0  0  0
 21 18  1  0  0  0
 22 19  1  0  0  0
 21 22  1  0  0  0
 25 26  1  0  0  0
M  END
> <minimizedAffinity>
-7.55633

$$$$
3O56_ZG1_A_506


 32 36  0  0  0  0  0  0  0  0999 V2000
   48.7249   44.3868   60.1858 N   0  0  0  0  0  0  0  0  0  0  0  0
   48.2178   43.9739   61.3566 N   0  0  0  0  0  0  0  0  0  0  0  0
   49.2162   43.9634   62.2628 C   0  0  0  0  0  0  0  0  0  0  0  0
   50.4595   44.4103   61.6413 C   0  0  0  0  0  0  0  0  0  0  0  0
   51.7868   44.6158   61.9965 C   0  0  0  0  0  0  0  0  0  0  0  0
   52.6567   45.0669   60.9660 C   0  0  0  0  0  0  0  0  0  0  0  0
   52.1452   45.2740   59.6792 C   0  0  0  0  0  0  0  0  0  0  0  0
   50.8725   45.0846   59.3565 N   0  0  0  0  0  0  0  0  0  0  0  0
   50.0271   44.6472   60.3133 C   0  0  0  0  0  0  0  0  0  0  0  0
   54.0901   45.2881   61.1723 C   0  0  0  0  0  0  0  0  0  0  0  0
   55.1210   44.9673   60.3537 O   0  0  0  0  0  0  0  0  0  0  0  0
   56.2953   45.3673   61.0226 N   0  0  0  0  0  0  0  0  0  0  0  0
   55.8788   45.8725   62.1905 C   0  0  0  0  0  0  0  0  0  0  0  0
   54.5495   45.8392   62.3107 N   0  0  0  0  0  0  0  0  0  0  0  0
   56.8071   46.4580   63.2394 C   0  0  0  0  0  0  0  0  0  0  0  0
   56.2145   46.0885   65.5609 N   0  0  0  0  0  0  0  0  0  0  0  0
   56.7310   45.5133   64.4421 C   0  0  0  0  0  0  0  0  0  0  0  0
   55.7545   47.4726   65.6025 C   0  0  0  0  0  0  0  0  0  0  0  0
   56.0685   45.3611   66.8180 C   0  0  0  0  0  0  0  0  0  0  0  0
   57.1322   44.3541   64.3841 O   0  0  0  0  0  0  0  0  0  0  0  0
   55.2053   47.6640   67.0236 C   0  0  0  0  0  0  0  0  0  0  0  0
   55.1872   46.2714   67.6850 C   0  0  0  0  0  0  0  0  0  0  0  0
   46.5218   44.9714   59.3659 C   0  0  0  0  0  0  0  0  0  0  0  0
   47.9173   44.5145   58.9818 C   0  0  0  0  0  0  0  0  0  0  0  0
   52.3423   44.4041   63.2362 N   0  0  0  0  0  0  0  0  0  0  0  0
   53.2352   43.9902   63.2639 H   0  0  0  0  0  0  0  0  0  0  0  0
   51.7295   44.7363   64.5022 C   0  0  0  0  0  0  0  0  0  0  0  0
   51.6132   46.2591   64.5160 C   0  0  0  0  0  0  0  0  0  0  0  0
   50.9948   46.6978   65.8341 C   0  0  0  0  0  0  0  0  0  0  0  0
   51.8304   46.2086   66.8659 O   0  0  0  0  0  0  0  0  0  0  0  0
   51.8287   44.7957   66.9550 C   0  0  0  0  0  0  0  0  0  0  0  0
   52.4909   44.2214   65.7074 C   0  0  0  0  0  0  0  0  0  0  0  0
 24 23  1  0  0  0
  1 24  1  0  0  0
  2  1  1  0  0  0
  1  9  1  0  0  0
  2  3  2  0  0  0
  3  4  1  0  0  0
  4  9  2  0  0  0
  4  5  1  0  0  0
 25  5  1  0  0  0
  5  6  2  0  0  0
 27 25  1  0  0  0
 32 27  1  0  0  0
 27 28  1  0  0  0
 29 28  1  0  0  0
 30 29  1  0  0  0
 31 30  1  0  0  0
 31 32  1  0  0  0
  6  7  1  0  0  0
  6 10  1  0  0  0
  8  7  2  0  0  0
  9  8  1  0  0  0
 14 10  2  0  0  0
 10 11  1  0  0  0
 11 12  1  0  0  0
 13 12  2  0  0  0
 14 13  1  0  0  0
 15 13  1  0  0  0
 15 17  1  0  0  0
 18 16  1  0  0  0
 19 16  1  0  0  0
 16 17  1  0  0  0
 17 20  2  0  0  0
 21 18  1  0  0  0
 22 19  1  0  0  0
 21 22  1  0  0  0
 25 26  1  0  0  0
M  END
> <minimizedAffinity>
-7.49079

$$$$
