3O56_ZG1_A_506
  RCSB PDB12061710013D
Coordinates from PDB:3O56:A:506 Model:1 without hydrogens
 31 35  0  0  0  0            999 V2000
   41.0690   45.3350   63.2400   C 0  0  0  0  0  0  0  0  0  0  0  0
   41.7110   46.7100   63.2070   C 0  0  0  0  0  0  0  0  0  0  0  0
   43.1400   46.5630   62.9740   N 0  0  0  0  0  0  0  0  0  0  0  0
   43.6450   46.1870   61.7900   N 0  0  0  0  0  0  0  0  0  0  0  0
   44.9880   46.1480   61.9030   C 0  0  0  0  0  0  0  0  0  0  0  0
   45.3860   46.5150   63.2590   C 0  0  0  0  0  0  0  0  0  0  0  0
   46.5530   46.6680   63.9970   C 0  0  0  0  0  0  0  0  0  0  0  0
   47.8370   46.4820   63.5420   N 0  0  0  0  0  0  0  0  0  0  0  0
   48.2050   46.0200   62.2230   C 0  0  0  0  0  0  0  0  0  0  0  0
   49.3170   44.9960   62.4410   C 0  0  0  0  0  0  0  0  0  0  0  0
   49.7820   44.4730   61.0910   C 0  0  0  0  0  0  0  0  0  0  0  0
   50.2150   45.5920   60.3410   O 0  0  0  0  0  0  0  0  0  0  0  0
   49.1600   46.4750   60.0070   C 0  0  0  0  0  0  0  0  0  0  0  0
   48.6390   47.1270   61.2830   C 0  0  0  0  0  0  0  0  0  0  0  0
   46.3990   47.0810   65.3490   C 0  0  0  0  0  0  0  0  0  0  0  0
   45.1130   47.3080   65.8540   C 0  0  0  0  0  0  0  0  0  0  0  0
   44.0060   47.1470   65.1410   N 0  0  0  0  0  0  0  0  0  0  0  0
   44.1240   46.7650   63.8520   C 0  0  0  0  0  0  0  0  0  0  0  0
   47.5340   47.3270   66.2420   C 0  0  0  0  0  0  0  0  0  0  0  0
   47.5200   47.6320   67.5620   O 0  0  0  0  0  0  0  0  0  0  0  0
   48.8670   47.7940   67.9440   N 0  0  0  0  0  0  0  0  0  0  0  0
   49.5750   47.5960   66.8250   C 0  0  0  0  0  0  0  0  0  0  0  0
   51.0910   47.6450   66.7620   C 0  0  0  0  0  0  0  0  0  0  0  0
   48.7970   47.3110   65.7780   N 0  0  0  0  0  0  0  0  0  0  0  0
   52.1540   45.8000   65.6030   N 0  0  0  0  0  0  0  0  0  0  0  0
   51.5590   46.1870   66.7630   C 0  0  0  0  0  0  0  0  0  0  0  0
   52.3480   46.7000   64.4710   C 0  0  0  0  0  0  0  0  0  0  0  0
   52.6590   44.4460   65.3970   C 0  0  0  0  0  0  0  0  0  0  0  0
   51.3770   45.4470   67.7260   O 0  0  0  0  0  0  0  0  0  0  0  0
   53.1010   45.8640   63.4260   C 0  0  0  0  0  0  0  0  0  0  0  0
   53.4980   44.5430   64.1150   C 0  0  0  0  0  0  0  0  0  0  0  0
  2  1  1  0  0  0  0
  3  2  1  0  0  0  0
  4  3  1  0  0  0  0
  3 18  1  0  0  0  0
  4  5  2  0  0  0  0
  5  6  1  0  0  0  0
  6 18  2  0  0  0  0
  6  7  1  0  0  0  0
  8  7  1  0  0  0  0
  7 15  2  0  0  0  0
  9  8  1  0  0  0  0
 14  9  1  0  0  0  0
  9 10  1  0  0  0  0
 11 10  1  0  0  0  0
 12 11  1  0  0  0  0
 13 12  1  0  0  0  0
 13 14  1  0  0  0  0
 15 16  1  0  0  0  0
 15 19  1  0  0  0  0
 17 16  2  0  0  0  0
 18 17  1  0  0  0  0
 24 19  2  0  0  0  0
 19 20  1  0  0  0  0
 20 21  1  0  0  0  0
 22 21  2  0  0  0  0
 24 22  1  0  0  0  0
 23 22  1  0  0  0  0
 23 26  1  0  0  0  0
 27 25  1  0  0  0  0
 28 25  1  0  0  0  0
 25 26  1  0  0  0  0
 26 29  2  0  0  0  0
 30 27  1  0  0  0  0
 31 28  1  0  0  0  0
 30 31  1  0  0  0  0
A    1
C1
A    2
C2
A    3
N3
A    4
N4
A    5
C5
A    6
C6
A    7
C7
A    8
N8
A    9
C9
A   10
C10
A   11
C11
A   12
O12
A   13
C13
A   14
C14
A   15
C15
A   16
C16
A   17
N17
A   18
C18
A   19
C19
A   20
O20
A   21
N21
A   22
C22
A   23
C23
A   24
N24
A   25
N25
A   26
C26
A   27
C27
A   28
C28
A   29
O29
A   30
C30
A   31
C31
M  END
>  <InstanceId>
3O56_ZG1_A_506

>  <ChemCompId>
ZG1

>  <PdbId>
3O56

>  <ChainId>
A

>  <ResidueNumber>
506

>  <InsertionCode>


>  <Model>
1

>  <AltIds>


>  <MissingHeavyAtoms>
0

>  <ObservedFormula>
C21 N7 O3

>  <Name>
1-ethyl-5-[3-(2-oxo-2-pyrrolidin-1-ylethyl)-1,2,4-oxadiazol-5-yl]-N-(tetrahydro-2H-pyran-4-yl)-1H-pyrazolo[3,4-b]pyridin-4-amine

>  <SystematicName>
2-[5-[1-ethyl-4-(oxan-4-ylamino)pyrazolo[3,4-b]pyridin-5-yl]-1,2,4-oxadiazol-3-yl]-1-pyrrolidin-1-yl-ethanone

>  <Synonyms>


>  <Type>
NON-POLYMER

>  <Formula>
C21 H27 N7 O3

>  <MolecularWeight>
425.484

>  <ModifiedDate>
2011-07-29

>  <Parent>


>  <OneLetterCode>


>  <SubcomponentList>


>  <AmbiguousFlag>
N

>  <InChI>
InChI=1S/C21H27N7O3/c1-2-28-20-15(13-23-28)19(24-14-5-9-30-10-6-14)16(12-22-20)21-25-17(26-31-21)11-18(29)27-7-3-4-8-27/h12-14H,2-11H2,1H3,(H,22,24)

>  <InChIKey>
WVSSDMGQAQMULY-UHFFFAOYSA-N

>  <SMILES>
CCn1c2c(cn1)c(c(cn2)c3nc(no3)CC(=O)N4CCCC4)NC5CCOCC5

$$$$
