4JNE_ATP_A_1002
  RCSB PDB12061713123D
Coordinates from PDB:4JNE:A:1002 Model:1 without hydrogens
 31 33  0  0  0  0            999 V2000
   13.0360   76.3780   28.1870   P 0  0  0  0  0  0  0  0  0  0  0  0
   12.3240   76.8740   26.9370   O 0  0  0  0  0  0  0  0  0  0  0  0
   12.8220   77.2350   29.4160   O 0  0  0  0  0  0  0  0  0  0  0  0
   12.7900   74.9390   28.4730   O 0  0  0  0  0  0  0  0  0  0  0  0
   15.7640   75.6640   27.2730   P 0  0  0  0  0  0  0  0  0  0  0  0
   15.3140   74.2370   27.1670   O 0  0  0  0  0  0  0  0  0  0  0  0
   16.3450   76.3020   26.0400   O 0  0  0  0  0  0  0  0  0  0  0  0
   14.6150   76.6190   27.9180   O 0  0  0  0  0  0  0  0  0  0  0  0
   18.0500   74.8520   28.8250   P 0  0  0  0  0  0  0  0  0  0  0  0
   18.9570   74.7950   27.6240   O 0  0  0  0  0  0  0  0  0  0  0  0
   17.5370   73.6240   29.5060   O 0  0  0  0  0  0  0  0  0  0  0  0
   16.8090   75.8270   28.4900   O 0  0  0  0  0  0  0  0  0  0  0  0
   18.7840   75.7520   29.9420   O 0  0  0  0  0  0  0  0  0  0  0  0
   19.2860   77.0370   29.5910   C 0  0  0  0  0  0  0  0  0  0  0  0
   19.4310   77.8380   30.8860   C 0  0  0  0  0  0  0  0  0  0  0  0
   20.2570   77.0930   31.7800   O 0  0  0  0  0  0  0  0  0  0  0  0
   20.1080   79.1910   30.6890   C 0  0  0  0  0  0  0  0  0  0  0  0
   19.3970   80.1480   31.4870   O 0  0  0  0  0  0  0  0  0  0  0  0
   21.5080   78.9790   31.2330   C 0  0  0  0  0  0  0  0  0  0  0  0
   22.1510   80.1510   31.7420   O 0  0  0  0  0  0  0  0  0  0  0  0
   21.2240   77.9790   32.3250   C 0  0  0  0  0  0  0  0  0  0  0  0
   22.4140   77.2010   32.6960   N 0  0  0  0  0  0  0  0  0  0  0  0
   23.2050   76.4750   31.8840   C 0  0  0  0  0  0  0  0  0  0  0  0
   24.1990   75.8870   32.6020   N 0  0  0  0  0  0  0  0  0  0  0  0
   24.0320   76.2460   33.8890   C 0  0  0  0  0  0  0  0  0  0  0  0
   24.7320   75.9910   35.1580   C 0  0  0  0  0  0  0  0  0  0  0  0
   25.8370   75.2010   35.1770   N 0  0  0  0  0  0  0  0  0  0  0  0
   24.2280   76.5650   36.2790   N 0  0  0  0  0  0  0  0  0  0  0  0
   23.1310   77.3510   36.2540   C 0  0  0  0  0  0  0  0  0  0  0  0
   22.4510   77.6370   35.1280   N 0  0  0  0  0  0  0  0  0  0  0  0
   22.8530   77.1170   33.9450   C 0  0  0  0  0  0  0  0  0  0  0  0
  1  2  2  0  0  0  0
  1  3  1  0  0  0  0
  1  4  1  0  0  0  0
  1  8  1  0  0  0  0
  5  6  2  0  0  0  0
  5  7  1  0  0  0  0
  5  8  1  0  0  0  0
  5 12  1  0  0  0  0
  9 10  2  0  0  0  0
  9 11  1  0  0  0  0
  9 12  1  0  0  0  0
  9 13  1  0  0  0  0
 13 14  1  0  0  0  0
 14 15  1  0  0  0  0
 15 16  1  0  0  0  0
 15 17  1  0  0  0  0
 16 21  1  0  0  0  0
 17 18  1  0  0  0  0
 17 19  1  0  0  0  0
 19 20  1  0  0  0  0
 19 21  1  0  0  0  0
 21 22  1  0  0  0  0
 22 23  1  0  0  0  0
 22 31  1  0  0  0  0
 23 24  2  0  0  0  0
 24 25  1  0  0  0  0
 25 26  1  0  0  0  0
 25 31  2  0  0  0  0
 26 27  1  0  0  0  0
 26 28  2  0  0  0  0
 28 29  1  0  0  0  0
 29 30  2  0  0  0  0
 30 31  1  0  0  0  0
A    1
PG
A    2
O1G
A    3
O2G
A    4
O3G
A    5
PB
A    6
O1B
A    7
O2B
A    8
O3B
A    9
PA
A   10
O1A
A   11
O2A
A   12
O3A
A   13
O5'
A   14
C5'
A   15
C4'
A   16
O4'
A   17
C3'
A   18
O3'
A   19
C2'
A   20
O2'
A   21
C1'
A   22
N9
A   23
C8
A   24
N7
A   25
C5
A   26
C6
A   27
N6
A   28
N1
A   29
C2
A   30
N3
A   31
C4
M  END
>  <InstanceId>
4JNE_ATP_A_1002

>  <ChemCompId>
ATP

>  <PdbId>
4JNE

>  <ChainId>
A

>  <ResidueNumber>
1002

>  <InsertionCode>


>  <Model>
1

>  <AltIds>


>  <MissingHeavyAtoms>
0

>  <ObservedFormula>
C10 N5 O13 P3

>  <Name>
ADENOSINE-5'-TRIPHOSPHATE

>  <SystematicName>
[[(2R,3S,4R,5R)-5-(6-aminopurin-9-yl)-3,4-dihydroxy-oxolan-2-yl]methoxy-hydroxy-phosphoryl] phosphono hydrogen phosphate

>  <Synonyms>


>  <Type>
NON-POLYMER

>  <Formula>
C10 H16 N5 O13 P3

>  <MolecularWeight>
507.181

>  <ModifiedDate>
2011-06-04

>  <Parent>


>  <OneLetterCode>


>  <SubcomponentList>


>  <AmbiguousFlag>
N

>  <InChI>
InChI=1S/C10H16N5O13P3/c11-8-5-9(13-2-12-8)15(3-14-5)10-7(17)6(16)4(26-10)1-25-30(21,22)28-31(23,24)27-29(18,19)20/h2-4,6-7,10,16-17H,1H2,(H,21,22)(H,23,24)(H2,11,12,13)(H2,18,19,20)/t4-,6-,7-,10-/m1/s1

>  <InChIKey>
ZKHQWZAMYRWXGA-KQYNXXCUSA-N

>  <SMILES>
c1nc(c2c(n1)n(cn2)[C@H]3[C@@H]([C@@H]([C@H](O3)CO[P@@](=O)(O)O[P@](=O)(O)OP(=O)(O)O)O)O)N

$$$$
