4OCT_AKG_A_502
  RCSB PDB12061714023D
Coordinates from PDB:4OCT:A:502 Model:1 without hydrogens
 10  9  0  0  0  0            999 V2000
   17.6820    3.5850    2.5700   C 0  0  0  0  0  0  0  0  0  0  0  0
   18.1430    2.4140    2.9210   O 0  0  0  0  0  0  0  0  0  0  0  0
   18.3450    4.6770    2.6890   O 0  0  0  0  0  0  0  0  0  0  0  0
   16.2990    3.6450    1.9870   C 0  0  0  0  0  0  0  0  0  0  0  0
   15.8170    2.6080    1.5950   O 0  0  0  0  0  0  0  0  0  0  0  0
   15.4490    4.9200    1.9010   C 0  0  0  0  0  0  0  0  0  0  0  0
   13.9930    4.6220    2.3150   C 0  0  0  0  0  0  0  0  0  0  0  0
   13.1660    5.8920    2.5590   C 0  0  0  0  0  0  0  0  0  0  0  0
   13.6230    7.0140    2.2080   O 0  0  0  0  0  0  0  0  0  0  0  0
   12.0340    5.7950    3.1100   O 0  0  0  0  0  0  0  0  0  0  0  0
  1  2  2  0  0  0  0
  1  3  1  0  0  0  0
  1  4  1  0  0  0  0
  4  5  2  0  0  0  0
  4  6  1  0  0  0  0
  6  7  1  0  0  0  0
  7  8  1  0  0  0  0
  8  9  2  0  0  0  0
  8 10  1  0  0  0  0
A    1
C1
A    2
O1
A    3
O2
A    4
C2
A    5
O5
A    6
C3
A    7
C4
A    8
C5
A    9
O3
A   10
O4
M  END
>  <InstanceId>
4OCT_AKG_A_502

>  <ChemCompId>
AKG

>  <PdbId>
4OCT

>  <ChainId>
A

>  <ResidueNumber>
502

>  <InsertionCode>


>  <Model>
1

>  <AltIds>


>  <MissingHeavyAtoms>
0

>  <ObservedFormula>
C5 O5

>  <Name>
2-OXOGLUTARIC ACID

>  <SystematicName>
2-oxidanylidenepentanedioic acid

>  <Synonyms>


>  <Type>
NON-POLYMER

>  <Formula>
C5 H6 O5

>  <MolecularWeight>
146.098

>  <ModifiedDate>
2017-01-17

>  <Parent>


>  <OneLetterCode>


>  <SubcomponentList>


>  <AmbiguousFlag>
N

>  <InChI>
InChI=1S/C5H6O5/c6-3(5(9)10)1-2-4(7)8/h1-2H2,(H,7,8)(H,9,10)

>  <InChIKey>
KPGXRSRHYNQIFN-UHFFFAOYSA-N

>  <SMILES>
C(CC(=O)O)C(=O)C(=O)O

$$$$
