2A5C_8DA_A_303


 25 27  0  0  0  0  0  0  0  0999 V2000
    0.5219   12.6215   24.5814 N   0  0  0  0  0  0  0  0  0  0  0  0
    1.1980   12.1072   25.6085 C   0  0  0  0  0  0  0  0  0  0  0  0
    2.2614   11.1384   25.6013 N   0  0  0  0  0  0  0  0  0  0  0  0
    0.7213   12.6864   26.8857 C   0  0  0  0  0  0  0  0  0  0  0  0
   -0.2756   13.5567   26.5701 N   0  0  0  0  0  0  0  0  0  0  0  0
   -0.3220   13.4709   25.2056 C   0  0  0  0  0  0  0  0  0  0  0  0
   -1.1700   14.1688   24.5280 O   0  0  0  0  0  0  0  0  0  0  0  0
    1.3632   12.2108   28.0528 C   0  0  0  0  0  0  0  0  0  0  0  0
    0.9579   12.7043   29.2533 N   0  0  0  0  0  0  0  0  0  0  0  0
    2.3732   11.2792   27.9806 N   0  0  0  0  0  0  0  0  0  0  0  0
    2.8012   10.7808   26.7917 C   0  0  0  0  0  0  0  0  0  0  0  0
   -0.8252   14.1090   27.1719 H   0  0  0  0  0  0  0  0  0  0  0  0
    0.2342   13.3705   29.2926 H   0  0  0  0  0  0  0  0  0  0  0  0
    1.3883   12.3954   30.0831 H   0  0  0  0  0  0  0  0  0  0  0  0
    2.7967   10.9657   28.8123 H   0  0  0  0  0  0  0  0  0  0  0  0
    1.7048   10.6525   21.8515 C   0  0  0  0  0  0  0  0  0  0  0  0
    0.2444   10.5845   21.6402 C   0  0  0  0  0  0  0  0  0  0  0  0
    0.2644   11.3736   20.4617 O   0  0  0  0  0  0  0  0  0  0  0  0
    1.8699   11.8018   22.6801 O   0  0  0  0  0  0  0  0  0  0  0  0
    0.6453   12.4003   23.1132 C   0  0  0  0  0  0  0  0  0  0  0  0
   -0.4611   11.5765   22.5142 C   0  0  0  0  0  0  0  0  0  0  0  0
    0.6939   12.2231   20.6486 H   0  0  0  0  0  0  0  0  0  0  0  0
    3.2100    9.5285   23.4408 O   0  0  0  0  0  0  0  0  0  0  0  0
    2.1004    9.3447   22.5648 C   0  0  0  0  0  0  0  0  0  0  0  0
    3.4271    8.6855   23.8689 H   0  0  0  0  0  0  0  0  0  0  0  0
 23 24  1  0  0  0
 24 16  1  0  0  0
 16 17  1  0  0  0
 16 19  1  0  0  0
 17 18  1  0  0  0
 17 21  1  0  0  0
 19 20  1  0  0  0
 20 21  1  0  0  0
 20  1  1  0  0  0
  1  2  1  0  0  0
  1  6  1  0  0  0
  2  3  2  0  0  0
  2  4  1  0  0  0
  3 11  1  0  0  0
  4  5  1  0  0  0
  4  8  2  0  0  0
  5  6  1  0  0  0
  6  7  2  0  0  0
  8  9  1  0  0  0
  8 10  1  0  0  0
 10 11  1  0  0  0
 23 25  1  0  0  0
 18 22  1  0  0  0
  5 12  1  0  0  0
  9 13  1  0  0  0
  9 14  1  0  0  0
 10 15  1  0  0  0
M  END
> <minimizedAffinity>
-7.84615

$$$$
2A5C_8DA_A_303


 25 27  0  0  0  0  0  0  0  0999 V2000
    0.6601   12.1807   24.8343 N   0  0  0  0  0  0  0  0  0  0  0  0
   -0.2496   12.6295   25.6989 C   0  0  0  0  0  0  0  0  0  0  0  0
   -1.5059   13.2801   25.4386 N   0  0  0  0  0  0  0  0  0  0  0  0
    0.1812   12.3625   27.0907 C   0  0  0  0  0  0  0  0  0  0  0  0
    1.3922   11.7474   27.0119 N   0  0  0  0  0  0  0  0  0  0  0  0
    1.5954   11.6666   25.6616 C   0  0  0  0  0  0  0  0  0  0  0  0
    2.6689   11.1315   25.1856 O   0  0  0  0  0  0  0  0  0  0  0  0
   -0.7046   12.8011   28.1023 C   0  0  0  0  0  0  0  0  0  0  0  0
   -0.3532   12.5878   29.3984 N   0  0  0  0  0  0  0  0  0  0  0  0
   -1.8921   13.4216   27.7890 N   0  0  0  0  0  0  0  0  0  0  0  0
   -2.2681   13.6351   26.5014 C   0  0  0  0  0  0  0  0  0  0  0  0
    1.9753   11.4385   27.7425 H   0  0  0  0  0  0  0  0  0  0  0  0
    0.4990   12.1427   29.6105 H   0  0  0  0  0  0  0  0  0  0  0  0
   -0.9509   12.8783   30.1247 H   0  0  0  0  0  0  0  0  0  0  0  0
   -2.4845   13.7186   28.5171 H   0  0  0  0  0  0  0  0  0  0  0  0
    1.6638   10.6410   21.7764 C   0  0  0  0  0  0  0  0  0  0  0  0
    0.1928   10.5760   21.6588 C   0  0  0  0  0  0  0  0  0  0  0  0
    0.1221   11.5245   20.6064 O   0  0  0  0  0  0  0  0  0  0  0  0
    1.8771   11.6643   22.7471 O   0  0  0  0  0  0  0  0  0  0  0  0
    0.6809   12.1721   23.3446 C   0  0  0  0  0  0  0  0  0  0  0  0
   -0.4578   11.4207   22.7119 C   0  0  0  0  0  0  0  0  0  0  0  0
    0.5561   12.3468   20.8825 H   0  0  0  0  0  0  0  0  0  0  0  0
    3.1763    9.3442   23.2206 O   0  0  0  0  0  0  0  0  0  0  0  0
    2.1206    9.2530   22.2668 C   0  0  0  0  0  0  0  0  0  0  0  0
    3.4344    8.4530   23.5035 H   0  0  0  0  0  0  0  0  0  0  0  0
 23 24  1  0  0  0
 24 16  1  0  0  0
 16 17  1  0  0  0
 16 19  1  0  0  0
 17 18  1  0  0  0
 17 21  1  0  0  0
 19 20  1  0  0  0
 20 21  1  0  0  0
 20  1  1  0  0  0
  1  2  1  0  0  0
  1  6  1  0  0  0
  2  3  2  0  0  0
  2  4  1  0  0  0
  3 11  1  0  0  0
  4  5  1  0  0  0
  4  8  2  0  0  0
  5  6  1  0  0  0
  6  7  2  0  0  0
  8  9  1  0  0  0
  8 10  1  0  0  0
 10 11  1  0  0  0
 23 25  1  0  0  0
 18 22  1  0  0  0
  5 12  1  0  0  0
  9 13  1  0  0  0
  9 14  1  0  0  0
 10 15  1  0  0  0
M  END
> <minimizedAffinity>
-7.23137

$$$$
2A5C_8DA_A_303


 25 27  0  0  0  0  0  0  0  0999 V2000
    1.9234   11.7840   24.9781 N   0  0  0  0  0  0  0  0  0  0  0  0
    1.8682   11.8707   26.3070 C   0  0  0  0  0  0  0  0  0  0  0  0
    1.4692   12.9824   27.1283 N   0  0  0  0  0  0  0  0  0  0  0  0
    2.2822   10.5914   26.9282 C   0  0  0  0  0  0  0  0  0  0  0  0
    2.5973    9.7478   25.9083 N   0  0  0  0  0  0  0  0  0  0  0  0
    2.3491   10.5145   24.8030 C   0  0  0  0  0  0  0  0  0  0  0  0
    2.5395   10.0446   23.6163 O   0  0  0  0  0  0  0  0  0  0  0  0
    2.2698   10.5632   28.3422 C   0  0  0  0  0  0  0  0  0  0  0  0
    2.6489    9.4147   28.9636 N   0  0  0  0  0  0  0  0  0  0  0  0
    1.8808   11.6623   29.0729 N   0  0  0  0  0  0  0  0  0  0  0  0
    1.4879   12.8159   28.4730 C   0  0  0  0  0  0  0  0  0  0  0  0
    2.9221    8.8196   25.9543 H   0  0  0  0  0  0  0  0  0  0  0  0
    2.9253    8.6347   28.4303 H   0  0  0  0  0  0  0  0  0  0  0  0
    2.6471    9.3633   29.9467 H   0  0  0  0  0  0  0  0  0  0  0  0
    1.8874   11.6112   30.0561 H   0  0  0  0  0  0  0  0  0  0  0  0
    0.8802   12.4633   21.6346 C   0  0  0  0  0  0  0  0  0  0  0  0
   -0.2320   13.0549   22.4059 C   0  0  0  0  0  0  0  0  0  0  0  0
    0.0977   14.3931   22.0705 O   0  0  0  0  0  0  0  0  0  0  0  0
    1.9432   12.3897   22.5830 O   0  0  0  0  0  0  0  0  0  0  0  0
    1.5770   12.7667   23.9132 C   0  0  0  0  0  0  0  0  0  0  0  0
    0.1206   13.1374   23.8601 C   0  0  0  0  0  0  0  0  0  0  0  0
    1.0176   14.5719   22.3207 H   0  0  0  0  0  0  0  0  0  0  0  0
   -0.9912   11.0703   20.8524 O   0  0  0  0  0  0  0  0  0  0  0  0
    0.3974   11.0736   21.1751 C   0  0  0  0  0  0  0  0  0  0  0  0
   -1.2552   10.1811   20.5688 H   0  0  0  0  0  0  0  0  0  0  0  0
 23 24  1  0  0  0
 24 16  1  0  0  0
 16 17  1  0  0  0
 16 19  1  0  0  0
 17 18  1  0  0  0
 17 21  1  0  0  0
 19 20  1  0  0  0
 20 21  1  0  0  0
 20  1  1  0  0  0
  1  2  1  0  0  0
  1  6  1  0  0  0
  2  3  2  0  0  0
  2  4  1  0  0  0
  3 11  1  0  0  0
  4  5  1  0  0  0
  4  8  2  0  0  0
  5  6  1  0  0  0
  6  7  2  0  0  0
  8  9  1  0  0  0
  8 10  1  0  0  0
 10 11  1  0  0  0
 23 25  1  0  0  0
 18 22  1  0  0  0
  5 12  1  0  0  0
  9 13  1  0  0  0
  9 14  1  0  0  0
 10 15  1  0  0  0
M  END
> <minimizedAffinity>
-7.10567

$$$$
2A5C_8DA_A_303


 25 27  0  0  0  0  0  0  0  0999 V2000
    1.4500   11.2240   24.6803 N   0  0  0  0  0  0  0  0  0  0  0  0
    0.9353   12.0382   25.6016 C   0  0  0  0  0  0  0  0  0  0  0  0
   -0.1809   12.9393   25.4949 N   0  0  0  0  0  0  0  0  0  0  0  0
    1.6780   11.9138   26.8771 C   0  0  0  0  0  0  0  0  0  0  0  0
    2.6631   10.9994   26.6661 N   0  0  0  0  0  0  0  0  0  0  0  0
    2.4543   10.6350   25.3643 C   0  0  0  0  0  0  0  0  0  0  0  0
    3.2146    9.7635   24.7919 O   0  0  0  0  0  0  0  0  0  0  0  0
    1.2252   12.7376   27.9339 C   0  0  0  0  0  0  0  0  0  0  0  0
    1.8775   12.6683   29.1249 N   0  0  0  0  0  0  0  0  0  0  0  0
    0.1523   13.5829   27.7683 N   0  0  0  0  0  0  0  0  0  0  0  0
   -0.5206   13.6603   26.5909 C   0  0  0  0  0  0  0  0  0  0  0  0
    3.3525   10.6805   27.2924 H   0  0  0  0  0  0  0  0  0  0  0  0
    2.6440   12.0598   29.2317 H   0  0  0  0  0  0  0  0  0  0  0  0
    1.5834   13.2267   29.8805 H   0  0  0  0  0  0  0  0  0  0  0  0
   -0.1352   14.1463   28.5228 H   0  0  0  0  0  0  0  0  0  0  0  0
   -0.1966   12.2659   21.6917 C   0  0  0  0  0  0  0  0  0  0  0  0
    1.1949   12.1252   21.2162 C   0  0  0  0  0  0  0  0  0  0  0  0
    0.9232   10.9927   20.4066 O   0  0  0  0  0  0  0  0  0  0  0  0
   -0.2246   11.4802   22.8819 O   0  0  0  0  0  0  0  0  0  0  0  0
    1.0457   10.9516   23.2724 C   0  0  0  0  0  0  0  0  0  0  0  0
    2.0332   11.4226   22.2406 C   0  0  0  0  0  0  0  0  0  0  0  0
    0.5175   10.2978   20.9484 H   0  0  0  0  0  0  0  0  0  0  0  0
    0.4914   14.2639   22.9523 O   0  0  0  0  0  0  0  0  0  0  0  0
   -0.4106   13.7673   21.9663 C   0  0  0  0  0  0  0  0  0  0  0  0
    0.3252   15.2087   23.0960 H   0  0  0  0  0  0  0  0  0  0  0  0
 23 24  1  0  0  0
 24 16  1  0  0  0
 16 17  1  0  0  0
 16 19  1  0  0  0
 17 18  1  0  0  0
 17 21  1  0  0  0
 19 20  1  0  0  0
 20 21  1  0  0  0
 20  1  1  0  0  0
  1  2  1  0  0  0
  1  6  1  0  0  0
  2  3  2  0  0  0
  2  4  1  0  0  0
  3 11  1  0  0  0
  4  5  1  0  0  0
  4  8  2  0  0  0
  5  6  1  0  0  0
  6  7  2  0  0  0
  8  9  1  0  0  0
  8 10  1  0  0  0
 10 11  1  0  0  0
 23 25  1  0  0  0
 18 22  1  0  0  0
  5 12  1  0  0  0
  9 13  1  0  0  0
  9 14  1  0  0  0
 10 15  1  0  0  0
M  END
> <minimizedAffinity>
-7.09490

$$$$
2A5C_8DA_A_303


 25 27  0  0  0  0  0  0  0  0999 V2000
    0.8496   12.5613   25.6496 N   0  0  0  0  0  0  0  0  0  0  0  0
   -0.4293   12.7474   25.9755 C   0  0  0  0  0  0  0  0  0  0  0  0
   -1.5718   12.9029   25.1152 N   0  0  0  0  0  0  0  0  0  0  0  0
   -0.5918   12.7697   27.4475 C   0  0  0  0  0  0  0  0  0  0  0  0
    0.6495   12.6016   27.9785 N   0  0  0  0  0  0  0  0  0  0  0  0
    1.4329   12.4745   26.8644 C   0  0  0  0  0  0  0  0  0  0  0  0
    2.7070   12.2985   26.9690 O   0  0  0  0  0  0  0  0  0  0  0  0
   -1.9114   12.9676   27.9165 C   0  0  0  0  0  0  0  0  0  0  0  0
   -2.1150   13.0044   29.2604 N   0  0  0  0  0  0  0  0  0  0  0  0
   -2.9635   13.1138   27.0419 N   0  0  0  0  0  0  0  0  0  0  0  0
   -2.7847   13.0695   25.6961 C   0  0  0  0  0  0  0  0  0  0  0  0
    0.9165   12.5775   28.9258 H   0  0  0  0  0  0  0  0  0  0  0  0
   -1.3545   12.8986   29.8766 H   0  0  0  0  0  0  0  0  0  0  0  0
   -3.0230   13.1368   29.6172 H   0  0  0  0  0  0  0  0  0  0  0  0
   -3.8695   13.2541   27.4009 H   0  0  0  0  0  0  0  0  0  0  0  0
    0.8287   11.3332   22.3000 C   0  0  0  0  0  0  0  0  0  0  0  0
    0.8805   12.7912   22.0686 C   0  0  0  0  0  0  0  0  0  0  0  0
    2.2052   12.7777   21.5617 O   0  0  0  0  0  0  0  0  0  0  0  0
    1.2908   11.1907   23.6420 O   0  0  0  0  0  0  0  0  0  0  0  0
    1.5174   12.4269   24.3246 C   0  0  0  0  0  0  0  0  0  0  0  0
    1.1792   13.5169   23.3453 C   0  0  0  0  0  0  0  0  0  0  0  0
    2.7953   12.3628   22.2102 H   0  0  0  0  0  0  0  0  0  0  0  0
   -1.1352   11.2003   20.8235 O   0  0  0  0  0  0  0  0  0  0  0  0
   -0.6470   10.9206   22.1333 C   0  0  0  0  0  0  0  0  0  0  0  0
   -2.0638   10.9271   20.7593 H   0  0  0  0  0  0  0  0  0  0  0  0
 23 24  1  0  0  0
 24 16  1  0  0  0
 16 17  1  0  0  0
 16 19  1  0  0  0
 17 18  1  0  0  0
 17 21  1  0  0  0
 19 20  1  0  0  0
 20 21  1  0  0  0
 20  1  1  0  0  0
  1  2  1  0  0  0
  1  6  1  0  0  0
  2  3  2  0  0  0
  2  4  1  0  0  0
  3 11  1  0  0  0
  4  5  1  0  0  0
  4  8  2  0  0  0
  5  6  1  0  0  0
  6  7  2  0  0  0
  8  9  1  0  0  0
  8 10  1  0  0  0
 10 11  1  0  0  0
 23 25  1  0  0  0
 18 22  1  0  0  0
  5 12  1  0  0  0
  9 13  1  0  0  0
  9 14  1  0  0  0
 10 15  1  0  0  0
M  END
> <minimizedAffinity>
-6.99038

$$$$
2A5C_8DA_A_303


 25 27  0  0  0  0  0  0  0  0999 V2000
    2.0578   11.2951   25.1797 N   0  0  0  0  0  0  0  0  0  0  0  0
    1.9205   10.7816   23.9573 C   0  0  0  0  0  0  0  0  0  0  0  0
    2.5446    9.6181   23.3863 N   0  0  0  0  0  0  0  0  0  0  0  0
    0.9643   11.5852   23.1613 C   0  0  0  0  0  0  0  0  0  0  0  0
    0.5515   12.6046   23.9623 N   0  0  0  0  0  0  0  0  0  0  0  0
    1.2252   12.3568   25.1268 C   0  0  0  0  0  0  0  0  0  0  0  0
    1.0876   13.1338   26.1480 O   0  0  0  0  0  0  0  0  0  0  0  0
    0.7400   11.1390   21.8380 C   0  0  0  0  0  0  0  0  0  0  0  0
   -0.1233   11.8460   21.0611 N   0  0  0  0  0  0  0  0  0  0  0  0
    1.3709   10.0189   21.3478 N   0  0  0  0  0  0  0  0  0  0  0  0
    2.2287    9.2915   22.1096 C   0  0  0  0  0  0  0  0  0  0  0  0
   -0.0743   13.3360   23.7559 H   0  0  0  0  0  0  0  0  0  0  0  0
   -0.5690   12.6459   21.4227 H   0  0  0  0  0  0  0  0  0  0  0  0
   -0.3028   11.5579   20.1369 H   0  0  0  0  0  0  0  0  0  0  0  0
    1.1961    9.7372   20.4207 H   0  0  0  0  0  0  0  0  0  0  0  0
    2.3056   10.6665   28.6828 C   0  0  0  0  0  0  0  0  0  0  0  0
    2.5264    9.3129   28.1341 C   0  0  0  0  0  0  0  0  0  0  0  0
    3.8932    9.2608   28.5096 O   0  0  0  0  0  0  0  0  0  0  0  0
    2.5927   11.5254   27.5807 O   0  0  0  0  0  0  0  0  0  0  0  0
    2.8584   10.8431   26.3520 C   0  0  0  0  0  0  0  0  0  0  0  0
    2.7445    9.3741   26.6527 C   0  0  0  0  0  0  0  0  0  0  0  0
    4.3606   10.0240   28.1353 H   0  0  0  0  0  0  0  0  0  0  0  0
    0.1290   11.7962   28.4803 O   0  0  0  0  0  0  0  0  0  0  0  0
    0.8260   10.7242   29.1107 C   0  0  0  0  0  0  0  0  0  0  0  0
   -0.7953   11.7983   28.7746 H   0  0  0  0  0  0  0  0  0  0  0  0
 23 24  1  0  0  0
 24 16  1  0  0  0
 16 17  1  0  0  0
 16 19  1  0  0  0
 17 18  1  0  0  0
 17 21  1  0  0  0
 19 20  1  0  0  0
 20 21  1  0  0  0
 20  1  1  0  0  0
  1  2  1  0  0  0
  1  6  1  0  0  0
  2  3  2  0  0  0
  2  4  1  0  0  0
  3 11  1  0  0  0
  4  5  1  0  0  0
  4  8  2  0  0  0
  5  6  1  0  0  0
  6  7  2  0  0  0
  8  9  1  0  0  0
  8 10  1  0  0  0
 10 11  1  0  0  0
 23 25  1  0  0  0
 18 22  1  0  0  0
  5 12  1  0  0  0
  9 13  1  0  0  0
  9 14  1  0  0  0
 10 15  1  0  0  0
M  END
> <minimizedAffinity>
-6.96905

$$$$
2A5C_8DA_A_303


 25 27  0  0  0  0  0  0  0  0999 V2000
    1.9057   10.8997   24.2460 N   0  0  0  0  0  0  0  0  0  0  0  0
    1.9316   11.0891   25.5651 C   0  0  0  0  0  0  0  0  0  0  0  0
    1.1980   12.0370   26.3606 N   0  0  0  0  0  0  0  0  0  0  0  0
    2.8648   10.1353   26.2080 C   0  0  0  0  0  0  0  0  0  0  0  0
    3.3998    9.3816   25.2097 N   0  0  0  0  0  0  0  0  0  0  0  0
    2.7795    9.8810   24.0974 C   0  0  0  0  0  0  0  0  0  0  0  0
    3.0396    9.4058   22.9262 O   0  0  0  0  0  0  0  0  0  0  0  0
    2.9821   10.2441   27.6133 C   0  0  0  0  0  0  0  0  0  0  0  0
    3.8320    9.3970   28.2528 N   0  0  0  0  0  0  0  0  0  0  0  0
    2.2551   11.1753   28.3186 N   0  0  0  0  0  0  0  0  0  0  0  0
    1.3924   12.0240   27.7017 C   0  0  0  0  0  0  0  0  0  0  0  0
    4.0656    8.6591   25.2720 H   0  0  0  0  0  0  0  0  0  0  0  0
    4.3470    8.7347   27.7377 H   0  0  0  0  0  0  0  0  0  0  0  0
    3.9323    9.4459   29.2310 H   0  0  0  0  0  0  0  0  0  0  0  0
    2.3629   11.2279   29.2958 H   0  0  0  0  0  0  0  0  0  0  0  0
   -0.7958   13.0168   23.2722 C   0  0  0  0  0  0  0  0  0  0  0  0
    0.3612   13.7735   22.7516 C   0  0  0  0  0  0  0  0  0  0  0  0
    0.0447   13.5395   21.3888 O   0  0  0  0  0  0  0  0  0  0  0  0
   -0.2869   11.6936   23.4297 O   0  0  0  0  0  0  0  0  0  0  0  0
    1.1141   11.5635   23.1726 C   0  0  0  0  0  0  0  0  0  0  0  0
    1.6029   12.9357   22.7987 C   0  0  0  0  0  0  0  0  0  0  0  0
   -0.0273   12.5848   21.2329 H   0  0  0  0  0  0  0  0  0  0  0  0
   -1.5785   12.7082   25.5845 O   0  0  0  0  0  0  0  0  0  0  0  0
   -1.1724   13.6719   24.6156 C   0  0  0  0  0  0  0  0  0  0  0  0
   -1.8063   13.1587   26.4128 H   0  0  0  0  0  0  0  0  0  0  0  0
 23 24  1  0  0  0
 24 16  1  0  0  0
 16 17  1  0  0  0
 16 19  1  0  0  0
 17 18  1  0  0  0
 17 21  1  0  0  0
 19 20  1  0  0  0
 20 21  1  0  0  0
 20  1  1  0  0  0
  1  2  1  0  0  0
  1  6  1  0  0  0
  2  3  2  0  0  0
  2  4  1  0  0  0
  3 11  1  0  0  0
  4  5  1  0  0  0
  4  8  2  0  0  0
  5  6  1  0  0  0
  6  7  2  0  0  0
  8  9  1  0  0  0
  8 10  1  0  0  0
 10 11  1  0  0  0
 23 25  1  0  0  0
 18 22  1  0  0  0
  5 12  1  0  0  0
  9 13  1  0  0  0
  9 14  1  0  0  0
 10 15  1  0  0  0
M  END
> <minimizedAffinity>
-6.74138

$$$$
2A5C_8DA_A_303


 25 27  0  0  0  0  0  0  0  0999 V2000
    0.6044   12.1806   25.8412 N   0  0  0  0  0  0  0  0  0  0  0  0
    1.1558   11.8105   26.9969 C   0  0  0  0  0  0  0  0  0  0  0  0
    1.8205   10.5797   27.3325 N   0  0  0  0  0  0  0  0  0  0  0  0
    1.0236   12.8888   28.0037 C   0  0  0  0  0  0  0  0  0  0  0  0
    0.3581   13.9084   27.3966 N   0  0  0  0  0  0  0  0  0  0  0  0
    0.1609   13.4220   26.1334 C   0  0  0  0  0  0  0  0  0  0  0  0
   -0.4569   14.1239   25.2440 O   0  0  0  0  0  0  0  0  0  0  0  0
    1.5689   12.6088   29.2783 C   0  0  0  0  0  0  0  0  0  0  0  0
    1.4674   13.5623   30.2423 N   0  0  0  0  0  0  0  0  0  0  0  0
    2.1904   11.4092   29.5390 N   0  0  0  0  0  0  0  0  0  0  0  0
    2.3126   10.4469   28.5881 C   0  0  0  0  0  0  0  0  0  0  0  0
    0.0869   14.7773   27.7719 H   0  0  0  0  0  0  0  0  0  0  0  0
    1.0205   14.4169   30.0442 H   0  0  0  0  0  0  0  0  0  0  0  0
    1.8407   13.3982   31.1383 H   0  0  0  0  0  0  0  0  0  0  0  0
    2.5559   11.2440   30.4381 H   0  0  0  0  0  0  0  0  0  0  0  0
    0.1221   12.3147   22.3088 C   0  0  0  0  0  0  0  0  0  0  0  0
    1.4935   11.7716   22.3887 C   0  0  0  0  0  0  0  0  0  0  0  0
    1.1331   10.4853   21.9116 O   0  0  0  0  0  0  0  0  0  0  0  0
   -0.4223   12.0402   23.5984 O   0  0  0  0  0  0  0  0  0  0  0  0
    0.5104   11.4826   24.5283 C   0  0  0  0  0  0  0  0  0  0  0  0
    1.8171   11.3628   23.7937 C   0  0  0  0  0  0  0  0  0  0  0  0
    0.4277   10.1199   22.4682 H   0  0  0  0  0  0  0  0  0  0  0  0
   -0.7907   14.3269   21.2259 O   0  0  0  0  0  0  0  0  0  0  0  0
    0.2696   13.8244   22.0357 C   0  0  0  0  0  0  0  0  0  0  0  0
   -0.6619   15.2768   21.0774 H   0  0  0  0  0  0  0  0  0  0  0  0
 23 24  1  0  0  0
 24 16  1  0  0  0
 16 17  1  0  0  0
 16 19  1  0  0  0
 17 18  1  0  0  0
 17 21  1  0  0  0
 19 20  1  0  0  0
 20 21  1  0  0  0
 20  1  1  0  0  0
  1  2  1  0  0  0
  1  6  1  0  0  0
  2  3  2  0  0  0
  2  4  1  0  0  0
  3 11  1  0  0  0
  4  5  1  0  0  0
  4  8  2  0  0  0
  5  6  1  0  0  0
  6  7  2  0  0  0
  8  9  1  0  0  0
  8 10  1  0  0  0
 10 11  1  0  0  0
 23 25  1  0  0  0
 18 22  1  0  0  0
  5 12  1  0  0  0
  9 13  1  0  0  0
  9 14  1  0  0  0
 10 15  1  0  0  0
M  END
> <minimizedAffinity>
-6.64888

$$$$
2A5C_8DA_A_303


 25 27  0  0  0  0  0  0  0  0999 V2000
    0.0010   12.3660   25.9628 N   0  0  0  0  0  0  0  0  0  0  0  0
   -1.2332   12.7789   26.2509 C   0  0  0  0  0  0  0  0  0  0  0  0
   -2.3630   12.9428   25.3757 N   0  0  0  0  0  0  0  0  0  0  0  0
   -1.3578   13.0718   27.6975 C   0  0  0  0  0  0  0  0  0  0  0  0
   -0.1392   12.8263   28.2505 N   0  0  0  0  0  0  0  0  0  0  0  0
    0.5943   12.4061   27.1751 C   0  0  0  0  0  0  0  0  0  0  0  0
    1.8347   12.0764   27.3093 O   0  0  0  0  0  0  0  0  0  0  0  0
   -2.6273   13.5259   28.1247 C   0  0  0  0  0  0  0  0  0  0  0  0
   -2.7936   13.8169   29.4425 N   0  0  0  0  0  0  0  0  0  0  0  0
   -3.6693   13.6659   27.2371 N   0  0  0  0  0  0  0  0  0  0  0  0
   -3.5286   13.3707   25.9187 C   0  0  0  0  0  0  0  0  0  0  0  0
    0.1435   12.9260   29.1883 H   0  0  0  0  0  0  0  0  0  0  0  0
   -2.0408   13.7130   30.0684 H   0  0  0  0  0  0  0  0  0  0  0  0
   -3.6668   14.1316   29.7707 H   0  0  0  0  0  0  0  0  0  0  0  0
   -4.5394   13.9883   27.5661 H   0  0  0  0  0  0  0  0  0  0  0  0
    0.0179   12.3553   22.3951 C   0  0  0  0  0  0  0  0  0  0  0  0
    1.3209   12.9882   22.6843 C   0  0  0  0  0  0  0  0  0  0  0  0
    2.0860   11.8884   22.2185 O   0  0  0  0  0  0  0  0  0  0  0  0
   -0.3023   11.6784   23.6092 O   0  0  0  0  0  0  0  0  0  0  0  0
    0.6141   11.9190   24.6806 C   0  0  0  0  0  0  0  0  0  0  0  0
    1.6634   12.8489   24.1366 C   0  0  0  0  0  0  0  0  0  0  0  0
    1.8162   11.0843   22.6891 H   0  0  0  0  0  0  0  0  0  0  0  0
   -0.3999   14.4493   21.1723 O   0  0  0  0  0  0  0  0  0  0  0  0
   -0.9607   13.5036   22.0798 C   0  0  0  0  0  0  0  0  0  0  0  0
   -1.0444   15.1535   20.9999 H   0  0  0  0  0  0  0  0  0  0  0  0
 23 24  1  0  0  0
 24 16  1  0  0  0
 16 17  1  0  0  0
 16 19  1  0  0  0
 17 18  1  0  0  0
 17 21  1  0  0  0
 19 20  1  0  0  0
 20 21  1  0  0  0
 20  1  1  0  0  0
  1  2  1  0  0  0
  1  6  1  0  0  0
  2  3  2  0  0  0
  2  4  1  0  0  0
  3 11  1  0  0  0
  4  5  1  0  0  0
  4  8  2  0  0  0
  5  6  1  0  0  0
  6  7  2  0  0  0
  8  9  1  0  0  0
  8 10  1  0  0  0
 10 11  1  0  0  0
 23 25  1  0  0  0
 18 22  1  0  0  0
  5 12  1  0  0  0
  9 13  1  0  0  0
  9 14  1  0  0  0
 10 15  1  0  0  0
M  END
> <minimizedAffinity>
-6.62097

$$$$
2A5C_8DA_A_303


 25 27  0  0  0  0  0  0  0  0999 V2000
   -0.2590   12.9561   25.5311 N   0  0  0  0  0  0  0  0  0  0  0  0
   -1.4387   13.0623   26.1423 C   0  0  0  0  0  0  0  0  0  0  0  0
   -2.7535   13.1608   25.5669 N   0  0  0  0  0  0  0  0  0  0  0  0
   -1.2635   13.0566   27.6131 C   0  0  0  0  0  0  0  0  0  0  0  0
    0.0733   12.9555   27.8452 N   0  0  0  0  0  0  0  0  0  0  0  0
    0.5888   12.8887   26.5800 C   0  0  0  0  0  0  0  0  0  0  0  0
    1.8611   12.7870   26.3892 O   0  0  0  0  0  0  0  0  0  0  0  0
   -2.4508   13.1704   28.3732 C   0  0  0  0  0  0  0  0  0  0  0  0
   -2.3455   13.1784   29.7288 N   0  0  0  0  0  0  0  0  0  0  0  0
   -3.6805   13.2651   27.7631 N   0  0  0  0  0  0  0  0  0  0  0  0
   -3.8100   13.2482   26.4111 C   0  0  0  0  0  0  0  0  0  0  0  0
    0.5495   12.9355   28.7067 H   0  0  0  0  0  0  0  0  0  0  0  0
   -1.4603   13.1101   30.1542 H   0  0  0  0  0  0  0  0  0  0  0  0
   -3.1545   13.2526   30.2849 H   0  0  0  0  0  0  0  0  0  0  0  0
   -4.4875   13.3472   28.3211 H   0  0  0  0  0  0  0  0  0  0  0  0
    1.6634   11.4910   22.9069 C   0  0  0  0  0  0  0  0  0  0  0  0
    0.2921   11.1358   22.4881 C   0  0  0  0  0  0  0  0  0  0  0  0
    0.2910   11.9990   21.3626 O   0  0  0  0  0  0  0  0  0  0  0  0
    1.4672   12.5830   23.8035 O   0  0  0  0  0  0  0  0  0  0  0  0
    0.0966   12.8778   24.0864 C   0  0  0  0  0  0  0  0  0  0  0  0
   -0.7182   11.8892   23.2990 C   0  0  0  0  0  0  0  0  0  0  0  0
    0.4981   12.9027   21.6480 H   0  0  0  0  0  0  0  0  0  0  0  0
    2.7928    9.3170   22.6764 O   0  0  0  0  0  0  0  0  0  0  0  0
    2.2389   10.2442   23.6069 C   0  0  0  0  0  0  0  0  0  0  0  0
    3.1431    8.5492   23.1546 H   0  0  0  0  0  0  0  0  0  0  0  0
 23 24  1  0  0  0
 24 16  1  0  0  0
 16 17  1  0  0  0
 16 19  1  0  0  0
 17 18  1  0  0  0
 17 21  1  0  0  0
 19 20  1  0  0  0
 20 21  1  0  0  0
 20  1  1  0  0  0
  1  2  1  0  0  0
  1  6  1  0  0  0
  2  3  2  0  0  0
  2  4  1  0  0  0
  3 11  1  0  0  0
  4  5  1  0  0  0
  4  8  2  0  0  0
  5  6  1  0  0  0
  6  7  2  0  0  0
  8  9  1  0  0  0
  8 10  1  0  0  0
 10 11  1  0  0  0
 23 25  1  0  0  0
 18 22  1  0  0  0
  5 12  1  0  0  0
  9 13  1  0  0  0
  9 14  1  0  0  0
 10 15  1  0  0  0
M  END
> <minimizedAffinity>
-6.61865

$$$$
