4O07_FGH_A_4000


 33 37  0  0  0  0  0  0  0  0999 V2000
    8.8299  -11.9798  -24.2703 O   0  0  0  0  0  0  0  0  0  0  0  0
    7.6866  -12.3919  -24.3095 C   0  0  0  0  0  0  0  0  0  0  0  0
    7.4267  -13.8505  -24.6148 C   0  0  0  0  0  0  0  0  0  0  0  0
    6.1452  -14.1479  -25.4101 C   0  0  0  0  0  0  0  0  0  0  0  0
    5.8745  -15.6516  -25.4096 C   0  0  0  0  0  0  0  0  0  0  0  0
    6.2993  -13.6735  -26.8595 C   0  0  0  0  0  0  0  0  0  0  0  0
    4.9724  -13.4210  -24.7388 C   0  0  0  0  0  0  0  0  0  0  0  0
    5.2690  -12.0060  -24.3378 C   0  0  0  0  0  0  0  0  0  0  0  0
    6.5346  -11.4879  -24.1385 C   0  0  0  0  0  0  0  0  0  0  0  0
    6.3710  -10.0858  -23.8114 C   0  0  0  0  0  0  0  0  0  0  0  0
    7.4529   -9.0672  -23.5242 C   0  0  0  0  0  0  0  0  0  0  0  0
    6.8334   -7.6634  -23.5212 C   0  0  0  0  0  0  0  0  0  0  0  0
    5.5263   -7.5605  -22.8723 N   0  0  0  0  0  0  0  0  0  0  0  0
    5.0485   -6.1652  -22.8616 C   0  0  0  0  0  0  0  0  0  0  0  0
    4.5479   -8.4305  -23.5174 C   0  0  0  0  0  0  0  0  0  0  0  0
    5.0268   -9.8163  -23.8219 C   0  0  0  0  0  0  0  0  0  0  0  0
    4.3528  -10.9808  -24.1539 N   0  0  0  0  0  0  0  0  0  0  0  0
    2.9368  -11.0492  -24.4159 C   0  0  0  0  0  0  0  0  0  0  0  0
    2.3869  -10.1992  -25.3771 C   0  0  0  0  0  0  0  0  0  0  0  0
    2.1303  -11.9644  -23.7269 C   0  0  0  0  0  0  0  0  0  0  0  0
    0.7711  -12.0587  -24.0236 C   0  0  0  0  0  0  0  0  0  0  0  0
   -0.0901  -13.0435  -23.2668 C   0  0  0  0  0  0  0  0  0  0  0  0
   -1.5151  -12.5461  -23.1440 C   0  0  0  0  0  0  0  0  0  0  0  0
   -1.9800  -12.0712  -24.4585 N   0  0  0  0  0  0  0  0  0  0  0  0
   -1.2149  -11.4502  -25.3800 C   0  0  0  0  0  0  0  0  0  0  0  0
   -1.6705  -11.1528  -26.4780 O   0  0  0  0  0  0  0  0  0  0  0  0
    0.2093  -11.2090  -25.0214 C   0  0  0  0  0  0  0  0  0  0  0  0
    1.0290  -10.2432  -25.6721 C   0  0  0  0  0  0  0  0  0  0  0  0
   -2.9271  -12.2191  -24.6832 H   0  0  0  0  0  0  0  0  0  0  0  0
    0.5821   -9.1580  -26.6280 C   0  0  0  0  0  0  0  0  0  0  0  0
   -0.0439   -7.8749  -26.0449 C   0  0  0  0  0  0  0  0  0  0  0  0
   -0.1039   -6.7889  -27.1119 C   0  0  0  0  0  0  0  0  0  0  0  0
    0.6453   -7.3138  -24.7932 C   0  0  0  0  0  0  0  0  0  0  0  0
 32 31  1  0  0  0
  6  4  1  0  0  0
 26 25  2  0  0  0
 30 31  1  0  0  0
 30 28  1  0  0  0
 31 33  1  0  0  0
 28 19  2  0  0  0
 28 27  1  0  0  0
 25 27  1  0  0  0
 25 24  1  0  0  0
  5  4  1  0  0  0
  4  7  1  0  0  0
  4  3  1  0  0  0
 19 18  1  0  0  0
 27 21  2  0  0  0
  7  8  1  0  0  0
 24 23  1  0  0  0
  3  2  1  0  0  0
 18 17  1  0  0  0
 18 20  2  0  0  0
  8 17  1  0  0  0
  8  9  2  0  0  0
 21 20  1  0  0  0
 21 22  1  0  0  0
  2  1  2  0  0  0
  2  9  1  0  0  0
 17 16  1  0  0  0
  9 10  1  0  0  0
 16 10  2  0  0  0
 16 15  1  0  0  0
 22 23  1  0  0  0
 10 11  1  0  0  0
 15 13  1  0  0  0
 11 12  1  0  0  0
 12 13  1  0  0  0
 13 14  1  0  0  0
 24 29  1  0  0  0
M  END
> <minimizedAffinity>
-13.70974

$$$$
