4KSY_1SY_A_500


 54 60  0  0  0  0  0  0  0  0999 V2000
   43.1937    5.0797  -17.2723 C   0  0  0  0  0  0  0  0  0  0  0  0
   43.6298    4.6894  -18.5957 C   0  0  0  0  0  0  0  0  0  0  0  0
   42.5901    3.8826  -19.1680 O   0  0  0  0  0  0  0  0  0  0  0  0
   44.8179    3.8650  -18.3680 C   0  0  0  0  0  0  0  0  0  0  0  0
   44.4154    3.0943  -17.1824 C   0  0  0  0  0  0  0  0  0  0  0  0
   45.6072    2.6937  -16.3632 C   0  0  0  0  0  0  0  0  0  0  0  0
   46.3595    3.8399  -16.0893 O   0  0  0  0  0  0  0  0  0  0  0  0
   47.8101    3.6988  -15.4328 P   0  0  0  0  0  0  0  0  0  0  0  0
   48.4635    5.0388  -15.1419 O   0  0  0  0  0  0  0  0  0  0  0  0
   48.7745    2.8047  -16.3908 O   0  0  0  0  0  0  0  0  0  0  0  0
   48.6423    3.0126  -17.7856 C   0  0  0  0  0  0  0  0  0  0  0  0
   48.6848    1.7320  -18.5578 C   0  0  0  0  0  0  0  0  0  0  0  0
   49.6078    0.8245  -17.9784 O   0  0  0  0  0  0  0  0  0  0  0  0
   49.2040    2.1119  -19.8629 C   0  0  0  0  0  0  0  0  0  0  0  0
   48.1266    2.3836  -20.8814 C   0  0  0  0  0  0  0  0  0  0  0  0
   47.3912    3.5494  -20.6111 O   0  0  0  0  0  0  0  0  0  0  0  0
   45.8063    3.5938  -20.8310 P   0  0  0  0  0  0  0  0  0  0  0  0
   44.9929    2.9919  -19.5257 O   0  0  0  0  0  0  0  0  0  0  0  0
   45.3865    4.9930  -21.1385 O   0  0  0  0  0  0  0  0  0  0  0  0
   45.4471    2.7259  -21.9760 O   0  0  0  0  0  0  0  0  0  0  0  0
   50.0603    3.2624  -19.6522 O   0  0  0  0  0  0  0  0  0  0  0  0
   49.8240    3.7603  -18.3069 C   0  0  0  0  0  0  0  0  0  0  0  0
   47.6402    2.9406  -14.1875 O   0  0  0  0  0  0  0  0  0  0  0  0
   43.5809    4.0065  -16.4218 O   0  0  0  0  0  0  0  0  0  0  0  0
   42.4020    3.1337  -18.5810 H   0  0  0  0  0  0  0  0  0  0  0  0
   47.8821    5.5648  -14.5706 H   0  0  0  0  0  0  0  0  0  0  0  0
   50.4865    1.2339  -17.9458 H   0  0  0  0  0  0  0  0  0  0  0  0
   45.7157    1.8132  -21.7867 H   0  0  0  0  0  0  0  0  0  0  0  0
   49.6139    5.1145  -18.3837 N   0  0  0  0  0  0  0  0  0  0  0  0
   48.5415    5.7554  -18.8005 C   0  0  0  0  0  0  0  0  0  0  0  0
   48.7621    7.0740  -18.7314 N   0  0  0  0  0  0  0  0  0  0  0  0
   50.5667    6.0341  -18.0569 C   0  0  0  0  0  0  0  0  0  0  0  0
   50.0207    7.2891  -18.2807 C   0  0  0  0  0  0  0  0  0  0  0  0
   50.8283    8.5242  -18.0017 C   0  0  0  0  0  0  0  0  0  0  0  0
   52.1535    8.3904  -17.5160 N   0  0  0  0  0  0  0  0  0  0  0  0
   52.7038    7.0862  -17.2983 C   0  0  0  0  0  0  0  0  0  0  0  0
   54.0369    6.9468  -16.8120 N   0  0  0  0  0  0  0  0  0  0  0  0
   51.9093    5.8936  -17.5588 N   0  0  0  0  0  0  0  0  0  0  0  0
   50.3500    9.6639  -18.1887 O   0  0  0  0  0  0  0  0  0  0  0  0
   54.4151    6.0503  -16.6624 H   0  0  0  0  0  0  0  0  0  0  0  0
   54.5791    7.7472  -16.6258 H   0  0  0  0  0  0  0  0  0  0  0  0
   52.2875    4.9994  -17.3955 H   0  0  0  0  0  0  0  0  0  0  0  0
   41.8782    8.8938  -18.5525 C   0  0  0  0  0  0  0  0  0  0  0  0
   44.4177   10.9726  -16.8260 N   0  0  0  0  0  0  0  0  0  0  0  0
   43.6579    9.7935  -17.2919 C   0  0  0  0  0  0  0  0  0  0  0  0
   42.5928    9.9325  -18.0967 N   0  0  0  0  0  0  0  0  0  0  0  0
   42.2160    7.6636  -18.2079 N   0  0  0  0  0  0  0  0  0  0  0  0
   43.2821    7.4049  -17.4033 C   0  0  0  0  0  0  0  0  0  0  0  0
   44.0557    8.4775  -16.9015 C   0  0  0  0  0  0  0  0  0  0  0  0
   45.0438    7.9314  -16.1234 N   0  0  0  0  0  0  0  0  0  0  0  0
   44.9258    6.5787  -16.1097 C   0  0  0  0  0  0  0  0  0  0  0  0
   43.8685    6.2838  -16.8698 N   0  0  0  0  0  0  0  0  0  0  0  0
   45.1969   10.8544  -16.2359 H   0  0  0  0  0  0  0  0  0  0  0  0
   44.1446   11.8761  -17.1057 H   0  0  0  0  0  0  0  0  0  0  0  0
 23  8  2  0  0  0
  9  8  1  0  0  0
  8  7  1  0  0  0
  8 10  1  0  0  0
  7  6  1  0  0  0
 24  5  1  0  0  0
 24  1  1  0  0  0
  6  5  1  0  0  0
 51 50  2  0  0  0
 51 52  1  0  0  0
 50 49  1  0  0  0
 10 11  1  0  0  0
 52  1  1  0  0  0
 52 48  1  0  0  0
 37 36  1  0  0  0
  5  4  1  0  0  0
  1  2  1  0  0  0
 49 48  2  0  0  0
 49 45  1  0  0  0
 44 45  1  0  0  0
 48 47  1  0  0  0
 36 38  1  0  0  0
 36 35  2  0  0  0
 45 46  2  0  0  0
 38 32  1  0  0  0
 35 34  1  0  0  0
 11 12  1  0  0  0
 11 22  1  0  0  0
 13 12  1  0  0  0
 47 43  2  0  0  0
  4  2  1  0  0  0
  4 18  1  0  0  0
 46 43  1  0  0  0
  2  3  1  0  0  0
 32 33  2  0  0  0
 32 29  1  0  0  0
 34 39  2  0  0  0
 34 33  1  0  0  0
 12 14  1  0  0  0
 22 29  1  0  0  0
 22 21  1  0  0  0
 33 31  1  0  0  0
 29 30  1  0  0  0
 18 17  1  0  0  0
 31 30  2  0  0  0
 21 14  1  0  0  0
 14 15  1  0  0  0
 16 17  1  0  0  0
 16 15  1  0  0  0
 17 19  2  0  0  0
 17 20  1  0  0  0
 44 53  1  0  0  0
 44 54  1  0  0  0
  3 25  1  0  0  0
  9 26  1  0  0  0
 13 27  1  0  0  0
 20 28  1  0  0  0
 37 40  1  0  0  0
 37 41  1  0  0  0
 38 42  1  0  0  0
M  END
> <minimizedAffinity>
-16.30468

$$$$
4KSY_1SY_A_500


 54 60  0  0  0  0  0  0  0  0999 V2000
   50.7635    5.1452  -18.3550 C   0  0  0  0  0  0  0  0  0  0  0  0
   50.3147    4.7490  -17.0376 C   0  0  0  0  0  0  0  0  0  0  0  0
   51.3534    3.9487  -16.4548 O   0  0  0  0  0  0  0  0  0  0  0  0
   49.1354    3.9164  -17.2811 C   0  0  0  0  0  0  0  0  0  0  0  0
   49.5576    3.1511  -18.4633 C   0  0  0  0  0  0  0  0  0  0  0  0
   48.3785    2.7435  -19.2973 C   0  0  0  0  0  0  0  0  0  0  0  0
   47.6211    3.8847  -19.5779 O   0  0  0  0  0  0  0  0  0  0  0  0
   46.1794    3.7344  -20.2517 P   0  0  0  0  0  0  0  0  0  0  0  0
   45.5196    5.0701  -20.5477 O   0  0  0  0  0  0  0  0  0  0  0  0
   45.2104    2.8312  -19.3069 O   0  0  0  0  0  0  0  0  0  0  0  0
   45.3245    3.0372  -17.9103 C   0  0  0  0  0  0  0  0  0  0  0  0
   45.2824    1.7546  -17.1412 C   0  0  0  0  0  0  0  0  0  0  0  0
   44.3730    0.8416  -17.7333 O   0  0  0  0  0  0  0  0  0  0  0  0
   44.7450    2.1280  -15.8416 C   0  0  0  0  0  0  0  0  0  0  0  0
   45.8084    2.4054  -14.8098 C   0  0  0  0  0  0  0  0  0  0  0  0
   46.5382    3.5772  -15.0692 O   0  0  0  0  0  0  0  0  0  0  0  0
   48.1201    3.6328  -14.8304 P   0  0  0  0  0  0  0  0  0  0  0  0
   48.9533    3.0396  -16.1272 O   0  0  0  0  0  0  0  0  0  0  0  0
   48.5259    5.0344  -14.5152 O   0  0  0  0  0  0  0  0  0  0  0  0
   48.4721    2.7651  -13.6830 O   0  0  0  0  0  0  0  0  0  0  0  0
   43.8828    3.2727  -16.0601 O   0  0  0  0  0  0  0  0  0  0  0  0
   44.1313    3.7751  -17.4015 C   0  0  0  0  0  0  0  0  0  0  0  0
   46.3696    2.9800  -21.4964 O   0  0  0  0  0  0  0  0  0  0  0  0
   50.3942    4.0710  -19.2122 O   0  0  0  0  0  0  0  0  0  0  0  0
   51.5540    3.2024  -17.0409 H   0  0  0  0  0  0  0  0  0  0  0  0
   46.1038    5.6015  -21.1109 H   0  0  0  0  0  0  0  0  0  0  0  0
   43.4917    1.2446  -17.7755 H   0  0  0  0  0  0  0  0  0  0  0  0
   48.2125    1.8509  -13.8773 H   0  0  0  0  0  0  0  0  0  0  0  0
   44.3305    5.1306  -17.3196 N   0  0  0  0  0  0  0  0  0  0  0  0
   45.4009    5.7785  -16.9083 C   0  0  0  0  0  0  0  0  0  0  0  0
   45.1685    7.0955  -16.9689 N   0  0  0  0  0  0  0  0  0  0  0  0
   43.3673    6.0436  -17.6337 C   0  0  0  0  0  0  0  0  0  0  0  0
   43.9044    7.3022  -17.4080 C   0  0  0  0  0  0  0  0  0  0  0  0
   43.0840    8.5316  -17.6741 C   0  0  0  0  0  0  0  0  0  0  0  0
   41.7560    8.3890  -18.1494 N   0  0  0  0  0  0  0  0  0  0  0  0
   41.2150    7.0812  -18.3692 C   0  0  0  0  0  0  0  0  0  0  0  0
   39.8792    6.9329  -18.8452 N   0  0  0  0  0  0  0  0  0  0  0  0
   42.0218    5.8942  -18.1215 N   0  0  0  0  0  0  0  0  0  0  0  0
   43.5541    9.6745  -17.4851 O   0  0  0  0  0  0  0  0  0  0  0  0
   39.5074    6.0339  -18.9963 H   0  0  0  0  0  0  0  0  0  0  0  0
   39.3286    7.7295  -19.0228 H   0  0  0  0  0  0  0  0  0  0  0  0
   41.6499    4.9976  -18.2862 H   0  0  0  0  0  0  0  0  0  0  0  0
   52.0766    8.9707  -17.1068 C   0  0  0  0  0  0  0  0  0  0  0  0
   49.5259   11.0325  -18.8371 N   0  0  0  0  0  0  0  0  0  0  0  0
   50.2899    9.8582  -18.3661 C   0  0  0  0  0  0  0  0  0  0  0  0
   51.3581   10.0049  -17.5668 N   0  0  0  0  0  0  0  0  0  0  0  0
   51.7398    7.7375  -17.4414 N   0  0  0  0  0  0  0  0  0  0  0  0
   50.6709    7.4712  -18.2398 C   0  0  0  0  0  0  0  0  0  0  0  0
   49.8932    8.5387  -18.7458 C   0  0  0  0  0  0  0  0  0  0  0  0
   48.9030    7.9853  -19.5159 N   0  0  0  0  0  0  0  0  0  0  0  0
   49.0235    6.6328  -19.5208 C   0  0  0  0  0  0  0  0  0  0  0  0
   50.0846    6.3452  -18.7630 N   0  0  0  0  0  0  0  0  0  0  0  0
   48.7445   10.9087  -19.4231 H   0  0  0  0  0  0  0  0  0  0  0  0
   49.7983   11.9385  -18.5648 H   0  0  0  0  0  0  0  0  0  0  0  0
 23  8  2  0  0  0
  9  8  1  0  0  0
  8  7  1  0  0  0
  8 10  1  0  0  0
  7  6  1  0  0  0
 24  5  1  0  0  0
 24  1  1  0  0  0
  6  5  1  0  0  0
 51 50  2  0  0  0
 51 52  1  0  0  0
 50 49  1  0  0  0
 10 11  1  0  0  0
 52  1  1  0  0  0
 52 48  1  0  0  0
 37 36  1  0  0  0
  5  4  1  0  0  0
  1  2  1  0  0  0
 49 48  2  0  0  0
 49 45  1  0  0  0
 44 45  1  0  0  0
 48 47  1  0  0  0
 36 38  1  0  0  0
 36 35  2  0  0  0
 45 46  2  0  0  0
 38 32  1  0  0  0
 35 34  1  0  0  0
 11 12  1  0  0  0
 11 22  1  0  0  0
 13 12  1  0  0  0
 47 43  2  0  0  0
  4  2  1  0  0  0
  4 18  1  0  0  0
 46 43  1  0  0  0
  2  3  1  0  0  0
 32 33  2  0  0  0
 32 29  1  0  0  0
 34 39  2  0  0  0
 34 33  1  0  0  0
 12 14  1  0  0  0
 22 29  1  0  0  0
 22 21  1  0  0  0
 33 31  1  0  0  0
 29 30  1  0  0  0
 18 17  1  0  0  0
 31 30  2  0  0  0
 21 14  1  0  0  0
 14 15  1  0  0  0
 16 17  1  0  0  0
 16 15  1  0  0  0
 17 19  2  0  0  0
 17 20  1  0  0  0
 44 53  1  0  0  0
 44 54  1  0  0  0
  3 25  1  0  0  0
  9 26  1  0  0  0
 13 27  1  0  0  0
 20 28  1  0  0  0
 37 40  1  0  0  0
 37 41  1  0  0  0
 38 42  1  0  0  0
M  END
> <minimizedAffinity>
-16.27292

$$$$
