5G5V_8Z4_A_1936
  RCSB PDB03171809503D
Coordinates from PDB:5G5V:A:1936 Model:1 without hydrogens
 36 40  0  0  0  0            999 V2000
  135.9070   85.7140   63.9910   O 0  0  0  0  0  0  0  0  0  0  0  0
  135.7240   86.7580   64.6020   C 0  0  0  0  0  0  0  0  0  0  0  0
  134.7600   87.6810   64.1930   N 0  0  0  0  0  0  0  0  0  0  0  0
  133.8830   87.4410   63.0180   C 0  0  0  0  0  0  0  0  0  0  0  0
  134.2830   88.3340   61.8630   C 0  0  0  0  0  0  0  0  0  0  0  0
  132.4310   87.6270   63.4010   C 0  0  0  0  0  0  0  0  0  0  0  0
  136.5570   87.1320   65.8110   C 0  0  0  0  0  0  0  0  0  0  0  0
  137.2950   85.9680   66.4910   C 0  0  0  0  0  0  0  0  0  0  0  0
  136.4410   85.2200   67.4580   C 0  0  0  0  0  0  0  0  0  0  0  0
  135.2760   85.6600   67.8870   C 0  0  0  0  0  0  0  0  0  0  0  0
  134.7030   86.9830   67.5080   C 0  0  0  0  0  0  0  0  0  0  0  0
  135.6980   87.9390   66.8080   C 0  0  0  0  0  0  0  0  0  0  0  0
  134.9880   89.0280   66.0240   C 0  0  0  0  0  0  0  0  0  0  0  0
  134.5570   88.8820   64.8210   N 0  0  0  0  0  0  0  0  0  0  0  0
  134.7310   90.3490   66.6470   C 0  0  0  0  0  0  0  0  0  0  0  0
  134.6220   91.4860   65.8430   C 0  0  0  0  0  0  0  0  0  0  0  0
  134.3180   92.7130   66.4190   C 0  0  0  0  0  0  0  0  0  0  0  0
  134.1940   92.8060   67.8210   C 0  0  0  0  0  0  0  0  0  0  0  0
  133.9430   94.0660   68.3030   O 0  0  0  0  0  0  0  0  0  0  0  0
  133.5420   94.2370   69.6590   C 0  0  0  0  0  0  0  0  0  0  0  0
  134.3070   91.6720   68.6160   C 0  0  0  0  0  0  0  0  0  0  0  0
  134.5700   90.4500   68.0260   C 0  0  0  0  0  0  0  0  0  0  0  0
  134.2990   93.8900   65.6510   C 0  0  0  0  0  0  0  0  0  0  0  0
  133.1240   94.5680   65.3330   C 0  0  0  0  0  0  0  0  0  0  0  0
  133.1650   95.7830   64.6660   C 0  0  0  0  0  0  0  0  0  0  0  0
  134.3820   96.3670   64.3250   C 0  0  0  0  0  0  0  0  0  0  0  0
  135.5550   95.7180   64.6940   C 0  0  0  0  0  0  0  0  0  0  0  0
  135.5100   94.4990   65.3430   C 0  0  0  0  0  0  0  0  0  0  0  0
  134.4220   97.7230   63.6890   C 0  0  0  0  0  0  0  0  0  0  0  0
  133.7030   98.6150   64.1500   O 0  0  0  0  0  0  0  0  0  0  0  0
  135.3270   98.0040   62.7370   N 0  0  0  0  0  0  0  0  0  0  0  0
  135.3600   99.3200   62.0770   C 0  0  0  0  0  0  0  0  0  0  0  0
  135.8800   98.9320   60.7040   C 0  0  0  0  0  0  0  0  0  0  0  0
  134.8690   98.2480   59.9730   O 0  0  0  0  0  0  0  0  0  0  0  0
  137.0040   97.9860   61.0880   C 0  0  0  0  0  0  0  0  0  0  0  0
  136.4040   97.1500   62.2040   C 0  0  0  0  0  0  0  0  0  0  0  0
  1  2  2  0  0  0  0
  2  3  1  0  0  0  0
  2  7  1  0  0  0  0
  3  4  1  0  0  0  0
  3 14  1  0  0  0  0
  4  5  1  0  0  0  0
  4  6  1  0  0  0  0
  7  8  1  0  0  0  0
  7 12  1  0  0  0  0
  8  9  1  0  0  0  0
  9 10  2  0  0  0  0
 10 11  1  0  0  0  0
 11 12  1  0  0  0  0
 12 13  1  0  0  0  0
 13 14  2  0  0  0  0
 13 15  1  0  0  0  0
 15 16  1  0  0  0  0
 15 22  2  0  0  0  0
 16 17  2  0  0  0  0
 17 18  1  0  0  0  0
 17 23  1  0  0  0  0
 18 19  1  0  0  0  0
 18 21  2  0  0  0  0
 19 20  1  0  0  0  0
 21 22  1  0  0  0  0
 23 24  1  0  0  0  0
 23 28  2  0  0  0  0
 24 25  2  0  0  0  0
 25 26  1  0  0  0  0
 26 27  2  0  0  0  0
 26 29  1  0  0  0  0
 27 28  1  0  0  0  0
 29 30  2  0  0  0  0
 29 31  1  0  0  0  0
 31 32  1  0  0  0  0
 31 36  1  0  0  0  0
 32 33  1  0  0  0  0
 33 34  1  0  0  0  0
 33 35  1  0  0  0  0
 35 36  1  0  0  0  0
A    1
O3
A    2
C28
A    3
N
A    4
C1
A    5
C2
A    6
C
A    7
C27
A    8
C26
A    9
C25
A   10
C24
A   11
C23
A   12
C22
A   13
C3
A   14
N1
A   15
C4
A   16
C21
A   17
C9
A   18
C7
A   19
O
A   20
C8
A   21
C6
A   22
C5
A   23
C10
A   24
C20
A   25
C19
A   26
C13
A   27
C12
A   28
C11
A   29
C14
A   30
O2
A   31
N2
A   32
C18
A   33
C17
A   34
O1
A   35
C16
A   36
C15
M  END
>  <InstanceId>
5G5V_8Z4_A_1936

>  <ChemCompId>
8Z4

>  <PdbId>
5G5V

>  <ChainId>
A

>  <ResidueNumber>
1936

>  <InsertionCode>


>  <Model>
1

>  <AltIds>


>  <MissingHeavyAtoms>
0

>  <ObservedFormula>
C29 N3 O4

>  <Name>
(4AS,8AR)-4-(3-{4-[(3R)-3-HYDROXYPYRROLIDINE-1-

>  <SystematicName>
(4aS,8aR)-4-[4-methoxy-3-[4-[(3R)-3-oxidanylpyrrolidin-1-yl]carbonylphenyl]phenyl]-2-propan-2-yl-4a,5,8,8a-tetrahydrophthalazin-1-one

>  <Synonyms>


>  <Type>
non-polymer

>  <Formula>
C29 H33 N3 O4

>  <MolecularWeight>
487.59

>  <ModifiedDate>
2018-03-09

>  <Parent>


>  <OneLetterCode>


>  <SubcomponentList>


>  <AmbiguousFlag>
N

>  <InChI>
InChI=1S/C29H33N3O4/c1-18(2)32-29(35)24-7-5-4-6-23(24)27(30-32)21-12-13-26(36-3)25(16-21)19-8-10-20(11-9-19)28(34)31-15-14-22(33)17-31/h4-5,8-13,16,18,22-24,33H,6-7,14-15,17H2,1-3H3/t22-,23+,24-/m1/s1

>  <InChIKey>
UNEWFLJRNQWALM-TZRRMPRUSA-N

>  <SMILES>
CC(C)N1C(=O)[C@@H]2CC=CC[C@@H]2C(=N1)c3ccc(c(c3)c4ccc(cc4)C(=O)N5CC[C@H](C5)O)OC

$$$$
