1K9S_FM2_A_9901


 26 28  0  0  0  0  0  0  0  0999 V2000
  144.4408   70.3240   64.7745 N   0  0  0  0  0  0  0  0  0  0  0  0
  143.6037   69.7100   63.8134 C   0  0  0  0  0  0  0  0  0  0  0  0
  143.5623   68.3576   63.6531 N   0  0  0  0  0  0  0  0  0  0  0  0
  144.4061   67.6649   64.5359 C   0  0  0  0  0  0  0  0  0  0  0  0
  145.2546   68.1934   65.5333 C   0  0  0  0  0  0  0  0  0  0  0  0
  145.3125   69.6227   65.7001 C   0  0  0  0  0  0  0  0  0  0  0  0
  146.0218   70.2534   66.5235 N   0  0  0  0  0  0  0  0  0  0  0  0
  145.9176   67.1801   66.1933 N   0  0  0  0  0  0  0  0  0  0  0  0
  145.4974   66.0879   65.6126 N   0  0  0  0  0  0  0  0  0  0  0  0
  144.5845   66.2859   64.5907 C   0  0  0  0  0  0  0  0  0  0  0  0
  144.4626   71.7560   64.7499 C   0  0  0  0  0  0  0  0  0  0  0  0
  145.9844   71.2367   66.5537 H   0  0  0  0  0  0  0  0  0  0  0  0
  146.6149   69.7642   67.1384 H   0  0  0  0  0  0  0  0  0  0  0  0
  146.5613   67.2613   66.9338 H   0  0  0  0  0  0  0  0  0  0  0  0
  144.0758   65.0369   63.8458 C   0  0  0  0  0  0  0  0  0  0  0  0
  143.1492   65.2793   62.6135 C   0  0  0  0  0  0  0  0  0  0  0  0
  141.8908   64.6590   62.8240 O   0  0  0  0  0  0  0  0  0  0  0  0
  143.9718   64.6809   61.4128 C   0  0  0  0  0  0  0  0  0  0  0  0
  143.4976   63.3963   60.9691 O   0  0  0  0  0  0  0  0  0  0  0  0
  145.3975   64.5852   61.9082 C   0  0  0  0  0  0  0  0  0  0  0  0
  145.2518   64.3635   63.3508 O   0  0  0  0  0  0  0  0  0  0  0  0
  142.0215   63.7141   63.0004 H   0  0  0  0  0  0  0  0  0  0  0  0
  143.5561   62.7602   61.6991 H   0  0  0  0  0  0  0  0  0  0  0  0
  146.2245   65.8813   61.5938 C   0  0  0  0  0  0  0  0  0  0  0  0
  147.3256   66.0285   62.4951 O   0  0  0  0  0  0  0  0  0  0  0  0
  146.9925   66.1026   63.4031 H   0  0  0  0  0  0  0  0  0  0  0  0
  1  2  2  0  0  0
  1  6  1  0  0  0
  1 11  1  0  0  0
  2  3  1  0  0  0
  3  4  2  0  0  0
  4  5  1  0  0  0
  4 10  1  0  0  0
  5  6  2  0  0  0
  5  8  1  0  0  0
  6  7  1  0  0  0
  8  9  1  0  0  0
  9 10  2  0  0  0
 10 15  1  0  0  0
 15 16  1  0  0  0
 15 21  1  0  0  0
 16 17  1  0  0  0
 16 18  1  0  0  0
 18 19  1  0  0  0
 18 20  1  0  0  0
 20 21  1  0  0  0
 20 24  1  0  0  0
 24 25  1  0  0  0
  7 12  1  0  0  0
  7 13  1  0  0  0
  8 14  1  0  0  0
 17 22  1  0  0  0
 19 23  1  0  0  0
 25 26  1  0  0  0
M  CHG 1   1   1
M  END
> <minimizedAffinity>
-10.38700

$$$$
1K9S_FM2_A_9901


 26 28  0  0  0  0  0  0  0  0999 V2000
  145.8488   70.3837   66.1933 N   0  0  0  0  0  0  0  0  0  0  0  0
  146.2243   69.0564   66.5079 C   0  0  0  0  0  0  0  0  0  0  0  0
  145.6420   67.9813   65.9069 N   0  0  0  0  0  0  0  0  0  0  0  0
  144.6698   68.3319   64.9565 C   0  0  0  0  0  0  0  0  0  0  0  0
  144.2496   69.6229   64.5680 C   0  0  0  0  0  0  0  0  0  0  0  0
  144.8523   70.7637   65.2079 C   0  0  0  0  0  0  0  0  0  0  0  0
  144.5842   71.9724   64.9931 N   0  0  0  0  0  0  0  0  0  0  0  0
  143.2732   69.5438   63.5973 N   0  0  0  0  0  0  0  0  0  0  0  0
  143.1022   68.2615   63.4154 N   0  0  0  0  0  0  0  0  0  0  0  0
  143.9014   67.4501   64.2027 C   0  0  0  0  0  0  0  0  0  0  0  0
  146.4658   71.4046   66.9861 C   0  0  0  0  0  0  0  0  0  0  0  0
  145.0591   72.6776   65.4894 H   0  0  0  0  0  0  0  0  0  0  0  0
  143.8993   72.2141   64.3285 H   0  0  0  0  0  0  0  0  0  0  0  0
  142.8103   70.2852   63.1442 H   0  0  0  0  0  0  0  0  0  0  0  0
  143.7229   65.9268   64.0565 C   0  0  0  0  0  0  0  0  0  0  0  0
  143.3678   65.3916   62.6340 C   0  0  0  0  0  0  0  0  0  0  0  0
  142.1252   64.7078   62.6698 O   0  0  0  0  0  0  0  0  0  0  0  0
  144.5969   64.4797   62.2679 C   0  0  0  0  0  0  0  0  0  0  0  0
  144.3294   63.0706   62.3903 O   0  0  0  0  0  0  0  0  0  0  0  0
  145.7051   64.8995   63.2074 C   0  0  0  0  0  0  0  0  0  0  0  0
  144.9934   65.3424   64.4111 O   0  0  0  0  0  0  0  0  0  0  0  0
  142.1672   63.9951   63.3264 H   0  0  0  0  0  0  0  0  0  0  0  0
  144.0864   62.8661   63.3069 H   0  0  0  0  0  0  0  0  0  0  0  0
  146.5989   66.0381   62.6014 C   0  0  0  0  0  0  0  0  0  0  0  0
  147.8601   66.1231   63.2713 O   0  0  0  0  0  0  0  0  0  0  0  0
  147.7153   66.3272   64.2085 H   0  0  0  0  0  0  0  0  0  0  0  0
  1  2  2  0  0  0
  1  6  1  0  0  0
  1 11  1  0  0  0
  2  3  1  0  0  0
  3  4  2  0  0  0
  4  5  1  0  0  0
  4 10  1  0  0  0
  5  6  2  0  0  0
  5  8  1  0  0  0
  6  7  1  0  0  0
  8  9  1  0  0  0
  9 10  2  0  0  0
 10 15  1  0  0  0
 15 16  1  0  0  0
 15 21  1  0  0  0
 16 17  1  0  0  0
 16 18  1  0  0  0
 18 19  1  0  0  0
 18 20  1  0  0  0
 20 21  1  0  0  0
 20 24  1  0  0  0
 24 25  1  0  0  0
  7 12  1  0  0  0
  7 13  1  0  0  0
  8 14  1  0  0  0
 17 22  1  0  0  0
 19 23  1  0  0  0
 25 26  1  0  0  0
M  CHG 1   1   1
M  END
> <minimizedAffinity>
-8.42066

$$$$
1K9S_FM2_A_9901


 26 28  0  0  0  0  0  0  0  0999 V2000
  144.4745   69.4567   64.8948 N   0  0  0  0  0  0  0  0  0  0  0  0
  143.5429   69.3310   63.8376 C   0  0  0  0  0  0  0  0  0  0  0  0
  143.2975   68.1355   63.2320 N   0  0  0  0  0  0  0  0  0  0  0  0
  144.0391   67.0732   63.7731 C   0  0  0  0  0  0  0  0  0  0  0  0
  144.9696   67.1054   64.8347 C   0  0  0  0  0  0  0  0  0  0  0  0
  145.2429   68.3679   65.4714 C   0  0  0  0  0  0  0  0  0  0  0  0
  146.0490   68.5739   66.4131 N   0  0  0  0  0  0  0  0  0  0  0  0
  145.4817   65.8466   65.0696 N   0  0  0  0  0  0  0  0  0  0  0  0
  144.8954   65.0890   64.1813 N   0  0  0  0  0  0  0  0  0  0  0  0
  144.0097   65.7490   63.3466 C   0  0  0  0  0  0  0  0  0  0  0  0
  144.7101   70.7925   65.3549 C   0  0  0  0  0  0  0  0  0  0  0  0
  146.1596   69.4821   66.7766 H   0  0  0  0  0  0  0  0  0  0  0  0
  146.5699   67.8270   66.7874 H   0  0  0  0  0  0  0  0  0  0  0  0
  146.1395   65.5795   65.7516 H   0  0  0  0  0  0  0  0  0  0  0  0
  143.3104   64.9143   62.2567 C   0  0  0  0  0  0  0  0  0  0  0  0
  144.2012   64.3975   61.0840 C   0  0  0  0  0  0  0  0  0  0  0  0
  143.7199   64.9051   59.8497 O   0  0  0  0  0  0  0  0  0  0  0  0
  144.1117   62.8321   61.2178 C   0  0  0  0  0  0  0  0  0  0  0  0
  143.2401   62.2171   60.2512 O   0  0  0  0  0  0  0  0  0  0  0  0
  143.6201   62.5747   62.6246 C   0  0  0  0  0  0  0  0  0  0  0  0
  142.7898   63.7460   62.9242 O   0  0  0  0  0  0  0  0  0  0  0  0
  142.7897   64.6541   59.7376 H   0  0  0  0  0  0  0  0  0  0  0  0
  142.3408   62.5638   60.3600 H   0  0  0  0  0  0  0  0  0  0  0  0
  144.8000   62.4143   63.6468 C   0  0  0  0  0  0  0  0  0  0  0  0
  144.9867   61.0452   64.0169 O   0  0  0  0  0  0  0  0  0  0  0  0
  144.1803   60.7119   64.4406 H   0  0  0  0  0  0  0  0  0  0  0  0
  1  2  2  0  0  0
  1  6  1  0  0  0
  1 11  1  0  0  0
  2  3  1  0  0  0
  3  4  2  0  0  0
  4  5  1  0  0  0
  4 10  1  0  0  0
  5  6  2  0  0  0
  5  8  1  0  0  0
  6  7  1  0  0  0
  8  9  1  0  0  0
  9 10  2  0  0  0
 10 15  1  0  0  0
 15 16  1  0  0  0
 15 21  1  0  0  0
 16 17  1  0  0  0
 16 18  1  0  0  0
 18 19  1  0  0  0
 18 20  1  0  0  0
 20 21  1  0  0  0
 20 24  1  0  0  0
 24 25  1  0  0  0
  7 12  1  0  0  0
  7 13  1  0  0  0
  8 14  1  0  0  0
 17 22  1  0  0  0
 19 23  1  0  0  0
 25 26  1  0  0  0
M  CHG 1   1   1
M  END
> <minimizedAffinity>
-8.39870

$$$$
1K9S_FM2_A_9901


 26 28  0  0  0  0  0  0  0  0999 V2000
  145.8404   69.1375   65.8710 N   0  0  0  0  0  0  0  0  0  0  0  0
  146.6461   67.9809   65.9924 C   0  0  0  0  0  0  0  0  0  0  0  0
  146.3133   66.8048   65.3903 N   0  0  0  0  0  0  0  0  0  0  0  0
  145.1259   66.8759   64.6446 C   0  0  0  0  0  0  0  0  0  0  0  0
  144.2759   67.9874   64.4543 C   0  0  0  0  0  0  0  0  0  0  0  0
  144.6150   69.2305   65.0976 C   0  0  0  0  0  0  0  0  0  0  0  0
  143.9636   70.3037   65.0458 N   0  0  0  0  0  0  0  0  0  0  0  0
  143.2093   67.6501   63.6477 N   0  0  0  0  0  0  0  0  0  0  0  0
  143.3997   66.3874   63.3723 N   0  0  0  0  0  0  0  0  0  0  0  0
  144.5334   65.8320   63.9407 C   0  0  0  0  0  0  0  0  0  0  0  0
  146.2565   70.2646   66.6507 C   0  0  0  0  0  0  0  0  0  0  0  0
  144.2873   71.0997   65.5263 H   0  0  0  0  0  0  0  0  0  0  0  0
  143.1294   70.3486   64.5249 H   0  0  0  0  0  0  0  0  0  0  0  0
  142.4719   68.2294   63.3477 H   0  0  0  0  0  0  0  0  0  0  0  0
  144.7953   64.3366   63.6782 C   0  0  0  0  0  0  0  0  0  0  0  0
  143.5857   63.4856   63.1799 C   0  0  0  0  0  0  0  0  0  0  0  0
  143.3203   62.4366   64.0976 O   0  0  0  0  0  0  0  0  0  0  0  0
  144.0426   62.9976   61.7553 C   0  0  0  0  0  0  0  0  0  0  0  0
  144.4660   61.6222   61.7224 O   0  0  0  0  0  0  0  0  0  0  0  0
  145.1751   63.9176   61.3576 C   0  0  0  0  0  0  0  0  0  0  0  0
  145.7921   64.2851   62.6365 O   0  0  0  0  0  0  0  0  0  0  0  0
  144.1194   61.8993   64.2143 H   0  0  0  0  0  0  0  0  0  0  0  0
  145.2204   61.5017   62.3201 H   0  0  0  0  0  0  0  0  0  0  0  0
  144.6698   65.1752   60.5666 C   0  0  0  0  0  0  0  0  0  0  0  0
  143.2836   65.0588   60.2328 O   0  0  0  0  0  0  0  0  0  0  0  0
  143.1511   64.2810   59.6686 H   0  0  0  0  0  0  0  0  0  0  0  0
  1  2  2  0  0  0
  1  6  1  0  0  0
  1 11  1  0  0  0
  2  3  1  0  0  0
  3  4  2  0  0  0
  4  5  1  0  0  0
  4 10  1  0  0  0
  5  6  2  0  0  0
  5  8  1  0  0  0
  6  7  1  0  0  0
  8  9  1  0  0  0
  9 10  2  0  0  0
 10 15  1  0  0  0
 15 16  1  0  0  0
 15 21  1  0  0  0
 16 17  1  0  0  0
 16 18  1  0  0  0
 18 19  1  0  0  0
 18 20  1  0  0  0
 20 21  1  0  0  0
 20 24  1  0  0  0
 24 25  1  0  0  0
  7 12  1  0  0  0
  7 13  1  0  0  0
  8 14  1  0  0  0
 17 22  1  0  0  0
 19 23  1  0  0  0
 25 26  1  0  0  0
M  CHG 1   1   1
M  END
> <minimizedAffinity>
-8.22366

$$$$
