1DUV_PSQ_G_401


 25 24  0  0  0  0  0  0  0  0999 V2000
   27.9554   13.4097   25.2633 N   0  0  0  0  0  0  0  0  0  0  0  0
   28.1281   13.2615   26.2576 H   0  0  0  0  0  0  0  0  0  0  0  0
   26.5573   14.2041   25.1282 P   0  0  0  0  0  0  0  0  0  0  0  0
   25.1017   13.3030   24.9857 N   0  0  0  0  0  0  0  0  0  0  0  0
   26.4255   15.0167   26.4034 O   0  0  0  0  0  0  0  0  0  0  0  0
   24.9880   12.7088   25.8070 H   0  0  0  0  0  0  0  0  0  0  0  0
   25.1423   12.7217   24.1485 H   0  0  0  0  0  0  0  0  0  0  0  0
   26.6163   15.1313   23.7183 N   0  0  0  0  0  0  0  0  0  0  0  0
   26.8384   14.4785   22.9668 H   0  0  0  0  0  0  0  0  0  0  0  0
   27.5922   16.3780   23.5119 S   0  0  0  0  0  0  0  0  0  0  0  0
   27.5453   17.0891   24.8438 O   0  0  0  0  0  0  0  0  0  0  0  0
   27.2249   17.1150   22.4566 O   0  0  0  0  0  0  0  0  0  0  0  0
   29.0485   15.8180   23.2987 O   0  0  0  0  0  0  0  0  0  0  0  0
   28.1171   17.8719   24.8127 H   0  0  0  0  0  0  0  0  0  0  0  0
   28.0587   12.0921   24.5929 C   0  0  0  0  0  0  0  0  0  0  0  0
   29.1533   12.2963   23.5499 C   0  0  0  0  0  0  0  0  0  0  0  0
   29.9233   10.9919   23.2341 C   0  0  0  0  0  0  0  0  0  0  0  0
   30.3846   10.1999   24.4890 C   0  0  0  0  0  0  0  0  0  0  0  0
   31.8489    9.9703   24.4361 N   0  0  0  0  0  0  0  0  0  0  0  0
   32.0727    9.3868   23.6300 H   0  0  0  0  0  0  0  0  0  0  0  0
   32.1505    9.5009   25.2900 H   0  0  0  0  0  0  0  0  0  0  0  0
   29.6903    8.8251   24.6692 C   0  0  0  0  0  0  0  0  0  0  0  0
   28.8479    8.6766   25.5969 O   0  0  0  0  0  0  0  0  0  0  0  0
   30.0193    7.8745   23.9125 O   0  0  0  0  0  0  0  0  0  0  0  0
   28.6219    9.4021   26.1451 H   0  0  0  0  0  0  0  0  0  0  0  0
 10 11  1  0  0  0
 10 12  2  0  0  0
 10 13  2  0  0  0
 10  8  1  0  0  0
  3  4  1  0  0  0
  3  5  2  0  0  0
  3  1  1  0  0  0
  3  8  1  0  0  0
  1 15  1  0  0  0
 22 23  1  0  0  0
 22 24  2  0  0  0
 22 18  1  0  0  0
 18 17  1  0  0  0
 18 19  1  0  0  0
 17 16  1  0  0  0
 16 15  1  0  0  0
 11 14  1  0  0  0
  4  6  1  0  0  0
  4  7  1  0  0  0
  1  2  1  0  0  0
 23 25  1  0  0  0
  8  9  1  0  0  0
 19 20  1  0  0  0
 19 21  1  0  0  0
M  END
> <minimizedAffinity>
-9.55682

$$$$
1DUV_PSQ_G_401


 25 24  0  0  0  0  0  0  0  0999 V2000
   27.9062   13.4019   25.0932 N   0  0  0  0  0  0  0  0  0  0  0  0
   28.3945   13.6614   25.9503 H   0  0  0  0  0  0  0  0  0  0  0  0
   26.5148   14.2186   25.0625 P   0  0  0  0  0  0  0  0  0  0  0  0
   25.0419   13.3434   24.9371 N   0  0  0  0  0  0  0  0  0  0  0  0
   26.4502   14.9631   26.3836 O   0  0  0  0  0  0  0  0  0  0  0  0
   24.9558   12.7074   25.7299 H   0  0  0  0  0  0  0  0  0  0  0  0
   25.0377   12.8075   24.0693 H   0  0  0  0  0  0  0  0  0  0  0  0
   26.5251   15.2193   23.7026 N   0  0  0  0  0  0  0  0  0  0  0  0
   26.6378   14.5973   22.9021 H   0  0  0  0  0  0  0  0  0  0  0  0
   27.5680   16.4073   23.4785 S   0  0  0  0  0  0  0  0  0  0  0  0
   27.5878   17.1177   24.8114 O   0  0  0  0  0  0  0  0  0  0  0  0
   27.2245   17.1662   22.4307 O   0  0  0  0  0  0  0  0  0  0  0  0
   28.9850   15.7637   23.2374 O   0  0  0  0  0  0  0  0  0  0  0  0
   28.2036   17.8660   24.7698 H   0  0  0  0  0  0  0  0  0  0  0  0
   27.8295   11.9223   25.0559 C   0  0  0  0  0  0  0  0  0  0  0  0
   28.7450   11.5368   23.8980 C   0  0  0  0  0  0  0  0  0  0  0  0
   28.4719   10.1060   23.3761 C   0  0  0  0  0  0  0  0  0  0  0  0
   29.6064    9.0870   23.6756 C   0  0  0  0  0  0  0  0  0  0  0  0
   29.5477    8.6627   25.0955 N   0  0  0  0  0  0  0  0  0  0  0  0
   29.7184    9.4677   25.6982 H   0  0  0  0  0  0  0  0  0  0  0  0
   30.2590    7.9522   25.2677 H   0  0  0  0  0  0  0  0  0  0  0  0
   31.0353    9.6187   23.3930 C   0  0  0  0  0  0  0  0  0  0  0  0
   31.4143    9.7636   22.1981 O   0  0  0  0  0  0  0  0  0  0  0  0
   31.8010    9.8493   24.3651 O   0  0  0  0  0  0  0  0  0  0  0  0
   30.8227    9.5845   21.4939 H   0  0  0  0  0  0  0  0  0  0  0  0
 10 11  1  0  0  0
 10 12  2  0  0  0
 10 13  2  0  0  0
 10  8  1  0  0  0
  3  4  1  0  0  0
  3  5  2  0  0  0
  3  1  1  0  0  0
  3  8  1  0  0  0
  1 15  1  0  0  0
 22 23  1  0  0  0
 22 24  2  0  0  0
 22 18  1  0  0  0
 18 17  1  0  0  0
 18 19  1  0  0  0
 17 16  1  0  0  0
 16 15  1  0  0  0
 11 14  1  0  0  0
  4  6  1  0  0  0
  4  7  1  0  0  0
  1  2  1  0  0  0
 23 25  1  0  0  0
  8  9  1  0  0  0
 19 20  1  0  0  0
 19 21  1  0  0  0
M  END
> <minimizedAffinity>
-9.45635

$$$$
1DUV_PSQ_G_401


 25 24  0  0  0  0  0  0  0  0999 V2000
   29.0211   11.3929   23.6897 N   0  0  0  0  0  0  0  0  0  0  0  0
   29.6909   11.1892   24.4315 H   0  0  0  0  0  0  0  0  0  0  0  0
   29.1068   10.1905   22.6169 P   0  0  0  0  0  0  0  0  0  0  0  0
   27.7153    9.8108   21.6838 N   0  0  0  0  0  0  0  0  0  0  0  0
   30.1779   10.6053   21.6247 O   0  0  0  0  0  0  0  0  0  0  0  0
   27.4367   10.6281   21.1407 H   0  0  0  0  0  0  0  0  0  0  0  0
   26.9531    9.5394   22.3049 H   0  0  0  0  0  0  0  0  0  0  0  0
   29.4519    8.7655   23.4542 N   0  0  0  0  0  0  0  0  0  0  0  0
   28.6949    8.1208   23.2272 H   0  0  0  0  0  0  0  0  0  0  0  0
   29.6300    8.6840   25.0387 S   0  0  0  0  0  0  0  0  0  0  0  0
   29.8957    7.2184   25.2905 O   0  0  0  0  0  0  0  0  0  0  0  0
   28.5670    9.1904   25.6754 O   0  0  0  0  0  0  0  0  0  0  0  0
   30.9245    9.4961   25.4192 O   0  0  0  0  0  0  0  0  0  0  0  0
   30.0186    7.0708   26.2413 H   0  0  0  0  0  0  0  0  0  0  0  0
   29.3017   12.7638   23.2015 C   0  0  0  0  0  0  0  0  0  0  0  0
   28.4404   13.6537   24.0925 C   0  0  0  0  0  0  0  0  0  0  0  0
   28.1035   15.0102   23.4287 C   0  0  0  0  0  0  0  0  0  0  0  0
   26.8815   15.7420   24.0501 C   0  0  0  0  0  0  0  0  0  0  0  0
   27.3311   16.9486   24.7860 N   0  0  0  0  0  0  0  0  0  0  0  0
   27.9256   16.6692   25.5663 H   0  0  0  0  0  0  0  0  0  0  0  0
   26.5185   17.4527   25.1411 H   0  0  0  0  0  0  0  0  0  0  0  0
   26.0415   14.8733   25.0218 C   0  0  0  0  0  0  0  0  0  0  0  0
   25.0059   14.2938   24.5926 O   0  0  0  0  0  0  0  0  0  0  0  0
   26.3882   14.8050   26.2300 O   0  0  0  0  0  0  0  0  0  0  0  0
   24.7719   14.3619   23.6879 H   0  0  0  0  0  0  0  0  0  0  0  0
 10 11  1  0  0  0
 10 12  2  0  0  0
 10 13  2  0  0  0
 10  8  1  0  0  0
  3  4  1  0  0  0
  3  5  2  0  0  0
  3  1  1  0  0  0
  3  8  1  0  0  0
  1 15  1  0  0  0
 22 23  1  0  0  0
 22 24  2  0  0  0
 22 18  1  0  0  0
 18 17  1  0  0  0
 18 19  1  0  0  0
 17 16  1  0  0  0
 16 15  1  0  0  0
 11 14  1  0  0  0
  4  6  1  0  0  0
  4  7  1  0  0  0
  1  2  1  0  0  0
 23 25  1  0  0  0
  8  9  1  0  0  0
 19 20  1  0  0  0
 19 21  1  0  0  0
M  END
> <minimizedAffinity>
-8.64074

$$$$
1DUV_PSQ_G_401


 25 24  0  0  0  0  0  0  0  0999 V2000
   28.8820   11.4987   23.6083 N   0  0  0  0  0  0  0  0  0  0  0  0
   29.1212   12.3437   23.0895 H   0  0  0  0  0  0  0  0  0  0  0  0
   29.0042   10.2539   22.5889 P   0  0  0  0  0  0  0  0  0  0  0  0
   27.6755    9.8880   21.5635 N   0  0  0  0  0  0  0  0  0  0  0  0
   30.1638   10.5923   21.6699 O   0  0  0  0  0  0  0  0  0  0  0  0
   27.4710   10.6932   20.9716 H   0  0  0  0  0  0  0  0  0  0  0  0
   26.8578    9.6677   22.1320 H   0  0  0  0  0  0  0  0  0  0  0  0
   29.2291    8.8507   23.5008 N   0  0  0  0  0  0  0  0  0  0  0  0
   28.3134    8.4043   23.5521 H   0  0  0  0  0  0  0  0  0  0  0  0
   29.8012    8.8389   24.9913 S   0  0  0  0  0  0  0  0  0  0  0  0
   29.9898    7.3695   25.2868 O   0  0  0  0  0  0  0  0  0  0  0  0
   28.9880    9.4914   25.8307 O   0  0  0  0  0  0  0  0  0  0  0  0
   31.2176    9.5268   24.9679 O   0  0  0  0  0  0  0  0  0  0  0  0
   30.3397    7.2627   26.1851 H   0  0  0  0  0  0  0  0  0  0  0  0
   27.5657   11.7285   24.2495 C   0  0  0  0  0  0  0  0  0  0  0  0
   27.8198   12.8939   25.2008 C   0  0  0  0  0  0  0  0  0  0  0  0
   27.0196   14.1607   24.8150 C   0  0  0  0  0  0  0  0  0  0  0  0
   27.6022   14.9433   23.6054 C   0  0  0  0  0  0  0  0  0  0  0  0
   29.0442   14.6352   23.4467 N   0  0  0  0  0  0  0  0  0  0  0  0
   29.5534   14.9578   24.2695 H   0  0  0  0  0  0  0  0  0  0  0  0
   29.4036   15.1079   22.6174 H   0  0  0  0  0  0  0  0  0  0  0  0
   27.4494   16.4831   23.7057 C   0  0  0  0  0  0  0  0  0  0  0  0
   27.5478   17.0405   24.8335 O   0  0  0  0  0  0  0  0  0  0  0  0
   27.1836   17.1364   22.6631 O   0  0  0  0  0  0  0  0  0  0  0  0
   27.7467   16.5291   25.5931 H   0  0  0  0  0  0  0  0  0  0  0  0
 10 11  1  0  0  0
 10 12  2  0  0  0
 10 13  2  0  0  0
 10  8  1  0  0  0
  3  4  1  0  0  0
  3  5  2  0  0  0
  3  1  1  0  0  0
  3  8  1  0  0  0
  1 15  1  0  0  0
 22 23  1  0  0  0
 22 24  2  0  0  0
 22 18  1  0  0  0
 18 17  1  0  0  0
 18 19  1  0  0  0
 17 16  1  0  0  0
 16 15  1  0  0  0
 11 14  1  0  0  0
  4  6  1  0  0  0
  4  7  1  0  0  0
  1  2  1  0  0  0
 23 25  1  0  0  0
  8  9  1  0  0  0
 19 20  1  0  0  0
 19 21  1  0  0  0
M  END
> <minimizedAffinity>
-8.58806

$$$$
1DUV_PSQ_G_401


 25 24  0  0  0  0  0  0  0  0999 V2000
   27.1063   12.9273   24.4311 N   0  0  0  0  0  0  0  0  0  0  0  0
   27.5745   13.1066   23.5429 H   0  0  0  0  0  0  0  0  0  0  0  0
   26.1990   14.2181   24.7692 P   0  0  0  0  0  0  0  0  0  0  0  0
   24.4926   14.0353   24.8466 N   0  0  0  0  0  0  0  0  0  0  0  0
   26.6360   14.6731   26.1497 O   0  0  0  0  0  0  0  0  0  0  0  0
   24.2561   13.3523   25.5662 H   0  0  0  0  0  0  0  0  0  0  0  0
   24.1440   13.7128   23.9439 H   0  0  0  0  0  0  0  0  0  0  0  0
   26.4434   15.3630   23.5525 N   0  0  0  0  0  0  0  0  0  0  0  0
   26.4135   14.8446   22.6746 H   0  0  0  0  0  0  0  0  0  0  0  0
   27.7316   16.3014   23.4579 S   0  0  0  0  0  0  0  0  0  0  0  0
   27.4740   17.1336   22.2238 O   0  0  0  0  0  0  0  0  0  0  0  0
   28.8593   15.5806   23.4367 O   0  0  0  0  0  0  0  0  0  0  0  0
   27.7242   17.2554   24.7108 O   0  0  0  0  0  0  0  0  0  0  0  0
   28.2155   17.7431   22.0842 H   0  0  0  0  0  0  0  0  0  0  0  0
   28.1486   12.5496   25.4147 C   0  0  0  0  0  0  0  0  0  0  0  0
   28.4425   11.0873   25.0942 C   0  0  0  0  0  0  0  0  0  0  0  0
   29.8313   10.8901   24.4412 C   0  0  0  0  0  0  0  0  0  0  0  0
   29.8798   11.2242   22.9243 C   0  0  0  0  0  0  0  0  0  0  0  0
   29.5904   12.6631   22.7105 N   0  0  0  0  0  0  0  0  0  0  0  0
   28.6403   12.8683   23.0195 H   0  0  0  0  0  0  0  0  0  0  0  0
   29.6808   12.8844   21.7189 H   0  0  0  0  0  0  0  0  0  0  0  0
   28.8921   10.4026   22.0560 C   0  0  0  0  0  0  0  0  0  0  0  0
   27.7146   10.2168   22.4699 O   0  0  0  0  0  0  0  0  0  0  0  0
   29.3040    9.9001   20.9779 O   0  0  0  0  0  0  0  0  0  0  0  0
   27.4350   10.6033   23.2764 H   0  0  0  0  0  0  0  0  0  0  0  0
 10 11  1  0  0  0
 10 12  2  0  0  0
 10 13  2  0  0  0
 10  8  1  0  0  0
  3  4  1  0  0  0
  3  5  2  0  0  0
  3  1  1  0  0  0
  3  8  1  0  0  0
  1 15  1  0  0  0
 22 23  1  0  0  0
 22 24  2  0  0  0
 22 18  1  0  0  0
 18 17  1  0  0  0
 18 19  1  0  0  0
 17 16  1  0  0  0
 16 15  1  0  0  0
 11 14  1  0  0  0
  4  6  1  0  0  0
  4  7  1  0  0  0
  1  2  1  0  0  0
 23 25  1  0  0  0
  8  9  1  0  0  0
 19 20  1  0  0  0
 19 21  1  0  0  0
M  END
> <minimizedAffinity>
-7.84197

$$$$
1DUV_PSQ_G_401


 25 24  0  0  0  0  0  0  0  0999 V2000
   28.1272   11.5402   24.9056 N   0  0  0  0  0  0  0  0  0  0  0  0
   28.0104   11.8795   23.9508 H   0  0  0  0  0  0  0  0  0  0  0  0
   28.8140   10.0825   24.8206 P   0  0  0  0  0  0  0  0  0  0  0  0
   30.4238    9.8897   25.3884 N   0  0  0  0  0  0  0  0  0  0  0  0
   27.9533    9.1758   25.6814 O   0  0  0  0  0  0  0  0  0  0  0  0
   30.4691   10.1443   26.3751 H   0  0  0  0  0  0  0  0  0  0  0  0
   31.0478   10.4929   24.8526 H   0  0  0  0  0  0  0  0  0  0  0  0
   28.8857    9.6316   23.1951 N   0  0  0  0  0  0  0  0  0  0  0  0
   29.1177    8.6383   23.1933 H   0  0  0  0  0  0  0  0  0  0  0  0
   29.8605   10.3061   22.1255 S   0  0  0  0  0  0  0  0  0  0  0  0
   29.9932   11.7290   22.6148 O   0  0  0  0  0  0  0  0  0  0  0  0
   29.3869   10.1708   20.8809 O   0  0  0  0  0  0  0  0  0  0  0  0
   31.2658    9.6058   22.2474 O   0  0  0  0  0  0  0  0  0  0  0  0
   30.5766   12.2231   22.0178 H   0  0  0  0  0  0  0  0  0  0  0  0
   26.8086   11.6350   25.5755 C   0  0  0  0  0  0  0  0  0  0  0  0
   26.1856   12.8948   24.9820 C   0  0  0  0  0  0  0  0  0  0  0  0
   27.0912   14.1387   25.1457 C   0  0  0  0  0  0  0  0  0  0  0  0
   27.5119   14.8062   23.8069 C   0  0  0  0  0  0  0  0  0  0  0  0
   28.9065   14.4325   23.4681 N   0  0  0  0  0  0  0  0  0  0  0  0
   29.5387   14.7961   24.1812 H   0  0  0  0  0  0  0  0  0  0  0  0
   29.1537   14.8281   22.5610 H   0  0  0  0  0  0  0  0  0  0  0  0
   27.4166   16.3539   23.8056 C   0  0  0  0  0  0  0  0  0  0  0  0
   27.2769   16.9622   22.7089 O   0  0  0  0  0  0  0  0  0  0  0  0
   27.5280   16.9703   24.8974 O   0  0  0  0  0  0  0  0  0  0  0  0
   27.1963   16.4774   21.9112 H   0  0  0  0  0  0  0  0  0  0  0  0
 10 11  1  0  0  0
 10 12  2  0  0  0
 10 13  2  0  0  0
 10  8  1  0  0  0
  3  4  1  0  0  0
  3  5  2  0  0  0
  3  1  1  0  0  0
  3  8  1  0  0  0
  1 15  1  0  0  0
 22 23  1  0  0  0
 22 24  2  0  0  0
 22 18  1  0  0  0
 18 17  1  0  0  0
 18 19  1  0  0  0
 17 16  1  0  0  0
 16 15  1  0  0  0
 11 14  1  0  0  0
  4  6  1  0  0  0
  4  7  1  0  0  0
  1  2  1  0  0  0
 23 25  1  0  0  0
  8  9  1  0  0  0
 19 20  1  0  0  0
 19 21  1  0  0  0
M  END
> <minimizedAffinity>
-7.73954

$$$$
1DUV_PSQ_G_401


 25 24  0  0  0  0  0  0  0  0999 V2000
   28.4369    9.1803   24.9683 N   0  0  0  0  0  0  0  0  0  0  0  0
   28.1436    8.3147   25.4213 H   0  0  0  0  0  0  0  0  0  0  0  0
   29.9668    8.9843   24.4942 P   0  0  0  0  0  0  0  0  0  0  0  0
   31.1841    8.7721   25.6876 N   0  0  0  0  0  0  0  0  0  0  0  0
   29.9747    7.7190   23.6561 O   0  0  0  0  0  0  0  0  0  0  0  0
   30.9736    7.9440   26.2446 H   0  0  0  0  0  0  0  0  0  0  0  0
   31.2122    9.5917   26.2941 H   0  0  0  0  0  0  0  0  0  0  0  0
   30.4375   10.3732   23.6573 N   0  0  0  0  0  0  0  0  0  0  0  0
   29.8700   11.1309   24.0370 H   0  0  0  0  0  0  0  0  0  0  0  0
   30.3589   10.5265   22.0700 S   0  0  0  0  0  0  0  0  0  0  0  0
   28.9807   10.0089   21.7318 O   0  0  0  0  0  0  0  0  0  0  0  0
   31.3721    9.8916   21.4682 O   0  0  0  0  0  0  0  0  0  0  0  0
   30.4088   12.0640   21.7327 O   0  0  0  0  0  0  0  0  0  0  0  0
   28.8407   10.0641   20.7735 H   0  0  0  0  0  0  0  0  0  0  0  0
   28.1503   10.2918   25.9059 C   0  0  0  0  0  0  0  0  0  0  0  0
   27.4540   11.3344   25.0365 C   0  0  0  0  0  0  0  0  0  0  0  0
   28.1709   12.7053   25.0644 C   0  0  0  0  0  0  0  0  0  0  0  0
   27.4735   13.8107   24.2238 C   0  0  0  0  0  0  0  0  0  0  0  0
   28.4510   14.8638   23.8565 N   0  0  0  0  0  0  0  0  0  0  0  0
   28.7936   15.3196   24.7023 H   0  0  0  0  0  0  0  0  0  0  0  0
   27.9980   15.5543   23.2579 H   0  0  0  0  0  0  0  0  0  0  0  0
   26.2762   14.4946   24.9332 C   0  0  0  0  0  0  0  0  0  0  0  0
   25.1006   14.1581   24.6216 O   0  0  0  0  0  0  0  0  0  0  0  0
   26.5062   15.4047   25.7718 O   0  0  0  0  0  0  0  0  0  0  0  0
   24.9590   13.4769   23.9940 H   0  0  0  0  0  0  0  0  0  0  0  0
 10 11  1  0  0  0
 10 12  2  0  0  0
 10 13  2  0  0  0
 10  8  1  0  0  0
  3  4  1  0  0  0
  3  5  2  0  0  0
  3  1  1  0  0  0
  3  8  1  0  0  0
  1 15  1  0  0  0
 22 23  1  0  0  0
 22 24  2  0  0  0
 22 18  1  0  0  0
 18 17  1  0  0  0
 18 19  1  0  0  0
 17 16  1  0  0  0
 16 15  1  0  0  0
 11 14  1  0  0  0
  4  6  1  0  0  0
  4  7  1  0  0  0
  1  2  1  0  0  0
 23 25  1  0  0  0
  8  9  1  0  0  0
 19 20  1  0  0  0
 19 21  1  0  0  0
M  END
> <minimizedAffinity>
-7.60290

$$$$
1DUV_PSQ_G_401


 25 24  0  0  0  0  0  0  0  0999 V2000
   27.6736   12.7686   23.7577 N   0  0  0  0  0  0  0  0  0  0  0  0
   27.4781   13.0704   22.8032 H   0  0  0  0  0  0  0  0  0  0  0  0
   26.8457   13.7350   24.7500 P   0  0  0  0  0  0  0  0  0  0  0  0
   25.3326   13.1972   25.3600 N   0  0  0  0  0  0  0  0  0  0  0  0
   27.7389   13.9377   25.9603 O   0  0  0  0  0  0  0  0  0  0  0  0
   25.4655   12.3330   25.8853 H   0  0  0  0  0  0  0  0  0  0  0  0
   24.6935   13.0280   24.5832 H   0  0  0  0  0  0  0  0  0  0  0  0
   26.4798   15.1550   23.9129 N   0  0  0  0  0  0  0  0  0  0  0  0
   26.2394   14.8637   22.9655 H   0  0  0  0  0  0  0  0  0  0  0  0
   27.4932   16.3774   23.7464 S   0  0  0  0  0  0  0  0  0  0  0  0
   28.8169   15.7051   23.4681 O   0  0  0  0  0  0  0  0  0  0  0  0
   27.4723   17.1775   24.8194 O   0  0  0  0  0  0  0  0  0  0  0  0
   27.0662   17.1842   22.4631 O   0  0  0  0  0  0  0  0  0  0  0  0
   29.5039   16.3797   23.3511 H   0  0  0  0  0  0  0  0  0  0  0  0
   29.1464   12.7269   23.9178 C   0  0  0  0  0  0  0  0  0  0  0  0
   29.4156   11.3309   24.4712 C   0  0  0  0  0  0  0  0  0  0  0  0
   30.7194   10.7122   23.9131 C   0  0  0  0  0  0  0  0  0  0  0  0
   31.1979    9.4391   24.6649 C   0  0  0  0  0  0  0  0  0  0  0  0
   30.1025    8.9055   25.5105 N   0  0  0  0  0  0  0  0  0  0  0  0
   29.8628    9.5896   26.2281 H   0  0  0  0  0  0  0  0  0  0  0  0
   30.4071    8.0393   25.9547 H   0  0  0  0  0  0  0  0  0  0  0  0
   32.4382    9.6582   25.5694 C   0  0  0  0  0  0  0  0  0  0  0  0
   32.9285   10.8162   25.6740 O   0  0  0  0  0  0  0  0  0  0  0  0
   32.9556    8.6638   26.1423 O   0  0  0  0  0  0  0  0  0  0  0  0
   32.5222   11.5382   25.2363 H   0  0  0  0  0  0  0  0  0  0  0  0
 10 11  1  0  0  0
 10 12  2  0  0  0
 10 13  2  0  0  0
 10  8  1  0  0  0
  3  4  1  0  0  0
  3  5  2  0  0  0
  3  1  1  0  0  0
  3  8  1  0  0  0
  1 15  1  0  0  0
 22 23  1  0  0  0
 22 24  2  0  0  0
 22 18  1  0  0  0
 18 17  1  0  0  0
 18 19  1  0  0  0
 17 16  1  0  0  0
 16 15  1  0  0  0
 11 14  1  0  0  0
  4  6  1  0  0  0
  4  7  1  0  0  0
  1  2  1  0  0  0
 23 25  1  0  0  0
  8  9  1  0  0  0
 19 20  1  0  0  0
 19 21  1  0  0  0
M  END
> <minimizedAffinity>
-7.28810

$$$$
