1GI4_122_A_246


 25 27  0  0  0  0  0  0  0  0999 V2000
   43.7592   -2.7172   26.2390 C   0  0  0  0  0  0  0  0  0  0  0  0
   44.2012   -1.3663   26.4201 C   0  0  0  0  0  0  0  0  0  0  0  0
   44.0904   -0.6468   27.6220 C   0  0  0  0  0  0  0  0  0  0  0  0
   43.5167   -1.3465   28.6453 C   0  0  0  0  0  0  0  0  0  0  0  0
   43.1075   -2.6226   28.5071 C   0  0  0  0  0  0  0  0  0  0  0  0
   43.1904   -3.3470   27.3554 C   0  0  0  0  0  0  0  0  0  0  0  0
   43.3326   -0.8808   29.8671 N   0  0  0  0  0  0  0  0  0  0  0  0
   42.6291   -2.9686   29.6515 N   0  0  0  0  0  0  0  0  0  0  0  0
   42.7658   -1.9409   30.4324 C   0  0  0  0  0  0  0  0  0  0  0  0
   42.2370   -3.8403   29.8875 H   0  0  0  0  0  0  0  0  0  0  0  0
   42.3215   -2.0060   31.8168 C   0  0  0  0  0  0  0  0  0  0  0  0
   41.4369   -3.0627   32.2153 C   0  0  0  0  0  0  0  0  0  0  0  0
   40.9617   -3.1761   33.5035 C   0  0  0  0  0  0  0  0  0  0  0  0
   41.3410   -2.2507   34.4633 C   0  0  0  0  0  0  0  0  0  0  0  0
   42.1974   -1.1939   34.1683 C   0  0  0  0  0  0  0  0  0  0  0  0
   42.6858   -1.0719   32.8733 C   0  0  0  0  0  0  0  0  0  0  0  0
   43.5413    0.0035   32.7705 O   0  0  0  0  0  0  0  0  0  0  0  0
   43.9453    0.2039   31.9492 H   0  0  0  0  0  0  0  0  0  0  0  0
   43.9133   -3.4025   25.0239 C   0  0  0  0  0  0  0  0  0  0  0  0
   43.4519   -4.6292   24.8968 N   0  0  0  0  0  0  0  0  0  0  0  0
   44.5179   -2.8134   24.0190 N   0  0  0  0  0  0  0  0  0  0  0  0
   42.9992   -5.0658   25.6542 H   0  0  0  0  0  0  0  0  0  0  0  0
   43.5595   -5.1098   24.0443 H   0  0  0  0  0  0  0  0  0  0  0  0
   44.8607   -1.8961   24.1201 H   0  0  0  0  0  0  0  0  0  0  0  0
   44.6286   -3.2889   23.1640 H   0  0  0  0  0  0  0  0  0  0  0  0
  1  2  1  0  0  0
  1  6  2  0  0  0
  1 19  1  0  0  0
  2  3  2  0  0  0
  3  4  1  0  0  0
  4  5  2  0  0  0
  4  7  1  0  0  0
  5  6  1  0  0  0
  5  8  1  0  0  0
 19 20  1  0  0  0
 19 21  2  0  0  0
  7  9  2  0  0  0
  8  9  1  0  0  0
  9 11  1  0  0  0
 11 12  2  0  0  0
 11 16  1  0  0  0
 12 13  1  0  0  0
 13 14  2  0  0  0
 14 15  1  0  0  0
 15 16  2  0  0  0
 16 17  1  0  0  0
 20 22  1  0  0  0
 20 23  1  0  0  0
 21 24  1  0  0  0
 21 25  1  0  0  0
  8 10  1  0  0  0
 17 18  1  0  0  0
M  CHG 1  21   1
M  END
> <minimizedAffinity>
-8.60121

$$$$
1GI4_122_A_246


 25 27  0  0  0  0  0  0  0  0999 V2000
   43.7864   -2.0427   26.1451 C   0  0  0  0  0  0  0  0  0  0  0  0
   43.9966   -1.0268   27.1335 C   0  0  0  0  0  0  0  0  0  0  0  0
   43.7320   -1.1834   28.5046 C   0  0  0  0  0  0  0  0  0  0  0  0
   43.2477   -2.4138   28.8469 C   0  0  0  0  0  0  0  0  0  0  0  0
   43.0563   -3.3921   27.9406 C   0  0  0  0  0  0  0  0  0  0  0  0
   43.2925   -3.2725   26.6034 C   0  0  0  0  0  0  0  0  0  0  0  0
   42.9515   -2.7923   30.0768 N   0  0  0  0  0  0  0  0  0  0  0  0
   42.6043   -4.4028   28.5983 N   0  0  0  0  0  0  0  0  0  0  0  0
   42.5471   -4.0356   29.8419 C   0  0  0  0  0  0  0  0  0  0  0  0
   42.3521   -5.2805   28.2305 H   0  0  0  0  0  0  0  0  0  0  0  0
   42.0756   -4.9622   30.8604 C   0  0  0  0  0  0  0  0  0  0  0  0
   42.6821   -4.9361   32.1601 C   0  0  0  0  0  0  0  0  0  0  0  0
   42.2994   -5.7956   33.1666 C   0  0  0  0  0  0  0  0  0  0  0  0
   41.2943   -6.7223   32.9381 C   0  0  0  0  0  0  0  0  0  0  0  0
   40.6478   -6.8184   31.7092 C   0  0  0  0  0  0  0  0  0  0  0  0
   41.0230   -5.9541   30.6881 C   0  0  0  0  0  0  0  0  0  0  0  0
   40.2592   -6.1652   29.5607 O   0  0  0  0  0  0  0  0  0  0  0  0
   40.4055   -5.6493   28.7923 H   0  0  0  0  0  0  0  0  0  0  0  0
   44.0885   -1.8462   24.7886 C   0  0  0  0  0  0  0  0  0  0  0  0
   43.8974   -0.6664   24.2357 N   0  0  0  0  0  0  0  0  0  0  0  0
   44.5614   -2.8432   24.0783 N   0  0  0  0  0  0  0  0  0  0  0  0
   43.5424    0.0777   24.7738 H   0  0  0  0  0  0  0  0  0  0  0  0
   44.1097   -0.5285   23.2843 H   0  0  0  0  0  0  0  0  0  0  0  0
   44.7021   -3.7229   24.4972 H   0  0  0  0  0  0  0  0  0  0  0  0
   44.7756   -2.7114   23.1264 H   0  0  0  0  0  0  0  0  0  0  0  0
  1  2  1  0  0  0
  1  6  2  0  0  0
  1 19  1  0  0  0
  2  3  2  0  0  0
  3  4  1  0  0  0
  4  5  2  0  0  0
  4  7  1  0  0  0
  5  6  1  0  0  0
  5  8  1  0  0  0
 19 20  1  0  0  0
 19 21  2  0  0  0
  7  9  2  0  0  0
  8  9  1  0  0  0
  9 11  1  0  0  0
 11 12  2  0  0  0
 11 16  1  0  0  0
 12 13  1  0  0  0
 13 14  2  0  0  0
 14 15  1  0  0  0
 15 16  2  0  0  0
 16 17  1  0  0  0
 20 22  1  0  0  0
 20 23  1  0  0  0
 21 24  1  0  0  0
 21 25  1  0  0  0
  8 10  1  0  0  0
 17 18  1  0  0  0
M  CHG 1  21   1
M  END
> <minimizedAffinity>
-7.86663

$$$$
1GI4_122_A_246


 25 27  0  0  0  0  0  0  0  0999 V2000
   39.5140    0.1217   32.4427 C   0  0  0  0  0  0  0  0  0  0  0  0
   40.6302   -0.3166   33.2270 C   0  0  0  0  0  0  0  0  0  0  0  0
   41.7882   -0.9130   32.6998 C   0  0  0  0  0  0  0  0  0  0  0  0
   41.7820   -1.0486   31.3407 C   0  0  0  0  0  0  0  0  0  0  0  0
   40.7532   -0.6303   30.5781 C   0  0  0  0  0  0  0  0  0  0  0  0
   39.6121   -0.0575   31.0553 C   0  0  0  0  0  0  0  0  0  0  0  0
   42.7705   -1.5588   30.6292 N   0  0  0  0  0  0  0  0  0  0  0  0
   41.0780   -0.9028   29.3621 N   0  0  0  0  0  0  0  0  0  0  0  0
   42.2560   -1.4459   29.4098 C   0  0  0  0  0  0  0  0  0  0  0  0
   40.5394   -0.7329   28.5558 H   0  0  0  0  0  0  0  0  0  0  0  0
   42.9187   -1.8714   28.1858 C   0  0  0  0  0  0  0  0  0  0  0  0
   43.7428   -0.9344   27.4782 C   0  0  0  0  0  0  0  0  0  0  0  0
   44.3854   -1.2618   26.3043 C   0  0  0  0  0  0  0  0  0  0  0  0
   44.2472   -2.5347   25.7733 C   0  0  0  0  0  0  0  0  0  0  0  0
   43.4699   -3.5095   26.3922 C   0  0  0  0  0  0  0  0  0  0  0  0
   42.8203   -3.1916   27.5786 C   0  0  0  0  0  0  0  0  0  0  0  0
   42.1292   -4.2793   28.0666 O   0  0  0  0  0  0  0  0  0  0  0  0
   41.6434   -4.2062   28.8644 H   0  0  0  0  0  0  0  0  0  0  0  0
   38.3878    0.7343   33.0138 C   0  0  0  0  0  0  0  0  0  0  0  0
   38.5075    1.4216   34.1307 N   0  0  0  0  0  0  0  0  0  0  0  0
   37.2190    0.6179   32.4283 N   0  0  0  0  0  0  0  0  0  0  0  0
   39.3870    1.5054   34.5652 H   0  0  0  0  0  0  0  0  0  0  0  0
   37.7177    1.8517   34.5311 H   0  0  0  0  0  0  0  0  0  0  0  0
   37.1358    0.1028   31.5935 H   0  0  0  0  0  0  0  0  0  0  0  0
   36.4255    1.0457   32.8240 H   0  0  0  0  0  0  0  0  0  0  0  0
  1  2  1  0  0  0
  1  6  2  0  0  0
  1 19  1  0  0  0
  2  3  2  0  0  0
  3  4  1  0  0  0
  4  5  2  0  0  0
  4  7  1  0  0  0
  5  6  1  0  0  0
  5  8  1  0  0  0
 19 20  1  0  0  0
 19 21  2  0  0  0
  7  9  2  0  0  0
  8  9  1  0  0  0
  9 11  1  0  0  0
 11 12  2  0  0  0
 11 16  1  0  0  0
 12 13  1  0  0  0
 13 14  2  0  0  0
 14 15  1  0  0  0
 15 16  2  0  0  0
 16 17  1  0  0  0
 20 22  1  0  0  0
 20 23  1  0  0  0
 21 24  1  0  0  0
 21 25  1  0  0  0
  8 10  1  0  0  0
 17 18  1  0  0  0
M  CHG 1  21   1
M  END
> <minimizedAffinity>
-7.22463

$$$$
1GI4_122_A_246


 25 27  0  0  0  0  0  0  0  0999 V2000
   43.5045   -2.7699   27.4192 C   0  0  0  0  0  0  0  0  0  0  0  0
   43.5781   -3.8311   28.3791 C   0  0  0  0  0  0  0  0  0  0  0  0
   42.9686   -3.8031   29.6449 C   0  0  0  0  0  0  0  0  0  0  0  0
   42.2724   -2.6580   29.9086 C   0  0  0  0  0  0  0  0  0  0  0  0
   42.1733   -1.6520   29.0179 C   0  0  0  0  0  0  0  0  0  0  0  0
   42.7583   -1.6409   27.7868 C   0  0  0  0  0  0  0  0  0  0  0  0
   41.6028   -2.4220   31.0219 N   0  0  0  0  0  0  0  0  0  0  0  0
   41.4516   -0.7471   29.5824 N   0  0  0  0  0  0  0  0  0  0  0  0
   41.1291   -1.2108   30.7511 C   0  0  0  0  0  0  0  0  0  0  0  0
   41.1951    0.1242   29.2026 H   0  0  0  0  0  0  0  0  0  0  0  0
   40.3009   -0.4223   31.6513 C   0  0  0  0  0  0  0  0  0  0  0  0
   39.1611    0.2697   31.1223 C   0  0  0  0  0  0  0  0  0  0  0  0
   38.3436    1.0488   31.9115 C   0  0  0  0  0  0  0  0  0  0  0  0
   38.6114    1.1796   33.2652 C   0  0  0  0  0  0  0  0  0  0  0  0
   39.6937    0.5431   33.8658 C   0  0  0  0  0  0  0  0  0  0  0  0
   40.5228   -0.2483   33.0803 C   0  0  0  0  0  0  0  0  0  0  0  0
   41.5158   -0.8256   33.8415 O   0  0  0  0  0  0  0  0  0  0  0  0
   42.1486   -1.3869   33.4384 H   0  0  0  0  0  0  0  0  0  0  0  0
   44.1115   -2.8544   26.1565 C   0  0  0  0  0  0  0  0  0  0  0  0
   44.2024   -4.0178   25.5463 N   0  0  0  0  0  0  0  0  0  0  0  0
   44.5854   -1.7693   25.5905 N   0  0  0  0  0  0  0  0  0  0  0  0
   43.8450   -4.8283   25.9759 H   0  0  0  0  0  0  0  0  0  0  0  0
   44.6278   -4.0770   24.6604 H   0  0  0  0  0  0  0  0  0  0  0  0
   44.5144   -0.9024   26.0517 H   0  0  0  0  0  0  0  0  0  0  0  0
   45.0119   -1.8222   24.7048 H   0  0  0  0  0  0  0  0  0  0  0  0
  1  2  1  0  0  0
  1  6  2  0  0  0
  1 19  1  0  0  0
  2  3  2  0  0  0
  3  4  1  0  0  0
  4  5  2  0  0  0
  4  7  1  0  0  0
  5  6  1  0  0  0
  5  8  1  0  0  0
 19 20  1  0  0  0
 19 21  2  0  0  0
  7  9  2  0  0  0
  8  9  1  0  0  0
  9 11  1  0  0  0
 11 12  2  0  0  0
 11 16  1  0  0  0
 12 13  1  0  0  0
 13 14  2  0  0  0
 14 15  1  0  0  0
 15 16  2  0  0  0
 16 17  1  0  0  0
 20 22  1  0  0  0
 20 23  1  0  0  0
 21 24  1  0  0  0
 21 25  1  0  0  0
  8 10  1  0  0  0
 17 18  1  0  0  0
M  CHG 1  21   1
M  END
> <minimizedAffinity>
-7.06313

$$$$
1GI4_122_A_246


 25 27  0  0  0  0  0  0  0  0999 V2000
   43.6455   -2.1968   26.8126 C   0  0  0  0  0  0  0  0  0  0  0  0
   43.3056   -3.5477   27.1481 C   0  0  0  0  0  0  0  0  0  0  0  0
   42.8751   -3.9684   28.4178 C   0  0  0  0  0  0  0  0  0  0  0  0
   42.7948   -2.9680   29.3443 C   0  0  0  0  0  0  0  0  0  0  0  0
   43.0925   -1.6871   29.0514 C   0  0  0  0  0  0  0  0  0  0  0  0
   43.5217   -1.2454   27.8354 C   0  0  0  0  0  0  0  0  0  0  0  0
   42.3932   -3.1263   30.5922 N   0  0  0  0  0  0  0  0  0  0  0  0
   42.9044   -1.0211   30.1374 N   0  0  0  0  0  0  0  0  0  0  0  0
   42.4990   -1.8754   31.0265 C   0  0  0  0  0  0  0  0  0  0  0  0
   43.0410   -0.0548   30.2675 H   0  0  0  0  0  0  0  0  0  0  0  0
   42.1897   -1.4368   32.3793 C   0  0  0  0  0  0  0  0  0  0  0  0
   41.0480   -1.9917   33.0474 C   0  0  0  0  0  0  0  0  0  0  0  0
   40.6848   -1.6103   34.3205 C   0  0  0  0  0  0  0  0  0  0  0  0
   41.4357   -0.6623   34.9979 C   0  0  0  0  0  0  0  0  0  0  0  0
   42.5606   -0.0717   34.4295 C   0  0  0  0  0  0  0  0  0  0  0  0
   42.9385   -0.4516   33.1476 C   0  0  0  0  0  0  0  0  0  0  0  0
   44.0867    0.2041   32.7596 O   0  0  0  0  0  0  0  0  0  0  0  0
   44.4555    0.0423   31.9135 H   0  0  0  0  0  0  0  0  0  0  0  0
   44.0485   -1.8209   25.5218 C   0  0  0  0  0  0  0  0  0  0  0  0
   43.8932   -0.5766   25.1198 N   0  0  0  0  0  0  0  0  0  0  0  0
   44.5795   -2.7154   24.7217 N   0  0  0  0  0  0  0  0  0  0  0  0
   43.4942    0.0899   25.7246 H   0  0  0  0  0  0  0  0  0  0  0  0
   44.1763   -0.3128   24.2145 H   0  0  0  0  0  0  0  0  0  0  0  0
   44.6930   -3.6442   25.0279 H   0  0  0  0  0  0  0  0  0  0  0  0
   44.8645   -2.4577   23.8153 H   0  0  0  0  0  0  0  0  0  0  0  0
  1  2  1  0  0  0
  1  6  2  0  0  0
  1 19  1  0  0  0
  2  3  2  0  0  0
  3  4  1  0  0  0
  4  5  2  0  0  0
  4  7  1  0  0  0
  5  6  1  0  0  0
  5  8  1  0  0  0
 19 20  1  0  0  0
 19 21  2  0  0  0
  7  9  2  0  0  0
  8  9  1  0  0  0
  9 11  1  0  0  0
 11 12  2  0  0  0
 11 16  1  0  0  0
 12 13  1  0  0  0
 13 14  2  0  0  0
 14 15  1  0  0  0
 15 16  2  0  0  0
 16 17  1  0  0  0
 20 22  1  0  0  0
 20 23  1  0  0  0
 21 24  1  0  0  0
 21 25  1  0  0  0
  8 10  1  0  0  0
 17 18  1  0  0  0
M  CHG 1  21   1
M  END
> <minimizedAffinity>
-6.89470

$$$$
1GI4_122_A_246


 25 27  0  0  0  0  0  0  0  0999 V2000
   41.5780   -3.5568   33.7395 C   0  0  0  0  0  0  0  0  0  0  0  0
   41.7396   -2.1448   33.9214 C   0  0  0  0  0  0  0  0  0  0  0  0
   42.1704   -1.2574   32.9207 C   0  0  0  0  0  0  0  0  0  0  0  0
   42.4307   -1.8499   31.7178 C   0  0  0  0  0  0  0  0  0  0  0  0
   42.2714   -3.1721   31.5148 C   0  0  0  0  0  0  0  0  0  0  0  0
   41.8653   -4.0627   32.4635 C   0  0  0  0  0  0  0  0  0  0  0  0
   42.8239   -1.2103   30.6316 N   0  0  0  0  0  0  0  0  0  0  0  0
   42.5947   -3.3848   30.2866 N   0  0  0  0  0  0  0  0  0  0  0  0
   42.9164   -2.2310   29.7866 C   0  0  0  0  0  0  0  0  0  0  0  0
   42.5972   -4.2513   29.8192 H   0  0  0  0  0  0  0  0  0  0  0  0
   43.3312   -2.1231   28.3957 C   0  0  0  0  0  0  0  0  0  0  0  0
   43.3192   -3.2977   27.5723 C   0  0  0  0  0  0  0  0  0  0  0  0
   43.7157   -3.2738   26.2530 C   0  0  0  0  0  0  0  0  0  0  0  0
   44.1411   -2.0850   25.6813 C   0  0  0  0  0  0  0  0  0  0  0  0
   44.1838   -0.8955   26.4030 C   0  0  0  0  0  0  0  0  0  0  0  0
   43.7826   -0.9070   27.7332 C   0  0  0  0  0  0  0  0  0  0  0  0
   43.8562    0.3561   28.2792 O   0  0  0  0  0  0  0  0  0  0  0  0
   43.6140    0.4947   29.1736 H   0  0  0  0  0  0  0  0  0  0  0  0
   41.1216   -4.3999   34.7645 C   0  0  0  0  0  0  0  0  0  0  0  0
   41.4236   -5.6815   34.7464 N   0  0  0  0  0  0  0  0  0  0  0  0
   40.3947   -3.9032   35.7377 N   0  0  0  0  0  0  0  0  0  0  0  0
   41.9693   -6.0483   34.0136 H   0  0  0  0  0  0  0  0  0  0  0  0
   41.1038   -6.2729   35.4656 H   0  0  0  0  0  0  0  0  0  0  0  0
   40.1721   -2.9442   35.7458 H   0  0  0  0  0  0  0  0  0  0  0  0
   40.0719   -4.4895   36.4597 H   0  0  0  0  0  0  0  0  0  0  0  0
  1  2  1  0  0  0
  1  6  2  0  0  0
  1 19  1  0  0  0
  2  3  2  0  0  0
  3  4  1  0  0  0
  4  5  2  0  0  0
  4  7  1  0  0  0
  5  6  1  0  0  0
  5  8  1  0  0  0
 19 20  1  0  0  0
 19 21  2  0  0  0
  7  9  2  0  0  0
  8  9  1  0  0  0
  9 11  1  0  0  0
 11 12  2  0  0  0
 11 16  1  0  0  0
 12 13  1  0  0  0
 13 14  2  0  0  0
 14 15  1  0  0  0
 15 16  2  0  0  0
 16 17  1  0  0  0
 20 22  1  0  0  0
 20 23  1  0  0  0
 21 24  1  0  0  0
 21 25  1  0  0  0
  8 10  1  0  0  0
 17 18  1  0  0  0
M  CHG 1  21   1
M  END
> <minimizedAffinity>
-6.73008

$$$$
1GI4_122_A_246


 25 27  0  0  0  0  0  0  0  0999 V2000
   41.8582   -2.0554   33.6200 C   0  0  0  0  0  0  0  0  0  0  0  0
   41.9176   -3.4790   33.4689 C   0  0  0  0  0  0  0  0  0  0  0  0
   42.2425   -4.1396   32.2720 C   0  0  0  0  0  0  0  0  0  0  0  0
   42.5123   -3.3054   31.2247 C   0  0  0  0  0  0  0  0  0  0  0  0
   42.4799   -1.9638   31.3434 C   0  0  0  0  0  0  0  0  0  0  0  0
   42.1599   -1.2900   32.4843 C   0  0  0  0  0  0  0  0  0  0  0  0
   42.8617   -3.7026   30.0149 N   0  0  0  0  0  0  0  0  0  0  0  0
   42.7868   -1.4966   30.1833 N   0  0  0  0  0  0  0  0  0  0  0  0
   43.0042   -2.5235   29.4198 C   0  0  0  0  0  0  0  0  0  0  0  0
   42.8451   -0.5481   29.9262 H   0  0  0  0  0  0  0  0  0  0  0  0
   43.3816   -2.3363   28.0267 C   0  0  0  0  0  0  0  0  0  0  0  0
   43.3606   -3.4652   27.1417 C   0  0  0  0  0  0  0  0  0  0  0  0
   43.7225   -3.3660   25.8161 C   0  0  0  0  0  0  0  0  0  0  0  0
   44.1205   -2.1432   25.2987 C   0  0  0  0  0  0  0  0  0  0  0  0
   44.1694   -0.9937   26.0821 C   0  0  0  0  0  0  0  0  0  0  0  0
   43.8029   -1.0812   27.4195 C   0  0  0  0  0  0  0  0  0  0  0  0
   43.8774    0.1516   28.0306 O   0  0  0  0  0  0  0  0  0  0  0  0
   43.6570    0.2393   28.9371 H   0  0  0  0  0  0  0  0  0  0  0  0
   41.5514   -1.4411   34.8441 C   0  0  0  0  0  0  0  0  0  0  0  0
   40.9222   -0.2844   34.8608 N   0  0  0  0  0  0  0  0  0  0  0  0
   41.8946   -2.0261   35.9676 N   0  0  0  0  0  0  0  0  0  0  0  0
   40.6674    0.1496   34.0146 H   0  0  0  0  0  0  0  0  0  0  0  0
   40.7066    0.1464   35.7194 H   0  0  0  0  0  0  0  0  0  0  0  0
   42.3649   -2.8908   35.9487 H   0  0  0  0  0  0  0  0  0  0  0  0
   41.6818   -1.6002   36.8293 H   0  0  0  0  0  0  0  0  0  0  0  0
  1  2  1  0  0  0
  1  6  2  0  0  0
  1 19  1  0  0  0
  2  3  2  0  0  0
  3  4  1  0  0  0
  4  5  2  0  0  0
  4  7  1  0  0  0
  5  6  1  0  0  0
  5  8  1  0  0  0
 19 20  1  0  0  0
 19 21  2  0  0  0
  7  9  2  0  0  0
  8  9  1  0  0  0
  9 11  1  0  0  0
 11 12  2  0  0  0
 11 16  1  0  0  0
 12 13  1  0  0  0
 13 14  2  0  0  0
 14 15  1  0  0  0
 15 16  2  0  0  0
 16 17  1  0  0  0
 20 22  1  0  0  0
 20 23  1  0  0  0
 21 24  1  0  0  0
 21 25  1  0  0  0
  8 10  1  0  0  0
 17 18  1  0  0  0
M  CHG 1  21   1
M  END
> <minimizedAffinity>
-6.55657

$$$$
1GI4_122_A_246


 25 27  0  0  0  0  0  0  0  0999 V2000
   41.2071   -0.7651   33.5711 C   0  0  0  0  0  0  0  0  0  0  0  0
   39.9876   -0.4789   32.8754 C   0  0  0  0  0  0  0  0  0  0  0  0
   39.8172   -0.5980   31.4857 C   0  0  0  0  0  0  0  0  0  0  0  0
   40.9295   -1.0241   30.8173 C   0  0  0  0  0  0  0  0  0  0  0  0
   42.0835   -1.3159   31.4483 C   0  0  0  0  0  0  0  0  0  0  0  0
   42.2874   -1.2029   32.7913 C   0  0  0  0  0  0  0  0  0  0  0  0
   40.9941   -1.2293   29.5145 N   0  0  0  0  0  0  0  0  0  0  0  0
   42.9069   -1.6871   30.5303 N   0  0  0  0  0  0  0  0  0  0  0  0
   42.2565   -1.6287   29.4085 C   0  0  0  0  0  0  0  0  0  0  0  0
   43.8443   -1.9610   30.6547 H   0  0  0  0  0  0  0  0  0  0  0  0
   42.9103   -1.9941   28.1606 C   0  0  0  0  0  0  0  0  0  0  0  0
   43.7112   -1.0166   27.4817 C   0  0  0  0  0  0  0  0  0  0  0  0
   44.3440   -1.2863   26.2880 C   0  0  0  0  0  0  0  0  0  0  0  0
   44.2185   -2.5387   25.7076 C   0  0  0  0  0  0  0  0  0  0  0  0
   43.4639   -3.5498   26.2956 C   0  0  0  0  0  0  0  0  0  0  0  0
   42.8244   -3.2902   27.5015 C   0  0  0  0  0  0  0  0  0  0  0  0
   42.1560   -4.4074   27.9532 O   0  0  0  0  0  0  0  0  0  0  0  0
   41.6791   -4.3741   28.7591 H   0  0  0  0  0  0  0  0  0  0  0  0
   41.3216   -0.6535   34.9655 C   0  0  0  0  0  0  0  0  0  0  0  0
   40.2535   -0.7770   35.7257 N   0  0  0  0  0  0  0  0  0  0  0  0
   42.4967   -0.4265   35.5039 N   0  0  0  0  0  0  0  0  0  0  0  0
   39.3747   -0.9472   35.3160 H   0  0  0  0  0  0  0  0  0  0  0  0
   40.3338   -0.6991   36.7039 H   0  0  0  0  0  0  0  0  0  0  0  0
   43.2916   -0.3351   34.9303 H   0  0  0  0  0  0  0  0  0  0  0  0
   42.5834   -0.3476   36.4814 H   0  0  0  0  0  0  0  0  0  0  0  0
  1  2  1  0  0  0
  1  6  2  0  0  0
  1 19  1  0  0  0
  2  3  2  0  0  0
  3  4  1  0  0  0
  4  5  2  0  0  0
  4  7  1  0  0  0
  5  6  1  0  0  0
  5  8  1  0  0  0
 19 20  1  0  0  0
 19 21  2  0  0  0
  7  9  2  0  0  0
  8  9  1  0  0  0
  9 11  1  0  0  0
 11 12  2  0  0  0
 11 16  1  0  0  0
 12 13  1  0  0  0
 13 14  2  0  0  0
 14 15  1  0  0  0
 15 16  2  0  0  0
 16 17  1  0  0  0
 20 22  1  0  0  0
 20 23  1  0  0  0
 21 24  1  0  0  0
 21 25  1  0  0  0
  8 10  1  0  0  0
 17 18  1  0  0  0
M  CHG 1  21   1
M  END
> <minimizedAffinity>
-6.36304

$$$$
1GI4_122_A_246


 25 27  0  0  0  0  0  0  0  0999 V2000
   39.4498    0.5214   33.8725 C   0  0  0  0  0  0  0  0  0  0  0  0
   38.4920    0.9083   32.8795 C   0  0  0  0  0  0  0  0  0  0  0  0
   38.6204    0.6462   31.5049 C   0  0  0  0  0  0  0  0  0  0  0  0
   39.7575   -0.0299   31.1653 C   0  0  0  0  0  0  0  0  0  0  0  0
   40.6662   -0.4199   32.0803 C   0  0  0  0  0  0  0  0  0  0  0  0
   40.5792   -0.1749   33.4183 C   0  0  0  0  0  0  0  0  0  0  0  0
   40.0754   -0.4026   29.9390 N   0  0  0  0  0  0  0  0  0  0  0  0
   41.5931   -1.0275   31.4244 N   0  0  0  0  0  0  0  0  0  0  0  0
   41.2343   -1.0066   30.1772 C   0  0  0  0  0  0  0  0  0  0  0  0
   42.4120   -1.4286   31.7957 H   0  0  0  0  0  0  0  0  0  0  0  0
   42.0744   -1.6226   29.1608 C   0  0  0  0  0  0  0  0  0  0  0  0
   41.8191   -2.9807   28.7758 C   0  0  0  0  0  0  0  0  0  0  0  0
   42.5846   -3.6334   27.8344 C   0  0  0  0  0  0  0  0  0  0  0  0
   43.6396   -2.9733   27.2241 C   0  0  0  0  0  0  0  0  0  0  0  0
   43.9595   -1.6544   27.5330 C   0  0  0  0  0  0  0  0  0  0  0  0
   43.1920   -0.9851   28.4782 C   0  0  0  0  0  0  0  0  0  0  0  0
   43.6259    0.3137   28.6326 O   0  0  0  0  0  0  0  0  0  0  0  0
   43.1963    0.8820   29.2412 H   0  0  0  0  0  0  0  0  0  0  0  0
   39.2654    0.7855   35.2386 C   0  0  0  0  0  0  0  0  0  0  0  0
   40.0669    1.6248   35.8609 N   0  0  0  0  0  0  0  0  0  0  0  0
   38.2917    0.1924   35.8884 N   0  0  0  0  0  0  0  0  0  0  0  0
   40.7956    2.0667   35.3680 H   0  0  0  0  0  0  0  0  0  0  0  0
   39.9373    1.8104   36.8190 H   0  0  0  0  0  0  0  0  0  0  0  0
   37.6957   -0.4341   35.4176 H   0  0  0  0  0  0  0  0  0  0  0  0
   38.1571    0.3739   36.8466 H   0  0  0  0  0  0  0  0  0  0  0  0
  1  2  1  0  0  0
  1  6  2  0  0  0
  1 19  1  0  0  0
  2  3  2  0  0  0
  3  4  1  0  0  0
  4  5  2  0  0  0
  4  7  1  0  0  0
  5  6  1  0  0  0
  5  8  1  0  0  0
 19 20  1  0  0  0
 19 21  2  0  0  0
  7  9  2  0  0  0
  8  9  1  0  0  0
  9 11  1  0  0  0
 11 12  2  0  0  0
 11 16  1  0  0  0
 12 13  1  0  0  0
 13 14  2  0  0  0
 14 15  1  0  0  0
 15 16  2  0  0  0
 16 17  1  0  0  0
 20 22  1  0  0  0
 20 23  1  0  0  0
 21 24  1  0  0  0
 21 25  1  0  0  0
  8 10  1  0  0  0
 17 18  1  0  0  0
M  CHG 1  21   1
M  END
> <minimizedAffinity>
-6.19319

$$$$
1GI4_122_A_246


 25 27  0  0  0  0  0  0  0  0999 V2000
   43.7843   -1.9669   25.6490 C   0  0  0  0  0  0  0  0  0  0  0  0
   43.6151   -3.3822   25.7956 C   0  0  0  0  0  0  0  0  0  0  0  0
   43.3138   -4.0265   27.0074 C   0  0  0  0  0  0  0  0  0  0  0  0
   43.1837   -3.1844   28.0748 C   0  0  0  0  0  0  0  0  0  0  0  0
   43.3212   -1.8489   27.9618 C   0  0  0  0  0  0  0  0  0  0  0  0
   43.6223   -1.1917   26.8063 C   0  0  0  0  0  0  0  0  0  0  0  0
   42.8810   -3.5643   29.3027 N   0  0  0  0  0  0  0  0  0  0  0  0
   43.1305   -1.3706   29.1422 N   0  0  0  0  0  0  0  0  0  0  0  0
   42.8772   -2.3842   29.9125 C   0  0  0  0  0  0  0  0  0  0  0  0
   43.1691   -0.4234   29.4078 H   0  0  0  0  0  0  0  0  0  0  0  0
   42.6079   -2.1815   31.3283 C   0  0  0  0  0  0  0  0  0  0  0  0
   42.7086   -0.8587   31.8740 C   0  0  0  0  0  0  0  0  0  0  0  0
   42.4856   -0.5955   33.2078 C   0  0  0  0  0  0  0  0  0  0  0  0
   42.1484   -1.6284   34.0684 C   0  0  0  0  0  0  0  0  0  0  0  0
   42.0256   -2.9429   33.6274 C   0  0  0  0  0  0  0  0  0  0  0  0
   42.2444   -3.2194   32.2834 C   0  0  0  0  0  0  0  0  0  0  0  0
   42.0469   -4.5572   32.0189 O   0  0  0  0  0  0  0  0  0  0  0  0
   42.1608   -4.8845   31.1483 H   0  0  0  0  0  0  0  0  0  0  0  0
   44.0618   -1.3669   24.4109 C   0  0  0  0  0  0  0  0  0  0  0  0
   44.6119   -2.0735   23.4454 N   0  0  0  0  0  0  0  0  0  0  0  0
   43.7697   -0.1013   24.2233 N   0  0  0  0  0  0  0  0  0  0  0  0
   44.8288   -3.0225   23.5921 H   0  0  0  0  0  0  0  0  0  0  0  0
   44.8063   -1.6527   22.5768 H   0  0  0  0  0  0  0  0  0  0  0  0
   43.3585    0.4218   24.9490 H   0  0  0  0  0  0  0  0  0  0  0  0
   43.9617    0.3251   23.3569 H   0  0  0  0  0  0  0  0  0  0  0  0
  1  2  1  0  0  0
  1  6  2  0  0  0
  1 19  1  0  0  0
  2  3  2  0  0  0
  3  4  1  0  0  0
  4  5  2  0  0  0
  4  7  1  0  0  0
  5  6  1  0  0  0
  5  8  1  0  0  0
 19 20  1  0  0  0
 19 21  2  0  0  0
  7  9  2  0  0  0
  8  9  1  0  0  0
  9 11  1  0  0  0
 11 12  2  0  0  0
 11 16  1  0  0  0
 12 13  1  0  0  0
 13 14  2  0  0  0
 14 15  1  0  0  0
 15 16  2  0  0  0
 16 17  1  0  0  0
 20 22  1  0  0  0
 20 23  1  0  0  0
 21 24  1  0  0  0
 21 25  1  0  0  0
  8 10  1  0  0  0
 17 18  1  0  0  0
M  CHG 1  21   1
M  END
> <minimizedAffinity>
-6.07218

$$$$
