3JZJ_ACR_A_405
  RCSB PDB12061709213D
Coordinates from PDB:3JZJ:A:405 Model:1 without hydrogens
 44 47  0  0  0  0            999 V2000
   -6.0420  -11.6920   22.0660   C 0  0  0  0  0  0  0  0  0  0  0  0
   -5.2600  -12.6370   21.1710   C 0  0  0  0  0  0  0  0  0  0  0  0
   -5.6700  -12.3930   19.7070   C 0  0  0  0  0  0  0  0  0  0  0  0
   -7.1690  -12.7090   19.5240   C 0  0  0  0  0  0  0  0  0  0  0  0
   -8.0380  -12.2100   20.6470   C 0  0  0  0  0  0  0  0  0  0  0  0
   -9.5270  -12.1680   20.3750   C 0  0  0  0  0  0  0  0  0  0  0  0
   -7.5200  -11.8330   21.8210   C 0  0  0  0  0  0  0  0  0  0  0  0
   -3.8390  -12.4280   21.3010   O 0  0  0  0  0  0  0  0  0  0  0  0
   -4.8460  -13.1240   18.7690   O 0  0  0  0  0  0  0  0  0  0  0  0
   -7.6040  -12.1590   18.2570   O 0  0  0  0  0  0  0  0  0  0  0  0
  -10.3360  -11.7450   21.4930   O 0  0  0  0  0  0  0  0  0  0  0  0
   -4.5980   -6.7660   23.9230   C 0  0  0  0  0  0  0  0  0  0  0  0
   -3.7890   -7.9900   24.3240   C 0  0  0  0  0  0  0  0  0  0  0  0
   -3.8910   -8.9920   23.1810   C 0  0  0  0  0  0  0  0  0  0  0  0
   -5.3420   -9.4350   23.0530   C 0  0  0  0  0  0  0  0  0  0  0  0
   -6.2490   -8.2080   22.9010   C 0  0  0  0  0  0  0  0  0  0  0  0
   -7.7240   -8.5720   23.1490   C 0  0  0  0  0  0  0  0  0  0  0  0
   -5.5310  -10.3080   21.8860   N 0  0  0  0  0  0  0  0  0  0  0  0
   -2.4350   -7.6590   24.6230   O 0  0  0  0  0  0  0  0  0  0  0  0
   -3.1000  -10.1810   23.3960   O 0  0  0  0  0  0  0  0  0  0  0  0
   -5.9650   -7.2100   23.8940   O 0  0  0  0  0  0  0  0  0  0  0  0
   -4.2140   -2.6780   20.4680   C 0  0  0  0  0  0  0  0  0  0  0  0
   -3.0140   -2.9620   21.3470   C 0  0  0  0  0  0  0  0  0  0  0  0
   -2.9370   -4.4540   21.6900   C 0  0  0  0  0  0  0  0  0  0  0  0
   -4.2280   -4.8550   22.3780   C 0  0  0  0  0  0  0  0  0  0  0  0
   -5.3940   -4.5070   21.4620   C 0  0  0  0  0  0  0  0  0  0  0  0
   -6.7320   -4.7780   22.1450   C 0  0  0  0  0  0  0  0  0  0  0  0
   -1.8450   -2.5070   20.6680   O 0  0  0  0  0  0  0  0  0  0  0  0
   -1.8450   -4.6210   22.5750   O 0  0  0  0  0  0  0  0  0  0  0  0
   -4.1280   -6.2500   22.6310   O 0  0  0  0  0  0  0  0  0  0  0  0
   -5.3850   -3.1160   21.1120   O 0  0  0  0  0  0  0  0  0  0  0  0
   -7.8250   -4.6390   21.1900   O 0  0  0  0  0  0  0  0  0  0  0  0
   -4.1030   -2.6350   15.1440   C 0  0  0  0  0  0  0  0  0  0  0  0
   -3.3320   -1.6570   15.9970   C 0  0  0  0  0  0  0  0  0  0  0  0
   -3.0410   -2.2360   17.3670   C 0  0  0  0  0  0  0  0  0  0  0  0
   -4.3590   -2.6120   18.0290   C 0  0  0  0  0  0  0  0  0  0  0  0
   -5.2370   -3.4850   17.1480   C 0  0  0  0  0  0  0  0  0  0  0  0
   -6.6510   -3.6990   17.7060   C 0  0  0  0  0  0  0  0  0  0  0  0
   -3.3370   -3.8050   15.0840   O 0  0  0  0  0  0  0  0  0  0  0  0
   -2.0960   -1.2480   15.3730   O 0  0  0  0  0  0  0  0  0  0  0  0
   -2.3730   -1.2460   18.1530   O 0  0  0  0  0  0  0  0  0  0  0  0
   -4.0600   -3.3850   19.2310   O 0  0  0  0  0  0  0  0  0  0  0  0
   -5.3640   -2.9470   15.7900   O 0  0  0  0  0  0  0  0  0  0  0  0
   -7.2850   -2.4180   17.6550   O 0  0  0  0  0  0  0  0  0  0  0  0
  1  2  1  0  0  0  0
  1  7  1  0  0  0  0
  1 18  1  0  0  0  0
  2  3  1  0  0  0  0
  2  8  1  0  0  0  0
  3  4  1  0  0  0  0
  3  9  1  0  0  0  0
  4  5  1  0  0  0  0
  4 10  1  0  0  0  0
  5  6  1  0  0  0  0
  5  7  2  0  0  0  0
  6 11  1  0  0  0  0
 12 13  1  0  0  0  0
 12 21  1  0  0  0  0
 12 30  1  0  0  0  0
 13 14  1  0  0  0  0
 13 19  1  0  0  0  0
 14 15  1  0  0  0  0
 14 20  1  0  0  0  0
 15 16  1  0  0  0  0
 15 18  1  0  0  0  0
 16 17  1  0  0  0  0
 16 21  1  0  0  0  0
 22 23  1  0  0  0  0
 22 31  1  0  0  0  0
 22 42  1  0  0  0  0
 23 24  1  0  0  0  0
 23 28  1  0  0  0  0
 24 25  1  0  0  0  0
 24 29  1  0  0  0  0
 25 26  1  0  0  0  0
 25 30  1  0  0  0  0
 26 27  1  0  0  0  0
 26 31  1  0  0  0  0
 27 32  1  0  0  0  0
 33 34  1  0  0  0  0
 33 39  1  0  0  0  0
 33 43  1  0  0  0  0
 34 35  1  0  0  0  0
 34 40  1  0  0  0  0
 35 36  1  0  0  0  0
 35 41  1  0  0  0  0
 36 37  1  0  0  0  0
 36 42  1  0  0  0  0
 37 38  1  0  0  0  0
 37 43  1  0  0  0  0
 38 44  1  0  0  0  0
A    1
C1A
A    2
C2A
A    3
C3A
A    4
C4A
A    5
C5A
A    6
C6A
A    7
C7A
A    8
O2A
A    9
O3A
A   10
O4A
A   11
O6A
A   12
C1B
A   13
C2B
A   14
C3B
A   15
C4B
A   16
C5B
A   17
C6B
A   18
N4B
A   19
O2B
A   20
O3B
A   21
O5B
A   22
C1C
A   23
C2C
A   24
C3C
A   25
C4C
A   26
C5C
A   27
C6C
A   28
O2C
A   29
O3C
A   30
O4C
A   31
O5C
A   32
O6C
A   33
C1D
A   34
C2D
A   35
C3D
A   36
C4D
A   37
C5D
A   38
C6D
A   39
O1D
A   40
O2D
A   41
O3D
A   42
O4D
A   43
O5D
A   44
O6D
M  END
>  <InstanceId>
3JZJ_ACR_A_405

>  <ChemCompId>
ACR

>  <PdbId>
3JZJ

>  <ChainId>
A

>  <ResidueNumber>
405

>  <InsertionCode>


>  <Model>
1

>  <AltIds>


>  <MissingHeavyAtoms>
0

>  <ObservedFormula>
C25 N O18

>  <Name>
ALPHA-ACARBOSE

>  <SystematicName>
(2S,3R,4R,5S,6R)-5-[(2R,3R,4R,5S,6R)-5-[(2R,3R,4S,5S,6R)-3,4-dihydroxy-6-methyl-5-[[(1S,4R,5S,6S)-4,5,6-trihydroxy-3-(hydroxymethyl)cyclohex-2-en-1-yl]amino]oxan-2-yl]oxy-3,4-dihydroxy-6-(hydroxymethyl)oxan-2-yl]oxy-6-(hydroxymethyl)oxane-2,3,4-triol

>  <Synonyms>
1,4-DEOXY-4-((5-HYDROXYMETHYL-2,3,4-TRIHYDROXYCYCLOHEX-5,6-ENYL)AMINO)FRUCTOSE

>  <Type>
SACCHARIDE

>  <Formula>
C25 H43 N O18

>  <MolecularWeight>
645.605

>  <ModifiedDate>
2011-06-04

>  <Parent>


>  <OneLetterCode>


>  <SubcomponentList>


>  <AmbiguousFlag>
N

>  <InChI>
InChI=1S/C25H43NO18/c1-6-11(26-8-2-7(3-27)12(30)15(33)13(8)31)14(32)19(37)24(40-6)43-22-10(5-29)42-25(20(38)17(22)35)44-21-9(4-28)41-23(39)18(36)16(21)34/h2,6,8-39H,3-5H2,1H3/t6-,8+,9-,10-,11-,12-,13+,14+,15+,16-,17-,18-,19-,20-,21-,22-,23+,24-,25-/m1/s1

>  <InChIKey>
XUFXOAAUWZOOIT-WVJZLWNXSA-N

>  <SMILES>
C[C@@H]1[C@H]([C@@H]([C@H]([C@H](O1)O[C@@H]2[C@H](O[C@@H]([C@@H]([C@H]2O)O)O[C@@H]3[C@H](O[C@@H]([C@@H]([C@H]3O)O)O)CO)CO)O)O)N[C@H]4C=C([C@H]([C@@H]([C@H]4O)O)O)CO

$$$$
