3JZJ_ACR_A_405


 58 61  0  0  0  0  0  0  0  0999 V2000
   -4.2611   -2.7284   20.5667 C   0  0  0  0  0  0  0  0  0  0  0  0
   -3.2376   -3.1743   21.5899 C   0  0  0  0  0  0  0  0  0  0  0  0
   -3.3091   -4.6910   21.7995 C   0  0  0  0  0  0  0  0  0  0  0  0
   -4.7160   -5.0485   22.2394 C   0  0  0  0  0  0  0  0  0  0  0  0
   -5.6962   -4.5385   21.1911 C   0  0  0  0  0  0  0  0  0  0  0  0
   -1.9489   -2.7547   21.1450 O   0  0  0  0  0  0  0  0  0  0  0  0
   -2.3856   -5.0129   22.8228 O   0  0  0  0  0  0  0  0  0  0  0  0
   -5.5451   -3.1281   20.9784 O   0  0  0  0  0  0  0  0  0  0  0  0
   -1.7577   -3.1566   20.2832 H   0  0  0  0  0  0  0  0  0  0  0  0
   -2.6092   -4.5189   23.6271 H   0  0  0  0  0  0  0  0  0  0  0  0
   -7.1406   -4.7628   21.6310 C   0  0  0  0  0  0  0  0  0  0  0  0
   -8.0571   -4.0796   20.7260 O   0  0  0  0  0  0  0  0  0  0  0  0
   -7.8724   -3.1274   20.7368 H   0  0  0  0  0  0  0  0  0  0  0  0
   -4.7444   -6.4631   22.3732 O   0  0  0  0  0  0  0  0  0  0  0  0
   -5.2724   -7.0418   23.6152 C   0  0  0  0  0  0  0  0  0  0  0  0
   -4.3371   -8.1267   24.1269 C   0  0  0  0  0  0  0  0  0  0  0  0
   -4.1573   -9.1353   22.9993 C   0  0  0  0  0  0  0  0  0  0  0  0
   -5.5007   -9.7953   22.7207 C   0  0  0  0  0  0  0  0  0  0  0  0
   -6.5606   -8.7218   22.4457 C   0  0  0  0  0  0  0  0  0  0  0  0
   -7.9817   -9.3065   22.5365 C   0  0  0  0  0  0  0  0  0  0  0  0
   -3.0911   -7.5918   24.5669 O   0  0  0  0  0  0  0  0  0  0  0  0
   -3.2242  -10.1888   23.3235 O   0  0  0  0  0  0  0  0  0  0  0  0
   -6.5443   -7.6897   23.4443 O   0  0  0  0  0  0  0  0  0  0  0  0
   -2.6534   -7.1415   23.8276 H   0  0  0  0  0  0  0  0  0  0  0  0
   -3.5541  -10.6898   24.0858 H   0  0  0  0  0  0  0  0  0  0  0  0
   -5.4232  -10.6898   21.5573 N   0  0  0  0  0  0  0  0  0  0  0  0
   -6.1858  -10.4270   20.9329 H   0  0  0  0  0  0  0  0  0  0  0  0
   -5.5089  -12.1619   21.7424 C   0  0  0  0  0  0  0  0  0  0  0  0
   -5.7327  -12.8259   20.3953 C   0  0  0  0  0  0  0  0  0  0  0  0
   -7.1705  -12.5350   19.9273 C   0  0  0  0  0  0  0  0  0  0  0  0
   -8.1784  -13.1461   20.9228 C   0  0  0  0  0  0  0  0  0  0  0  0
   -7.7991  -12.9563   22.3670 C   0  0  0  0  0  0  0  0  0  0  0  0
   -6.5632  -12.5925   22.7261 C   0  0  0  0  0  0  0  0  0  0  0  0
   -4.8082  -12.3304   19.4056 O   0  0  0  0  0  0  0  0  0  0  0  0
   -7.4150  -12.9777   18.5718 O   0  0  0  0  0  0  0  0  0  0  0  0
   -9.4858  -12.5822   20.6587 O   0  0  0  0  0  0  0  0  0  0  0  0
   -4.9376  -11.3759   19.2914 H   0  0  0  0  0  0  0  0  0  0  0  0
   -7.3083  -13.9406   18.5220 H   0  0  0  0  0  0  0  0  0  0  0  0
   -9.4597  -11.6234   20.8036 H   0  0  0  0  0  0  0  0  0  0  0  0
   -8.8905  -13.2087   23.3858 C   0  0  0  0  0  0  0  0  0  0  0  0
   -9.8046  -14.2723   23.0443 O   0  0  0  0  0  0  0  0  0  0  0  0
  -10.2789  -14.0420   22.2301 H   0  0  0  0  0  0  0  0  0  0  0  0
   -3.9547   -3.3404   19.3076 O   0  0  0  0  0  0  0  0  0  0  0  0
   -3.6186   -2.3274   15.2915 C   0  0  0  0  0  0  0  0  0  0  0  0
   -2.9048   -1.4284   16.2717 C   0  0  0  0  0  0  0  0  0  0  0  0
   -2.7493   -2.1024   17.6201 C   0  0  0  0  0  0  0  0  0  0  0  0
   -4.1288   -2.4834   18.1384 C   0  0  0  0  0  0  0  0  0  0  0  0
   -4.9443   -3.2729   17.1281 C   0  0  0  0  0  0  0  0  0  0  0  0
   -2.8763   -3.5120   15.2205 O   0  0  0  0  0  0  0  0  0  0  0  0
   -1.6096   -1.0146   15.7863 O   0  0  0  0  0  0  0  0  0  0  0  0
   -2.1319   -1.1842   18.5256 O   0  0  0  0  0  0  0  0  0  0  0  0
   -4.9385   -2.6451   15.8031 O   0  0  0  0  0  0  0  0  0  0  0  0
   -2.8143   -3.9081   16.1037 H   0  0  0  0  0  0  0  0  0  0  0  0
   -1.0408   -1.7929   15.6789 H   0  0  0  0  0  0  0  0  0  0  0  0
   -2.6817   -0.3890   18.6046 H   0  0  0  0  0  0  0  0  0  0  0  0
   -6.4066   -3.4830   17.5454 C   0  0  0  0  0  0  0  0  0  0  0  0
   -6.7313   -2.3743   18.3886 O   0  0  0  0  0  0  0  0  0  0  0  0
   -6.1253   -2.3555   19.1457 H   0  0  0  0  0  0  0  0  0  0  0  0
 28 29  1  0  0  0
 28 33  1  0  0  0
 28 26  1  0  0  0
 29 30  1  0  0  0
 29 34  1  0  0  0
 30 31  1  0  0  0
 30 35  1  0  0  0
 31 32  1  0  0  0
 31 36  1  0  0  0
 32 40  1  0  0  0
 32 33  2  0  0  0
 40 41  1  0  0  0
 15 16  1  0  0  0
 15 23  1  0  0  0
 15 14  1  0  0  0
 16 17  1  0  0  0
 16 21  1  0  0  0
 17 18  1  0  0  0
 17 22  1  0  0  0
 18 19  1  0  0  0
 18 26  1  0  0  0
 19 20  1  0  0  0
 19 23  1  0  0  0
  1  2  1  0  0  0
  1  8  1  0  0  0
  1 43  1  0  0  0
  2  3  1  0  0  0
  2  6  1  0  0  0
  3  4  1  0  0  0
  3  7  1  0  0  0
  4  5  1  0  0  0
  4 14  1  0  0  0
  5 11  1  0  0  0
  5  8  1  0  0  0
 11 12  1  0  0  0
 44 45  1  0  0  0
 44 49  1  0  0  0
 44 52  1  0  0  0
 45 46  1  0  0  0
 45 50  1  0  0  0
 46 47  1  0  0  0
 46 51  1  0  0  0
 47 48  1  0  0  0
 47 43  1  0  0  0
 48 56  1  0  0  0
 48 52  1  0  0  0
 56 57  1  0  0  0
 34 37  1  0  0  0
 35 38  1  0  0  0
 36 39  1  0  0  0
 41 42  1  0  0  0
 26 27  1  0  0  0
 21 24  1  0  0  0
 22 25  1  0  0  0
  6  9  1  0  0  0
  7 10  1  0  0  0
 12 13  1  0  0  0
 49 53  1  0  0  0
 50 54  1  0  0  0
 51 55  1  0  0  0
 57 58  1  0  0  0
M  END
> <minimizedAffinity>
-13.30262

$$$$
3JZJ_ACR_A_405


 58 61  0  0  0  0  0  0  0  0999 V2000
   -4.1844   -2.7005   20.5905 C   0  0  0  0  0  0  0  0  0  0  0  0
   -3.1276   -3.1766   21.5651 C   0  0  0  0  0  0  0  0  0  0  0  0
   -3.2550   -4.6851   21.8053 C   0  0  0  0  0  0  0  0  0  0  0  0
   -4.6505   -4.9714   22.3264 C   0  0  0  0  0  0  0  0  0  0  0  0
   -5.6625   -4.4337   21.3233 C   0  0  0  0  0  0  0  0  0  0  0  0
   -1.8477   -2.8229   21.0443 O   0  0  0  0  0  0  0  0  0  0  0  0
   -2.2926   -5.0328   22.7832 O   0  0  0  0  0  0  0  0  0  0  0  0
   -5.4606   -3.0350   21.0776 O   0  0  0  0  0  0  0  0  0  0  0  0
   -1.7217   -3.2464   20.1807 H   0  0  0  0  0  0  0  0  0  0  0  0
   -2.4498   -4.5168   23.5894 H   0  0  0  0  0  0  0  0  0  0  0  0
   -7.0894   -4.5853   21.8440 C   0  0  0  0  0  0  0  0  0  0  0  0
   -7.6371   -5.8780   21.4505 O   0  0  0  0  0  0  0  0  0  0  0  0
   -7.6502   -5.9426   20.4827 H   0  0  0  0  0  0  0  0  0  0  0  0
   -4.7345   -6.3811   22.4867 O   0  0  0  0  0  0  0  0  0  0  0  0
   -5.1263   -6.9180   23.7962 C   0  0  0  0  0  0  0  0  0  0  0  0
   -4.2049   -8.0622   24.1904 C   0  0  0  0  0  0  0  0  0  0  0  0
   -4.2479   -9.0847   23.0619 C   0  0  0  0  0  0  0  0  0  0  0  0
   -5.6578   -9.6528   22.9762 C   0  0  0  0  0  0  0  0  0  0  0  0
   -6.6710   -8.5107   22.8334 C   0  0  0  0  0  0  0  0  0  0  0  0
   -8.1025   -8.9970   23.1233 C   0  0  0  0  0  0  0  0  0  0  0  0
   -2.8776   -7.6117   24.4508 O   0  0  0  0  0  0  0  0  0  0  0  0
   -3.3520  -10.1981   23.2702 O   0  0  0  0  0  0  0  0  0  0  0  0
   -6.4501   -7.4785   23.8073 O   0  0  0  0  0  0  0  0  0  0  0  0
   -2.5154   -7.1949   23.6533 H   0  0  0  0  0  0  0  0  0  0  0  0
   -3.6080  -10.6727   24.0765 H   0  0  0  0  0  0  0  0  0  0  0  0
   -5.7992  -10.5547   21.8246 N   0  0  0  0  0  0  0  0  0  0  0  0
   -6.5179  -10.1526   21.2226 H   0  0  0  0  0  0  0  0  0  0  0  0
   -6.1646  -11.9799   22.0349 C   0  0  0  0  0  0  0  0  0  0  0  0
   -5.2609  -12.8605   21.1902 C   0  0  0  0  0  0  0  0  0  0  0  0
   -5.6524  -12.7039   19.7093 C   0  0  0  0  0  0  0  0  0  0  0  0
   -7.1033  -13.1843   19.4983 C   0  0  0  0  0  0  0  0  0  0  0  0
   -8.0524  -12.7498   20.5826 C   0  0  0  0  0  0  0  0  0  0  0  0
   -7.6114  -12.2859   21.7570 C   0  0  0  0  0  0  0  0  0  0  0  0
   -3.8746  -12.4963   21.3497 O   0  0  0  0  0  0  0  0  0  0  0  0
   -4.7286  -13.3685   18.8161 O   0  0  0  0  0  0  0  0  0  0  0  0
   -7.5580  -12.7206   18.2040 O   0  0  0  0  0  0  0  0  0  0  0  0
   -3.7465  -11.5783   21.0637 H   0  0  0  0  0  0  0  0  0  0  0  0
   -4.7360  -14.3220   18.9941 H   0  0  0  0  0  0  0  0  0  0  0  0
   -7.5543  -11.7508   18.1884 H   0  0  0  0  0  0  0  0  0  0  0  0
   -9.5290  -12.8759   20.2716 C   0  0  0  0  0  0  0  0  0  0  0  0
  -10.0797  -11.7918   19.4940 O   0  0  0  0  0  0  0  0  0  0  0  0
  -10.0051  -10.9643   19.9946 H   0  0  0  0  0  0  0  0  0  0  0  0
   -3.9745   -3.3451   19.3279 O   0  0  0  0  0  0  0  0  0  0  0  0
   -3.6573   -2.3519   15.3054 C   0  0  0  0  0  0  0  0  0  0  0  0
   -2.9406   -1.4469   16.2779 C   0  0  0  0  0  0  0  0  0  0  0  0
   -2.7782   -2.1140   17.6291 C   0  0  0  0  0  0  0  0  0  0  0  0
   -4.1549   -2.4943   18.1552 C   0  0  0  0  0  0  0  0  0  0  0  0
   -4.9737   -3.2901   17.1524 C   0  0  0  0  0  0  0  0  0  0  0  0
   -2.9137   -3.5358   15.2371 O   0  0  0  0  0  0  0  0  0  0  0  0
   -1.6481   -1.0337   15.7848 O   0  0  0  0  0  0  0  0  0  0  0  0
   -2.1582   -1.1903   18.5272 O   0  0  0  0  0  0  0  0  0  0  0  0
   -4.9745   -2.6689   15.8243 O   0  0  0  0  0  0  0  0  0  0  0  0
   -2.8472   -3.9274   16.1220 H   0  0  0  0  0  0  0  0  0  0  0  0
   -1.0786   -1.8118   15.6789 H   0  0  0  0  0  0  0  0  0  0  0  0
   -2.7088   -0.3955   18.6046 H   0  0  0  0  0  0  0  0  0  0  0  0
   -6.4338   -3.5000   17.5772 C   0  0  0  0  0  0  0  0  0  0  0  0
   -6.7553   -2.3897   18.4193 O   0  0  0  0  0  0  0  0  0  0  0  0
   -6.1457   -2.3688   19.1735 H   0  0  0  0  0  0  0  0  0  0  0  0
 28 29  1  0  0  0
 28 33  1  0  0  0
 28 26  1  0  0  0
 29 30  1  0  0  0
 29 34  1  0  0  0
 30 31  1  0  0  0
 30 35  1  0  0  0
 31 32  1  0  0  0
 31 36  1  0  0  0
 32 40  1  0  0  0
 32 33  2  0  0  0
 40 41  1  0  0  0
 15 16  1  0  0  0
 15 23  1  0  0  0
 15 14  1  0  0  0
 16 17  1  0  0  0
 16 21  1  0  0  0
 17 18  1  0  0  0
 17 22  1  0  0  0
 18 19  1  0  0  0
 18 26  1  0  0  0
 19 20  1  0  0  0
 19 23  1  0  0  0
  1  2  1  0  0  0
  1  8  1  0  0  0
  1 43  1  0  0  0
  2  3  1  0  0  0
  2  6  1  0  0  0
  3  4  1  0  0  0
  3  7  1  0  0  0
  4  5  1  0  0  0
  4 14  1  0  0  0
  5 11  1  0  0  0
  5  8  1  0  0  0
 11 12  1  0  0  0
 44 45  1  0  0  0
 44 49  1  0  0  0
 44 52  1  0  0  0
 45 46  1  0  0  0
 45 50  1  0  0  0
 46 47  1  0  0  0
 46 51  1  0  0  0
 47 48  1  0  0  0
 47 43  1  0  0  0
 48 56  1  0  0  0
 48 52  1  0  0  0
 56 57  1  0  0  0
 34 37  1  0  0  0
 35 38  1  0  0  0
 36 39  1  0  0  0
 41 42  1  0  0  0
 26 27  1  0  0  0
 21 24  1  0  0  0
 22 25  1  0  0  0
  6  9  1  0  0  0
  7 10  1  0  0  0
 12 13  1  0  0  0
 49 53  1  0  0  0
 50 54  1  0  0  0
 51 55  1  0  0  0
 57 58  1  0  0  0
M  END
> <minimizedAffinity>
-13.25519

$$$$
3JZJ_ACR_A_405


 58 61  0  0  0  0  0  0  0  0999 V2000
   -4.5914   -2.9934   20.8794 C   0  0  0  0  0  0  0  0  0  0  0  0
   -3.4793   -3.3546   21.8416 C   0  0  0  0  0  0  0  0  0  0  0  0
   -3.4528   -4.8664   22.0931 C   0  0  0  0  0  0  0  0  0  0  0  0
   -4.8055   -5.2859   22.6360 C   0  0  0  0  0  0  0  0  0  0  0  0
   -5.8797   -4.8591   21.6442 C   0  0  0  0  0  0  0  0  0  0  0  0
   -2.2481   -2.8795   21.3002 O   0  0  0  0  0  0  0  0  0  0  0  0
   -2.4472   -5.1093   23.0592 O   0  0  0  0  0  0  0  0  0  0  0  0
   -5.8213   -3.4492   21.3869 O   0  0  0  0  0  0  0  0  0  0  0  0
   -2.0925   -3.2950   20.4376 H   0  0  0  0  0  0  0  0  0  0  0  0
   -2.6438   -4.6053   23.8643 H   0  0  0  0  0  0  0  0  0  0  0  0
   -7.2772   -5.1477   22.1864 C   0  0  0  0  0  0  0  0  0  0  0  0
   -7.6640   -6.5205   21.8835 O   0  0  0  0  0  0  0  0  0  0  0  0
   -7.6699   -6.6502   20.9222 H   0  0  0  0  0  0  0  0  0  0  0  0
   -4.7468   -6.6957   22.8064 O   0  0  0  0  0  0  0  0  0  0  0  0
   -4.8197   -7.2435   24.1669 C   0  0  0  0  0  0  0  0  0  0  0  0
   -3.9234   -8.4663   24.2883 C   0  0  0  0  0  0  0  0  0  0  0  0
   -4.3474   -9.4456   23.2011 C   0  0  0  0  0  0  0  0  0  0  0  0
   -5.7711   -9.9022   23.4886 C   0  0  0  0  0  0  0  0  0  0  0  0
   -6.6891   -8.6826   23.6340 C   0  0  0  0  0  0  0  0  0  0  0  0
   -8.0272   -9.0682   24.2901 C   0  0  0  0  0  0  0  0  0  0  0  0
   -2.5424   -8.1263   24.1899 O   0  0  0  0  0  0  0  0  0  0  0  0
   -3.5223  -10.6298   23.1504 O   0  0  0  0  0  0  0  0  0  0  0  0
   -6.1343   -7.7021   24.5248 O   0  0  0  0  0  0  0  0  0  0  0  0
   -2.3718   -7.7126   23.3293 H   0  0  0  0  0  0  0  0  0  0  0  0
   -3.5932  -11.1094   23.9906 H   0  0  0  0  0  0  0  0  0  0  0  0
   -6.2859  -10.7531   22.4066 N   0  0  0  0  0  0  0  0  0  0  0  0
   -5.8328  -11.6615   22.5059 H   0  0  0  0  0  0  0  0  0  0  0  0
   -6.1139  -10.3411   20.9890 C   0  0  0  0  0  0  0  0  0  0  0  0
   -7.4785  -10.1289   20.3580 C   0  0  0  0  0  0  0  0  0  0  0  0
   -8.1535  -11.4978   20.1545 C   0  0  0  0  0  0  0  0  0  0  0  0
   -7.3167  -12.3543   19.1816 C   0  0  0  0  0  0  0  0  0  0  0  0
   -5.8327  -12.2693   19.4177 C   0  0  0  0  0  0  0  0  0  0  0  0
   -5.2958  -11.3023   20.1696 C   0  0  0  0  0  0  0  0  0  0  0  0
   -8.3218   -9.3099   21.1934 O   0  0  0  0  0  0  0  0  0  0  0  0
   -9.5298  -11.3813   19.7238 O   0  0  0  0  0  0  0  0  0  0  0  0
   -7.7711  -13.7265   19.2687 O   0  0  0  0  0  0  0  0  0  0  0  0
   -8.4548   -9.7491   22.0479 H   0  0  0  0  0  0  0  0  0  0  0  0
   -9.5624  -10.9375   18.8619 H   0  0  0  0  0  0  0  0  0  0  0  0
   -7.6250  -14.0590   20.1682 H   0  0  0  0  0  0  0  0  0  0  0  0
   -4.9855  -13.3323   18.7505 C   0  0  0  0  0  0  0  0  0  0  0  0
   -4.1620  -14.1044   19.6499 O   0  0  0  0  0  0  0  0  0  0  0  0
   -3.5222  -13.5195   20.0852 H   0  0  0  0  0  0  0  0  0  0  0  0
   -4.3358   -3.6236   19.6180 O   0  0  0  0  0  0  0  0  0  0  0  0
   -4.4234   -2.7720   15.5516 C   0  0  0  0  0  0  0  0  0  0  0  0
   -3.5275   -1.9020   16.3996 C   0  0  0  0  0  0  0  0  0  0  0  0
   -3.2580   -2.5423   17.7466 C   0  0  0  0  0  0  0  0  0  0  0  0
   -4.5876   -2.7939   18.4433 C   0  0  0  0  0  0  0  0  0  0  0  0
   -5.5796   -3.5475   17.5731 C   0  0  0  0  0  0  0  0  0  0  0  0
   -3.7879   -4.0143   15.4414 O   0  0  0  0  0  0  0  0  0  0  0  0
   -2.2747   -1.6100   15.7443 O   0  0  0  0  0  0  0  0  0  0  0  0
   -2.4652   -1.6479   18.5313 O   0  0  0  0  0  0  0  0  0  0  0  0
   -5.6901   -2.9655   16.2319 O   0  0  0  0  0  0  0  0  0  0  0  0
   -3.6472   -4.3852   16.3265 H   0  0  0  0  0  0  0  0  0  0  0  0
   -1.7844   -2.4347   15.6018 H   0  0  0  0  0  0  0  0  0  0  0  0
   -2.9390   -0.8088   18.6426 H   0  0  0  0  0  0  0  0  0  0  0  0
   -6.9907   -3.6253   18.1726 C   0  0  0  0  0  0  0  0  0  0  0  0
   -7.1781   -2.3973   18.8814 O   0  0  0  0  0  0  0  0  0  0  0  0
   -6.4889   -2.3060   19.5578 H   0  0  0  0  0  0  0  0  0  0  0  0
 28 29  1  0  0  0
 28 33  1  0  0  0
 28 26  1  0  0  0
 29 30  1  0  0  0
 29 34  1  0  0  0
 30 31  1  0  0  0
 30 35  1  0  0  0
 31 32  1  0  0  0
 31 36  1  0  0  0
 32 40  1  0  0  0
 32 33  2  0  0  0
 40 41  1  0  0  0
 15 16  1  0  0  0
 15 23  1  0  0  0
 15 14  1  0  0  0
 16 17  1  0  0  0
 16 21  1  0  0  0
 17 18  1  0  0  0
 17 22  1  0  0  0
 18 19  1  0  0  0
 18 26  1  0  0  0
 19 20  1  0  0  0
 19 23  1  0  0  0
  1  2  1  0  0  0
  1  8  1  0  0  0
  1 43  1  0  0  0
  2  3  1  0  0  0
  2  6  1  0  0  0
  3  4  1  0  0  0
  3  7  1  0  0  0
  4  5  1  0  0  0
  4 14  1  0  0  0
  5 11  1  0  0  0
  5  8  1  0  0  0
 11 12  1  0  0  0
 44 45  1  0  0  0
 44 49  1  0  0  0
 44 52  1  0  0  0
 45 46  1  0  0  0
 45 50  1  0  0  0
 46 47  1  0  0  0
 46 51  1  0  0  0
 47 48  1  0  0  0
 47 43  1  0  0  0
 48 56  1  0  0  0
 48 52  1  0  0  0
 56 57  1  0  0  0
 34 37  1  0  0  0
 35 38  1  0  0  0
 36 39  1  0  0  0
 41 42  1  0  0  0
 26 27  1  0  0  0
 21 24  1  0  0  0
 22 25  1  0  0  0
  6  9  1  0  0  0
  7 10  1  0  0  0
 12 13  1  0  0  0
 49 53  1  0  0  0
 50 54  1  0  0  0
 51 55  1  0  0  0
 57 58  1  0  0  0
M  END
> <minimizedAffinity>
-11.55939

$$$$
3JZJ_ACR_A_405


 58 61  0  0  0  0  0  0  0  0999 V2000
   -7.2041  -11.4174   21.9687 C   0  0  0  0  0  0  0  0  0  0  0  0
   -8.1146  -10.2557   22.3074 C   0  0  0  0  0  0  0  0  0  0  0  0
   -7.5297   -8.9401   21.7813 C   0  0  0  0  0  0  0  0  0  0  0  0
   -6.1518   -8.7519   22.3870 C   0  0  0  0  0  0  0  0  0  0  0  0
   -5.3015   -9.9684   22.0452 C   0  0  0  0  0  0  0  0  0  0  0  0
   -9.4046  -10.5250   21.7617 O   0  0  0  0  0  0  0  0  0  0  0  0
   -8.3919   -7.9019   22.2083 O   0  0  0  0  0  0  0  0  0  0  0  0
   -5.9216  -11.1810   22.4951 O   0  0  0  0  0  0  0  0  0  0  0  0
   -9.3341  -10.6255   20.7995 H   0  0  0  0  0  0  0  0  0  0  0  0
   -8.4586   -7.9145   23.1759 H   0  0  0  0  0  0  0  0  0  0  0  0
   -3.9367   -9.8961   22.7252 C   0  0  0  0  0  0  0  0  0  0  0  0
   -3.0529  -10.9286   22.1971 O   0  0  0  0  0  0  0  0  0  0  0  0
   -3.4392  -11.8022   22.3658 H   0  0  0  0  0  0  0  0  0  0  0  0
   -5.6343   -7.5493   21.8338 O   0  0  0  0  0  0  0  0  0  0  0  0
   -5.2669   -6.4573   22.7443 C   0  0  0  0  0  0  0  0  0  0  0  0
   -6.2415   -5.2993   22.5939 C   0  0  0  0  0  0  0  0  0  0  0  0
   -6.2492   -4.9049   21.1224 C   0  0  0  0  0  0  0  0  0  0  0  0
   -4.8682   -4.3801   20.7542 C   0  0  0  0  0  0  0  0  0  0  0  0
   -3.8016   -5.4175   21.1252 C   0  0  0  0  0  0  0  0  0  0  0  0
   -2.3947   -4.7928   21.1279 C   0  0  0  0  0  0  0  0  0  0  0  0
   -7.5453   -5.6362   23.0618 O   0  0  0  0  0  0  0  0  0  0  0  0
   -7.1971   -3.8581   20.8201 O   0  0  0  0  0  0  0  0  0  0  0  0
   -3.9715   -5.8987   22.4677 O   0  0  0  0  0  0  0  0  0  0  0  0
   -7.8883   -6.3863   22.5512 H   0  0  0  0  0  0  0  0  0  0  0  0
   -6.9630   -3.0572   21.3147 H   0  0  0  0  0  0  0  0  0  0  0  0
   -4.7718   -4.0994   19.3149 N   0  0  0  0  0  0  0  0  0  0  0  0
   -3.8304   -4.3650   19.0259 H   0  0  0  0  0  0  0  0  0  0  0  0
   -5.0031   -2.7217   18.8075 C   0  0  0  0  0  0  0  0  0  0  0  0
   -5.8615   -2.7842   17.5566 C   0  0  0  0  0  0  0  0  0  0  0  0
   -5.0189   -3.3529   16.4001 C   0  0  0  0  0  0  0  0  0  0  0  0
   -3.8318   -2.4124   16.1060 C   0  0  0  0  0  0  0  0  0  0  0  0
   -3.1588   -1.8768   17.3411 C   0  0  0  0  0  0  0  0  0  0  0  0
   -3.7392   -1.9487   18.5439 C   0  0  0  0  0  0  0  0  0  0  0  0
   -7.0161   -3.6256   17.7534 O   0  0  0  0  0  0  0  0  0  0  0  0
   -5.8059   -3.6154   15.2148 O   0  0  0  0  0  0  0  0  0  0  0  0
   -2.8820   -3.1173   15.2705 O   0  0  0  0  0  0  0  0  0  0  0  0
   -6.7269   -4.5280   17.9606 H   0  0  0  0  0  0  0  0  0  0  0  0
   -6.1826   -2.7842   14.8861 H   0  0  0  0  0  0  0  0  0  0  0  0
   -2.5446   -3.8918   15.7471 H   0  0  0  0  0  0  0  0  0  0  0  0
   -1.7963   -1.2465   17.1427 C   0  0  0  0  0  0  0  0  0  0  0  0
   -1.5248   -0.8000   15.7972 O   0  0  0  0  0  0  0  0  0  0  0  0
   -1.5318   -1.5614   15.1963 H   0  0  0  0  0  0  0  0  0  0  0  0
   -7.1173  -11.5378   20.5433 O   0  0  0  0  0  0  0  0  0  0  0  0
   -7.4715  -14.4500   17.6003 C   0  0  0  0  0  0  0  0  0  0  0  0
   -8.7615  -13.8763   18.1345 C   0  0  0  0  0  0  0  0  0  0  0  0
   -8.5183  -12.5745   18.8714 C   0  0  0  0  0  0  0  0  0  0  0  0
   -7.5290  -12.8289   19.9999 C   0  0  0  0  0  0  0  0  0  0  0  0
   -6.2673  -13.5360   19.5339 C   0  0  0  0  0  0  0  0  0  0  0  0
   -6.9030  -13.4655   16.7837 O   0  0  0  0  0  0  0  0  0  0  0  0
   -9.7363  -13.6655   17.0906 O   0  0  0  0  0  0  0  0  0  0  0  0
   -9.7583  -12.1134   19.4134 O   0  0  0  0  0  0  0  0  0  0  0  0
   -6.5658  -14.7073   18.7041 O   0  0  0  0  0  0  0  0  0  0  0  0
   -6.7587  -12.6588   17.3026 H   0  0  0  0  0  0  0  0  0  0  0  0
   -9.3976  -13.0116   16.4592 H   0  0  0  0  0  0  0  0  0  0  0  0
  -10.1167  -12.7834   20.0164 H   0  0  0  0  0  0  0  0  0  0  0  0
   -5.3553  -13.9901   20.6822 C   0  0  0  0  0  0  0  0  0  0  0  0
   -4.2884  -13.0387   20.7284 O   0  0  0  0  0  0  0  0  0  0  0  0
   -3.8323  -13.0227   19.8724 H   0  0  0  0  0  0  0  0  0  0  0  0
 28 29  1  0  0  0
 28 33  1  0  0  0
 28 26  1  0  0  0
 29 30  1  0  0  0
 29 34  1  0  0  0
 30 31  1  0  0  0
 30 35  1  0  0  0
 31 32  1  0  0  0
 31 36  1  0  0  0
 32 40  1  0  0  0
 32 33  2  0  0  0
 40 41  1  0  0  0
 15 16  1  0  0  0
 15 23  1  0  0  0
 15 14  1  0  0  0
 16 17  1  0  0  0
 16 21  1  0  0  0
 17 18  1  0  0  0
 17 22  1  0  0  0
 18 19  1  0  0  0
 18 26  1  0  0  0
 19 20  1  0  0  0
 19 23  1  0  0  0
  1  2  1  0  0  0
  1  8  1  0  0  0
  1 43  1  0  0  0
  2  3  1  0  0  0
  2  6  1  0  0  0
  3  4  1  0  0  0
  3  7  1  0  0  0
  4  5  1  0  0  0
  4 14  1  0  0  0
  5 11  1  0  0  0
  5  8  1  0  0  0
 11 12  1  0  0  0
 44 45  1  0  0  0
 44 49  1  0  0  0
 44 52  1  0  0  0
 45 46  1  0  0  0
 45 50  1  0  0  0
 46 47  1  0  0  0
 46 51  1  0  0  0
 47 48  1  0  0  0
 47 43  1  0  0  0
 48 56  1  0  0  0
 48 52  1  0  0  0
 56 57  1  0  0  0
 34 37  1  0  0  0
 35 38  1  0  0  0
 36 39  1  0  0  0
 41 42  1  0  0  0
 26 27  1  0  0  0
 21 24  1  0  0  0
 22 25  1  0  0  0
  6  9  1  0  0  0
  7 10  1  0  0  0
 12 13  1  0  0  0
 49 53  1  0  0  0
 50 54  1  0  0  0
 51 55  1  0  0  0
 57 58  1  0  0  0
M  END
> <minimizedAffinity>
-11.41614

$$$$
3JZJ_ACR_A_405


 58 61  0  0  0  0  0  0  0  0999 V2000
   -7.2251  -11.3321   22.2198 C   0  0  0  0  0  0  0  0  0  0  0  0
   -8.1729  -10.1513   22.1897 C   0  0  0  0  0  0  0  0  0  0  0  0
   -7.4662   -8.9056   21.6435 C   0  0  0  0  0  0  0  0  0  0  0  0
   -6.2591   -8.6179   22.5160 C   0  0  0  0  0  0  0  0  0  0  0  0
   -5.3700   -9.8543   22.5366 C   0  0  0  0  0  0  0  0  0  0  0  0
   -9.3091  -10.5102   21.4055 O   0  0  0  0  0  0  0  0  0  0  0  0
   -8.3886   -7.8351   21.7256 O   0  0  0  0  0  0  0  0  0  0  0  0
   -6.0923  -11.0085   22.9878 O   0  0  0  0  0  0  0  0  0  0  0  0
   -9.0235  -10.7332   20.5057 H   0  0  0  0  0  0  0  0  0  0  0  0
   -8.6732   -7.7234   22.6461 H   0  0  0  0  0  0  0  0  0  0  0  0
   -4.1941   -9.6723   23.4928 C   0  0  0  0  0  0  0  0  0  0  0  0
   -3.0792  -10.5219   23.0914 O   0  0  0  0  0  0  0  0  0  0  0  0
   -3.3568  -11.4510   23.1124 H   0  0  0  0  0  0  0  0  0  0  0  0
   -5.6135   -7.4888   21.9431 O   0  0  0  0  0  0  0  0  0  0  0  0
   -5.2921   -6.3476   22.8096 C   0  0  0  0  0  0  0  0  0  0  0  0
   -6.3140   -5.2379   22.6152 C   0  0  0  0  0  0  0  0  0  0  0  0
   -6.3376   -4.9021   21.1294 C   0  0  0  0  0  0  0  0  0  0  0  0
   -4.9795   -4.3353   20.7391 C   0  0  0  0  0  0  0  0  0  0  0  0
   -3.8709   -5.3120   21.1491 C   0  0  0  0  0  0  0  0  0  0  0  0
   -2.4912   -4.6298   21.1254 C   0  0  0  0  0  0  0  0  0  0  0  0
   -7.6028   -5.6102   23.0977 O   0  0  0  0  0  0  0  0  0  0  0  0
   -7.3282   -3.9084   20.7876 O   0  0  0  0  0  0  0  0  0  0  0  0
   -4.0210   -5.7468   22.5097 O   0  0  0  0  0  0  0  0  0  0  0  0
   -7.9141   -6.3933   22.6173 H   0  0  0  0  0  0  0  0  0  0  0  0
   -7.1278   -3.0796   21.2501 H   0  0  0  0  0  0  0  0  0  0  0  0
   -4.8944   -4.1074   19.2898 N   0  0  0  0  0  0  0  0  0  0  0  0
   -3.9584   -4.3925   19.0017 H   0  0  0  0  0  0  0  0  0  0  0  0
   -5.1176   -2.7466   18.7353 C   0  0  0  0  0  0  0  0  0  0  0  0
   -5.9297   -2.8518   17.4566 C   0  0  0  0  0  0  0  0  0  0  0  0
   -5.0416   -3.4459   16.3478 C   0  0  0  0  0  0  0  0  0  0  0  0
   -3.8518   -2.5039   16.0698 C   0  0  0  0  0  0  0  0  0  0  0  0
   -3.2279   -1.9279   17.3124 C   0  0  0  0  0  0  0  0  0  0  0  0
   -3.8508   -1.9707   18.4952 C   0  0  0  0  0  0  0  0  0  0  0  0
   -7.0843   -3.6971   17.6359 O   0  0  0  0  0  0  0  0  0  0  0  0
   -5.7833   -3.7485   15.1430 O   0  0  0  0  0  0  0  0  0  0  0  0
   -2.8672   -3.2241   15.2894 O   0  0  0  0  0  0  0  0  0  0  0  0
   -6.7961   -4.5908   17.8790 H   0  0  0  0  0  0  0  0  0  0  0  0
   -6.1541   -2.9301   14.7774 H   0  0  0  0  0  0  0  0  0  0  0  0
   -2.5414   -3.9819   15.7998 H   0  0  0  0  0  0  0  0  0  0  0  0
   -1.8639   -1.2919   17.1451 C   0  0  0  0  0  0  0  0  0  0  0  0
   -1.5469   -0.8822   15.7979 O   0  0  0  0  0  0  0  0  0  0  0  0
   -1.5262   -1.6607   15.2196 H   0  0  0  0  0  0  0  0  0  0  0  0
   -6.8189  -11.6346   20.8792 O   0  0  0  0  0  0  0  0  0  0  0  0
   -8.8489  -15.2561   20.7018 C   0  0  0  0  0  0  0  0  0  0  0  0
   -7.4737  -15.2882   21.3234 C   0  0  0  0  0  0  0  0  0  0  0  0
   -7.0126  -13.8959   21.7051 C   0  0  0  0  0  0  0  0  0  0  0  0
   -7.0259  -13.0182   20.4616 C   0  0  0  0  0  0  0  0  0  0  0  0
   -8.3506  -13.0632   19.7185 C   0  0  0  0  0  0  0  0  0  0  0  0
   -9.6954  -14.6436   21.6332 O   0  0  0  0  0  0  0  0  0  0  0  0
   -7.4202  -16.1491   22.4811 O   0  0  0  0  0  0  0  0  0  0  0  0
   -5.6823  -13.9769   22.2226 O   0  0  0  0  0  0  0  0  0  0  0  0
   -8.8171  -14.4367   19.5050 O   0  0  0  0  0  0  0  0  0  0  0  0
   -9.3636  -13.7550   21.8362 H   0  0  0  0  0  0  0  0  0  0  0  0
   -8.0126  -15.8048   23.1677 H   0  0  0  0  0  0  0  0  0  0  0  0
   -5.0960  -14.3564   21.5494 H   0  0  0  0  0  0  0  0  0  0  0  0
   -8.3169  -12.3580   18.3553 C   0  0  0  0  0  0  0  0  0  0  0  0
   -8.5839  -10.9793   18.6262 O   0  0  0  0  0  0  0  0  0  0  0  0
   -9.4432  -10.8972   19.0686 H   0  0  0  0  0  0  0  0  0  0  0  0
 28 29  1  0  0  0
 28 33  1  0  0  0
 28 26  1  0  0  0
 29 30  1  0  0  0
 29 34  1  0  0  0
 30 31  1  0  0  0
 30 35  1  0  0  0
 31 32  1  0  0  0
 31 36  1  0  0  0
 32 40  1  0  0  0
 32 33  2  0  0  0
 40 41  1  0  0  0
 15 16  1  0  0  0
 15 23  1  0  0  0
 15 14  1  0  0  0
 16 17  1  0  0  0
 16 21  1  0  0  0
 17 18  1  0  0  0
 17 22  1  0  0  0
 18 19  1  0  0  0
 18 26  1  0  0  0
 19 20  1  0  0  0
 19 23  1  0  0  0
  1  2  1  0  0  0
  1  8  1  0  0  0
  1 43  1  0  0  0
  2  3  1  0  0  0
  2  6  1  0  0  0
  3  4  1  0  0  0
  3  7  1  0  0  0
  4  5  1  0  0  0
  4 14  1  0  0  0
  5 11  1  0  0  0
  5  8  1  0  0  0
 11 12  1  0  0  0
 44 45  1  0  0  0
 44 49  1  0  0  0
 44 52  1  0  0  0
 45 46  1  0  0  0
 45 50  1  0  0  0
 46 47  1  0  0  0
 46 51  1  0  0  0
 47 48  1  0  0  0
 47 43  1  0  0  0
 48 56  1  0  0  0
 48 52  1  0  0  0
 56 57  1  0  0  0
 34 37  1  0  0  0
 35 38  1  0  0  0
 36 39  1  0  0  0
 41 42  1  0  0  0
 26 27  1  0  0  0
 21 24  1  0  0  0
 22 25  1  0  0  0
  6  9  1  0  0  0
  7 10  1  0  0  0
 12 13  1  0  0  0
 49 53  1  0  0  0
 50 54  1  0  0  0
 51 55  1  0  0  0
 57 58  1  0  0  0
M  END
> <minimizedAffinity>
-10.95590

$$$$
3JZJ_ACR_A_405


 58 61  0  0  0  0  0  0  0  0999 V2000
   -5.2374   -7.3163   23.8656 C   0  0  0  0  0  0  0  0  0  0  0  0
   -4.3491   -8.4819   24.2470 C   0  0  0  0  0  0  0  0  0  0  0  0
   -4.4519   -9.6023   23.2060 C   0  0  0  0  0  0  0  0  0  0  0  0
   -5.9037  -10.0297   23.1034 C   0  0  0  0  0  0  0  0  0  0  0  0
   -6.7456   -8.8081   22.7587 C   0  0  0  0  0  0  0  0  0  0  0  0
   -3.0138   -7.9997   24.3854 O   0  0  0  0  0  0  0  0  0  0  0  0
   -3.6625  -10.6794   23.6754 O   0  0  0  0  0  0  0  0  0  0  0  0
   -6.5638   -7.7609   23.7219 O   0  0  0  0  0  0  0  0  0  0  0  0
   -2.7198   -7.6160   23.5445 H   0  0  0  0  0  0  0  0  0  0  0  0
   -3.9811  -10.9573   24.5484 H   0  0  0  0  0  0  0  0  0  0  0  0
   -8.2340   -9.1469   22.7559 C   0  0  0  0  0  0  0  0  0  0  0  0
   -8.9575   -8.2410   21.8717 O   0  0  0  0  0  0  0  0  0  0  0  0
   -8.8462   -7.3288   22.1820 H   0  0  0  0  0  0  0  0  0  0  0  0
   -5.9541  -11.0312   22.0962 O   0  0  0  0  0  0  0  0  0  0  0  0
   -5.8811  -12.4407   22.5015 C   0  0  0  0  0  0  0  0  0  0  0  0
   -5.6690  -13.3260   21.2830 C   0  0  0  0  0  0  0  0  0  0  0  0
   -6.7935  -13.0195   20.3020 C   0  0  0  0  0  0  0  0  0  0  0  0
   -8.1148  -13.4347   20.9342 C   0  0  0  0  0  0  0  0  0  0  0  0
   -8.2700  -12.7628   22.3038 C   0  0  0  0  0  0  0  0  0  0  0  0
   -9.3808  -13.4349   23.1308 C   0  0  0  0  0  0  0  0  0  0  0  0
   -4.3837  -13.1290   20.6987 O   0  0  0  0  0  0  0  0  0  0  0  0
   -6.6723  -13.7400   19.0563 O   0  0  0  0  0  0  0  0  0  0  0  0
   -7.0920  -12.9201   23.1102 O   0  0  0  0  0  0  0  0  0  0  0  0
   -4.2944  -12.2047   20.4181 H   0  0  0  0  0  0  0  0  0  0  0  0
   -6.7149  -14.6936   19.2288 H   0  0  0  0  0  0  0  0  0  0  0  0
   -9.2536  -13.0497   20.0888 N   0  0  0  0  0  0  0  0  0  0  0  0
   -8.8655  -12.7186   19.2056 H   0  0  0  0  0  0  0  0  0  0  0  0
  -10.2086  -12.0101   20.5538 C   0  0  0  0  0  0  0  0  0  0  0  0
  -11.6245  -12.4395   20.2127 C   0  0  0  0  0  0  0  0  0  0  0  0
  -11.8292  -12.3237   18.6910 C   0  0  0  0  0  0  0  0  0  0  0  0
  -11.6680  -10.8535   18.2519 C   0  0  0  0  0  0  0  0  0  0  0  0
  -10.5217  -10.1412   18.9182 C   0  0  0  0  0  0  0  0  0  0  0  0
   -9.9268  -10.6359   20.0091 C   0  0  0  0  0  0  0  0  0  0  0  0
  -11.8719  -13.8016   20.6168 O   0  0  0  0  0  0  0  0  0  0  0  0
  -13.0907  -12.8819   18.2550 O   0  0  0  0  0  0  0  0  0  0  0  0
  -11.5258  -10.8163   16.8113 O   0  0  0  0  0  0  0  0  0  0  0  0
  -11.2614  -14.3933   20.1498 H   0  0  0  0  0  0  0  0  0  0  0  0
  -13.8203  -12.3875   18.6603 H   0  0  0  0  0  0  0  0  0  0  0  0
  -10.7255  -11.2996   16.5528 H   0  0  0  0  0  0  0  0  0  0  0  0
  -10.0885   -8.8334   18.2898 C   0  0  0  0  0  0  0  0  0  0  0  0
   -9.9934   -7.7224   19.2064 O   0  0  0  0  0  0  0  0  0  0  0  0
  -10.8688   -7.5358   19.5802 H   0  0  0  0  0  0  0  0  0  0  0  0
   -4.7811   -6.7741   22.6200 O   0  0  0  0  0  0  0  0  0  0  0  0
   -3.8513   -3.1043   20.9065 C   0  0  0  0  0  0  0  0  0  0  0  0
   -3.2132   -3.4017   22.2418 C   0  0  0  0  0  0  0  0  0  0  0  0
   -3.2827   -4.8807   22.5648 C   0  0  0  0  0  0  0  0  0  0  0  0
   -4.7411   -5.3162   22.5512 C   0  0  0  0  0  0  0  0  0  0  0  0
   -5.4684   -4.9127   21.2795 C   0  0  0  0  0  0  0  0  0  0  0  0
   -3.1885   -3.8951   19.9607 O   0  0  0  0  0  0  0  0  0  0  0  0
   -1.8402   -2.9588   22.2989 O   0  0  0  0  0  0  0  0  0  0  0  0
   -2.7287   -5.0947   23.8653 O   0  0  0  0  0  0  0  0  0  0  0  0
   -5.2456   -3.5039   20.9399 O   0  0  0  0  0  0  0  0  0  0  0  0
   -3.2703   -4.8299   20.2065 H   0  0  0  0  0  0  0  0  0  0  0  0
   -1.3165   -3.4435   21.6419 H   0  0  0  0  0  0  0  0  0  0  0  0
   -3.2287   -4.5805   24.5183 H   0  0  0  0  0  0  0  0  0  0  0  0
   -6.9837   -5.1521   21.3336 C   0  0  0  0  0  0  0  0  0  0  0  0
   -7.3309   -5.1220   22.7207 O   0  0  0  0  0  0  0  0  0  0  0  0
   -6.8275   -5.8023   23.1948 H   0  0  0  0  0  0  0  0  0  0  0  0
 28 29  1  0  0  0
 28 33  1  0  0  0
 28 26  1  0  0  0
 29 30  1  0  0  0
 29 34  1  0  0  0
 30 31  1  0  0  0
 30 35  1  0  0  0
 31 32  1  0  0  0
 31 36  1  0  0  0
 32 40  1  0  0  0
 32 33  2  0  0  0
 40 41  1  0  0  0
 15 16  1  0  0  0
 15 23  1  0  0  0
 15 14  1  0  0  0
 16 17  1  0  0  0
 16 21  1  0  0  0
 17 18  1  0  0  0
 17 22  1  0  0  0
 18 19  1  0  0  0
 18 26  1  0  0  0
 19 20  1  0  0  0
 19 23  1  0  0  0
  1  2  1  0  0  0
  1  8  1  0  0  0
  1 43  1  0  0  0
  2  3  1  0  0  0
  2  6  1  0  0  0
  3  4  1  0  0  0
  3  7  1  0  0  0
  4  5  1  0  0  0
  4 14  1  0  0  0
  5 11  1  0  0  0
  5  8  1  0  0  0
 11 12  1  0  0  0
 44 45  1  0  0  0
 44 49  1  0  0  0
 44 52  1  0  0  0
 45 46  1  0  0  0
 45 50  1  0  0  0
 46 47  1  0  0  0
 46 51  1  0  0  0
 47 48  1  0  0  0
 47 43  1  0  0  0
 48 56  1  0  0  0
 48 52  1  0  0  0
 56 57  1  0  0  0
 34 37  1  0  0  0
 35 38  1  0  0  0
 36 39  1  0  0  0
 41 42  1  0  0  0
 26 27  1  0  0  0
 21 24  1  0  0  0
 22 25  1  0  0  0
  6  9  1  0  0  0
  7 10  1  0  0  0
 12 13  1  0  0  0
 49 53  1  0  0  0
 50 54  1  0  0  0
 51 55  1  0  0  0
 57 58  1  0  0  0
M  END
> <minimizedAffinity>
-10.88919

$$$$
3JZJ_ACR_A_405


 58 61  0  0  0  0  0  0  0  0999 V2000
   -6.8134   -2.5817   14.9391 C   0  0  0  0  0  0  0  0  0  0  0  0
   -5.3486   -2.3707   15.2602 C   0  0  0  0  0  0  0  0  0  0  0  0
   -4.9574   -3.1395   16.5273 C   0  0  0  0  0  0  0  0  0  0  0  0
   -5.8418   -2.6686   17.6661 C   0  0  0  0  0  0  0  0  0  0  0  0
   -7.2972   -2.8697   17.2648 C   0  0  0  0  0  0  0  0  0  0  0  0
   -4.5803   -2.7758   14.1287 O   0  0  0  0  0  0  0  0  0  0  0  0
   -3.6051   -2.8252   16.8031 O   0  0  0  0  0  0  0  0  0  0  0  0
   -7.5986   -2.1900   16.0381 O   0  0  0  0  0  0  0  0  0  0  0  0
   -4.7502   -3.7121   13.9409 H   0  0  0  0  0  0  0  0  0  0  0  0
   -3.5116   -1.8657   16.9107 H   0  0  0  0  0  0  0  0  0  0  0  0
   -8.2437   -2.3062   18.3216 C   0  0  0  0  0  0  0  0  0  0  0  0
   -8.5198   -3.3112   19.3412 O   0  0  0  0  0  0  0  0  0  0  0  0
   -8.9374   -4.0837   18.9291 H   0  0  0  0  0  0  0  0  0  0  0  0
   -5.4751   -3.4413   18.8012 O   0  0  0  0  0  0  0  0  0  0  0  0
   -5.1675   -2.7446   20.0567 C   0  0  0  0  0  0  0  0  0  0  0  0
   -3.7691   -3.1107   20.5301 C   0  0  0  0  0  0  0  0  0  0  0  0
   -3.7111   -4.6296   20.6325 C   0  0  0  0  0  0  0  0  0  0  0  0
   -4.6835   -5.0798   21.7140 C   0  0  0  0  0  0  0  0  0  0  0  0
   -6.0807   -4.5185   21.4238 C   0  0  0  0  0  0  0  0  0  0  0  0
   -6.9904   -4.6224   22.6612 C   0  0  0  0  0  0  0  0  0  0  0  0
   -2.7615   -2.5964   19.6626 O   0  0  0  0  0  0  0  0  0  0  0  0
   -2.4053   -5.1244   21.0008 O   0  0  0  0  0  0  0  0  0  0  0  0
   -6.0402   -3.1115   21.1385 O   0  0  0  0  0  0  0  0  0  0  0  0
   -2.8832   -2.9626   18.7727 H   0  0  0  0  0  0  0  0  0  0  0  0
   -2.1659   -4.7838   21.8770 H   0  0  0  0  0  0  0  0  0  0  0  0
   -4.7684   -6.5456   21.7768 N   0  0  0  0  0  0  0  0  0  0  0  0
   -5.1629   -6.8556   20.8888 H   0  0  0  0  0  0  0  0  0  0  0  0
   -5.5611   -7.2006   22.8499 C   0  0  0  0  0  0  0  0  0  0  0  0
   -4.6176   -7.8449   23.8499 C   0  0  0  0  0  0  0  0  0  0  0  0
   -3.9744   -9.0853   23.2029 C   0  0  0  0  0  0  0  0  0  0  0  0
   -5.0655  -10.1196   22.8563 C   0  0  0  0  0  0  0  0  0  0  0  0
   -6.3104   -9.5159   22.2637 C   0  0  0  0  0  0  0  0  0  0  0  0
   -6.5609   -8.2046   22.3431 C   0  0  0  0  0  0  0  0  0  0  0  0
   -3.5757   -6.9325   24.2522 O   0  0  0  0  0  0  0  0  0  0  0  0
   -2.9270   -9.6591   24.0196 O   0  0  0  0  0  0  0  0  0  0  0  0
   -4.4976  -11.1048   21.9597 O   0  0  0  0  0  0  0  0  0  0  0  0
   -3.0546   -6.6743   23.4758 H   0  0  0  0  0  0  0  0  0  0  0  0
   -3.3024   -9.9621   24.8611 H   0  0  0  0  0  0  0  0  0  0  0  0
   -4.2184  -10.6714   21.1380 H   0  0  0  0  0  0  0  0  0  0  0  0
   -7.2629  -10.4763   21.5830 C   0  0  0  0  0  0  0  0  0  0  0  0
   -7.3945  -11.7601   22.2295 O   0  0  0  0  0  0  0  0  0  0  0  0
   -6.5387  -12.2164   22.2194 H   0  0  0  0  0  0  0  0  0  0  0  0
   -7.0333   -3.9721   14.6704 O   0  0  0  0  0  0  0  0  0  0  0  0
  -10.3350   -3.0620   12.3170 C   0  0  0  0  0  0  0  0  0  0  0  0
  -10.5469   -4.0923   13.3996 C   0  0  0  0  0  0  0  0  0  0  0  0
   -9.4353   -4.0422   14.4286 C   0  0  0  0  0  0  0  0  0  0  0  0
   -8.1051   -4.2626   13.7224 C   0  0  0  0  0  0  0  0  0  0  0  0
   -7.9057   -3.3394   12.5320 C   0  0  0  0  0  0  0  0  0  0  0  0
  -10.2475   -1.8203   12.9572 O   0  0  0  0  0  0  0  0  0  0  0  0
  -11.8220   -3.9348   14.0581 O   0  0  0  0  0  0  0  0  0  0  0  0
   -9.6486   -5.0806   15.3880 O   0  0  0  0  0  0  0  0  0  0  0  0
   -9.0745   -3.3204   11.6469 O   0  0  0  0  0  0  0  0  0  0  0  0
   -9.5179   -1.8366   13.5962 H   0  0  0  0  0  0  0  0  0  0  0  0
  -11.8517   -3.0735   14.5034 H   0  0  0  0  0  0  0  0  0  0  0  0
   -9.6567   -5.9399   14.9380 H   0  0  0  0  0  0  0  0  0  0  0  0
   -6.6749   -3.6858   11.6826 C   0  0  0  0  0  0  0  0  0  0  0  0
   -6.0828   -4.8281   12.3072 O   0  0  0  0  0  0  0  0  0  0  0  0
   -5.8552   -4.6130   13.2253 H   0  0  0  0  0  0  0  0  0  0  0  0
 28 29  1  0  0  0
 28 33  1  0  0  0
 28 26  1  0  0  0
 29 30  1  0  0  0
 29 34  1  0  0  0
 30 31  1  0  0  0
 30 35  1  0  0  0
 31 32  1  0  0  0
 31 36  1  0  0  0
 32 40  1  0  0  0
 32 33  2  0  0  0
 40 41  1  0  0  0
 15 16  1  0  0  0
 15 23  1  0  0  0
 15 14  1  0  0  0
 16 17  1  0  0  0
 16 21  1  0  0  0
 17 18  1  0  0  0
 17 22  1  0  0  0
 18 19  1  0  0  0
 18 26  1  0  0  0
 19 20  1  0  0  0
 19 23  1  0  0  0
  1  2  1  0  0  0
  1  8  1  0  0  0
  1 43  1  0  0  0
  2  3  1  0  0  0
  2  6  1  0  0  0
  3  4  1  0  0  0
  3  7  1  0  0  0
  4  5  1  0  0  0
  4 14  1  0  0  0
  5 11  1  0  0  0
  5  8  1  0  0  0
 11 12  1  0  0  0
 44 45  1  0  0  0
 44 49  1  0  0  0
 44 52  1  0  0  0
 45 46  1  0  0  0
 45 50  1  0  0  0
 46 47  1  0  0  0
 46 51  1  0  0  0
 47 48  1  0  0  0
 47 43  1  0  0  0
 48 56  1  0  0  0
 48 52  1  0  0  0
 56 57  1  0  0  0
 34 37  1  0  0  0
 35 38  1  0  0  0
 36 39  1  0  0  0
 41 42  1  0  0  0
 26 27  1  0  0  0
 21 24  1  0  0  0
 22 25  1  0  0  0
  6  9  1  0  0  0
  7 10  1  0  0  0
 12 13  1  0  0  0
 49 53  1  0  0  0
 50 54  1  0  0  0
 51 55  1  0  0  0
 57 58  1  0  0  0
M  END
> <minimizedAffinity>
-10.84675

$$$$
3JZJ_ACR_A_405


 58 61  0  0  0  0  0  0  0  0999 V2000
   -7.9740   -2.9704   15.5289 C   0  0  0  0  0  0  0  0  0  0  0  0
   -6.4839   -2.7150   15.4412 C   0  0  0  0  0  0  0  0  0  0  0  0
   -5.7509   -3.3902   16.6058 C   0  0  0  0  0  0  0  0  0  0  0  0
   -6.3231   -2.8577   17.9057 C   0  0  0  0  0  0  0  0  0  0  0  0
   -7.8254   -3.1085   17.9131 C   0  0  0  0  0  0  0  0  0  0  0  0
   -6.0240   -3.1831   14.1747 O   0  0  0  0  0  0  0  0  0  0  0  0
   -4.3846   -3.0365   16.4978 O   0  0  0  0  0  0  0  0  0  0  0  0
   -8.4582   -2.5180   16.7693 O   0  0  0  0  0  0  0  0  0  0  0  0
   -6.2060   -4.1326   14.0954 H   0  0  0  0  0  0  0  0  0  0  0  0
   -4.2981   -2.0706   16.5184 H   0  0  0  0  0  0  0  0  0  0  0  0
   -8.4819   -2.4902   19.1447 C   0  0  0  0  0  0  0  0  0  0  0  0
   -8.8097   -3.5259   20.1172 O   0  0  0  0  0  0  0  0  0  0  0  0
   -9.4278   -4.1590   19.7194 H   0  0  0  0  0  0  0  0  0  0  0  0
   -5.6480   -3.5461   18.9499 O   0  0  0  0  0  0  0  0  0  0  0  0
   -5.2003   -2.7823   20.1215 C   0  0  0  0  0  0  0  0  0  0  0  0
   -3.7534   -3.1207   20.4459 C   0  0  0  0  0  0  0  0  0  0  0  0
   -3.6724   -4.6318   20.6219 C   0  0  0  0  0  0  0  0  0  0  0  0
   -4.5077   -5.0240   21.8329 C   0  0  0  0  0  0  0  0  0  0  0  0
   -5.9334   -4.4809   21.6794 C   0  0  0  0  0  0  0  0  0  0  0  0
   -6.6908   -4.5188   23.0190 C   0  0  0  0  0  0  0  0  0  0  0  0
   -2.8584   -2.6529   19.4397 O   0  0  0  0  0  0  0  0  0  0  0  0
   -2.3288   -5.1045   20.8601 O   0  0  0  0  0  0  0  0  0  0  0  0
   -5.9373   -3.0913   21.3165 O   0  0  0  0  0  0  0  0  0  0  0  0
   -3.0811   -3.0668   18.5912 H   0  0  0  0  0  0  0  0  0  0  0  0
   -1.9907   -4.7169   21.6825 H   0  0  0  0  0  0  0  0  0  0  0  0
   -4.5737   -6.4844   21.9835 N   0  0  0  0  0  0  0  0  0  0  0  0
   -4.9560   -6.8530   21.1127 H   0  0  0  0  0  0  0  0  0  0  0  0
   -5.3673   -7.0843   23.0878 C   0  0  0  0  0  0  0  0  0  0  0  0
   -4.4324   -7.7958   24.0498 C   0  0  0  0  0  0  0  0  0  0  0  0
   -3.9046   -9.0770   23.3783 C   0  0  0  0  0  0  0  0  0  0  0  0
   -5.0789  -10.0310   23.0760 C   0  0  0  0  0  0  0  0  0  0  0  0
   -6.3007   -9.3398   22.5332 C   0  0  0  0  0  0  0  0  0  0  0  0
   -6.4547   -8.0142   22.6218 C   0  0  0  0  0  0  0  0  0  0  0  0
   -3.3136   -6.9600   24.4096 O   0  0  0  0  0  0  0  0  0  0  0  0
   -2.8686   -9.7250   24.1529 O   0  0  0  0  0  0  0  0  0  0  0  0
   -4.6180  -11.0518   22.1581 O   0  0  0  0  0  0  0  0  0  0  0  0
   -2.8069   -6.7374   23.6130 H   0  0  0  0  0  0  0  0  0  0  0  0
   -3.2307  -10.0027   25.0089 H   0  0  0  0  0  0  0  0  0  0  0  0
   -4.3419  -10.6373   21.3257 H   0  0  0  0  0  0  0  0  0  0  0  0
   -7.3449  -10.2291   21.8916 C   0  0  0  0  0  0  0  0  0  0  0  0
   -7.4810  -11.5348   22.4916 O   0  0  0  0  0  0  0  0  0  0  0  0
   -6.6492  -12.0241   22.3931 H   0  0  0  0  0  0  0  0  0  0  0  0
   -8.2103   -4.3791   15.4124 O   0  0  0  0  0  0  0  0  0  0  0  0
  -10.5477   -6.8566   13.0319 C   0  0  0  0  0  0  0  0  0  0  0  0
  -10.1765   -5.5169   12.4436 C   0  0  0  0  0  0  0  0  0  0  0  0
   -9.0189   -4.8906   13.1948 C   0  0  0  0  0  0  0  0  0  0  0  0
   -9.4052   -4.7514   14.6605 C   0  0  0  0  0  0  0  0  0  0  0  0
   -9.9218   -6.0473   15.2630 C   0  0  0  0  0  0  0  0  0  0  0  0
   -9.3913   -7.6444   12.9958 O   0  0  0  0  0  0  0  0  0  0  0  0
   -9.8475   -5.6115   11.0410 O   0  0  0  0  0  0  0  0  0  0  0  0
   -8.7560   -3.5987   12.6418 O   0  0  0  0  0  0  0  0  0  0  0  0
  -10.9383   -6.6817   14.4182 O   0  0  0  0  0  0  0  0  0  0  0  0
   -8.6858   -7.2062   13.4970 H   0  0  0  0  0  0  0  0  0  0  0  0
   -9.0658   -6.1749   10.9296 H   0  0  0  0  0  0  0  0  0  0  0  0
   -9.5497   -3.0464   12.7188 H   0  0  0  0  0  0  0  0  0  0  0  0
  -10.5131   -5.8803   16.6698 C   0  0  0  0  0  0  0  0  0  0  0  0
  -10.8306   -4.4913   16.7936 O   0  0  0  0  0  0  0  0  0  0  0  0
  -10.0281   -3.9630   16.6601 H   0  0  0  0  0  0  0  0  0  0  0  0
 28 29  1  0  0  0
 28 33  1  0  0  0
 28 26  1  0  0  0
 29 30  1  0  0  0
 29 34  1  0  0  0
 30 31  1  0  0  0
 30 35  1  0  0  0
 31 32  1  0  0  0
 31 36  1  0  0  0
 32 40  1  0  0  0
 32 33  2  0  0  0
 40 41  1  0  0  0
 15 16  1  0  0  0
 15 23  1  0  0  0
 15 14  1  0  0  0
 16 17  1  0  0  0
 16 21  1  0  0  0
 17 18  1  0  0  0
 17 22  1  0  0  0
 18 19  1  0  0  0
 18 26  1  0  0  0
 19 20  1  0  0  0
 19 23  1  0  0  0
  1  2  1  0  0  0
  1  8  1  0  0  0
  1 43  1  0  0  0
  2  3  1  0  0  0
  2  6  1  0  0  0
  3  4  1  0  0  0
  3  7  1  0  0  0
  4  5  1  0  0  0
  4 14  1  0  0  0
  5 11  1  0  0  0
  5  8  1  0  0  0
 11 12  1  0  0  0
 44 45  1  0  0  0
 44 49  1  0  0  0
 44 52  1  0  0  0
 45 46  1  0  0  0
 45 50  1  0  0  0
 46 47  1  0  0  0
 46 51  1  0  0  0
 47 48  1  0  0  0
 47 43  1  0  0  0
 48 56  1  0  0  0
 48 52  1  0  0  0
 56 57  1  0  0  0
 34 37  1  0  0  0
 35 38  1  0  0  0
 36 39  1  0  0  0
 41 42  1  0  0  0
 26 27  1  0  0  0
 21 24  1  0  0  0
 22 25  1  0  0  0
  6  9  1  0  0  0
  7 10  1  0  0  0
 12 13  1  0  0  0
 49 53  1  0  0  0
 50 54  1  0  0  0
 51 55  1  0  0  0
 57 58  1  0  0  0
M  END
> <minimizedAffinity>
-10.44189

$$$$
