4LLJ_1XN_A_900
  RCSB PDB12061713353D
Coordinates from PDB:4LLJ:A:900 Model:1 without hydrogens
 11 12  0  0  0  0            999 V2000
    3.4930   13.9410   40.7790   N 0  0  0  0  0  0  0  0  0  0  0  0
    3.6800   13.7560   42.0320   C 0  0  0  0  0  0  0  0  0  0  0  0
    3.2710   14.6080   42.9980   N 0  0  0  0  0  0  0  0  0  0  0  0
    3.6110   14.1420   44.2220   C 0  0  0  0  0  0  0  0  0  0  0  0
    3.3500   14.7300   45.3390   N 0  0  0  0  0  0  0  0  0  0  0  0
    4.2700   12.9280   44.0380   C 0  0  0  0  0  0  0  0  0  0  0  0
    4.8240   12.0310   44.9560   C 0  0  0  0  0  0  0  0  0  0  0  0
    5.4250   10.8870   44.4220   C 0  0  0  0  0  0  0  0  0  0  0  0
    5.4620   10.6520   43.0450   C 0  0  0  0  0  0  0  0  0  0  0  0
    4.9110   11.5430   42.1270   C 0  0  0  0  0  0  0  0  0  0  0  0
    4.3130   12.6850   42.6540   C 0  0  0  0  0  0  0  0  0  0  0  0
  1  2  1  0  0  0  0
  2 11  2  0  0  0  0
  2  3  1  0  0  0  0
 10 11  1  0  0  0  0
 10  9  2  0  0  0  0
 11  6  1  0  0  0  0
  3  4  1  0  0  0  0
  9  8  1  0  0  0  0
  6  4  2  0  0  0  0
  6  7  1  0  0  0  0
  4  5  1  0  0  0  0
  8  7  2  0  0  0  0
A    1
N1
A    2
C2
A    3
N3
A    4
C4
A    5
N5
A    6
C6
A    7
C7
A    8
C8
A    9
C9
A   10
C10
A   11
C11
M  END
>  <InstanceId>
4LLJ_1XN_A_900

>  <ChemCompId>
1XN

>  <PdbId>
4LLJ

>  <ChainId>
A

>  <ResidueNumber>
900

>  <InsertionCode>


>  <Model>
1

>  <AltIds>


>  <MissingHeavyAtoms>
0

>  <ObservedFormula>
C8 N3

>  <Name>
2H-isoindole-1,3-diamine

>  <SystematicName>
2H-isoindole-1,3-diamine

>  <Synonyms>


>  <Type>
NON-POLYMER

>  <Formula>
C8 H9 N3

>  <MolecularWeight>
147.177

>  <ModifiedDate>
2014-02-21

>  <Parent>


>  <OneLetterCode>


>  <SubcomponentList>


>  <AmbiguousFlag>
N

>  <InChI>
InChI=1S/C8H9N3/c9-7-5-3-1-2-4-6(5)8(10)11-7/h1-4,11H,9-10H2

>  <InChIKey>
DPDSFQSSCBFWBA-UHFFFAOYSA-N

>  <SMILES>
c1ccc2c(c1)c([nH]c2N)N

$$$$
