4LLJ_1XN_A_900


 16 17  0  0  0  0  0  0  0  0999 V2000
    3.8712   12.5026   47.9301 N   0  0  0  0  0  0  0  0  0  0  0  0
    4.4943   12.3033   46.8295 C   0  0  0  0  0  0  0  0  0  0  0  0
    5.5048   11.4193   46.6747 N   0  0  0  0  0  0  0  0  0  0  0  0
    5.9610   11.4328   45.4008 C   0  0  0  0  0  0  0  0  0  0  0  0
    6.9143   10.6941   44.9459 N   0  0  0  0  0  0  0  0  0  0  0  0
    5.2066   12.3698   44.6974 C   0  0  0  0  0  0  0  0  0  0  0  0
    5.2548   12.7769   43.3609 C   0  0  0  0  0  0  0  0  0  0  0  0
    4.3378   13.7602   42.9771 C   0  0  0  0  0  0  0  0  0  0  0  0
    3.4190   14.2999   43.8811 C   0  0  0  0  0  0  0  0  0  0  0  0
    3.3674   13.8970   45.2134 C   0  0  0  0  0  0  0  0  0  0  0  0
    4.2802   12.9192   45.6010 C   0  0  0  0  0  0  0  0  0  0  0  0
    3.1431   13.1640   47.9707 H   0  0  0  0  0  0  0  0  0  0  0  0
    4.1202   11.9945   48.7357 H   0  0  0  0  0  0  0  0  0  0  0  0
    5.8602   10.8444   47.3905 H   0  0  0  0  0  0  0  0  0  0  0  0
    7.3771   10.0639   45.5442 H   0  0  0  0  0  0  0  0  0  0  0  0
    7.1796   10.7600   44.0001 H   0  0  0  0  0  0  0  0  0  0  0  0
  1  2  1  0  0  0
  2 11  2  0  0  0
  2  3  1  0  0  0
 10 11  1  0  0  0
 10  9  2  0  0  0
 11  6  1  0  0  0
  3  4  1  0  0  0
  9  8  1  0  0  0
  6  4  2  0  0  0
  6  7  1  0  0  0
  4  5  1  0  0  0
  8  7  2  0  0  0
  1 12  1  0  0  0
  1 13  1  0  0  0
  3 14  1  0  0  0
  5 15  1  0  0  0
  5 16  1  0  0  0
M  END
> <minimizedAffinity>
-6.79003

$$$$
4LLJ_1XN_A_900


 16 17  0  0  0  0  0  0  0  0999 V2000
    6.8624   10.8417   44.8042 N   0  0  0  0  0  0  0  0  0  0  0  0
    5.9096   11.5470   45.2879 C   0  0  0  0  0  0  0  0  0  0  0  0
    5.4929   11.4876   46.5721 N   0  0  0  0  0  0  0  0  0  0  0  0
    4.4720   12.3500   46.7840 C   0  0  0  0  0  0  0  0  0  0  0  0
    3.8699   12.5252   47.9102 N   0  0  0  0  0  0  0  0  0  0  0  0
    4.2181   13.0004   45.5780 C   0  0  0  0  0  0  0  0  0  0  0  0
    3.2815   13.9811   45.2385 C   0  0  0  0  0  0  0  0  0  0  0  0
    3.2963   14.4218   43.9116 C   0  0  0  0  0  0  0  0  0  0  0  0
    4.2043   13.9129   42.9792 C   0  0  0  0  0  0  0  0  0  0  0  0
    5.1392   12.9360   43.3134 C   0  0  0  0  0  0  0  0  0  0  0  0
    5.1270   12.4923   44.6334 C   0  0  0  0  0  0  0  0  0  0  0  0
    7.1135   10.9369   43.8571 H   0  0  0  0  0  0  0  0  0  0  0  0
    7.3440   10.2041   45.3794 H   0  0  0  0  0  0  0  0  0  0  0  0
    5.8792   10.8977   47.2593 H   0  0  0  0  0  0  0  0  0  0  0  0
    4.1402   12.0025   48.6995 H   0  0  0  0  0  0  0  0  0  0  0  0
    3.1397   13.1818   47.9811 H   0  0  0  0  0  0  0  0  0  0  0  0
  1  2  1  0  0  0
  2 11  2  0  0  0
  2  3  1  0  0  0
 10 11  1  0  0  0
 10  9  2  0  0  0
 11  6  1  0  0  0
  3  4  1  0  0  0
  9  8  1  0  0  0
  6  4  2  0  0  0
  6  7  1  0  0  0
  4  5  1  0  0  0
  8  7  2  0  0  0
  1 12  1  0  0  0
  1 13  1  0  0  0
  3 14  1  0  0  0
  5 15  1  0  0  0
  5 16  1  0  0  0
M  END
> <minimizedAffinity>
-6.76168

$$$$
4LLJ_1XN_A_900


 16 17  0  0  0  0  0  0  0  0999 V2000
    3.2737   14.3866   45.7064 N   0  0  0  0  0  0  0  0  0  0  0  0
    3.5354   14.0508   44.4989 C   0  0  0  0  0  0  0  0  0  0  0  0
    3.2103   14.7889   43.4146 N   0  0  0  0  0  0  0  0  0  0  0  0
    3.6178   14.1759   42.2791 C   0  0  0  0  0  0  0  0  0  0  0  0
    3.4571   14.6388   41.0869 N   0  0  0  0  0  0  0  0  0  0  0  0
    4.2388   12.9843   42.6481 C   0  0  0  0  0  0  0  0  0  0  0  0
    4.8374   11.9803   41.8813 C   0  0  0  0  0  0  0  0  0  0  0  0
    5.3733   10.8971   42.5845 C   0  0  0  0  0  0  0  0  0  0  0  0
    5.3185   10.8279   43.9791 C   0  0  0  0  0  0  0  0  0  0  0  0
    4.7233   11.8261   44.7469 C   0  0  0  0  0  0  0  0  0  0  0  0
    4.1863   12.9062   44.0508 C   0  0  0  0  0  0  0  0  0  0  0  0
    3.5406   13.7989   46.4497 H   0  0  0  0  0  0  0  0  0  0  0  0
    2.8056   15.2327   45.8915 H   0  0  0  0  0  0  0  0  0  0  0  0
    2.7414   15.6539   43.4464 H   0  0  0  0  0  0  0  0  0  0  0  0
    2.9986   15.4993   40.9506 H   0  0  0  0  0  0  0  0  0  0  0  0
    3.7928   14.1319   40.3126 H   0  0  0  0  0  0  0  0  0  0  0  0
  1  2  1  0  0  0
  2 11  2  0  0  0
  2  3  1  0  0  0
 10 11  1  0  0  0
 10  9  2  0  0  0
 11  6  1  0  0  0
  3  4  1  0  0  0
  9  8  1  0  0  0
  6  4  2  0  0  0
  6  7  1  0  0  0
  4  5  1  0  0  0
  8  7  2  0  0  0
  1 12  1  0  0  0
  1 13  1  0  0  0
  3 14  1  0  0  0
  5 15  1  0  0  0
  5 16  1  0  0  0
M  END
> <minimizedAffinity>
-6.43986

$$$$
4LLJ_1XN_A_900


 16 17  0  0  0  0  0  0  0  0999 V2000
    3.4841   14.6102   41.0335 N   0  0  0  0  0  0  0  0  0  0  0  0
    3.6682   14.1566   42.2165 C   0  0  0  0  0  0  0  0  0  0  0  0
    3.2822   14.7915   43.3453 N   0  0  0  0  0  0  0  0  0  0  0  0
    3.6121   14.0660   44.4388 C   0  0  0  0  0  0  0  0  0  0  0  0
    3.3677   14.4072   45.6575 N   0  0  0  0  0  0  0  0  0  0  0  0
    4.2400   12.9039   43.9946 C   0  0  0  0  0  0  0  0  0  0  0  0
    4.7725   11.8179   44.6955 C   0  0  0  0  0  0  0  0  0  0  0  0
    5.3437   10.8006   43.9248 C   0  0  0  0  0  0  0  0  0  0  0  0
    5.3728   10.8652   42.5292 C   0  0  0  0  0  0  0  0  0  0  0  0
    4.8431   11.9453   41.8270 C   0  0  0  0  0  0  0  0  0  0  0  0
    4.2749   12.9621   42.5904 C   0  0  0  0  0  0  0  0  0  0  0  0
    3.7920   14.0929   40.2545 H   0  0  0  0  0  0  0  0  0  0  0  0
    3.0346   15.4763   40.9028 H   0  0  0  0  0  0  0  0  0  0  0  0
    2.8239   15.6625   43.3688 H   0  0  0  0  0  0  0  0  0  0  0  0
    2.9144   15.2600   45.8485 H   0  0  0  0  0  0  0  0  0  0  0  0
    3.6343   13.8151   46.3975 H   0  0  0  0  0  0  0  0  0  0  0  0
  1  2  1  0  0  0
  2 11  2  0  0  0
  2  3  1  0  0  0
 10 11  1  0  0  0
 10  9  2  0  0  0
 11  6  1  0  0  0
  3  4  1  0  0  0
  9  8  1  0  0  0
  6  4  2  0  0  0
  6  7  1  0  0  0
  4  5  1  0  0  0
  8  7  2  0  0  0
  1 12  1  0  0  0
  1 13  1  0  0  0
  3 14  1  0  0  0
  5 15  1  0  0  0
  5 16  1  0  0  0
M  END
> <minimizedAffinity>
-6.42062

$$$$
4LLJ_1XN_A_900


 16 17  0  0  0  0  0  0  0  0999 V2000
    2.9455   15.0710   46.0007 N   0  0  0  0  0  0  0  0  0  0  0  0
    3.5983   13.9703   45.9618 C   0  0  0  0  0  0  0  0  0  0  0  0
    3.9818   13.2722   47.0535 N   0  0  0  0  0  0  0  0  0  0  0  0
    4.6527   12.1533   46.6944 C   0  0  0  0  0  0  0  0  0  0  0  0
    5.1365   11.2830   47.5128 N   0  0  0  0  0  0  0  0  0  0  0  0
    4.7030   12.1259   45.3020 C   0  0  0  0  0  0  0  0  0  0  0  0
    5.2676   11.2020   44.4176 C   0  0  0  0  0  0  0  0  0  0  0  0
    5.1371   11.4863   43.0548 C   0  0  0  0  0  0  0  0  0  0  0  0
    4.4714   12.6292   42.6038 C   0  0  0  0  0  0  0  0  0  0  0  0
    3.9073   13.5520   43.4816 C   0  0  0  0  0  0  0  0  0  0  0  0
    4.0365   13.2742   44.8401 C   0  0  0  0  0  0  0  0  0  0  0  0
    2.6985   15.5267   45.1637 H   0  0  0  0  0  0  0  0  0  0  0  0
    2.6905   15.4617   46.8676 H   0  0  0  0  0  0  0  0  0  0  0  0
    3.7982   13.5408   47.9827 H   0  0  0  0  0  0  0  0  0  0  0  0
    5.0377   11.4121   48.4838 H   0  0  0  0  0  0  0  0  0  0  0  0
    5.6049   10.4891   47.1670 H   0  0  0  0  0  0  0  0  0  0  0  0
  1  2  1  0  0  0
  2 11  2  0  0  0
  2  3  1  0  0  0
 10 11  1  0  0  0
 10  9  2  0  0  0
 11  6  1  0  0  0
  3  4  1  0  0  0
  9  8  1  0  0  0
  6  4  2  0  0  0
  6  7  1  0  0  0
  4  5  1  0  0  0
  8  7  2  0  0  0
  1 12  1  0  0  0
  1 13  1  0  0  0
  3 14  1  0  0  0
  5 15  1  0  0  0
  5 16  1  0  0  0
M  END
> <minimizedAffinity>
-6.33224

$$$$
4LLJ_1XN_A_900


 16 17  0  0  0  0  0  0  0  0999 V2000
    4.9422   12.0082   47.2645 N   0  0  0  0  0  0  0  0  0  0  0  0
    5.0571   11.9451   45.9909 C   0  0  0  0  0  0  0  0  0  0  0  0
    5.7992   11.0242   45.3369 N   0  0  0  0  0  0  0  0  0  0  0  0
    5.7233   11.2115   43.9990 C   0  0  0  0  0  0  0  0  0  0  0  0
    6.3167   10.4870   43.1132 N   0  0  0  0  0  0  0  0  0  0  0  0
    4.8893   12.3057   43.7774 C   0  0  0  0  0  0  0  0  0  0  0  0
    4.4703   12.9213   42.5943 C   0  0  0  0  0  0  0  0  0  0  0  0
    3.6181   14.0210   42.7339 C   0  0  0  0  0  0  0  0  0  0  0  0
    3.2033   14.4736   43.9892 C   0  0  0  0  0  0  0  0  0  0  0  0
    3.6182   13.8629   45.1704 C   0  0  0  0  0  0  0  0  0  0  0  0
    4.4688   12.7684   45.0366 C   0  0  0  0  0  0  0  0  0  0  0  0
    4.3832   12.7074   47.6743 H   0  0  0  0  0  0  0  0  0  0  0  0
    5.4129   11.3576   47.8340 H   0  0  0  0  0  0  0  0  0  0  0  0
    6.3231   10.3145   45.7740 H   0  0  0  0  0  0  0  0  0  0  0  0
    6.8855    9.7341   43.3937 H   0  0  0  0  0  0  0  0  0  0  0  0
    6.2010   10.6866   42.1561 H   0  0  0  0  0  0  0  0  0  0  0  0
  1  2  1  0  0  0
  2 11  2  0  0  0
  2  3  1  0  0  0
 10 11  1  0  0  0
 10  9  2  0  0  0
 11  6  1  0  0  0
  3  4  1  0  0  0
  9  8  1  0  0  0
  6  4  2  0  0  0
  6  7  1  0  0  0
  4  5  1  0  0  0
  8  7  2  0  0  0
  1 12  1  0  0  0
  1 13  1  0  0  0
  3 14  1  0  0  0
  5 15  1  0  0  0
  5 16  1  0  0  0
M  END
> <minimizedAffinity>
-6.27297

$$$$
4LLJ_1XN_A_900


 16 17  0  0  0  0  0  0  0  0999 V2000
    5.3038   10.9378   41.0448 N   0  0  0  0  0  0  0  0  0  0  0  0
    4.7163   12.0202   41.3948 C   0  0  0  0  0  0  0  0  0  0  0  0
    4.2215   12.9333   40.5301 N   0  0  0  0  0  0  0  0  0  0  0  0
    3.6585   13.9674   41.1968 C   0  0  0  0  0  0  0  0  0  0  0  0
    3.0963   14.9880   40.6456 N   0  0  0  0  0  0  0  0  0  0  0  0
    3.7941   13.7087   42.5594 C   0  0  0  0  0  0  0  0  0  0  0  0
    3.3908   14.4387   43.6813 C   0  0  0  0  0  0  0  0  0  0  0  0
    3.6931   13.8810   44.9273 C   0  0  0  0  0  0  0  0  0  0  0  0
    4.3562   12.6563   45.0420 C   0  0  0  0  0  0  0  0  0  0  0  0
    4.7596   11.9257   43.9268 C   0  0  0  0  0  0  0  0  0  0  0  0
    4.4625   12.4781   42.6834 C   0  0  0  0  0  0  0  0  0  0  0  0
    5.6404   10.3165   41.7303 H   0  0  0  0  0  0  0  0  0  0  0  0
    5.4190   10.7268   40.0901 H   0  0  0  0  0  0  0  0  0  0  0  0
    4.2647   12.8565   39.5495 H   0  0  0  0  0  0  0  0  0  0  0  0
    3.0616   15.0607   39.6644 H   0  0  0  0  0  0  0  0  0  0  0  0
    2.7015   15.6948   41.2058 H   0  0  0  0  0  0  0  0  0  0  0  0
  1  2  1  0  0  0
  2 11  2  0  0  0
  2  3  1  0  0  0
 10 11  1  0  0  0
 10  9  2  0  0  0
 11  6  1  0  0  0
  3  4  1  0  0  0
  9  8  1  0  0  0
  6  4  2  0  0  0
  6  7  1  0  0  0
  4  5  1  0  0  0
  8  7  2  0  0  0
  1 12  1  0  0  0
  1 13  1  0  0  0
  3 14  1  0  0  0
  5 15  1  0  0  0
  5 16  1  0  0  0
M  END
> <minimizedAffinity>
-6.23002

$$$$
4LLJ_1XN_A_900


 16 17  0  0  0  0  0  0  0  0999 V2000
    5.5722   10.7444   42.6167 N   0  0  0  0  0  0  0  0  0  0  0  0
    4.9369   11.8550   42.6619 C   0  0  0  0  0  0  0  0  0  0  0  0
    4.6443   12.6107   41.5804 N   0  0  0  0  0  0  0  0  0  0  0  0
    3.9663   13.7238   41.9440 C   0  0  0  0  0  0  0  0  0  0  0  0
    3.5435   14.6332   41.1341 N   0  0  0  0  0  0  0  0  0  0  0  0
    3.8110   13.6843   43.3282 C   0  0  0  0  0  0  0  0  0  0  0  0
    3.1904   14.5716   44.2123 C   0  0  0  0  0  0  0  0  0  0  0  0
    3.2190   14.2223   45.5659 C   0  0  0  0  0  0  0  0  0  0  0  0
    3.8294   13.0454   46.0075 C   0  0  0  0  0  0  0  0  0  0  0  0
    4.4487   12.1584   45.1300 C   0  0  0  0  0  0  0  0  0  0  0  0
    4.4245   12.5031   43.7809 C   0  0  0  0  0  0  0  0  0  0  0  0
    5.7508   10.2454   43.4464 H   0  0  0  0  0  0  0  0  0  0  0  0
    5.8820   10.3893   41.7524 H   0  0  0  0  0  0  0  0  0  0  0  0
    4.8907   12.3826   40.6549 H   0  0  0  0  0  0  0  0  0  0  0  0
    3.7156   14.5508   40.1683 H   0  0  0  0  0  0  0  0  0  0  0  0
    3.0485   15.4101   41.4814 H   0  0  0  0  0  0  0  0  0  0  0  0
  1  2  1  0  0  0
  2 11  2  0  0  0
  2  3  1  0  0  0
 10 11  1  0  0  0
 10  9  2  0  0  0
 11  6  1  0  0  0
  3  4  1  0  0  0
  9  8  1  0  0  0
  6  4  2  0  0  0
  6  7  1  0  0  0
  4  5  1  0  0  0
  8  7  2  0  0  0
  1 12  1  0  0  0
  1 13  1  0  0  0
  3 14  1  0  0  0
  5 15  1  0  0  0
  5 16  1  0  0  0
M  END
> <minimizedAffinity>
-6.22543

$$$$
4LLJ_1XN_A_900


 16 17  0  0  0  0  0  0  0  0999 V2000
    5.3943   11.0463   47.5330 N   0  0  0  0  0  0  0  0  0  0  0  0
    6.1761   10.4240   46.7325 C   0  0  0  0  0  0  0  0  0  0  0  0
    6.8996    9.3329   47.0677 N   0  0  0  0  0  0  0  0  0  0  0  0
    7.6277    8.8994   46.0128 C   0  0  0  0  0  0  0  0  0  0  0  0
    8.4103    7.8752   46.0217 N   0  0  0  0  0  0  0  0  0  0  0  0
    7.3597    9.7508   44.9427 C   0  0  0  0  0  0  0  0  0  0  0  0
    7.8358    9.7581   43.6283 C   0  0  0  0  0  0  0  0  0  0  0  0
    7.3545   10.7754   42.7985 C   0  0  0  0  0  0  0  0  0  0  0  0
    6.4414   11.7277   43.2588 C   0  0  0  0  0  0  0  0  0  0  0  0
    5.9643   11.7239   44.5675 C   0  0  0  0  0  0  0  0  0  0  0  0
    6.4424   10.7137   45.3984 C   0  0  0  0  0  0  0  0  0  0  0  0
    4.8967   11.8361   47.2203 H   0  0  0  0  0  0  0  0  0  0  0  0
    5.2908   10.7350   48.4612 H   0  0  0  0  0  0  0  0  0  0  0  0
    6.8972    8.9113   47.9573 H   0  0  0  0  0  0  0  0  0  0  0  0
    8.5197    7.3464   46.8449 H   0  0  0  0  0  0  0  0  0  0  0  0
    8.8987    7.6217   45.2053 H   0  0  0  0  0  0  0  0  0  0  0  0
  1  2  1  0  0  0
  2 11  2  0  0  0
  2  3  1  0  0  0
 10 11  1  0  0  0
 10  9  2  0  0  0
 11  6  1  0  0  0
  3  4  1  0  0  0
  9  8  1  0  0  0
  6  4  2  0  0  0
  6  7  1  0  0  0
  4  5  1  0  0  0
  8  7  2  0  0  0
  1 12  1  0  0  0
  1 13  1  0  0  0
  3 14  1  0  0  0
  5 15  1  0  0  0
  5 16  1  0  0  0
M  END
> <minimizedAffinity>
-6.18850

$$$$
4LLJ_1XN_A_900


 16 17  0  0  0  0  0  0  0  0999 V2000
    6.9342    9.2762   47.1295 N   0  0  0  0  0  0  0  0  0  0  0  0
    7.0189    9.8364   45.9813 C   0  0  0  0  0  0  0  0  0  0  0  0
    7.9230    9.5014   45.0343 N   0  0  0  0  0  0  0  0  0  0  0  0
    7.7649   10.2673   43.9300 C   0  0  0  0  0  0  0  0  0  0  0  0
    8.4735   10.1778   42.8570 N   0  0  0  0  0  0  0  0  0  0  0  0
    6.7051   11.1384   44.1746 C   0  0  0  0  0  0  0  0  0  0  0  0
    6.1237   12.1298   43.3788 C   0  0  0  0  0  0  0  0  0  0  0  0
    5.0565   12.8344   43.9443 C   0  0  0  0  0  0  0  0  0  0  0  0
    4.5935   12.5555   45.2330 C   0  0  0  0  0  0  0  0  0  0  0  0
    5.1698   11.5684   46.0291 C   0  0  0  0  0  0  0  0  0  0  0  0
    6.2344   10.8652   45.4709 C   0  0  0  0  0  0  0  0  0  0  0  0
    6.2493    9.5718   47.7720 H   0  0  0  0  0  0  0  0  0  0  0  0
    7.5539    8.5500   47.3698 H   0  0  0  0  0  0  0  0  0  0  0  0
    8.6033    8.7968   45.1342 H   0  0  0  0  0  0  0  0  0  0  0  0
    9.2020    9.5179   42.8017 H   0  0  0  0  0  0  0  0  0  0  0  0
    8.2862   10.7694   42.0926 H   0  0  0  0  0  0  0  0  0  0  0  0
  1  2  1  0  0  0
  2 11  2  0  0  0
  2  3  1  0  0  0
 10 11  1  0  0  0
 10  9  2  0  0  0
 11  6  1  0  0  0
  3  4  1  0  0  0
  9  8  1  0  0  0
  6  4  2  0  0  0
  6  7  1  0  0  0
  4  5  1  0  0  0
  8  7  2  0  0  0
  1 12  1  0  0  0
  1 13  1  0  0  0
  3 14  1  0  0  0
  5 15  1  0  0  0
  5 16  1  0  0  0
M  END
> <minimizedAffinity>
-6.15112

$$$$
