5HWU_DUP_B_201
  RCSB PDB12061718043D
Coordinates from PDB:5HWU:B:201 Model:1 without hydrogens
 28 29  0  0  0  0            999 V2000
   18.4440    9.3050  -32.1140   O 0  0  0  0  0  0  0  0  0  0  0  0
   17.4090    9.0140  -31.5910   C 0  0  0  0  0  0  0  0  0  0  0  0
   16.3280    8.6880  -32.3570   C 0  0  0  0  0  0  0  0  0  0  0  0
   15.1370    8.3720  -31.7600   C 0  0  0  0  0  0  0  0  0  0  0  0
   17.2950    9.0170  -30.2740   N 0  0  0  0  0  0  0  0  0  0  0  0
   16.1000    8.7120  -29.6910   C 0  0  0  0  0  0  0  0  0  0  0  0
   15.9550    8.7030  -28.5110   O 0  0  0  0  0  0  0  0  0  0  0  0
   15.0260    8.3890  -30.4360   N 0  0  0  0  0  0  0  0  0  0  0  0
   13.8040    8.0400  -29.7230   C 0  0  0  0  0  0  0  0  0  0  0  0
   13.0770    9.0950  -29.3530   C 0  0  0  0  0  0  0  0  0  0  0  0
   11.5400    8.6450  -29.5570   C 0  0  0  0  0  0  0  0  0  0  0  0
   11.1420    7.8760  -28.4180   O 0  0  0  0  0  0  0  0  0  0  0  0
   12.8720    7.1200  -30.6320   O 0  0  0  0  0  0  0  0  0  0  0  0
   11.5910    7.9210  -30.7310   C 0  0  0  0  0  0  0  0  0  0  0  0
   11.7550    8.8630  -31.9120   C 0  0  0  0  0  0  0  0  0  0  0  0
   12.0950    8.1440  -33.0650   O 0  0  0  0  0  0  0  0  0  0  0  0
   11.3790    8.5810  -34.4860   P 0  0  0  0  0  0  0  0  0  0  0  0
   12.0540    7.8890  -35.6490   O 0  0  0  0  0  0  0  0  0  0  0  0
   11.4110   10.0640  -34.6730   O 0  0  0  0  0  0  0  0  0  0  0  0
    9.7450    8.1700  -34.5210   N 0  0  0  0  0  0  0  0  0  0  0  0
    9.0270    7.0540  -33.4730   P 0  0  0  0  0  0  0  0  0  0  0  0
    9.9150    5.9130  -33.0340   O 0  0  0  0  0  0  0  0  0  0  0  0
    8.5500    7.8080  -32.2510   O 0  0  0  0  0  0  0  0  0  0  0  0
    7.8240    6.4570  -34.4130   O 0  0  0  0  0  0  0  0  0  0  0  0
    6.2170    6.5500  -34.0740   P 0  0  0  0  0  0  0  0  0  0  0  0
    5.4600    5.7910  -35.1290   O 0  0  0  0  0  0  0  0  0  0  0  0
    5.8460    8.0090  -34.1200   O 0  0  0  0  0  0  0  0  0  0  0  0
    6.0710    5.9150  -32.7160   O 0  0  0  0  0  0  0  0  0  0  0  0
  1  2  2  0  0  0  0
  2  3  1  0  0  0  0
  2  5  1  0  0  0  0
  3  4  2  0  0  0  0
  4  8  1  0  0  0  0
  5  6  1  0  0  0  0
  6  7  2  0  0  0  0
  6  8  1  0  0  0  0
  8  9  1  0  0  0  0
  9 10  1  0  0  0  0
  9 13  1  0  0  0  0
 10 11  1  0  0  0  0
 11 12  1  0  0  0  0
 11 14  1  0  0  0  0
 13 14  1  0  0  0  0
 14 15  1  0  0  0  0
 15 16  1  0  0  0  0
 16 17  1  0  0  0  0
 17 18  2  0  0  0  0
 17 19  1  0  0  0  0
 17 20  1  0  0  0  0
 20 21  1  0  0  0  0
 21 22  2  0  0  0  0
 21 23  1  0  0  0  0
 21 24  1  0  0  0  0
 24 25  1  0  0  0  0
 25 26  2  0  0  0  0
 25 27  1  0  0  0  0
 25 28  1  0  0  0  0
A    1
O4
A    2
C4
A    3
C5
A    4
C6
A    5
N3
A    6
C2
A    7
O2
A    8
N1
A    9
C1'
A   10
C2'
A   11
C3'
A   12
O3'
A   13
O4'
A   14
C4'
A   15
C5'
A   16
O5'
A   17
PA
A   18
O1A
A   19
O2A
A   20
N3A
A   21
PB
A   22
O1B
A   23
O2B
A   24
O3B
A   25
PG
A   26
O2G
A   27
O1G
A   28
O3G
M  END
>  <InstanceId>
5HWU_DUP_B_201

>  <ChemCompId>
DUP

>  <PdbId>
5HWU

>  <ChainId>
B

>  <ResidueNumber>
201

>  <InsertionCode>


>  <Model>
1

>  <AltIds>


>  <MissingHeavyAtoms>
0

>  <ObservedFormula>
C9 N3 O13 P3

>  <Name>
2'-DEOXYURIDINE 5'-ALPHA,BETA-IMIDO-TRIPHOSPHATE

>  <SystematicName>
[(2R,3S,5R)-5-(2,4-dioxopyrimidin-1-yl)-3-hydroxy-oxolan-2-yl]methoxy-N-(hydroxy-phosphonooxy-phosphoryl)phosphonamidic acid

>  <Synonyms>


>  <Type>
NON-POLYMER

>  <Formula>
C9 H16 N3 O13 P3

>  <MolecularWeight>
467.157

>  <ModifiedDate>
2011-06-04

>  <Parent>


>  <OneLetterCode>


>  <SubcomponentList>


>  <AmbiguousFlag>
N

>  <InChI>
InChI=1S/C9H16N3O13P3/c13-5-3-8(12-2-1-7(14)10-9(12)15)24-6(5)4-23-26(16,17)11-27(18,19)25-28(20,21)22/h1-2,5-6,8,13H,3-4H2,(H,10,14,15)(H2,20,21,22)(H3,11,16,17,18,19)/t5-,6+,8+/m0/s1

>  <InChIKey>
XZLLMTSKYYYJLH-SHYZEUOFSA-N

>  <SMILES>
C1[C@@H]([C@H](O[C@H]1N2C=CC(=O)NC2=O)CO[P@](=O)(N[P@@](=O)(O)OP(=O)(O)O)O)O

$$$$
