6G14_G4P_B_301
  RCSB PDB11101803483D
Coordinates from PDB:6G14:B:301 Model:1 without hydrogens
 36 38  0  0  0  0            999 V2000
  -48.8800  -38.7890  147.9500   P 0  0  0  0  0  0  0  0  0  0  0  0
  -47.6190  -39.0790  148.8640   O 0  0  0  0  0  0  0  0  0  0  0  0
  -50.1020  -38.6470  148.7540   O 0  0  0  0  0  0  0  0  0  0  0  0
  -49.0970  -39.9230  147.0090   O 0  0  0  0  0  0  0  0  0  0  0  0
  -48.6860  -37.4810  147.0410   O 0  0  0  0  0  0  0  0  0  0  0  0
  -49.2060  -35.9900  147.3100   P 0  0  0  0  0  0  0  0  0  0  0  0
  -50.6880  -35.8220  147.2460   O 0  0  0  0  0  0  0  0  0  0  0  0
  -48.8240  -35.4260  148.6360   O 0  0  0  0  0  0  0  0  0  0  0  0
  -48.5870  -35.1030  146.1350   O 0  0  0  0  0  0  0  0  0  0  0  0
  -47.1650  -34.9630  146.0740   C 0  0  0  0  0  0  0  0  0  0  0  0
  -46.8610  -33.6870  145.3250   C 0  0  0  0  0  0  0  0  0  0  0  0
  -47.3230  -33.7590  143.9500   O 0  0  0  0  0  0  0  0  0  0  0  0
  -47.5770  -32.5330  145.9250   C 0  0  0  0  0  0  0  0  0  0  0  0
  -46.6800  -31.4040  145.8530   O 0  0  0  0  0  0  0  0  0  0  0  0
  -48.7340  -32.2860  145.0350   C 0  0  0  0  0  0  0  0  0  0  0  0
  -49.0960  -30.9110  145.0340   O 0  0  0  0  0  0  0  0  0  0  0  0
  -48.2460  -32.6600  143.6910   C 0  0  0  0  0  0  0  0  0  0  0  0
  -49.2620  -33.0940  142.7920   N 0  0  0  0  0  0  0  0  0  0  0  0
  -50.0770  -33.9620  143.1280   C 0  0  0  0  0  0  0  0  0  0  0  0
  -50.9310  -34.2000  142.0750   N 0  0  0  0  0  0  0  0  0  0  0  0
  -50.4410  -33.2830  140.9990   C 0  0  0  0  0  0  0  0  0  0  0  0
  -50.7480  -32.9420  139.6780   C 0  0  0  0  0  0  0  0  0  0  0  0
  -51.6700  -33.4910  139.0960   O 0  0  0  0  0  0  0  0  0  0  0  0
  -50.0240  -32.0040  139.0360   N 0  0  0  0  0  0  0  0  0  0  0  0
  -48.9960  -31.4000  139.6590   C 0  0  0  0  0  0  0  0  0  0  0  0
  -48.2480  -30.4250  138.9590   N 0  0  0  0  0  0  0  0  0  0  0  0
  -48.6460  -31.6910  140.9070   N 0  0  0  0  0  0  0  0  0  0  0  0
  -49.3100  -32.6020  141.6330   C 0  0  0  0  0  0  0  0  0  0  0  0
  -45.7280  -30.9830  147.0880   P 0  0  0  0  0  0  0  0  0  0  0  0
  -44.3920  -31.6530  147.0580   O 0  0  0  0  0  0  0  0  0  0  0  0
  -46.2750  -31.4140  148.3850   O 0  0  0  0  0  0  0  0  0  0  0  0
  -45.5920  -29.3590  147.0240   O 0  0  0  0  0  0  0  0  0  0  0  0
  -45.8570  -28.5520  145.6460   P 0  0  0  0  0  0  0  0  0  0  0  0
  -47.3980  -28.6680  145.2170   O 0  0  0  0  0  0  0  0  0  0  0  0
  -44.9600  -29.0450  144.5610   O 0  0  0  0  0  0  0  0  0  0  0  0
  -45.4340  -27.1390  145.7720   O 0  0  0  0  0  0  0  0  0  0  0  0
  1  2  2  0  0  0  0
  1  3  1  0  0  0  0
  1  4  1  0  0  0  0
  1  5  1  0  0  0  0
  5  6  1  0  0  0  0
  6  7  2  0  0  0  0
  6  8  1  0  0  0  0
  6  9  1  0  0  0  0
  9 10  1  0  0  0  0
 10 11  1  0  0  0  0
 11 12  1  0  0  0  0
 11 13  1  0  0  0  0
 12 17  1  0  0  0  0
 13 14  1  0  0  0  0
 13 15  1  0  0  0  0
 14 29  1  0  0  0  0
 15 16  1  0  0  0  0
 15 17  1  0  0  0  0
 17 18  1  0  0  0  0
 18 19  1  0  0  0  0
 18 28  1  0  0  0  0
 19 20  2  0  0  0  0
 20 21  1  0  0  0  0
 21 22  1  0  0  0  0
 21 28  2  0  0  0  0
 22 23  2  0  0  0  0
 22 24  1  0  0  0  0
 24 25  1  0  0  0  0
 25 26  1  0  0  0  0
 25 27  2  0  0  0  0
 27 28  1  0  0  0  0
 29 30  2  0  0  0  0
 29 31  1  0  0  0  0
 29 32  1  0  0  0  0
 32 33  1  0  0  0  0
 33 34  2  0  0  0  0
 33 35  1  0  0  0  0
 33 36  1  0  0  0  0
A    1
PB
A    2
O1B
A    3
O2B
A    4
O3B
A    5
O3A
A    6
PA
A    7
O1A
A    8
O2A
A    9
O5'
A   10
C5'
A   11
C4'
A   12
O4'
A   13
C3'
A   14
O3'
A   15
C2'
A   16
O2'
A   17
C1'
A   18
N9
A   19
C8
A   20
N7
A   21
C5
A   22
C6
A   23
O6
A   24
N1
A   25
C2
A   26
N2
A   27
N3
A   28
C4
A   29
PC
A   30
O1C
A   31
O2C
A   32
O3C
A   33
PD
A   34
O1D
A   35
O2D
A   36
O3D
M  END
>  <InstanceId>
6G14_G4P_B_301

>  <ChemCompId>
G4P

>  <PdbId>
6G14

>  <ChainId>
B

>  <ResidueNumber>
301

>  <InsertionCode>


>  <Model>
1

>  <AltIds>


>  <MissingHeavyAtoms>
0

>  <ObservedFormula>
C10 N5 O17 P4

>  <Name>
GUANOSINE-5',3'-TETRAPHOSPHATE

>  <SystematicName>
[(2R,3S,4R,5R)-5-(2-amino-6-oxo-1H-purin-9-yl)-4-hydroxy-3-(hydroxy-phosphonooxy-phosphoryl)oxy-oxolan-2-yl]methyl phosphono hydrogen phosphate

>  <Synonyms>


>  <Type>
RNA LINKING

>  <Formula>
C10 H17 N5 O17 P4

>  <MolecularWeight>
603.16

>  <ModifiedDate>
2011-06-04

>  <Parent>


>  <OneLetterCode>
N

>  <SubcomponentList>


>  <AmbiguousFlag>
N

>  <InChI>
InChI=1S/C10H17N5O17P4/c11-10-13-7-4(8(17)14-10)12-2-15(7)9-5(16)6(30-36(26,27)32-34(21,22)23)3(29-9)1-28-35(24,25)31-33(18,19)20/h2-3,5-6,9,16H,1H2,(H,24,25)(H,26,27)(H2,18,19,20)(H2,21,22,23)(H3,11,13,14,17)/t3-,5-,6-,9-/m1/s1

>  <InChIKey>
BUFLLCUFNHESEH-UUOKFMHZSA-N

>  <SMILES>
c1nc2c(n1[C@H]3[C@@H]([C@@H]([C@H](O3)CO[P@](=O)(O)OP(=O)(O)O)O[P@](=O)(O)OP(=O)(O)O)O)N=C(NC2=O)N

$$$$
