6G14_G4P_B_301


 46 48  0  0  0  0  0  0  0  0999 V2000
  -46.7379  -34.1038  145.7938 C   0  0  0  0  0  0  0  0  0  0  0  0
  -46.7927  -32.8804  145.0131 O   0  0  0  0  0  0  0  0  0  0  0  0
  -47.8901  -34.9201  145.3350 C   0  0  0  0  0  0  0  0  0  0  0  0
  -48.2726  -34.3523  144.0224 C   0  0  0  0  0  0  0  0  0  0  0  0
  -49.6645  -34.5122  143.7804 O   0  0  0  0  0  0  0  0  0  0  0  0
  -47.9639  -32.9121  144.1447 C   0  0  0  0  0  0  0  0  0  0  0  0
  -50.1675  -34.0865  144.4922 H   0  0  0  0  0  0  0  0  0  0  0  0
  -47.6602  -32.2652  142.9126 N   0  0  0  0  0  0  0  0  0  0  0  0
  -46.6364  -31.5812  142.7915 C   0  0  0  0  0  0  0  0  0  0  0  0
  -46.5959  -31.0654  141.5159 N   0  0  0  0  0  0  0  0  0  0  0  0
  -47.8481  -31.5801  140.8789 C   0  0  0  0  0  0  0  0  0  0  0  0
  -48.5203  -31.5067  139.6548 C   0  0  0  0  0  0  0  0  0  0  0  0
  -48.0625  -30.8450  138.7368 O   0  0  0  0  0  0  0  0  0  0  0  0
  -49.6828  -32.1660  139.4811 N   0  0  0  0  0  0  0  0  0  0  0  0
  -50.2073  -32.8880  140.4877 C   0  0  0  0  0  0  0  0  0  0  0  0
  -51.4325  -33.5633  140.2805 N   0  0  0  0  0  0  0  0  0  0  0  0
  -49.6245  -32.9843  141.6775 N   0  0  0  0  0  0  0  0  0  0  0  0
  -48.4611  -32.3741  141.9460 C   0  0  0  0  0  0  0  0  0  0  0  0
  -50.1492  -32.1191  138.6154 H   0  0  0  0  0  0  0  0  0  0  0  0
  -51.8840  -33.5074  139.4074 H   0  0  0  0  0  0  0  0  0  0  0  0
  -51.8340  -34.0895  141.0094 H   0  0  0  0  0  0  0  0  0  0  0  0
  -45.4343  -34.8354  145.5774 C   0  0  0  0  0  0  0  0  0  0  0  0
  -44.8766  -34.3744  144.3438 O   0  0  0  0  0  0  0  0  0  0  0  0
  -43.3384  -33.9451  144.3272 P   0  0  0  0  0  0  0  0  0  0  0  0
  -42.6273  -34.8416  145.2861 O   0  0  0  0  0  0  0  0  0  0  0  0
  -43.1791  -32.5802  144.9051 O   0  0  0  0  0  0  0  0  0  0  0  0
  -42.2421  -32.3300  144.8900 H   0  0  0  0  0  0  0  0  0  0  0  0
  -42.8705  -34.0858  142.8017 O   0  0  0  0  0  0  0  0  0  0  0  0
  -42.9656  -33.0036  141.6208 P   0  0  0  0  0  0  0  0  0  0  0  0
  -42.9791  -31.5166  142.1670 O   0  0  0  0  0  0  0  0  0  0  0  0
  -41.8610  -33.2159  140.6750 O   0  0  0  0  0  0  0  0  0  0  0  0
  -44.2337  -33.2893  140.8937 O   0  0  0  0  0  0  0  0  0  0  0  0
  -41.9170  -32.5624  139.9604 H   0  0  0  0  0  0  0  0  0  0  0  0
  -44.3380  -32.6575  140.1651 H   0  0  0  0  0  0  0  0  0  0  0  0
  -48.9617  -34.6923  146.2753 O   0  0  0  0  0  0  0  0  0  0  0  0
  -49.3987  -35.8015  147.3651 P   0  0  0  0  0  0  0  0  0  0  0  0
  -50.8361  -36.1982  147.2592 O   0  0  0  0  0  0  0  0  0  0  0  0
  -49.3056  -35.2943  148.7440 O   0  0  0  0  0  0  0  0  0  0  0  0
  -49.9055  -34.5398  148.8522 H   0  0  0  0  0  0  0  0  0  0  0  0
  -48.4021  -37.0734  147.1438 O   0  0  0  0  0  0  0  0  0  0  0  0
  -48.7048  -38.5031  147.8401 P   0  0  0  0  0  0  0  0  0  0  0  0
  -47.5605  -38.8601  148.9055 O   0  0  0  0  0  0  0  0  0  0  0  0
  -48.8349  -39.5769  146.8131 O   0  0  0  0  0  0  0  0  0  0  0  0
  -50.0478  -38.5132  148.4627 O   0  0  0  0  0  0  0  0  0  0  0  0
  -47.9985  -39.6650  146.3297 H   0  0  0  0  0  0  0  0  0  0  0  0
  -50.0854  -37.8413  149.1614 H   0  0  0  0  0  0  0  0  0  0  0  0
 29 30  2  0  0  0
 29 31  1  0  0  0
 29 32  1  0  0  0
 29 28  1  0  0  0
 28 24  1  0  0  0
 24 25  2  0  0  0
 24 26  1  0  0  0
 24 23  1  0  0  0
 23 22  1  0  0  0
 22  1  1  0  0  0
  1  2  1  0  0  0
  1  3  1  0  0  0
  2  6  1  0  0  0
  3 35  1  0  0  0
  3  4  1  0  0  0
 35 36  1  0  0  0
  4  5  1  0  0  0
  4  6  1  0  0  0
  6  8  1  0  0  0
  8  9  1  0  0  0
  8 18  1  0  0  0
  9 10  2  0  0  0
 10 11  1  0  0  0
 11 12  1  0  0  0
 11 18  2  0  0  0
 12 13  2  0  0  0
 12 14  1  0  0  0
 14 15  1  0  0  0
 15 16  1  0  0  0
 15 17  2  0  0  0
 17 18  1  0  0  0
 36 37  2  0  0  0
 36 38  1  0  0  0
 36 40  1  0  0  0
 40 41  1  0  0  0
 41 42  2  0  0  0
 41 43  1  0  0  0
 41 44  1  0  0  0
 31 33  1  0  0  0
 32 34  1  0  0  0
 26 27  1  0  0  0
  5  7  1  0  0  0
 14 19  1  0  0  0
 16 20  1  0  0  0
 16 21  1  0  0  0
 38 39  1  0  0  0
 43 45  1  0  0  0
 44 46  1  0  0  0
M  END
> <minimizedAffinity>
-10.09802

$$$$
6G14_G4P_B_301


 46 48  0  0  0  0  0  0  0  0999 V2000
  -47.0631  -33.2933  145.7770 C   0  0  0  0  0  0  0  0  0  0  0  0
  -47.4960  -33.8431  144.5043 O   0  0  0  0  0  0  0  0  0  0  0  0
  -47.1952  -31.8209  145.6395 C   0  0  0  0  0  0  0  0  0  0  0  0
  -48.1124  -31.6164  144.4956 C   0  0  0  0  0  0  0  0  0  0  0  0
  -47.8235  -30.4006  143.8174 O   0  0  0  0  0  0  0  0  0  0  0  0
  -47.8298  -32.7533  143.5945 C   0  0  0  0  0  0  0  0  0  0  0  0
  -46.9021  -30.4105  143.5142 H   0  0  0  0  0  0  0  0  0  0  0  0
  -48.9243  -33.1410  142.7695 N   0  0  0  0  0  0  0  0  0  0  0  0
  -49.7148  -34.0190  143.1366 C   0  0  0  0  0  0  0  0  0  0  0  0
  -50.6596  -34.2047  142.1529 N   0  0  0  0  0  0  0  0  0  0  0  0
  -50.2570  -33.2426  141.0800 C   0  0  0  0  0  0  0  0  0  0  0  0
  -50.6750  -32.8406  139.8075 C   0  0  0  0  0  0  0  0  0  0  0  0
  -51.6493  -33.3580  139.2846 O   0  0  0  0  0  0  0  0  0  0  0  0
  -50.0012  -31.8784  139.1470 N   0  0  0  0  0  0  0  0  0  0  0  0
  -48.9173  -31.3085  139.7038 C   0  0  0  0  0  0  0  0  0  0  0  0
  -48.2243  -30.3068  138.9851 N   0  0  0  0  0  0  0  0  0  0  0  0
  -48.4624  -31.6575  140.9022 N   0  0  0  0  0  0  0  0  0  0  0  0
  -49.0688  -32.5968  141.6422 C   0  0  0  0  0  0  0  0  0  0  0  0
  -50.3030  -31.5918  138.2548 H   0  0  0  0  0  0  0  0  0  0  0  0
  -48.5418  -30.0309  138.0950 H   0  0  0  0  0  0  0  0  0  0  0  0
  -47.4245  -29.8855  139.3749 H   0  0  0  0  0  0  0  0  0  0  0  0
  -47.9110  -33.8101  146.9153 C   0  0  0  0  0  0  0  0  0  0  0  0
  -47.9149  -35.2383  146.8408 O   0  0  0  0  0  0  0  0  0  0  0  0
  -48.8069  -36.0441  147.8923 P   0  0  0  0  0  0  0  0  0  0  0  0
  -50.2045  -36.0420  147.3675 O   0  0  0  0  0  0  0  0  0  0  0  0
  -48.8904  -35.2937  149.1777 O   0  0  0  0  0  0  0  0  0  0  0  0
  -49.4339  -35.7918  149.8081 H   0  0  0  0  0  0  0  0  0  0  0  0
  -48.1330  -37.4929  148.0047 O   0  0  0  0  0  0  0  0  0  0  0  0
  -48.8478  -38.9210  148.1609 P   0  0  0  0  0  0  0  0  0  0  0  0
  -48.0556  -39.8871  149.1349 O   0  0  0  0  0  0  0  0  0  0  0  0
  -50.2332  -38.7261  148.6110 O   0  0  0  0  0  0  0  0  0  0  0  0
  -48.9039  -39.5115  146.7946 O   0  0  0  0  0  0  0  0  0  0  0  0
  -50.6667  -39.5886  148.7059 H   0  0  0  0  0  0  0  0  0  0  0  0
  -49.3305  -40.3817  146.8357 H   0  0  0  0  0  0  0  0  0  0  0  0
  -45.8883  -31.3171  145.2891 O   0  0  0  0  0  0  0  0  0  0  0  0
  -44.6332  -31.4067  146.3018 P   0  0  0  0  0  0  0  0  0  0  0  0
  -45.0384  -31.4708  147.7392 O   0  0  0  0  0  0  0  0  0  0  0  0
  -43.7945  -30.1977  146.2575 O   0  0  0  0  0  0  0  0  0  0  0  0
  -44.3210  -29.4289  146.5271 H   0  0  0  0  0  0  0  0  0  0  0  0
  -43.7811  -32.7233  145.8541 O   0  0  0  0  0  0  0  0  0  0  0  0
  -43.3917  -32.9792  144.3038 P   0  0  0  0  0  0  0  0  0  0  0  0
  -42.0067  -33.7811  144.1997 O   0  0  0  0  0  0  0  0  0  0  0  0
  -43.3232  -31.6916  143.5540 O   0  0  0  0  0  0  0  0  0  0  0  0
  -44.4824  -33.6862  143.5953 O   0  0  0  0  0  0  0  0  0  0  0  0
  -42.6287  -31.1320  143.9353 H   0  0  0  0  0  0  0  0  0  0  0  0
  -44.6220  -34.5556  144.0023 H   0  0  0  0  0  0  0  0  0  0  0  0
 29 30  2  0  0  0
 29 31  1  0  0  0
 29 32  1  0  0  0
 29 28  1  0  0  0
 28 24  1  0  0  0
 24 25  2  0  0  0
 24 26  1  0  0  0
 24 23  1  0  0  0
 23 22  1  0  0  0
 22  1  1  0  0  0
  1  2  1  0  0  0
  1  3  1  0  0  0
  2  6  1  0  0  0
  3 35  1  0  0  0
  3  4  1  0  0  0
 35 36  1  0  0  0
  4  5  1  0  0  0
  4  6  1  0  0  0
  6  8  1  0  0  0
  8  9  1  0  0  0
  8 18  1  0  0  0
  9 10  2  0  0  0
 10 11  1  0  0  0
 11 12  1  0  0  0
 11 18  2  0  0  0
 12 13  2  0  0  0
 12 14  1  0  0  0
 14 15  1  0  0  0
 15 16  1  0  0  0
 15 17  2  0  0  0
 17 18  1  0  0  0
 36 37  2  0  0  0
 36 38  1  0  0  0
 36 40  1  0  0  0
 40 41  1  0  0  0
 41 42  2  0  0  0
 41 43  1  0  0  0
 41 44  1  0  0  0
 31 33  1  0  0  0
 32 34  1  0  0  0
 26 27  1  0  0  0
  5  7  1  0  0  0
 14 19  1  0  0  0
 16 20  1  0  0  0
 16 21  1  0  0  0
 38 39  1  0  0  0
 43 45  1  0  0  0
 44 46  1  0  0  0
M  END
> <minimizedAffinity>
-10.03753

$$$$
6G14_G4P_B_301


 46 48  0  0  0  0  0  0  0  0999 V2000
  -47.0754  -33.3810  145.8467 C   0  0  0  0  0  0  0  0  0  0  0  0
  -47.5322  -33.9378  144.5855 O   0  0  0  0  0  0  0  0  0  0  0  0
  -47.1306  -31.9074  145.6738 C   0  0  0  0  0  0  0  0  0  0  0  0
  -48.0324  -31.6831  144.5213 C   0  0  0  0  0  0  0  0  0  0  0  0
  -47.6788  -30.5004  143.8159 O   0  0  0  0  0  0  0  0  0  0  0  0
  -47.8063  -32.8543  143.6487 C   0  0  0  0  0  0  0  0  0  0  0  0
  -46.7582  -30.5652  143.5170 H   0  0  0  0  0  0  0  0  0  0  0  0
  -48.9168  -33.2044  142.8283 N   0  0  0  0  0  0  0  0  0  0  0  0
  -49.7310  -34.0604  143.1955 C   0  0  0  0  0  0  0  0  0  0  0  0
  -50.6868  -34.2122  142.2166 N   0  0  0  0  0  0  0  0  0  0  0  0
  -50.2620  -33.2566  141.1465 C   0  0  0  0  0  0  0  0  0  0  0  0
  -50.6753  -32.8352  139.8788 C   0  0  0  0  0  0  0  0  0  0  0  0
  -51.6678  -33.3202  139.3591 O   0  0  0  0  0  0  0  0  0  0  0  0
  -49.9770  -31.8899  139.2194 N   0  0  0  0  0  0  0  0  0  0  0  0
  -48.8732  -31.3559  139.7726 C   0  0  0  0  0  0  0  0  0  0  0  0
  -48.1548  -30.3713  139.0551 N   0  0  0  0  0  0  0  0  0  0  0  0
  -48.4218  -31.7249  140.9662 N   0  0  0  0  0  0  0  0  0  0  0  0
  -49.0516  -32.6499  141.7049 C   0  0  0  0  0  0  0  0  0  0  0  0
  -50.2754  -31.5894  138.3306 H   0  0  0  0  0  0  0  0  0  0  0  0
  -48.4692  -30.0810  138.1685 H   0  0  0  0  0  0  0  0  0  0  0  0
  -47.3404  -29.9763  139.4423 H   0  0  0  0  0  0  0  0  0  0  0  0
  -47.9525  -33.8259  146.9932 C   0  0  0  0  0  0  0  0  0  0  0  0
  -48.1841  -35.2293  146.8441 O   0  0  0  0  0  0  0  0  0  0  0  0
  -49.0355  -35.9752  147.9707 P   0  0  0  0  0  0  0  0  0  0  0  0
  -50.4230  -36.1226  147.4398 O   0  0  0  0  0  0  0  0  0  0  0  0
  -49.1856  -35.0983  149.1669 O   0  0  0  0  0  0  0  0  0  0  0  0
  -49.7037  -35.5609  149.8440 H   0  0  0  0  0  0  0  0  0  0  0  0
  -48.2696  -37.3554  148.2434 O   0  0  0  0  0  0  0  0  0  0  0  0
  -48.8605  -38.8472  148.2376 P   0  0  0  0  0  0  0  0  0  0  0  0
  -47.9920  -39.8418  149.1128 O   0  0  0  0  0  0  0  0  0  0  0  0
  -50.2589  -38.8193  148.6889 O   0  0  0  0  0  0  0  0  0  0  0  0
  -48.8617  -39.2903  146.8156 O   0  0  0  0  0  0  0  0  0  0  0  0
  -50.6176  -39.7206  148.6860 H   0  0  0  0  0  0  0  0  0  0  0  0
  -49.2126  -40.1929  146.7585 H   0  0  0  0  0  0  0  0  0  0  0  0
  -45.7983  -31.4803  145.3173 O   0  0  0  0  0  0  0  0  0  0  0  0
  -44.5697  -31.5350  146.3643 P   0  0  0  0  0  0  0  0  0  0  0  0
  -45.0071  -31.4572  147.7917 O   0  0  0  0  0  0  0  0  0  0  0  0
  -43.6774  -30.3710  146.2373 O   0  0  0  0  0  0  0  0  0  0  0  0
  -44.1748  -29.5601  146.4271 H   0  0  0  0  0  0  0  0  0  0  0  0
  -43.7676  -32.9204  146.0520 O   0  0  0  0  0  0  0  0  0  0  0  0
  -43.1658  -33.8259  147.2512 P   0  0  0  0  0  0  0  0  0  0  0  0
  -41.9887  -33.0422  148.0077 O   0  0  0  0  0  0  0  0  0  0  0  0
  -42.6884  -35.1414  146.7350 O   0  0  0  0  0  0  0  0  0  0  0  0
  -44.2343  -34.2369  148.1897 O   0  0  0  0  0  0  0  0  0  0  0  0
  -41.9719  -34.9977  146.0971 H   0  0  0  0  0  0  0  0  0  0  0  0
  -44.6281  -33.4492  148.5963 H   0  0  0  0  0  0  0  0  0  0  0  0
 29 30  2  0  0  0
 29 31  1  0  0  0
 29 32  1  0  0  0
 29 28  1  0  0  0
 28 24  1  0  0  0
 24 25  2  0  0  0
 24 26  1  0  0  0
 24 23  1  0  0  0
 23 22  1  0  0  0
 22  1  1  0  0  0
  1  2  1  0  0  0
  1  3  1  0  0  0
  2  6  1  0  0  0
  3 35  1  0  0  0
  3  4  1  0  0  0
 35 36  1  0  0  0
  4  5  1  0  0  0
  4  6  1  0  0  0
  6  8  1  0  0  0
  8  9  1  0  0  0
  8 18  1  0  0  0
  9 10  2  0  0  0
 10 11  1  0  0  0
 11 12  1  0  0  0
 11 18  2  0  0  0
 12 13  2  0  0  0
 12 14  1  0  0  0
 14 15  1  0  0  0
 15 16  1  0  0  0
 15 17  2  0  0  0
 17 18  1  0  0  0
 36 37  2  0  0  0
 36 38  1  0  0  0
 36 40  1  0  0  0
 40 41  1  0  0  0
 41 42  2  0  0  0
 41 43  1  0  0  0
 41 44  1  0  0  0
 31 33  1  0  0  0
 32 34  1  0  0  0
 26 27  1  0  0  0
  5  7  1  0  0  0
 14 19  1  0  0  0
 16 20  1  0  0  0
 16 21  1  0  0  0
 38 39  1  0  0  0
 43 45  1  0  0  0
 44 46  1  0  0  0
M  END
> <minimizedAffinity>
-9.56921

$$$$
6G14_G4P_B_301


 46 48  0  0  0  0  0  0  0  0999 V2000
  -46.6342  -33.4728  145.7018 C   0  0  0  0  0  0  0  0  0  0  0  0
  -47.1893  -34.0064  144.4704 O   0  0  0  0  0  0  0  0  0  0  0  0
  -46.7161  -31.9964  145.5678 C   0  0  0  0  0  0  0  0  0  0  0  0
  -47.7124  -31.7562  144.4994 C   0  0  0  0  0  0  0  0  0  0  0  0
  -47.4286  -30.5546  143.7942 O   0  0  0  0  0  0  0  0  0  0  0  0
  -47.5495  -32.9055  143.5845 C   0  0  0  0  0  0  0  0  0  0  0  0
  -46.5356  -30.6033  143.4187 H   0  0  0  0  0  0  0  0  0  0  0  0
  -48.7213  -33.2489  142.8511 N   0  0  0  0  0  0  0  0  0  0  0  0
  -49.5268  -34.0764  143.2949 C   0  0  0  0  0  0  0  0  0  0  0  0
  -50.5509  -34.2292  142.3878 N   0  0  0  0  0  0  0  0  0  0  0  0
  -50.1799  -33.3099  141.2671 C   0  0  0  0  0  0  0  0  0  0  0  0
  -50.6703  -32.9096  140.0201 C   0  0  0  0  0  0  0  0  0  0  0  0
  -51.7065  -33.3834  139.5821 O   0  0  0  0  0  0  0  0  0  0  0  0
  -49.9985  -31.9972  139.2905 N   0  0  0  0  0  0  0  0  0  0  0  0
  -48.8477  -31.4762  139.7532 C   0  0  0  0  0  0  0  0  0  0  0  0
  -48.1591  -30.5264  138.9632 N   0  0  0  0  0  0  0  0  0  0  0  0
  -48.3234  -31.8269  140.9222 N   0  0  0  0  0  0  0  0  0  0  0  0
  -48.9210  -32.7186  141.7257 C   0  0  0  0  0  0  0  0  0  0  0  0
  -50.3507  -31.7112  138.4168 H   0  0  0  0  0  0  0  0  0  0  0  0
  -48.5274  -30.2503  138.0930 H   0  0  0  0  0  0  0  0  0  0  0  0
  -47.3115  -30.1415  139.2836 H   0  0  0  0  0  0  0  0  0  0  0  0
  -47.4092  -33.9520  146.9065 C   0  0  0  0  0  0  0  0  0  0  0  0
  -48.3175  -34.9645  146.4646 O   0  0  0  0  0  0  0  0  0  0  0  0
  -49.0166  -35.8821  147.5689 P   0  0  0  0  0  0  0  0  0  0  0  0
  -50.4754  -35.9065  147.2528 O   0  0  0  0  0  0  0  0  0  0  0  0
  -48.9361  -35.2289  148.9065 O   0  0  0  0  0  0  0  0  0  0  0  0
  -49.3633  -35.7943  149.5687 H   0  0  0  0  0  0  0  0  0  0  0  0
  -48.2838  -37.3032  147.4720 O   0  0  0  0  0  0  0  0  0  0  0  0
  -48.7985  -38.7331  147.9868 P   0  0  0  0  0  0  0  0  0  0  0  0
  -47.8334  -39.3648  149.0728 O   0  0  0  0  0  0  0  0  0  0  0  0
  -50.1690  -38.6016  148.5011 O   0  0  0  0  0  0  0  0  0  0  0  0
  -48.8573  -39.6128  146.7863 O   0  0  0  0  0  0  0  0  0  0  0  0
  -50.4816  -39.4653  148.8128 H   0  0  0  0  0  0  0  0  0  0  0  0
  -49.1652  -40.4950  147.0467 H   0  0  0  0  0  0  0  0  0  0  0  0
  -45.4217  -31.5478  145.1120 O   0  0  0  0  0  0  0  0  0  0  0  0
  -44.6521  -30.3052  145.7993 P   0  0  0  0  0  0  0  0  0  0  0  0
  -43.6132  -29.6932  144.9157 O   0  0  0  0  0  0  0  0  0  0  0  0
  -43.8708  -30.7166  146.9772 O   0  0  0  0  0  0  0  0  0  0  0  0
  -43.1924  -31.3555  146.7081 H   0  0  0  0  0  0  0  0  0  0  0  0
  -45.8055  -29.2286  146.2125 O   0  0  0  0  0  0  0  0  0  0  0  0
  -45.9592  -27.8242  145.4223 P   0  0  0  0  0  0  0  0  0  0  0  0
  -44.9146  -26.7467  145.9878 O   0  0  0  0  0  0  0  0  0  0  0  0
  -47.3578  -27.3140  145.5135 O   0  0  0  0  0  0  0  0  0  0  0  0
  -45.8009  -28.0193  143.9634 O   0  0  0  0  0  0  0  0  0  0  0  0
  -47.5808  -27.1460  146.4424 H   0  0  0  0  0  0  0  0  0  0  0  0
  -44.9106  -28.3562  143.7770 H   0  0  0  0  0  0  0  0  0  0  0  0
 29 30  2  0  0  0
 29 31  1  0  0  0
 29 32  1  0  0  0
 29 28  1  0  0  0
 28 24  1  0  0  0
 24 25  2  0  0  0
 24 26  1  0  0  0
 24 23  1  0  0  0
 23 22  1  0  0  0
 22  1  1  0  0  0
  1  2  1  0  0  0
  1  3  1  0  0  0
  2  6  1  0  0  0
  3 35  1  0  0  0
  3  4  1  0  0  0
 35 36  1  0  0  0
  4  5  1  0  0  0
  4  6  1  0  0  0
  6  8  1  0  0  0
  8  9  1  0  0  0
  8 18  1  0  0  0
  9 10  2  0  0  0
 10 11  1  0  0  0
 11 12  1  0  0  0
 11 18  2  0  0  0
 12 13  2  0  0  0
 12 14  1  0  0  0
 14 15  1  0  0  0
 15 16  1  0  0  0
 15 17  2  0  0  0
 17 18  1  0  0  0
 36 37  2  0  0  0
 36 38  1  0  0  0
 36 40  1  0  0  0
 40 41  1  0  0  0
 41 42  2  0  0  0
 41 43  1  0  0  0
 41 44  1  0  0  0
 31 33  1  0  0  0
 32 34  1  0  0  0
 26 27  1  0  0  0
  5  7  1  0  0  0
 14 19  1  0  0  0
 16 20  1  0  0  0
 16 21  1  0  0  0
 38 39  1  0  0  0
 43 45  1  0  0  0
 44 46  1  0  0  0
M  END
> <minimizedAffinity>
-9.33007

$$$$
6G14_G4P_B_301


 46 48  0  0  0  0  0  0  0  0999 V2000
  -49.2849  -32.6718  145.9337 C   0  0  0  0  0  0  0  0  0  0  0  0
  -49.4026  -32.2333  144.5542 O   0  0  0  0  0  0  0  0  0  0  0  0
  -48.0506  -33.4954  145.9850 C   0  0  0  0  0  0  0  0  0  0  0  0
  -47.2814  -33.1215  144.7766 C   0  0  0  0  0  0  0  0  0  0  0  0
  -46.4936  -34.2105  144.3127 O   0  0  0  0  0  0  0  0  0  0  0  0
  -48.3160  -32.8075  143.7690 C   0  0  0  0  0  0  0  0  0  0  0  0
  -47.0686  -34.9690  144.1260 H   0  0  0  0  0  0  0  0  0  0  0  0
  -47.9072  -31.8772  142.7709 N   0  0  0  0  0  0  0  0  0  0  0  0
  -46.9918  -31.0743  142.9899 C   0  0  0  0  0  0  0  0  0  0  0  0
  -46.8123  -30.2907  141.8725 N   0  0  0  0  0  0  0  0  0  0  0  0
  -47.8464  -30.7890  140.9128 C   0  0  0  0  0  0  0  0  0  0  0  0
  -48.3035  -30.5245  139.6179 C   0  0  0  0  0  0  0  0  0  0  0  0
  -47.8004  -29.6315  138.9549 O   0  0  0  0  0  0  0  0  0  0  0  0
  -49.3075  -31.2543  139.0930 N   0  0  0  0  0  0  0  0  0  0  0  0
  -49.8817  -32.2326  139.8161 C   0  0  0  0  0  0  0  0  0  0  0  0
  -50.9387  -32.9776  139.2435 N   0  0  0  0  0  0  0  0  0  0  0  0
  -49.5023  -32.5217  141.0560 N   0  0  0  0  0  0  0  0  0  0  0  0
  -48.5063  -31.8601  141.6626 C   0  0  0  0  0  0  0  0  0  0  0  0
  -49.6214  -31.0711  138.1780 H   0  0  0  0  0  0  0  0  0  0  0  0
  -51.2381  -32.7823  138.3262 H   0  0  0  0  0  0  0  0  0  0  0  0
  -51.3751  -33.6916  139.7623 H   0  0  0  0  0  0  0  0  0  0  0  0
  -49.1924  -31.4963  146.8777 C   0  0  0  0  0  0  0  0  0  0  0  0
  -48.9690  -32.0115  148.1930 O   0  0  0  0  0  0  0  0  0  0  0  0
  -50.2199  -32.1247  149.1793 P   0  0  0  0  0  0  0  0  0  0  0  0
  -49.6812  -32.0767  150.5708 O   0  0  0  0  0  0  0  0  0  0  0  0
  -50.8428  -33.4744  149.0672 O   0  0  0  0  0  0  0  0  0  0  0  0
  -51.6006  -33.5318  149.6700 H   0  0  0  0  0  0  0  0  0  0  0  0
  -51.1847  -30.9069  148.7894 O   0  0  0  0  0  0  0  0  0  0  0  0
  -52.7643  -30.9307  148.5079 P   0  0  0  0  0  0  0  0  0  0  0  0
  -53.4580  -32.2346  149.0807 O   0  0  0  0  0  0  0  0  0  0  0  0
  -53.3760  -29.7133  149.0589 O   0  0  0  0  0  0  0  0  0  0  0  0
  -52.9255  -30.8777  147.0281 O   0  0  0  0  0  0  0  0  0  0  0  0
  -54.3310  -29.7261  148.8895 H   0  0  0  0  0  0  0  0  0  0  0  0
  -53.8694  -30.8898  146.8051 H   0  0  0  0  0  0  0  0  0  0  0  0
  -48.4651  -34.8735  145.8698 O   0  0  0  0  0  0  0  0  0  0  0  0
  -48.9038  -35.7490  147.1543 P   0  0  0  0  0  0  0  0  0  0  0  0
  -50.3848  -35.8111  147.3479 O   0  0  0  0  0  0  0  0  0  0  0  0
  -48.4387  -35.1549  148.4184 O   0  0  0  0  0  0  0  0  0  0  0  0
  -48.8338  -34.2757  148.5271 H   0  0  0  0  0  0  0  0  0  0  0  0
  -48.2596  -37.2313  146.9356 O   0  0  0  0  0  0  0  0  0  0  0  0
  -48.7635  -38.4983  147.8079 P   0  0  0  0  0  0  0  0  0  0  0  0
  -47.7485  -38.7852  149.0161 O   0  0  0  0  0  0  0  0  0  0  0  0
  -48.9261  -39.7051  146.9464 O   0  0  0  0  0  0  0  0  0  0  0  0
  -50.1441  -38.2862  148.2982 O   0  0  0  0  0  0  0  0  0  0  0  0
  -48.0689  -39.9452  146.5612 H   0  0  0  0  0  0  0  0  0  0  0  0
  -50.1646  -37.5113  148.8813 H   0  0  0  0  0  0  0  0  0  0  0  0
 29 30  2  0  0  0
 29 31  1  0  0  0
 29 32  1  0  0  0
 29 28  1  0  0  0
 28 24  1  0  0  0
 24 25  2  0  0  0
 24 26  1  0  0  0
 24 23  1  0  0  0
 23 22  1  0  0  0
 22  1  1  0  0  0
  1  2  1  0  0  0
  1  3  1  0  0  0
  2  6  1  0  0  0
  3 35  1  0  0  0
  3  4  1  0  0  0
 35 36  1  0  0  0
  4  5  1  0  0  0
  4  6  1  0  0  0
  6  8  1  0  0  0
  8  9  1  0  0  0
  8 18  1  0  0  0
  9 10  2  0  0  0
 10 11  1  0  0  0
 11 12  1  0  0  0
 11 18  2  0  0  0
 12 13  2  0  0  0
 12 14  1  0  0  0
 14 15  1  0  0  0
 15 16  1  0  0  0
 15 17  2  0  0  0
 17 18  1  0  0  0
 36 37  2  0  0  0
 36 38  1  0  0  0
 36 40  1  0  0  0
 40 41  1  0  0  0
 41 42  2  0  0  0
 41 43  1  0  0  0
 41 44  1  0  0  0
 31 33  1  0  0  0
 32 34  1  0  0  0
 26 27  1  0  0  0
  5  7  1  0  0  0
 14 19  1  0  0  0
 16 20  1  0  0  0
 16 21  1  0  0  0
 38 39  1  0  0  0
 43 45  1  0  0  0
 44 46  1  0  0  0
M  END
> <minimizedAffinity>
-9.21406

$$$$
6G14_G4P_B_301


 46 48  0  0  0  0  0  0  0  0999 V2000
  -47.8470  -34.4826  146.3052 C   0  0  0  0  0  0  0  0  0  0  0  0
  -48.1690  -34.7696  144.9184 O   0  0  0  0  0  0  0  0  0  0  0  0
  -47.7710  -33.0027  146.3975 C   0  0  0  0  0  0  0  0  0  0  0  0
  -48.4906  -32.4998  145.2054 C   0  0  0  0  0  0  0  0  0  0  0  0
  -47.9599  -31.2532  144.7740 O   0  0  0  0  0  0  0  0  0  0  0  0
  -48.2348  -33.5209  144.1680 C   0  0  0  0  0  0  0  0  0  0  0  0
  -47.0147  -31.3537  144.5807 H   0  0  0  0  0  0  0  0  0  0  0  0
  -49.2472  -33.6180  143.1708 N   0  0  0  0  0  0  0  0  0  0  0  0
  -50.2108  -34.3798  143.3181 C   0  0  0  0  0  0  0  0  0  0  0  0
  -51.0223  -34.2879  142.2100 N   0  0  0  0  0  0  0  0  0  0  0  0
  -50.3232  -33.2983  141.3321 C   0  0  0  0  0  0  0  0  0  0  0  0
  -50.4857  -32.6915  140.0828 C   0  0  0  0  0  0  0  0  0  0  0  0
  -51.4444  -32.9699  139.3802 O   0  0  0  0  0  0  0  0  0  0  0  0
  -49.5807  -31.7945  139.6438 N   0  0  0  0  0  0  0  0  0  0  0  0
  -48.5115  -31.4876  140.4002 C   0  0  0  0  0  0  0  0  0  0  0  0
  -47.5732  -30.5490  139.9116 N   0  0  0  0  0  0  0  0  0  0  0  0
  -48.2938  -32.0408  141.5882 N   0  0  0  0  0  0  0  0  0  0  0  0
  -49.1408  -32.9359  142.1167 C   0  0  0  0  0  0  0  0  0  0  0  0
  -49.7025  -31.3628  138.7674 H   0  0  0  0  0  0  0  0  0  0  0  0
  -47.7122  -30.1252  139.0339 H   0  0  0  0  0  0  0  0  0  0  0  0
  -46.7810  -30.3193  140.4491 H   0  0  0  0  0  0  0  0  0  0  0  0
  -48.9006  -35.0309  147.2384 C   0  0  0  0  0  0  0  0  0  0  0  0
  -48.3089  -35.1605  148.5340 O   0  0  0  0  0  0  0  0  0  0  0  0
  -47.4888  -36.4923  148.8568 P   0  0  0  0  0  0  0  0  0  0  0  0
  -47.7592  -36.8332  150.2848 O   0  0  0  0  0  0  0  0  0  0  0  0
  -46.0241  -36.2185  148.8100 O   0  0  0  0  0  0  0  0  0  0  0  0
  -45.5364  -37.0334  149.0073 H   0  0  0  0  0  0  0  0  0  0  0  0
  -48.0015  -37.5788  147.7973 O   0  0  0  0  0  0  0  0  0  0  0  0
  -48.8076  -38.9396  148.0681 P   0  0  0  0  0  0  0  0  0  0  0  0
  -48.0894  -39.8618  149.1373 O   0  0  0  0  0  0  0  0  0  0  0  0
  -50.1825  -38.6186  148.4761 O   0  0  0  0  0  0  0  0  0  0  0  0
  -48.8864  -39.6458  146.7591 O   0  0  0  0  0  0  0  0  0  0  0  0
  -50.6712  -39.4403  148.6403 H   0  0  0  0  0  0  0  0  0  0  0  0
  -49.3680  -40.4804  146.8705 H   0  0  0  0  0  0  0  0  0  0  0  0
  -46.3753  -32.6503  146.2866 O   0  0  0  0  0  0  0  0  0  0  0  0
  -45.5732  -31.9291  147.4888 P   0  0  0  0  0  0  0  0  0  0  0  0
  -46.2635  -30.7101  148.0107 O   0  0  0  0  0  0  0  0  0  0  0  0
  -44.2716  -31.3989  147.0506 O   0  0  0  0  0  0  0  0  0  0  0  0
  -44.4102  -30.7301  146.3619 H   0  0  0  0  0  0  0  0  0  0  0  0
  -45.3810  -33.0590  148.6491 O   0  0  0  0  0  0  0  0  0  0  0  0
  -46.0467  -32.8749  150.1131 P   0  0  0  0  0  0  0  0  0  0  0  0
  -45.7056  -34.1345  151.0454 O   0  0  0  0  0  0  0  0  0  0  0  0
  -47.5204  -32.6719  150.0046 O   0  0  0  0  0  0  0  0  0  0  0  0
  -45.6096  -31.6051  150.7358 O   0  0  0  0  0  0  0  0  0  0  0  0
  -47.9260  -33.4556  149.6019 H   0  0  0  0  0  0  0  0  0  0  0  0
  -44.6476  -31.6197  150.8590 H   0  0  0  0  0  0  0  0  0  0  0  0
 29 30  2  0  0  0
 29 31  1  0  0  0
 29 32  1  0  0  0
 29 28  1  0  0  0
 28 24  1  0  0  0
 24 25  2  0  0  0
 24 26  1  0  0  0
 24 23  1  0  0  0
 23 22  1  0  0  0
 22  1  1  0  0  0
  1  2  1  0  0  0
  1  3  1  0  0  0
  2  6  1  0  0  0
  3 35  1  0  0  0
  3  4  1  0  0  0
 35 36  1  0  0  0
  4  5  1  0  0  0
  4  6  1  0  0  0
  6  8  1  0  0  0
  8  9  1  0  0  0
  8 18  1  0  0  0
  9 10  2  0  0  0
 10 11  1  0  0  0
 11 12  1  0  0  0
 11 18  2  0  0  0
 12 13  2  0  0  0
 12 14  1  0  0  0
 14 15  1  0  0  0
 15 16  1  0  0  0
 15 17  2  0  0  0
 17 18  1  0  0  0
 36 37  2  0  0  0
 36 38  1  0  0  0
 36 40  1  0  0  0
 40 41  1  0  0  0
 41 42  2  0  0  0
 41 43  1  0  0  0
 41 44  1  0  0  0
 31 33  1  0  0  0
 32 34  1  0  0  0
 26 27  1  0  0  0
  5  7  1  0  0  0
 14 19  1  0  0  0
 16 20  1  0  0  0
 16 21  1  0  0  0
 38 39  1  0  0  0
 43 45  1  0  0  0
 44 46  1  0  0  0
M  END
> <minimizedAffinity>
-8.48220

$$$$
6G14_G4P_B_301


 46 48  0  0  0  0  0  0  0  0999 V2000
  -43.9242  -29.9990  141.6862 C   0  0  0  0  0  0  0  0  0  0  0  0
  -44.7106  -31.2170  141.7712 O   0  0  0  0  0  0  0  0  0  0  0  0
  -44.8706  -28.9451  141.2413 C   0  0  0  0  0  0  0  0  0  0  0  0
  -46.2188  -29.4833  141.5319 C   0  0  0  0  0  0  0  0  0  0  0  0
  -47.1798  -28.9843  140.6104 O   0  0  0  0  0  0  0  0  0  0  0  0
  -46.0771  -30.9422  141.3425 C   0  0  0  0  0  0  0  0  0  0  0  0
  -46.9116  -29.2145  139.7071 H   0  0  0  0  0  0  0  0  0  0  0  0
  -46.9836  -31.7293  142.1091 N   0  0  0  0  0  0  0  0  0  0  0  0
  -46.7103  -32.0609  143.2692 C   0  0  0  0  0  0  0  0  0  0  0  0
  -47.7435  -32.8214  143.7682 N   0  0  0  0  0  0  0  0  0  0  0  0
  -48.7168  -32.8958  142.6342 C   0  0  0  0  0  0  0  0  0  0  0  0
  -49.9608  -33.4641  142.3428 C   0  0  0  0  0  0  0  0  0  0  0  0
  -50.5412  -34.1422  143.1756 O   0  0  0  0  0  0  0  0  0  0  0  0
  -50.5276  -33.2685  141.1358 N   0  0  0  0  0  0  0  0  0  0  0  0
  -49.8941  -32.5354  140.2025 C   0  0  0  0  0  0  0  0  0  0  0  0
  -50.5081  -32.3528  138.9416 N   0  0  0  0  0  0  0  0  0  0  0  0
  -48.7048  -31.9825  140.4137 N   0  0  0  0  0  0  0  0  0  0  0  0
  -48.0639  -32.1105  141.5845 C   0  0  0  0  0  0  0  0  0  0  0  0
  -51.4073  -33.6630  140.9367 H   0  0  0  0  0  0  0  0  0  0  0  0
  -51.3894  -32.7526  138.7607 H   0  0  0  0  0  0  0  0  0  0  0  0
  -50.0542  -31.8258  138.2448 H   0  0  0  0  0  0  0  0  0  0  0  0
  -43.3094  -29.6479  143.0205 C   0  0  0  0  0  0  0  0  0  0  0  0
  -43.0770  -30.8695  143.7269 O   0  0  0  0  0  0  0  0  0  0  0  0
  -41.5660  -31.3433  143.9338 P   0  0  0  0  0  0  0  0  0  0  0  0
  -41.1302  -30.8339  145.2677 O   0  0  0  0  0  0  0  0  0  0  0  0
  -40.6725  -30.6522  142.9610 O   0  0  0  0  0  0  0  0  0  0  0  0
  -39.7583  -30.9471  143.0956 H   0  0  0  0  0  0  0  0  0  0  0  0
  -41.5951  -32.9393  143.8002 O   0  0  0  0  0  0  0  0  0  0  0  0
  -42.5755  -33.8531  142.9179 P   0  0  0  0  0  0  0  0  0  0  0  0
  -42.4932  -33.5074  141.3741 O   0  0  0  0  0  0  0  0  0  0  0  0
  -42.2751  -35.2703  143.1653 O   0  0  0  0  0  0  0  0  0  0  0  0
  -43.9529  -33.5964  143.4232 O   0  0  0  0  0  0  0  0  0  0  0  0
  -42.8671  -35.8241  142.6326 H   0  0  0  0  0  0  0  0  0  0  0  0
  -44.5870  -34.1293  142.9184 H   0  0  0  0  0  0  0  0  0  0  0  0
  -44.7129  -28.8211  139.8115 O   0  0  0  0  0  0  0  0  0  0  0  0
  -44.5445  -27.3874  139.0869 P   0  0  0  0  0  0  0  0  0  0  0  0
  -43.2437  -26.7191  139.3965 O   0  0  0  0  0  0  0  0  0  0  0  0
  -45.5323  -26.4043  139.5612 O   0  0  0  0  0  0  0  0  0  0  0  0
  -45.4105  -26.2565  140.5121 H   0  0  0  0  0  0  0  0  0  0  0  0
  -44.7180  -27.6628  137.4888 O   0  0  0  0  0  0  0  0  0  0  0  0
  -46.1854  -27.7741  136.8145 P   0  0  0  0  0  0  0  0  0  0  0  0
  -46.0766  -28.3829  135.3347 O   0  0  0  0  0  0  0  0  0  0  0  0
  -46.8649  -26.4464  136.7993 O   0  0  0  0  0  0  0  0  0  0  0  0
  -47.0974  -28.5729  137.6639 O   0  0  0  0  0  0  0  0  0  0  0  0
  -46.3490  -25.8253  136.2617 H   0  0  0  0  0  0  0  0  0  0  0  0
  -46.7526  -29.4756  137.7488 H   0  0  0  0  0  0  0  0  0  0  0  0
 29 30  2  0  0  0
 29 31  1  0  0  0
 29 32  1  0  0  0
 29 28  1  0  0  0
 28 24  1  0  0  0
 24 25  2  0  0  0
 24 26  1  0  0  0
 24 23  1  0  0  0
 23 22  1  0  0  0
 22  1  1  0  0  0
  1  2  1  0  0  0
  1  3  1  0  0  0
  2  6  1  0  0  0
  3 35  1  0  0  0
  3  4  1  0  0  0
 35 36  1  0  0  0
  4  5  1  0  0  0
  4  6  1  0  0  0
  6  8  1  0  0  0
  8  9  1  0  0  0
  8 18  1  0  0  0
  9 10  2  0  0  0
 10 11  1  0  0  0
 11 12  1  0  0  0
 11 18  2  0  0  0
 12 13  2  0  0  0
 12 14  1  0  0  0
 14 15  1  0  0  0
 15 16  1  0  0  0
 15 17  2  0  0  0
 17 18  1  0  0  0
 36 37  2  0  0  0
 36 38  1  0  0  0
 36 40  1  0  0  0
 40 41  1  0  0  0
 41 42  2  0  0  0
 41 43  1  0  0  0
 41 44  1  0  0  0
 31 33  1  0  0  0
 32 34  1  0  0  0
 26 27  1  0  0  0
  5  7  1  0  0  0
 14 19  1  0  0  0
 16 20  1  0  0  0
 16 21  1  0  0  0
 38 39  1  0  0  0
 43 45  1  0  0  0
 44 46  1  0  0  0
M  END
> <minimizedAffinity>
-8.41228

$$$$
6G14_G4P_B_301


 46 48  0  0  0  0  0  0  0  0999 V2000
  -46.0674  -34.5984  147.7586 C   0  0  0  0  0  0  0  0  0  0  0  0
  -46.5376  -33.2257  147.6957 O   0  0  0  0  0  0  0  0  0  0  0  0
  -47.2817  -35.4250  147.9742 C   0  0  0  0  0  0  0  0  0  0  0  0
  -48.4165  -34.5643  147.5704 C   0  0  0  0  0  0  0  0  0  0  0  0
  -49.5891  -34.8814  148.3094 O   0  0  0  0  0  0  0  0  0  0  0  0
  -47.9784  -33.1966  147.9193 C   0  0  0  0  0  0  0  0  0  0  0  0
  -49.4104  -34.7822  149.2576 H   0  0  0  0  0  0  0  0  0  0  0  0
  -48.5622  -32.1677  147.1260 N   0  0  0  0  0  0  0  0  0  0  0  0
  -47.9757  -31.7251  146.1306 C   0  0  0  0  0  0  0  0  0  0  0  0
  -48.7495  -30.7389  145.5618 N   0  0  0  0  0  0  0  0  0  0  0  0
  -49.9500  -30.6643  146.4518 C   0  0  0  0  0  0  0  0  0  0  0  0
  -51.1427  -29.9426  146.5619 C   0  0  0  0  0  0  0  0  0  0  0  0
  -51.4112  -29.0654  145.7565 O   0  0  0  0  0  0  0  0  0  0  0  0
  -52.0051  -30.2100  147.5624 N   0  0  0  0  0  0  0  0  0  0  0  0
  -51.7170  -31.1641  148.4660 C   0  0  0  0  0  0  0  0  0  0  0  0
  -52.6361  -31.4186  149.5104 N   0  0  0  0  0  0  0  0  0  0  0  0
  -50.5944  -31.8730  148.4238 N   0  0  0  0  0  0  0  0  0  0  0  0
  -49.6783  -31.6892  147.4621 C   0  0  0  0  0  0  0  0  0  0  0  0
  -52.8478  -29.7059  147.6322 H   0  0  0  0  0  0  0  0  0  0  0  0
  -53.4753  -30.9064  149.5633 H   0  0  0  0  0  0  0  0  0  0  0  0
  -52.4368  -32.1079  150.1845 H   0  0  0  0  0  0  0  0  0  0  0  0
  -45.3600  -34.9955  146.4844 C   0  0  0  0  0  0  0  0  0  0  0  0
  -44.9248  -33.7967  145.8371 O   0  0  0  0  0  0  0  0  0  0  0  0
  -43.3785  -33.6637  145.4607 P   0  0  0  0  0  0  0  0  0  0  0  0
  -42.7807  -35.0251  145.5938 O   0  0  0  0  0  0  0  0  0  0  0  0
  -42.6689  -32.8435  146.4836 O   0  0  0  0  0  0  0  0  0  0  0  0
  -41.7316  -32.7694  146.2452 H   0  0  0  0  0  0  0  0  0  0  0  0
  -43.3488  -33.0582  143.9780 O   0  0  0  0  0  0  0  0  0  0  0  0
  -42.3661  -33.4276  142.7645 P   0  0  0  0  0  0  0  0  0  0  0  0
  -42.0419  -32.1752  141.8502 O   0  0  0  0  0  0  0  0  0  0  0  0
  -41.1376  -34.0321  143.2987 O   0  0  0  0  0  0  0  0  0  0  0  0
  -43.0641  -34.4730  141.9654 O   0  0  0  0  0  0  0  0  0  0  0  0
  -40.5425  -34.2560  142.5662 H   0  0  0  0  0  0  0  0  0  0  0  0
  -42.5070  -34.7318  141.2147 H   0  0  0  0  0  0  0  0  0  0  0  0
  -47.3660  -35.6779  149.3931 O   0  0  0  0  0  0  0  0  0  0  0  0
  -47.7730  -37.1245  149.9853 P   0  0  0  0  0  0  0  0  0  0  0  0
  -49.1020  -37.1290  150.6697 O   0  0  0  0  0  0  0  0  0  0  0  0
  -46.8601  -37.5664  151.0523 O   0  0  0  0  0  0  0  0  0  0  0  0
  -46.8972  -36.9380  151.7904 H   0  0  0  0  0  0  0  0  0  0  0  0
  -47.7383  -38.1580  148.7241 O   0  0  0  0  0  0  0  0  0  0  0  0
  -49.0995  -38.8153  148.1449 P   0  0  0  0  0  0  0  0  0  0  0  0
  -48.7982  -39.6285  146.7958 O   0  0  0  0  0  0  0  0  0  0  0  0
  -50.1399  -37.7704  147.9199 O   0  0  0  0  0  0  0  0  0  0  0  0
  -49.7458  -39.6740  149.1629 O   0  0  0  0  0  0  0  0  0  0  0  0
  -49.8234  -37.1364  147.2575 H   0  0  0  0  0  0  0  0  0  0  0  0
  -49.1513  -40.4048  149.3941 H   0  0  0  0  0  0  0  0  0  0  0  0
 29 30  2  0  0  0
 29 31  1  0  0  0
 29 32  1  0  0  0
 29 28  1  0  0  0
 28 24  1  0  0  0
 24 25  2  0  0  0
 24 26  1  0  0  0
 24 23  1  0  0  0
 23 22  1  0  0  0
 22  1  1  0  0  0
  1  2  1  0  0  0
  1  3  1  0  0  0
  2  6  1  0  0  0
  3 35  1  0  0  0
  3  4  1  0  0  0
 35 36  1  0  0  0
  4  5  1  0  0  0
  4  6  1  0  0  0
  6  8  1  0  0  0
  8  9  1  0  0  0
  8 18  1  0  0  0
  9 10  2  0  0  0
 10 11  1  0  0  0
 11 12  1  0  0  0
 11 18  2  0  0  0
 12 13  2  0  0  0
 12 14  1  0  0  0
 14 15  1  0  0  0
 15 16  1  0  0  0
 15 17  2  0  0  0
 17 18  1  0  0  0
 36 37  2  0  0  0
 36 38  1  0  0  0
 36 40  1  0  0  0
 40 41  1  0  0  0
 41 42  2  0  0  0
 41 43  1  0  0  0
 41 44  1  0  0  0
 31 33  1  0  0  0
 32 34  1  0  0  0
 26 27  1  0  0  0
  5  7  1  0  0  0
 14 19  1  0  0  0
 16 20  1  0  0  0
 16 21  1  0  0  0
 38 39  1  0  0  0
 43 45  1  0  0  0
 44 46  1  0  0  0
M  END
> <minimizedAffinity>
-8.10538

$$$$
6G14_G4P_B_301


 46 48  0  0  0  0  0  0  0  0999 V2000
  -47.6021  -33.4998  146.0116 C   0  0  0  0  0  0  0  0  0  0  0  0
  -47.9107  -33.9700  144.6726 O   0  0  0  0  0  0  0  0  0  0  0  0
  -47.7928  -32.0279  145.9697 C   0  0  0  0  0  0  0  0  0  0  0  0
  -48.6293  -31.7766  144.7744 C   0  0  0  0  0  0  0  0  0  0  0  0
  -48.3477  -30.5023  144.2099 O   0  0  0  0  0  0  0  0  0  0  0  0
  -48.2258  -32.8300  143.8195 C   0  0  0  0  0  0  0  0  0  0  0  0
  -47.4065  -30.4512  143.9806 H   0  0  0  0  0  0  0  0  0  0  0  0
  -49.2351  -33.1998  142.8849 N   0  0  0  0  0  0  0  0  0  0  0  0
  -50.0666  -34.0727  143.1625 C   0  0  0  0  0  0  0  0  0  0  0  0
  -50.9091  -34.2409  142.0870 N   0  0  0  0  0  0  0  0  0  0  0  0
  -50.3915  -33.2743  141.0689 C   0  0  0  0  0  0  0  0  0  0  0  0
  -50.6752  -32.8579  139.7644 C   0  0  0  0  0  0  0  0  0  0  0  0
  -51.5965  -33.3611  139.1414 O   0  0  0  0  0  0  0  0  0  0  0  0
  -49.9294  -31.8972  139.1839 N   0  0  0  0  0  0  0  0  0  0  0  0
  -48.9019  -31.3429  139.8523 C   0  0  0  0  0  0  0  0  0  0  0  0
  -48.1308  -30.3424  139.2162 N   0  0  0  0  0  0  0  0  0  0  0  0
  -48.5735  -31.7060  141.0872 N   0  0  0  0  0  0  0  0  0  0  0  0
  -49.2601  -32.6452  141.7538 C   0  0  0  0  0  0  0  0  0  0  0  0
  -50.1370  -31.6004  138.2685 H   0  0  0  0  0  0  0  0  0  0  0  0
  -48.3543  -30.0561  138.3011 H   0  0  0  0  0  0  0  0  0  0  0  0
  -47.3705  -29.9324  139.6884 H   0  0  0  0  0  0  0  0  0  0  0  0
  -48.5085  -34.1352  147.0393 C   0  0  0  0  0  0  0  0  0  0  0  0
  -47.9817  -35.4299  147.3422 O   0  0  0  0  0  0  0  0  0  0  0  0
  -49.0070  -36.5795  147.7640 P   0  0  0  0  0  0  0  0  0  0  0  0
  -48.7376  -37.7487  146.8757 O   0  0  0  0  0  0  0  0  0  0  0  0
  -50.4018  -36.1722  147.4311 O   0  0  0  0  0  0  0  0  0  0  0  0
  -51.0153  -36.8770  147.6913 H   0  0  0  0  0  0  0  0  0  0  0  0
  -48.7392  -36.8423  149.3213 O   0  0  0  0  0  0  0  0  0  0  0  0
  -47.3582  -37.2057  150.0530 P   0  0  0  0  0  0  0  0  0  0  0  0
  -47.5735  -37.6502  151.5582 O   0  0  0  0  0  0  0  0  0  0  0  0
  -46.6574  -38.2436  149.2839 O   0  0  0  0  0  0  0  0  0  0  0  0
  -46.5218  -35.9743  150.0016 O   0  0  0  0  0  0  0  0  0  0  0  0
  -45.8222  -38.4644  149.7251 H   0  0  0  0  0  0  0  0  0  0  0  0
  -45.6702  -36.1435  150.4341 H   0  0  0  0  0  0  0  0  0  0  0  0
  -46.4885  -31.4454  145.7608 O   0  0  0  0  0  0  0  0  0  0  0  0
  -45.8602  -30.3584  146.7769 P   0  0  0  0  0  0  0  0  0  0  0  0
  -44.5106  -30.7433  147.2918 O   0  0  0  0  0  0  0  0  0  0  0  0
  -46.6507  -30.2285  148.0120 O   0  0  0  0  0  0  0  0  0  0  0  0
  -46.6627  -31.0785  148.4791 H   0  0  0  0  0  0  0  0  0  0  0  0
  -45.8167  -28.9463  145.9620 O   0  0  0  0  0  0  0  0  0  0  0  0
  -46.9407  -27.8069  146.2043 P   0  0  0  0  0  0  0  0  0  0  0  0
  -48.4087  -28.4516  146.1649 O   0  0  0  0  0  0  0  0  0  0  0  0
  -46.8099  -26.7102  145.2018 O   0  0  0  0  0  0  0  0  0  0  0  0
  -46.6981  -27.0878  147.4753 O   0  0  0  0  0  0  0  0  0  0  0  0
  -46.9515  -27.0677  144.3112 H   0  0  0  0  0  0  0  0  0  0  0  0
  -46.7586  -27.7111  148.2161 H   0  0  0  0  0  0  0  0  0  0  0  0
 29 30  2  0  0  0
 29 31  1  0  0  0
 29 32  1  0  0  0
 29 28  1  0  0  0
 28 24  1  0  0  0
 24 25  2  0  0  0
 24 26  1  0  0  0
 24 23  1  0  0  0
 23 22  1  0  0  0
 22  1  1  0  0  0
  1  2  1  0  0  0
  1  3  1  0  0  0
  2  6  1  0  0  0
  3 35  1  0  0  0
  3  4  1  0  0  0
 35 36  1  0  0  0
  4  5  1  0  0  0
  4  6  1  0  0  0
  6  8  1  0  0  0
  8  9  1  0  0  0
  8 18  1  0  0  0
  9 10  2  0  0  0
 10 11  1  0  0  0
 11 12  1  0  0  0
 11 18  2  0  0  0
 12 13  2  0  0  0
 12 14  1  0  0  0
 14 15  1  0  0  0
 15 16  1  0  0  0
 15 17  2  0  0  0
 17 18  1  0  0  0
 36 37  2  0  0  0
 36 38  1  0  0  0
 36 40  1  0  0  0
 40 41  1  0  0  0
 41 42  2  0  0  0
 41 43  1  0  0  0
 41 44  1  0  0  0
 31 33  1  0  0  0
 32 34  1  0  0  0
 26 27  1  0  0  0
  5  7  1  0  0  0
 14 19  1  0  0  0
 16 20  1  0  0  0
 16 21  1  0  0  0
 38 39  1  0  0  0
 43 45  1  0  0  0
 44 46  1  0  0  0
M  END
> <minimizedAffinity>
-7.98837

$$$$
6G14_G4P_B_301


 46 48  0  0  0  0  0  0  0  0999 V2000
  -49.1979  -32.5449  146.0915 C   0  0  0  0  0  0  0  0  0  0  0  0
  -49.3874  -32.0853  144.7269 O   0  0  0  0  0  0  0  0  0  0  0  0
  -48.1534  -33.5973  146.0151 C   0  0  0  0  0  0  0  0  0  0  0  0
  -47.4725  -33.3781  144.7189 C   0  0  0  0  0  0  0  0  0  0  0  0
  -46.9755  -34.5997  144.1876 O   0  0  0  0  0  0  0  0  0  0  0  0
  -48.5355  -32.8603  143.8322 C   0  0  0  0  0  0  0  0  0  0  0  0
  -47.7070  -35.2281  144.0830 H   0  0  0  0  0  0  0  0  0  0  0  0
  -48.0706  -32.0251  142.7761 N   0  0  0  0  0  0  0  0  0  0  0  0
  -47.1066  -31.2681  142.9444 C   0  0  0  0  0  0  0  0  0  0  0  0
  -46.8799  -30.5727  141.7783 N   0  0  0  0  0  0  0  0  0  0  0  0
  -47.9443  -31.0677  140.8505 C   0  0  0  0  0  0  0  0  0  0  0  0
  -48.3857  -30.8612  139.5397 C   0  0  0  0  0  0  0  0  0  0  0  0
  -47.8286  -30.0469  138.8208 O   0  0  0  0  0  0  0  0  0  0  0  0
  -49.4339  -31.5600  139.0611 N   0  0  0  0  0  0  0  0  0  0  0  0
  -50.0672  -32.4508  139.8455 C   0  0  0  0  0  0  0  0  0  0  0  0
  -51.1693  -33.1646  139.3202 N   0  0  0  0  0  0  0  0  0  0  0  0
  -49.7050  -32.6806  141.1028 N   0  0  0  0  0  0  0  0  0  0  0  0
  -48.6688  -32.0438  141.6674 C   0  0  0  0  0  0  0  0  0  0  0  0
  -49.7369  -31.4184  138.1352 H   0  0  0  0  0  0  0  0  0  0  0  0
  -51.4570  -33.0119  138.3912 H   0  0  0  0  0  0  0  0  0  0  0  0
  -51.6488  -33.8141  139.8836 H   0  0  0  0  0  0  0  0  0  0  0  0
  -48.7648  -31.4154  146.9962 C   0  0  0  0  0  0  0  0  0  0  0  0
  -49.3836  -31.6169  148.2697 O   0  0  0  0  0  0  0  0  0  0  0  0
  -50.7444  -30.8393  148.5765 P   0  0  0  0  0  0  0  0  0  0  0  0
  -51.6103  -30.9871  147.3695 O   0  0  0  0  0  0  0  0  0  0  0  0
  -50.4886  -29.3740  148.6744 O   0  0  0  0  0  0  0  0  0  0  0  0
  -51.3210  -28.9122  148.8607 H   0  0  0  0  0  0  0  0  0  0  0  0
  -51.3290  -31.5080  149.9095 O   0  0  0  0  0  0  0  0  0  0  0  0
  -51.6382  -33.0552  150.2017 P   0  0  0  0  0  0  0  0  0  0  0  0
  -50.6350  -33.6807  151.2561 O   0  0  0  0  0  0  0  0  0  0  0  0
  -53.0335  -33.1990  150.6404 O   0  0  0  0  0  0  0  0  0  0  0  0
  -51.5083  -33.7607  148.8963 O   0  0  0  0  0  0  0  0  0  0  0  0
  -53.2220  -34.1339  150.8174 H   0  0  0  0  0  0  0  0  0  0  0  0
  -51.6870  -34.7060  149.0205 H   0  0  0  0  0  0  0  0  0  0  0  0
  -48.8428  -34.8652  145.9746 O   0  0  0  0  0  0  0  0  0  0  0  0
  -49.0579  -35.7688  147.2960 P   0  0  0  0  0  0  0  0  0  0  0  0
  -48.2569  -37.0309  147.2843 O   0  0  0  0  0  0  0  0  0  0  0  0
  -50.4389  -36.2653  147.4125 O   0  0  0  0  0  0  0  0  0  0  0  0
  -50.6461  -36.8267  146.6492 H   0  0  0  0  0  0  0  0  0  0  0  0
  -48.6716  -34.8187  148.5641 O   0  0  0  0  0  0  0  0  0  0  0  0
  -47.9272  -35.4260  149.8669 P   0  0  0  0  0  0  0  0  0  0  0  0
  -48.8394  -36.5481  150.5604 O   0  0  0  0  0  0  0  0  0  0  0  0
  -47.5813  -34.3438  150.8335 O   0  0  0  0  0  0  0  0  0  0  0  0
  -46.5912  -35.9559  149.5125 O   0  0  0  0  0  0  0  0  0  0  0  0
  -48.3943  -33.9141  151.1423 H   0  0  0  0  0  0  0  0  0  0  0  0
  -46.6895  -36.6808  148.8755 H   0  0  0  0  0  0  0  0  0  0  0  0
 29 30  2  0  0  0
 29 31  1  0  0  0
 29 32  1  0  0  0
 29 28  1  0  0  0
 28 24  1  0  0  0
 24 25  2  0  0  0
 24 26  1  0  0  0
 24 23  1  0  0  0
 23 22  1  0  0  0
 22  1  1  0  0  0
  1  2  1  0  0  0
  1  3  1  0  0  0
  2  6  1  0  0  0
  3 35  1  0  0  0
  3  4  1  0  0  0
 35 36  1  0  0  0
  4  5  1  0  0  0
  4  6  1  0  0  0
  6  8  1  0  0  0
  8  9  1  0  0  0
  8 18  1  0  0  0
  9 10  2  0  0  0
 10 11  1  0  0  0
 11 12  1  0  0  0
 11 18  2  0  0  0
 12 13  2  0  0  0
 12 14  1  0  0  0
 14 15  1  0  0  0
 15 16  1  0  0  0
 15 17  2  0  0  0
 17 18  1  0  0  0
 36 37  2  0  0  0
 36 38  1  0  0  0
 36 40  1  0  0  0
 40 41  1  0  0  0
 41 42  2  0  0  0
 41 43  1  0  0  0
 41 44  1  0  0  0
 31 33  1  0  0  0
 32 34  1  0  0  0
 26 27  1  0  0  0
  5  7  1  0  0  0
 14 19  1  0  0  0
 16 20  1  0  0  0
 16 21  1  0  0  0
 38 39  1  0  0  0
 43 45  1  0  0  0
 44 46  1  0  0  0
M  END
> <minimizedAffinity>
-7.98199

$$$$
