2VK6_DAN_A_2692
  RCSB PDB12061707063D
Coordinates from PDB:2VK6:A:2692 Model:1 without hydrogens
 20 20  0  0  0  0            999 V2000
    0.8010   36.7770   19.9120   C 0  0  0  0  0  0  0  0  0  0  0  0
    1.7000   35.6550   20.1620   C 0  0  0  0  0  0  0  0  0  0  0  0
    1.2860   34.4930   20.7460   C 0  0  0  0  0  0  0  0  0  0  0  0
    2.2710   33.3480   20.8140   C 0  0  0  0  0  0  0  0  0  0  0  0
    3.6840   33.9360   20.8820   C 0  0  0  0  0  0  0  0  0  0  0  0
    3.8980   34.7730   19.6310   C 0  0  0  0  0  0  0  0  0  0  0  0
    5.2710   35.4510   19.5640   C 0  0  0  0  0  0  0  0  0  0  0  0
    5.3990   36.4000   18.3420   C 0  0  0  0  0  0  0  0  0  0  0  0
    6.8440   36.8460   18.3090   C 0  0  0  0  0  0  0  0  0  0  0  0
    5.8220   32.9000   21.5750   C 0  0  0  0  0  0  0  0  0  0  0  0
    6.7030   31.6670   21.5320   C 0  0  0  0  0  0  0  0  0  0  0  0
    4.6450   32.8460   20.8920   N 0  0  0  0  0  0  0  0  0  0  0  0
    1.1520   37.6470   19.0160   O 0  0  0  0  0  0  0  0  0  0  0  0
   -0.2840   36.8200   20.4590   O 0  0  0  0  0  0  0  0  0  0  0  0
    2.0070   32.4330   21.9010   O 0  0  0  0  0  0  0  0  0  0  0  0
    2.9420   35.8290   19.5650   O 0  0  0  0  0  0  0  0  0  0  0  0
    5.4900   36.2340   20.7610   O 0  0  0  0  0  0  0  0  0  0  0  0
    5.0980   35.6760   17.1410   O 0  0  0  0  0  0  0  0  0  0  0  0
    7.0740   37.7710   17.1870   O 0  0  0  0  0  0  0  0  0  0  0  0
    6.1890   33.9130   22.2390   O 0  0  0  0  0  0  0  0  0  0  0  0
  1  2  1  0  0  0  0
  1 13  2  0  0  0  0
  1 14  1  0  0  0  0
  2  3  2  0  0  0  0
  2 16  1  0  0  0  0
  3  4  1  0  0  0  0
  4  5  1  0  0  0  0
  4 15  1  0  0  0  0
  5  6  1  0  0  0  0
  5 12  1  0  0  0  0
  6  7  1  0  0  0  0
  6 16  1  0  0  0  0
  7  8  1  0  0  0  0
  7 17  1  0  0  0  0
  8  9  1  0  0  0  0
  8 18  1  0  0  0  0
  9 19  1  0  0  0  0
 10 11  1  0  0  0  0
 10 12  1  0  0  0  0
 10 20  2  0  0  0  0
A    1
C1
A    2
C2
A    3
C3
A    4
C4
A    5
C5
A    6
C6
A    7
C7
A    8
C8
A    9
C9
A   10
C10
A   11
C11
A   12
N5
A   13
O1A
A   14
O1B
A   15
O4
A   16
O6
A   17
O7
A   18
O8
A   19
O9
A   20
O10
M  END
>  <InstanceId>
2VK6_DAN_A_2692

>  <ChemCompId>
DAN

>  <PdbId>
2VK6

>  <ChainId>
A

>  <ResidueNumber>
2692

>  <InsertionCode>


>  <Model>
1

>  <AltIds>


>  <MissingHeavyAtoms>
0

>  <ObservedFormula>
C11 N O8

>  <Name>
2-DEOXY-2,3-DEHYDRO-N-ACETYL-NEURAMINIC ACID

>  <SystematicName>
(4S,5R,6R)-5-acetamido-4-hydroxy-6-[(1R,2R)-1,2,3-trihydroxypropyl]-5,6-dihydro-4H-pyran-2-carboxylic acid

>  <Synonyms>


>  <Type>
NON-POLYMER

>  <Formula>
C11 H17 N O8

>  <MolecularWeight>
291.255

>  <ModifiedDate>
2011-06-04

>  <Parent>


>  <OneLetterCode>


>  <SubcomponentList>


>  <AmbiguousFlag>
N

>  <InChI>
InChI=1S/C11H17NO8/c1-4(14)12-8-5(15)2-7(11(18)19)20-10(8)9(17)6(16)3-13/h2,5-6,8-10,13,15-17H,3H2,1H3,(H,12,14)(H,18,19)/t5-,6+,8+,9+,10+/m0/s1

>  <InChIKey>
JINJZWSZQKHCIP-UFGQHTETSA-N

>  <SMILES>
CC(=O)N[C@@H]1[C@H](C=C(O[C@H]1[C@@H]([C@@H](CO)O)O)C(=O)O)O

$$$$
