3R5T_VBN_A_1


 59 63  0  0  0  0  0  0  0  0999 V2000
   26.5368   17.5306    4.8467 C   0  0  0  0  0  0  0  0  0  0  0  0
   26.4748   17.6693    6.0227 O   0  0  0  0  0  0  0  0  0  0  0  0
   26.9284   18.6453    3.9919 N   0  0  0  0  0  0  0  0  0  0  0  0
   26.6965   15.0255    4.4991 N   0  0  0  0  0  0  0  0  0  0  0  0
   26.0224   16.2685    4.1669 C   0  0  0  0  0  0  0  0  0  0  0  0
   24.5298   15.9114    4.5214 C   0  0  0  0  0  0  0  0  0  0  0  0
   26.0123   14.5419    5.6698 C   0  0  0  0  0  0  0  0  0  0  0  0
   24.6569   14.9336    5.6438 O   0  0  0  0  0  0  0  0  0  0  0  0
   23.5753   15.5842    3.3839 C   0  0  0  0  0  0  0  0  0  0  0  0
   24.8761   10.8793    8.7505 O   0  0  0  0  0  0  0  0  0  0  0  0
   24.4429   13.3735    7.7543 O   0  0  0  0  0  0  0  0  0  0  0  0
   27.7561   11.3175    6.4270 C   0  0  0  0  0  0  0  0  0  0  0  0
   26.8850   10.7289    7.3874 C   0  0  0  0  0  0  0  0  0  0  0  0
   27.4930   12.5941    5.9094 C   0  0  0  0  0  0  0  0  0  0  0  0
   25.7424   11.4258    7.8218 C   0  0  0  0  0  0  0  0  0  0  0  0
   25.5037   12.6392    7.3203 C   0  0  0  0  0  0  0  0  0  0  0  0
   26.4190   13.2577    6.3488 C   0  0  0  0  0  0  0  0  0  0  0  0
   25.0435   10.0273    9.1028 H   0  0  0  0  0  0  0  0  0  0  0  0
   23.8418   13.0078    8.3730 H   0  0  0  0  0  0  0  0  0  0  0  0
   27.1325   19.9535    4.6213 C   0  0  0  0  0  0  0  0  0  0  0  0
   25.9794   20.9511    4.4921 C   0  0  0  0  0  0  0  0  0  0  0  0
   25.2214   21.2625    5.7935 C   0  0  0  0  0  0  0  0  0  0  0  0
   26.4458   21.6716    8.2930 O   0  0  0  0  0  0  0  0  0  0  0  0
   25.3159   20.2708    6.8618 N   0  0  0  0  0  0  0  0  0  0  0  0
   25.9502   20.6149    8.1135 C   0  0  0  0  0  0  0  0  0  0  0  0
   24.9472   19.3676    6.7289 H   0  0  0  0  0  0  0  0  0  0  0  0
   24.3007   16.3455   10.1053 O   0  0  0  0  0  0  0  0  0  0  0  0
   24.4756   17.9601    7.9969 O   0  0  0  0  0  0  0  0  0  0  0  0
   26.3868   19.0820   11.5716 C   0  0  0  0  0  0  0  0  0  0  0  0
   25.6444   17.8569   11.4780 C   0  0  0  0  0  0  0  0  0  0  0  0
   26.4853   19.9677   10.4367 C   0  0  0  0  0  0  0  0  0  0  0  0
   25.0051   17.5208   10.2493 C   0  0  0  0  0  0  0  0  0  0  0  0
   25.0895   18.3576    9.1749 C   0  0  0  0  0  0  0  0  0  0  0  0
   25.8659   19.6327    9.2762 C   0  0  0  0  0  0  0  0  0  0  0  0
   24.2266   15.7523   10.8267 H   0  0  0  0  0  0  0  0  0  0  0  0
   23.9965   17.1554    7.9666 H   0  0  0  0  0  0  0  0  0  0  0  0
   26.9448   18.5051    2.5326 C   0  0  0  0  0  0  0  0  0  0  0  0
   28.3444   18.4767    1.8953 C   0  0  0  0  0  0  0  0  0  0  0  0
   29.1482   17.1803    2.1508 C   0  0  0  0  0  0  0  0  0  0  0  0
   29.8341   14.8523    3.6992 O   0  0  0  0  0  0  0  0  0  0  0  0
   29.7349   17.1869    3.4894 N   0  0  0  0  0  0  0  0  0  0  0  0
   30.0148   15.9298    4.1893 C   0  0  0  0  0  0  0  0  0  0  0  0
   29.9442   18.0444    3.9254 H   0  0  0  0  0  0  0  0  0  0  0  0
   31.3044   18.1838    7.0822 C   0  0  0  0  0  0  0  0  0  0  0  0
   30.8280   14.8234    6.2865 N   0  0  0  0  0  0  0  0  0  0  0  0
   32.7084   16.2213    6.3417 O   0  0  0  0  0  0  0  0  0  0  0  0
   31.5675   17.1292    6.0217 C   0  0  0  0  0  0  0  0  0  0  0  0
   32.2504   14.9145    6.1791 C   0  0  0  0  0  0  0  0  0  0  0  0
   30.4032   16.0804    5.6548 C   0  0  0  0  0  0  0  0  0  0  0  0
   34.1314   10.4381    5.5969 O   0  0  0  0  0  0  0  0  0  0  0  0
   32.3329   12.3689    4.9562 O   0  0  0  0  0  0  0  0  0  0  0  0
   34.8712   13.0152    8.1709 C   0  0  0  0  0  0  0  0  0  0  0  0
   34.9395   11.7749    7.4550 C   0  0  0  0  0  0  0  0  0  0  0  0
   33.9683   14.0331    7.7702 C   0  0  0  0  0  0  0  0  0  0  0  0
   34.0972   11.5923    6.3608 C   0  0  0  0  0  0  0  0  0  0  0  0
   33.2283   12.5787    5.9790 C   0  0  0  0  0  0  0  0  0  0  0  0
   33.1446   13.8381    6.7252 C   0  0  0  0  0  0  0  0  0  0  0  0
   34.7134    9.7409    5.8272 H   0  0  0  0  0  0  0  0  0  0  0  0
   32.3635   11.5730    4.4626 H   0  0  0  0  0  0  0  0  0  0  0  0
  1  2  2  0  0  0
  1  5  1  0  0  0
  1  3  1  0  0  0
  4  5  1  0  0  0
  4  7  2  0  0  0
  5  6  1  0  0  0
  6  8  1  0  0  0
  6  9  1  0  0  0
 44 47  1  0  0  0
 23 25  2  0  0  0
 40 42  2  0  0  0
 27 32  1  0  0  0
 10 15  1  0  0  0
 50 55  1  0  0  0
 28 33  1  0  0  0
 11 16  1  0  0  0
 51 56  1  0  0  0
 29 30  2  0  0  0
 29 31  1  0  0  0
 12 13  2  0  0  0
 12 14  1  0  0  0
 52 53  2  0  0  0
 52 54  1  0  0  0
 30 32  1  0  0  0
 13 15  1  0  0  0
 53 55  1  0  0  0
 31 34  2  0  0  0
 14 17  2  0  0  0
 54 57  2  0  0  0
 21 22  1  0  0  0
 21 20  1  0  0  0
 38 39  1  0  0  0
 38 37  1  0  0  0
 22 24  1  0  0  0
 39 41  1  0  0  0
 20  3  1  0  0  0
 37  3  1  0  0  0
 24 25  1  0  0  0
 41 42  1  0  0  0
 45 48  2  0  0  0
 45 49  1  0  0  0
 46 47  1  0  0  0
 46 48  1  0  0  0
 25 34  1  0  0  0
 42 49  1  0  0  0
  7 17  1  0  0  0
  7  8  1  0  0  0
 32 33  2  0  0  0
 15 16  2  0  0  0
 55 56  2  0  0  0
 33 34  1  0  0  0
 16 17  1  0  0  0
 56 57  1  0  0  0
 57 48  1  0  0  0
 47 49  1  0  0  0
 27 35  1  0  0  0
 10 18  1  0  0  0
 50 58  1  0  0  0
 28 36  1  0  0  0
 11 19  1  0  0  0
 51 59  1  0  0  0
 24 26  1  0  0  0
 41 43  1  0  0  0
M  END
> <minimizedAffinity>
-10.59789

$$$$
3R5T_VBN_A_1


 59 63  0  0  0  0  0  0  0  0999 V2000
   25.6926   17.5222    5.3420 C   0  0  0  0  0  0  0  0  0  0  0  0
   24.6457   17.1147    5.7213 O   0  0  0  0  0  0  0  0  0  0  0  0
   25.8901   18.9488    5.1133 N   0  0  0  0  0  0  0  0  0  0  0  0
   27.2188   15.5601    5.8342 N   0  0  0  0  0  0  0  0  0  0  0  0
   26.7960   16.5764    4.8865 C   0  0  0  0  0  0  0  0  0  0  0  0
   26.4099   15.6921    3.6415 C   0  0  0  0  0  0  0  0  0  0  0  0
   26.3265   14.4540    5.6041 C   0  0  0  0  0  0  0  0  0  0  0  0
   25.9328   14.4137    4.2497 O   0  0  0  0  0  0  0  0  0  0  0  0
   27.3856   15.6176    2.4776 C   0  0  0  0  0  0  0  0  0  0  0  0
   24.1365   11.1328    8.4972 O   0  0  0  0  0  0  0  0  0  0  0  0
   24.2212   13.5912    7.3352 O   0  0  0  0  0  0  0  0  0  0  0  0
   27.4787   11.1175    6.8497 C   0  0  0  0  0  0  0  0  0  0  0  0
   26.3592   10.6857    7.6167 C   0  0  0  0  0  0  0  0  0  0  0  0
   27.4836   12.3796    6.2383 C   0  0  0  0  0  0  0  0  0  0  0  0
   25.2395   11.5253    7.7617 C   0  0  0  0  0  0  0  0  0  0  0  0
   25.2572   12.7232    7.1738 C   0  0  0  0  0  0  0  0  0  0  0  0
   26.4253   13.1792    6.4047 C   0  0  0  0  0  0  0  0  0  0  0  0
   24.1238   10.2918    8.9101 H   0  0  0  0  0  0  0  0  0  0  0  0
   23.4629   13.3307    7.8199 H   0  0  0  0  0  0  0  0  0  0  0  0
   24.7312   19.8343    5.2618 C   0  0  0  0  0  0  0  0  0  0  0  0
   25.0379   21.3243    5.4270 C   0  0  0  0  0  0  0  0  0  0  0  0
   25.1821   21.8161    6.8770 C   0  0  0  0  0  0  0  0  0  0  0  0
   27.2933   20.3973    8.0786 O   0  0  0  0  0  0  0  0  0  0  0  0
   25.0367   20.8124    7.9284 N   0  0  0  0  0  0  0  0  0  0  0  0
   26.2069   20.1713    8.4824 C   0  0  0  0  0  0  0  0  0  0  0  0
   24.1410   20.5727    8.2594 H   0  0  0  0  0  0  0  0  0  0  0  0
   24.0619   16.3098   10.8068 O   0  0  0  0  0  0  0  0  0  0  0  0
   24.3507   17.7678    8.5992 O   0  0  0  0  0  0  0  0  0  0  0  0
   26.6129   18.7713   12.0001 C   0  0  0  0  0  0  0  0  0  0  0  0
   25.6928   17.6694   12.0174 C   0  0  0  0  0  0  0  0  0  0  0  0
   26.7751   19.5719   10.8105 C   0  0  0  0  0  0  0  0  0  0  0  0
   24.9400   17.3707   10.8446 C   0  0  0  0  0  0  0  0  0  0  0  0
   25.0846   18.1283    9.7191 C   0  0  0  0  0  0  0  0  0  0  0  0
   26.0461   19.2748    9.7047 C   0  0  0  0  0  0  0  0  0  0  0  0
   23.9430   15.7728   11.5654 H   0  0  0  0  0  0  0  0  0  0  0  0
   23.7566   17.0444    8.6413 H   0  0  0  0  0  0  0  0  0  0  0  0
   27.1583   19.4573    4.5816 C   0  0  0  0  0  0  0  0  0  0  0  0
   27.2099   19.6116    3.0521 C   0  0  0  0  0  0  0  0  0  0  0  0
   28.4919   19.0590    2.3865 C   0  0  0  0  0  0  0  0  0  0  0  0
   30.5801   17.1013    2.0786 O   0  0  0  0  0  0  0  0  0  0  0  0
   29.4929   18.7119    3.3933 N   0  0  0  0  0  0  0  0  0  0  0  0
   30.4927   17.6737    3.1267 C   0  0  0  0  0  0  0  0  0  0  0  0
   29.4957   19.1802    4.2592 H   0  0  0  0  0  0  0  0  0  0  0  0
   30.7868   15.6150    6.4112 C   0  0  0  0  0  0  0  0  0  0  0  0
   32.3576   18.2208    4.7098 N   0  0  0  0  0  0  0  0  0  0  0  0
   30.8878   18.1341    6.5334 O   0  0  0  0  0  0  0  0  0  0  0  0
   30.5430   16.9388    5.7083 C   0  0  0  0  0  0  0  0  0  0  0  0
   31.7048   18.9498    5.7516 C   0  0  0  0  0  0  0  0  0  0  0  0
   31.3202   17.2503    4.3339 C   0  0  0  0  0  0  0  0  0  0  0  0
   31.6297   22.1063    9.4861 O   0  0  0  0  0  0  0  0  0  0  0  0
   30.4016   20.3202    7.8507 O   0  0  0  0  0  0  0  0  0  0  0  0
   34.3126   21.4117    7.0093 C   0  0  0  0  0  0  0  0  0  0  0  0
   33.6368   22.0084    8.1241 C   0  0  0  0  0  0  0  0  0  0  0  0
   33.6682   20.4302    6.2135 C   0  0  0  0  0  0  0  0  0  0  0  0
   32.3337   21.6044    8.4045 C   0  0  0  0  0  0  0  0  0  0  0  0
   31.7175   20.6565    7.6330 C   0  0  0  0  0  0  0  0  0  0  0  0
   32.4023   20.0630    6.4803 C   0  0  0  0  0  0  0  0  0  0  0  0
   32.0187   22.7565   10.0373 H   0  0  0  0  0  0  0  0  0  0  0  0
   29.9394   20.6846    8.5798 H   0  0  0  0  0  0  0  0  0  0  0  0
  1  2  2  0  0  0
  1  5  1  0  0  0
  1  3  1  0  0  0
  4  5  1  0  0  0
  4  7  2  0  0  0
  5  6  1  0  0  0
  6  8  1  0  0  0
  6  9  1  0  0  0
 44 47  1  0  0  0
 23 25  2  0  0  0
 40 42  2  0  0  0
 27 32  1  0  0  0
 10 15  1  0  0  0
 50 55  1  0  0  0
 28 33  1  0  0  0
 11 16  1  0  0  0
 51 56  1  0  0  0
 29 30  2  0  0  0
 29 31  1  0  0  0
 12 13  2  0  0  0
 12 14  1  0  0  0
 52 53  2  0  0  0
 52 54  1  0  0  0
 30 32  1  0  0  0
 13 15  1  0  0  0
 53 55  1  0  0  0
 31 34  2  0  0  0
 14 17  2  0  0  0
 54 57  2  0  0  0
 21 22  1  0  0  0
 21 20  1  0  0  0
 38 39  1  0  0  0
 38 37  1  0  0  0
 22 24  1  0  0  0
 39 41  1  0  0  0
 20  3  1  0  0  0
 37  3  1  0  0  0
 24 25  1  0  0  0
 41 42  1  0  0  0
 45 48  2  0  0  0
 45 49  1  0  0  0
 46 47  1  0  0  0
 46 48  1  0  0  0
 25 34  1  0  0  0
 42 49  1  0  0  0
  7 17  1  0  0  0
  7  8  1  0  0  0
 32 33  2  0  0  0
 15 16  2  0  0  0
 55 56  2  0  0  0
 33 34  1  0  0  0
 16 17  1  0  0  0
 56 57  1  0  0  0
 57 48  1  0  0  0
 47 49  1  0  0  0
 27 35  1  0  0  0
 10 18  1  0  0  0
 50 58  1  0  0  0
 28 36  1  0  0  0
 11 19  1  0  0  0
 51 59  1  0  0  0
 24 26  1  0  0  0
 41 43  1  0  0  0
M  END
> <minimizedAffinity>
-10.45532

$$$$
3R5T_VBN_A_1


 59 63  0  0  0  0  0  0  0  0999 V2000
   21.3555   21.7337    4.7447 C   0  0  0  0  0  0  0  0  0  0  0  0
   21.0272   22.4396    5.6391 O   0  0  0  0  0  0  0  0  0  0  0  0
   22.6775   21.8698    4.1444 N   0  0  0  0  0  0  0  0  0  0  0  0
   20.5137   19.3852    4.2998 N   0  0  0  0  0  0  0  0  0  0  0  0
   20.3608   20.8089    4.0556 C   0  0  0  0  0  0  0  0  0  0  0  0
   18.8645   21.0354    4.4929 C   0  0  0  0  0  0  0  0  0  0  0  0
   19.7499   19.1367    5.4945 C   0  0  0  0  0  0  0  0  0  0  0  0
   18.6533   20.0216    5.5697 O   0  0  0  0  0  0  0  0  0  0  0  0
   17.8069   21.1675    3.4085 C   0  0  0  0  0  0  0  0  0  0  0  0
   21.7800   15.6307    8.2843 O   0  0  0  0  0  0  0  0  0  0  0  0
   21.9680   17.9189    6.8249 O   0  0  0  0  0  0  0  0  0  0  0  0
   18.3660   15.9211    6.8196 C   0  0  0  0  0  0  0  0  0  0  0  0
   19.4696   15.4063    7.5576 C   0  0  0  0  0  0  0  0  0  0  0  0
   18.4830   17.1182    6.0985 C   0  0  0  0  0  0  0  0  0  0  0  0
   20.6917   16.1034    7.5744 C   0  0  0  0  0  0  0  0  0  0  0  0
   20.7888   17.2417    6.8847 C   0  0  0  0  0  0  0  0  0  0  0  0
   19.6566   17.7583    6.1004 C   0  0  0  0  0  0  0  0  0  0  0  0
   21.7121   14.8315    8.7687 H   0  0  0  0  0  0  0  0  0  0  0  0
   22.7080   17.6152    7.3130 H   0  0  0  0  0  0  0  0  0  0  0  0
   23.5313   22.9679    4.6074 C   0  0  0  0  0  0  0  0  0  0  0  0
   24.5694   22.6113    5.6737 C   0  0  0  0  0  0  0  0  0  0  0  0
   24.0613   22.6221    7.1252 C   0  0  0  0  0  0  0  0  0  0  0  0
   26.3843   21.9211    8.5487 O   0  0  0  0  0  0  0  0  0  0  0  0
   24.2441   21.3935    7.8941 N   0  0  0  0  0  0  0  0  0  0  0  0
   25.4809   21.1627    8.6044 C   0  0  0  0  0  0  0  0  0  0  0  0
   23.5244   20.7226    7.9282 H   0  0  0  0  0  0  0  0  0  0  0  0
   24.5137   16.3959    9.7262 O   0  0  0  0  0  0  0  0  0  0  0  0
   24.3882   18.3972    7.9763 O   0  0  0  0  0  0  0  0  0  0  0  0
   26.2470   19.0664   11.6894 C   0  0  0  0  0  0  0  0  0  0  0  0
   25.6801   17.7891   11.3610 C   0  0  0  0  0  0  0  0  0  0  0  0
   26.1814   20.1605   10.7508 C   0  0  0  0  0  0  0  0  0  0  0  0
   25.0518   17.6097   10.0944 C   0  0  0  0  0  0  0  0  0  0  0  0
   24.9812   18.6424    9.2056 C   0  0  0  0  0  0  0  0  0  0  0  0
   25.5750   19.9717    9.5512 C   0  0  0  0  0  0  0  0  0  0  0  0
   24.5483   15.6695   10.3170 H   0  0  0  0  0  0  0  0  0  0  0  0
   24.0254   17.5534    7.7911 H   0  0  0  0  0  0  0  0  0  0  0  0
   23.0705   21.0482    2.9955 C   0  0  0  0  0  0  0  0  0  0  0  0
   24.3502   20.2182    3.1938 C   0  0  0  0  0  0  0  0  0  0  0  0
   24.1272   18.6899    3.2740 C   0  0  0  0  0  0  0  0  0  0  0  0
   24.0778   16.7980    5.4433 O   0  0  0  0  0  0  0  0  0  0  0  0
   25.2919   18.0236    3.8534 N   0  0  0  0  0  0  0  0  0  0  0  0
   25.1402   17.0969    4.9789 C   0  0  0  0  0  0  0  0  0  0  0  0
   26.1875   18.1990    3.4839 H   0  0  0  0  0  0  0  0  0  0  0  0
   29.0095   16.7640    4.8059 C   0  0  0  0  0  0  0  0  0  0  0  0
   26.2778   15.5830    6.6212 N   0  0  0  0  0  0  0  0  0  0  0  0
   27.6055   14.6695    4.9195 O   0  0  0  0  0  0  0  0  0  0  0  0
   27.6306   16.1418    4.6741 C   0  0  0  0  0  0  0  0  0  0  0  0
   26.5903   14.4253    5.8435 C   0  0  0  0  0  0  0  0  0  0  0  0
   26.4444   16.6569    5.6321 C   0  0  0  0  0  0  0  0  0  0  0  0
   24.0963   11.0647    8.3735 O   0  0  0  0  0  0  0  0  0  0  0  0
   24.4426   13.6077    7.4871 O   0  0  0  0  0  0  0  0  0  0  0  0
   27.4185   10.8223    6.7246 C   0  0  0  0  0  0  0  0  0  0  0  0
   26.2603   10.4317    7.4739 C   0  0  0  0  0  0  0  0  0  0  0  0
   27.5399   12.1406    6.2153 C   0  0  0  0  0  0  0  0  0  0  0  0
   25.2607   11.3766    7.6924 C   0  0  0  0  0  0  0  0  0  0  0  0
   25.3837   12.6471    7.1980 C   0  0  0  0  0  0  0  0  0  0  0  0
   26.5785   13.0511    6.4502 C   0  0  0  0  0  0  0  0  0  0  0  0
   23.9759   10.2050    8.7264 H   0  0  0  0  0  0  0  0  0  0  0  0
   23.6694   13.3776    7.9637 H   0  0  0  0  0  0  0  0  0  0  0  0
  1  2  2  0  0  0
  1  5  1  0  0  0
  1  3  1  0  0  0
  4  5  1  0  0  0
  4  7  2  0  0  0
  5  6  1  0  0  0
  6  8  1  0  0  0
  6  9  1  0  0  0
 44 47  1  0  0  0
 23 25  2  0  0  0
 40 42  2  0  0  0
 27 32  1  0  0  0
 10 15  1  0  0  0
 50 55  1  0  0  0
 28 33  1  0  0  0
 11 16  1  0  0  0
 51 56  1  0  0  0
 29 30  2  0  0  0
 29 31  1  0  0  0
 12 13  2  0  0  0
 12 14  1  0  0  0
 52 53  2  0  0  0
 52 54  1  0  0  0
 30 32  1  0  0  0
 13 15  1  0  0  0
 53 55  1  0  0  0
 31 34  2  0  0  0
 14 17  2  0  0  0
 54 57  2  0  0  0
 21 22  1  0  0  0
 21 20  1  0  0  0
 38 39  1  0  0  0
 38 37  1  0  0  0
 22 24  1  0  0  0
 39 41  1  0  0  0
 20  3  1  0  0  0
 37  3  1  0  0  0
 24 25  1  0  0  0
 41 42  1  0  0  0
 45 48  2  0  0  0
 45 49  1  0  0  0
 46 47  1  0  0  0
 46 48  1  0  0  0
 25 34  1  0  0  0
 42 49  1  0  0  0
  7 17  1  0  0  0
  7  8  1  0  0  0
 32 33  2  0  0  0
 15 16  2  0  0  0
 55 56  2  0  0  0
 33 34  1  0  0  0
 16 17  1  0  0  0
 56 57  1  0  0  0
 57 48  1  0  0  0
 47 49  1  0  0  0
 27 35  1  0  0  0
 10 18  1  0  0  0
 50 58  1  0  0  0
 28 36  1  0  0  0
 11 19  1  0  0  0
 51 59  1  0  0  0
 24 26  1  0  0  0
 41 43  1  0  0  0
M  END
> <minimizedAffinity>
-10.42593

$$$$
3R5T_VBN_A_1


 59 63  0  0  0  0  0  0  0  0999 V2000
   29.5248   15.7070    4.6321 C   0  0  0  0  0  0  0  0  0  0  0  0
   29.7858   14.7298    4.0132 O   0  0  0  0  0  0  0  0  0  0  0  0
   28.4686   16.6057    4.1812 N   0  0  0  0  0  0  0  0  0  0  0  0
   30.9378   15.1388    6.6575 N   0  0  0  0  0  0  0  0  0  0  0  0
   30.3983   16.1714    5.7900 C   0  0  0  0  0  0  0  0  0  0  0  0
   31.7137   16.9143    5.3439 C   0  0  0  0  0  0  0  0  0  0  0  0
   32.1713   14.7434    6.0293 C   0  0  0  0  0  0  0  0  0  0  0  0
   32.7476   15.8359    5.3469 O   0  0  0  0  0  0  0  0  0  0  0  0
   32.0533   18.2414    6.0039 C   0  0  0  0  0  0  0  0  0  0  0  0
   34.3465   10.3594    5.5338 O   0  0  0  0  0  0  0  0  0  0  0  0
   32.4917   12.1971    4.7696 O   0  0  0  0  0  0  0  0  0  0  0  0
   34.7145   12.9921    8.1450 C   0  0  0  0  0  0  0  0  0  0  0  0
   34.9165   11.7815    7.4229 C   0  0  0  0  0  0  0  0  0  0  0  0
   33.7706   13.9348    7.7123 C   0  0  0  0  0  0  0  0  0  0  0  0
   34.1704   11.5239    6.2581 C   0  0  0  0  0  0  0  0  0  0  0  0
   33.2765   12.4300    5.8571 C   0  0  0  0  0  0  0  0  0  0  0  0
   33.0491   13.6676    6.6191 C   0  0  0  0  0  0  0  0  0  0  0  0
   34.9741    9.7231    5.8152 H   0  0  0  0  0  0  0  0  0  0  0  0
   32.6118   11.4178    4.2635 H   0  0  0  0  0  0  0  0  0  0  0  0
   27.8258   16.3183    2.8954 C   0  0  0  0  0  0  0  0  0  0  0  0
   26.3546   16.7206    2.7722 C   0  0  0  0  0  0  0  0  0  0  0  0
   25.3661   15.8875    3.6054 C   0  0  0  0  0  0  0  0  0  0  0  0
   25.9144   15.5111    6.3389 O   0  0  0  0  0  0  0  0  0  0  0  0
   25.8836   14.6592    4.2033 N   0  0  0  0  0  0  0  0  0  0  0  0
   26.0993   14.5850    5.6300 C   0  0  0  0  0  0  0  0  0  0  0  0
   26.0853   13.8818    3.6339 H   0  0  0  0  0  0  0  0  0  0  0  0
   25.1586   10.8817    8.8419 O   0  0  0  0  0  0  0  0  0  0  0  0
   24.4174   13.1887    7.7413 O   0  0  0  0  0  0  0  0  0  0  0  0
   27.9831   11.3767    6.4404 C   0  0  0  0  0  0  0  0  0  0  0  0
   27.1742   10.7767    7.4634 C   0  0  0  0  0  0  0  0  0  0  0  0
   27.5941   12.6294    5.8391 C   0  0  0  0  0  0  0  0  0  0  0  0
   25.9782   11.4304    7.8799 C   0  0  0  0  0  0  0  0  0  0  0  0
   25.6088   12.6182    7.3194 C   0  0  0  0  0  0  0  0  0  0  0  0
   26.4538   13.2392    6.2520 C   0  0  0  0  0  0  0  0  0  0  0  0
   25.3879   10.0668    9.2435 H   0  0  0  0  0  0  0  0  0  0  0  0
   23.9113   12.7744    8.4122 H   0  0  0  0  0  0  0  0  0  0  0  0
   28.1814   17.8503    4.9010 C   0  0  0  0  0  0  0  0  0  0  0  0
   28.8261   19.1130    4.3044 C   0  0  0  0  0  0  0  0  0  0  0  0
   27.8615   20.0180    3.5030 C   0  0  0  0  0  0  0  0  0  0  0  0
   26.3304   22.3789    4.1110 O   0  0  0  0  0  0  0  0  0  0  0  0
   26.5368   20.0419    4.1199 N   0  0  0  0  0  0  0  0  0  0  0  0
   25.8679   21.3145    4.4058 C   0  0  0  0  0  0  0  0  0  0  0  0
   26.0891   19.1946    4.3458 H   0  0  0  0  0  0  0  0  0  0  0  0
   22.7568   23.0214    5.9933 C   0  0  0  0  0  0  0  0  0  0  0  0
   24.6400   20.0966    6.2202 N   0  0  0  0  0  0  0  0  0  0  0  0
   24.5263   22.0508    7.5092 O   0  0  0  0  0  0  0  0  0  0  0  0
   24.1713   22.4850    6.1258 C   0  0  0  0  0  0  0  0  0  0  0  0
   25.0594   20.7661    7.4114 C   0  0  0  0  0  0  0  0  0  0  0  0
   24.6077   21.2040    5.2549 C   0  0  0  0  0  0  0  0  0  0  0  0
   24.9602   16.4625    9.7318 O   0  0  0  0  0  0  0  0  0  0  0  0
   24.4132   18.0206    7.5764 O   0  0  0  0  0  0  0  0  0  0  0  0
   25.9349   19.8224   10.9871 C   0  0  0  0  0  0  0  0  0  0  0  0
   25.6789   18.4118   10.9876 C   0  0  0  0  0  0  0  0  0  0  0  0
   25.7035   20.5993    9.8232 C   0  0  0  0  0  0  0  0  0  0  0  0
   25.1954   17.8241    9.8210 C   0  0  0  0  0  0  0  0  0  0  0  0
   24.9745   18.5793    8.7010 C   0  0  0  0  0  0  0  0  0  0  0  0
   25.2165   20.0254    8.7088 C   0  0  0  0  0  0  0  0  0  0  0  0
   25.1002   15.9130   10.4777 H   0  0  0  0  0  0  0  0  0  0  0  0
   24.2475   17.0990    7.5439 H   0  0  0  0  0  0  0  0  0  0  0  0
  1  2  2  0  0  0
  1  5  1  0  0  0
  1  3  1  0  0  0
  4  5  1  0  0  0
  4  7  2  0  0  0
  5  6  1  0  0  0
  6  8  1  0  0  0
  6  9  1  0  0  0
 44 47  1  0  0  0
 23 25  2  0  0  0
 40 42  2  0  0  0
 27 32  1  0  0  0
 10 15  1  0  0  0
 50 55  1  0  0  0
 28 33  1  0  0  0
 11 16  1  0  0  0
 51 56  1  0  0  0
 29 30  2  0  0  0
 29 31  1  0  0  0
 12 13  2  0  0  0
 12 14  1  0  0  0
 52 53  2  0  0  0
 52 54  1  0  0  0
 30 32  1  0  0  0
 13 15  1  0  0  0
 53 55  1  0  0  0
 31 34  2  0  0  0
 14 17  2  0  0  0
 54 57  2  0  0  0
 21 22  1  0  0  0
 21 20  1  0  0  0
 38 39  1  0  0  0
 38 37  1  0  0  0
 22 24  1  0  0  0
 39 41  1  0  0  0
 20  3  1  0  0  0
 37  3  1  0  0  0
 24 25  1  0  0  0
 41 42  1  0  0  0
 45 48  2  0  0  0
 45 49  1  0  0  0
 46 47  1  0  0  0
 46 48  1  0  0  0
 25 34  1  0  0  0
 42 49  1  0  0  0
  7 17  1  0  0  0
  7  8  1  0  0  0
 32 33  2  0  0  0
 15 16  2  0  0  0
 55 56  2  0  0  0
 33 34  1  0  0  0
 16 17  1  0  0  0
 56 57  1  0  0  0
 57 48  1  0  0  0
 47 49  1  0  0  0
 27 35  1  0  0  0
 10 18  1  0  0  0
 50 58  1  0  0  0
 28 36  1  0  0  0
 11 19  1  0  0  0
 51 59  1  0  0  0
 24 26  1  0  0  0
 41 43  1  0  0  0
M  END
> <minimizedAffinity>
-9.88526

$$$$
3R5T_VBN_A_1


 59 63  0  0  0  0  0  0  0  0999 V2000
   26.1796   19.2388    4.1081 C   0  0  0  0  0  0  0  0  0  0  0  0
   27.3127   19.5823    4.1732 O   0  0  0  0  0  0  0  0  0  0  0  0
   25.7935   18.1291    3.2445 N   0  0  0  0  0  0  0  0  0  0  0  0
   24.5702   19.5880    6.0342 N   0  0  0  0  0  0  0  0  0  0  0  0
   25.0641   20.0532    4.7498 C   0  0  0  0  0  0  0  0  0  0  0  0
   25.4693   21.5354    5.0965 C   0  0  0  0  0  0  0  0  0  0  0  0
   25.4333   20.2109    7.0034 C   0  0  0  0  0  0  0  0  0  0  0  0
   25.8789   21.4639    6.5314 O   0  0  0  0  0  0  0  0  0  0  0  0
   24.5385   22.6583    4.6667 C   0  0  0  0  0  0  0  0  0  0  0  0
   25.4451   17.0608   10.7813 O   0  0  0  0  0  0  0  0  0  0  0  0
   25.3499   17.5770    8.1119 O   0  0  0  0  0  0  0  0  0  0  0  0
   25.2539   20.7812   10.6985 C   0  0  0  0  0  0  0  0  0  0  0  0
   25.3211   19.4525   11.2062 C   0  0  0  0  0  0  0  0  0  0  0  0
   25.2343   21.0194    9.3166 C   0  0  0  0  0  0  0  0  0  0  0  0
   25.3758   18.3619   10.3188 C   0  0  0  0  0  0  0  0  0  0  0  0
   25.3575   18.6030    9.0064 C   0  0  0  0  0  0  0  0  0  0  0  0
   25.2602   19.9745    8.4832 C   0  0  0  0  0  0  0  0  0  0  0  0
   25.4580   16.8912   11.7028 H   0  0  0  0  0  0  0  0  0  0  0  0
   25.4105   16.6920    8.4137 H   0  0  0  0  0  0  0  0  0  0  0  0
   26.8250   17.5343    2.3892 C   0  0  0  0  0  0  0  0  0  0  0  0
   27.3023   16.1347    2.7824 C   0  0  0  0  0  0  0  0  0  0  0  0
   27.8437   15.9955    4.2152 C   0  0  0  0  0  0  0  0  0  0  0  0
   26.1264   15.3141    6.3366 O   0  0  0  0  0  0  0  0  0  0  0  0
   27.7417   14.6745    4.8303 N   0  0  0  0  0  0  0  0  0  0  0  0
   26.7980   14.4463    5.9003 C   0  0  0  0  0  0  0  0  0  0  0  0
   28.3161   13.9394    4.5156 H   0  0  0  0  0  0  0  0  0  0  0  0
   24.1233   11.0777    8.4328 O   0  0  0  0  0  0  0  0  0  0  0  0
   24.3910   13.5686    7.5349 O   0  0  0  0  0  0  0  0  0  0  0  0
   27.3511   10.7396    6.5734 C   0  0  0  0  0  0  0  0  0  0  0  0
   26.2152   10.3840    7.3761 C   0  0  0  0  0  0  0  0  0  0  0  0
   27.5095   12.0879    6.0842 C   0  0  0  0  0  0  0  0  0  0  0  0
   25.2410   11.3773    7.6850 C   0  0  0  0  0  0  0  0  0  0  0  0
   25.3890   12.6553    7.2306 C   0  0  0  0  0  0  0  0  0  0  0  0
   26.5734   13.0212    6.3926 C   0  0  0  0  0  0  0  0  0  0  0  0
   23.9963   10.2080    8.7576 H   0  0  0  0  0  0  0  0  0  0  0  0
   23.6620   13.3076    8.0625 H   0  0  0  0  0  0  0  0  0  0  0  0
   24.3874   17.7380    3.1050 C   0  0  0  0  0  0  0  0  0  0  0  0
   23.9307   16.6011    4.0350 C   0  0  0  0  0  0  0  0  0  0  0  0
   22.5089   16.0622    3.7523 C   0  0  0  0  0  0  0  0  0  0  0  0
   22.2106   15.1931    6.4805 O   0  0  0  0  0  0  0  0  0  0  0  0
   21.5493   16.5935    4.7182 N   0  0  0  0  0  0  0  0  0  0  0  0
   21.4749   16.0468    6.0762 C   0  0  0  0  0  0  0  0  0  0  0  0
   20.9467   17.3259    4.4541 H   0  0  0  0  0  0  0  0  0  0  0  0
   17.7490   15.6308    7.1047 C   0  0  0  0  0  0  0  0  0  0  0  0
   20.3487   17.9481    7.2596 N   0  0  0  0  0  0  0  0  0  0  0  0
   18.4567   17.7293    5.8937 O   0  0  0  0  0  0  0  0  0  0  0  0
   18.8131   16.3317    6.2785 C   0  0  0  0  0  0  0  0  0  0  0  0
   19.5377   18.5384    6.2414 C   0  0  0  0  0  0  0  0  0  0  0  0
   20.2853   16.5249    6.8994 C   0  0  0  0  0  0  0  0  0  0  0  0
   21.3907   23.0247    5.6458 O   0  0  0  0  0  0  0  0  0  0  0  0
   21.6913   20.3583    6.0614 O   0  0  0  0  0  0  0  0  0  0  0  0
   17.8598   21.9441    6.0697 C   0  0  0  0  0  0  0  0  0  0  0  0
   18.9842   22.8143    5.8857 C   0  0  0  0  0  0  0  0  0  0  0  0
   18.0438   20.5453    6.2160 C   0  0  0  0  0  0  0  0  0  0  0  0
   20.2594   22.2549    5.8573 C   0  0  0  0  0  0  0  0  0  0  0  0
   20.4303   20.9042    5.9987 C   0  0  0  0  0  0  0  0  0  0  0  0
   19.2810   20.0182    6.2084 C   0  0  0  0  0  0  0  0  0  0  0  0
   21.3134   23.9530    5.5443 H   0  0  0  0  0  0  0  0  0  0  0  0
   22.4438   20.9012    5.9313 H   0  0  0  0  0  0  0  0  0  0  0  0
  1  2  2  0  0  0
  1  5  1  0  0  0
  1  3  1  0  0  0
  4  5  1  0  0  0
  4  7  2  0  0  0
  5  6  1  0  0  0
  6  8  1  0  0  0
  6  9  1  0  0  0
 44 47  1  0  0  0
 23 25  2  0  0  0
 40 42  2  0  0  0
 27 32  1  0  0  0
 10 15  1  0  0  0
 50 55  1  0  0  0
 28 33  1  0  0  0
 11 16  1  0  0  0
 51 56  1  0  0  0
 29 30  2  0  0  0
 29 31  1  0  0  0
 12 13  2  0  0  0
 12 14  1  0  0  0
 52 53  2  0  0  0
 52 54  1  0  0  0
 30 32  1  0  0  0
 13 15  1  0  0  0
 53 55  1  0  0  0
 31 34  2  0  0  0
 14 17  2  0  0  0
 54 57  2  0  0  0
 21 22  1  0  0  0
 21 20  1  0  0  0
 38 39  1  0  0  0
 38 37  1  0  0  0
 22 24  1  0  0  0
 39 41  1  0  0  0
 20  3  1  0  0  0
 37  3  1  0  0  0
 24 25  1  0  0  0
 41 42  1  0  0  0
 45 48  2  0  0  0
 45 49  1  0  0  0
 46 47  1  0  0  0
 46 48  1  0  0  0
 25 34  1  0  0  0
 42 49  1  0  0  0
  7 17  1  0  0  0
  7  8  1  0  0  0
 32 33  2  0  0  0
 15 16  2  0  0  0
 55 56  2  0  0  0
 33 34  1  0  0  0
 16 17  1  0  0  0
 56 57  1  0  0  0
 57 48  1  0  0  0
 47 49  1  0  0  0
 27 35  1  0  0  0
 10 18  1  0  0  0
 50 58  1  0  0  0
 28 36  1  0  0  0
 11 19  1  0  0  0
 51 59  1  0  0  0
 24 26  1  0  0  0
 41 43  1  0  0  0
M  END
> <minimizedAffinity>
-9.75585

$$$$
3R5T_VBN_A_1


 59 63  0  0  0  0  0  0  0  0999 V2000
   24.9067   18.2993    4.9939 C   0  0  0  0  0  0  0  0  0  0  0  0
   25.3982   18.3421    6.0722 O   0  0  0  0  0  0  0  0  0  0  0  0
   24.0343   19.3750    4.5376 N   0  0  0  0  0  0  0  0  0  0  0  0
   26.0635   16.1147    4.4360 N   0  0  0  0  0  0  0  0  0  0  0  0
   24.9933   17.0481    4.1300 C   0  0  0  0  0  0  0  0  0  0  0  0
   23.7316   16.1104    4.2302 C   0  0  0  0  0  0  0  0  0  0  0  0
   25.5128   15.2474    5.4445 C   0  0  0  0  0  0  0  0  0  0  0  0
   24.1213   15.1016    5.2609 O   0  0  0  0  0  0  0  0  0  0  0  0
   23.0946   15.6160    2.9410 C   0  0  0  0  0  0  0  0  0  0  0  0
   25.6904   11.3254    8.4081 O   0  0  0  0  0  0  0  0  0  0  0  0
   24.4779   13.6009    7.5400 O   0  0  0  0  0  0  0  0  0  0  0  0
   28.1798   12.6777    5.9875 C   0  0  0  0  0  0  0  0  0  0  0  0
   27.5770   11.8266    6.9571 C   0  0  0  0  0  0  0  0  0  0  0  0
   27.5195   13.8301    5.5372 C   0  0  0  0  0  0  0  0  0  0  0  0
   26.3028   12.1340    7.4686 C   0  0  0  0  0  0  0  0  0  0  0  0
   25.6854   13.2331    7.0306 C   0  0  0  0  0  0  0  0  0  0  0  0
   26.3208   14.1263    6.0495 C   0  0  0  0  0  0  0  0  0  0  0  0
   26.1237   10.5537    8.7158 H   0  0  0  0  0  0  0  0  0  0  0  0
   24.0475   13.0534    8.1668 H   0  0  0  0  0  0  0  0  0  0  0  0
   23.7046   20.4410    5.4884 C   0  0  0  0  0  0  0  0  0  0  0  0
   24.7014   21.5987    5.5756 C   0  0  0  0  0  0  0  0  0  0  0  0
   25.1875   21.9516    6.9914 C   0  0  0  0  0  0  0  0  0  0  0  0
   27.2853   20.4435    8.1043 O   0  0  0  0  0  0  0  0  0  0  0  0
   25.0374   20.9190    8.0136 N   0  0  0  0  0  0  0  0  0  0  0  0
   26.2017   20.2318    8.5232 C   0  0  0  0  0  0  0  0  0  0  0  0
   24.1427   20.6912    8.3554 H   0  0  0  0  0  0  0  0  0  0  0  0
   24.0670   16.2999   10.7366 O   0  0  0  0  0  0  0  0  0  0  0  0
   24.3537   17.8196    8.5707 O   0  0  0  0  0  0  0  0  0  0  0  0
   26.6077   18.7362   12.0013 C   0  0  0  0  0  0  0  0  0  0  0  0
   25.6915   17.6311   11.9867 C   0  0  0  0  0  0  0  0  0  0  0  0
   26.7688   19.5700   10.8346 C   0  0  0  0  0  0  0  0  0  0  0  0
   24.9414   17.3625   10.8051 C   0  0  0  0  0  0  0  0  0  0  0  0
   25.0848   18.1514    9.7012 C   0  0  0  0  0  0  0  0  0  0  0  0
   26.0424   19.3012    9.7200 C   0  0  0  0  0  0  0  0  0  0  0  0
   23.9490   15.7417   11.4798 H   0  0  0  0  0  0  0  0  0  0  0  0
   23.7622   17.0932    8.5918 H   0  0  0  0  0  0  0  0  0  0  0  0
   23.3684   19.3018    3.2334 C   0  0  0  0  0  0  0  0  0  0  0  0
   23.7526   20.4124    2.2410 C   0  0  0  0  0  0  0  0  0  0  0  0
   22.7727   21.6080    2.1930 C   0  0  0  0  0  0  0  0  0  0  0  0
   21.4707   22.9568    4.3779 O   0  0  0  0  0  0  0  0  0  0  0  0
   21.4808   21.2458    2.7726 N   0  0  0  0  0  0  0  0  0  0  0  0
   20.9331   21.9964    3.9063 C   0  0  0  0  0  0  0  0  0  0  0  0
   20.9734   20.4900    2.3979 H   0  0  0  0  0  0  0  0  0  0  0  0
   18.3985   21.9230    6.8530 C   0  0  0  0  0  0  0  0  0  0  0  0
   19.4681   19.9789    4.1644 N   0  0  0  0  0  0  0  0  0  0  0  0
   19.8869   19.9209    6.4697 O   0  0  0  0  0  0  0  0  0  0  0  0
   19.6292   21.3593    6.1649 C   0  0  0  0  0  0  0  0  0  0  0  0
   20.0688   19.2697    5.2503 C   0  0  0  0  0  0  0  0  0  0  0  0
   19.7037   21.3751    4.5573 C   0  0  0  0  0  0  0  0  0  0  0  0
   21.8107   15.2112    7.3501 O   0  0  0  0  0  0  0  0  0  0  0  0
   21.9203   17.8817    6.8714 O   0  0  0  0  0  0  0  0  0  0  0  0
   19.1201   15.6151    4.8179 C   0  0  0  0  0  0  0  0  0  0  0  0
   20.0218   14.9701    5.7269 C   0  0  0  0  0  0  0  0  0  0  0  0
   19.1557   17.0219    4.6397 C   0  0  0  0  0  0  0  0  0  0  0  0
   20.9341   15.7559    6.4271 C   0  0  0  0  0  0  0  0  0  0  0  0
   20.9632   17.1130    6.2509 C   0  0  0  0  0  0  0  0  0  0  0  0
   20.0548   17.7686    5.3049 C   0  0  0  0  0  0  0  0  0  0  0  0
   21.8200   14.2860    7.4981 H   0  0  0  0  0  0  0  0  0  0  0  0
   22.5141   17.4889    7.4805 H   0  0  0  0  0  0  0  0  0  0  0  0
  1  2  2  0  0  0
  1  5  1  0  0  0
  1  3  1  0  0  0
  4  5  1  0  0  0
  4  7  2  0  0  0
  5  6  1  0  0  0
  6  8  1  0  0  0
  6  9  1  0  0  0
 44 47  1  0  0  0
 23 25  2  0  0  0
 40 42  2  0  0  0
 27 32  1  0  0  0
 10 15  1  0  0  0
 50 55  1  0  0  0
 28 33  1  0  0  0
 11 16  1  0  0  0
 51 56  1  0  0  0
 29 30  2  0  0  0
 29 31  1  0  0  0
 12 13  2  0  0  0
 12 14  1  0  0  0
 52 53  2  0  0  0
 52 54  1  0  0  0
 30 32  1  0  0  0
 13 15  1  0  0  0
 53 55  1  0  0  0
 31 34  2  0  0  0
 14 17  2  0  0  0
 54 57  2  0  0  0
 21 22  1  0  0  0
 21 20  1  0  0  0
 38 39  1  0  0  0
 38 37  1  0  0  0
 22 24  1  0  0  0
 39 41  1  0  0  0
 20  3  1  0  0  0
 37  3  1  0  0  0
 24 25  1  0  0  0
 41 42  1  0  0  0
 45 48  2  0  0  0
 45 49  1  0  0  0
 46 47  1  0  0  0
 46 48  1  0  0  0
 25 34  1  0  0  0
 42 49  1  0  0  0
  7 17  1  0  0  0
  7  8  1  0  0  0
 32 33  2  0  0  0
 15 16  2  0  0  0
 55 56  2  0  0  0
 33 34  1  0  0  0
 16 17  1  0  0  0
 56 57  1  0  0  0
 57 48  1  0  0  0
 47 49  1  0  0  0
 27 35  1  0  0  0
 10 18  1  0  0  0
 50 58  1  0  0  0
 28 36  1  0  0  0
 11 19  1  0  0  0
 51 59  1  0  0  0
 24 26  1  0  0  0
 41 43  1  0  0  0
M  END
> <minimizedAffinity>
-9.67620

$$$$
3R5T_VBN_A_1


 59 63  0  0  0  0  0  0  0  0999 V2000
   24.2684   16.5269    4.7106 C   0  0  0  0  0  0  0  0  0  0  0  0
   23.4760   15.9111    5.3423 O   0  0  0  0  0  0  0  0  0  0  0  0
   23.8277   17.4359    3.6589 N   0  0  0  0  0  0  0  0  0  0  0  0
   26.1879   15.3903    5.9128 N   0  0  0  0  0  0  0  0  0  0  0  0
   25.7619   16.2509    4.8229 C   0  0  0  0  0  0  0  0  0  0  0  0
   26.3703   15.4961    3.5814 C   0  0  0  0  0  0  0  0  0  0  0  0
   26.0926   14.0557    5.3814 C   0  0  0  0  0  0  0  0  0  0  0  0
   26.3455   14.0602    3.9932 O   0  0  0  0  0  0  0  0  0  0  0  0
   27.6419   16.0451    2.9539 C   0  0  0  0  0  0  0  0  0  0  0  0
   24.8058   10.8594    8.8920 O   0  0  0  0  0  0  0  0  0  0  0  0
   24.4841   13.2296    7.5958 O   0  0  0  0  0  0  0  0  0  0  0  0
   27.6871   10.8696    6.5293 C   0  0  0  0  0  0  0  0  0  0  0  0
   26.7958   10.4462    7.5559 C   0  0  0  0  0  0  0  0  0  0  0  0
   27.4812   12.0837    5.8583 C   0  0  0  0  0  0  0  0  0  0  0  0
   25.6905   11.2452    7.9020 C   0  0  0  0  0  0  0  0  0  0  0  0
   25.5060   12.3975    7.2547 C   0  0  0  0  0  0  0  0  0  0  0  0
   26.4428   12.8470    6.2134 C   0  0  0  0  0  0  0  0  0  0  0  0
   24.9351   10.0503    9.3466 H   0  0  0  0  0  0  0  0  0  0  0  0
   23.8706   12.9721    8.2556 H   0  0  0  0  0  0  0  0  0  0  0  0
   22.3969   17.4766    3.3425 C   0  0  0  0  0  0  0  0  0  0  0  0
   21.8137   18.8571    3.0333 C   0  0  0  0  0  0  0  0  0  0  0  0
   21.2514   19.6264    4.2405 C   0  0  0  0  0  0  0  0  0  0  0  0
   21.6775   19.5790    7.0208 O   0  0  0  0  0  0  0  0  0  0  0  0
   22.1865   20.4811    4.9679 N   0  0  0  0  0  0  0  0  0  0  0  0
   22.3315   20.3403    6.3984 C   0  0  0  0  0  0  0  0  0  0  0  0
   22.7179   21.1533    4.4832 H   0  0  0  0  0  0  0  0  0  0  0  0
   26.4179   20.4340    9.2634 O   0  0  0  0  0  0  0  0  0  0  0  0
   24.5622   19.0189    7.9841 O   0  0  0  0  0  0  0  0  0  0  0  0
   24.4521   23.2149    7.7166 C   0  0  0  0  0  0  0  0  0  0  0  0
   25.4622   22.5450    8.4860 C   0  0  0  0  0  0  0  0  0  0  0  0
   23.4381   22.4589    7.0220 C   0  0  0  0  0  0  0  0  0  0  0  0
   25.4559   21.1215    8.5561 C   0  0  0  0  0  0  0  0  0  0  0  0
   24.4958   20.4018    7.9067 C   0  0  0  0  0  0  0  0  0  0  0  0
   23.4459   21.1040    7.1043 C   0  0  0  0  0  0  0  0  0  0  0  0
   27.0891   20.9030    9.7189 H   0  0  0  0  0  0  0  0  0  0  0  0
   25.2324   18.6099    8.4955 H   0  0  0  0  0  0  0  0  0  0  0  0
   24.7997   18.1523    2.8273 C   0  0  0  0  0  0  0  0  0  0  0  0
   25.0185   19.6277    3.2032 C   0  0  0  0  0  0  0  0  0  0  0  0
   25.7027   19.8548    4.5715 C   0  0  0  0  0  0  0  0  0  0  0  0
   27.3377   18.8082    6.6973 O   0  0  0  0  0  0  0  0  0  0  0  0
   27.1351   19.5761    4.4897 N   0  0  0  0  0  0  0  0  0  0  0  0
   27.8657   19.0681    5.6546 C   0  0  0  0  0  0  0  0  0  0  0  0
   27.6142   19.7311    3.6437 H   0  0  0  0  0  0  0  0  0  0  0  0
   31.0139   19.7854    3.4897 C   0  0  0  0  0  0  0  0  0  0  0  0
   30.0428   18.0340    6.3431 N   0  0  0  0  0  0  0  0  0  0  0  0
   30.4873   17.4015    4.1304 O   0  0  0  0  0  0  0  0  0  0  0  0
   29.9891   18.8053    4.0332 C   0  0  0  0  0  0  0  0  0  0  0  0
   30.2034   16.9543    5.4203 C   0  0  0  0  0  0  0  0  0  0  0  0
   29.3816   19.0433    5.5043 C   0  0  0  0  0  0  0  0  0  0  0  0
   34.3026   14.7474    6.9173 O   0  0  0  0  0  0  0  0  0  0  0  0
   32.9944   16.8751    5.8524 O   0  0  0  0  0  0  0  0  0  0  0  0
   30.8657   13.3834    6.5397 C   0  0  0  0  0  0  0  0  0  0  0  0
   32.2684   13.4252    6.8333 C   0  0  0  0  0  0  0  0  0  0  0  0
   30.1949   14.5325    6.0482 C   0  0  0  0  0  0  0  0  0  0  0  0
   32.9561   14.6178    6.6217 C   0  0  0  0  0  0  0  0  0  0  0  0
   32.3029   15.7233    6.1476 C   0  0  0  0  0  0  0  0  0  0  0  0
   30.8729   15.6727    5.8275 C   0  0  0  0  0  0  0  0  0  0  0  0
   34.7834   14.0125    7.2440 H   0  0  0  0  0  0  0  0  0  0  0  0
   33.9092   16.9351    6.0461 H   0  0  0  0  0  0  0  0  0  0  0  0
  1  2  2  0  0  0
  1  5  1  0  0  0
  1  3  1  0  0  0
  4  5  1  0  0  0
  4  7  2  0  0  0
  5  6  1  0  0  0
  6  8  1  0  0  0
  6  9  1  0  0  0
 44 47  1  0  0  0
 23 25  2  0  0  0
 40 42  2  0  0  0
 27 32  1  0  0  0
 10 15  1  0  0  0
 50 55  1  0  0  0
 28 33  1  0  0  0
 11 16  1  0  0  0
 51 56  1  0  0  0
 29 30  2  0  0  0
 29 31  1  0  0  0
 12 13  2  0  0  0
 12 14  1  0  0  0
 52 53  2  0  0  0
 52 54  1  0  0  0
 30 32  1  0  0  0
 13 15  1  0  0  0
 53 55  1  0  0  0
 31 34  2  0  0  0
 14 17  2  0  0  0
 54 57  2  0  0  0
 21 22  1  0  0  0
 21 20  1  0  0  0
 38 39  1  0  0  0
 38 37  1  0  0  0
 22 24  1  0  0  0
 39 41  1  0  0  0
 20  3  1  0  0  0
 37  3  1  0  0  0
 24 25  1  0  0  0
 41 42  1  0  0  0
 45 48  2  0  0  0
 45 49  1  0  0  0
 46 47  1  0  0  0
 46 48  1  0  0  0
 25 34  1  0  0  0
 42 49  1  0  0  0
  7 17  1  0  0  0
  7  8  1  0  0  0
 32 33  2  0  0  0
 15 16  2  0  0  0
 55 56  2  0  0  0
 33 34  1  0  0  0
 16 17  1  0  0  0
 56 57  1  0  0  0
 57 48  1  0  0  0
 47 49  1  0  0  0
 27 35  1  0  0  0
 10 18  1  0  0  0
 50 58  1  0  0  0
 28 36  1  0  0  0
 11 19  1  0  0  0
 51 59  1  0  0  0
 24 26  1  0  0  0
 41 43  1  0  0  0
M  END
> <minimizedAffinity>
-9.38429

$$$$
3R5T_VBN_A_1


 59 63  0  0  0  0  0  0  0  0999 V2000
   28.4233   16.7812    4.4495 C   0  0  0  0  0  0  0  0  0  0  0  0
   29.3826   16.0957    4.5761 O   0  0  0  0  0  0  0  0  0  0  0  0
   28.5166   18.2236    4.6426 N   0  0  0  0  0  0  0  0  0  0  0  0
   26.9331   14.7335    4.3596 N   0  0  0  0  0  0  0  0  0  0  0  0
   27.0333   16.1808    4.2860 C   0  0  0  0  0  0  0  0  0  0  0  0
   26.0109   16.6155    5.4027 C   0  0  0  0  0  0  0  0  0  0  0  0
   26.7706   14.4508    5.7618 C   0  0  0  0  0  0  0  0  0  0  0  0
   26.0817   15.5046    6.3991 O   0  0  0  0  0  0  0  0  0  0  0  0
   24.6399   17.1133    4.9730 C   0  0  0  0  0  0  0  0  0  0  0  0
   24.2148   11.1508    8.3646 O   0  0  0  0  0  0  0  0  0  0  0  0
   24.7899   13.7230    7.6907 O   0  0  0  0  0  0  0  0  0  0  0  0
   27.1464   10.7420    6.1011 C   0  0  0  0  0  0  0  0  0  0  0  0
   26.0779   10.4163    6.9843 C   0  0  0  0  0  0  0  0  0  0  0  0
   27.4028   12.0750    5.7487 C   0  0  0  0  0  0  0  0  0  0  0  0
   25.2617   11.4359    7.5077 C   0  0  0  0  0  0  0  0  0  0  0  0
   25.5163   12.6998    7.1632 C   0  0  0  0  0  0  0  0  0  0  0  0
   26.6374   13.0376    6.2727 C   0  0  0  0  0  0  0  0  0  0  0  0
   24.0359   10.2635    8.6067 H   0  0  0  0  0  0  0  0  0  0  0  0
   24.0696   13.5407    8.2615 H   0  0  0  0  0  0  0  0  0  0  0  0
   29.7965   18.7731    5.0998 C   0  0  0  0  0  0  0  0  0  0  0  0
   30.0608   18.7035    6.6054 C   0  0  0  0  0  0  0  0  0  0  0  0
   31.4333   18.1424    7.0137 C   0  0  0  0  0  0  0  0  0  0  0  0
   33.1271   16.8763    5.1584 O   0  0  0  0  0  0  0  0  0  0  0  0
   31.6177   16.6991    6.8840 N   0  0  0  0  0  0  0  0  0  0  0  0
   32.5402   16.1735    5.9041 C   0  0  0  0  0  0  0  0  0  0  0  0
   31.1132   16.0844    7.4643 H   0  0  0  0  0  0  0  0  0  0  0  0
   32.4139   11.6664    3.7626 O   0  0  0  0  0  0  0  0  0  0  0  0
   31.9059   14.2748    3.6174 O   0  0  0  0  0  0  0  0  0  0  0  0
   33.7341   12.7571    7.0879 C   0  0  0  0  0  0  0  0  0  0  0  0
   33.3788   11.8947    5.9966 C   0  0  0  0  0  0  0  0  0  0  0  0
   33.4600   14.1723    7.0228 C   0  0  0  0  0  0  0  0  0  0  0  0
   32.7526   12.4509    4.8434 C   0  0  0  0  0  0  0  0  0  0  0  0
   32.4851   13.7872    4.7791 C   0  0  0  0  0  0  0  0  0  0  0  0
   32.8589   14.6829    5.9180 C   0  0  0  0  0  0  0  0  0  0  0  0
   32.5862   10.7456    3.7797 H   0  0  0  0  0  0  0  0  0  0  0  0
   31.6836   13.6871    2.9223 H   0  0  0  0  0  0  0  0  0  0  0  0
   27.3251   19.0733    4.5540 C   0  0  0  0  0  0  0  0  0  0  0  0
   27.0625   19.6868    3.1681 C   0  0  0  0  0  0  0  0  0  0  0  0
   26.0154   20.8249    3.1495 C   0  0  0  0  0  0  0  0  0  0  0  0
   23.3970   20.3855    4.2623 O   0  0  0  0  0  0  0  0  0  0  0  0
   25.5953   21.1678    4.5067 N   0  0  0  0  0  0  0  0  0  0  0  0
   24.2202   20.9184    4.9492 C   0  0  0  0  0  0  0  0  0  0  0  0
   26.2423   21.5703    5.1301 H   0  0  0  0  0  0  0  0  0  0  0  0
   24.3449   23.9542    7.3743 C   0  0  0  0  0  0  0  0  0  0  0  0
   23.6416   20.5399    7.3586 N   0  0  0  0  0  0  0  0  0  0  0  0
   25.4910   21.8069    8.0426 O   0  0  0  0  0  0  0  0  0  0  0  0
   24.8733   22.5989    6.9383 C   0  0  0  0  0  0  0  0  0  0  0  0
   24.9145   20.5378    8.0088 C   0  0  0  0  0  0  0  0  0  0  0  0
   23.8549   21.5315    6.2953 C   0  0  0  0  0  0  0  0  0  0  0  0
   24.6927   16.0697    9.9842 O   0  0  0  0  0  0  0  0  0  0  0  0
   24.0097   17.8618    8.0620 O   0  0  0  0  0  0  0  0  0  0  0  0
   26.1911   19.1948   11.3270 C   0  0  0  0  0  0  0  0  0  0  0  0
   25.7888   17.8204   11.2596 C   0  0  0  0  0  0  0  0  0  0  0  0
   25.8784   20.0926   10.2743 C   0  0  0  0  0  0  0  0  0  0  0  0
   25.0822   17.3893   10.1394 C   0  0  0  0  0  0  0  0  0  0  0  0
   24.7838   18.2606    9.1267 C   0  0  0  0  0  0  0  0  0  0  0  0
   25.1772   19.6708    9.2071 C   0  0  0  0  0  0  0  0  0  0  0  0
   24.8794   15.4440   10.6562 H   0  0  0  0  0  0  0  0  0  0  0  0
   23.7438   16.9666    7.9855 H   0  0  0  0  0  0  0  0  0  0  0  0
  1  2  2  0  0  0
  1  5  1  0  0  0
  1  3  1  0  0  0
  4  5  1  0  0  0
  4  7  2  0  0  0
  5  6  1  0  0  0
  6  8  1  0  0  0
  6  9  1  0  0  0
 44 47  1  0  0  0
 23 25  2  0  0  0
 40 42  2  0  0  0
 27 32  1  0  0  0
 10 15  1  0  0  0
 50 55  1  0  0  0
 28 33  1  0  0  0
 11 16  1  0  0  0
 51 56  1  0  0  0
 29 30  2  0  0  0
 29 31  1  0  0  0
 12 13  2  0  0  0
 12 14  1  0  0  0
 52 53  2  0  0  0
 52 54  1  0  0  0
 30 32  1  0  0  0
 13 15  1  0  0  0
 53 55  1  0  0  0
 31 34  2  0  0  0
 14 17  2  0  0  0
 54 57  2  0  0  0
 21 22  1  0  0  0
 21 20  1  0  0  0
 38 39  1  0  0  0
 38 37  1  0  0  0
 22 24  1  0  0  0
 39 41  1  0  0  0
 20  3  1  0  0  0
 37  3  1  0  0  0
 24 25  1  0  0  0
 41 42  1  0  0  0
 45 48  2  0  0  0
 45 49  1  0  0  0
 46 47  1  0  0  0
 46 48  1  0  0  0
 25 34  1  0  0  0
 42 49  1  0  0  0
  7 17  1  0  0  0
  7  8  1  0  0  0
 32 33  2  0  0  0
 15 16  2  0  0  0
 55 56  2  0  0  0
 33 34  1  0  0  0
 16 17  1  0  0  0
 56 57  1  0  0  0
 57 48  1  0  0  0
 47 49  1  0  0  0
 27 35  1  0  0  0
 10 18  1  0  0  0
 50 58  1  0  0  0
 28 36  1  0  0  0
 11 19  1  0  0  0
 51 59  1  0  0  0
 24 26  1  0  0  0
 41 43  1  0  0  0
M  END
> <minimizedAffinity>
-9.28449

$$$$
3R5T_VBN_A_1


 59 63  0  0  0  0  0  0  0  0999 V2000
   26.3304   17.9972    4.7699 C   0  0  0  0  0  0  0  0  0  0  0  0
   26.2977   18.0664    5.9532 O   0  0  0  0  0  0  0  0  0  0  0  0
   26.5281   19.1976    3.9659 N   0  0  0  0  0  0  0  0  0  0  0  0
   26.7933   15.5475    4.3152 N   0  0  0  0  0  0  0  0  0  0  0  0
   25.9690   16.7112    4.0385 C   0  0  0  0  0  0  0  0  0  0  0  0
   24.5345   16.1587    4.3823 C   0  0  0  0  0  0  0  0  0  0  0  0
   26.1834   14.9349    5.4664 C   0  0  0  0  0  0  0  0  0  0  0  0
   24.7900   15.1578    5.4615 O   0  0  0  0  0  0  0  0  0  0  0  0
   23.6178   15.7647    3.2349 C   0  0  0  0  0  0  0  0  0  0  0  0
   25.6281   11.1785    8.5933 O   0  0  0  0  0  0  0  0  0  0  0  0
   24.9113   13.6361    7.6728 O   0  0  0  0  0  0  0  0  0  0  0  0
   28.2354   11.8534    6.0182 C   0  0  0  0  0  0  0  0  0  0  0  0
   27.5063   11.1932    7.0479 C   0  0  0  0  0  0  0  0  0  0  0  0
   27.8268   13.1080    5.5432 C   0  0  0  0  0  0  0  0  0  0  0  0
   26.3587   11.7961    7.5951 C   0  0  0  0  0  0  0  0  0  0  0  0
   25.9806   12.9896    7.1330 C   0  0  0  0  0  0  0  0  0  0  0  0
   26.7503   13.6830    6.0886 C   0  0  0  0  0  0  0  0  0  0  0  0
   25.8933   10.3405    8.9178 H   0  0  0  0  0  0  0  0  0  0  0  0
   24.4008   13.2212    8.3400 H   0  0  0  0  0  0  0  0  0  0  0  0
   26.5741   20.4882    4.6598 C   0  0  0  0  0  0  0  0  0  0  0  0
   25.2563   21.2626    4.7311 C   0  0  0  0  0  0  0  0  0  0  0  0
   24.7455   21.5758    6.1475 C   0  0  0  0  0  0  0  0  0  0  0  0
   26.4021   21.6779    8.4189 O   0  0  0  0  0  0  0  0  0  0  0  0
   24.8816   20.5162    7.1438 N   0  0  0  0  0  0  0  0  0  0  0  0
   25.7501   20.7028    8.2833 C   0  0  0  0  0  0  0  0  0  0  0  0
   24.3814   19.6748    7.0389 H   0  0  0  0  0  0  0  0  0  0  0  0
   24.3635   16.2620   10.0921 O   0  0  0  0  0  0  0  0  0  0  0  0
   24.4356   17.9723    8.0544 O   0  0  0  0  0  0  0  0  0  0  0  0
   26.2877   19.0529   11.6726 C   0  0  0  0  0  0  0  0  0  0  0  0
   25.6192   17.7908   11.5272 C   0  0  0  0  0  0  0  0  0  0  0  0
   26.3299   19.9904   10.5764 C   0  0  0  0  0  0  0  0  0  0  0  0
   24.9972   17.4699   10.2857 C   0  0  0  0  0  0  0  0  0  0  0  0
   25.0284   18.3551    9.2480 C   0  0  0  0  0  0  0  0  0  0  0  0
   25.7280   19.6688    9.4031 C   0  0  0  0  0  0  0  0  0  0  0  0
   24.3270   15.6352   10.7877 H   0  0  0  0  0  0  0  0  0  0  0  0
   24.0051   17.1425    7.9900 H   0  0  0  0  0  0  0  0  0  0  0  0
   26.5043   19.1348    2.5013 C   0  0  0  0  0  0  0  0  0  0  0  0
   27.3631   20.1933    1.7885 C   0  0  0  0  0  0  0  0  0  0  0  0
   28.0888   19.6927    0.5178 C   0  0  0  0  0  0  0  0  0  0  0  0
   30.7184   20.4860    1.3798 O   0  0  0  0  0  0  0  0  0  0  0  0
   29.1830   18.7883    0.8655 N   0  0  0  0  0  0  0  0  0  0  0  0
   30.4906   19.3161    1.2658 C   0  0  0  0  0  0  0  0  0  0  0  0
   29.0403   17.8148    0.8306 H   0  0  0  0  0  0  0  0  0  0  0  0
   32.5604   16.4662   -0.3795 C   0  0  0  0  0  0  0  0  0  0  0  0
   31.8675   17.8377    2.7496 N   0  0  0  0  0  0  0  0  0  0  0  0
   31.1117   15.9302    1.6167 O   0  0  0  0  0  0  0  0  0  0  0  0
   31.4356   16.9107    0.5388 C   0  0  0  0  0  0  0  0  0  0  0  0
   31.1011   16.6333    2.8207 C   0  0  0  0  0  0  0  0  0  0  0  0
   31.5998   18.2771    1.3732 C   0  0  0  0  0  0  0  0  0  0  0  0
   32.9698   12.8151    5.2382 O   0  0  0  0  0  0  0  0  0  0  0  0
   32.6215   14.2562    2.9635 O   0  0  0  0  0  0  0  0  0  0  0  0
   30.5046   15.3636    6.3528 C   0  0  0  0  0  0  0  0  0  0  0  0
   31.3660   14.2186    6.4005 C   0  0  0  0  0  0  0  0  0  0  0  0
   30.3954   16.1380    5.1694 C   0  0  0  0  0  0  0  0  0  0  0  0
   32.0891   13.8833    5.2583 C   0  0  0  0  0  0  0  0  0  0  0  0
   31.9796   14.6348    4.1195 C   0  0  0  0  0  0  0  0  0  0  0  0
   31.0819   15.7929    4.0657 C   0  0  0  0  0  0  0  0  0  0  0  0
   33.0719   12.2776    5.9989 H   0  0  0  0  0  0  0  0  0  0  0  0
   33.2009   13.5198    2.9689 H   0  0  0  0  0  0  0  0  0  0  0  0
  1  2  2  0  0  0
  1  5  1  0  0  0
  1  3  1  0  0  0
  4  5  1  0  0  0
  4  7  2  0  0  0
  5  6  1  0  0  0
  6  8  1  0  0  0
  6  9  1  0  0  0
 44 47  1  0  0  0
 23 25  2  0  0  0
 40 42  2  0  0  0
 27 32  1  0  0  0
 10 15  1  0  0  0
 50 55  1  0  0  0
 28 33  1  0  0  0
 11 16  1  0  0  0
 51 56  1  0  0  0
 29 30  2  0  0  0
 29 31  1  0  0  0
 12 13  2  0  0  0
 12 14  1  0  0  0
 52 53  2  0  0  0
 52 54  1  0  0  0
 30 32  1  0  0  0
 13 15  1  0  0  0
 53 55  1  0  0  0
 31 34  2  0  0  0
 14 17  2  0  0  0
 54 57  2  0  0  0
 21 22  1  0  0  0
 21 20  1  0  0  0
 38 39  1  0  0  0
 38 37  1  0  0  0
 22 24  1  0  0  0
 39 41  1  0  0  0
 20  3  1  0  0  0
 37  3  1  0  0  0
 24 25  1  0  0  0
 41 42  1  0  0  0
 45 48  2  0  0  0
 45 49  1  0  0  0
 46 47  1  0  0  0
 46 48  1  0  0  0
 25 34  1  0  0  0
 42 49  1  0  0  0
  7 17  1  0  0  0
  7  8  1  0  0  0
 32 33  2  0  0  0
 15 16  2  0  0  0
 55 56  2  0  0  0
 33 34  1  0  0  0
 16 17  1  0  0  0
 56 57  1  0  0  0
 57 48  1  0  0  0
 47 49  1  0  0  0
 27 35  1  0  0  0
 10 18  1  0  0  0
 50 58  1  0  0  0
 28 36  1  0  0  0
 11 19  1  0  0  0
 51 59  1  0  0  0
 24 26  1  0  0  0
 41 43  1  0  0  0
M  END
> <minimizedAffinity>
-9.24307

$$$$
3R5T_VBN_A_1


 59 63  0  0  0  0  0  0  0  0999 V2000
   24.1428   18.3411    4.4060 C   0  0  0  0  0  0  0  0  0  0  0  0
   23.4764   17.8660    5.2640 O   0  0  0  0  0  0  0  0  0  0  0  0
   24.1426   19.7824    4.1844 N   0  0  0  0  0  0  0  0  0  0  0  0
   25.9187   16.6124    3.8771 N   0  0  0  0  0  0  0  0  0  0  0  0
   24.8573   17.4708    3.3805 C   0  0  0  0  0  0  0  0  0  0  0  0
   23.9237   16.4215    2.6672 C   0  0  0  0  0  0  0  0  0  0  0  0
   25.2506   15.4016    4.2769 C   0  0  0  0  0  0  0  0  0  0  0  0
   24.1184   15.1741    3.4660 O   0  0  0  0  0  0  0  0  0  0  0  0
   23.9742   16.3227    1.1508 C   0  0  0  0  0  0  0  0  0  0  0  0
   28.7563   11.9879    3.7739 O   0  0  0  0  0  0  0  0  0  0  0  0
   27.0584   13.8312    2.7153 O   0  0  0  0  0  0  0  0  0  0  0  0
   26.7512   13.0170    6.7413 C   0  0  0  0  0  0  0  0  0  0  0  0
   27.7133   12.3343    5.9437 C   0  0  0  0  0  0  0  0  0  0  0  0
   25.9073   13.9831    6.1745 C   0  0  0  0  0  0  0  0  0  0  0  0
   27.8297   12.6313    4.5733 C   0  0  0  0  0  0  0  0  0  0  0  0
   27.0210   13.5534    4.0472 C   0  0  0  0  0  0  0  0  0  0  0  0
   26.0090   14.2382    4.8662 C   0  0  0  0  0  0  0  0  0  0  0  0
   29.3241   11.3404    4.1430 H   0  0  0  0  0  0  0  0  0  0  0  0
   27.6914   13.4113    2.1667 H   0  0  0  0  0  0  0  0  0  0  0  0
   23.2183   20.5983    4.9775 C   0  0  0  0  0  0  0  0  0  0  0  0
   23.6574   22.0376    5.2550 C   0  0  0  0  0  0  0  0  0  0  0  0
   24.2155   22.3022    6.6635 C   0  0  0  0  0  0  0  0  0  0  0  0
   26.4027   21.8268    8.3675 O   0  0  0  0  0  0  0  0  0  0  0  0
   24.3711   21.1416    7.5368 N   0  0  0  0  0  0  0  0  0  0  0  0
   25.5341   21.0271    8.3863 C   0  0  0  0  0  0  0  0  0  0  0  0
   23.6832   20.4373    7.5466 H   0  0  0  0  0  0  0  0  0  0  0  0
   24.5245   16.3512    9.8117 O   0  0  0  0  0  0  0  0  0  0  0  0
   24.4871   18.2138    7.9113 O   0  0  0  0  0  0  0  0  0  0  0  0
   26.1390   19.1752   11.6579 C   0  0  0  0  0  0  0  0  0  0  0  0
   25.5954   17.8724   11.3969 C   0  0  0  0  0  0  0  0  0  0  0  0
   26.1207   20.1948   10.6370 C   0  0  0  0  0  0  0  0  0  0  0  0
   25.0374   17.5933   10.1156 C   0  0  0  0  0  0  0  0  0  0  0  0
   25.0115   18.5555    9.1486 C   0  0  0  0  0  0  0  0  0  0  0  0
   25.5810   19.9116    9.4241 C   0  0  0  0  0  0  0  0  0  0  0  0
   24.5295   15.6716   10.4569 H   0  0  0  0  0  0  0  0  0  0  0  0
   24.1379   17.3557    7.7712 H   0  0  0  0  0  0  0  0  0  0  0  0
   24.9106   20.3749    3.0850 C   0  0  0  0  0  0  0  0  0  0  0  0
   26.2994   20.9103    3.4731 C   0  0  0  0  0  0  0  0  0  0  0  0
   27.4677   19.9288    3.2209 C   0  0  0  0  0  0  0  0  0  0  0  0
   29.1657   17.6502    3.6816 O   0  0  0  0  0  0  0  0  0  0  0  0
   28.1694   19.6240    4.4663 N   0  0  0  0  0  0  0  0  0  0  0  0
   28.9864   18.4129    4.5869 C   0  0  0  0  0  0  0  0  0  0  0  0
   28.0925   20.2382    5.2318 H   0  0  0  0  0  0  0  0  0  0  0  0
   30.8825   19.5319    7.7909 C   0  0  0  0  0  0  0  0  0  0  0  0
   29.6303   16.6611    6.2603 N   0  0  0  0  0  0  0  0  0  0  0  0
   31.7759   17.5831    6.4587 O   0  0  0  0  0  0  0  0  0  0  0  0
   30.8528   18.7558    6.4859 C   0  0  0  0  0  0  0  0  0  0  0  0
   31.0303   16.4844    6.0331 C   0  0  0  0  0  0  0  0  0  0  0  0
   29.4676   18.0978    5.9977 C   0  0  0  0  0  0  0  0  0  0  0  0
   31.9978   12.0925    4.1123 O   0  0  0  0  0  0  0  0  0  0  0  0
   30.6257   14.4355    4.1303 O   0  0  0  0  0  0  0  0  0  0  0  0
   33.1954   13.6213    7.2814 C   0  0  0  0  0  0  0  0  0  0  0  0
   33.0274   12.6523    6.2382 C   0  0  0  0  0  0  0  0  0  0  0  0
   32.5172   14.8660    7.2287 C   0  0  0  0  0  0  0  0  0  0  0  0
   32.1815   12.9603    5.1754 C   0  0  0  0  0  0  0  0  0  0  0  0
   31.5302   14.1634    5.1302 C   0  0  0  0  0  0  0  0  0  0  0  0
   31.6863   15.1445    6.2086 C   0  0  0  0  0  0  0  0  0  0  0  0
   32.4273   11.2597    4.1077 H   0  0  0  0  0  0  0  0  0  0  0  0
   30.5055   13.8262    3.4287 H   0  0  0  0  0  0  0  0  0  0  0  0
  1  2  2  0  0  0
  1  5  1  0  0  0
  1  3  1  0  0  0
  4  5  1  0  0  0
  4  7  2  0  0  0
  5  6  1  0  0  0
  6  8  1  0  0  0
  6  9  1  0  0  0
 44 47  1  0  0  0
 23 25  2  0  0  0
 40 42  2  0  0  0
 27 32  1  0  0  0
 10 15  1  0  0  0
 50 55  1  0  0  0
 28 33  1  0  0  0
 11 16  1  0  0  0
 51 56  1  0  0  0
 29 30  2  0  0  0
 29 31  1  0  0  0
 12 13  2  0  0  0
 12 14  1  0  0  0
 52 53  2  0  0  0
 52 54  1  0  0  0
 30 32  1  0  0  0
 13 15  1  0  0  0
 53 55  1  0  0  0
 31 34  2  0  0  0
 14 17  2  0  0  0
 54 57  2  0  0  0
 21 22  1  0  0  0
 21 20  1  0  0  0
 38 39  1  0  0  0
 38 37  1  0  0  0
 22 24  1  0  0  0
 39 41  1  0  0  0
 20  3  1  0  0  0
 37  3  1  0  0  0
 24 25  1  0  0  0
 41 42  1  0  0  0
 45 48  2  0  0  0
 45 49  1  0  0  0
 46 47  1  0  0  0
 46 48  1  0  0  0
 25 34  1  0  0  0
 42 49  1  0  0  0
  7 17  1  0  0  0
  7  8  1  0  0  0
 32 33  2  0  0  0
 15 16  2  0  0  0
 55 56  2  0  0  0
 33 34  1  0  0  0
 16 17  1  0  0  0
 56 57  1  0  0  0
 57 48  1  0  0  0
 47 49  1  0  0  0
 27 35  1  0  0  0
 10 18  1  0  0  0
 50 58  1  0  0  0
 28 36  1  0  0  0
 11 19  1  0  0  0
 51 59  1  0  0  0
 24 26  1  0  0  0
 41 43  1  0  0  0
M  END
> <minimizedAffinity>
-9.18216

$$$$
