5TMN_0PJ_E_317
  RCSB PDB12061719433D
Coordinates from PDB:5TMN:E:317 Model:1 without hydrogens
 32 32  0  0  0  0            999 V2000
   49.7310   17.9210   -8.9170   C 0  0  0  0  0  0  0  0  0  0  0  0
   49.6240   16.7190   -9.0150   O 0  0  0  0  0  0  0  0  0  0  0  0
   49.4360   18.7460   -9.8800   O 0  0  0  0  0  0  0  0  0  0  0  0
   48.8800   18.2920  -11.1850   C 0  0  0  0  0  0  0  0  0  0  0  0
   47.5420   19.0400  -11.5680   C 0  0  0  0  0  0  0  0  0  0  0  0
   46.4780   18.9750  -10.7030   C 0  0  0  0  0  0  0  0  0  0  0  0
   45.2480   19.5850  -10.9620   C 0  0  0  0  0  0  0  0  0  0  0  0
   45.1110   20.3000  -12.0940   C 0  0  0  0  0  0  0  0  0  0  0  0
   46.1540   20.4140  -12.9580   C 0  0  0  0  0  0  0  0  0  0  0  0
   47.3800   19.7700  -12.7250   C 0  0  0  0  0  0  0  0  0  0  0  0
   50.1310   18.6280   -7.8860   N 0  0  0  0  0  0  0  0  0  0  0  0
   50.4440   17.9780   -6.7000   C 0  0  0  0  0  0  0  0  0  0  0  0
   51.7310   18.9700   -6.1030   P 0  0  0  0  0  0  0  0  0  0  0  0
   51.5010   20.4720   -6.1370   O 0  0  0  0  0  0  0  0  0  0  0  0
   53.0740   18.6410   -6.5730   O 0  0  0  0  0  0  0  0  0  0  0  0
   51.7120   18.5170   -4.5090   N 0  0  0  0  0  0  0  0  0  0  0  0
   52.8360   18.2290   -3.6390   C 0  0  0  0  0  0  0  0  0  0  0  0
   53.5300   16.8860   -3.9040   C 0  0  0  0  0  0  0  0  0  0  0  0
   54.7570   16.7750   -3.8340   O 0  0  0  0  0  0  0  0  0  0  0  0
   52.4730   18.3230   -2.1310   C 0  0  0  0  0  0  0  0  0  0  0  0
   53.7000   18.1610   -1.2410   C 0  0  0  0  0  0  0  0  0  0  0  0
   54.6320   19.3710   -1.4350   C 0  0  0  0  0  0  0  0  0  0  0  0
   53.2110   18.0830    0.2190   C 0  0  0  0  0  0  0  0  0  0  0  0
   52.7370   15.8850   -4.1940   N 0  0  0  0  0  0  0  0  0  0  0  0
   53.2020   14.5210   -4.4530   C 0  0  0  0  0  0  0  0  0  0  0  0
   52.3890   13.8360   -5.5240   C 0  0  0  0  0  0  0  0  0  0  0  0
   51.3250   14.3630   -5.9430   O 0  0  0  0  0  0  0  0  0  0  0  0
   53.4490   13.6930   -3.1390   C 0  0  0  0  0  0  0  0  0  0  0  0
   52.2500   13.4870   -2.2600   C 0  0  0  0  0  0  0  0  0  0  0  0
   52.3400   12.1690   -1.5350   C 0  0  0  0  0  0  0  0  0  0  0  0
   52.2510   14.5410   -1.1710   C 0  0  0  0  0  0  0  0  0  0  0  0
   52.7910   12.7660   -6.0710   O 0  0  0  0  0  0  0  0  0  0  0  0
  1  2  2  0  0  0  0
  1  3  1  0  0  0  0
  3  4  1  0  0  0  0
  4  5  1  0  0  0  0
  5  6  2  0  0  0  0
  5 10  1  0  0  0  0
  6  7  1  0  0  0  0
  7  8  2  0  0  0  0
  8  9  1  0  0  0  0
  9 10  2  0  0  0  0
 11 12  1  0  0  0  0
 12 13  1  0  0  0  0
 13 14  2  0  0  0  0
 13 15  1  0  0  0  0
 16 17  1  0  0  0  0
 17 18  1  0  0  0  0
 17 20  1  0  0  0  0
 18 19  2  0  0  0  0
 20 21  1  0  0  0  0
 21 22  1  0  0  0  0
 21 23  1  0  0  0  0
 24 25  1  0  0  0  0
 25 26  1  0  0  0  0
 25 28  1  0  0  0  0
 26 27  2  0  0  0  0
 26 32  1  0  0  0  0
 28 29  1  0  0  0  0
 29 30  1  0  0  0  0
 29 31  1  0  0  0  0
  1 11  1  0  0  0  0
 13 16  1  0  0  0  0
 18 24  1  0  0  0  0
A    1
C1
A    2
O1
A    3
O2
A    4
C2
A    5
C3
A    6
C4
A    7
C5
A    8
C6
A    9
C7
A   10
C8
A   11
N
A   12
C
A   13
P
A   14
O11
A   15
O21
A   16
N1
A   17
CA
A   18
C9
A   19
O
A   20
CB
A   21
CG
A   22
CD1
A   23
CD2
A   24
N2
A   25
CA1
A   26
CC
A   27
O3
A   28
CB1
A   29
CG1
A   30
CD11
A   31
CD21
A   32
OXT
M  END
>  <InstanceId>
5TMN_0PJ_E_317

>  <ChemCompId>
0PJ

>  <PdbId>
5TMN

>  <ChainId>
E

>  <ResidueNumber>
317

>  <InsertionCode>


>  <Model>
1

>  <AltIds>


>  <MissingHeavyAtoms>
0

>  <ObservedFormula>
C21 N3 O7 P

>  <Name>
N-[(S)-({[(benzyloxy)carbonyl]amino}methyl)(hydroxy)phosphoryl]-L-leucyl-L-leucine

>  <SystematicName>
(2S)-2-[[(2S)-2-[(hydroxy-(phenylmethoxycarbonylaminomethyl)phosphoryl)amino]-4-methyl-pentanoyl]amino]-4-methyl-pentanoic acid

>  <Synonyms>
ZGPLL

>  <Type>
peptide-like

>  <Formula>
C21 H34 N3 O7 P

>  <MolecularWeight>
471.484

>  <ModifiedDate>
2011-06-04

>  <Parent>


>  <OneLetterCode>


>  <SubcomponentList>
PHQ PGL LEU LEU

>  <AmbiguousFlag>
N

>  <InChI>
InChI=1S/C21H34N3O7P/c1-14(2)10-17(19(25)23-18(20(26)27)11-15(3)4)24-32(29,30)13-22-21(28)31-12-16-8-6-5-7-9-16/h5-9,14-15,17-18H,10-13H2,1-4H3,(H,22,28)(H,23,25)(H,26,27)(H2,24,29,30)/t17-,18-/m0/s1

>  <InChIKey>
ASUDVBNLLSQCDJ-ROUUACIJSA-N

>  <SMILES>


$$$$
