1XJD_STU_A_200
  RCSB PDB12061704383D
Coordinates from PDB:1XJD:A:200 Model:1 without hydrogens
 35 42  0  0  0  0            999 V2000
   56.1260    5.3900    2.8110   O 0  0  0  0  0  0  0  0  0  0  0  0
   57.0430    5.5230    3.9380   C 0  0  0  0  0  0  0  0  0  0  0  0
   56.2540    5.1360    5.3000   C 0  0  0  0  0  0  0  0  0  0  0  0
   54.7120    4.6950    5.0510   C 0  0  0  0  0  0  0  0  0  0  0  0
   53.9670    5.7890    4.2190   C 0  0  0  0  0  0  0  0  0  0  0  0
   54.7590    5.8750    2.7560   C 0  0  0  0  0  0  0  0  0  0  0  0
   54.1190    4.7910    1.8590   C 0  0  0  0  0  0  0  0  0  0  0  0
   54.6780    7.3800    2.2830   N 0  0  0  0  0  0  0  0  0  0  0  0
   55.7590    8.3090    2.6030   C 0  0  0  0  0  0  0  0  0  0  0  0
   56.9750    8.1520    3.3430   C 0  0  0  0  0  0  0  0  0  0  0  0
   57.9310    9.2920    3.5450   C 0  0  0  0  0  0  0  0  0  0  0  0
   57.4880   10.6470    2.8870   C 0  0  0  0  0  0  0  0  0  0  0  0
   56.3310   10.7860    2.2000   C 0  0  0  0  0  0  0  0  0  0  0  0
   55.3870    9.6420    1.9860   C 0  0  0  0  0  0  0  0  0  0  0  0
   54.1290    9.4820    1.3540   C 0  0  0  0  0  0  0  0  0  0  0  0
   53.6820    8.0440    1.4720   C 0  0  0  0  0  0  0  0  0  0  0  0
   52.3770    7.6450    0.8900   C 0  0  0  0  0  0  0  0  0  0  0  0
   51.5710    8.5630    0.1450   C 0  0  0  0  0  0  0  0  0  0  0  0
   52.0120    9.9930   -0.0130   C 0  0  0  0  0  0  0  0  0  0  0  0
   53.2800   10.3980    0.5730   C 0  0  0  0  0  0  0  0  0  0  0  0
   56.2060   12.2050    1.7000   C 0  0  0  0  0  0  0  0  0  0  0  0
   57.4270   12.7420    2.2290   N 0  0  0  0  0  0  0  0  0  0  0  0
   58.2130   11.9420    2.9110   C 0  0  0  0  0  0  0  0  0  0  0  0
   59.2770   12.2160    3.4240   O 0  0  0  0  0  0  0  0  0  0  0  0
   58.9920    8.8330    4.3300   C 0  0  0  0  0  0  0  0  0  0  0  0
   58.7550    7.3650    4.5900   C 0  0  0  0  0  0  0  0  0  0  0  0
   59.7050    6.5680    5.4310   C 0  0  0  0  0  0  0  0  0  0  0  0
   60.9180    7.2230    5.9170   C 0  0  0  0  0  0  0  0  0  0  0  0
   61.1770    8.6650    5.6340   C 0  0  0  0  0  0  0  0  0  0  0  0
   60.2410    9.4260    4.8400   C 0  0  0  0  0  0  0  0  0  0  0  0
   57.5420    6.9930    4.0440   N 0  0  0  0  0  0  0  0  0  0  0  0
   54.0050    7.1110    4.9390   O 0  0  0  0  0  0  0  0  0  0  0  0
   52.7830    7.8360    4.8940   C 0  0  0  0  0  0  0  0  0  0  0  0
   54.0870    4.4110    6.4850   N 0  0  0  0  0  0  0  0  0  0  0  0
   54.8260    3.3000    7.2330   C 0  0  0  0  0  0  0  0  0  0  0  0
  1  2  1  0  0  0  0
  1  6  1  0  0  0  0
  2  3  1  0  0  0  0
  2 31  1  0  0  0  0
  3  4  1  0  0  0  0
  4  5  1  0  0  0  0
  4 34  1  0  0  0  0
  5  6  1  0  0  0  0
  5 32  1  0  0  0  0
  6  7  1  0  0  0  0
  6  8  1  0  0  0  0
  8  9  1  0  0  0  0
  8 16  1  0  0  0  0
  9 10  2  0  0  0  0
  9 14  1  0  0  0  0
 10 11  1  0  0  0  0
 10 31  1  0  0  0  0
 11 12  2  0  0  0  0
 11 25  1  0  0  0  0
 12 13  1  0  0  0  0
 12 23  1  0  0  0  0
 13 14  2  0  0  0  0
 13 21  1  0  0  0  0
 14 15  1  0  0  0  0
 15 16  2  0  0  0  0
 15 20  1  0  0  0  0
 16 17  1  0  0  0  0
 17 18  2  0  0  0  0
 18 19  1  0  0  0  0
 19 20  2  0  0  0  0
 21 22  1  0  0  0  0
 22 23  1  0  0  0  0
 23 24  2  0  0  0  0
 25 26  2  0  0  0  0
 25 30  1  0  0  0  0
 26 27  1  0  0  0  0
 26 31  1  0  0  0  0
 27 28  2  0  0  0  0
 28 29  1  0  0  0  0
 29 30  2  0  0  0  0
 32 33  1  0  0  0  0
 34 35  1  0  0  0  0
A    1
O4
A    2
C25
A    3
C24
A    4
C23
A    5
C22
A    6
C21
A    7
C26
A    8
N2
A    9
C18
A   10
C19
A   11
C6
A   12
C7
A   13
C10
A   14
C11
A   15
C12
A   16
C17
A   17
C16
A   18
C15
A   19
C14
A   20
C13
A   21
C9
A   22
N1
A   23
C8
A   24
O5
A   25
C5
A   26
C20
A   27
C1
A   28
C2
A   29
C3
A   30
C4
A   31
N3
A   32
O6
A   33
C27
A   34
N4
A   35
C28
M  END
>  <InstanceId>
1XJD_STU_A_200

>  <ChemCompId>
STU

>  <PdbId>
1XJD

>  <ChainId>
A

>  <ResidueNumber>
200

>  <InsertionCode>


>  <Model>
1

>  <AltIds>


>  <MissingHeavyAtoms>
0

>  <ObservedFormula>
C28 N4 O3

>  <Name>
STAUROSPORINE

>  <SystematicName>


>  <Synonyms>


>  <Type>
NON-POLYMER

>  <Formula>
C28 H26 N4 O3

>  <MolecularWeight>
466.531

>  <ModifiedDate>
2011-06-04

>  <Parent>


>  <OneLetterCode>


>  <SubcomponentList>


>  <AmbiguousFlag>
N

>  <InChI>
InChI=1S/C28H26N4O3/c1-28-26(34-3)17(29-2)12-20(35-28)31-18-10-6-4-8-14(18)22-23-16(13-30-27(23)33)21-15-9-5-7-11-19(15)32(28)25(21)24(22)31/h4-11,17,20,26,29H,12-13H2,1-3H3,(H,30,33)/t17-,20-,26-,28+/m1/s1

>  <InChIKey>
HKSZLNNOFSGOKW-FYTWVXJKSA-N

>  <SMILES>
C[C@@]12[C@@H]([C@@H](C[C@@H](O1)n3c4ccccc4c5c3c6n2c7ccccc7c6c8c5C(=O)NC8)NC)OC

$$$$
