4H85_HRI_A_404


 10  9  0  0  0  0  0  0  0  0999 V2000
   -9.5651  -32.8693   16.7235 C   0  0  0  0  0  0  0  0  0  0  0  0
  -11.2196  -32.3569   16.6941 Cl  0  0  0  0  0  0  0  0  0  0  0  0
   -8.8286  -32.2291   15.5792 C   0  0  0  0  0  0  0  0  0  0  0  0
   -7.6535  -32.5960   15.2496 O   0  0  0  0  0  0  0  0  0  0  0  0
   -9.4036  -31.2984   14.9616 O   0  0  0  0  0  0  0  0  0  0  0  0
  -10.2677  -31.0347   15.2103 H   0  0  0  0  0  0  0  0  0  0  0  0
   -8.9023  -32.5052   18.0389 C   0  0  0  0  0  0  0  0  0  0  0  0
   -9.7696  -32.1420   19.2320 C   0  0  0  0  0  0  0  0  0  0  0  0
  -10.0497  -30.6692   19.4241 C   0  0  0  0  0  0  0  0  0  0  0  0
   -9.5227  -32.9147   20.5106 C   0  0  0  0  0  0  0  0  0  0  0  0
  1  7  1  0  0  0
  1  3  1  0  0  0
  1  2  1  0  0  0
  7  8  1  0  0  0
  8  9  1  0  0  0
  8 10  1  0  0  0
  3  4  2  0  0  0
  3  5  1  0  0  0
  5  6  1  0  0  0
M  END
> <minimizedAffinity>
-5.68300

$$$$
4H85_HRI_A_404


 10  9  0  0  0  0  0  0  0  0999 V2000
   -8.8898  -31.8447   16.7674 C   0  0  0  0  0  0  0  0  0  0  0  0
   -7.7201  -32.7320   15.8480 Cl  0  0  0  0  0  0  0  0  0  0  0  0
  -10.0435  -31.4760   15.8758 C   0  0  0  0  0  0  0  0  0  0  0  0
  -11.2490  -31.7337   16.1989 O   0  0  0  0  0  0  0  0  0  0  0  0
   -9.7813  -30.9169   14.7817 O   0  0  0  0  0  0  0  0  0  0  0  0
   -8.8921  -30.7310   14.5518 H   0  0  0  0  0  0  0  0  0  0  0  0
   -9.3843  -32.6544   17.9515 C   0  0  0  0  0  0  0  0  0  0  0  0
   -9.4243  -32.0104   19.3268 C   0  0  0  0  0  0  0  0  0  0  0  0
   -9.4840  -32.9594   20.5017 C   0  0  0  0  0  0  0  0  0  0  0  0
  -10.2769  -30.7672   19.4692 C   0  0  0  0  0  0  0  0  0  0  0  0
  1  7  1  0  0  0
  1  3  1  0  0  0
  1  2  1  0  0  0
  7  8  1  0  0  0
  8  9  1  0  0  0
  8 10  1  0  0  0
  3  4  2  0  0  0
  3  5  1  0  0  0
  5  6  1  0  0  0
M  END
> <minimizedAffinity>
-5.57160

$$$$
4H85_HRI_A_404


 10  9  0  0  0  0  0  0  0  0999 V2000
   -8.1061  -31.7710   15.7459 C   0  0  0  0  0  0  0  0  0  0  0  0
   -8.3180  -33.4423   16.1492 Cl  0  0  0  0  0  0  0  0  0  0  0  0
   -8.0655  -31.6245   14.2498 C   0  0  0  0  0  0  0  0  0  0  0  0
   -7.2072  -32.2428   13.5389 O   0  0  0  0  0  0  0  0  0  0  0  0
   -8.8994  -30.8516   13.7153 O   0  0  0  0  0  0  0  0  0  0  0  0
   -9.5271  -30.4008   14.2451 H   0  0  0  0  0  0  0  0  0  0  0  0
   -9.2240  -30.9224   16.3227 C   0  0  0  0  0  0  0  0  0  0  0  0
  -10.0939  -31.4930   17.4296 C   0  0  0  0  0  0  0  0  0  0  0  0
  -11.4349  -32.0436   17.0016 C   0  0  0  0  0  0  0  0  0  0  0  0
  -10.1061  -30.7363   18.7411 C   0  0  0  0  0  0  0  0  0  0  0  0
  1  7  1  0  0  0
  1  3  1  0  0  0
  1  2  1  0  0  0
  7  8  1  0  0  0
  8  9  1  0  0  0
  8 10  1  0  0  0
  3  4  2  0  0  0
  3  5  1  0  0  0
  5  6  1  0  0  0
M  END
> <minimizedAffinity>
-5.49235

$$$$
4H85_HRI_A_404


 10  9  0  0  0  0  0  0  0  0999 V2000
   -9.6303  -31.5555   17.1374 C   0  0  0  0  0  0  0  0  0  0  0  0
  -11.2039  -31.3787   17.8396 Cl  0  0  0  0  0  0  0  0  0  0  0  0
   -9.1567  -32.9692   17.3343 C   0  0  0  0  0  0  0  0  0  0  0  0
   -8.8009  -33.4035   18.4785 O   0  0  0  0  0  0  0  0  0  0  0  0
   -9.1031  -33.7138   16.3239 O   0  0  0  0  0  0  0  0  0  0  0  0
   -9.3666  -33.3867   15.4863 H   0  0  0  0  0  0  0  0  0  0  0  0
   -9.6485  -31.2130   15.6593 C   0  0  0  0  0  0  0  0  0  0  0  0
   -8.3779  -30.7062   14.9987 C   0  0  0  0  0  0  0  0  0  0  0  0
   -8.3647  -29.2422   14.6232 C   0  0  0  0  0  0  0  0  0  0  0  0
   -7.7231  -31.6274   13.9911 C   0  0  0  0  0  0  0  0  0  0  0  0
  1  7  1  0  0  0
  1  3  1  0  0  0
  1  2  1  0  0  0
  7  8  1  0  0  0
  8  9  1  0  0  0
  8 10  1  0  0  0
  3  4  2  0  0  0
  3  5  1  0  0  0
  5  6  1  0  0  0
M  END
> <minimizedAffinity>
-5.39614

$$$$
4H85_HRI_A_404


 10  9  0  0  0  0  0  0  0  0999 V2000
   -9.5064  -31.7927   18.7471 C   0  0  0  0  0  0  0  0  0  0  0  0
  -10.2619  -30.4062   19.4595 Cl  0  0  0  0  0  0  0  0  0  0  0  0
   -9.4175  -32.8892   19.7725 C   0  0  0  0  0  0  0  0  0  0  0  0
   -9.9432  -32.7708   20.9274 O   0  0  0  0  0  0  0  0  0  0  0  0
   -8.7867  -33.9303   19.4619 O   0  0  0  0  0  0  0  0  0  0  0  0
   -8.4032  -34.0093   18.6107 H   0  0  0  0  0  0  0  0  0  0  0  0
  -10.2798  -32.2751   17.5340 C   0  0  0  0  0  0  0  0  0  0  0  0
   -9.6010  -32.2814   16.1749 C   0  0  0  0  0  0  0  0  0  0  0  0
   -8.3469  -33.1178   16.0643 C   0  0  0  0  0  0  0  0  0  0  0  0
   -9.5528  -30.9616   15.4344 C   0  0  0  0  0  0  0  0  0  0  0  0
  1  7  1  0  0  0
  1  3  1  0  0  0
  1  2  1  0  0  0
  7  8  1  0  0  0
  8  9  1  0  0  0
  8 10  1  0  0  0
  3  4  2  0  0  0
  3  5  1  0  0  0
  5  6  1  0  0  0
M  END
> <minimizedAffinity>
-5.35639

$$$$
4H85_HRI_A_404


 10  9  0  0  0  0  0  0  0  0999 V2000
   -8.9039  -31.8783   16.6838 C   0  0  0  0  0  0  0  0  0  0  0  0
   -8.3365  -33.4229   16.1428 Cl  0  0  0  0  0  0  0  0  0  0  0  0
   -9.0848  -30.9739   15.4960 C   0  0  0  0  0  0  0  0  0  0  0  0
   -8.1197  -30.2902   15.0213 O   0  0  0  0  0  0  0  0  0  0  0  0
  -10.2320  -30.8957   14.9900 O   0  0  0  0  0  0  0  0  0  0  0  0
  -10.9361  -31.4018   15.3451 H   0  0  0  0  0  0  0  0  0  0  0  0
  -10.2115  -32.0102   17.4424 C   0  0  0  0  0  0  0  0  0  0  0  0
  -10.2490  -31.6695   18.9223 C   0  0  0  0  0  0  0  0  0  0  0  0
  -10.2416  -30.1972   19.2640 C   0  0  0  0  0  0  0  0  0  0  0  0
   -9.4167  -32.5398   19.8402 C   0  0  0  0  0  0  0  0  0  0  0  0
  1  7  1  0  0  0
  1  3  1  0  0  0
  1  2  1  0  0  0
  7  8  1  0  0  0
  8  9  1  0  0  0
  8 10  1  0  0  0
  3  4  2  0  0  0
  3  5  1  0  0  0
  5  6  1  0  0  0
M  END
> <minimizedAffinity>
-5.27845

$$$$
4H85_HRI_A_404


 10  9  0  0  0  0  0  0  0  0999 V2000
   -9.2572  -32.6267   17.1164 C   0  0  0  0  0  0  0  0  0  0  0  0
   -8.7304  -33.1857   18.6690 Cl  0  0  0  0  0  0  0  0  0  0  0  0
  -10.5810  -31.9287   17.2650 C   0  0  0  0  0  0  0  0  0  0  0  0
  -11.5566  -32.1686   16.4809 O   0  0  0  0  0  0  0  0  0  0  0  0
  -10.6938  -31.0786   18.1831 O   0  0  0  0  0  0  0  0  0  0  0  0
   -9.9716  -30.9083   18.7552 H   0  0  0  0  0  0  0  0  0  0  0  0
   -8.2389  -31.6867   16.4983 C   0  0  0  0  0  0  0  0  0  0  0  0
   -8.4653  -31.1702   15.0877 C   0  0  0  0  0  0  0  0  0  0  0  0
   -7.6596  -31.8410   13.9989 C   0  0  0  0  0  0  0  0  0  0  0  0
   -8.6240  -29.6726   14.9309 C   0  0  0  0  0  0  0  0  0  0  0  0
  1  7  1  0  0  0
  1  3  1  0  0  0
  1  2  1  0  0  0
  7  8  1  0  0  0
  8  9  1  0  0  0
  8 10  1  0  0  0
  3  4  2  0  0  0
  3  5  1  0  0  0
  5  6  1  0  0  0
M  END
> <minimizedAffinity>
-4.89515

$$$$
4H85_HRI_A_404


 10  9  0  0  0  0  0  0  0  0999 V2000
   -9.4770  -32.1522   17.0058 C   0  0  0  0  0  0  0  0  0  0  0  0
   -7.8674  -32.0953   17.6434 Cl  0  0  0  0  0  0  0  0  0  0  0  0
  -10.4486  -31.7419   18.0779 C   0  0  0  0  0  0  0  0  0  0  0  0
  -10.1499  -31.8110   19.3149 O   0  0  0  0  0  0  0  0  0  0  0  0
  -11.5834  -31.3419   17.7165 O   0  0  0  0  0  0  0  0  0  0  0  0
  -11.7949  -31.2941   16.8050 H   0  0  0  0  0  0  0  0  0  0  0  0
   -9.6200  -31.2449   15.7979 C   0  0  0  0  0  0  0  0  0  0  0  0
   -8.3719  -30.7737   15.0713 C   0  0  0  0  0  0  0  0  0  0  0  0
   -8.3777  -29.3347   14.6089 C   0  0  0  0  0  0  0  0  0  0  0  0
   -7.7416  -31.7510   14.1016 C   0  0  0  0  0  0  0  0  0  0  0  0
  1  7  1  0  0  0
  1  3  1  0  0  0
  1  2  1  0  0  0
  7  8  1  0  0  0
  8  9  1  0  0  0
  8 10  1  0  0  0
  3  4  2  0  0  0
  3  5  1  0  0  0
  5  6  1  0  0  0
M  END
> <minimizedAffinity>
-4.79220

$$$$
4H85_HRI_A_404


 10  9  0  0  0  0  0  0  0  0999 V2000
   -9.8378  -31.3536   17.0343 C   0  0  0  0  0  0  0  0  0  0  0  0
  -11.1492  -32.4373   16.7077 Cl  0  0  0  0  0  0  0  0  0  0  0  0
   -9.4920  -31.4221   18.4963 C   0  0  0  0  0  0  0  0  0  0  0  0
  -10.3339  -31.1063   19.3995 O   0  0  0  0  0  0  0  0  0  0  0  0
   -8.3299  -31.7856   18.8057 O   0  0  0  0  0  0  0  0  0  0  0  0
   -7.7171  -32.0161   18.1355 H   0  0  0  0  0  0  0  0  0  0  0  0
   -8.6216  -31.6968   16.1944 C   0  0  0  0  0  0  0  0  0  0  0  0
   -8.5214  -31.1576   14.7777 C   0  0  0  0  0  0  0  0  0  0  0  0
   -7.5922  -31.9044   13.8485 C   0  0  0  0  0  0  0  0  0  0  0  0
   -8.4983  -29.6514   14.6251 C   0  0  0  0  0  0  0  0  0  0  0  0
  1  7  1  0  0  0
  1  3  1  0  0  0
  1  2  1  0  0  0
  7  8  1  0  0  0
  8  9  1  0  0  0
  8 10  1  0  0  0
  3  4  2  0  0  0
  3  5  1  0  0  0
  5  6  1  0  0  0
M  END
> <minimizedAffinity>
-4.58020

$$$$
4H85_HRI_A_404


 10  9  0  0  0  0  0  0  0  0999 V2000
   -8.7086  -32.0140   15.4557 C   0  0  0  0  0  0  0  0  0  0  0  0
  -10.2006  -31.1800   15.7372 Cl  0  0  0  0  0  0  0  0  0  0  0  0
   -8.0619  -31.4652   14.2138 C   0  0  0  0  0  0  0  0  0  0  0  0
   -8.2987  -30.2828   13.8016 O   0  0  0  0  0  0  0  0  0  0  0  0
   -7.2867  -32.2205   13.5758 O   0  0  0  0  0  0  0  0  0  0  0  0
   -7.1180  -33.0885   13.8858 H   0  0  0  0  0  0  0  0  0  0  0  0
   -7.7696  -31.8712   16.6390 C   0  0  0  0  0  0  0  0  0  0  0  0
   -8.3198  -32.0263   18.0465 C   0  0  0  0  0  0  0  0  0  0  0  0
   -7.4056  -31.5882   19.1676 C   0  0  0  0  0  0  0  0  0  0  0  0
   -9.1160  -33.2829   18.3291 C   0  0  0  0  0  0  0  0  0  0  0  0
  1  7  1  0  0  0
  1  3  1  0  0  0
  1  2  1  0  0  0
  7  8  1  0  0  0
  8  9  1  0  0  0
  8 10  1  0  0  0
  3  4  2  0  0  0
  3  5  1  0  0  0
  5  6  1  0  0  0
M  END
> <minimizedAffinity>
-4.57394

$$$$
