6G34_5ID_A_401
  RCSB PDB04141810343D
Coordinates from PDB:6G34:A:401 Model:1 without hydrogens
 20 22  0  0  0  0            999 V2000
   13.1860    8.0780   10.1140   O 0  0  0  0  0  0  0  0  0  0  0  0
   14.4230    7.6060   10.6520   C 0  0  0  0  0  0  0  0  0  0  0  0
   14.6670    7.9910   12.0920   C 0  0  0  0  0  0  0  0  0  0  0  0
   14.9240    9.4120   12.2220   O 0  0  0  0  0  0  0  0  0  0  0  0
   14.3080    9.9080   13.3970   C 0  0  0  0  0  0  0  0  0  0  0  0
   13.2490   10.8350   13.0100   N 0  0  0  0  0  0  0  0  0  0  0  0
   12.5860   10.8650   11.7980   C 0  0  0  0  0  0  0  0  0  0  0  0
   11.6790   11.8830   11.8060   C 0  0  0  0  0  0  0  0  0  0  0  0
   11.7280   12.5110   13.0900   C 0  0  0  0  0  0  0  0  0  0  0  0
   11.0680   13.5610   13.7780   C 0  0  0  0  0  0  0  0  0  0  0  0
   11.4420   13.8450   15.0410   N 0  0  0  0  0  0  0  0  0  0  0  0
   12.4090   13.1170   15.5960   C 0  0  0  0  0  0  0  0  0  0  0  0
   13.1050   12.1090   15.0630   N 0  0  0  0  0  0  0  0  0  0  0  0
   12.7390   11.8320   13.8040   C 0  0  0  0  0  0  0  0  0  0  0  0
   10.0790   14.2700   13.2380   N 0  0  0  0  0  0  0  0  0  0  0  0
   13.7890    8.6980   14.1830   C 0  0  0  0  0  0  0  0  0  0  0  0
   14.8160    8.2810   15.1030   O 0  0  0  0  0  0  0  0  0  0  0  0
   13.5190    7.7020   13.0640   C 0  0  0  0  0  0  0  0  0  0  0  0
   13.5370    6.3340   13.4840   O 0  0  0  0  0  0  0  0  0  0  0  0
   10.4790   12.5200   10.1950   I 0  0  0  0  0  0  0  0  0  0  0  0
  1  2  1  0  0  0  0
  2  3  1  0  0  0  0
  3  4  1  0  0  0  0
  3 18  1  0  0  0  0
  4  5  1  0  0  0  0
  5  6  1  0  0  0  0
  5 16  1  0  0  0  0
  6  7  1  0  0  0  0
  6 14  1  0  0  0  0
  7  8  2  0  0  0  0
  8  9  1  0  0  0  0
  8 20  1  0  0  0  0
  9 10  2  0  0  0  0
  9 14  1  0  0  0  0
 10 11  1  0  0  0  0
 10 15  1  0  0  0  0
 11 12  2  0  0  0  0
 12 13  1  0  0  0  0
 13 14  2  0  0  0  0
 16 17  1  0  0  0  0
 16 18  1  0  0  0  0
 18 19  1  0  0  0  0
A    1
O5'
A    2
C5'
A    3
C4'
A    4
O4'
A    5
C1'
A    6
N9
A    7
C8
A    8
C7
A    9
C5
A   10
C6
A   11
N1
A   12
C2
A   13
N3
A   14
C4
A   15
N6
A   16
C2'
A   17
O2'
A   18
C3'
A   19
O3'
A   20
IAE
M  END
>  <InstanceId>
6G34_5ID_A_401

>  <ChemCompId>
5ID

>  <PdbId>
6G34

>  <ChainId>
A

>  <ResidueNumber>
401

>  <InsertionCode>


>  <Model>
1

>  <AltIds>


>  <MissingHeavyAtoms>
0

>  <ObservedFormula>
C11 N4 O4 I

>  <Name>
(2R,3R,4S,5R)-2-(4-AMINO-5-IODO-7H-PYRROLO[2,3-D]PYRIMIDIN-7-YL)-5-(HYDROXYMETHYL)TETRAHYDROFURAN-3,4-DIOL

>  <SystematicName>
(2R,3R,4S,5R)-2-(4-amino-5-iodo-pyrrolo[2,3-d]pyrimidin-7-yl)-5-(hydroxymethyl)oxolane-3,4-diol

>  <Synonyms>
5-IODOTUBERCIDIN

>  <Type>
NON-POLYMER

>  <Formula>
C11 H13 I N4 O4

>  <MolecularWeight>
392.15

>  <ModifiedDate>
2011-06-04

>  <Parent>


>  <OneLetterCode>


>  <SubcomponentList>


>  <AmbiguousFlag>
N

>  <InChI>
InChI=1S/C11H13IN4O4/c12-4-1-16(10-6(4)9(13)14-3-15-10)11-8(19)7(18)5(2-17)20-11/h1,3,5,7-8,11,17-19H,2H2,(H2,13,14,15)/t5-,7-,8-,11-/m1/s1

>  <InChIKey>
WHSIXKUPQCKWBY-IOSLPCCCSA-N

>  <SMILES>
c1c(c2c(ncnc2n1[C@H]3[C@@H]([C@@H]([C@H](O3)CO)O)O)N)I

$$$$
