6G34_5ID_A_401


 25 27  0  0  0  0  0  0  0  0999 V2000
   13.3373   10.8763   12.9476 N   0  0  0  0  0  0  0  0  0  0  0  0
   12.6780   10.7594   11.7388 C   0  0  0  0  0  0  0  0  0  0  0  0
   11.6978   11.7045   11.6673 C   0  0  0  0  0  0  0  0  0  0  0  0
   11.6956   12.4355   12.8965 C   0  0  0  0  0  0  0  0  0  0  0  0
   10.9570   13.4854   13.4996 C   0  0  0  0  0  0  0  0  0  0  0  0
   11.3045   13.8970   14.7347 N   0  0  0  0  0  0  0  0  0  0  0  0
   12.3211   13.2899   15.3439 C   0  0  0  0  0  0  0  0  0  0  0  0
   13.0919   12.2969   14.8919 N   0  0  0  0  0  0  0  0  0  0  0  0
   12.7518   11.8932   13.6602 C   0  0  0  0  0  0  0  0  0  0  0  0
    9.9198   14.0732   12.9069 N   0  0  0  0  0  0  0  0  0  0  0  0
   10.4592   12.1189   10.0134 I   0  0  0  0  0  0  0  0  0  0  0  0
    9.6443   13.7920   12.0046 H   0  0  0  0  0  0  0  0  0  0  0  0
    9.4284   14.7890   13.3710 H   0  0  0  0  0  0  0  0  0  0  0  0
   14.8492    7.9893   12.3813 C   0  0  0  0  0  0  0  0  0  0  0  0
   15.0396    9.4232   12.2828 O   0  0  0  0  0  0  0  0  0  0  0  0
   14.4609   10.0648   13.4051 C   0  0  0  0  0  0  0  0  0  0  0  0
   14.0460    8.9668   14.3918 C   0  0  0  0  0  0  0  0  0  0  0  0
   15.1394    8.7383   15.3014 O   0  0  0  0  0  0  0  0  0  0  0  0
   13.7695    7.8021   13.4515 C   0  0  0  0  0  0  0  0  0  0  0  0
   13.8792    6.5156   14.0688 O   0  0  0  0  0  0  0  0  0  0  0  0
   15.9444    8.5432   14.7967 H   0  0  0  0  0  0  0  0  0  0  0  0
   14.7705    6.4083   14.4363 H   0  0  0  0  0  0  0  0  0  0  0  0
   15.3636    7.8755    9.9655 O   0  0  0  0  0  0  0  0  0  0  0  0
   14.5507    7.3804   11.0316 C   0  0  0  0  0  0  0  0  0  0  0  0
   15.1120    7.4381    9.1371 H   0  0  0  0  0  0  0  0  0  0  0  0
 23 24  1  0  0  0
 24 14  1  0  0  0
 14 15  1  0  0  0
 14 19  1  0  0  0
 15 16  1  0  0  0
 16  1  1  0  0  0
 16 17  1  0  0  0
  1  2  1  0  0  0
  1  9  1  0  0  0
  2  3  2  0  0  0
  3  4  1  0  0  0
  3 11  1  0  0  0
  4  5  2  0  0  0
  4  9  1  0  0  0
  5  6  1  0  0  0
  5 10  1  0  0  0
  6  7  2  0  0  0
  7  8  1  0  0  0
  8  9  2  0  0  0
 17 18  1  0  0  0
 17 19  1  0  0  0
 19 20  1  0  0  0
 23 25  1  0  0  0
 10 12  1  0  0  0
 10 13  1  0  0  0
 18 21  1  0  0  0
 20 22  1  0  0  0
M  END
> <minimizedAffinity>
-9.38577

$$$$
6G34_5ID_A_401


 25 27  0  0  0  0  0  0  0  0999 V2000
   12.9646   11.3123   12.6443 N   0  0  0  0  0  0  0  0  0  0  0  0
   13.0825   10.3843   11.6272 C   0  0  0  0  0  0  0  0  0  0  0  0
   12.0576   10.5518   10.7438 C   0  0  0  0  0  0  0  0  0  0  0  0
   11.2194   11.6034   11.2307 C   0  0  0  0  0  0  0  0  0  0  0  0
   10.0150   12.2526   10.8574 C   0  0  0  0  0  0  0  0  0  0  0  0
    9.5476   13.2497   11.6340 N   0  0  0  0  0  0  0  0  0  0  0  0
   10.2311   13.5752   12.7295 C   0  0  0  0  0  0  0  0  0  0  0  0
   11.3681   13.0475   13.1911 N   0  0  0  0  0  0  0  0  0  0  0  0
   11.8376   12.0616   12.4143 C   0  0  0  0  0  0  0  0  0  0  0  0
    9.3118   11.9088    9.7805 N   0  0  0  0  0  0  0  0  0  0  0  0
   11.7839    9.5368    8.9174 I   0  0  0  0  0  0  0  0  0  0  0  0
    9.6302   11.1837    9.1956 H   0  0  0  0  0  0  0  0  0  0  0  0
    8.4734   12.3795    9.5691 H   0  0  0  0  0  0  0  0  0  0  0  0
   15.0450    9.6079   14.5702 C   0  0  0  0  0  0  0  0  0  0  0  0
   15.0055   10.6566   13.5698 O   0  0  0  0  0  0  0  0  0  0  0  0
   13.8704   11.4782   13.7768 C   0  0  0  0  0  0  0  0  0  0  0  0
   13.2444   11.0595   15.1125 C   0  0  0  0  0  0  0  0  0  0  0  0
   13.8125   11.8757   16.1546 O   0  0  0  0  0  0  0  0  0  0  0  0
   13.6436    9.5925   15.1885 C   0  0  0  0  0  0  0  0  0  0  0  0
   13.6776    9.0656   16.5186 O   0  0  0  0  0  0  0  0  0  0  0  0
   14.7798   11.8108   16.1251 H   0  0  0  0  0  0  0  0  0  0  0  0
   14.3002    9.5811   17.0549 H   0  0  0  0  0  0  0  0  0  0  0  0
   16.4682    7.5970   14.7804 O   0  0  0  0  0  0  0  0  0  0  0  0
   15.5177    8.3012   13.9784 C   0  0  0  0  0  0  0  0  0  0  0  0
   16.7207    6.7735   14.3343 H   0  0  0  0  0  0  0  0  0  0  0  0
 23 24  1  0  0  0
 24 14  1  0  0  0
 14 15  1  0  0  0
 14 19  1  0  0  0
 15 16  1  0  0  0
 16  1  1  0  0  0
 16 17  1  0  0  0
  1  2  1  0  0  0
  1  9  1  0  0  0
  2  3  2  0  0  0
  3  4  1  0  0  0
  3 11  1  0  0  0
  4  5  2  0  0  0
  4  9  1  0  0  0
  5  6  1  0  0  0
  5 10  1  0  0  0
  6  7  2  0  0  0
  7  8  1  0  0  0
  8  9  2  0  0  0
 17 18  1  0  0  0
 17 19  1  0  0  0
 19 20  1  0  0  0
 23 25  1  0  0  0
 10 12  1  0  0  0
 10 13  1  0  0  0
 18 21  1  0  0  0
 20 22  1  0  0  0
M  END
> <minimizedAffinity>
-9.10832

$$$$
6G34_5ID_A_401


 25 27  0  0  0  0  0  0  0  0999 V2000
   13.8097    9.1040   11.9938 N   0  0  0  0  0  0  0  0  0  0  0  0
   14.1695    7.8573   12.4688 C   0  0  0  0  0  0  0  0  0  0  0  0
   13.6638    6.8976   11.6429 C   0  0  0  0  0  0  0  0  0  0  0  0
   12.9115    7.5480   10.6151 C   0  0  0  0  0  0  0  0  0  0  0  0
   12.1216    7.1856    9.4942 C   0  0  0  0  0  0  0  0  0  0  0  0
   11.5660    8.1613    8.7492 N   0  0  0  0  0  0  0  0  0  0  0  0
   11.7716    9.4277    9.1056 C   0  0  0  0  0  0  0  0  0  0  0  0
   12.4872    9.9006   10.1297 N   0  0  0  0  0  0  0  0  0  0  0  0
   13.0468    8.9307   10.8658 C   0  0  0  0  0  0  0  0  0  0  0  0
   11.8873    5.9202    9.1534 N   0  0  0  0  0  0  0  0  0  0  0  0
   14.0010    4.8208   11.7623 I   0  0  0  0  0  0  0  0  0  0  0  0
   12.2808    5.1875    9.6804 H   0  0  0  0  0  0  0  0  0  0  0  0
   11.3206    5.7170    8.3745 H   0  0  0  0  0  0  0  0  0  0  0  0
   14.8782   10.4604   14.8152 C   0  0  0  0  0  0  0  0  0  0  0  0
   15.2730   10.2025   13.4442 O   0  0  0  0  0  0  0  0  0  0  0  0
   14.1670   10.3921   12.5800 C   0  0  0  0  0  0  0  0  0  0  0  0
   13.0373   11.0053   13.4161 C   0  0  0  0  0  0  0  0  0  0  0  0
   13.1348   12.4397   13.3268 O   0  0  0  0  0  0  0  0  0  0  0  0
   13.3466   10.4489   14.7989 C   0  0  0  0  0  0  0  0  0  0  0  0
   12.8180   11.2318   15.8740 O   0  0  0  0  0  0  0  0  0  0  0  0
   14.0263   12.7200   13.5867 H   0  0  0  0  0  0  0  0  0  0  0  0
   13.1702   12.1340   15.8206 H   0  0  0  0  0  0  0  0  0  0  0  0
   14.7154    9.0997   16.8733 O   0  0  0  0  0  0  0  0  0  0  0  0
   15.5336    9.4889   15.7681 C   0  0  0  0  0  0  0  0  0  0  0  0
   15.2048    8.4787   17.4351 H   0  0  0  0  0  0  0  0  0  0  0  0
 23 24  1  0  0  0
 24 14  1  0  0  0
 14 15  1  0  0  0
 14 19  1  0  0  0
 15 16  1  0  0  0
 16  1  1  0  0  0
 16 17  1  0  0  0
  1  2  1  0  0  0
  1  9  1  0  0  0
  2  3  2  0  0  0
  3  4  1  0  0  0
  3 11  1  0  0  0
  4  5  2  0  0  0
  4  9  1  0  0  0
  5  6  1  0  0  0
  5 10  1  0  0  0
  6  7  2  0  0  0
  7  8  1  0  0  0
  8  9  2  0  0  0
 17 18  1  0  0  0
 17 19  1  0  0  0
 19 20  1  0  0  0
 23 25  1  0  0  0
 10 12  1  0  0  0
 10 13  1  0  0  0
 18 21  1  0  0  0
 20 22  1  0  0  0
M  END
> <minimizedAffinity>
-8.42856

$$$$
6G34_5ID_A_401


 25 27  0  0  0  0  0  0  0  0999 V2000
   13.0838   10.3678   11.5531 N   0  0  0  0  0  0  0  0  0  0  0  0
   12.5428   11.4464   12.2264 C   0  0  0  0  0  0  0  0  0  0  0  0
   11.4010   11.8440   11.5961 C   0  0  0  0  0  0  0  0  0  0  0  0
   11.2181   11.0155   10.4448 C   0  0  0  0  0  0  0  0  0  0  0  0
   10.3070   10.8945    9.3647 C   0  0  0  0  0  0  0  0  0  0  0  0
   10.5084    9.9246    8.4513 N   0  0  0  0  0  0  0  0  0  0  0  0
   11.5650    9.1269    8.5944 C   0  0  0  0  0  0  0  0  0  0  0  0
   12.4920    9.1345    9.5562 N   0  0  0  0  0  0  0  0  0  0  0  0
   12.2870   10.0937   10.4693 C   0  0  0  0  0  0  0  0  0  0  0  0
    9.2677   11.7102    9.2004 N   0  0  0  0  0  0  0  0  0  0  0  0
   10.0578   13.3366   12.2357 I   0  0  0  0  0  0  0  0  0  0  0  0
    9.0971   12.4276    9.8527 H   0  0  0  0  0  0  0  0  0  0  0  0
    8.6698   11.5961    8.4266 H   0  0  0  0  0  0  0  0  0  0  0  0
   14.2990    7.2971   11.7410 C   0  0  0  0  0  0  0  0  0  0  0  0
   14.4472    8.5480   11.0231 O   0  0  0  0  0  0  0  0  0  0  0  0
   14.2944    9.6372   11.9155 C   0  0  0  0  0  0  0  0  0  0  0  0
   14.2439    9.0581   13.3344 C   0  0  0  0  0  0  0  0  0  0  0  0
   15.5839    9.0353   13.8624 O   0  0  0  0  0  0  0  0  0  0  0  0
   13.6561    7.6775   13.0782 C   0  0  0  0  0  0  0  0  0  0  0  0
   13.9694    6.7136   14.0886 O   0  0  0  0  0  0  0  0  0  0  0  0
   16.1640    8.5546   13.2514 H   0  0  0  0  0  0  0  0  0  0  0  0
   14.9325    6.6275   14.1657 H   0  0  0  0  0  0  0  0  0  0  0  0
   12.3766    5.7547   11.5444 O   0  0  0  0  0  0  0  0  0  0  0  0
   13.5503    6.2760   10.9175 C   0  0  0  0  0  0  0  0  0  0  0  0
   11.9550    5.1093   10.9555 H   0  0  0  0  0  0  0  0  0  0  0  0
 23 24  1  0  0  0
 24 14  1  0  0  0
 14 15  1  0  0  0
 14 19  1  0  0  0
 15 16  1  0  0  0
 16  1  1  0  0  0
 16 17  1  0  0  0
  1  2  1  0  0  0
  1  9  1  0  0  0
  2  3  2  0  0  0
  3  4  1  0  0  0
  3 11  1  0  0  0
  4  5  2  0  0  0
  4  9  1  0  0  0
  5  6  1  0  0  0
  5 10  1  0  0  0
  6  7  2  0  0  0
  7  8  1  0  0  0
  8  9  2  0  0  0
 17 18  1  0  0  0
 17 19  1  0  0  0
 19 20  1  0  0  0
 23 25  1  0  0  0
 10 12  1  0  0  0
 10 13  1  0  0  0
 18 21  1  0  0  0
 20 22  1  0  0  0
M  END
> <minimizedAffinity>
-8.18880

$$$$
6G34_5ID_A_401


 25 27  0  0  0  0  0  0  0  0999 V2000
   13.5190   10.0871   12.0523 N   0  0  0  0  0  0  0  0  0  0  0  0
   12.5234   10.7091   11.3234 C   0  0  0  0  0  0  0  0  0  0  0  0
   11.9933   11.7257   12.0614 C   0  0  0  0  0  0  0  0  0  0  0  0
   12.6438   11.7355   13.3351 C   0  0  0  0  0  0  0  0  0  0  0  0
   12.5734   12.4617   14.5513 C   0  0  0  0  0  0  0  0  0  0  0  0
   13.4135   12.1336   15.5525 N   0  0  0  0  0  0  0  0  0  0  0  0
   14.2675   11.1299   15.3618 C   0  0  0  0  0  0  0  0  0  0  0  0
   14.4341   10.3711   14.2751 N   0  0  0  0  0  0  0  0  0  0  0  0
   13.6045   10.7028   13.2763 C   0  0  0  0  0  0  0  0  0  0  0  0
   11.6993   13.4445   14.7572 N   0  0  0  0  0  0  0  0  0  0  0  0
   10.5494   13.1256   11.4318 I   0  0  0  0  0  0  0  0  0  0  0  0
   11.0738   13.7047   14.0429 H   0  0  0  0  0  0  0  0  0  0  0  0
   11.6784   13.9111   15.6239 H   0  0  0  0  0  0  0  0  0  0  0  0
   13.3741    7.3051   10.2686 C   0  0  0  0  0  0  0  0  0  0  0  0
   13.9736    8.6251   10.2895 O   0  0  0  0  0  0  0  0  0  0  0  0
   14.3440    8.9657   11.6135 C   0  0  0  0  0  0  0  0  0  0  0  0
   14.1577    7.7105   12.4742 C   0  0  0  0  0  0  0  0  0  0  0  0
   15.4028    6.9863   12.4947 O   0  0  0  0  0  0  0  0  0  0  0  0
   13.0382    6.9957   11.7307 C   0  0  0  0  0  0  0  0  0  0  0  0
   12.9964    5.5833   11.9576 O   0  0  0  0  0  0  0  0  0  0  0  0
   15.6904    6.8120   11.5849 H   0  0  0  0  0  0  0  0  0  0  0  0
   13.8417    5.1881   11.6928 H   0  0  0  0  0  0  0  0  0  0  0  0
   11.5157    5.9970    9.2948 O   0  0  0  0  0  0  0  0  0  0  0  0
   12.2171    7.2422    9.2998 C   0  0  0  0  0  0  0  0  0  0  0  0
   10.7916    6.0364    8.6505 H   0  0  0  0  0  0  0  0  0  0  0  0
 23 24  1  0  0  0
 24 14  1  0  0  0
 14 15  1  0  0  0
 14 19  1  0  0  0
 15 16  1  0  0  0
 16  1  1  0  0  0
 16 17  1  0  0  0
  1  2  1  0  0  0
  1  9  1  0  0  0
  2  3  2  0  0  0
  3  4  1  0  0  0
  3 11  1  0  0  0
  4  5  2  0  0  0
  4  9  1  0  0  0
  5  6  1  0  0  0
  5 10  1  0  0  0
  6  7  2  0  0  0
  7  8  1  0  0  0
  8  9  2  0  0  0
 17 18  1  0  0  0
 17 19  1  0  0  0
 19 20  1  0  0  0
 23 25  1  0  0  0
 10 12  1  0  0  0
 10 13  1  0  0  0
 18 21  1  0  0  0
 20 22  1  0  0  0
M  END
> <minimizedAffinity>
-8.14289

$$$$
6G34_5ID_A_401


 25 27  0  0  0  0  0  0  0  0999 V2000
   12.2749    9.2813    9.9132 N   0  0  0  0  0  0  0  0  0  0  0  0
   12.8827    9.8079   11.0369 C   0  0  0  0  0  0  0  0  0  0  0  0
   13.4396    8.7971   11.7630 C   0  0  0  0  0  0  0  0  0  0  0  0
   13.1447    7.5625   11.1041 C   0  0  0  0  0  0  0  0  0  0  0  0
   13.3688    6.1770   11.3076 C   0  0  0  0  0  0  0  0  0  0  0  0
   12.9010    5.3031   10.3948 N   0  0  0  0  0  0  0  0  0  0  0  0
   12.2347    5.7777    9.3441 C   0  0  0  0  0  0  0  0  0  0  0  0
   11.9564    7.0476    9.0369 N   0  0  0  0  0  0  0  0  0  0  0  0
   12.4289    7.9174    9.9402 C   0  0  0  0  0  0  0  0  0  0  0  0
   14.0064    5.6963   12.3728 N   0  0  0  0  0  0  0  0  0  0  0  0
   14.6265    8.9889   13.4938 I   0  0  0  0  0  0  0  0  0  0  0  0
   14.3584    6.3124   13.0553 H   0  0  0  0  0  0  0  0  0  0  0  0
   14.1260    4.7248   12.4781 H   0  0  0  0  0  0  0  0  0  0  0  0
   11.0413   12.2806    9.2617 C   0  0  0  0  0  0  0  0  0  0  0  0
   12.0824   11.3554    8.8586 O   0  0  0  0  0  0  0  0  0  0  0  0
   11.5814   10.0307    8.8702 C   0  0  0  0  0  0  0  0  0  0  0  0
   10.0679   10.1197    9.1002 C   0  0  0  0  0  0  0  0  0  0  0  0
    9.4169   10.1724    7.8164 O   0  0  0  0  0  0  0  0  0  0  0  0
    9.9580   11.4082    9.9032 C   0  0  0  0  0  0  0  0  0  0  0  0
    8.6767   12.0401    9.8193 O   0  0  0  0  0  0  0  0  0  0  0  0
    9.7886   10.9009    7.2949 H   0  0  0  0  0  0  0  0  0  0  0  0
    8.4742   12.2385    8.8916 H   0  0  0  0  0  0  0  0  0  0  0  0
   10.8056   13.6864   11.2820 O   0  0  0  0  0  0  0  0  0  0  0  0
   11.5945   13.3869   10.1286 C   0  0  0  0  0  0  0  0  0  0  0  0
   11.2251   14.4029   11.7834 H   0  0  0  0  0  0  0  0  0  0  0  0
 23 24  1  0  0  0
 24 14  1  0  0  0
 14 15  1  0  0  0
 14 19  1  0  0  0
 15 16  1  0  0  0
 16  1  1  0  0  0
 16 17  1  0  0  0
  1  2  1  0  0  0
  1  9  1  0  0  0
  2  3  2  0  0  0
  3  4  1  0  0  0
  3 11  1  0  0  0
  4  5  2  0  0  0
  4  9  1  0  0  0
  5  6  1  0  0  0
  5 10  1  0  0  0
  6  7  2  0  0  0
  7  8  1  0  0  0
  8  9  2  0  0  0
 17 18  1  0  0  0
 17 19  1  0  0  0
 19 20  1  0  0  0
 23 25  1  0  0  0
 10 12  1  0  0  0
 10 13  1  0  0  0
 18 21  1  0  0  0
 20 22  1  0  0  0
M  END
> <minimizedAffinity>
-7.94403

$$$$
6G34_5ID_A_401


 25 27  0  0  0  0  0  0  0  0999 V2000
   12.7577   11.1319   12.0770 N   0  0  0  0  0  0  0  0  0  0  0  0
   12.9806   11.3139   13.4285 C   0  0  0  0  0  0  0  0  0  0  0  0
   13.3847   10.1347   13.9810 C   0  0  0  0  0  0  0  0  0  0  0  0
   13.3835    9.1397   12.9537 C   0  0  0  0  0  0  0  0  0  0  0  0
   13.6458    7.7517   12.8274 C   0  0  0  0  0  0  0  0  0  0  0  0
   13.5237    7.1758   11.6153 N   0  0  0  0  0  0  0  0  0  0  0  0
   13.1479    7.9337   10.5870 C   0  0  0  0  0  0  0  0  0  0  0  0
   12.8718    9.2407   10.5707 N   0  0  0  0  0  0  0  0  0  0  0  0
   13.0014    9.8152   11.7744 C   0  0  0  0  0  0  0  0  0  0  0  0
   13.9906    6.9841   13.8591 N   0  0  0  0  0  0  0  0  0  0  0  0
   14.0149    9.8192   15.9671 I   0  0  0  0  0  0  0  0  0  0  0  0
   14.0870    7.3788   14.7558 H   0  0  0  0  0  0  0  0  0  0  0  0
   14.1493    6.0217   13.7252 H   0  0  0  0  0  0  0  0  0  0  0  0
   10.3861   13.3821   11.5731 C   0  0  0  0  0  0  0  0  0  0  0  0
   11.8045   13.2505   11.8432 O   0  0  0  0  0  0  0  0  0  0  0  0
   12.3327   12.1513   11.1227 C   0  0  0  0  0  0  0  0  0  0  0  0
   11.2343   11.6622   10.1711 C   0  0  0  0  0  0  0  0  0  0  0  0
   11.3900   12.3430    8.9113 O   0  0  0  0  0  0  0  0  0  0  0  0
    9.9759   12.0519   10.9338 C   0  0  0  0  0  0  0  0  0  0  0  0
    8.8202   12.2175   10.1062 O   0  0  0  0  0  0  0  0  0  0  0  0
   11.3965   13.3015    9.0604 H   0  0  0  0  0  0  0  0  0  0  0  0
    8.9963   12.8973    9.4371 H   0  0  0  0  0  0  0  0  0  0  0  0
   10.4481   14.1626   13.9183 O   0  0  0  0  0  0  0  0  0  0  0  0
    9.6243   13.7778   12.8158 C   0  0  0  0  0  0  0  0  0  0  0  0
    9.8875   14.4008   14.6732 H   0  0  0  0  0  0  0  0  0  0  0  0
 23 24  1  0  0  0
 24 14  1  0  0  0
 14 15  1  0  0  0
 14 19  1  0  0  0
 15 16  1  0  0  0
 16  1  1  0  0  0
 16 17  1  0  0  0
  1  2  1  0  0  0
  1  9  1  0  0  0
  2  3  2  0  0  0
  3  4  1  0  0  0
  3 11  1  0  0  0
  4  5  2  0  0  0
  4  9  1  0  0  0
  5  6  1  0  0  0
  5 10  1  0  0  0
  6  7  2  0  0  0
  7  8  1  0  0  0
  8  9  2  0  0  0
 17 18  1  0  0  0
 17 19  1  0  0  0
 19 20  1  0  0  0
 23 25  1  0  0  0
 10 12  1  0  0  0
 10 13  1  0  0  0
 18 21  1  0  0  0
 20 22  1  0  0  0
M  END
> <minimizedAffinity>
-7.72078

$$$$
6G34_5ID_A_401


 25 27  0  0  0  0  0  0  0  0999 V2000
   13.9327    9.0795   13.1124 N   0  0  0  0  0  0  0  0  0  0  0  0
   14.7122    8.9595   14.2470 C   0  0  0  0  0  0  0  0  0  0  0  0
   14.4587   10.0084   15.0804 C   0  0  0  0  0  0  0  0  0  0  0  0
   13.5073   10.8636   14.4409 C   0  0  0  0  0  0  0  0  0  0  0  0
   12.8503   12.0933   14.7009 C   0  0  0  0  0  0  0  0  0  0  0  0
   11.9806   12.5698   13.7886 N   0  0  0  0  0  0  0  0  0  0  0  0
   11.7843   11.8708   12.6724 C   0  0  0  0  0  0  0  0  0  0  0  0
   12.3348   10.7096   12.3074 N   0  0  0  0  0  0  0  0  0  0  0  0
   13.1934   10.2313   13.2184 C   0  0  0  0  0  0  0  0  0  0  0  0
   13.0679   12.8111   15.8008 N   0  0  0  0  0  0  0  0  0  0  0  0
   15.2280   10.2958   17.0213 I   0  0  0  0  0  0  0  0  0  0  0  0
   13.6983   12.4865   16.4837 H   0  0  0  0  0  0  0  0  0  0  0  0
   12.5983   13.6666   15.9312 H   0  0  0  0  0  0  0  0  0  0  0  0
   14.4555    5.9040   12.3479 C   0  0  0  0  0  0  0  0  0  0  0  0
   13.4100    6.9037   12.4458 O   0  0  0  0  0  0  0  0  0  0  0  0
   13.8928    8.1531   11.9851 C   0  0  0  0  0  0  0  0  0  0  0  0
   15.2721    7.9054   11.3626 C   0  0  0  0  0  0  0  0  0  0  0  0
   15.0949    7.6487    9.9563 O   0  0  0  0  0  0  0  0  0  0  0  0
   15.7512    6.6982   12.1565 C   0  0  0  0  0  0  0  0  0  0  0  0
   16.7383    5.9112   11.4823 O   0  0  0  0  0  0  0  0  0  0  0  0
   14.4628    6.9226    9.8373 H   0  0  0  0  0  0  0  0  0  0  0  0
   16.3807    5.5997   10.6361 H   0  0  0  0  0  0  0  0  0  0  0  0
   15.3417    3.8677   13.4349 O   0  0  0  0  0  0  0  0  0  0  0  0
   14.4286    4.9630   13.5291 C   0  0  0  0  0  0  0  0  0  0  0  0
   15.2642    3.3131   14.2270 H   0  0  0  0  0  0  0  0  0  0  0  0
 23 24  1  0  0  0
 24 14  1  0  0  0
 14 15  1  0  0  0
 14 19  1  0  0  0
 15 16  1  0  0  0
 16  1  1  0  0  0
 16 17  1  0  0  0
  1  2  1  0  0  0
  1  9  1  0  0  0
  2  3  2  0  0  0
  3  4  1  0  0  0
  3 11  1  0  0  0
  4  5  2  0  0  0
  4  9  1  0  0  0
  5  6  1  0  0  0
  5 10  1  0  0  0
  6  7  2  0  0  0
  7  8  1  0  0  0
  8  9  2  0  0  0
 17 18  1  0  0  0
 17 19  1  0  0  0
 19 20  1  0  0  0
 23 25  1  0  0  0
 10 12  1  0  0  0
 10 13  1  0  0  0
 18 21  1  0  0  0
 20 22  1  0  0  0
M  END
> <minimizedAffinity>
-7.64860

$$$$
6G34_5ID_A_401


 25 27  0  0  0  0  0  0  0  0999 V2000
   13.5663    9.9600   11.9004 N   0  0  0  0  0  0  0  0  0  0  0  0
   13.9514    8.6365   11.9984 C   0  0  0  0  0  0  0  0  0  0  0  0
   13.4130    7.9330   10.9620 C   0  0  0  0  0  0  0  0  0  0  0  0
   12.6135    8.8290   10.1852 C   0  0  0  0  0  0  0  0  0  0  0  0
   11.7761    8.7763    9.0418 C   0  0  0  0  0  0  0  0  0  0  0  0
   11.1845    9.9103    8.6180 N   0  0  0  0  0  0  0  0  0  0  0  0
   11.4010   11.0330    9.3003 C   0  0  0  0  0  0  0  0  0  0  0  0
   12.1596   11.2175   10.3843 N   0  0  0  0  0  0  0  0  0  0  0  0
   12.7548   10.0914   10.8010 C   0  0  0  0  0  0  0  0  0  0  0  0
   11.5315    7.6497    8.3759 N   0  0  0  0  0  0  0  0  0  0  0  0
   13.7627    5.9089   10.4909 I   0  0  0  0  0  0  0  0  0  0  0  0
   11.9506    6.8067    8.6639 H   0  0  0  0  0  0  0  0  0  0  0  0
   10.9315    7.6596    7.5954 H   0  0  0  0  0  0  0  0  0  0  0  0
   14.7959   10.5044   14.9226 C   0  0  0  0  0  0  0  0  0  0  0  0
   15.1057   10.6518   13.5139 O   0  0  0  0  0  0  0  0  0  0  0  0
   13.9446   11.0428   12.8031 C   0  0  0  0  0  0  0  0  0  0  0  0
   12.8632   11.3641   13.8416 C   0  0  0  0  0  0  0  0  0  0  0  0
   12.9373   12.7685   14.1533 O   0  0  0  0  0  0  0  0  0  0  0  0
   13.2666   10.4527   14.9921 C   0  0  0  0  0  0  0  0  0  0  0  0
   12.7982   10.8878   16.2725 O   0  0  0  0  0  0  0  0  0  0  0  0
   13.8401   12.9912   14.4296 H   0  0  0  0  0  0  0  0  0  0  0  0
   13.1352   11.7790   16.4544 H   0  0  0  0  0  0  0  0  0  0  0  0
   15.9151    8.3263   14.5808 O   0  0  0  0  0  0  0  0  0  0  0  0
   15.5224    9.3250   15.5247 C   0  0  0  0  0  0  0  0  0  0  0  0
   16.3728    7.6068   15.0430 H   0  0  0  0  0  0  0  0  0  0  0  0
 23 24  1  0  0  0
 24 14  1  0  0  0
 14 15  1  0  0  0
 14 19  1  0  0  0
 15 16  1  0  0  0
 16  1  1  0  0  0
 16 17  1  0  0  0
  1  2  1  0  0  0
  1  9  1  0  0  0
  2  3  2  0  0  0
  3  4  1  0  0  0
  3 11  1  0  0  0
  4  5  2  0  0  0
  4  9  1  0  0  0
  5  6  1  0  0  0
  5 10  1  0  0  0
  6  7  2  0  0  0
  7  8  1  0  0  0
  8  9  2  0  0  0
 17 18  1  0  0  0
 17 19  1  0  0  0
 19 20  1  0  0  0
 23 25  1  0  0  0
 10 12  1  0  0  0
 10 13  1  0  0  0
 18 21  1  0  0  0
 20 22  1  0  0  0
M  END
> <minimizedAffinity>
-7.63157

$$$$
6G34_5ID_A_401


 25 27  0  0  0  0  0  0  0  0999 V2000
   12.7515   11.1314   11.8500 N   0  0  0  0  0  0  0  0  0  0  0  0
   13.1165    9.8577   11.4578 C   0  0  0  0  0  0  0  0  0  0  0  0
   13.4954    9.1404   12.5537 C   0  0  0  0  0  0  0  0  0  0  0  0
   13.4117    9.9973   13.6957 C   0  0  0  0  0  0  0  0  0  0  0  0
   13.6763    9.9311   15.0875 C   0  0  0  0  0  0  0  0  0  0  0  0
   13.4449   11.0214   15.8446 N   0  0  0  0  0  0  0  0  0  0  0  0
   12.9889   12.1223   15.2503 C   0  0  0  0  0  0  0  0  0  0  0  0
   12.7016   12.3160   13.9602 N   0  0  0  0  0  0  0  0  0  0  0  0
   12.9237   11.2291   13.2084 C   0  0  0  0  0  0  0  0  0  0  0  0
   14.1626    8.8426   15.6802 N   0  0  0  0  0  0  0  0  0  0  0  0
   14.0122    7.0982   12.6115 I   0  0  0  0  0  0  0  0  0  0  0  0
   14.3410    8.0320   15.1508 H   0  0  0  0  0  0  0  0  0  0  0  0
   14.3437    8.8484   16.6478 H   0  0  0  0  0  0  0  0  0  0  0  0
   10.2835   13.3141   11.5563 C   0  0  0  0  0  0  0  0  0  0  0  0
   11.7109   13.2208   11.7926 O   0  0  0  0  0  0  0  0  0  0  0  0
   12.2682   12.2013   10.9825 C   0  0  0  0  0  0  0  0  0  0  0  0
   11.1719   11.7402   10.0147 C   0  0  0  0  0  0  0  0  0  0  0  0
   11.2762   12.5194    8.8076 O   0  0  0  0  0  0  0  0  0  0  0  0
    9.9140   12.0200   10.8250 C   0  0  0  0  0  0  0  0  0  0  0  0
    8.7369   12.1996   10.0312 O   0  0  0  0  0  0  0  0  0  0  0  0
   11.2476   13.4635    9.0287 H   0  0  0  0  0  0  0  0  0  0  0  0
    8.8730   12.9343    9.4126 H   0  0  0  0  0  0  0  0  0  0  0  0
   10.3082   14.2090   13.8611 O   0  0  0  0  0  0  0  0  0  0  0  0
    9.5307   13.5841   12.8376 C   0  0  0  0  0  0  0  0  0  0  0  0
    9.7566   14.3478   14.6468 H   0  0  0  0  0  0  0  0  0  0  0  0
 23 24  1  0  0  0
 24 14  1  0  0  0
 14 15  1  0  0  0
 14 19  1  0  0  0
 15 16  1  0  0  0
 16  1  1  0  0  0
 16 17  1  0  0  0
  1  2  1  0  0  0
  1  9  1  0  0  0
  2  3  2  0  0  0
  3  4  1  0  0  0
  3 11  1  0  0  0
  4  5  2  0  0  0
  4  9  1  0  0  0
  5  6  1  0  0  0
  5 10  1  0  0  0
  6  7  2  0  0  0
  7  8  1  0  0  0
  8  9  2  0  0  0
 17 18  1  0  0  0
 17 19  1  0  0  0
 19 20  1  0  0  0
 23 25  1  0  0  0
 10 12  1  0  0  0
 10 13  1  0  0  0
 18 21  1  0  0  0
 20 22  1  0  0  0
M  END
> <minimizedAffinity>
-7.61036

$$$$
