2XD9_XD9_A_200


 22 23  0  0  0  0  0  0  0  0999 V2000
  -25.0844   48.0608   15.5705 C   0  0  0  0  0  0  0  0  0  0  0  0
  -25.3750   48.1463   14.2457 C   0  0  0  0  0  0  0  0  0  0  0  0
  -23.3762   47.8270   15.7453 S   0  0  0  0  0  0  0  0  0  0  0  0
  -23.0991   47.9151   14.0622 C   0  0  0  0  0  0  0  0  0  0  0  0
  -24.3078   48.0833   13.3832 C   0  0  0  0  0  0  0  0  0  0  0  0
  -24.3061   48.1702   11.8243 C   0  0  0  0  0  0  0  0  0  0  0  0
  -24.5410   46.9231   11.2216 O   0  0  0  0  0  0  0  0  0  0  0  0
  -22.9580   48.6919   11.2627 C   0  0  0  0  0  0  0  0  0  0  0  0
  -21.7662   47.8711   11.8517 C   0  0  0  0  0  0  0  0  0  0  0  0
  -20.5294   48.4831   11.4673 O   0  0  0  0  0  0  0  0  0  0  0  0
  -21.7326   47.8381   13.4105 C   0  0  0  0  0  0  0  0  0  0  0  0
  -20.9182   46.7837   14.0853 O   0  0  0  0  0  0  0  0  0  0  0  0
  -25.3793   46.5594   11.5471 H   0  0  0  0  0  0  0  0  0  0  0  0
  -20.4800   49.3760   11.8431 H   0  0  0  0  0  0  0  0  0  0  0  0
  -21.3494   45.9219   13.9747 H   0  0  0  0  0  0  0  0  0  0  0  0
  -25.4830   49.0812   11.4568 C   0  0  0  0  0  0  0  0  0  0  0  0
  -25.3324   50.3409   11.3579 O   0  0  0  0  0  0  0  0  0  0  0  0
  -26.5698   48.4725   11.3117 O   0  0  0  0  0  0  0  0  0  0  0  0
  -24.4855   50.7225   11.4804 H   0  0  0  0  0  0  0  0  0  0  0  0
  -26.8206   48.9616   18.9404 C   0  0  0  0  0  0  0  0  0  0  0  0
  -25.8104   48.8565   17.7702 C   0  0  0  0  0  0  0  0  0  0  0  0
  -26.0129   48.1046   16.6152 C   0  0  0  0  0  0  0  0  0  0  0  0
 20 21  1  0  0  0
 21 22  2  0  0  0
 22  1  1  0  0  0
  1  2  2  0  0  0
  1  3  1  0  0  0
  2  5  1  0  0  0
  3  4  1  0  0  0
  4  5  2  0  0  0
  4 11  1  0  0  0
  5  6  1  0  0  0
  6 16  1  0  0  0
  6  7  1  0  0  0
  6  8  1  0  0  0
 16 17  1  0  0  0
 16 18  2  0  0  0
  8  9  1  0  0  0
  9 10  1  0  0  0
  9 11  1  0  0  0
 11 12  1  0  0  0
 17 19  1  0  0  0
  7 13  1  0  0  0
 10 14  1  0  0  0
 12 15  1  0  0  0
M  END
> <minimizedAffinity>
-11.96937

$$$$
