1E2L_TMC_A_500


 21 23  0  0  0  0  0  0  0  0999 V2000
   51.4936   35.0269   -1.5684 O   0  0  0  0  0  0  0  0  0  0  0  0
   50.6143   33.1420   -0.2474 C   0  0  0  0  0  0  0  0  0  0  0  0
   50.3226   34.4603   -0.9574 C   0  0  0  0  0  0  0  0  0  0  0  0
   49.1950   34.2063   -1.9641 C   0  0  0  0  0  0  0  0  0  0  0  0
   48.4547   32.9300   -1.4615 C   0  0  0  0  0  0  0  0  0  0  0  0
   49.4232   32.2182   -0.4720 C   0  0  0  0  0  0  0  0  0  0  0  0
   50.7768   31.9199   -1.0787 C   0  0  0  0  0  0  0  0  0  0  0  0
   52.1748   35.1680   -0.8925 H   0  0  0  0  0  0  0  0  0  0  0  0
   46.0495   31.5467   -1.6911 O   0  0  0  0  0  0  0  0  0  0  0  0
   43.8245   34.1115    1.4177 O   0  0  0  0  0  0  0  0  0  0  0  0
   47.1718   33.3579   -0.8032 N   0  0  0  0  0  0  0  0  0  0  0  0
   44.9753   32.7886   -0.1121 N   0  0  0  0  0  0  0  0  0  0  0  0
   46.0861   32.5150   -0.9292 C   0  0  0  0  0  0  0  0  0  0  0  0
   44.8406   33.8624    0.7537 C   0  0  0  0  0  0  0  0  0  0  0  0
   46.0222   34.7160    0.8178 C   0  0  0  0  0  0  0  0  0  0  0  0
   47.1243   34.4458    0.0635 C   0  0  0  0  0  0  0  0  0  0  0  0
   45.9472   35.8976    1.7801 C   0  0  0  0  0  0  0  0  0  0  0  0
   44.2213   32.1573   -0.1593 H   0  0  0  0  0  0  0  0  0  0  0  0
   51.2838   34.6939    1.4089 O   0  0  0  0  0  0  0  0  0  0  0  0
   51.1716   33.2561    1.1395 C   0  0  0  0  0  0  0  0  0  0  0  0
   51.6421   34.8289    2.3002 H   0  0  0  0  0  0  0  0  0  0  0  0
 19 20  1  0  0  0
  1  3  1  0  0  0
  9 13  2  0  0  0
 10 14  2  0  0  0
 11  5  1  0  0  0
 11 13  1  0  0  0
 11 16  1  0  0  0
 12 13  1  0  0  0
 12 14  1  0  0  0
  2  3  1  0  0  0
  2  6  1  0  0  0
  2  7  1  0  0  0
  2 20  1  0  0  0
  3  4  1  0  0  0
  4  5  1  0  0  0
  5  6  1  0  0  0
  6  7  1  0  0  0
 14 15  1  0  0  0
 15 16  2  0  0  0
 15 17  1  0  0  0
 19 21  1  0  0  0
  1  8  1  0  0  0
 12 18  1  0  0  0
M  END
> <minimizedAffinity>
-9.64864

$$$$
1E2L_TMC_A_500


 21 23  0  0  0  0  0  0  0  0999 V2000
   51.6132   33.8756    1.4788 O   0  0  0  0  0  0  0  0  0  0  0  0
   50.2621   33.4556   -0.5385 C   0  0  0  0  0  0  0  0  0  0  0  0
   50.2851   33.8694    0.9297 C   0  0  0  0  0  0  0  0  0  0  0  0
   49.5941   35.2333    1.0389 C   0  0  0  0  0  0  0  0  0  0  0  0
   48.6869   35.3535   -0.2228 C   0  0  0  0  0  0  0  0  0  0  0  0
   49.2092   34.3013   -1.2446 C   0  0  0  0  0  0  0  0  0  0  0  0
   50.6819   34.4566   -1.5547 C   0  0  0  0  0  0  0  0  0  0  0  0
   52.0057   32.9934    1.3857 H   0  0  0  0  0  0  0  0  0  0  0  0
   47.1555   33.2220   -1.1519 O   0  0  0  0  0  0  0  0  0  0  0  0
   43.6369   33.9882    1.7163 O   0  0  0  0  0  0  0  0  0  0  0  0
   47.2647   35.0948    0.1932 N   0  0  0  0  0  0  0  0  0  0  0  0
   45.4442   33.5786    0.3089 N   0  0  0  0  0  0  0  0  0  0  0  0
   46.6694   33.9418   -0.2773 C   0  0  0  0  0  0  0  0  0  0  0  0
   44.7454   34.3037    1.2610 C   0  0  0  0  0  0  0  0  0  0  0  0
   45.4307   35.5170    1.6938 C   0  0  0  0  0  0  0  0  0  0  0  0
   46.6377   35.8665    1.1671 C   0  0  0  0  0  0  0  0  0  0  0  0
   44.7259   36.3416    2.7668 C   0  0  0  0  0  0  0  0  0  0  0  0
   45.0446   32.7283    0.0149 H   0  0  0  0  0  0  0  0  0  0  0  0
   51.6623   31.6558   -1.1712 O   0  0  0  0  0  0  0  0  0  0  0  0
   50.2799   31.9800   -0.8018 C   0  0  0  0  0  0  0  0  0  0  0  0
   51.7337   30.7059   -1.3543 H   0  0  0  0  0  0  0  0  0  0  0  0
 19 20  1  0  0  0
  1  3  1  0  0  0
  9 13  2  0  0  0
 10 14  2  0  0  0
 11  5  1  0  0  0
 11 13  1  0  0  0
 11 16  1  0  0  0
 12 13  1  0  0  0
 12 14  1  0  0  0
  2  3  1  0  0  0
  2  6  1  0  0  0
  2  7  1  0  0  0
  2 20  1  0  0  0
  3  4  1  0  0  0
  4  5  1  0  0  0
  5  6  1  0  0  0
  6  7  1  0  0  0
 14 15  1  0  0  0
 15 16  2  0  0  0
 15 17  1  0  0  0
 19 21  1  0  0  0
  1  8  1  0  0  0
 12 18  1  0  0  0
M  END
> <minimizedAffinity>
-7.15745

$$$$
