1E2L_TMC_A_500
  RCSB PDB12061702203D
Coordinates from PDB:1E2L:A:500 Model:1 without hydrogens
 18 20  0  0  0  0            999 V2000
   50.2480   36.1560    0.6380   O 0  0  0  0  0  0  0  0  0  0  0  0
   50.7490   34.8620   -2.4060   O 0  0  0  0  0  0  0  0  0  0  0  0
   45.5780   31.9080   -1.4740   O 0  0  0  0  0  0  0  0  0  0  0  0
   43.2950   34.6050    1.4770   O 0  0  0  0  0  0  0  0  0  0  0  0
   46.8020   33.4610   -0.2830   N 0  0  0  0  0  0  0  0  0  0  0  0
   44.4640   33.2090    0.0280   N 0  0  0  0  0  0  0  0  0  0  0  0
   50.2620   33.9340   -0.1760   C 0  0  0  0  0  0  0  0  0  0  0  0
   49.7220   34.6090   -1.4330   C 0  0  0  0  0  0  0  0  0  0  0  0
   48.5910   33.7320   -1.9820   C 0  0  0  0  0  0  0  0  0  0  0  0
   48.0950   32.8740   -0.7790   C 0  0  0  0  0  0  0  0  0  0  0  0
   49.2220   32.9240    0.2940   C 0  0  0  0  0  0  0  0  0  0  0  0
   50.5670   32.4800   -0.2380   C 0  0  0  0  0  0  0  0  0  0  0  0
   50.8760   34.8460    0.8430   C 0  0  0  0  0  0  0  0  0  0  0  0
   45.6370   32.8110   -0.6370   C 0  0  0  0  0  0  0  0  0  0  0  0
   44.3550   34.2370    0.9510   C 0  0  0  0  0  0  0  0  0  0  0  0
   45.6250   34.8860    1.2590   C 0  0  0  0  0  0  0  0  0  0  0  0
   46.7800   34.4890    0.6550   C 0  0  0  0  0  0  0  0  0  0  0  0
   45.5750   36.0050    2.2950   C 0  0  0  0  0  0  0  0  0  0  0  0
  1 13  1  0  0  0  0
  2  8  1  0  0  0  0
  3 14  2  0  0  0  0
  4 15  2  0  0  0  0
  5 10  1  0  0  0  0
  5 14  1  0  0  0  0
  5 17  1  0  0  0  0
  6 14  1  0  0  0  0
  6 15  1  0  0  0  0
  7  8  1  0  0  0  0
  7 11  1  0  0  0  0
  7 12  1  0  0  0  0
  7 13  1  0  0  0  0
  8  9  1  0  0  0  0
  9 10  1  0  0  0  0
 10 11  1  0  0  0  0
 11 12  1  0  0  0  0
 15 16  1  0  0  0  0
 16 17  2  0  0  0  0
 16 18  1  0  0  0  0
A    1
O16
A    2
O18
A    3
O9
A    4
O7
A    5
N8
A    6
N5
A    7
C1
A    8
C10
A    9
C14
A   10
C17
A   11
C13
A   12
C15
A   13
C12
A   14
C11
A   15
C6
A   16
C4
A   17
C2
A   18
C3
M  END
>  <InstanceId>
1E2L_TMC_A_500

>  <ChemCompId>
TMC

>  <PdbId>
1E2L

>  <ChainId>
A

>  <ResidueNumber>
500

>  <InsertionCode>


>  <Model>
1

>  <AltIds>


>  <MissingHeavyAtoms>
0

>  <ObservedFormula>
C12 N2 O4

>  <Name>
1-[4-HYDROXY-5-(HYDROXYMETHYL)BICYCLO[3.1.0]HEX-2-YL]-5-METHYLPYRIMIDINE-2,4(1H,3H)-DIONE

>  <SystematicName>
1-[(1R,2S,4S,5S)-2-hydroxy-1-(hydroxymethyl)-4-bicyclo[3.1.0]hexanyl]-5-methyl-pyrimidine-2,4-dione

>  <Synonyms>
(N)-METHANOCARBA-THYMIDINE

>  <Type>
NON-POLYMER

>  <Formula>
C12 H16 N2 O4

>  <MolecularWeight>
252.266

>  <ModifiedDate>
2011-06-04

>  <Parent>


>  <OneLetterCode>


>  <SubcomponentList>


>  <AmbiguousFlag>
N

>  <InChI>
InChI=1S/C12H16N2O4/c1-6-4-14(11(18)13-10(6)17)8-2-9(16)12(5-15)3-7(8)12/h4,7-9,15-16H,2-3,5H2,1H3,(H,13,17,18)/t7-,8+,9+,12+/m1/s1

>  <InChIKey>
NOWRLNPOENZFHP-ARHDFHRDSA-N

>  <SMILES>
CC1=CN(C(=O)NC1=O)[C@H]2C[C@@H]([C@]3([C@@H]2C3)CO)O

$$$$
