2ANS_2AN_A_201
  RCSB PDB12061705013D
Coordinates from PDB:2ANS:A:201 Model:1 without hydrogens
 21 23  0  0  0  0            999 V2000
    6.8940   30.9830   17.7950   C 0  0  0  0  0  0  0  0  0  0  0  0
    6.4930   32.3010   18.0090   C 0  0  0  0  0  0  0  0  0  0  0  0
    5.4440   32.9070   17.3110   C 0  0  0  0  0  0  0  0  0  0  0  0
    4.7650   32.2060   16.3730   C 0  0  0  0  0  0  0  0  0  0  0  0
    5.0970   30.8560   16.0810   C 0  0  0  0  0  0  0  0  0  0  0  0
    4.3460   30.1760   15.0850   C 0  0  0  0  0  0  0  0  0  0  0  0
    4.5980   28.8920   14.7490   C 0  0  0  0  0  0  0  0  0  0  0  0
    5.6290   28.1950   15.3930   C 0  0  0  0  0  0  0  0  0  0  0  0
    7.9660   30.5030   18.5680   N 0  0  0  0  0  0  0  0  0  0  0  0
    7.6660   27.5800   17.0110   S 0  0  0  0  0  0  0  0  0  0  0  0
    6.4260   28.7560   16.3800   C 0  0  0  0  0  0  0  0  0  0  0  0
    6.1910   30.1720   16.7870   C 0  0  0  0  0  0  0  0  0  0  0  0
    7.9640   30.2300   19.9440   C 0  0  0  0  0  0  0  0  0  0  0  0
    8.9440   29.3490   20.4560   C 0  0  0  0  0  0  0  0  0  0  0  0
    8.9890   29.0420   21.7990   C 0  0  0  0  0  0  0  0  0  0  0  0
    8.0880   29.5790   22.6790   C 0  0  0  0  0  0  0  0  0  0  0  0
    7.1080   30.4510   22.2160   C 0  0  0  0  0  0  0  0  0  0  0  0
    7.0310   30.7860   20.8610   C 0  0  0  0  0  0  0  0  0  0  0  0
    8.9940   28.1230   16.7680   O 0  0  0  0  0  0  0  0  0  0  0  0
    7.3750   27.3740   18.4180   O 0  0  0  0  0  0  0  0  0  0  0  0
    7.4660   26.3350   16.2770   O 0  0  0  0  0  0  0  0  0  0  0  0
  1  2  2  0  0  0  0
  1  9  1  0  0  0  0
  1 12  1  0  0  0  0
  2  3  1  0  0  0  0
  3  4  2  0  0  0  0
  4  5  1  0  0  0  0
  5  6  2  0  0  0  0
  5 12  1  0  0  0  0
  6  7  1  0  0  0  0
  7  8  2  0  0  0  0
  8 11  1  0  0  0  0
  9 13  1  0  0  0  0
 10 11  1  0  0  0  0
 10 19  2  0  0  0  0
 10 20  2  0  0  0  0
 10 21  1  0  0  0  0
 11 12  2  0  0  0  0
 13 14  2  0  0  0  0
 13 18  1  0  0  0  0
 14 15  1  0  0  0  0
 15 16  2  0  0  0  0
 16 17  1  0  0  0  0
 17 18  2  0  0  0  0
A    1
C1
A    2
C2
A    3
C3
A    4
C4
A    5
C5
A    6
C6
A    7
C7
A    8
C8
A    9
N
A   10
S
A   11
C9
A   12
C10
A   13
C11
A   14
C12
A   15
C13
A   16
C14
A   17
C15
A   18
C16
A   19
O1
A   20
O2
A   21
O3
M  END
>  <InstanceId>
2ANS_2AN_A_201

>  <ChemCompId>
2AN

>  <PdbId>
2ANS

>  <ChainId>
A

>  <ResidueNumber>
201

>  <InsertionCode>


>  <Model>
1

>  <AltIds>


>  <MissingHeavyAtoms>
0

>  <ObservedFormula>
C16 N O3 S

>  <Name>
8-ANILINO-1-NAPHTHALENE SULFONATE

>  <SystematicName>
8-phenylazanylnaphthalene-1-sulfonic acid

>  <Synonyms>


>  <Type>
NON-POLYMER

>  <Formula>
C16 H13 N O3 S

>  <MolecularWeight>
299.344

>  <ModifiedDate>
2011-06-04

>  <Parent>


>  <OneLetterCode>


>  <SubcomponentList>


>  <AmbiguousFlag>
N

>  <InChI>
InChI=1S/C16H13NO3S/c18-21(19,20)15-11-5-7-12-6-4-10-14(16(12)15)17-13-8-2-1-3-9-13/h1-11,17H,(H,18,19,20)

>  <InChIKey>
FWEOQOXTVHGIFQ-UHFFFAOYSA-N

>  <SMILES>
c1ccc(cc1)Nc2cccc3c2c(ccc3)S(=O)(=O)O

$$$$
