5OS4_A8H_A_404


 18 20  0  0  0  0  0  0  0  0999 V2000
  -12.0141   12.2483  -15.0707 C   0  0  0  0  0  0  0  0  0  0  0  0
  -11.8595   14.9127  -16.5010 C   0  0  0  0  0  0  0  0  0  0  0  0
  -13.1277   14.2595  -15.9379 C   0  0  0  0  0  0  0  0  0  0  0  0
  -12.8279   13.4741  -14.6692 C   0  0  0  0  0  0  0  0  0  0  0  0
  -10.6126   14.0219  -16.3535 C   0  0  0  0  0  0  0  0  0  0  0  0
  -11.0467   12.5503  -16.2139 C   0  0  0  0  0  0  0  0  0  0  0  0
   -9.8920   11.6281  -15.9567 C   0  0  0  0  0  0  0  0  0  0  0  0
   -8.9533   11.4286  -16.6776 O   0  0  0  0  0  0  0  0  0  0  0  0
  -10.0693   11.0376  -14.7547 N   0  0  0  0  0  0  0  0  0  0  0  0
  -11.2027   11.4084  -14.1258 C   0  0  0  0  0  0  0  0  0  0  0  0
  -11.5247   11.0393  -13.0276 O   0  0  0  0  0  0  0  0  0  0  0  0
   -9.4290   10.3948  -14.3726 H   0  0  0  0  0  0  0  0  0  0  0  0
  -12.2759   15.1419  -20.2812 C   0  0  0  0  0  0  0  0  0  0  0  0
  -12.0998   14.6381  -19.0013 C   0  0  0  0  0  0  0  0  0  0  0  0
  -12.3851   16.4991  -20.4784 C   0  0  0  0  0  0  0  0  0  0  0  0
  -12.3231   17.3523  -19.3993 C   0  0  0  0  0  0  0  0  0  0  0  0
  -12.1587   16.8448  -18.1180 C   0  0  0  0  0  0  0  0  0  0  0  0
  -12.0391   15.4781  -17.8982 C   0  0  0  0  0  0  0  0  0  0  0  0
 13 14  2  0  0  0
 13 15  1  0  0  0
 14 18  1  0  0  0
 15 16  2  0  0  0
 18  2  1  0  0  0
 18 17  2  0  0  0
  2  3  1  0  0  0
  2  5  1  0  0  0
  3  4  1  0  0  0
 16 17  1  0  0  0
  4  1  1  0  0  0
  5  6  1  0  0  0
  1  6  1  0  0  0
  1 10  1  0  0  0
  6  7  1  0  0  0
 10 11  2  0  0  0
 10  9  1  0  0  0
  7  9  1  0  0  0
  7  8  2  0  0  0
  9 12  1  0  0  0
M  END
> <minimizedAffinity>
-8.02390

$$$$
5OS4_A8H_A_404


 18 20  0  0  0  0  0  0  0  0999 V2000
  -12.0275   12.2520  -15.0598 C   0  0  0  0  0  0  0  0  0  0  0  0
  -11.8722   14.9105  -16.5007 C   0  0  0  0  0  0  0  0  0  0  0  0
  -13.1401   14.2612  -15.9328 C   0  0  0  0  0  0  0  0  0  0  0  0
  -12.8390   13.4804  -14.6615 C   0  0  0  0  0  0  0  0  0  0  0  0
  -10.6261   14.0187  -16.3521 C   0  0  0  0  0  0  0  0  0  0  0  0
  -11.0619   12.5482  -16.2060 C   0  0  0  0  0  0  0  0  0  0  0  0
   -9.9079   11.6255  -15.9473 C   0  0  0  0  0  0  0  0  0  0  0  0
   -8.9708   11.4220  -16.6692 O   0  0  0  0  0  0  0  0  0  0  0  0
  -10.0837   11.0399  -14.7426 N   0  0  0  0  0  0  0  0  0  0  0  0
  -11.2154   11.4147  -14.1131 C   0  0  0  0  0  0  0  0  0  0  0  0
  -11.5358   11.0502  -13.0129 O   0  0  0  0  0  0  0  0  0  0  0  0
   -9.4435   10.3978  -14.3592 H   0  0  0  0  0  0  0  0  0  0  0  0
  -12.3117   17.3632  -19.3830 C   0  0  0  0  0  0  0  0  0  0  0  0
  -12.1582   16.8388  -18.1085 C   0  0  0  0  0  0  0  0  0  0  0  0
  -12.3725   16.5232  -20.4708 C   0  0  0  0  0  0  0  0  0  0  0  0
  -12.2757   15.1618  -20.2877 C   0  0  0  0  0  0  0  0  0  0  0  0
  -12.1100   14.6401  -19.0122 C   0  0  0  0  0  0  0  0  0  0  0  0
  -12.0536   15.4707  -17.8998 C   0  0  0  0  0  0  0  0  0  0  0  0
 13 14  2  0  0  0
 13 15  1  0  0  0
 14 18  1  0  0  0
 15 16  2  0  0  0
 18  2  1  0  0  0
 18 17  2  0  0  0
  2  3  1  0  0  0
  2  5  1  0  0  0
  3  4  1  0  0  0
 16 17  1  0  0  0
  4  1  1  0  0  0
  5  6  1  0  0  0
  1  6  1  0  0  0
  1 10  1  0  0  0
  6  7  1  0  0  0
 10 11  2  0  0  0
 10  9  1  0  0  0
  7  9  1  0  0  0
  7  8  2  0  0  0
  9 12  1  0  0  0
M  END
> <minimizedAffinity>
-8.01832

$$$$
5OS4_A8H_A_404


 18 20  0  0  0  0  0  0  0  0999 V2000
  -11.0242    9.2348  -13.2598 C   0  0  0  0  0  0  0  0  0  0  0  0
  -10.8696   12.1673  -13.9976 C   0  0  0  0  0  0  0  0  0  0  0  0
  -11.8935   11.5237  -13.0548 C   0  0  0  0  0  0  0  0  0  0  0  0
  -11.2779   10.3710  -12.2746 C   0  0  0  0  0  0  0  0  0  0  0  0
   -9.9255   11.1388  -14.6465 C   0  0  0  0  0  0  0  0  0  0  0  0
  -10.5918    9.7497  -14.6315 C   0  0  0  0  0  0  0  0  0  0  0  0
   -9.6893    8.6693  -15.1495 C   0  0  0  0  0  0  0  0  0  0  0  0
   -9.2207    8.5872  -16.2515 O   0  0  0  0  0  0  0  0  0  0  0  0
   -9.4735    7.7747  -14.1605 N   0  0  0  0  0  0  0  0  0  0  0  0
  -10.1112    8.0684  -13.0096 C   0  0  0  0  0  0  0  0  0  0  0  0
  -10.0140    7.4306  -11.9949 O   0  0  0  0  0  0  0  0  0  0  0  0
   -8.9024    6.9803  -14.2703 H   0  0  0  0  0  0  0  0  0  0  0  0
  -11.2497   14.6738  -16.8418 C   0  0  0  0  0  0  0  0  0  0  0  0
  -10.6965   13.7964  -15.9215 C   0  0  0  0  0  0  0  0  0  0  0  0
  -12.6048   14.9113  -16.8388 C   0  0  0  0  0  0  0  0  0  0  0  0
  -13.4077   14.2706  -15.9215 C   0  0  0  0  0  0  0  0  0  0  0  0
  -12.8531   13.3837  -15.0092 C   0  0  0  0  0  0  0  0  0  0  0  0
  -11.4861   13.1357  -14.9908 C   0  0  0  0  0  0  0  0  0  0  0  0
 13 14  2  0  0  0
 13 15  1  0  0  0
 14 18  1  0  0  0
 15 16  2  0  0  0
 18  2  1  0  0  0
 18 17  2  0  0  0
  2  3  1  0  0  0
  2  5  1  0  0  0
  3  4  1  0  0  0
 16 17  1  0  0  0
  4  1  1  0  0  0
  5  6  1  0  0  0
  1  6  1  0  0  0
  1 10  1  0  0  0
  6  7  1  0  0  0
 10 11  2  0  0  0
 10  9  1  0  0  0
  7  9  1  0  0  0
  7  8  2  0  0  0
  9 12  1  0  0  0
M  END
> <minimizedAffinity>
-7.54057

$$$$
5OS4_A8H_A_404


 18 20  0  0  0  0  0  0  0  0999 V2000
  -11.4147   15.8592  -18.8461 C   0  0  0  0  0  0  0  0  0  0  0  0
  -11.9366   14.2726  -16.3204 C   0  0  0  0  0  0  0  0  0  0  0  0
  -10.9609   15.4467  -16.4668 C   0  0  0  0  0  0  0  0  0  0  0  0
  -11.4838   16.4797  -17.4546 C   0  0  0  0  0  0  0  0  0  0  0  0
  -12.6054   13.8820  -17.6509 C   0  0  0  0  0  0  0  0  0  0  0  0
  -11.7329   14.3651  -18.8252 C   0  0  0  0  0  0  0  0  0  0  0  0
  -12.3707   14.1179  -20.1602 C   0  0  0  0  0  0  0  0  0  0  0  0
  -12.6652   13.0549  -20.6335 O   0  0  0  0  0  0  0  0  0  0  0  0
  -12.5728   15.3063  -20.7699 N   0  0  0  0  0  0  0  0  0  0  0  0
  -12.1538   16.3672  -20.0512 C   0  0  0  0  0  0  0  0  0  0  0  0
  -12.2848   17.5138  -20.3890 O   0  0  0  0  0  0  0  0  0  0  0  0
  -12.9883   15.3901  -21.6584 H   0  0  0  0  0  0  0  0  0  0  0  0
  -11.2155   11.7489  -13.5587 C   0  0  0  0  0  0  0  0  0  0  0  0
  -11.7314   12.8315  -14.2550 C   0  0  0  0  0  0  0  0  0  0  0  0
  -10.3041   10.9130  -14.1616 C   0  0  0  0  0  0  0  0  0  0  0  0
   -9.9113   11.1544  -15.4592 C   0  0  0  0  0  0  0  0  0  0  0  0
  -10.4381   12.2317  -16.1580 C   0  0  0  0  0  0  0  0  0  0  0  0
  -11.3540   13.0919  -15.5650 C   0  0  0  0  0  0  0  0  0  0  0  0
 13 14  2  0  0  0
 13 15  1  0  0  0
 14 18  1  0  0  0
 15 16  2  0  0  0
 18  2  1  0  0  0
 18 17  2  0  0  0
  2  3  1  0  0  0
  2  5  1  0  0  0
  3  4  1  0  0  0
 16 17  1  0  0  0
  4  1  1  0  0  0
  5  6  1  0  0  0
  1  6  1  0  0  0
  1 10  1  0  0  0
  6  7  1  0  0  0
 10 11  2  0  0  0
 10  9  1  0  0  0
  7  9  1  0  0  0
  7  8  2  0  0  0
  9 12  1  0  0  0
M  END
> <minimizedAffinity>
-7.33084

$$$$
5OS4_A8H_A_404


 18 20  0  0  0  0  0  0  0  0999 V2000
  -11.9380   14.9469  -16.2973 C   0  0  0  0  0  0  0  0  0  0  0  0
  -12.1920   12.0120  -15.5970 C   0  0  0  0  0  0  0  0  0  0  0  0
  -12.9880   13.1642  -14.9720 C   0  0  0  0  0  0  0  0  0  0  0  0
  -13.2650   14.2606  -15.9905 C   0  0  0  0  0  0  0  0  0  0  0  0
  -11.1314   12.4951  -16.6031 C   0  0  0  0  0  0  0  0  0  0  0  0
  -10.7699   13.9623  -16.3028 C   0  0  0  0  0  0  0  0  0  0  0  0
   -9.8200   14.5419  -17.3087 C   0  0  0  0  0  0  0  0  0  0  0  0
   -8.7039   14.1690  -17.5457 O   0  0  0  0  0  0  0  0  0  0  0  0
  -10.4260   15.5773  -17.9296 N   0  0  0  0  0  0  0  0  0  0  0  0
  -11.6780   15.8196  -17.4921 C   0  0  0  0  0  0  0  0  0  0  0  0
  -12.4070   16.6619  -17.9449 O   0  0  0  0  0  0  0  0  0  0  0  0
   -9.9927   16.1070  -18.6373 H   0  0  0  0  0  0  0  0  0  0  0  0
  -11.1244   10.4548  -12.2877 C   0  0  0  0  0  0  0  0  0  0  0  0
  -11.6014   11.3533  -13.2301 C   0  0  0  0  0  0  0  0  0  0  0  0
  -10.6839    9.2124  -12.6815 C   0  0  0  0  0  0  0  0  0  0  0  0
  -10.7232    8.8652  -14.0135 C   0  0  0  0  0  0  0  0  0  0  0  0
  -11.2122    9.7619  -14.9534 C   0  0  0  0  0  0  0  0  0  0  0  0
  -11.6550   11.0241  -14.5773 C   0  0  0  0  0  0  0  0  0  0  0  0
 13 14  2  0  0  0
 13 15  1  0  0  0
 14 18  1  0  0  0
 15 16  2  0  0  0
 18  2  1  0  0  0
 18 17  2  0  0  0
  2  3  1  0  0  0
  2  5  1  0  0  0
  3  4  1  0  0  0
 16 17  1  0  0  0
  4  1  1  0  0  0
  5  6  1  0  0  0
  1  6  1  0  0  0
  1 10  1  0  0  0
  6  7  1  0  0  0
 10 11  2  0  0  0
 10  9  1  0  0  0
  7  9  1  0  0  0
  7  8  2  0  0  0
  9 12  1  0  0  0
M  END
> <minimizedAffinity>
-7.11704

$$$$
5OS4_A8H_A_404


 18 20  0  0  0  0  0  0  0  0999 V2000
  -10.3728   11.4053  -15.7652 C   0  0  0  0  0  0  0  0  0  0  0  0
  -10.5030   13.3465  -18.0854 C   0  0  0  0  0  0  0  0  0  0  0  0
   -9.4415   13.3280  -16.9787 C   0  0  0  0  0  0  0  0  0  0  0  0
   -9.1463   11.9071  -16.5201 C   0  0  0  0  0  0  0  0  0  0  0  0
  -11.6105   12.2993  -17.8686 C   0  0  0  0  0  0  0  0  0  0  0  0
  -11.6744   11.9212  -16.3764 C   0  0  0  0  0  0  0  0  0  0  0  0
  -12.6581   10.8232  -16.0992 C   0  0  0  0  0  0  0  0  0  0  0  0
  -13.8433   10.8520  -16.2865 O   0  0  0  0  0  0  0  0  0  0  0  0
  -11.9916    9.7628  -15.5929 N   0  0  0  0  0  0  0  0  0  0  0  0
  -10.6648    9.9632  -15.4625 C   0  0  0  0  0  0  0  0  0  0  0  0
   -9.8847    9.1323  -15.0791 O   0  0  0  0  0  0  0  0  0  0  0  0
  -12.4346    8.9202  -15.3420 H   0  0  0  0  0  0  0  0  0  0  0  0
  -11.2931   17.0616  -17.7850 C   0  0  0  0  0  0  0  0  0  0  0  0
  -10.8243   15.7859  -17.5098 C   0  0  0  0  0  0  0  0  0  0  0  0
  -11.9886   17.3042  -18.9469 C   0  0  0  0  0  0  0  0  0  0  0  0
  -12.2122   16.2762  -19.8354 C   0  0  0  0  0  0  0  0  0  0  0  0
  -11.7316   15.0028  -19.5634 C   0  0  0  0  0  0  0  0  0  0  0  0
  -11.0333   14.7353  -18.3923 C   0  0  0  0  0  0  0  0  0  0  0  0
 13 14  2  0  0  0
 13 15  1  0  0  0
 14 18  1  0  0  0
 15 16  2  0  0  0
 18  2  1  0  0  0
 18 17  2  0  0  0
  2  3  1  0  0  0
  2  5  1  0  0  0
  3  4  1  0  0  0
 16 17  1  0  0  0
  4  1  1  0  0  0
  5  6  1  0  0  0
  1  6  1  0  0  0
  1 10  1  0  0  0
  6  7  1  0  0  0
 10 11  2  0  0  0
 10  9  1  0  0  0
  7  9  1  0  0  0
  7  8  2  0  0  0
  9 12  1  0  0  0
M  END
> <minimizedAffinity>
-7.02195

$$$$
5OS4_A8H_A_404


 18 20  0  0  0  0  0  0  0  0999 V2000
  -11.1114   11.3734  -15.4928 C   0  0  0  0  0  0  0  0  0  0  0  0
  -10.4817   14.1479  -16.5291 C   0  0  0  0  0  0  0  0  0  0  0  0
  -11.5082   13.7976  -15.4449 C   0  0  0  0  0  0  0  0  0  0  0  0
  -11.0454   12.6137  -14.6079 C   0  0  0  0  0  0  0  0  0  0  0  0
   -9.8191   12.9041  -17.1488 C   0  0  0  0  0  0  0  0  0  0  0  0
  -10.7304   11.6794  -16.9403 C   0  0  0  0  0  0  0  0  0  0  0  0
  -10.1049   10.4038  -17.4215 C   0  0  0  0  0  0  0  0  0  0  0  0
   -9.7739   10.1415  -18.5451 O   0  0  0  0  0  0  0  0  0  0  0  0
   -9.9630    9.5679  -16.3699 N   0  0  0  0  0  0  0  0  0  0  0  0
  -10.4143   10.0742  -15.2048 C   0  0  0  0  0  0  0  0  0  0  0  0
  -10.3371    9.5147  -14.1433 O   0  0  0  0  0  0  0  0  0  0  0  0
   -9.5660    8.6703  -16.4473 H   0  0  0  0  0  0  0  0  0  0  0  0
  -12.0399   15.5813  -19.6967 C   0  0  0  0  0  0  0  0  0  0  0  0
  -11.5504   14.6902  -18.7537 C   0  0  0  0  0  0  0  0  0  0  0  0
  -11.9792   16.9354  -19.4616 C   0  0  0  0  0  0  0  0  0  0  0  0
  -11.4348   17.3999  -18.2851 C   0  0  0  0  0  0  0  0  0  0  0  0
  -10.9564   16.5055  -17.3376 C   0  0  0  0  0  0  0  0  0  0  0  0
  -11.0017   15.1345  -17.5588 C   0  0  0  0  0  0  0  0  0  0  0  0
 13 14  2  0  0  0
 13 15  1  0  0  0
 14 18  1  0  0  0
 15 16  2  0  0  0
 18  2  1  0  0  0
 18 17  2  0  0  0
  2  3  1  0  0  0
  2  5  1  0  0  0
  3  4  1  0  0  0
 16 17  1  0  0  0
  4  1  1  0  0  0
  5  6  1  0  0  0
  1  6  1  0  0  0
  1 10  1  0  0  0
  6  7  1  0  0  0
 10 11  2  0  0  0
 10  9  1  0  0  0
  7  9  1  0  0  0
  7  8  2  0  0  0
  9 12  1  0  0  0
M  END
> <minimizedAffinity>
-6.95943

$$$$
5OS4_A8H_A_404


 18 20  0  0  0  0  0  0  0  0999 V2000
  -10.8698   12.4412  -17.5178 C   0  0  0  0  0  0  0  0  0  0  0  0
  -10.2024   11.4893  -14.7219 C   0  0  0  0  0  0  0  0  0  0  0  0
   -9.5748   10.9808  -16.0255 C   0  0  0  0  0  0  0  0  0  0  0  0
   -9.4584   12.0961  -17.0545 C   0  0  0  0  0  0  0  0  0  0  0  0
  -11.3236   12.5171  -14.9597 C   0  0  0  0  0  0  0  0  0  0  0  0
  -11.8875   12.3416  -16.3827 C   0  0  0  0  0  0  0  0  0  0  0  0
  -12.9128   13.3795  -16.7312 C   0  0  0  0  0  0  0  0  0  0  0  0
  -13.9659   13.5651  -16.1860 O   0  0  0  0  0  0  0  0  0  0  0  0
  -12.4608   14.0986  -17.7817 N   0  0  0  0  0  0  0  0  0  0  0  0
  -11.2541   13.7039  -18.2351 C   0  0  0  0  0  0  0  0  0  0  0  0
  -10.6526   14.2405  -19.1274 O   0  0  0  0  0  0  0  0  0  0  0  0
  -12.9667   14.8433  -18.1800 H   0  0  0  0  0  0  0  0  0  0  0  0
  -11.6937    9.6461  -11.7395 C   0  0  0  0  0  0  0  0  0  0  0  0
  -11.3217   10.6541  -12.6161 C   0  0  0  0  0  0  0  0  0  0  0  0
  -11.3314    8.3435  -11.9940 C   0  0  0  0  0  0  0  0  0  0  0  0
  -10.6027    8.0464  -13.1240 C   0  0  0  0  0  0  0  0  0  0  0  0
  -10.2419    9.0555  -14.0061 C   0  0  0  0  0  0  0  0  0  0  0  0
  -10.5915   10.3783  -13.7636 C   0  0  0  0  0  0  0  0  0  0  0  0
 13 14  2  0  0  0
 13 15  1  0  0  0
 14 18  1  0  0  0
 15 16  2  0  0  0
 18  2  1  0  0  0
 18 17  2  0  0  0
  2  3  1  0  0  0
  2  5  1  0  0  0
  3  4  1  0  0  0
 16 17  1  0  0  0
  4  1  1  0  0  0
  5  6  1  0  0  0
  1  6  1  0  0  0
  1 10  1  0  0  0
  6  7  1  0  0  0
 10 11  2  0  0  0
 10  9  1  0  0  0
  7  9  1  0  0  0
  7  8  2  0  0  0
  9 12  1  0  0  0
M  END
> <minimizedAffinity>
-6.87843

$$$$
5OS4_A8H_A_404


 18 20  0  0  0  0  0  0  0  0999 V2000
   -9.8427   10.2932  -14.9144 C   0  0  0  0  0  0  0  0  0  0  0  0
  -11.2267   12.3091  -16.7002 C   0  0  0  0  0  0  0  0  0  0  0  0
   -9.8165   11.7405  -16.8997 C   0  0  0  0  0  0  0  0  0  0  0  0
   -9.7335   10.2935  -16.4356 C   0  0  0  0  0  0  0  0  0  0  0  0
  -11.8916   11.8162  -15.4021 C   0  0  0  0  0  0  0  0  0  0  0  0
  -10.8045   11.3665  -14.4073 C   0  0  0  0  0  0  0  0  0  0  0  0
  -11.3764   10.7699  -13.1556 C   0  0  0  0  0  0  0  0  0  0  0  0
  -12.0822   11.3161  -12.3530 O   0  0  0  0  0  0  0  0  0  0  0  0
  -10.9683    9.4855  -13.0627 N   0  0  0  0  0  0  0  0  0  0  0  0
  -10.1724    9.0906  -14.0768 C   0  0  0  0  0  0  0  0  0  0  0  0
   -9.7418    7.9759  -14.2107 O   0  0  0  0  0  0  0  0  0  0  0  0
  -11.2284    8.8916  -12.3218 H   0  0  0  0  0  0  0  0  0  0  0  0
  -10.2160   15.9367  -17.2790 C   0  0  0  0  0  0  0  0  0  0  0  0
  -10.1559   14.5638  -17.0935 C   0  0  0  0  0  0  0  0  0  0  0  0
  -11.4302   16.5829  -17.2531 C   0  0  0  0  0  0  0  0  0  0  0  0
  -12.5837   15.8596  -17.0467 C   0  0  0  0  0  0  0  0  0  0  0  0
  -12.5220   14.4839  -16.8731 C   0  0  0  0  0  0  0  0  0  0  0  0
  -11.3052   13.8133  -16.8885 C   0  0  0  0  0  0  0  0  0  0  0  0
 13 14  2  0  0  0
 13 15  1  0  0  0
 14 18  1  0  0  0
 15 16  2  0  0  0
 18  2  1  0  0  0
 18 17  2  0  0  0
  2  3  1  0  0  0
  2  5  1  0  0  0
  3  4  1  0  0  0
 16 17  1  0  0  0
  4  1  1  0  0  0
  5  6  1  0  0  0
  1  6  1  0  0  0
  1 10  1  0  0  0
  6  7  1  0  0  0
 10 11  2  0  0  0
 10  9  1  0  0  0
  7  9  1  0  0  0
  7  8  2  0  0  0
  9 12  1  0  0  0
M  END
> <minimizedAffinity>
-6.69845

$$$$
5OS4_A8H_A_404


 18 20  0  0  0  0  0  0  0  0999 V2000
  -11.8382   13.7590  -16.7609 C   0  0  0  0  0  0  0  0  0  0  0  0
  -11.5932   15.7121  -19.0617 C   0  0  0  0  0  0  0  0  0  0  0  0
  -12.1136   16.0310  -17.6548 C   0  0  0  0  0  0  0  0  0  0  0  0
  -11.3904   15.2078  -16.5985 C   0  0  0  0  0  0  0  0  0  0  0  0
  -11.2674   14.2198  -19.2543 C   0  0  0  0  0  0  0  0  0  0  0  0
  -12.0554   13.3856  -18.2262 C   0  0  0  0  0  0  0  0  0  0  0  0
  -11.7095   11.9270  -18.2774 C   0  0  0  0  0  0  0  0  0  0  0  0
  -11.8601   11.1818  -19.2063 O   0  0  0  0  0  0  0  0  0  0  0  0
  -11.1853   11.5645  -17.0863 N   0  0  0  0  0  0  0  0  0  0  0  0
  -11.1215   12.5689  -16.1893 C   0  0  0  0  0  0  0  0  0  0  0  0
  -10.6448   12.4712  -15.0897 O   0  0  0  0  0  0  0  0  0  0  0  0
  -10.8777   10.6499  -16.8911 H   0  0  0  0  0  0  0  0  0  0  0  0
  -13.6588   16.0219  -22.2481 C   0  0  0  0  0  0  0  0  0  0  0  0
  -12.8647   15.5053  -21.2354 C   0  0  0  0  0  0  0  0  0  0  0  0
  -14.0448   17.3420  -22.2153 C   0  0  0  0  0  0  0  0  0  0  0  0
  -13.6427   18.1446  -21.1711 C   0  0  0  0  0  0  0  0  0  0  0  0
  -12.8578   17.6221  -20.1526 C   0  0  0  0  0  0  0  0  0  0  0  0
  -12.4511   16.2936  -20.1707 C   0  0  0  0  0  0  0  0  0  0  0  0
 13 14  2  0  0  0
 13 15  1  0  0  0
 14 18  1  0  0  0
 15 16  2  0  0  0
 18  2  1  0  0  0
 18 17  2  0  0  0
  2  3  1  0  0  0
  2  5  1  0  0  0
  3  4  1  0  0  0
 16 17  1  0  0  0
  4  1  1  0  0  0
  5  6  1  0  0  0
  1  6  1  0  0  0
  1 10  1  0  0  0
  6  7  1  0  0  0
 10 11  2  0  0  0
 10  9  1  0  0  0
  7  9  1  0  0  0
  7  8  2  0  0  0
  9 12  1  0  0  0
M  END
> <minimizedAffinity>
-6.59920

$$$$
