5OS4_A8H_A_404
  RCSB PDB12061719203D
Coordinates from PDB:5OS4:A:404 Model:1 without hydrogens
 17 19  0  0  0  0            999 V2000
  -11.9510   16.1970  -20.2300   C 0  0  0  0  0  0  0  0  0  0  0  0
  -11.7980   14.8790  -19.8270   C 0  0  0  0  0  0  0  0  0  0  0  0
  -11.9430   17.2080  -19.2970   C 0  0  0  0  0  0  0  0  0  0  0  0
  -11.7870   16.9040  -17.9630   C 0  0  0  0  0  0  0  0  0  0  0  0
  -11.6460   15.5830  -17.5610   C 0  0  0  0  0  0  0  0  0  0  0  0
  -11.6440   14.5480  -18.4880   C 0  0  0  0  0  0  0  0  0  0  0  0
  -10.2250   11.4940  -15.8260   C 0  0  0  0  0  0  0  0  0  0  0  0
  -11.4910   13.1000  -18.0590   C 0  0  0  0  0  0  0  0  0  0  0  0
  -10.0320   12.6320  -17.9950   C 0  0  0  0  0  0  0  0  0  0  0  0
   -9.9150   11.2810  -17.3040   C 0  0  0  0  0  0  0  0  0  0  0  0
  -12.2880   12.7470  -16.7900   C 0  0  0  0  0  0  0  0  0  0  0  0
  -11.3150   12.5430  -15.6130   C 0  0  0  0  0  0  0  0  0  0  0  0
  -12.0070   12.0890  -14.3620   C 0  0  0  0  0  0  0  0  0  0  0  0
  -12.8480   12.6840  -13.7460   O 0  0  0  0  0  0  0  0  0  0  0  0
  -11.5300   10.8720  -14.0210   N 0  0  0  0  0  0  0  0  0  0  0  0
  -10.5820   10.4030  -14.8570   C 0  0  0  0  0  0  0  0  0  0  0  0
  -10.0640    9.3220  -14.7620   O 0  0  0  0  0  0  0  0  0  0  0  0
  1  2  2  0  0  0  0
  1  3  1  0  0  0  0
  2  6  1  0  0  0  0
  3  4  2  0  0  0  0
  6  8  1  0  0  0  0
  6  5  2  0  0  0  0
  8  9  1  0  0  0  0
  8 11  1  0  0  0  0
  9 10  1  0  0  0  0
  4  5  1  0  0  0  0
 10  7  1  0  0  0  0
 11 12  1  0  0  0  0
  7 12  1  0  0  0  0
  7 16  1  0  0  0  0
 12 13  1  0  0  0  0
 16 17  2  0  0  0  0
 16 15  1  0  0  0  0
 13 15  1  0  0  0  0
 13 14  2  0  0  0  0
A    1
C12
A    2
C13
A    3
C11
A    4
C10
A    5
C9
A    6
C8
A    7
C7
A    8
C4
A    9
C5
A   10
C6
A   11
C3
A   12
C2
A   13
C1
A   14
O1
A   15
N
A   16
C
A   17
O
M  END
>  <InstanceId>
5OS4_A8H_A_404

>  <ChemCompId>
A8H

>  <PdbId>
5OS4

>  <ChainId>
A

>  <ResidueNumber>
404

>  <InsertionCode>


>  <Model>
1

>  <AltIds>


>  <MissingHeavyAtoms>
0

>  <ObservedFormula>
C14 N O2

>  <Name>
(3~{a}~{R},5~{S},7~{a}~{S})-5-phenyl-3~{a},4,5,6,7,7~{a}-hexahydroisoindole-1,3-dione

>  <SystematicName>
(3~{a}~{R},5~{S},7~{a}~{S})-5-phenyl-3~{a},4,5,6,7,7~{a}-hexahydroisoindole-1,3-dione

>  <Synonyms>


>  <Type>
NON-POLYMER

>  <Formula>
C14 H15 N O2

>  <MolecularWeight>
229.274

>  <ModifiedDate>
2017-10-27

>  <Parent>


>  <OneLetterCode>


>  <SubcomponentList>


>  <AmbiguousFlag>
N

>  <InChI>
InChI=1S/C14H15NO2/c16-13-11-7-6-10(8-12(11)14(17)15-13)9-4-2-1-3-5-9/h1-5,10-12H,6-8H2,(H,15,16,17)/t10-,11-,12+/m0/s1

>  <InChIKey>
SHLALXCFPAKZHG-SDDRHHMPSA-N

>  <SMILES>
c1ccc(cc1)[C@H]2CC[C@H]3[C@@H](C2)C(=O)NC3=O

$$$$
