4YSL_GSH_A_302


 27 26  0  0  0  0  0  0  0  0999 V2000
  -27.0265   28.8499  -17.8175 C   0  0  0  0  0  0  0  0  0  0  0  0
  -27.9309   28.7816  -18.6230 O   0  0  0  0  0  0  0  0  0  0  0  0
  -26.4855   27.6948  -17.2105 N   0  0  0  0  0  0  0  0  0  0  0  0
  -25.7708   27.7784  -16.5385 H   0  0  0  0  0  0  0  0  0  0  0  0
  -26.4317   30.1613  -17.3973 C   0  0  0  0  0  0  0  0  0  0  0  0
  -27.4264   31.2855  -17.4688 C   0  0  0  0  0  0  0  0  0  0  0  0
  -29.0266   31.3449  -15.6778 N   0  0  0  0  0  0  0  0  0  0  0  0
  -27.6791   31.6515  -16.0230 C   0  0  0  0  0  0  0  0  0  0  0  0
  -29.1927   31.5932  -14.7025 H   0  0  0  0  0  0  0  0  0  0  0  0
  -29.1921   30.3468  -15.8075 H   0  0  0  0  0  0  0  0  0  0  0  0
  -27.4039   33.1312  -15.8376 C   0  0  0  0  0  0  0  0  0  0  0  0
  -26.2899   33.6083  -16.2019 O   0  0  0  0  0  0  0  0  0  0  0  0
  -28.2767   33.8782  -15.3088 O   0  0  0  0  0  0  0  0  0  0  0  0
  -29.1000   33.5198  -15.0408 H   0  0  0  0  0  0  0  0  0  0  0  0
  -26.9732   26.4203  -17.5709 C   0  0  0  0  0  0  0  0  0  0  0  0
  -27.5740   25.6340  -16.3766 C   0  0  0  0  0  0  0  0  0  0  0  0
  -28.5305   26.1341  -15.8400 O   0  0  0  0  0  0  0  0  0  0  0  0
  -27.1410   24.4059  -15.7356 N   0  0  0  0  0  0  0  0  0  0  0  0
  -26.3598   23.8938  -16.0463 H   0  0  0  0  0  0  0  0  0  0  0  0
  -27.9551   23.9847  -14.5895 C   0  0  0  0  0  0  0  0  0  0  0  0
  -28.9669   22.8098  -14.6201 C   0  0  0  0  0  0  0  0  0  0  0  0
  -29.0617   22.1078  -15.6694 O   0  0  0  0  0  0  0  0  0  0  0  0
  -29.7338   22.5128  -13.6110 O   0  0  0  0  0  0  0  0  0  0  0  0
  -29.6851   23.0153  -12.8217 H   0  0  0  0  0  0  0  0  0  0  0  0
  -25.8736   25.7136  -18.4044 C   0  0  0  0  0  0  0  0  0  0  0  0
  -26.2163   25.6619  -20.1842 S   0  0  0  0  0  0  0  0  0  0  0  0
  -27.3523   24.9480  -20.4065 H   0  0  0  0  0  0  0  0  0  0  0  0
  7  8  1  0  0  0
  8 11  1  0  0  0
  8  6  1  0  0  0
 11 12  2  0  0  0
 11 13  1  0  0  0
  6  5  1  0  0  0
  5  1  1  0  0  0
  1  2  2  0  0  0
  1  3  1  0  0  0
  3 15  1  0  0  0
 15 16  1  0  0  0
 15 25  1  0  0  0
 16 17  2  0  0  0
 16 18  1  0  0  0
 25 26  1  0  0  0
 18 20  1  0  0  0
 20 21  1  0  0  0
 21 22  2  0  0  0
 21 23  1  0  0  0
  7  9  1  0  0  0
  7 10  1  0  0  0
 13 14  1  0  0  0
  3  4  1  0  0  0
 26 27  1  0  0  0
 18 19  1  0  0  0
 23 24  1  0  0  0
M  END
> <minimizedAffinity>
-7.57460

$$$$
4YSL_GSH_A_302


 27 26  0  0  0  0  0  0  0  0999 V2000
  -26.8703   29.0597  -18.6351 C   0  0  0  0  0  0  0  0  0  0  0  0
  -27.7272   28.9154  -19.4815 O   0  0  0  0  0  0  0  0  0  0  0  0
  -25.9974   28.0085  -18.2770 N   0  0  0  0  0  0  0  0  0  0  0  0
  -25.3285   28.1418  -17.5670 H   0  0  0  0  0  0  0  0  0  0  0  0
  -26.6880   30.3541  -17.8992 C   0  0  0  0  0  0  0  0  0  0  0  0
  -26.6464   30.1601  -16.4097 C   0  0  0  0  0  0  0  0  0  0  0  0
  -28.6382   30.7876  -15.2220 N   0  0  0  0  0  0  0  0  0  0  0  0
  -28.0633   29.7766  -16.0444 C   0  0  0  0  0  0  0  0  0  0  0  0
  -29.5932   30.5252  -14.9781 H   0  0  0  0  0  0  0  0  0  0  0  0
  -28.6477   31.6731  -15.7282 H   0  0  0  0  0  0  0  0  0  0  0  0
  -28.0381   28.4466  -15.3166 C   0  0  0  0  0  0  0  0  0  0  0  0
  -29.0609   28.0680  -14.6748 O   0  0  0  0  0  0  0  0  0  0  0  0
  -26.9965   27.7297  -15.3395 O   0  0  0  0  0  0  0  0  0  0  0  0
  -26.2419   28.0147  -15.8162 H   0  0  0  0  0  0  0  0  0  0  0  0
  -26.0877   26.7661  -18.9407 C   0  0  0  0  0  0  0  0  0  0  0  0
  -26.8722   25.6971  -18.1361 C   0  0  0  0  0  0  0  0  0  0  0  0
  -27.9796   25.4394  -18.5365 O   0  0  0  0  0  0  0  0  0  0  0  0
  -26.5266   24.9810  -16.9220 N   0  0  0  0  0  0  0  0  0  0  0  0
  -25.6641   25.1030  -16.4630 H   0  0  0  0  0  0  0  0  0  0  0  0
  -27.5589   24.0615  -16.4296 C   0  0  0  0  0  0  0  0  0  0  0  0
  -28.0805   24.0333  -14.9694 C   0  0  0  0  0  0  0  0  0  0  0  0
  -28.4607   22.9319  -14.4740 O   0  0  0  0  0  0  0  0  0  0  0  0
  -28.1517   25.0988  -14.2250 O   0  0  0  0  0  0  0  0  0  0  0  0
  -27.8772   25.9274  -14.5655 H   0  0  0  0  0  0  0  0  0  0  0  0
  -24.6648   26.3865  -19.4252 C   0  0  0  0  0  0  0  0  0  0  0  0
  -24.5839   24.8047  -20.3078 S   0  0  0  0  0  0  0  0  0  0  0  0
  -24.9608   23.7998  -19.4725 H   0  0  0  0  0  0  0  0  0  0  0  0
  7  8  1  0  0  0
  8 11  1  0  0  0
  8  6  1  0  0  0
 11 12  2  0  0  0
 11 13  1  0  0  0
  6  5  1  0  0  0
  5  1  1  0  0  0
  1  2  2  0  0  0
  1  3  1  0  0  0
  3 15  1  0  0  0
 15 16  1  0  0  0
 15 25  1  0  0  0
 16 17  2  0  0  0
 16 18  1  0  0  0
 25 26  1  0  0  0
 18 20  1  0  0  0
 20 21  1  0  0  0
 21 22  2  0  0  0
 21 23  1  0  0  0
  7  9  1  0  0  0
  7 10  1  0  0  0
 13 14  1  0  0  0
  3  4  1  0  0  0
 26 27  1  0  0  0
 18 19  1  0  0  0
 23 24  1  0  0  0
M  END
> <minimizedAffinity>
-7.39928

$$$$
4YSL_GSH_A_302


 27 26  0  0  0  0  0  0  0  0999 V2000
  -26.6879   28.8080  -18.6262 C   0  0  0  0  0  0  0  0  0  0  0  0
  -27.5778   28.6236  -19.4297 O   0  0  0  0  0  0  0  0  0  0  0  0
  -26.0589   27.7345  -17.9573 N   0  0  0  0  0  0  0  0  0  0  0  0
  -25.3583   27.9116  -17.2886 H   0  0  0  0  0  0  0  0  0  0  0  0
  -26.2052   30.1839  -18.2743 C   0  0  0  0  0  0  0  0  0  0  0  0
  -26.6853   30.6257  -16.9206 C   0  0  0  0  0  0  0  0  0  0  0  0
  -26.0293   32.9356  -16.9997 N   0  0  0  0  0  0  0  0  0  0  0  0
  -27.1392   32.0528  -17.1341 C   0  0  0  0  0  0  0  0  0  0  0  0
  -26.3396   33.8964  -17.1443 H   0  0  0  0  0  0  0  0  0  0  0  0
  -25.3206   32.6990  -17.6941 H   0  0  0  0  0  0  0  0  0  0  0  0
  -28.2108   32.3833  -16.1134 C   0  0  0  0  0  0  0  0  0  0  0  0
  -29.0834   31.5142  -15.8223 O   0  0  0  0  0  0  0  0  0  0  0  0
  -28.2396   33.5247  -15.5695 O   0  0  0  0  0  0  0  0  0  0  0  0
  -27.5911   34.1646  -15.7887 H   0  0  0  0  0  0  0  0  0  0  0  0
  -26.4383   26.4072  -18.2511 C   0  0  0  0  0  0  0  0  0  0  0  0
  -27.3737   25.7862  -17.1811 C   0  0  0  0  0  0  0  0  0  0  0  0
  -27.1889   26.1424  -16.0444 O   0  0  0  0  0  0  0  0  0  0  0  0
  -28.4148   24.7818  -17.2991 N   0  0  0  0  0  0  0  0  0  0  0  0
  -28.6649   24.3777  -18.1614 H   0  0  0  0  0  0  0  0  0  0  0  0
  -29.0667   24.4136  -16.0370 C   0  0  0  0  0  0  0  0  0  0  0  0
  -28.5640   23.2962  -15.0864 C   0  0  0  0  0  0  0  0  0  0  0  0
  -29.0641   22.1370  -15.1821 O   0  0  0  0  0  0  0  0  0  0  0  0
  -27.6483   23.4974  -14.1833 O   0  0  0  0  0  0  0  0  0  0  0  0
  -27.2607   24.3453  -14.0899 H   0  0  0  0  0  0  0  0  0  0  0  0
  -25.1534   25.6192  -18.6134 C   0  0  0  0  0  0  0  0  0  0  0  0
  -24.3616   26.1662  -20.1502 S   0  0  0  0  0  0  0  0  0  0  0  0
  -25.2118   25.9692  -21.1932 H   0  0  0  0  0  0  0  0  0  0  0  0
  7  8  1  0  0  0
  8 11  1  0  0  0
  8  6  1  0  0  0
 11 12  2  0  0  0
 11 13  1  0  0  0
  6  5  1  0  0  0
  5  1  1  0  0  0
  1  2  2  0  0  0
  1  3  1  0  0  0
  3 15  1  0  0  0
 15 16  1  0  0  0
 15 25  1  0  0  0
 16 17  2  0  0  0
 16 18  1  0  0  0
 25 26  1  0  0  0
 18 20  1  0  0  0
 20 21  1  0  0  0
 21 22  2  0  0  0
 21 23  1  0  0  0
  7  9  1  0  0  0
  7 10  1  0  0  0
 13 14  1  0  0  0
  3  4  1  0  0  0
 26 27  1  0  0  0
 18 19  1  0  0  0
 23 24  1  0  0  0
M  END
> <minimizedAffinity>
-7.28619

$$$$
4YSL_GSH_A_302


 27 26  0  0  0  0  0  0  0  0999 V2000
  -27.4647   27.7313  -16.1219 C   0  0  0  0  0  0  0  0  0  0  0  0
  -27.1606   27.4013  -14.9948 O   0  0  0  0  0  0  0  0  0  0  0  0
  -27.5371   26.7927  -17.1751 N   0  0  0  0  0  0  0  0  0  0  0  0
  -27.7586   27.0898  -18.0872 H   0  0  0  0  0  0  0  0  0  0  0  0
  -27.7676   29.1560  -16.4801 C   0  0  0  0  0  0  0  0  0  0  0  0
  -26.6347   30.0816  -16.1369 C   0  0  0  0  0  0  0  0  0  0  0  0
  -28.6960   31.0649  -15.3912 N   0  0  0  0  0  0  0  0  0  0  0  0
  -27.3167   31.3318  -15.6268 C   0  0  0  0  0  0  0  0  0  0  0  0
  -29.1520   31.9101  -15.0475 H   0  0  0  0  0  0  0  0  0  0  0  0
  -28.7851   30.3239  -14.6961 H   0  0  0  0  0  0  0  0  0  0  0  0
  -27.1542   32.4328  -16.6566 C   0  0  0  0  0  0  0  0  0  0  0  0
  -28.1798   32.9186  -17.2167 O   0  0  0  0  0  0  0  0  0  0  0  0
  -26.0005   32.8506  -16.9632 O   0  0  0  0  0  0  0  0  0  0  0  0
  -25.2445   32.4874  -16.5455 H   0  0  0  0  0  0  0  0  0  0  0  0
  -27.2908   25.4275  -16.9150 C   0  0  0  0  0  0  0  0  0  0  0  0
  -26.3886   24.7536  -17.9815 C   0  0  0  0  0  0  0  0  0  0  0  0
  -26.6319   25.0260  -19.1303 O   0  0  0  0  0  0  0  0  0  0  0  0
  -25.3193   23.7821  -17.8426 N   0  0  0  0  0  0  0  0  0  0  0  0
  -25.0218   23.4443  -16.9671 H   0  0  0  0  0  0  0  0  0  0  0  0
  -24.7148   23.3410  -19.1050 C   0  0  0  0  0  0  0  0  0  0  0  0
  -24.1047   21.9345  -19.3381 C   0  0  0  0  0  0  0  0  0  0  0  0
  -23.2235   21.5064  -18.5361 O   0  0  0  0  0  0  0  0  0  0  0  0
  -24.4549   21.1694  -20.3313 O   0  0  0  0  0  0  0  0  0  0  0  0
  -25.1047   21.4604  -20.9405 H   0  0  0  0  0  0  0  0  0  0  0  0
  -28.6529   24.7531  -16.6095 C   0  0  0  0  0  0  0  0  0  0  0  0
  -28.6490   23.7278  -15.1140 S   0  0  0  0  0  0  0  0  0  0  0  0
  -27.7663   22.7047  -15.2681 H   0  0  0  0  0  0  0  0  0  0  0  0
  7  8  1  0  0  0
  8 11  1  0  0  0
  8  6  1  0  0  0
 11 12  2  0  0  0
 11 13  1  0  0  0
  6  5  1  0  0  0
  5  1  1  0  0  0
  1  2  2  0  0  0
  1  3  1  0  0  0
  3 15  1  0  0  0
 15 16  1  0  0  0
 15 25  1  0  0  0
 16 17  2  0  0  0
 16 18  1  0  0  0
 25 26  1  0  0  0
 18 20  1  0  0  0
 20 21  1  0  0  0
 21 22  2  0  0  0
 21 23  1  0  0  0
  7  9  1  0  0  0
  7 10  1  0  0  0
 13 14  1  0  0  0
  3  4  1  0  0  0
 26 27  1  0  0  0
 18 19  1  0  0  0
 23 24  1  0  0  0
M  END
> <minimizedAffinity>
-6.96015

$$$$
4YSL_GSH_A_302


 27 26  0  0  0  0  0  0  0  0999 V2000
  -26.2358   25.3973  -18.8181 C   0  0  0  0  0  0  0  0  0  0  0  0
  -27.1423   25.6117  -19.5953 O   0  0  0  0  0  0  0  0  0  0  0  0
  -26.2920   25.8322  -17.4753 N   0  0  0  0  0  0  0  0  0  0  0  0
  -25.5314   25.6707  -16.8714 H   0  0  0  0  0  0  0  0  0  0  0  0
  -24.9885   24.6729  -19.2298 C   0  0  0  0  0  0  0  0  0  0  0  0
  -25.0308   23.2158  -18.8651 C   0  0  0  0  0  0  0  0  0  0  0  0
  -24.1578   22.8242  -21.0689 N   0  0  0  0  0  0  0  0  0  0  0  0
  -23.9203   22.5948  -19.6832 C   0  0  0  0  0  0  0  0  0  0  0  0
  -23.4070   22.4040  -21.6167 H   0  0  0  0  0  0  0  0  0  0  0  0
  -24.1880   23.8281  -21.2470 H   0  0  0  0  0  0  0  0  0  0  0  0
  -23.8686   21.1081  -19.3894 C   0  0  0  0  0  0  0  0  0  0  0  0
  -22.9436   20.6492  -18.6576 O   0  0  0  0  0  0  0  0  0  0  0  0
  -24.7355   20.3321  -19.8851 O   0  0  0  0  0  0  0  0  0  0  0  0
  -25.4183   20.6771  -20.4262 H   0  0  0  0  0  0  0  0  0  0  0  0
  -27.4426   26.4992  -17.0026 C   0  0  0  0  0  0  0  0  0  0  0  0
  -27.2032   28.0042  -16.7139 C   0  0  0  0  0  0  0  0  0  0  0  0
  -26.6924   28.2659  -15.6539 O   0  0  0  0  0  0  0  0  0  0  0  0
  -27.5501   29.1846  -17.4837 N   0  0  0  0  0  0  0  0  0  0  0  0
  -27.9939   29.1327  -18.3610 H   0  0  0  0  0  0  0  0  0  0  0  0
  -27.1900   30.4615  -16.8565 C   0  0  0  0  0  0  0  0  0  0  0  0
  -28.2112   31.5570  -16.4539 C   0  0  0  0  0  0  0  0  0  0  0  0
  -28.1745   32.6773  -17.0425 O   0  0  0  0  0  0  0  0  0  0  0  0
  -29.1081   31.3790  -15.5274 O   0  0  0  0  0  0  0  0  0  0  0  0
  -29.1584   30.5599  -15.0752 H   0  0  0  0  0  0  0  0  0  0  0  0
  -28.0456   25.6446  -15.8584 C   0  0  0  0  0  0  0  0  0  0  0  0
  -28.3451   23.9141  -16.3096 S   0  0  0  0  0  0  0  0  0  0  0  0
  -29.2553   23.8598  -17.3187 H   0  0  0  0  0  0  0  0  0  0  0  0
  7  8  1  0  0  0
  8 11  1  0  0  0
  8  6  1  0  0  0
 11 12  2  0  0  0
 11 13  1  0  0  0
  6  5  1  0  0  0
  5  1  1  0  0  0
  1  2  2  0  0  0
  1  3  1  0  0  0
  3 15  1  0  0  0
 15 16  1  0  0  0
 15 25  1  0  0  0
 16 17  2  0  0  0
 16 18  1  0  0  0
 25 26  1  0  0  0
 18 20  1  0  0  0
 20 21  1  0  0  0
 21 22  2  0  0  0
 21 23  1  0  0  0
  7  9  1  0  0  0
  7 10  1  0  0  0
 13 14  1  0  0  0
  3  4  1  0  0  0
 26 27  1  0  0  0
 18 19  1  0  0  0
 23 24  1  0  0  0
M  END
> <minimizedAffinity>
-6.91249

$$$$
4YSL_GSH_A_302


 27 26  0  0  0  0  0  0  0  0999 V2000
  -26.7821   26.0809  -17.5815 C   0  0  0  0  0  0  0  0  0  0  0  0
  -25.6533   25.6742  -17.4027 O   0  0  0  0  0  0  0  0  0  0  0  0
  -27.0317   27.3520  -18.1448 N   0  0  0  0  0  0  0  0  0  0  0  0
  -27.9566   27.6712  -18.2538 H   0  0  0  0  0  0  0  0  0  0  0  0
  -27.9886   25.2738  -17.2032 C   0  0  0  0  0  0  0  0  0  0  0  0
  -27.6265   24.0421  -16.4222 C   0  0  0  0  0  0  0  0  0  0  0  0
  -27.4719   24.5730  -14.0842 N   0  0  0  0  0  0  0  0  0  0  0  0
  -28.3765   24.1947  -15.1175 C   0  0  0  0  0  0  0  0  0  0  0  0
  -27.9816   24.6748  -13.2065 H   0  0  0  0  0  0  0  0  0  0  0  0
  -27.0312   25.4605  -14.3263 H   0  0  0  0  0  0  0  0  0  0  0  0
  -29.0488   22.8773  -14.7826 C   0  0  0  0  0  0  0  0  0  0  0  0
  -28.9715   21.9131  -15.5986 O   0  0  0  0  0  0  0  0  0  0  0  0
  -29.6940   22.7500  -13.7024 O   0  0  0  0  0  0  0  0  0  0  0  0
  -29.7481   23.4671  -13.1017 H   0  0  0  0  0  0  0  0  0  0  0  0
  -25.9501   28.1628  -18.5509 C   0  0  0  0  0  0  0  0  0  0  0  0
  -25.9386   29.5557  -17.8688 C   0  0  0  0  0  0  0  0  0  0  0  0
  -25.3244   29.6344  -16.8346 O   0  0  0  0  0  0  0  0  0  0  0  0
  -26.6034   30.7943  -18.2299 N   0  0  0  0  0  0  0  0  0  0  0  0
  -27.1612   30.8797  -19.0366 H   0  0  0  0  0  0  0  0  0  0  0  0
  -26.3818   31.9098  -17.3025 C   0  0  0  0  0  0  0  0  0  0  0  0
  -27.4224   32.4036  -16.2639 C   0  0  0  0  0  0  0  0  0  0  0  0
  -28.4088   33.0906  -16.6614 O   0  0  0  0  0  0  0  0  0  0  0  0
  -27.3251   32.1476  -14.9913 O   0  0  0  0  0  0  0  0  0  0  0  0
  -26.6054   31.6415  -14.6689 H   0  0  0  0  0  0  0  0  0  0  0  0
  -25.8931   28.1310  -20.0998 C   0  0  0  0  0  0  0  0  0  0  0  0
  -24.4265   27.2993  -20.7668 S   0  0  0  0  0  0  0  0  0  0  0  0
  -23.3090   27.9701  -20.3784 H   0  0  0  0  0  0  0  0  0  0  0  0
  7  8  1  0  0  0
  8 11  1  0  0  0
  8  6  1  0  0  0
 11 12  2  0  0  0
 11 13  1  0  0  0
  6  5  1  0  0  0
  5  1  1  0  0  0
  1  2  2  0  0  0
  1  3  1  0  0  0
  3 15  1  0  0  0
 15 16  1  0  0  0
 15 25  1  0  0  0
 16 17  2  0  0  0
 16 18  1  0  0  0
 25 26  1  0  0  0
 18 20  1  0  0  0
 20 21  1  0  0  0
 21 22  2  0  0  0
 21 23  1  0  0  0
  7  9  1  0  0  0
  7 10  1  0  0  0
 13 14  1  0  0  0
  3  4  1  0  0  0
 26 27  1  0  0  0
 18 19  1  0  0  0
 23 24  1  0  0  0
M  END
> <minimizedAffinity>
-6.85742

$$$$
4YSL_GSH_A_302


 27 26  0  0  0  0  0  0  0  0999 V2000
  -26.9144   25.5544  -17.6844 C   0  0  0  0  0  0  0  0  0  0  0  0
  -27.5236   25.6620  -18.7280 O   0  0  0  0  0  0  0  0  0  0  0  0
  -25.5208   25.3252  -17.6598 N   0  0  0  0  0  0  0  0  0  0  0  0
  -25.0536   25.2132  -16.8005 H   0  0  0  0  0  0  0  0  0  0  0  0
  -27.5970   25.6396  -16.3515 C   0  0  0  0  0  0  0  0  0  0  0  0
  -28.7294   24.6594  -16.2290 C   0  0  0  0  0  0  0  0  0  0  0  0
  -27.4592   24.5060  -14.1955 N   0  0  0  0  0  0  0  0  0  0  0  0
  -28.7496   24.2954  -14.7609 C   0  0  0  0  0  0  0  0  0  0  0  0
  -27.4773   24.2595  -13.2059 H   0  0  0  0  0  0  0  0  0  0  0  0
  -27.1996   25.4872  -14.2967 H   0  0  0  0  0  0  0  0  0  0  0  0
  -29.1626   22.8430  -14.6225 C   0  0  0  0  0  0  0  0  0  0  0  0
  -28.9358   22.0374  -15.5718 O   0  0  0  0  0  0  0  0  0  0  0  0
  -29.7429   22.4450  -13.5716 O   0  0  0  0  0  0  0  0  0  0  0  0
  -29.9085   23.0456  -12.8718 H   0  0  0  0  0  0  0  0  0  0  0  0
  -24.8005   25.2572  -18.8717 C   0  0  0  0  0  0  0  0  0  0  0  0
  -24.0227   23.9271  -19.0484 C   0  0  0  0  0  0  0  0  0  0  0  0
  -23.1950   23.9094  -19.9247 O   0  0  0  0  0  0  0  0  0  0  0  0
  -24.1610   22.6503  -18.3723 N   0  0  0  0  0  0  0  0  0  0  0  0
  -24.8121   22.5025  -17.6488 H   0  0  0  0  0  0  0  0  0  0  0  0
  -23.2576   21.5960  -18.8479 C   0  0  0  0  0  0  0  0  0  0  0  0
  -23.6598   20.4891  -19.8569 C   0  0  0  0  0  0  0  0  0  0  0  0
  -24.8882   20.2637  -20.0643 O   0  0  0  0  0  0  0  0  0  0  0  0
  -22.7862   19.7710  -20.5015 O   0  0  0  0  0  0  0  0  0  0  0  0
  -21.8702   19.9160  -20.3677 H   0  0  0  0  0  0  0  0  0  0  0  0
  -23.9954   26.5743  -19.0155 C   0  0  0  0  0  0  0  0  0  0  0  0
  -24.3710   27.5070  -20.5244 S   0  0  0  0  0  0  0  0  0  0  0  0
  -24.0403   26.7613  -21.6125 H   0  0  0  0  0  0  0  0  0  0  0  0
  7  8  1  0  0  0
  8 11  1  0  0  0
  8  6  1  0  0  0
 11 12  2  0  0  0
 11 13  1  0  0  0
  6  5  1  0  0  0
  5  1  1  0  0  0
  1  2  2  0  0  0
  1  3  1  0  0  0
  3 15  1  0  0  0
 15 16  1  0  0  0
 15 25  1  0  0  0
 16 17  2  0  0  0
 16 18  1  0  0  0
 25 26  1  0  0  0
 18 20  1  0  0  0
 20 21  1  0  0  0
 21 22  2  0  0  0
 21 23  1  0  0  0
  7  9  1  0  0  0
  7 10  1  0  0  0
 13 14  1  0  0  0
  3  4  1  0  0  0
 26 27  1  0  0  0
 18 19  1  0  0  0
 23 24  1  0  0  0
M  END
> <minimizedAffinity>
-6.79883

$$$$
4YSL_GSH_A_302


 27 26  0  0  0  0  0  0  0  0999 V2000
  -25.2953   24.1360  -17.8605 C   0  0  0  0  0  0  0  0  0  0  0  0
  -25.4603   24.4357  -19.0243 O   0  0  0  0  0  0  0  0  0  0  0  0
  -26.2242   24.5029  -16.8615 N   0  0  0  0  0  0  0  0  0  0  0  0
  -26.0538   24.2722  -15.9197 H   0  0  0  0  0  0  0  0  0  0  0  0
  -24.0899   23.3722  -17.3980 C   0  0  0  0  0  0  0  0  0  0  0  0
  -23.0813   23.1832  -18.4957 C   0  0  0  0  0  0  0  0  0  0  0  0
  -21.8111   21.2385  -19.1098 N   0  0  0  0  0  0  0  0  0  0  0  0
  -23.1194   21.6989  -18.7849 C   0  0  0  0  0  0  0  0  0  0  0  0
  -21.8414   20.2376  -19.3040 H   0  0  0  0  0  0  0  0  0  0  0  0
  -21.1843   21.4137  -18.3245 H   0  0  0  0  0  0  0  0  0  0  0  0
  -24.0745   21.4490  -19.9359 C   0  0  0  0  0  0  0  0  0  0  0  0
  -24.7524   20.3807  -19.9624 O   0  0  0  0  0  0  0  0  0  0  0  0
  -24.1802   22.2961  -20.8689 O   0  0  0  0  0  0  0  0  0  0  0  0
  -23.6760   23.0855  -20.8443 H   0  0  0  0  0  0  0  0  0  0  0  0
  -27.3976   25.2013  -17.2186 C   0  0  0  0  0  0  0  0  0  0  0  0
  -27.3287   26.7178  -16.9005 C   0  0  0  0  0  0  0  0  0  0  0  0
  -27.2172   27.0108  -15.7365 O   0  0  0  0  0  0  0  0  0  0  0  0
  -27.4405   27.8753  -17.7690 N   0  0  0  0  0  0  0  0  0  0  0  0
  -27.5590   27.7963  -18.7432 H   0  0  0  0  0  0  0  0  0  0  0  0
  -27.3637   29.1721  -17.0863 C   0  0  0  0  0  0  0  0  0  0  0  0
  -26.0857   30.0474  -17.0128 C   0  0  0  0  0  0  0  0  0  0  0  0
  -24.9548   29.4805  -16.9609 O   0  0  0  0  0  0  0  0  0  0  0  0
  -26.1218   31.3485  -16.9960 O   0  0  0  0  0  0  0  0  0  0  0  0
  -26.9448   31.7949  -17.0333 H   0  0  0  0  0  0  0  0  0  0  0  0
  -28.6061   24.4120  -16.6530 C   0  0  0  0  0  0  0  0  0  0  0  0
  -28.2735   23.5864  -15.0733 S   0  0  0  0  0  0  0  0  0  0  0  0
  -27.2877   22.6648  -15.2422 H   0  0  0  0  0  0  0  0  0  0  0  0
  7  8  1  0  0  0
  8 11  1  0  0  0
  8  6  1  0  0  0
 11 12  2  0  0  0
 11 13  1  0  0  0
  6  5  1  0  0  0
  5  1  1  0  0  0
  1  2  2  0  0  0
  1  3  1  0  0  0
  3 15  1  0  0  0
 15 16  1  0  0  0
 15 25  1  0  0  0
 16 17  2  0  0  0
 16 18  1  0  0  0
 25 26  1  0  0  0
 18 20  1  0  0  0
 20 21  1  0  0  0
 21 22  2  0  0  0
 21 23  1  0  0  0
  7  9  1  0  0  0
  7 10  1  0  0  0
 13 14  1  0  0  0
  3  4  1  0  0  0
 26 27  1  0  0  0
 18 19  1  0  0  0
 23 24  1  0  0  0
M  END
> <minimizedAffinity>
-6.54869

$$$$
4YSL_GSH_A_302


 27 26  0  0  0  0  0  0  0  0999 V2000
  -25.8802   28.2013  -16.9614 C   0  0  0  0  0  0  0  0  0  0  0  0
  -24.8029   28.4066  -17.4800 O   0  0  0  0  0  0  0  0  0  0  0  0
  -26.5842   26.9941  -17.1676 N   0  0  0  0  0  0  0  0  0  0  0  0
  -27.4699   26.8626  -16.7583 H   0  0  0  0  0  0  0  0  0  0  0  0
  -26.5468   29.2168  -16.0814 C   0  0  0  0  0  0  0  0  0  0  0  0
  -27.3392   30.2203  -16.8708 C   0  0  0  0  0  0  0  0  0  0  0  0
  -28.9278   31.5444  -15.6479 N   0  0  0  0  0  0  0  0  0  0  0  0
  -27.5386   31.3739  -15.9129 C   0  0  0  0  0  0  0  0  0  0  0  0
  -29.0576   32.3230  -15.0019 H   0  0  0  0  0  0  0  0  0  0  0  0
  -29.3017   30.6914  -15.2319 H   0  0  0  0  0  0  0  0  0  0  0  0
  -26.9550   32.6296  -16.5311 C   0  0  0  0  0  0  0  0  0  0  0  0
  -27.0338   33.7268  -15.9054 O   0  0  0  0  0  0  0  0  0  0  0  0
  -26.4074   32.5814  -17.6700 O   0  0  0  0  0  0  0  0  0  0  0  0
  -26.3517   31.7665  -18.1290 H   0  0  0  0  0  0  0  0  0  0  0  0
  -26.0133   25.9772  -17.9626 C   0  0  0  0  0  0  0  0  0  0  0  0
  -26.0214   26.3071  -19.4781 C   0  0  0  0  0  0  0  0  0  0  0  0
  -26.8913   25.7855  -20.1295 O   0  0  0  0  0  0  0  0  0  0  0  0
  -25.1091   27.1004  -20.2812 N   0  0  0  0  0  0  0  0  0  0  0  0
  -24.3349   27.5697  -19.8943 H   0  0  0  0  0  0  0  0  0  0  0  0
  -25.4270   27.1506  -21.7129 C   0  0  0  0  0  0  0  0  0  0  0  0
  -26.4263   28.1494  -22.3524 C   0  0  0  0  0  0  0  0  0  0  0  0
  -26.1195   28.7110  -23.4448 O   0  0  0  0  0  0  0  0  0  0  0  0
  -27.5729   28.4441  -21.8111 O   0  0  0  0  0  0  0  0  0  0  0  0
  -27.8261   28.0436  -21.0028 H   0  0  0  0  0  0  0  0  0  0  0  0
  -26.6428   24.6293  -17.5266 C   0  0  0  0  0  0  0  0  0  0  0  0
  -27.8721   24.7835  -16.2027 S   0  0  0  0  0  0  0  0  0  0  0  0
  -27.2758   25.2812  -15.0862 H   0  0  0  0  0  0  0  0  0  0  0  0
  7  8  1  0  0  0
  8 11  1  0  0  0
  8  6  1  0  0  0
 11 12  2  0  0  0
 11 13  1  0  0  0
  6  5  1  0  0  0
  5  1  1  0  0  0
  1  2  2  0  0  0
  1  3  1  0  0  0
  3 15  1  0  0  0
 15 16  1  0  0  0
 15 25  1  0  0  0
 16 17  2  0  0  0
 16 18  1  0  0  0
 25 26  1  0  0  0
 18 20  1  0  0  0
 20 21  1  0  0  0
 21 22  2  0  0  0
 21 23  1  0  0  0
  7  9  1  0  0  0
  7 10  1  0  0  0
 13 14  1  0  0  0
  3  4  1  0  0  0
 26 27  1  0  0  0
 18 19  1  0  0  0
 23 24  1  0  0  0
M  END
> <minimizedAffinity>
-6.51164

$$$$
4YSL_GSH_A_302


 27 26  0  0  0  0  0  0  0  0999 V2000
  -27.2942   28.8090  -17.6383 C   0  0  0  0  0  0  0  0  0  0  0  0
  -27.8785   28.9545  -18.6914 O   0  0  0  0  0  0  0  0  0  0  0  0
  -26.1018   28.0568  -17.5498 N   0  0  0  0  0  0  0  0  0  0  0  0
  -25.6614   27.9296  -16.6786 H   0  0  0  0  0  0  0  0  0  0  0  0
  -27.8027   29.4006  -16.3571 C   0  0  0  0  0  0  0  0  0  0  0  0
  -26.8078   30.3347  -15.7281 C   0  0  0  0  0  0  0  0  0  0  0  0
  -28.9351   31.4444  -15.6043 N   0  0  0  0  0  0  0  0  0  0  0  0
  -27.5290   31.6631  -15.6705 C   0  0  0  0  0  0  0  0  0  0  0  0
  -29.4174   32.3423  -15.5656 H   0  0  0  0  0  0  0  0  0  0  0  0
  -29.1560   30.9034  -14.7682 H   0  0  0  0  0  0  0  0  0  0  0  0
  -27.1715   32.4680  -16.9048 C   0  0  0  0  0  0  0  0  0  0  0  0
  -28.0942   32.9720  -17.6090 O   0  0  0  0  0  0  0  0  0  0  0  0
  -25.9601   32.6207  -17.2347 O   0  0  0  0  0  0  0  0  0  0  0  0
  -25.2807   32.2454  -16.7097 H   0  0  0  0  0  0  0  0  0  0  0  0
  -25.5442   27.4881  -18.7151 C   0  0  0  0  0  0  0  0  0  0  0  0
  -25.6091   25.9386  -18.7322 C   0  0  0  0  0  0  0  0  0  0  0  0
  -26.7033   25.4554  -18.8813 O   0  0  0  0  0  0  0  0  0  0  0  0
  -24.5715   24.9435  -18.5330 N   0  0  0  0  0  0  0  0  0  0  0  0
  -23.6300   25.1848  -18.3759 H   0  0  0  0  0  0  0  0  0  0  0  0
  -25.0308   23.5506  -18.5833 C   0  0  0  0  0  0  0  0  0  0  0  0
  -24.2525   22.3972  -19.2681 C   0  0  0  0  0  0  0  0  0  0  0  0
  -23.5270   21.6396  -18.5591 O   0  0  0  0  0  0  0  0  0  0  0  0
  -24.3061   22.1733  -20.5493 O   0  0  0  0  0  0  0  0  0  0  0  0
  -24.8349   22.7181  -21.0984 H   0  0  0  0  0  0  0  0  0  0  0  0
  -24.1572   28.1426  -18.9411 C   0  0  0  0  0  0  0  0  0  0  0  0
  -24.2373   29.8585  -19.5217 S   0  0  0  0  0  0  0  0  0  0  0  0
  -24.8570   29.8992  -20.7316 H   0  0  0  0  0  0  0  0  0  0  0  0
  7  8  1  0  0  0
  8 11  1  0  0  0
  8  6  1  0  0  0
 11 12  2  0  0  0
 11 13  1  0  0  0
  6  5  1  0  0  0
  5  1  1  0  0  0
  1  2  2  0  0  0
  1  3  1  0  0  0
  3 15  1  0  0  0
 15 16  1  0  0  0
 15 25  1  0  0  0
 16 17  2  0  0  0
 16 18  1  0  0  0
 25 26  1  0  0  0
 18 20  1  0  0  0
 20 21  1  0  0  0
 21 22  2  0  0  0
 21 23  1  0  0  0
  7  9  1  0  0  0
  7 10  1  0  0  0
 13 14  1  0  0  0
  3  4  1  0  0  0
 26 27  1  0  0  0
 18 19  1  0  0  0
 23 24  1  0  0  0
M  END
> <minimizedAffinity>
-6.39201

$$$$
