3S6T_OAN_A_1


 30 31  0  0  0  0  0  0  0  0999 V2000
   40.7166   -1.5757   10.1127 C   0  0  0  0  0  0  0  0  0  0  0  0
   42.0838   -1.3251   10.8187 C   0  0  0  0  0  0  0  0  0  0  0  0
   43.1040   -0.9595    9.8619 O   0  0  0  0  0  0  0  0  0  0  0  0
   41.9676   -0.2639   11.8897 C   0  0  0  0  0  0  0  0  0  0  0  0
   43.2401   -0.1211   12.5155 O   0  0  0  0  0  0  0  0  0  0  0  0
   40.9191   -0.7544   12.8876 C   0  0  0  0  0  0  0  0  0  0  0  0
   39.6334   -0.9006   12.2261 O   0  0  0  0  0  0  0  0  0  0  0  0
   39.5779   -1.1464   10.8709 C   0  0  0  0  0  0  0  0  0  0  0  0
   38.4257   -0.9717   10.2338 N   0  0  0  0  0  0  0  0  0  0  0  0
   42.8569   -0.1281    9.4276 H   0  0  0  0  0  0  0  0  0  0  0  0
   43.5191   -0.9758   12.8794 H   0  0  0  0  0  0  0  0  0  0  0  0
   40.6593   -5.4272    9.9005 C   0  0  0  0  0  0  0  0  0  0  0  0
   40.6573   -4.0545   10.5711 C   0  0  0  0  0  0  0  0  0  0  0  0
   40.6357   -3.9664   11.7979 O   0  0  0  0  0  0  0  0  0  0  0  0
   40.6666   -3.0051    9.7172 N   0  0  0  0  0  0  0  0  0  0  0  0
   40.6379   -3.2064    8.7539 H   0  0  0  0  0  0  0  0  0  0  0  0
   40.7485    0.2238   14.0527 C   0  0  0  0  0  0  0  0  0  0  0  0
   41.8716    0.1109   14.9366 O   0  0  0  0  0  0  0  0  0  0  0  0
   41.9243   -0.7954   15.2784 H   0  0  0  0  0  0  0  0  0  0  0  0
   37.2486   -0.4740   11.1403 O   0  0  0  0  0  0  0  0  0  0  0  0
   36.0165   -0.5183   10.5481 C   0  0  0  0  0  0  0  0  0  0  0  0
   35.0150   -0.1614   11.1740 O   0  0  0  0  0  0  0  0  0  0  0  0
   35.9345   -0.9818    9.2784 N   0  0  0  0  0  0  0  0  0  0  0  0
   36.7545   -1.2998    8.8360 H   0  0  0  0  0  0  0  0  0  0  0  0
   34.7734   -1.0237    8.5990 C   0  0  0  0  0  0  0  0  0  0  0  0
   33.9062   -2.1232    8.6599 C   0  0  0  0  0  0  0  0  0  0  0  0
   32.7163   -2.1188    7.9256 C   0  0  0  0  0  0  0  0  0  0  0  0
   32.3918   -1.0238    7.1196 C   0  0  0  0  0  0  0  0  0  0  0  0
   33.2553    0.0727    7.0451 C   0  0  0  0  0  0  0  0  0  0  0  0
   34.4434    0.0664    7.7829 C   0  0  0  0  0  0  0  0  0  0  0  0
 12 13  1  0  0  0
 13 14  2  0  0  0
 13 15  1  0  0  0
 15  1  1  0  0  0
  1  2  1  0  0  0
  1  8  1  0  0  0
  2  3  1  0  0  0
  2  4  1  0  0  0
  4  5  1  0  0  0
  4  6  1  0  0  0
  6 17  1  0  0  0
  6  7  1  0  0  0
 17 18  1  0  0  0
  7  8  1  0  0  0
  8  9  2  0  0  0
  9 20  1  0  0  0
 20 21  1  0  0  0
 21 22  2  0  0  0
 21 23  1  0  0  0
 23 25  1  0  0  0
 25 26  2  0  0  0
 25 30  1  0  0  0
 26 27  1  0  0  0
 27 28  2  0  0  0
 28 29  1  0  0  0
 29 30  2  0  0  0
 15 16  1  0  0  0
  3 10  1  0  0  0
  5 11  1  0  0  0
 18 19  1  0  0  0
 23 24  1  0  0  0
M  END
> <minimizedAffinity>
-8.89002

$$$$
3S6T_OAN_A_1


 30 31  0  0  0  0  0  0  0  0999 V2000
   40.3505   -1.5522   10.5750 C   0  0  0  0  0  0  0  0  0  0  0  0
   41.8168   -1.1908   10.9625 C   0  0  0  0  0  0  0  0  0  0  0  0
   42.4752   -0.4729    9.8943 O   0  0  0  0  0  0  0  0  0  0  0  0
   41.8690   -0.3867   12.2422 C   0  0  0  0  0  0  0  0  0  0  0  0
   43.2364   -0.1318   12.5527 O   0  0  0  0  0  0  0  0  0  0  0  0
   41.2109   -1.2379   13.3275 C   0  0  0  0  0  0  0  0  0  0  0  0
   39.8214   -1.4918   12.9858 O   0  0  0  0  0  0  0  0  0  0  0  0
   39.4227   -1.4874   11.6663 C   0  0  0  0  0  0  0  0  0  0  0  0
   38.1263   -1.4116   11.3880 N   0  0  0  0  0  0  0  0  0  0  0  0
   42.0133    0.3650    9.7351 H   0  0  0  0  0  0  0  0  0  0  0  0
   43.7121   -0.9734   12.6325 H   0  0  0  0  0  0  0  0  0  0  0  0
   40.6115   -5.2604    9.5439 C   0  0  0  0  0  0  0  0  0  0  0  0
   40.5795   -4.0619   10.4907 C   0  0  0  0  0  0  0  0  0  0  0  0
   40.7218   -4.2271   11.7013 O   0  0  0  0  0  0  0  0  0  0  0  0
   40.3748   -2.8676    9.8886 N   0  0  0  0  0  0  0  0  0  0  0  0
   40.2300   -2.8717    8.9148 H   0  0  0  0  0  0  0  0  0  0  0  0
   41.2481   -0.5415   14.6902 C   0  0  0  0  0  0  0  0  0  0  0  0
   41.2088    0.8790   14.4995 O   0  0  0  0  0  0  0  0  0  0  0  0
   41.9745    1.1557   13.9722 H   0  0  0  0  0  0  0  0  0  0  0  0
   37.1945   -1.3155   12.6440 O   0  0  0  0  0  0  0  0  0  0  0  0
   36.1792   -0.4062   12.5308 C   0  0  0  0  0  0  0  0  0  0  0  0
   35.1481   -0.7014   11.9209 O   0  0  0  0  0  0  0  0  0  0  0  0
   36.3530    0.8174   13.0843 N   0  0  0  0  0  0  0  0  0  0  0  0
   37.2116    1.0229   13.5200 H   0  0  0  0  0  0  0  0  0  0  0  0
   35.3954    1.7628   13.0607 C   0  0  0  0  0  0  0  0  0  0  0  0
   34.4167    1.8666   14.0587 C   0  0  0  0  0  0  0  0  0  0  0  0
   33.4383    2.8622   13.9800 C   0  0  0  0  0  0  0  0  0  0  0  0
   33.4249    3.7509   12.9011 C   0  0  0  0  0  0  0  0  0  0  0  0
   34.3910    3.6488   11.8963 C   0  0  0  0  0  0  0  0  0  0  0  0
   35.3700    2.6535   11.9793 C   0  0  0  0  0  0  0  0  0  0  0  0
 12 13  1  0  0  0
 13 14  2  0  0  0
 13 15  1  0  0  0
 15  1  1  0  0  0
  1  2  1  0  0  0
  1  8  1  0  0  0
  2  3  1  0  0  0
  2  4  1  0  0  0
  4  5  1  0  0  0
  4  6  1  0  0  0
  6 17  1  0  0  0
  6  7  1  0  0  0
 17 18  1  0  0  0
  7  8  1  0  0  0
  8  9  2  0  0  0
  9 20  1  0  0  0
 20 21  1  0  0  0
 21 22  2  0  0  0
 21 23  1  0  0  0
 23 25  1  0  0  0
 25 26  2  0  0  0
 25 30  1  0  0  0
 26 27  1  0  0  0
 27 28  2  0  0  0
 28 29  1  0  0  0
 29 30  2  0  0  0
 15 16  1  0  0  0
  3 10  1  0  0  0
  5 11  1  0  0  0
 18 19  1  0  0  0
 23 24  1  0  0  0
M  END
> <minimizedAffinity>
-8.55101

$$$$
3S6T_OAN_A_1


 30 31  0  0  0  0  0  0  0  0999 V2000
   40.6424   -1.3402   10.0747 C   0  0  0  0  0  0  0  0  0  0  0  0
   42.0119   -1.2148   10.8091 C   0  0  0  0  0  0  0  0  0  0  0  0
   43.0776   -0.9243    9.8763 O   0  0  0  0  0  0  0  0  0  0  0  0
   41.9645   -0.1612   11.8929 C   0  0  0  0  0  0  0  0  0  0  0  0
   43.2321   -0.1343   12.5437 O   0  0  0  0  0  0  0  0  0  0  0  0
   40.8594   -0.5743   12.8643 C   0  0  0  0  0  0  0  0  0  0  0  0
   39.5790   -0.6031   12.1775 O   0  0  0  0  0  0  0  0  0  0  0  0
   39.5293   -0.8261   10.8181 C   0  0  0  0  0  0  0  0  0  0  0  0
   38.4085   -0.5467   10.1627 N   0  0  0  0  0  0  0  0  0  0  0  0
   42.9096   -0.0695    9.4496 H   0  0  0  0  0  0  0  0  0  0  0  0
   43.4312   -1.0140   12.9004 H   0  0  0  0  0  0  0  0  0  0  0  0
   40.3740   -5.1781    9.7914 C   0  0  0  0  0  0  0  0  0  0  0  0
   40.5116   -3.8245   10.4861 C   0  0  0  0  0  0  0  0  0  0  0  0
   40.6268   -3.7669   11.7095 O   0  0  0  0  0  0  0  0  0  0  0  0
   40.4801   -2.7551    9.6578 N   0  0  0  0  0  0  0  0  0  0  0  0
   40.3379   -2.9301    8.6995 H   0  0  0  0  0  0  0  0  0  0  0  0
   40.7490    0.3998   14.0400 C   0  0  0  0  0  0  0  0  0  0  0  0
   41.0975   -0.2788   15.2540 O   0  0  0  0  0  0  0  0  0  0  0  0
   40.4931   -1.0248   15.3923 H   0  0  0  0  0  0  0  0  0  0  0  0
   37.2600    0.0368   11.0546 O   0  0  0  0  0  0  0  0  0  0  0  0
   36.0516   -0.5864   10.9059 C   0  0  0  0  0  0  0  0  0  0  0  0
   35.7519   -1.1081    9.8287 O   0  0  0  0  0  0  0  0  0  0  0  0
   35.2012   -0.5904   11.9596 N   0  0  0  0  0  0  0  0  0  0  0  0
   35.4649   -0.1203   12.7835 H   0  0  0  0  0  0  0  0  0  0  0  0
   34.0087   -1.2135   11.9223 C   0  0  0  0  0  0  0  0  0  0  0  0
   32.9023   -0.6793   11.2477 C   0  0  0  0  0  0  0  0  0  0  0  0
   31.6832   -1.3638   11.2490 C   0  0  0  0  0  0  0  0  0  0  0  0
   31.5592   -2.5774   11.9315 C   0  0  0  0  0  0  0  0  0  0  0  0
   32.6544   -3.1128   12.6151 C   0  0  0  0  0  0  0  0  0  0  0  0
   33.8733   -2.4270   12.6097 C   0  0  0  0  0  0  0  0  0  0  0  0
 12 13  1  0  0  0
 13 14  2  0  0  0
 13 15  1  0  0  0
 15  1  1  0  0  0
  1  2  1  0  0  0
  1  8  1  0  0  0
  2  3  1  0  0  0
  2  4  1  0  0  0
  4  5  1  0  0  0
  4  6  1  0  0  0
  6 17  1  0  0  0
  6  7  1  0  0  0
 17 18  1  0  0  0
  7  8  1  0  0  0
  8  9  2  0  0  0
  9 20  1  0  0  0
 20 21  1  0  0  0
 21 22  2  0  0  0
 21 23  1  0  0  0
 23 25  1  0  0  0
 25 26  2  0  0  0
 25 30  1  0  0  0
 26 27  1  0  0  0
 27 28  2  0  0  0
 28 29  1  0  0  0
 29 30  2  0  0  0
 15 16  1  0  0  0
  3 10  1  0  0  0
  5 11  1  0  0  0
 18 19  1  0  0  0
 23 24  1  0  0  0
M  END
> <minimizedAffinity>
-8.18649

$$$$
3S6T_OAN_A_1


 30 31  0  0  0  0  0  0  0  0999 V2000
   37.7296    0.7090    7.0045 C   0  0  0  0  0  0  0  0  0  0  0  0
   36.3110    1.3557    7.0134 C   0  0  0  0  0  0  0  0  0  0  0  0
   36.0080    1.9625    5.7367 O   0  0  0  0  0  0  0  0  0  0  0  0
   35.2450    0.3470    7.3785 C   0  0  0  0  0  0  0  0  0  0  0  0
   33.9880    1.0178    7.4071 O   0  0  0  0  0  0  0  0  0  0  0  0
   35.6057   -0.1983    8.7599 C   0  0  0  0  0  0  0  0  0  0  0  0
   36.8935   -0.8699    8.7085 O   0  0  0  0  0  0  0  0  0  0  0  0
   37.8247   -0.5063    7.7594 C   0  0  0  0  0  0  0  0  0  0  0  0
   38.8508   -1.3160    7.5241 N   0  0  0  0  0  0  0  0  0  0  0  0
   35.9998    1.2797    5.0478 H   0  0  0  0  0  0  0  0  0  0  0  0
   34.0271    1.7510    8.0409 H   0  0  0  0  0  0  0  0  0  0  0  0
   40.1961    3.6608    7.2960 C   0  0  0  0  0  0  0  0  0  0  0  0
   39.1515    2.7593    6.6403 C   0  0  0  0  0  0  0  0  0  0  0  0
   38.7720    2.9870    5.4926 O   0  0  0  0  0  0  0  0  0  0  0  0
   38.7035    1.7485    7.4203 N   0  0  0  0  0  0  0  0  0  0  0  0
   39.0525    1.6986    8.3395 H   0  0  0  0  0  0  0  0  0  0  0  0
   34.5633   -1.2018    9.2597 C   0  0  0  0  0  0  0  0  0  0  0  0
   33.9159   -1.8140    8.1365 O   0  0  0  0  0  0  0  0  0  0  0  0
   33.4799   -1.1313    7.6030 H   0  0  0  0  0  0  0  0  0  0  0  0
   38.8522   -2.6309    8.3761 O   0  0  0  0  0  0  0  0  0  0  0  0
   39.6002   -2.5672    9.5194 C   0  0  0  0  0  0  0  0  0  0  0  0
   40.4034   -3.4652    9.7853 O   0  0  0  0  0  0  0  0  0  0  0  0
   39.4139   -1.5113   10.3464 N   0  0  0  0  0  0  0  0  0  0  0  0
   38.7279   -0.8438   10.1159 H   0  0  0  0  0  0  0  0  0  0  0  0
   40.1319   -1.3406   11.4720 C   0  0  0  0  0  0  0  0  0  0  0  0
   39.7041   -1.8222   12.7168 C   0  0  0  0  0  0  0  0  0  0  0  0
   40.4847   -1.6084   13.8569 C   0  0  0  0  0  0  0  0  0  0  0  0
   41.6887   -0.9046   13.7626 C   0  0  0  0  0  0  0  0  0  0  0  0
   42.1185   -0.4122   12.5271 C   0  0  0  0  0  0  0  0  0  0  0  0
   41.3367   -0.6301   11.3881 C   0  0  0  0  0  0  0  0  0  0  0  0
 12 13  1  0  0  0
 13 14  2  0  0  0
 13 15  1  0  0  0
 15  1  1  0  0  0
  1  2  1  0  0  0
  1  8  1  0  0  0
  2  3  1  0  0  0
  2  4  1  0  0  0
  4  5  1  0  0  0
  4  6  1  0  0  0
  6 17  1  0  0  0
  6  7  1  0  0  0
 17 18  1  0  0  0
  7  8  1  0  0  0
  8  9  2  0  0  0
  9 20  1  0  0  0
 20 21  1  0  0  0
 21 22  2  0  0  0
 21 23  1  0  0  0
 23 25  1  0  0  0
 25 26  2  0  0  0
 25 30  1  0  0  0
 26 27  1  0  0  0
 27 28  2  0  0  0
 28 29  1  0  0  0
 29 30  2  0  0  0
 15 16  1  0  0  0
  3 10  1  0  0  0
  5 11  1  0  0  0
 18 19  1  0  0  0
 23 24  1  0  0  0
M  END
> <minimizedAffinity>
-7.89502

$$$$
3S6T_OAN_A_1


 30 31  0  0  0  0  0  0  0  0999 V2000
   35.5645    1.0284    7.8796 C   0  0  0  0  0  0  0  0  0  0  0  0
   36.5052    0.7451    6.6690 C   0  0  0  0  0  0  0  0  0  0  0  0
   36.8758    1.9719    5.9999 O   0  0  0  0  0  0  0  0  0  0  0  0
   37.7429   -0.0123    7.0950 C   0  0  0  0  0  0  0  0  0  0  0  0
   38.5289   -0.2700    5.9345 O   0  0  0  0  0  0  0  0  0  0  0  0
   37.2664   -1.3163    7.7338 C   0  0  0  0  0  0  0  0  0  0  0  0
   36.4609   -1.0290    8.9088 O   0  0  0  0  0  0  0  0  0  0  0  0
   35.7810    0.1663    9.0046 C   0  0  0  0  0  0  0  0  0  0  0  0
   35.3117    0.5444   10.1881 N   0  0  0  0  0  0  0  0  0  0  0  0
   37.3713    2.5374    6.6128 H   0  0  0  0  0  0  0  0  0  0  0  0
   38.0014   -0.7683    5.2907 H   0  0  0  0  0  0  0  0  0  0  0  0
   32.0875    1.7983    6.3966 C   0  0  0  0  0  0  0  0  0  0  0  0
   33.5488    2.0521    6.7629 C   0  0  0  0  0  0  0  0  0  0  0  0
   34.0777    3.1271    6.4844 O   0  0  0  0  0  0  0  0  0  0  0  0
   34.1675    1.0187    7.3794 N   0  0  0  0  0  0  0  0  0  0  0  0
   33.6480    0.1921    7.5065 H   0  0  0  0  0  0  0  0  0  0  0  0
   38.4429   -2.1959    8.1646 C   0  0  0  0  0  0  0  0  0  0  0  0
   39.6301   -1.3961    8.2448 O   0  0  0  0  0  0  0  0  0  0  0  0
   39.8168   -1.0065    7.3763 H   0  0  0  0  0  0  0  0  0  0  0  0
   35.6229   -0.4481   11.3600 O   0  0  0  0  0  0  0  0  0  0  0  0
   36.8542   -0.2846   11.9323 C   0  0  0  0  0  0  0  0  0  0  0  0
   37.0291    0.5871   12.7878 O   0  0  0  0  0  0  0  0  0  0  0  0
   37.8633   -1.0861   11.5164 N   0  0  0  0  0  0  0  0  0  0  0  0
   37.6875   -1.7353   10.7975 H   0  0  0  0  0  0  0  0  0  0  0  0
   39.0978   -1.0280   12.0496 C   0  0  0  0  0  0  0  0  0  0  0  0
   40.1141   -0.2297   11.5071 C   0  0  0  0  0  0  0  0  0  0  0  0
   41.3824   -0.2142   12.0953 C   0  0  0  0  0  0  0  0  0  0  0  0
   41.6456   -1.0022   13.2195 C   0  0  0  0  0  0  0  0  0  0  0  0
   40.6410   -1.8087   13.7615 C   0  0  0  0  0  0  0  0  0  0  0  0
   39.3726   -1.8200   13.1724 C   0  0  0  0  0  0  0  0  0  0  0  0
 12 13  1  0  0  0
 13 14  2  0  0  0
 13 15  1  0  0  0
 15  1  1  0  0  0
  1  2  1  0  0  0
  1  8  1  0  0  0
  2  3  1  0  0  0
  2  4  1  0  0  0
  4  5  1  0  0  0
  4  6  1  0  0  0
  6 17  1  0  0  0
  6  7  1  0  0  0
 17 18  1  0  0  0
  7  8  1  0  0  0
  8  9  2  0  0  0
  9 20  1  0  0  0
 20 21  1  0  0  0
 21 22  2  0  0  0
 21 23  1  0  0  0
 23 25  1  0  0  0
 25 26  2  0  0  0
 25 30  1  0  0  0
 26 27  1  0  0  0
 27 28  2  0  0  0
 28 29  1  0  0  0
 29 30  2  0  0  0
 15 16  1  0  0  0
  3 10  1  0  0  0
  5 11  1  0  0  0
 18 19  1  0  0  0
 23 24  1  0  0  0
M  END
> <minimizedAffinity>
-7.77513

$$$$
3S6T_OAN_A_1


 30 31  0  0  0  0  0  0  0  0999 V2000
   40.5364    0.0360   12.7185 C   0  0  0  0  0  0  0  0  0  0  0  0
   41.6688   -0.0295   11.6489 C   0  0  0  0  0  0  0  0  0  0  0  0
   42.9244   -0.4280   12.2445 O   0  0  0  0  0  0  0  0  0  0  0  0
   41.3076   -0.9647   10.5167 C   0  0  0  0  0  0  0  0  0  0  0  0
   42.3664   -0.9397    9.5631 O   0  0  0  0  0  0  0  0  0  0  0  0
   40.0087   -0.4398    9.9059 C   0  0  0  0  0  0  0  0  0  0  0  0
   38.9467   -0.4666   10.8976 O   0  0  0  0  0  0  0  0  0  0  0  0
   39.2523   -0.3849   12.2392 C   0  0  0  0  0  0  0  0  0  0  0  0
   38.3247   -0.7168   13.1299 N   0  0  0  0  0  0  0  0  0  0  0  0
   42.8378   -1.3202   12.6152 H   0  0  0  0  0  0  0  0  0  0  0  0
   42.5020   -0.0302    9.2543 H   0  0  0  0  0  0  0  0  0  0  0  0
   40.5918    3.1829   14.9491 C   0  0  0  0  0  0  0  0  0  0  0  0
   40.6802    1.6956   14.6114 C   0  0  0  0  0  0  0  0  0  0  0  0
   40.8779    0.8706   15.5021 O   0  0  0  0  0  0  0  0  0  0  0  0
   40.5396    1.4020   13.2981 N   0  0  0  0  0  0  0  0  0  0  0  0
   40.4305    2.1570   12.6757 H   0  0  0  0  0  0  0  0  0  0  0  0
   39.5662   -1.2856    8.7092 C   0  0  0  0  0  0  0  0  0  0  0  0
   39.7079   -2.6756    9.0311 O   0  0  0  0  0  0  0  0  0  0  0  0
   40.6361   -2.8665    9.2383 H   0  0  0  0  0  0  0  0  0  0  0  0
   36.9659   -1.1908   12.5102 O   0  0  0  0  0  0  0  0  0  0  0  0
   35.9963   -0.2275   12.4607 C   0  0  0  0  0  0  0  0  0  0  0  0
   35.1055   -0.2881   11.6091 O   0  0  0  0  0  0  0  0  0  0  0  0
   36.0613    0.7903   13.3514 N   0  0  0  0  0  0  0  0  0  0  0  0
   36.8172    0.8215   13.9814 H   0  0  0  0  0  0  0  0  0  0  0  0
   35.1306    1.7611   13.4071 C   0  0  0  0  0  0  0  0  0  0  0  0
   35.2442    2.9539   12.6800 C   0  0  0  0  0  0  0  0  0  0  0  0
   34.2525    3.9342   12.7823 C   0  0  0  0  0  0  0  0  0  0  0  0
   33.1498    3.7341   13.6178 C   0  0  0  0  0  0  0  0  0  0  0  0
   33.0331    2.5518   14.3541 C   0  0  0  0  0  0  0  0  0  0  0  0
   34.0255    1.5721   14.2475 C   0  0  0  0  0  0  0  0  0  0  0  0
 12 13  1  0  0  0
 13 14  2  0  0  0
 13 15  1  0  0  0
 15  1  1  0  0  0
  1  2  1  0  0  0
  1  8  1  0  0  0
  2  3  1  0  0  0
  2  4  1  0  0  0
  4  5  1  0  0  0
  4  6  1  0  0  0
  6 17  1  0  0  0
  6  7  1  0  0  0
 17 18  1  0  0  0
  7  8  1  0  0  0
  8  9  2  0  0  0
  9 20  1  0  0  0
 20 21  1  0  0  0
 21 22  2  0  0  0
 21 23  1  0  0  0
 23 25  1  0  0  0
 25 26  2  0  0  0
 25 30  1  0  0  0
 26 27  1  0  0  0
 27 28  2  0  0  0
 28 29  1  0  0  0
 29 30  2  0  0  0
 15 16  1  0  0  0
  3 10  1  0  0  0
  5 11  1  0  0  0
 18 19  1  0  0  0
 23 24  1  0  0  0
M  END
> <minimizedAffinity>
-7.67113

$$$$
3S6T_OAN_A_1


 30 31  0  0  0  0  0  0  0  0999 V2000
   39.9859   -0.0788   10.0206 C   0  0  0  0  0  0  0  0  0  0  0  0
   41.2787   -0.6384   10.6886 C   0  0  0  0  0  0  0  0  0  0  0  0
   42.3813   -0.6566    9.7537 O   0  0  0  0  0  0  0  0  0  0  0  0
   41.6521    0.1537   11.9216 C   0  0  0  0  0  0  0  0  0  0  0  0
   42.8126   -0.4398   12.4978 O   0  0  0  0  0  0  0  0  0  0  0  0
   40.4630    0.0712   12.8781 C   0  0  0  0  0  0  0  0  0  0  0  0
   39.2905    0.6741   12.2667 O   0  0  0  0  0  0  0  0  0  0  0  0
   39.1705    0.7136   10.8941 C   0  0  0  0  0  0  0  0  0  0  0  0
   38.2689    1.5243   10.3520 N   0  0  0  0  0  0  0  0  0  0  0  0
   42.5816    0.2499    9.4724 H   0  0  0  0  0  0  0  0  0  0  0  0
   42.6313   -1.3701   12.7045 H   0  0  0  0  0  0  0  0  0  0  0  0
   37.9901   -2.5109    7.7882 C   0  0  0  0  0  0  0  0  0  0  0  0
   38.7274   -1.2258    8.1609 C   0  0  0  0  0  0  0  0  0  0  0  0
   38.8069   -0.3025    7.3520 O   0  0  0  0  0  0  0  0  0  0  0  0
   39.2658   -1.2194    9.4022 N   0  0  0  0  0  0  0  0  0  0  0  0
   39.1721   -2.0390    9.9394 H   0  0  0  0  0  0  0  0  0  0  0  0
   40.7454    0.8023   14.1930 C   0  0  0  0  0  0  0  0  0  0  0  0
   40.7733    2.2159   13.9546 O   0  0  0  0  0  0  0  0  0  0  0  0
   41.4704    2.4217   13.3123 H   0  0  0  0  0  0  0  0  0  0  0  0
   37.4477    2.3694   11.3846 O   0  0  0  0  0  0  0  0  0  0  0  0
   36.2053    1.8721   11.6668 C   0  0  0  0  0  0  0  0  0  0  0  0
   35.2247    2.2514   11.0212 O   0  0  0  0  0  0  0  0  0  0  0  0
   36.0893    0.9798   12.6787 N   0  0  0  0  0  0  0  0  0  0  0  0
   36.8926    0.7430   13.1964 H   0  0  0  0  0  0  0  0  0  0  0  0
   34.9164    0.4047   13.0029 C   0  0  0  0  0  0  0  0  0  0  0  0
   33.9455    1.0597   13.7730 C   0  0  0  0  0  0  0  0  0  0  0  0
   32.7476    0.4118   14.0893 C   0  0  0  0  0  0  0  0  0  0  0  0
   32.5176   -0.8948   13.6490 C   0  0  0  0  0  0  0  0  0  0  0  0
   33.4841   -1.5593   12.8889 C   0  0  0  0  0  0  0  0  0  0  0  0
   34.6802   -0.9075   12.5718 C   0  0  0  0  0  0  0  0  0  0  0  0
 12 13  1  0  0  0
 13 14  2  0  0  0
 13 15  1  0  0  0
 15  1  1  0  0  0
  1  2  1  0  0  0
  1  8  1  0  0  0
  2  3  1  0  0  0
  2  4  1  0  0  0
  4  5  1  0  0  0
  4  6  1  0  0  0
  6 17  1  0  0  0
  6  7  1  0  0  0
 17 18  1  0  0  0
  7  8  1  0  0  0
  8  9  2  0  0  0
  9 20  1  0  0  0
 20 21  1  0  0  0
 21 22  2  0  0  0
 21 23  1  0  0  0
 23 25  1  0  0  0
 25 26  2  0  0  0
 25 30  1  0  0  0
 26 27  1  0  0  0
 27 28  2  0  0  0
 28 29  1  0  0  0
 29 30  2  0  0  0
 15 16  1  0  0  0
  3 10  1  0  0  0
  5 11  1  0  0  0
 18 19  1  0  0  0
 23 24  1  0  0  0
M  END
> <minimizedAffinity>
-7.59442

$$$$
3S6T_OAN_A_1


 30 31  0  0  0  0  0  0  0  0999 V2000
   39.2138   -1.6286   12.4277 C   0  0  0  0  0  0  0  0  0  0  0  0
   40.2337   -2.4208   11.5542 C   0  0  0  0  0  0  0  0  0  0  0  0
   40.7977   -3.5299   12.2903 O   0  0  0  0  0  0  0  0  0  0  0  0
   39.6001   -2.9127   10.2723 C   0  0  0  0  0  0  0  0  0  0  0  0
   40.5991   -3.5870    9.5118 O   0  0  0  0  0  0  0  0  0  0  0  0
   39.0870   -1.6793    9.5300 C   0  0  0  0  0  0  0  0  0  0  0  0
   38.0769   -1.0037   10.3271 O   0  0  0  0  0  0  0  0  0  0  0  0
   38.0855   -1.1253   11.7001 C   0  0  0  0  0  0  0  0  0  0  0  0
   37.0026   -0.7706   12.3823 N   0  0  0  0  0  0  0  0  0  0  0  0
   40.0923   -4.1513   12.5295 H   0  0  0  0  0  0  0  0  0  0  0  0
   41.3394   -2.9834    9.3431 H   0  0  0  0  0  0  0  0  0  0  0  0
   41.2420    0.5031   14.9225 C   0  0  0  0  0  0  0  0  0  0  0  0
   40.5866   -0.7542   14.3535 C   0  0  0  0  0  0  0  0  0  0  0  0
   40.6590   -1.8191   14.9648 O   0  0  0  0  0  0  0  0  0  0  0  0
   39.9652   -0.5821   13.1640 N   0  0  0  0  0  0  0  0  0  0  0  0
   40.0157    0.3111   12.7531 H   0  0  0  0  0  0  0  0  0  0  0  0
   38.4625   -2.0512    8.1827 C   0  0  0  0  0  0  0  0  0  0  0  0
   39.0053   -1.2078    7.1581 O   0  0  0  0  0  0  0  0  0  0  0  0
   38.8066   -0.2808    7.3634 H   0  0  0  0  0  0  0  0  0  0  0  0
   35.8132   -0.2612   11.4986 O   0  0  0  0  0  0  0  0  0  0  0  0
   34.6558   -0.9770   11.6349 C   0  0  0  0  0  0  0  0  0  0  0  0
   33.9227   -1.1611   10.6598 O   0  0  0  0  0  0  0  0  0  0  0  0
   34.3380   -1.4494   12.8635 N   0  0  0  0  0  0  0  0  0  0  0  0
   34.9300   -1.2369   13.6209 H   0  0  0  0  0  0  0  0  0  0  0  0
   33.2426   -2.1987   13.0875 C   0  0  0  0  0  0  0  0  0  0  0  0
   32.0199   -1.6420   13.4872 C   0  0  0  0  0  0  0  0  0  0  0  0
   30.9152   -2.4679   13.7160 C   0  0  0  0  0  0  0  0  0  0  0  0
   31.0279   -3.8522   13.5581 C   0  0  0  0  0  0  0  0  0  0  0  0
   32.2458   -4.4171   13.1693 C   0  0  0  0  0  0  0  0  0  0  0  0
   33.3482   -3.5879   12.9385 C   0  0  0  0  0  0  0  0  0  0  0  0
 12 13  1  0  0  0
 13 14  2  0  0  0
 13 15  1  0  0  0
 15  1  1  0  0  0
  1  2  1  0  0  0
  1  8  1  0  0  0
  2  3  1  0  0  0
  2  4  1  0  0  0
  4  5  1  0  0  0
  4  6  1  0  0  0
  6 17  1  0  0  0
  6  7  1  0  0  0
 17 18  1  0  0  0
  7  8  1  0  0  0
  8  9  2  0  0  0
  9 20  1  0  0  0
 20 21  1  0  0  0
 21 22  2  0  0  0
 21 23  1  0  0  0
 23 25  1  0  0  0
 25 26  2  0  0  0
 25 30  1  0  0  0
 26 27  1  0  0  0
 27 28  2  0  0  0
 28 29  1  0  0  0
 29 30  2  0  0  0
 15 16  1  0  0  0
  3 10  1  0  0  0
  5 11  1  0  0  0
 18 19  1  0  0  0
 23 24  1  0  0  0
M  END
> <minimizedAffinity>
-7.49726

$$$$
3S6T_OAN_A_1


 30 31  0  0  0  0  0  0  0  0999 V2000
   40.5880   -0.6078   11.5237 C   0  0  0  0  0  0  0  0  0  0  0  0
   40.7494   -0.3206   13.0475 C   0  0  0  0  0  0  0  0  0  0  0  0
   42.1232   -0.4880   13.4657 O   0  0  0  0  0  0  0  0  0  0  0  0
   40.2597    1.0648   13.4048 C   0  0  0  0  0  0  0  0  0  0  0  0
   40.3993    1.2375   14.8125 O   0  0  0  0  0  0  0  0  0  0  0  0
   38.7912    1.1369   12.9877 C   0  0  0  0  0  0  0  0  0  0  0  0
   38.6726    0.9499   11.5513 O   0  0  0  0  0  0  0  0  0  0  0  0
   39.6311    0.2340   10.8666 C   0  0  0  0  0  0  0  0  0  0  0  0
   39.6805    0.3308    9.5430 N   0  0  0  0  0  0  0  0  0  0  0  0
   42.6834    0.1521   12.9995 H   0  0  0  0  0  0  0  0  0  0  0  0
   39.9006    0.5454   15.2742 H   0  0  0  0  0  0  0  0  0  0  0  0
   40.4392   -4.3205   10.4868 C   0  0  0  0  0  0  0  0  0  0  0  0
   40.9465   -2.8795   10.4899 C   0  0  0  0  0  0  0  0  0  0  0  0
   41.8671   -2.5471    9.7448 O   0  0  0  0  0  0  0  0  0  0  0  0
   40.3183   -2.0580   11.3624 N   0  0  0  0  0  0  0  0  0  0  0  0
   39.6251   -2.4552   11.9377 H   0  0  0  0  0  0  0  0  0  0  0  0
   38.1688    2.4887   13.3464 C   0  0  0  0  0  0  0  0  0  0  0  0
   39.1819    3.5027   13.3117 O   0  0  0  0  0  0  0  0  0  0  0  0
   39.8784    3.2859   13.9510 H   0  0  0  0  0  0  0  0  0  0  0  0
   38.6147    1.2956    8.9197 O   0  0  0  0  0  0  0  0  0  0  0  0
   37.5405    0.6667    8.3530 C   0  0  0  0  0  0  0  0  0  0  0  0
   37.6259    0.1993    7.2144 O   0  0  0  0  0  0  0  0  0  0  0  0
   36.3918    0.5968    9.0667 N   0  0  0  0  0  0  0  0  0  0  0  0
   36.3570    1.0258    9.9521 H   0  0  0  0  0  0  0  0  0  0  0  0
   35.2960   -0.0376    8.6102 C   0  0  0  0  0  0  0  0  0  0  0  0
   34.3162    0.6104    7.8456 C   0  0  0  0  0  0  0  0  0  0  0  0
   33.1917   -0.0940    7.4049 C   0  0  0  0  0  0  0  0  0  0  0  0
   33.0342   -1.4435    7.7337 C   0  0  0  0  0  0  0  0  0  0  0  0
   34.0013   -2.0953    8.5040 C   0  0  0  0  0  0  0  0  0  0  0  0
   35.1263   -1.3885    8.9410 C   0  0  0  0  0  0  0  0  0  0  0  0
 12 13  1  0  0  0
 13 14  2  0  0  0
 13 15  1  0  0  0
 15  1  1  0  0  0
  1  2  1  0  0  0
  1  8  1  0  0  0
  2  3  1  0  0  0
  2  4  1  0  0  0
  4  5  1  0  0  0
  4  6  1  0  0  0
  6 17  1  0  0  0
  6  7  1  0  0  0
 17 18  1  0  0  0
  7  8  1  0  0  0
  8  9  2  0  0  0
  9 20  1  0  0  0
 20 21  1  0  0  0
 21 22  2  0  0  0
 21 23  1  0  0  0
 23 25  1  0  0  0
 25 26  2  0  0  0
 25 30  1  0  0  0
 26 27  1  0  0  0
 27 28  2  0  0  0
 28 29  1  0  0  0
 29 30  2  0  0  0
 15 16  1  0  0  0
  3 10  1  0  0  0
  5 11  1  0  0  0
 18 19  1  0  0  0
 23 24  1  0  0  0
M  END
> <minimizedAffinity>
-7.44883

$$$$
3S6T_OAN_A_1


 30 31  0  0  0  0  0  0  0  0999 V2000
   38.1449    0.0029    9.5574 C   0  0  0  0  0  0  0  0  0  0  0  0
   39.2396   -1.0858    9.3406 C   0  0  0  0  0  0  0  0  0  0  0  0
   39.4847   -1.3038    7.9326 O   0  0  0  0  0  0  0  0  0  0  0  0
   40.5278   -0.7237   10.0452 C   0  0  0  0  0  0  0  0  0  0  0  0
   41.4614   -1.7802    9.8375 O   0  0  0  0  0  0  0  0  0  0  0  0
   40.1938   -0.5724   11.5288 C   0  0  0  0  0  0  0  0  0  0  0  0
   39.2349    0.5037   11.7153 O   0  0  0  0  0  0  0  0  0  0  0  0
   38.3726    0.8448   10.6955 C   0  0  0  0  0  0  0  0  0  0  0  0
   37.7293    2.0049   10.7603 N   0  0  0  0  0  0  0  0  0  0  0  0
   39.8200   -0.4863    7.5324 H   0  0  0  0  0  0  0  0  0  0  0  0
   41.0874   -2.6119   10.1683 H   0  0  0  0  0  0  0  0  0  0  0  0
   34.5976   -1.3551    8.8832 C   0  0  0  0  0  0  0  0  0  0  0  0
   35.8948   -0.6019    8.5934 C   0  0  0  0  0  0  0  0  0  0  0  0
   36.0348    0.0008    7.5303 O   0  0  0  0  0  0  0  0  0  0  0  0
   36.8263   -0.6776    9.5718 N   0  0  0  0  0  0  0  0  0  0  0  0
   36.6115   -1.2296   10.3582 H   0  0  0  0  0  0  0  0  0  0  0  0
   41.4401   -0.2505   12.3573 C   0  0  0  0  0  0  0  0  0  0  0  0
   42.3913    0.4402   11.5366 O   0  0  0  0  0  0  0  0  0  0  0  0
   42.6372   -0.1209   10.7845 H   0  0  0  0  0  0  0  0  0  0  0  0
   38.0652    2.8667   12.0250 O   0  0  0  0  0  0  0  0  0  0  0  0
   37.1291    2.8055   13.0202 C   0  0  0  0  0  0  0  0  0  0  0  0
   37.4828    2.7281   14.1997 O   0  0  0  0  0  0  0  0  0  0  0  0
   35.8215    2.8103   12.6683 N   0  0  0  0  0  0  0  0  0  0  0  0
   35.5880    2.8255   11.7120 H   0  0  0  0  0  0  0  0  0  0  0  0
   34.8293    2.7951   13.5776 C   0  0  0  0  0  0  0  0  0  0  0  0
   34.4248    3.9458   14.2681 C   0  0  0  0  0  0  0  0  0  0  0  0
   33.3944    3.8719   15.2103 C   0  0  0  0  0  0  0  0  0  0  0  0
   32.7710    2.6493   15.4757 C   0  0  0  0  0  0  0  0  0  0  0  0
   33.1744    1.4948   14.7990 C   0  0  0  0  0  0  0  0  0  0  0  0
   34.2035    1.5725   13.8552 C   0  0  0  0  0  0  0  0  0  0  0  0
 12 13  1  0  0  0
 13 14  2  0  0  0
 13 15  1  0  0  0
 15  1  1  0  0  0
  1  2  1  0  0  0
  1  8  1  0  0  0
  2  3  1  0  0  0
  2  4  1  0  0  0
  4  5  1  0  0  0
  4  6  1  0  0  0
  6 17  1  0  0  0
  6  7  1  0  0  0
 17 18  1  0  0  0
  7  8  1  0  0  0
  8  9  2  0  0  0
  9 20  1  0  0  0
 20 21  1  0  0  0
 21 22  2  0  0  0
 21 23  1  0  0  0
 23 25  1  0  0  0
 25 26  2  0  0  0
 25 30  1  0  0  0
 26 27  1  0  0  0
 27 28  2  0  0  0
 28 29  1  0  0  0
 29 30  2  0  0  0
 15 16  1  0  0  0
  3 10  1  0  0  0
  5 11  1  0  0  0
 18 19  1  0  0  0
 23 24  1  0  0  0
M  END
> <minimizedAffinity>
-7.28046

$$$$
