4NL1_Z13_A_301
  RCSB PDB12061713543D
Coordinates from PDB:4NL1:A:301 Model:1 without hydrogens
 13 13  0  0  0  0            999 V2000
  -23.4390   42.9250   11.5990   F 0  0  0  0  0  0  0  0  0  0  0  0
  -25.0930   41.5660   11.6530   F 0  0  0  0  0  0  0  0  0  0  0  0
  -25.4190   43.7360   11.6310   F 0  0  0  0  0  0  0  0  0  0  0  0
  -24.6250   42.7090   17.8860   C 0  0  0  0  0  0  0  0  0  0  0  0
  -23.6110   41.7640   18.2340   N 0  0  0  0  0  0  0  0  0  0  0  0
  -22.3020   42.3760   18.1480   C 0  0  0  0  0  0  0  0  0  0  0  0
  -23.6780   43.4750   15.6920   C 0  0  0  0  0  0  0  0  0  0  0  0
  -24.6750   42.7710   16.4230   C 0  0  0  0  0  0  0  0  0  0  0  0
  -25.6130   42.0340   15.6950   C 0  0  0  0  0  0  0  0  0  0  0  0
  -25.6040   42.0460   14.2910   C 0  0  0  0  0  0  0  0  0  0  0  0
  -23.6880   43.4910   14.3140   C 0  0  0  0  0  0  0  0  0  0  0  0
  -24.6600   42.7700   13.5660   C 0  0  0  0  0  0  0  0  0  0  0  0
  -24.6560   42.7620   12.0760   C 0  0  0  0  0  0  0  0  0  0  0  0
  1 13  1  0  0  0  0
  3 13  1  0  0  0  0
  2 13  1  0  0  0  0
 13 12  1  0  0  0  0
 12 10  2  0  0  0  0
 12 11  1  0  0  0  0
 10  9  1  0  0  0  0
 11  7  2  0  0  0  0
  7  8  1  0  0  0  0
  9  8  2  0  0  0  0
  8  4  1  0  0  0  0
  4  5  1  0  0  0  0
  6  5  2  0  0  0  0
A    1
F2
A    2
F3
A    3
F4
A    4
C1
A    5
N1
A    6
C2
A    7
C4
A    8
C5
A    9
C6
A   10
C7
A   11
C8
A   12
C15
A   13
C16
M  END
>  <InstanceId>
4NL1_Z13_A_301

>  <ChemCompId>
Z13

>  <PdbId>
4NL1

>  <ChainId>
A

>  <ResidueNumber>
301

>  <InsertionCode>


>  <Model>
1

>  <AltIds>


>  <MissingHeavyAtoms>
10

>  <ObservedFormula>
C9 N F3

>  <Name>
(E)-N-[4-(trifluoromethyl)benzyl]-1-[4-(trifluoromethyl)phenyl]methanimine

>  <SystematicName>
1-[4-(trifluoromethyl)phenyl]-N-[[4-(trifluoromethyl)phenyl]methyl]methanimine

>  <Synonyms>


>  <Type>
NON-POLYMER

>  <Formula>
C16 H11 F6 N

>  <MolecularWeight>
331.256

>  <ModifiedDate>
2014-05-09

>  <Parent>


>  <OneLetterCode>


>  <SubcomponentList>


>  <AmbiguousFlag>
N

>  <InChI>
InChI=1S/C16H11F6N/c17-15(18,19)13-5-1-11(2-6-13)9-23-10-12-3-7-14(8-4-12)16(20,21)22/h1-9H,10H2

>  <InChIKey>
ZQHUZWLWETYCDW-UHFFFAOYSA-N

>  <SMILES>
c1cc(ccc1CN=Cc2ccc(cc2)C(F)(F)F)C(F)(F)F

$$$$
