4I8Z_G08_A_101


 44 47  0  0  0  0  0  0  0  0999 V2000
  -19.6468   -1.4483    0.8720 C   0  0  0  0  0  0  0  0  0  0  0  0
  -20.5634   -2.2004    0.1622 O   0  0  0  0  0  0  0  0  0  0  0  0
  -20.1087   -2.6761   -0.5505 H   0  0  0  0  0  0  0  0  0  0  0  0
  -18.6492   -2.4311    1.4945 C   0  0  0  0  0  0  0  0  0  0  0  0
  -16.7612   -1.4846    3.3438 O   0  0  0  0  0  0  0  0  0  0  0  0
  -17.7796   -2.0426    3.7472 C   0  0  0  0  0  0  0  0  0  0  0  0
  -18.8468   -2.3642    2.9259 N   0  0  0  0  0  0  0  0  0  0  0  0
  -19.7335   -2.5460    3.3131 H   0  0  0  0  0  0  0  0  0  0  0  0
  -18.0539   -2.0217    5.1094 O   0  0  0  0  0  0  0  0  0  0  0  0
  -17.6501   -1.0008    5.9327 C   0  0  0  0  0  0  0  0  0  0  0  0
  -17.0905   -1.5596    7.1848 C   0  0  0  0  0  0  0  0  0  0  0  0
  -16.3061   -2.8267    7.2234 C   0  0  0  0  0  0  0  0  0  0  0  0
  -17.4869   -3.8652    7.2595 C   0  0  0  0  0  0  0  0  0  0  0  0
  -18.3740   -3.2256    8.1856 O   0  0  0  0  0  0  0  0  0  0  0  0
  -18.2839   -1.8531    7.9562 C   0  0  0  0  0  0  0  0  0  0  0  0
  -19.3645   -1.2288    7.3265 O   0  0  0  0  0  0  0  0  0  0  0  0
  -18.8666   -0.2659    6.4187 C   0  0  0  0  0  0  0  0  0  0  0  0
  -18.9305   -3.8484    1.0058 C   0  0  0  0  0  0  0  0  0  0  0  0
  -18.0375   -4.8185    1.7785 C   0  0  0  0  0  0  0  0  0  0  0  0
  -18.5643   -5.7195    2.7360 C   0  0  0  0  0  0  0  0  0  0  0  0
  -17.7299   -6.5885    3.4292 C   0  0  0  0  0  0  0  0  0  0  0  0
  -16.3706   -6.5573    3.1909 C   0  0  0  0  0  0  0  0  0  0  0  0
  -15.8249   -5.6929    2.2487 C   0  0  0  0  0  0  0  0  0  0  0  0
  -16.6621   -4.8211    1.5401 C   0  0  0  0  0  0  0  0  0  0  0  0
  -19.0590   -0.2557    0.1060 C   0  0  0  0  0  0  0  0  0  0  0  0
  -17.5963   -0.2448    0.3754 N   0  0  0  0  0  0  0  0  0  0  0  0
  -16.6092   -0.6592   -0.9250 S   0  0  0  0  0  0  0  0  0  0  0  0
  -16.4987   -2.1057   -1.0132 O   0  0  0  0  0  0  0  0  0  0  0  0
  -15.3300   -0.0652   -0.6733 O   0  0  0  0  0  0  0  0  0  0  0  0
  -17.2703   -0.0405   -2.4685 C   0  0  0  0  0  0  0  0  0  0  0  0
  -17.8826   -0.9884   -3.2809 C   0  0  0  0  0  0  0  0  0  0  0  0
  -18.3997   -0.6301   -4.5193 C   0  0  0  0  0  0  0  0  0  0  0  0
  -17.0414    1.2991   -2.7924 C   0  0  0  0  0  0  0  0  0  0  0  0
  -17.5843    1.6480   -4.0553 C   0  0  0  0  0  0  0  0  0  0  0  0
  -18.2358    0.6942   -4.8911 C   0  0  0  0  0  0  0  0  0  0  0  0
  -18.8141    1.0773   -6.2304 C   0  0  0  0  0  0  0  0  0  0  0  0
  -19.0937    2.2197   -6.3971 O   0  0  0  0  0  0  0  0  0  0  0  0
  -19.0324    0.1473   -7.3022 N   0  0  0  0  0  0  0  0  0  0  0  0
  -18.8067   -0.8035   -7.1825 H   0  0  0  0  0  0  0  0  0  0  0  0
  -19.4077    0.4604   -8.1568 H   0  0  0  0  0  0  0  0  0  0  0  0
  -17.0595    0.9425    1.0853 C   0  0  0  0  0  0  0  0  0  0  0  0
  -18.1898    1.9426    1.3804 C   0  0  0  0  0  0  0  0  0  0  0  0
  -17.5992    3.3396    1.2165 C   0  0  0  0  0  0  0  0  0  0  0  0
  -18.5992    1.8182    2.8141 C   0  0  0  0  0  0  0  0  0  0  0  0
 16 15  1  0  0  0
 16 17  1  0  0  0
 15 14  1  0  0  0
 15 11  1  0  0  0
 17 10  1  0  0  0
 14 13  1  0  0  0
 11 10  1  0  0  0
 11 12  1  0  0  0
 10  9  1  0  0  0
 13 12  1  0  0  0
  9  6  1  0  0  0
  6  5  2  0  0  0
  6  7  1  0  0  0
 21 22  2  0  0  0
 21 20  1  0  0  0
  7  4  1  0  0  0
 22 23  1  0  0  0
 20 19  2  0  0  0
 23 24  2  0  0  0
 19 24  1  0  0  0
 19 18  1  0  0  0
  4 18  1  0  0  0
  4  1  1  0  0  0
  2  1  1  0  0  0
 44 42  1  0  0  0
  1 25  1  0  0  0
 42 43  1  0  0  0
 42 41  1  0  0  0
 25 26  1  0  0  0
 26 41  1  0  0  0
 26 27  1  0  0  0
 29 27  2  0  0  0
 28 27  2  0  0  0
 27 30  1  0  0  0
 30 31  2  0  0  0
 30 33  1  0  0  0
 31 32  1  0  0  0
 33 34  2  0  0  0
 32 35  2  0  0  0
 34 35  1  0  0  0
 35 36  1  0  0  0
 36 37  2  0  0  0
 36 38  1  0  0  0
  7  8  1  0  0  0
  2  3  1  0  0  0
 38 39  1  0  0  0
 38 40  1  0  0  0
M  END
> <minimizedAffinity>
-10.38930

$$$$
4I8Z_G08_A_101


 44 47  0  0  0  0  0  0  0  0999 V2000
  -19.4539    1.9361   -0.9625 C   0  0  0  0  0  0  0  0  0  0  0  0
  -19.5541    2.6392    0.2230 O   0  0  0  0  0  0  0  0  0  0  0  0
  -18.6716    2.7456    0.6113 H   0  0  0  0  0  0  0  0  0  0  0  0
  -18.5969    2.7806   -1.9116 C   0  0  0  0  0  0  0  0  0  0  0  0
  -16.8376    1.9232   -3.9242 O   0  0  0  0  0  0  0  0  0  0  0  0
  -18.0082    2.1713   -4.2060 C   0  0  0  0  0  0  0  0  0  0  0  0
  -18.9856    2.4094   -3.2546 N   0  0  0  0  0  0  0  0  0  0  0  0
  -19.9378    2.3267   -3.4903 H   0  0  0  0  0  0  0  0  0  0  0  0
  -18.4711    1.8411   -5.4740 O   0  0  0  0  0  0  0  0  0  0  0  0
  -17.8556    0.9073   -6.2694 C   0  0  0  0  0  0  0  0  0  0  0  0
  -17.2235    1.5769   -7.4292 C   0  0  0  0  0  0  0  0  0  0  0  0
  -16.5955    2.9259   -7.3388 C   0  0  0  0  0  0  0  0  0  0  0  0
  -17.8785    3.8232   -7.4898 C   0  0  0  0  0  0  0  0  0  0  0  0
  -18.5692    3.1245   -8.5332 O   0  0  0  0  0  0  0  0  0  0  0  0
  -18.3447    1.7631   -8.3313 C   0  0  0  0  0  0  0  0  0  0  0  0
  -19.4100    0.9943   -7.8537 O   0  0  0  0  0  0  0  0  0  0  0  0
  -18.9113    0.0585   -6.9184 C   0  0  0  0  0  0  0  0  0  0  0  0
  -18.8729    4.2646   -1.6918 C   0  0  0  0  0  0  0  0  0  0  0  0
  -17.8722    5.0754   -2.5145 C   0  0  0  0  0  0  0  0  0  0  0  0
  -18.2885    5.9592   -3.5400 C   0  0  0  0  0  0  0  0  0  0  0  0
  -17.3579    6.6816   -4.2774 C   0  0  0  0  0  0  0  0  0  0  0  0
  -16.0123    6.5194   -4.0153 C   0  0  0  0  0  0  0  0  0  0  0  0
  -15.5730    5.6688   -3.0073 C   0  0  0  0  0  0  0  0  0  0  0  0
  -16.5070    4.9449   -2.2544 C   0  0  0  0  0  0  0  0  0  0  0  0
  -19.0660    0.4597   -0.8064 C   0  0  0  0  0  0  0  0  0  0  0  0
  -17.5979    0.3706   -1.0276 N   0  0  0  0  0  0  0  0  0  0  0  0
  -16.6397    0.5172    0.3499 S   0  0  0  0  0  0  0  0  0  0  0  0
  -16.5189    1.9189    0.7143 O   0  0  0  0  0  0  0  0  0  0  0  0
  -15.3597   -0.0349    0.0186 O   0  0  0  0  0  0  0  0  0  0  0  0
  -17.3439   -0.3749    1.7320 C   0  0  0  0  0  0  0  0  0  0  0  0
  -17.2874   -1.7613    1.6417 C   0  0  0  0  0  0  0  0  0  0  0  0
  -17.8358   -2.5577    2.6388 C   0  0  0  0  0  0  0  0  0  0  0  0
  -17.9798    0.3610    2.7350 C   0  0  0  0  0  0  0  0  0  0  0  0
  -18.5248   -0.4684    3.7480 C   0  0  0  0  0  0  0  0  0  0  0  0
  -18.4555   -1.8911    3.6831 C   0  0  0  0  0  0  0  0  0  0  0  0
  -19.0342   -2.7637    4.7687 C   0  0  0  0  0  0  0  0  0  0  0  0
  -19.0755   -2.3128    5.8669 O   0  0  0  0  0  0  0  0  0  0  0  0
  -19.5392   -4.0889    4.5446 N   0  0  0  0  0  0  0  0  0  0  0  0
  -19.5134   -4.4792    3.6412 H   0  0  0  0  0  0  0  0  0  0  0  0
  -19.9113   -4.6072    5.2944 H   0  0  0  0  0  0  0  0  0  0  0  0
  -17.1206   -0.7433   -1.8838 C   0  0  0  0  0  0  0  0  0  0  0  0
  -18.2449   -1.7708   -2.0967 C   0  0  0  0  0  0  0  0  0  0  0  0
  -17.6488   -3.1454   -1.8099 C   0  0  0  0  0  0  0  0  0  0  0  0
  -18.6475   -1.7728   -3.5377 C   0  0  0  0  0  0  0  0  0  0  0  0
 16 15  1  0  0  0
 16 17  1  0  0  0
 15 14  1  0  0  0
 15 11  1  0  0  0
 17 10  1  0  0  0
 14 13  1  0  0  0
 11 10  1  0  0  0
 11 12  1  0  0  0
 10  9  1  0  0  0
 13 12  1  0  0  0
  9  6  1  0  0  0
  6  5  2  0  0  0
  6  7  1  0  0  0
 21 22  2  0  0  0
 21 20  1  0  0  0
  7  4  1  0  0  0
 22 23  1  0  0  0
 20 19  2  0  0  0
 23 24  2  0  0  0
 19 24  1  0  0  0
 19 18  1  0  0  0
  4 18  1  0  0  0
  4  1  1  0  0  0
  2  1  1  0  0  0
 44 42  1  0  0  0
  1 25  1  0  0  0
 42 43  1  0  0  0
 42 41  1  0  0  0
 25 26  1  0  0  0
 26 41  1  0  0  0
 26 27  1  0  0  0
 29 27  2  0  0  0
 28 27  2  0  0  0
 27 30  1  0  0  0
 30 31  2  0  0  0
 30 33  1  0  0  0
 31 32  1  0  0  0
 33 34  2  0  0  0
 32 35  2  0  0  0
 34 35  1  0  0  0
 35 36  1  0  0  0
 36 37  2  0  0  0
 36 38  1  0  0  0
  7  8  1  0  0  0
  2  3  1  0  0  0
 38 39  1  0  0  0
 38 40  1  0  0  0
M  END
> <minimizedAffinity>
-10.29521

$$$$
4I8Z_G08_A_101


 44 47  0  0  0  0  0  0  0  0999 V2000
  -19.6707   -1.6488    0.8752 C   0  0  0  0  0  0  0  0  0  0  0  0
  -20.4974   -2.4274    0.0878 O   0  0  0  0  0  0  0  0  0  0  0  0
  -19.9766   -2.8392   -0.6193 H   0  0  0  0  0  0  0  0  0  0  0  0
  -18.6399   -2.5901    1.5075 C   0  0  0  0  0  0  0  0  0  0  0  0
  -16.7830   -1.5639    3.3459 O   0  0  0  0  0  0  0  0  0  0  0  0
  -17.7828   -2.1502    3.7556 C   0  0  0  0  0  0  0  0  0  0  0  0
  -18.8393   -2.5147    2.9382 N   0  0  0  0  0  0  0  0  0  0  0  0
  -19.7196   -2.7210    3.3279 H   0  0  0  0  0  0  0  0  0  0  0  0
  -18.0574   -2.1240    5.1176 O   0  0  0  0  0  0  0  0  0  0  0  0
  -17.6651   -1.0935    5.9346 C   0  0  0  0  0  0  0  0  0  0  0  0
  -17.1008   -1.6383    7.1908 C   0  0  0  0  0  0  0  0  0  0  0  0
  -16.3032   -2.8968    7.2384 C   0  0  0  0  0  0  0  0  0  0  0  0
  -17.4731   -3.9474    7.2803 C   0  0  0  0  0  0  0  0  0  0  0  0
  -18.3678   -3.3111    8.2014 O   0  0  0  0  0  0  0  0  0  0  0  0
  -18.2918   -1.9393    7.9631 C   0  0  0  0  0  0  0  0  0  0  0  0
  -19.3783   -1.3305    7.3283 O   0  0  0  0  0  0  0  0  0  0  0  0
  -18.8897   -0.3683    6.4147 C   0  0  0  0  0  0  0  0  0  0  0  0
  -18.8726   -4.0214    1.0342 C   0  0  0  0  0  0  0  0  0  0  0  0
  -17.9686   -4.9555    1.8379 C   0  0  0  0  0  0  0  0  0  0  0  0
  -18.4909   -5.8714    2.7836 C   0  0  0  0  0  0  0  0  0  0  0  0
  -17.6467   -6.7068    3.5056 C   0  0  0  0  0  0  0  0  0  0  0  0
  -16.2829   -6.6272    3.3078 C   0  0  0  0  0  0  0  0  0  0  0  0
  -15.7409   -5.7471    2.3781 C   0  0  0  0  0  0  0  0  0  0  0  0
  -16.5875   -4.9089    1.6406 C   0  0  0  0  0  0  0  0  0  0  0  0
  -19.1292   -0.3864    0.1912 C   0  0  0  0  0  0  0  0  0  0  0  0
  -17.6615   -0.3585    0.4305 N   0  0  0  0  0  0  0  0  0  0  0  0
  -16.6933   -0.5477   -0.9348 S   0  0  0  0  0  0  0  0  0  0  0  0
  -16.5964   -1.9576   -1.2737 O   0  0  0  0  0  0  0  0  0  0  0  0
  -15.4061   -0.0146   -0.6007 O   0  0  0  0  0  0  0  0  0  0  0  0
  -17.3670    0.3335   -2.3391 C   0  0  0  0  0  0  0  0  0  0  0  0
  -17.4184    1.7169   -2.2098 C   0  0  0  0  0  0  0  0  0  0  0  0
  -17.9557    2.5021   -3.2218 C   0  0  0  0  0  0  0  0  0  0  0  0
  -17.8788   -0.4152   -3.4019 C   0  0  0  0  0  0  0  0  0  0  0  0
  -18.4141    0.4036   -4.4286 C   0  0  0  0  0  0  0  0  0  0  0  0
  -18.4537    1.8250   -4.3229 C   0  0  0  0  0  0  0  0  0  0  0  0
  -19.0209    2.6866   -5.4232 C   0  0  0  0  0  0  0  0  0  0  0  0
  -19.0898    2.2095   -6.5089 O   0  0  0  0  0  0  0  0  0  0  0  0
  -19.4838    4.0314   -5.2269 N   0  0  0  0  0  0  0  0  0  0  0  0
  -19.4347    4.4436   -4.3342 H   0  0  0  0  0  0  0  0  0  0  0  0
  -19.8504    4.5414   -5.9851 H   0  0  0  0  0  0  0  0  0  0  0  0
  -17.1486    0.7361    1.2910 C   0  0  0  0  0  0  0  0  0  0  0  0
  -18.2497    1.7813    1.5361 C   0  0  0  0  0  0  0  0  0  0  0  0
  -17.6210    3.1509    1.2991 C   0  0  0  0  0  0  0  0  0  0  0  0
  -18.6576    1.7426    2.9751 C   0  0  0  0  0  0  0  0  0  0  0  0
 16 15  1  0  0  0
 16 17  1  0  0  0
 15 14  1  0  0  0
 15 11  1  0  0  0
 17 10  1  0  0  0
 14 13  1  0  0  0
 11 10  1  0  0  0
 11 12  1  0  0  0
 10  9  1  0  0  0
 13 12  1  0  0  0
  9  6  1  0  0  0
  6  5  2  0  0  0
  6  7  1  0  0  0
 21 22  2  0  0  0
 21 20  1  0  0  0
  7  4  1  0  0  0
 22 23  1  0  0  0
 20 19  2  0  0  0
 23 24  2  0  0  0
 19 24  1  0  0  0
 19 18  1  0  0  0
  4 18  1  0  0  0
  4  1  1  0  0  0
  2  1  1  0  0  0
 44 42  1  0  0  0
  1 25  1  0  0  0
 42 43  1  0  0  0
 42 41  1  0  0  0
 25 26  1  0  0  0
 26 41  1  0  0  0
 26 27  1  0  0  0
 29 27  2  0  0  0
 28 27  2  0  0  0
 27 30  1  0  0  0
 30 31  2  0  0  0
 30 33  1  0  0  0
 31 32  1  0  0  0
 33 34  2  0  0  0
 32 35  2  0  0  0
 34 35  1  0  0  0
 35 36  1  0  0  0
 36 37  2  0  0  0
 36 38  1  0  0  0
  7  8  1  0  0  0
  2  3  1  0  0  0
 38 39  1  0  0  0
 38 40  1  0  0  0
M  END
> <minimizedAffinity>
-10.24133

$$$$
4I8Z_G08_A_101


 44 47  0  0  0  0  0  0  0  0999 V2000
  -19.2337   -0.6472    0.7950 C   0  0  0  0  0  0  0  0  0  0  0  0
  -20.4802   -0.4510    0.2316 O   0  0  0  0  0  0  0  0  0  0  0  0
  -21.1608   -0.5242    0.9188 H   0  0  0  0  0  0  0  0  0  0  0  0
  -19.0239    0.4752    1.8172 C   0  0  0  0  0  0  0  0  0  0  0  0
  -18.7424    1.8282    4.2607 O   0  0  0  0  0  0  0  0  0  0  0  0
  -18.7446    0.5990    4.2439 C   0  0  0  0  0  0  0  0  0  0  0  0
  -19.0698   -0.1458    3.1229 N   0  0  0  0  0  0  0  0  0  0  0  0
  -19.3304   -1.0908    3.2137 H   0  0  0  0  0  0  0  0  0  0  0  0
  -18.7950   -0.0823    5.4540 O   0  0  0  0  0  0  0  0  0  0  0  0
  -17.6873   -0.2866    6.2379 C   0  0  0  0  0  0  0  0  0  0  0  0
  -17.2976   -1.7146    6.1907 C   0  0  0  0  0  0  0  0  0  0  0  0
  -17.4357   -2.5488    4.9630 C   0  0  0  0  0  0  0  0  0  0  0  0
  -18.9539   -2.9424    5.0828 C   0  0  0  0  0  0  0  0  0  0  0  0
  -19.0439   -3.2274    6.4844 O   0  0  0  0  0  0  0  0  0  0  0  0
  -18.2132   -2.3194    7.1401 C   0  0  0  0  0  0  0  0  0  0  0  0
  -18.8216   -1.2894    7.8631 O   0  0  0  0  0  0  0  0  0  0  0  0
  -18.0766   -0.1022    7.6769 C   0  0  0  0  0  0  0  0  0  0  0  0
  -17.6614    1.1290    1.6103 C   0  0  0  0  0  0  0  0  0  0  0  0
  -17.8509    2.4063    0.7928 C   0  0  0  0  0  0  0  0  0  0  0  0
  -18.8901    2.5372   -0.1605 C   0  0  0  0  0  0  0  0  0  0  0  0
  -19.0380    3.7079   -0.8949 C   0  0  0  0  0  0  0  0  0  0  0  0
  -18.1486    4.7459   -0.7019 C   0  0  0  0  0  0  0  0  0  0  0  0
  -17.1258    4.6522    0.2350 C   0  0  0  0  0  0  0  0  0  0  0  0
  -16.9774    3.4780    0.9849 C   0  0  0  0  0  0  0  0  0  0  0  0
  -18.9592   -2.0796    1.2720 C   0  0  0  0  0  0  0  0  0  0  0  0
  -18.5491   -2.8642    0.0769 N   0  0  0  0  0  0  0  0  0  0  0  0
  -17.1418   -2.3472   -0.6908 S   0  0  0  0  0  0  0  0  0  0  0  0
  -16.4248   -3.4945   -1.2215 O   0  0  0  0  0  0  0  0  0  0  0  0
  -16.3591   -1.6717    0.3011 O   0  0  0  0  0  0  0  0  0  0  0  0
  -17.5077   -1.2277   -2.0382 C   0  0  0  0  0  0  0  0  0  0  0  0
  -16.8488   -0.0041   -1.9962 C   0  0  0  0  0  0  0  0  0  0  0  0
  -17.0827    0.9586   -2.9697 C   0  0  0  0  0  0  0  0  0  0  0  0
  -18.4843   -1.6074   -2.9623 C   0  0  0  0  0  0  0  0  0  0  0  0
  -18.7023   -0.6162   -3.9529 C   0  0  0  0  0  0  0  0  0  0  0  0
  -18.0184    0.6348   -3.9385 C   0  0  0  0  0  0  0  0  0  0  0  0
  -18.2543    1.6799   -5.0000 C   0  0  0  0  0  0  0  0  0  0  0  0
  -17.7201    1.5221   -6.0491 O   0  0  0  0  0  0  0  0  0  0  0  0
  -19.0870    2.8346   -4.8135 N   0  0  0  0  0  0  0  0  0  0  0  0
  -19.5379    2.9822   -3.9509 H   0  0  0  0  0  0  0  0  0  0  0  0
  -19.2069    3.4788   -5.5483 H   0  0  0  0  0  0  0  0  0  0  0  0
  -18.5600   -4.3416    0.2153 C   0  0  0  0  0  0  0  0  0  0  0  0
  -18.1822   -4.7448    1.6504 C   0  0  0  0  0  0  0  0  0  0  0  0
  -16.8878   -5.5469    1.5589 C   0  0  0  0  0  0  0  0  0  0  0  0
  -19.2218   -5.6735    2.1937 C   0  0  0  0  0  0  0  0  0  0  0  0
 16 15  1  0  0  0
 16 17  1  0  0  0
 15 14  1  0  0  0
 15 11  1  0  0  0
 17 10  1  0  0  0
 14 13  1  0  0  0
 11 10  1  0  0  0
 11 12  1  0  0  0
 10  9  1  0  0  0
 13 12  1  0  0  0
  9  6  1  0  0  0
  6  5  2  0  0  0
  6  7  1  0  0  0
 21 22  2  0  0  0
 21 20  1  0  0  0
  7  4  1  0  0  0
 22 23  1  0  0  0
 20 19  2  0  0  0
 23 24  2  0  0  0
 19 24  1  0  0  0
 19 18  1  0  0  0
  4 18  1  0  0  0
  4  1  1  0  0  0
  2  1  1  0  0  0
 44 42  1  0  0  0
  1 25  1  0  0  0
 42 43  1  0  0  0
 42 41  1  0  0  0
 25 26  1  0  0  0
 26 41  1  0  0  0
 26 27  1  0  0  0
 29 27  2  0  0  0
 28 27  2  0  0  0
 27 30  1  0  0  0
 30 31  2  0  0  0
 30 33  1  0  0  0
 31 32  1  0  0  0
 33 34  2  0  0  0
 32 35  2  0  0  0
 34 35  1  0  0  0
 35 36  1  0  0  0
 36 37  2  0  0  0
 36 38  1  0  0  0
  7  8  1  0  0  0
  2  3  1  0  0  0
 38 39  1  0  0  0
 38 40  1  0  0  0
M  END
> <minimizedAffinity>
-10.16868

$$$$
4I8Z_G08_A_101


 44 47  0  0  0  0  0  0  0  0999 V2000
  -19.3288    0.5659   -1.3047 C   0  0  0  0  0  0  0  0  0  0  0  0
  -20.6040    0.3631   -0.8123 O   0  0  0  0  0  0  0  0  0  0  0  0
  -21.2468    0.4513   -1.5334 H   0  0  0  0  0  0  0  0  0  0  0  0
  -19.0671   -0.5379   -2.3351 C   0  0  0  0  0  0  0  0  0  0  0  0
  -18.6859   -1.8510   -4.7869 O   0  0  0  0  0  0  0  0  0  0  0  0
  -18.7416   -0.6232   -4.7577 C   0  0  0  0  0  0  0  0  0  0  0  0
  -19.1178    0.0946   -3.6350 N   0  0  0  0  0  0  0  0  0  0  0  0
  -19.4176    1.0284   -3.7209 H   0  0  0  0  0  0  0  0  0  0  0  0
  -18.8010    0.0684   -5.9615 O   0  0  0  0  0  0  0  0  0  0  0  0
  -17.7022    0.2654   -6.7598 C   0  0  0  0  0  0  0  0  0  0  0  0
  -17.3135    1.6942   -6.7318 C   0  0  0  0  0  0  0  0  0  0  0  0
  -17.4389    2.5410   -5.5114 C   0  0  0  0  0  0  0  0  0  0  0  0
  -18.9587    2.9320   -5.6185 C   0  0  0  0  0  0  0  0  0  0  0  0
  -19.0645    3.2023   -7.0219 O   0  0  0  0  0  0  0  0  0  0  0  0
  -18.2402    2.2882   -7.6772 C   0  0  0  0  0  0  0  0  0  0  0  0
  -18.8555    1.2501   -8.3827 O   0  0  0  0  0  0  0  0  0  0  0  0
  -18.1073    0.0657   -8.1924 C   0  0  0  0  0  0  0  0  0  0  0  0
  -17.6855   -1.1464   -2.1168 C   0  0  0  0  0  0  0  0  0  0  0  0
  -17.8181   -2.3298   -1.1589 C   0  0  0  0  0  0  0  0  0  0  0  0
  -19.0048   -2.5675   -0.4230 C   0  0  0  0  0  0  0  0  0  0  0  0
  -19.0982   -3.6484    0.4456 C   0  0  0  0  0  0  0  0  0  0  0  0
  -18.0133   -4.4873    0.6029 C   0  0  0  0  0  0  0  0  0  0  0  0
  -16.8393   -4.2873   -0.1143 C   0  0  0  0  0  0  0  0  0  0  0  0
  -16.7423   -3.2047   -0.9985 C   0  0  0  0  0  0  0  0  0  0  0  0
  -19.0262    2.0061   -1.7394 C   0  0  0  0  0  0  0  0  0  0  0  0
  -18.5878    2.7435   -0.5244 N   0  0  0  0  0  0  0  0  0  0  0  0
  -17.1741    2.1847    0.2011 S   0  0  0  0  0  0  0  0  0  0  0  0
  -16.4661    3.2967    0.8128 O   0  0  0  0  0  0  0  0  0  0  0  0
  -16.3878    1.5905   -0.8388 O   0  0  0  0  0  0  0  0  0  0  0  0
  -17.5267    0.9666    1.4638 C   0  0  0  0  0  0  0  0  0  0  0  0
  -16.7260   -0.1699    1.4401 C   0  0  0  0  0  0  0  0  0  0  0  0
  -16.9324   -1.1991    2.3497 C   0  0  0  0  0  0  0  0  0  0  0  0
  -18.6223    1.1864    2.3025 C   0  0  0  0  0  0  0  0  0  0  0  0
  -18.8111    0.1299    3.2295 C   0  0  0  0  0  0  0  0  0  0  0  0
  -17.9850   -1.0321    3.2346 C   0  0  0  0  0  0  0  0  0  0  0  0
  -18.1916   -2.1477    4.2284 C   0  0  0  0  0  0  0  0  0  0  0  0
  -17.5477   -2.1157    5.2261 O   0  0  0  0  0  0  0  0  0  0  0  0
  -19.1200   -3.2261    4.0377 N   0  0  0  0  0  0  0  0  0  0  0  0
  -19.6624   -3.2695    3.2172 H   0  0  0  0  0  0  0  0  0  0  0  0
  -19.2143   -3.9223    4.7274 H   0  0  0  0  0  0  0  0  0  0  0  0
  -18.5845    4.2248   -0.6104 C   0  0  0  0  0  0  0  0  0  0  0  0
  -18.2773    4.6740   -2.0487 C   0  0  0  0  0  0  0  0  0  0  0  0
  -16.9106    5.3510   -2.0190 C   0  0  0  0  0  0  0  0  0  0  0  0
  -19.2631    5.7212   -2.4616 C   0  0  0  0  0  0  0  0  0  0  0  0
 16 15  1  0  0  0
 16 17  1  0  0  0
 15 14  1  0  0  0
 15 11  1  0  0  0
 17 10  1  0  0  0
 14 13  1  0  0  0
 11 10  1  0  0  0
 11 12  1  0  0  0
 10  9  1  0  0  0
 13 12  1  0  0  0
  9  6  1  0  0  0
  6  5  2  0  0  0
  6  7  1  0  0  0
 21 22  2  0  0  0
 21 20  1  0  0  0
  7  4  1  0  0  0
 22 23  1  0  0  0
 20 19  2  0  0  0
 23 24  2  0  0  0
 19 24  1  0  0  0
 19 18  1  0  0  0
  4 18  1  0  0  0
  4  1  1  0  0  0
  2  1  1  0  0  0
 44 42  1  0  0  0
  1 25  1  0  0  0
 42 43  1  0  0  0
 42 41  1  0  0  0
 25 26  1  0  0  0
 26 41  1  0  0  0
 26 27  1  0  0  0
 29 27  2  0  0  0
 28 27  2  0  0  0
 27 30  1  0  0  0
 30 31  2  0  0  0
 30 33  1  0  0  0
 31 32  1  0  0  0
 33 34  2  0  0  0
 32 35  2  0  0  0
 34 35  1  0  0  0
 35 36  1  0  0  0
 36 37  2  0  0  0
 36 38  1  0  0  0
  7  8  1  0  0  0
  2  3  1  0  0  0
 38 39  1  0  0  0
 38 40  1  0  0  0
M  END
> <minimizedAffinity>
-10.06494

$$$$
4I8Z_G08_A_101


 44 47  0  0  0  0  0  0  0  0999 V2000
  -19.2154   -0.6452    1.2449 C   0  0  0  0  0  0  0  0  0  0  0  0
  -20.5328   -0.4258    1.6001 O   0  0  0  0  0  0  0  0  0  0  0  0
  -20.6034   -0.3775    2.5663 H   0  0  0  0  0  0  0  0  0  0  0  0
  -18.4128    0.5639    1.7374 C   0  0  0  0  0  0  0  0  0  0  0  0
  -16.2916    1.8114    0.3864 O   0  0  0  0  0  0  0  0  0  0  0  0
  -17.4331    2.2503    0.2614 C   0  0  0  0  0  0  0  0  0  0  0  0
  -18.5572    1.5902    0.7283 N   0  0  0  0  0  0  0  0  0  0  0  0
  -19.4480    1.8177    0.3761 H   0  0  0  0  0  0  0  0  0  0  0  0
  -17.6662    3.2350   -0.6910 O   0  0  0  0  0  0  0  0  0  0  0  0
  -18.7387    3.2017   -1.5466 C   0  0  0  0  0  0  0  0  0  0  0  0
  -18.3808    3.8620   -2.8230 C   0  0  0  0  0  0  0  0  0  0  0  0
  -17.0187    3.7753   -3.4225 C   0  0  0  0  0  0  0  0  0  0  0  0
  -16.2999    4.9114   -2.6058 C   0  0  0  0  0  0  0  0  0  0  0  0
  -17.3159    5.9221   -2.6073 O   0  0  0  0  0  0  0  0  0  0  0  0
  -18.5430    5.2680   -2.5032 C   0  0  0  0  0  0  0  0  0  0  0  0
  -19.2220    5.3537   -1.2843 O   0  0  0  0  0  0  0  0  0  0  0  0
  -19.8134    4.1003   -1.0047 C   0  0  0  0  0  0  0  0  0  0  0  0
  -18.9770    1.0672    3.0621 C   0  0  0  0  0  0  0  0  0  0  0  0
  -18.2332    0.3763    4.2046 C   0  0  0  0  0  0  0  0  0  0  0  0
  -18.7726    0.3026    5.5121 C   0  0  0  0  0  0  0  0  0  0  0  0
  -18.0737   -0.3272    6.5351 C   0  0  0  0  0  0  0  0  0  0  0  0
  -16.8321   -0.8705    6.2731 C   0  0  0  0  0  0  0  0  0  0  0  0
  -16.2814   -0.8248    4.9975 C   0  0  0  0  0  0  0  0  0  0  0  0
  -16.9854   -0.1995    3.9599 C   0  0  0  0  0  0  0  0  0  0  0  0
  -18.6715   -2.0332    1.6085 C   0  0  0  0  0  0  0  0  0  0  0  0
  -18.4604   -2.7652    0.3311 N   0  0  0  0  0  0  0  0  0  0  0  0
  -17.0809   -2.3404   -0.5370 S   0  0  0  0  0  0  0  0  0  0  0  0
  -16.3602   -3.5405   -0.9273 O   0  0  0  0  0  0  0  0  0  0  0  0
  -16.2838   -1.5281    0.3333 O   0  0  0  0  0  0  0  0  0  0  0  0
  -17.4975   -1.4176   -2.0126 C   0  0  0  0  0  0  0  0  0  0  0  0
  -18.4436   -2.0092   -2.8421 C   0  0  0  0  0  0  0  0  0  0  0  0
  -18.8178   -1.4015   -4.0337 C   0  0  0  0  0  0  0  0  0  0  0  0
  -16.7866   -0.2444   -2.2775 C   0  0  0  0  0  0  0  0  0  0  0  0
  -17.1889    0.3660   -3.4928 C   0  0  0  0  0  0  0  0  0  0  0  0
  -18.1742   -0.2148   -4.3442 C   0  0  0  0  0  0  0  0  0  0  0  0
  -18.5982    0.4456   -5.6322 C   0  0  0  0  0  0  0  0  0  0  0  0
  -18.6840    1.6303   -5.6352 O   0  0  0  0  0  0  0  0  0  0  0  0
  -18.8904   -0.2731   -6.8403 N   0  0  0  0  0  0  0  0  0  0  0  0
  -18.8246   -1.2553   -6.8569 H   0  0  0  0  0  0  0  0  0  0  0  0
  -19.1564    0.2163   -7.6520 H   0  0  0  0  0  0  0  0  0  0  0  0
  -18.6204   -4.2397    0.3752 C   0  0  0  0  0  0  0  0  0  0  0  0
  -18.3005   -4.7682    1.7835 C   0  0  0  0  0  0  0  0  0  0  0  0
  -17.0017   -5.5609    1.6746 C   0  0  0  0  0  0  0  0  0  0  0  0
  -19.3594   -5.7397    2.2001 C   0  0  0  0  0  0  0  0  0  0  0  0
 16 15  1  0  0  0
 16 17  1  0  0  0
 15 14  1  0  0  0
 15 11  1  0  0  0
 17 10  1  0  0  0
 14 13  1  0  0  0
 11 10  1  0  0  0
 11 12  1  0  0  0
 10  9  1  0  0  0
 13 12  1  0  0  0
  9  6  1  0  0  0
  6  5  2  0  0  0
  6  7  1  0  0  0
 21 22  2  0  0  0
 21 20  1  0  0  0
  7  4  1  0  0  0
 22 23  1  0  0  0
 20 19  2  0  0  0
 23 24  2  0  0  0
 19 24  1  0  0  0
 19 18  1  0  0  0
  4 18  1  0  0  0
  4  1  1  0  0  0
  2  1  1  0  0  0
 44 42  1  0  0  0
  1 25  1  0  0  0
 42 43  1  0  0  0
 42 41  1  0  0  0
 25 26  1  0  0  0
 26 41  1  0  0  0
 26 27  1  0  0  0
 29 27  2  0  0  0
 28 27  2  0  0  0
 27 30  1  0  0  0
 30 31  2  0  0  0
 30 33  1  0  0  0
 31 32  1  0  0  0
 33 34  2  0  0  0
 32 35  2  0  0  0
 34 35  1  0  0  0
 35 36  1  0  0  0
 36 37  2  0  0  0
 36 38  1  0  0  0
  7  8  1  0  0  0
  2  3  1  0  0  0
 38 39  1  0  0  0
 38 40  1  0  0  0
M  END
> <minimizedAffinity>
-9.98862

$$$$
4I8Z_G08_A_101


 44 47  0  0  0  0  0  0  0  0999 V2000
  -16.5834   -0.0006   -0.1009 C   0  0  0  0  0  0  0  0  0  0  0  0
  -15.2916    0.2865    0.2973 O   0  0  0  0  0  0  0  0  0  0  0  0
  -15.0929    1.2161    0.1042 H   0  0  0  0  0  0  0  0  0  0  0  0
  -17.5152    0.8855    0.7329 C   0  0  0  0  0  0  0  0  0  0  0  0
  -19.9157   -0.1476    1.7580 O   0  0  0  0  0  0  0  0  0  0  0  0
  -18.9262   -0.0763    2.4840 C   0  0  0  0  0  0  0  0  0  0  0  0
  -17.6604    0.2339    2.0162 N   0  0  0  0  0  0  0  0  0  0  0  0
  -16.8653    0.0127    2.5529 H   0  0  0  0  0  0  0  0  0  0  0  0
  -18.9738   -0.6813    3.7341 O   0  0  0  0  0  0  0  0  0  0  0  0
  -17.9419   -0.6054    4.6357 C   0  0  0  0  0  0  0  0  0  0  0  0
  -17.5723   -1.9662    5.0884 C   0  0  0  0  0  0  0  0  0  0  0  0
  -17.6162   -3.1553    4.1905 C   0  0  0  0  0  0  0  0  0  0  0  0
  -19.1451   -3.5090    4.2982 C   0  0  0  0  0  0  0  0  0  0  0  0
  -19.3614   -3.3250    5.7029 O   0  0  0  0  0  0  0  0  0  0  0  0
  -18.5766   -2.2424    6.0986 C   0  0  0  0  0  0  0  0  0  0  0  0
  -19.2292   -1.0416    6.3924 O   0  0  0  0  0  0  0  0  0  0  0  0
  -18.4521    0.0307    5.8971 C   0  0  0  0  0  0  0  0  0  0  0  0
  -16.8955    2.2655    0.9280 C   0  0  0  0  0  0  0  0  0  0  0  0
  -17.5269    3.2314   -0.0740 C   0  0  0  0  0  0  0  0  0  0  0  0
  -16.7560    4.1875   -0.7794 C   0  0  0  0  0  0  0  0  0  0  0  0
  -17.3553    5.0581   -1.6819 C   0  0  0  0  0  0  0  0  0  0  0  0
  -18.7205    4.9983   -1.8768 C   0  0  0  0  0  0  0  0  0  0  0  0
  -19.5024    4.0630   -1.2084 C   0  0  0  0  0  0  0  0  0  0  0  0
  -18.9026    3.1764   -0.3043 C   0  0  0  0  0  0  0  0  0  0  0  0
  -16.8052   -0.0041   -1.6193 C   0  0  0  0  0  0  0  0  0  0  0  0
  -17.9160   -0.9542   -1.8938 N   0  0  0  0  0  0  0  0  0  0  0  0
  -19.1168   -0.3958   -2.9347 S   0  0  0  0  0  0  0  0  0  0  0  0
  -20.0690    0.4137   -2.1929 O   0  0  0  0  0  0  0  0  0  0  0  0
  -19.7537   -1.5555   -3.4843 O   0  0  0  0  0  0  0  0  0  0  0  0
  -18.4263    0.5973   -4.2535 C   0  0  0  0  0  0  0  0  0  0  0  0
  -17.8395   -0.1135   -5.2945 C   0  0  0  0  0  0  0  0  0  0  0  0
  -17.2387    0.5527   -6.3549 C   0  0  0  0  0  0  0  0  0  0  0  0
  -18.4309    1.9863   -4.1028 C   0  0  0  0  0  0  0  0  0  0  0  0
  -17.8219    2.6487   -5.1989 C   0  0  0  0  0  0  0  0  0  0  0  0
  -17.2359    1.9362   -6.2860 C   0  0  0  0  0  0  0  0  0  0  0  0
  -16.5951    2.6511   -7.4493 C   0  0  0  0  0  0  0  0  0  0  0  0
  -16.8365    2.2448   -8.5391 O   0  0  0  0  0  0  0  0  0  0  0  0
  -15.7280    3.7869   -7.3099 N   0  0  0  0  0  0  0  0  0  0  0  0
  -15.5165    4.1378   -6.4147 H   0  0  0  0  0  0  0  0  0  0  0  0
  -15.3450    4.2149   -8.1095 H   0  0  0  0  0  0  0  0  0  0  0  0
  -17.5317   -2.3466   -2.2335 C   0  0  0  0  0  0  0  0  0  0  0  0
  -17.2885   -3.1599   -0.9512 C   0  0  0  0  0  0  0  0  0  0  0  0
  -16.9605   -4.5848   -1.3859 C   0  0  0  0  0  0  0  0  0  0  0  0
  -18.5590   -3.2358   -0.1645 C   0  0  0  0  0  0  0  0  0  0  0  0
 16 15  1  0  0  0
 16 17  1  0  0  0
 15 14  1  0  0  0
 15 11  1  0  0  0
 17 10  1  0  0  0
 14 13  1  0  0  0
 11 10  1  0  0  0
 11 12  1  0  0  0
 10  9  1  0  0  0
 13 12  1  0  0  0
  9  6  1  0  0  0
  6  5  2  0  0  0
  6  7  1  0  0  0
 21 22  2  0  0  0
 21 20  1  0  0  0
  7  4  1  0  0  0
 22 23  1  0  0  0
 20 19  2  0  0  0
 23 24  2  0  0  0
 19 24  1  0  0  0
 19 18  1  0  0  0
  4 18  1  0  0  0
  4  1  1  0  0  0
  2  1  1  0  0  0
 44 42  1  0  0  0
  1 25  1  0  0  0
 42 43  1  0  0  0
 42 41  1  0  0  0
 25 26  1  0  0  0
 26 41  1  0  0  0
 26 27  1  0  0  0
 29 27  2  0  0  0
 28 27  2  0  0  0
 27 30  1  0  0  0
 30 31  2  0  0  0
 30 33  1  0  0  0
 31 32  1  0  0  0
 33 34  2  0  0  0
 32 35  2  0  0  0
 34 35  1  0  0  0
 35 36  1  0  0  0
 36 37  2  0  0  0
 36 38  1  0  0  0
  7  8  1  0  0  0
  2  3  1  0  0  0
 38 39  1  0  0  0
 38 40  1  0  0  0
M  END
> <minimizedAffinity>
-9.84814

$$$$
4I8Z_G08_A_101


 44 47  0  0  0  0  0  0  0  0999 V2000
  -18.9898   -2.0327    0.7339 C   0  0  0  0  0  0  0  0  0  0  0  0
  -20.0086   -2.6033   -0.0052 O   0  0  0  0  0  0  0  0  0  0  0  0
  -19.6421   -3.2884   -0.5859 H   0  0  0  0  0  0  0  0  0  0  0  0
  -18.3906   -3.1447    1.6017 C   0  0  0  0  0  0  0  0  0  0  0  0
  -16.8681   -1.6556    3.4307 O   0  0  0  0  0  0  0  0  0  0  0  0
  -17.8652   -2.2599    3.8205 C   0  0  0  0  0  0  0  0  0  0  0  0
  -18.7774   -2.8540    2.9649 N   0  0  0  0  0  0  0  0  0  0  0  0
  -19.6824   -3.0770    3.2820 H   0  0  0  0  0  0  0  0  0  0  0  0
  -18.3138   -2.0362    5.1166 O   0  0  0  0  0  0  0  0  0  0  0  0
  -17.8173   -1.0338    5.9116 C   0  0  0  0  0  0  0  0  0  0  0  0
  -17.1129   -1.6205    7.0748 C   0  0  0  0  0  0  0  0  0  0  0  0
  -16.3273   -2.8845    6.9891 C   0  0  0  0  0  0  0  0  0  0  0  0
  -17.4939   -3.9290    7.1385 C   0  0  0  0  0  0  0  0  0  0  0  0
  -18.2666   -3.3163    8.1784 O   0  0  0  0  0  0  0  0  0  0  0  0
  -18.2065   -1.9382    7.9740 C   0  0  0  0  0  0  0  0  0  0  0  0
  -19.3549   -1.3037    7.4917 O   0  0  0  0  0  0  0  0  0  0  0  0
  -18.9692   -0.3166    6.5557 C   0  0  0  0  0  0  0  0  0  0  0  0
  -18.9567   -4.4993    1.1880 C   0  0  0  0  0  0  0  0  0  0  0  0
  -18.5043   -5.5490    2.2024 C   0  0  0  0  0  0  0  0  0  0  0  0
  -19.4313   -6.3351    2.9297 C   0  0  0  0  0  0  0  0  0  0  0  0
  -18.9940   -7.2798    3.8505 C   0  0  0  0  0  0  0  0  0  0  0  0
  -17.6401   -7.4381    4.0682 C   0  0  0  0  0  0  0  0  0  0  0  0
  -16.7055   -6.6902    3.3613 C   0  0  0  0  0  0  0  0  0  0  0  0
  -17.1400   -5.7428    2.4249 C   0  0  0  0  0  0  0  0  0  0  0  0
  -18.0053   -1.1785   -0.0758 C   0  0  0  0  0  0  0  0  0  0  0  0
  -18.5508    0.2049   -0.1028 N   0  0  0  0  0  0  0  0  0  0  0  0
  -19.5212    0.5836   -1.4264 S   0  0  0  0  0  0  0  0  0  0  0  0
  -20.8979    0.7501   -0.9914 O   0  0  0  0  0  0  0  0  0  0  0  0
  -19.4060   -0.5102   -2.3446 O   0  0  0  0  0  0  0  0  0  0  0  0
  -18.9840    2.0964   -2.2172 C   0  0  0  0  0  0  0  0  0  0  0  0
  -18.3772    1.9407   -3.4586 C   0  0  0  0  0  0  0  0  0  0  0  0
  -17.8874    3.0419   -4.1491 C   0  0  0  0  0  0  0  0  0  0  0  0
  -19.1133    3.2922   -1.5065 C   0  0  0  0  0  0  0  0  0  0  0  0
  -18.6164    4.4055   -2.2310 C   0  0  0  0  0  0  0  0  0  0  0  0
  -18.0123    4.2672   -3.5151 C   0  0  0  0  0  0  0  0  0  0  0  0
  -17.4916    5.4588   -4.2791 C   0  0  0  0  0  0  0  0  0  0  0  0
  -18.1333    6.4575   -4.2355 O   0  0  0  0  0  0  0  0  0  0  0  0
  -16.2730    5.4511   -5.0382 N   0  0  0  0  0  0  0  0  0  0  0  0
  -15.7280    4.6326   -5.0860 H   0  0  0  0  0  0  0  0  0  0  0  0
  -15.9824    6.2643   -5.5110 H   0  0  0  0  0  0  0  0  0  0  0  0
  -19.1590    0.7047    1.1550 C   0  0  0  0  0  0  0  0  0  0  0  0
  -18.0762    1.3012    2.0698 C   0  0  0  0  0  0  0  0  0  0  0  0
  -18.7418    1.5952    3.4106 C   0  0  0  0  0  0  0  0  0  0  0  0
  -17.6314    2.6183    1.5167 C   0  0  0  0  0  0  0  0  0  0  0  0
 16 15  1  0  0  0
 16 17  1  0  0  0
 15 14  1  0  0  0
 15 11  1  0  0  0
 17 10  1  0  0  0
 14 13  1  0  0  0
 11 10  1  0  0  0
 11 12  1  0  0  0
 10  9  1  0  0  0
 13 12  1  0  0  0
  9  6  1  0  0  0
  6  5  2  0  0  0
  6  7  1  0  0  0
 21 22  2  0  0  0
 21 20  1  0  0  0
  7  4  1  0  0  0
 22 23  1  0  0  0
 20 19  2  0  0  0
 23 24  2  0  0  0
 19 24  1  0  0  0
 19 18  1  0  0  0
  4 18  1  0  0  0
  4  1  1  0  0  0
  2  1  1  0  0  0
 44 42  1  0  0  0
  1 25  1  0  0  0
 42 43  1  0  0  0
 42 41  1  0  0  0
 25 26  1  0  0  0
 26 41  1  0  0  0
 26 27  1  0  0  0
 29 27  2  0  0  0
 28 27  2  0  0  0
 27 30  1  0  0  0
 30 31  2  0  0  0
 30 33  1  0  0  0
 31 32  1  0  0  0
 33 34  2  0  0  0
 32 35  2  0  0  0
 34 35  1  0  0  0
 35 36  1  0  0  0
 36 37  2  0  0  0
 36 38  1  0  0  0
  7  8  1  0  0  0
  2  3  1  0  0  0
 38 39  1  0  0  0
 38 40  1  0  0  0
M  END
> <minimizedAffinity>
-9.78320

$$$$
4I8Z_G08_A_101


 44 47  0  0  0  0  0  0  0  0999 V2000
  -18.9172   -1.8452    0.7129 C   0  0  0  0  0  0  0  0  0  0  0  0
  -19.8330   -2.4022   -0.1594 O   0  0  0  0  0  0  0  0  0  0  0  0
  -19.3800   -3.0244   -0.7498 H   0  0  0  0  0  0  0  0  0  0  0  0
  -18.3449   -2.9925    1.5523 C   0  0  0  0  0  0  0  0  0  0  0  0
  -16.8024   -1.5584    3.4083 O   0  0  0  0  0  0  0  0  0  0  0  0
  -17.8046   -2.1607    3.7880 C   0  0  0  0  0  0  0  0  0  0  0  0
  -18.7250   -2.7271    2.9225 N   0  0  0  0  0  0  0  0  0  0  0  0
  -19.6314   -2.9476    3.2373 H   0  0  0  0  0  0  0  0  0  0  0  0
  -18.2474   -1.9601    5.0898 O   0  0  0  0  0  0  0  0  0  0  0  0
  -17.7618   -0.9593    5.8935 C   0  0  0  0  0  0  0  0  0  0  0  0
  -17.1253   -1.5471    7.0946 C   0  0  0  0  0  0  0  0  0  0  0  0
  -16.3689   -2.8312    7.0606 C   0  0  0  0  0  0  0  0  0  0  0  0
  -17.5670   -3.8443    7.1706 C   0  0  0  0  0  0  0  0  0  0  0  0
  -18.3697   -3.1983    8.1666 O   0  0  0  0  0  0  0  0  0  0  0  0
  -18.2656   -1.8251    7.9476 C   0  0  0  0  0  0  0  0  0  0  0  0
  -19.3748   -1.1692    7.4060 O   0  0  0  0  0  0  0  0  0  0  0  0
  -18.9228   -0.2050    6.4759 C   0  0  0  0  0  0  0  0  0  0  0  0
  -18.9428   -4.3225    1.1048 C   0  0  0  0  0  0  0  0  0  0  0  0
  -18.5444   -5.4012    2.1115 C   0  0  0  0  0  0  0  0  0  0  0  0
  -19.5104   -6.1629    2.8136 C   0  0  0  0  0  0  0  0  0  0  0  0
  -19.1219   -7.1350    3.7278 C   0  0  0  0  0  0  0  0  0  0  0  0
  -17.7782   -7.3450    3.9638 C   0  0  0  0  0  0  0  0  0  0  0  0
  -16.8063   -6.6221    3.2817 C   0  0  0  0  0  0  0  0  0  0  0  0
  -17.1916   -5.6472    2.3520 C   0  0  0  0  0  0  0  0  0  0  0  0
  -17.9070   -0.8894    0.0645 C   0  0  0  0  0  0  0  0  0  0  0  0
  -18.6655    0.3127   -0.3733 N   0  0  0  0  0  0  0  0  0  0  0  0
  -18.2420    1.7595    0.3781 S   0  0  0  0  0  0  0  0  0  0  0  0
  -16.9832    1.5929    1.0851 O   0  0  0  0  0  0  0  0  0  0  0  0
  -19.3012    2.0719    1.2910 O   0  0  0  0  0  0  0  0  0  0  0  0
  -18.0592    3.0832   -0.8121 C   0  0  0  0  0  0  0  0  0  0  0  0
  -16.7541    3.3617   -1.2027 C   0  0  0  0  0  0  0  0  0  0  0  0
  -16.4878    4.3929   -2.0944 C   0  0  0  0  0  0  0  0  0  0  0  0
  -19.2011    3.7985   -1.1813 C   0  0  0  0  0  0  0  0  0  0  0  0
  -18.9105    4.8404   -2.0985 C   0  0  0  0  0  0  0  0  0  0  0  0
  -17.5810    5.1250   -2.5277 C   0  0  0  0  0  0  0  0  0  0  0  0
  -17.2839    6.2325   -3.5075 C   0  0  0  0  0  0  0  0  0  0  0  0
  -18.1949    6.6635   -4.1363 O   0  0  0  0  0  0  0  0  0  0  0  0
  -15.9768    6.7911   -3.7100 N   0  0  0  0  0  0  0  0  0  0  0  0
  -15.2097    6.4467   -3.1981 H   0  0  0  0  0  0  0  0  0  0  0  0
  -15.8478    7.5184   -4.3608 H   0  0  0  0  0  0  0  0  0  0  0  0
  -18.8194    0.5057   -1.8364 C   0  0  0  0  0  0  0  0  0  0  0  0
  -17.8364   -0.3981   -2.5991 C   0  0  0  0  0  0  0  0  0  0  0  0
  -17.0064    0.5112   -3.4999 C   0  0  0  0  0  0  0  0  0  0  0  0
  -18.6027   -1.3105   -3.5041 C   0  0  0  0  0  0  0  0  0  0  0  0
 16 15  1  0  0  0
 16 17  1  0  0  0
 15 14  1  0  0  0
 15 11  1  0  0  0
 17 10  1  0  0  0
 14 13  1  0  0  0
 11 10  1  0  0  0
 11 12  1  0  0  0
 10  9  1  0  0  0
 13 12  1  0  0  0
  9  6  1  0  0  0
  6  5  2  0  0  0
  6  7  1  0  0  0
 21 22  2  0  0  0
 21 20  1  0  0  0
  7  4  1  0  0  0
 22 23  1  0  0  0
 20 19  2  0  0  0
 23 24  2  0  0  0
 19 24  1  0  0  0
 19 18  1  0  0  0
  4 18  1  0  0  0
  4  1  1  0  0  0
  2  1  1  0  0  0
 44 42  1  0  0  0
  1 25  1  0  0  0
 42 43  1  0  0  0
 42 41  1  0  0  0
 25 26  1  0  0  0
 26 41  1  0  0  0
 26 27  1  0  0  0
 29 27  2  0  0  0
 28 27  2  0  0  0
 27 30  1  0  0  0
 30 31  2  0  0  0
 30 33  1  0  0  0
 31 32  1  0  0  0
 33 34  2  0  0  0
 32 35  2  0  0  0
 34 35  1  0  0  0
 35 36  1  0  0  0
 36 37  2  0  0  0
 36 38  1  0  0  0
  7  8  1  0  0  0
  2  3  1  0  0  0
 38 39  1  0  0  0
 38 40  1  0  0  0
M  END
> <minimizedAffinity>
-9.55718

$$$$
4I8Z_G08_A_101


 44 47  0  0  0  0  0  0  0  0999 V2000
  -18.1723    0.4572    2.9524 C   0  0  0  0  0  0  0  0  0  0  0  0
  -18.6916    1.5781    3.5718 O   0  0  0  0  0  0  0  0  0  0  0  0
  -19.5864    1.3848    3.8927 H   0  0  0  0  0  0  0  0  0  0  0  0
  -18.0869   -0.6421    4.0168 C   0  0  0  0  0  0  0  0  0  0  0  0
  -19.4257   -2.9164    4.9737 O   0  0  0  0  0  0  0  0  0  0  0  0
  -18.7293   -3.0014    3.9641 C   0  0  0  0  0  0  0  0  0  0  0  0
  -18.1943   -1.9020    3.3144 N   0  0  0  0  0  0  0  0  0  0  0  0
  -17.8894   -1.9772    2.3813 H   0  0  0  0  0  0  0  0  0  0  0  0
  -18.7752   -4.1752    3.2217 O   0  0  0  0  0  0  0  0  0  0  0  0
  -17.7422   -5.0783    3.1956 C   0  0  0  0  0  0  0  0  0  0  0  0
  -18.2794   -6.4554    3.2861 C   0  0  0  0  0  0  0  0  0  0  0  0
  -19.5665   -6.8629    2.6538 C   0  0  0  0  0  0  0  0  0  0  0  0
  -20.5697   -6.3732    3.7620 C   0  0  0  0  0  0  0  0  0  0  0  0
  -19.8781   -6.7872    4.9470 O   0  0  0  0  0  0  0  0  0  0  0  0
  -18.5161   -6.6051    4.7098 C   0  0  0  0  0  0  0  0  0  0  0  0
  -17.8804   -5.5452    5.3628 O   0  0  0  0  0  0  0  0  0  0  0  0
  -16.9592   -4.9493    4.4710 C   0  0  0  0  0  0  0  0  0  0  0  0
  -16.7454   -0.5731    4.7396 C   0  0  0  0  0  0  0  0  0  0  0  0
  -16.9453   -1.0246    6.1859 C   0  0  0  0  0  0  0  0  0  0  0  0
  -16.3311   -2.1945    6.6962 C   0  0  0  0  0  0  0  0  0  0  0  0
  -16.5330   -2.5863    8.0143 C   0  0  0  0  0  0  0  0  0  0  0  0
  -17.3563   -1.8330    8.8268 C   0  0  0  0  0  0  0  0  0  0  0  0
  -17.9635   -0.6734    8.3587 C   0  0  0  0  0  0  0  0  0  0  0  0
  -17.7563   -0.2682    7.0335 C   0  0  0  0  0  0  0  0  0  0  0  0
  -18.8433    0.0849    1.6236 C   0  0  0  0  0  0  0  0  0  0  0  0
  -18.0078    0.6643    0.5380 N   0  0  0  0  0  0  0  0  0  0  0  0
  -17.0326   -0.4262   -0.2967 S   0  0  0  0  0  0  0  0  0  0  0  0
  -17.3000   -1.7766    0.1689 O   0  0  0  0  0  0  0  0  0  0  0  0
  -15.6762   -0.0531   -0.0251 O   0  0  0  0  0  0  0  0  0  0  0  0
  -17.3376   -0.3573   -2.0587 C   0  0  0  0  0  0  0  0  0  0  0  0
  -16.6076    0.5986   -2.7562 C   0  0  0  0  0  0  0  0  0  0  0  0
  -16.7885    0.7679   -4.1229 C   0  0  0  0  0  0  0  0  0  0  0  0
  -18.3387   -1.1771   -2.5857 C   0  0  0  0  0  0  0  0  0  0  0  0
  -18.5021   -0.9968   -3.9829 C   0  0  0  0  0  0  0  0  0  0  0  0
  -17.7457   -0.0375   -4.7181 C   0  0  0  0  0  0  0  0  0  0  0  0
  -17.9241    0.1425   -6.2048 C   0  0  0  0  0  0  0  0  0  0  0  0
  -16.9733    0.4812   -6.8313 O   0  0  0  0  0  0  0  0  0  0  0  0
  -19.1640   -0.0801   -6.8937 N   0  0  0  0  0  0  0  0  0  0  0  0
  -19.9626   -0.3611   -6.3914 H   0  0  0  0  0  0  0  0  0  0  0  0
  -19.2154    0.0482   -7.8685 H   0  0  0  0  0  0  0  0  0  0  0  0
  -18.6876    1.5887   -0.4030 C   0  0  0  0  0  0  0  0  0  0  0  0
  -18.4765    3.0469    0.0372 C   0  0  0  0  0  0  0  0  0  0  0  0
  -18.5683    3.9067   -1.2196 C   0  0  0  0  0  0  0  0  0  0  0  0
  -17.0854    3.2088    0.5639 C   0  0  0  0  0  0  0  0  0  0  0  0
 16 15  1  0  0  0
 16 17  1  0  0  0
 15 14  1  0  0  0
 15 11  1  0  0  0
 17 10  1  0  0  0
 14 13  1  0  0  0
 11 10  1  0  0  0
 11 12  1  0  0  0
 10  9  1  0  0  0
 13 12  1  0  0  0
  9  6  1  0  0  0
  6  5  2  0  0  0
  6  7  1  0  0  0
 21 22  2  0  0  0
 21 20  1  0  0  0
  7  4  1  0  0  0
 22 23  1  0  0  0
 20 19  2  0  0  0
 23 24  2  0  0  0
 19 24  1  0  0  0
 19 18  1  0  0  0
  4 18  1  0  0  0
  4  1  1  0  0  0
  2  1  1  0  0  0
 44 42  1  0  0  0
  1 25  1  0  0  0
 42 43  1  0  0  0
 42 41  1  0  0  0
 25 26  1  0  0  0
 26 41  1  0  0  0
 26 27  1  0  0  0
 29 27  2  0  0  0
 28 27  2  0  0  0
 27 30  1  0  0  0
 30 31  2  0  0  0
 30 33  1  0  0  0
 31 32  1  0  0  0
 33 34  2  0  0  0
 32 35  2  0  0  0
 34 35  1  0  0  0
 35 36  1  0  0  0
 36 37  2  0  0  0
 36 38  1  0  0  0
  7  8  1  0  0  0
  2  3  1  0  0  0
 38 39  1  0  0  0
 38 40  1  0  0  0
M  END
> <minimizedAffinity>
-9.53924

$$$$
