4O9V_NT4_A_900


 45 48  0  0  0  0  0  0  0  0999 V2000
   17.5438    5.0623   23.0923 C   0  0  0  0  0  0  0  0  0  0  0  0
   18.5405    5.0816   24.0715 C   0  0  0  0  0  0  0  0  0  0  0  0
   18.7568    6.2401   24.8398 C   0  0  0  0  0  0  0  0  0  0  0  0
   16.8300    6.1857   22.8214 C   0  0  0  0  0  0  0  0  0  0  0  0
   17.0231    7.3351   23.5508 C   0  0  0  0  0  0  0  0  0  0  0  0
   18.0007    7.3928   24.5671 C   0  0  0  0  0  0  0  0  0  0  0  0
   19.8170    7.1870   26.7958 N   0  0  0  0  0  0  0  0  0  0  0  0
   19.8027    6.1607   25.9393 C   0  0  0  0  0  0  0  0  0  0  0  0
   20.5309    5.1968   26.0395 O   0  0  0  0  0  0  0  0  0  0  0  0
   19.1313    7.8769   26.6435 H   0  0  0  0  0  0  0  0  0  0  0  0
   20.6994    7.4222   27.9127 C   0  0  0  0  0  0  0  0  0  0  0  0
   21.6497    8.5168   27.4658 C   0  0  0  0  0  0  0  0  0  0  0  0
   22.7116    8.8611   28.5192 C   0  0  0  0  0  0  0  0  0  0  0  0
   21.1236    8.2103   30.2622 C   0  0  0  0  0  0  0  0  0  0  0  0
   21.9396    9.3893   29.7096 C   0  0  0  0  0  0  0  0  0  0  0  0
   22.8126   10.0284   30.7065 N   0  0  0  0  0  0  0  0  0  0  0  0
   20.0336    7.7550   29.2681 C   0  0  0  0  0  0  0  0  0  0  0  0
   23.4905    9.3484   31.0505 H   0  0  0  0  0  0  0  0  0  0  0  0
   22.2477   10.3689   31.4846 H   0  0  0  0  0  0  0  0  0  0  0  0
   17.2567    4.0262   22.2739 O   0  0  0  0  0  0  0  0  0  0  0  0
   18.0839    3.6516   21.2393 C   0  0  0  0  0  0  0  0  0  0  0  0
   18.8002    3.9371   18.9764 C   0  0  0  0  0  0  0  0  0  0  0  0
   18.9945    2.6022   21.4259 C   0  0  0  0  0  0  0  0  0  0  0  0
   17.9821    4.3167   20.0325 C   0  0  0  0  0  0  0  0  0  0  0  0
   19.7518    2.9092   19.1586 C   0  0  0  0  0  0  0  0  0  0  0  0
   19.8310    2.2459   20.3719 C   0  0  0  0  0  0  0  0  0  0  0  0
   21.8971    2.4816   18.0565 N   0  0  0  0  0  0  0  0  0  0  0  0
   20.5933    2.5135   17.9659 C   0  0  0  0  0  0  0  0  0  0  0  0
   20.0270    2.0501   16.8547 N   0  0  0  0  0  0  0  0  0  0  0  0
   22.3425    2.8180   18.8675 H   0  0  0  0  0  0  0  0  0  0  0  0
   19.0472    2.0621   16.7597 H   0  0  0  0  0  0  0  0  0  0  0  0
   20.5879    1.6953   16.1275 H   0  0  0  0  0  0  0  0  0  0  0  0
   16.1694    8.3225   23.0773 O   0  0  0  0  0  0  0  0  0  0  0  0
   14.0296   11.1848   25.1068 C   0  0  0  0  0  0  0  0  0  0  0  0
   14.7965    8.8714   24.9656 C   0  0  0  0  0  0  0  0  0  0  0  0
   15.4569    9.2109   23.7754 C   0  0  0  0  0  0  0  0  0  0  0  0
   15.4252   10.4994   23.2344 C   0  0  0  0  0  0  0  0  0  0  0  0
   14.7180   11.4938   23.9062 C   0  0  0  0  0  0  0  0  0  0  0  0
   14.0642    9.8688   25.6300 C   0  0  0  0  0  0  0  0  0  0  0  0
   13.2842   12.3011   25.8298 C   0  0  0  0  0  0  0  0  0  0  0  0
   12.5774   11.9845   26.9131 N   0  0  0  0  0  0  0  0  0  0  0  0
   13.3505   13.5947   25.4526 N   0  0  0  0  0  0  0  0  0  0  0  0
   12.0853   12.6836   27.4014 H   0  0  0  0  0  0  0  0  0  0  0  0
   12.5469   11.0515   27.2256 H   0  0  0  0  0  0  0  0  0  0  0  0
   13.8680   13.8488   24.6546 H   0  0  0  0  0  0  0  0  0  0  0  0
 42 40  2  0  0  0
 40 34  1  0  0  0
 40 41  1  0  0  0
 38 34  2  0  0  0
 38 37  1  0  0  0
 34 39  1  0  0  0
 37 36  2  0  0  0
 39 35  2  0  0  0
 36 33  1  0  0  0
 36 35  1  0  0  0
 33  5  1  0  0  0
  4  5  2  0  0  0
  4  1  1  0  0  0
 20  1  1  0  0  0
 20 21  1  0  0  0
  5  6  1  0  0  0
 23 21  2  0  0  0
 23 26  1  0  0  0
  1  2  2  0  0  0
 21 24  1  0  0  0
 26 25  2  0  0  0
  6  3  2  0  0  0
  2  3  1  0  0  0
 24 22  2  0  0  0
 25 22  1  0  0  0
 25 28  1  0  0  0
  3  8  1  0  0  0
 27 28  2  0  0  0
 28 29  1  0  0  0
  8  7  1  0  0  0
  8  9  2  0  0  0
  7 11  1  0  0  0
 12 11  1  0  0  0
 12 13  1  0  0  0
 11 17  1  0  0  0
 13 15  1  0  0  0
 17 14  1  0  0  0
 15 14  1  0  0  0
 15 16  1  0  0  0
  7 10  1  0  0  0
 27 30  1  0  0  0
 16 18  1  0  0  0
 16 19  1  0  0  0
 29 31  1  0  0  0
 29 32  1  0  0  0
 41 43  1  0  0  0
 41 44  1  0  0  0
 42 45  1  0  0  0
M  END
> <minimizedAffinity>
-11.24895

$$$$
4O9V_NT4_A_900


 45 48  0  0  0  0  0  0  0  0999 V2000
   18.3762    5.5052   23.0159 C   0  0  0  0  0  0  0  0  0  0  0  0
   19.1466    5.5193   24.1816 C   0  0  0  0  0  0  0  0  0  0  0  0
   18.9191    6.4945   25.1697 C   0  0  0  0  0  0  0  0  0  0  0  0
   17.4561    6.4793   22.7930 C   0  0  0  0  0  0  0  0  0  0  0  0
   17.2157    7.4496   23.7370 C   0  0  0  0  0  0  0  0  0  0  0  0
   17.9516    7.4877   24.9407 C   0  0  0  0  0  0  0  0  0  0  0  0
   20.1842    7.5611   26.9328 N   0  0  0  0  0  0  0  0  0  0  0  0
   19.7405    6.3984   26.4445 C   0  0  0  0  0  0  0  0  0  0  0  0
   19.9255    5.3311   26.9888 O   0  0  0  0  0  0  0  0  0  0  0  0
   19.9115    8.3638   26.4322 H   0  0  0  0  0  0  0  0  0  0  0  0
   21.0079    7.8008   28.0928 C   0  0  0  0  0  0  0  0  0  0  0  0
   22.0668    8.7928   27.6504 C   0  0  0  0  0  0  0  0  0  0  0  0
   23.0815    9.1240   28.7534 C   0  0  0  0  0  0  0  0  0  0  0  0
   21.3383    8.7019   30.4166 C   0  0  0  0  0  0  0  0  0  0  0  0
   22.2770    9.7810   29.8547 C   0  0  0  0  0  0  0  0  0  0  0  0
   23.1302   10.4159   30.8712 N   0  0  0  0  0  0  0  0  0  0  0  0
   20.2832    8.2659   29.3772 C   0  0  0  0  0  0  0  0  0  0  0  0
   23.7299    9.7111   31.3002 H   0  0  0  0  0  0  0  0  0  0  0  0
   22.5441   10.8450   31.5873 H   0  0  0  0  0  0  0  0  0  0  0  0
   18.5136    4.6422   21.9854 O   0  0  0  0  0  0  0  0  0  0  0  0
   17.4527    4.2614   21.1951 C   0  0  0  0  0  0  0  0  0  0  0  0
   15.5521    2.8533   20.8482 C   0  0  0  0  0  0  0  0  0  0  0  0
   17.2535    4.8851   19.9556 C   0  0  0  0  0  0  0  0  0  0  0  0
   16.6163    3.2572   21.6438 C   0  0  0  0  0  0  0  0  0  0  0  0
   15.3120    3.4985   19.6147 C   0  0  0  0  0  0  0  0  0  0  0  0
   16.1682    4.4949   19.1761 C   0  0  0  0  0  0  0  0  0  0  0  0
   13.7144    1.7761   18.9215 N   0  0  0  0  0  0  0  0  0  0  0  0
   14.1598    2.9962   18.7735 C   0  0  0  0  0  0  0  0  0  0  0  0
   13.4843    3.8219   17.9786 N   0  0  0  0  0  0  0  0  0  0  0  0
   14.1946    1.1440   19.5038 H   0  0  0  0  0  0  0  0  0  0  0  0
   13.7973    4.7463   17.8490 H   0  0  0  0  0  0  0  0  0  0  0  0
   12.6715    3.5086   17.5200 H   0  0  0  0  0  0  0  0  0  0  0  0
   16.2333    8.3096   23.2646 O   0  0  0  0  0  0  0  0  0  0  0  0
   14.0231   11.1518   25.2465 C   0  0  0  0  0  0  0  0  0  0  0  0
   14.8957    8.8728   25.1738 C   0  0  0  0  0  0  0  0  0  0  0  0
   15.5011    9.1923   23.9494 C   0  0  0  0  0  0  0  0  0  0  0  0
   15.3904   10.4540   23.3577 C   0  0  0  0  0  0  0  0  0  0  0  0
   14.6577   11.4417   24.0119 C   0  0  0  0  0  0  0  0  0  0  0  0
   14.1375    9.8620   25.8213 C   0  0  0  0  0  0  0  0  0  0  0  0
   13.2480   12.2614   25.9480 C   0  0  0  0  0  0  0  0  0  0  0  0
   13.3214   13.4924   25.4454 N   0  0  0  0  0  0  0  0  0  0  0  0
   12.4558   12.0428   27.0178 N   0  0  0  0  0  0  0  0  0  0  0  0
   12.8319   14.2300   25.8763 H   0  0  0  0  0  0  0  0  0  0  0  0
   13.8650   13.6649   24.6430 H   0  0  0  0  0  0  0  0  0  0  0  0
   12.3882   11.1397   27.4039 H   0  0  0  0  0  0  0  0  0  0  0  0
 42 40  2  0  0  0
 40 34  1  0  0  0
 40 41  1  0  0  0
 38 34  2  0  0  0
 38 37  1  0  0  0
 34 39  1  0  0  0
 37 36  2  0  0  0
 39 35  2  0  0  0
 36 33  1  0  0  0
 36 35  1  0  0  0
 33  5  1  0  0  0
  4  5  2  0  0  0
  4  1  1  0  0  0
 20  1  1  0  0  0
 20 21  1  0  0  0
  5  6  1  0  0  0
 23 21  2  0  0  0
 23 26  1  0  0  0
  1  2  2  0  0  0
 21 24  1  0  0  0
 26 25  2  0  0  0
  6  3  2  0  0  0
  2  3  1  0  0  0
 24 22  2  0  0  0
 25 22  1  0  0  0
 25 28  1  0  0  0
  3  8  1  0  0  0
 27 28  2  0  0  0
 28 29  1  0  0  0
  8  7  1  0  0  0
  8  9  2  0  0  0
  7 11  1  0  0  0
 12 11  1  0  0  0
 12 13  1  0  0  0
 11 17  1  0  0  0
 13 15  1  0  0  0
 17 14  1  0  0  0
 15 14  1  0  0  0
 15 16  1  0  0  0
  7 10  1  0  0  0
 27 30  1  0  0  0
 16 18  1  0  0  0
 16 19  1  0  0  0
 29 31  1  0  0  0
 29 32  1  0  0  0
 41 43  1  0  0  0
 41 44  1  0  0  0
 42 45  1  0  0  0
M  END
> <minimizedAffinity>
-11.11442

$$$$
4O9V_NT4_A_900


 45 48  0  0  0  0  0  0  0  0999 V2000
   15.9403    6.8193   24.3160 C   0  0  0  0  0  0  0  0  0  0  0  0
   17.0108    6.6955   25.2056 C   0  0  0  0  0  0  0  0  0  0  0  0
   18.2215    6.1180   24.7816 C   0  0  0  0  0  0  0  0  0  0  0  0
   16.0339    6.3121   23.0594 C   0  0  0  0  0  0  0  0  0  0  0  0
   17.2017    5.7361   22.6181 C   0  0  0  0  0  0  0  0  0  0  0  0
   18.3175    5.6132   23.4736 C   0  0  0  0  0  0  0  0  0  0  0  0
   19.2515    6.9323   26.8120 N   0  0  0  0  0  0  0  0  0  0  0  0
   19.3666    6.0902   25.7801 C   0  0  0  0  0  0  0  0  0  0  0  0
   20.2875    5.3124   25.6520 O   0  0  0  0  0  0  0  0  0  0  0  0
   18.4244    7.4657   26.8347 H   0  0  0  0  0  0  0  0  0  0  0  0
   20.1734    7.1665   27.8968 C   0  0  0  0  0  0  0  0  0  0  0  0
   21.1981    8.1499   27.3639 C   0  0  0  0  0  0  0  0  0  0  0  0
   22.3060    8.4741   28.3754 C   0  0  0  0  0  0  0  0  0  0  0  0
   20.7086    8.0667   30.1825 C   0  0  0  0  0  0  0  0  0  0  0  0
   21.6039    9.1381   29.5407 C   0  0  0  0  0  0  0  0  0  0  0  0
   22.5458    9.7672   30.4795 N   0  0  0  0  0  0  0  0  0  0  0  0
   19.5650    7.6381   29.2379 C   0  0  0  0  0  0  0  0  0  0  0  0
   23.1747    9.0581   30.8565 H   0  0  0  0  0  0  0  0  0  0  0  0
   22.0265   10.2013   31.2425 H   0  0  0  0  0  0  0  0  0  0  0  0
   14.7230    7.3284   24.6067 O   0  0  0  0  0  0  0  0  0  0  0  0
   14.5003    8.6807   24.7365 C   0  0  0  0  0  0  0  0  0  0  0  0
   14.7605   10.8964   23.8774 C   0  0  0  0  0  0  0  0  0  0  0  0
   13.8253    9.1661   25.8652 C   0  0  0  0  0  0  0  0  0  0  0  0
   14.9650    9.5288   23.7496 C   0  0  0  0  0  0  0  0  0  0  0  0
   14.0466   11.3998   24.9875 C   0  0  0  0  0  0  0  0  0  0  0  0
   13.5989   10.5354   25.9728 C   0  0  0  0  0  0  0  0  0  0  0  0
   13.0247   13.4136   25.9361 N   0  0  0  0  0  0  0  0  0  0  0  0
   13.8821   12.8994   25.0937 C   0  0  0  0  0  0  0  0  0  0  0  0
   14.7024   13.7235   24.4473 N   0  0  0  0  0  0  0  0  0  0  0  0
   12.4057   12.8270   26.4281 H   0  0  0  0  0  0  0  0  0  0  0  0
   15.3580   13.3635   23.8072 H   0  0  0  0  0  0  0  0  0  0  0  0
   14.6539   14.6934   24.6091 H   0  0  0  0  0  0  0  0  0  0  0  0
   17.0311    5.3095   21.3078 O   0  0  0  0  0  0  0  0  0  0  0  0
   19.5469    3.2294   18.8109 C   0  0  0  0  0  0  0  0  0  0  0  0
   18.7993    3.7046   21.0859 C   0  0  0  0  0  0  0  0  0  0  0  0
   17.8749    4.6101   20.5442 C   0  0  0  0  0  0  0  0  0  0  0  0
   17.7621    4.8446   19.1708 C   0  0  0  0  0  0  0  0  0  0  0  0
   18.5933    4.1453   18.2986 C   0  0  0  0  0  0  0  0  0  0  0  0
   19.6530    3.0173   20.2076 C   0  0  0  0  0  0  0  0  0  0  0  0
   20.4254    2.4632   17.8284 C   0  0  0  0  0  0  0  0  0  0  0  0
   19.8491    1.9390   16.7484 N   0  0  0  0  0  0  0  0  0  0  0  0
   21.7603    2.3376   17.9780 N   0  0  0  0  0  0  0  0  0  0  0  0
   20.3902    1.4386   16.0956 H   0  0  0  0  0  0  0  0  0  0  0  0
   18.8820    2.0517   16.6027 H   0  0  0  0  0  0  0  0  0  0  0  0
   22.2049    2.7183   18.7696 H   0  0  0  0  0  0  0  0  0  0  0  0
 42 40  2  0  0  0
 40 34  1  0  0  0
 40 41  1  0  0  0
 38 34  2  0  0  0
 38 37  1  0  0  0
 34 39  1  0  0  0
 37 36  2  0  0  0
 39 35  2  0  0  0
 36 33  1  0  0  0
 36 35  1  0  0  0
 33  5  1  0  0  0
  4  5  2  0  0  0
  4  1  1  0  0  0
 20  1  1  0  0  0
 20 21  1  0  0  0
  5  6  1  0  0  0
 23 21  2  0  0  0
 23 26  1  0  0  0
  1  2  2  0  0  0
 21 24  1  0  0  0
 26 25  2  0  0  0
  6  3  2  0  0  0
  2  3  1  0  0  0
 24 22  2  0  0  0
 25 22  1  0  0  0
 25 28  1  0  0  0
  3  8  1  0  0  0
 27 28  2  0  0  0
 28 29  1  0  0  0
  8  7  1  0  0  0
  8  9  2  0  0  0
  7 11  1  0  0  0
 12 11  1  0  0  0
 12 13  1  0  0  0
 11 17  1  0  0  0
 13 15  1  0  0  0
 17 14  1  0  0  0
 15 14  1  0  0  0
 15 16  1  0  0  0
  7 10  1  0  0  0
 27 30  1  0  0  0
 16 18  1  0  0  0
 16 19  1  0  0  0
 29 31  1  0  0  0
 29 32  1  0  0  0
 41 43  1  0  0  0
 41 44  1  0  0  0
 42 45  1  0  0  0
M  END
> <minimizedAffinity>
-10.67305

$$$$
4O9V_NT4_A_900


 45 48  0  0  0  0  0  0  0  0999 V2000
   17.8463    6.5065   25.7475 C   0  0  0  0  0  0  0  0  0  0  0  0
   18.3629    5.3535   25.1507 C   0  0  0  0  0  0  0  0  0  0  0  0
   18.1886    5.1297   23.7727 C   0  0  0  0  0  0  0  0  0  0  0  0
   17.1050    7.3802   25.0180 C   0  0  0  0  0  0  0  0  0  0  0  0
   16.9117    7.1853   23.6707 C   0  0  0  0  0  0  0  0  0  0  0  0
   17.4372    6.0483   23.0202 C   0  0  0  0  0  0  0  0  0  0  0  0
   19.2987    4.0284   21.9285 N   0  0  0  0  0  0  0  0  0  0  0  0
   18.8466    3.8952   23.1794 C   0  0  0  0  0  0  0  0  0  0  0  0
   18.9834    2.8848   23.8352 O   0  0  0  0  0  0  0  0  0  0  0  0
   19.1836    4.9204   21.5280 H   0  0  0  0  0  0  0  0  0  0  0  0
   19.9321    3.0442   21.0848 C   0  0  0  0  0  0  0  0  0  0  0  0
   19.4360    3.3236   19.6788 C   0  0  0  0  0  0  0  0  0  0  0  0
   19.9666    2.3240   18.6420 C   0  0  0  0  0  0  0  0  0  0  0  0
   21.9734    2.0426   20.0120 C   0  0  0  0  0  0  0  0  0  0  0  0
   21.4691    2.5098   18.6377 C   0  0  0  0  0  0  0  0  0  0  0  0
   22.1157    1.8311   17.5039 N   0  0  0  0  0  0  0  0  0  0  0  0
   21.4752    2.9641   21.1462 C   0  0  0  0  0  0  0  0  0  0  0  0
   21.9247    0.8303   17.5530 H   0  0  0  0  0  0  0  0  0  0  0  0
   23.1228    1.9873   17.5436 H   0  0  0  0  0  0  0  0  0  0  0  0
   17.9227    6.8225   27.0589 O   0  0  0  0  0  0  0  0  0  0  0  0
   19.0417    7.4006   27.6148 C   0  0  0  0  0  0  0  0  0  0  0  0
   20.1056    8.4223   29.4962 C   0  0  0  0  0  0  0  0  0  0  0  0
   20.1973    7.5603   26.8375 C   0  0  0  0  0  0  0  0  0  0  0  0
   18.9883    7.8231   28.9293 C   0  0  0  0  0  0  0  0  0  0  0  0
   21.2918    8.5545   28.7407 C   0  0  0  0  0  0  0  0  0  0  0  0
   21.3225    8.1359   27.4208 C   0  0  0  0  0  0  0  0  0  0  0  0
   23.6235    9.3029   28.7893 N   0  0  0  0  0  0  0  0  0  0  0  0
   22.4671    9.2445   29.3963 C   0  0  0  0  0  0  0  0  0  0  0  0
   22.3130    9.9294   30.5264 N   0  0  0  0  0  0  0  0  0  0  0  0
   23.7653    8.8060   27.9513 H   0  0  0  0  0  0  0  0  0  0  0  0
   21.4527    9.9033   31.0043 H   0  0  0  0  0  0  0  0  0  0  0  0
   23.0592   10.4623   30.8847 H   0  0  0  0  0  0  0  0  0  0  0  0
   16.1303    8.2180   23.1698 O   0  0  0  0  0  0  0  0  0  0  0  0
   14.0072   11.1371   25.1349 C   0  0  0  0  0  0  0  0  0  0  0  0
   14.6568    8.7893   24.9736 C   0  0  0  0  0  0  0  0  0  0  0  0
   15.4183    9.1248   23.8443 C   0  0  0  0  0  0  0  0  0  0  0  0
   15.4949   10.4278   23.3440 C   0  0  0  0  0  0  0  0  0  0  0  0
   14.7957   11.4409   23.9961 C   0  0  0  0  0  0  0  0  0  0  0  0
   13.9333    9.8070   25.6167 C   0  0  0  0  0  0  0  0  0  0  0  0
   13.2729   12.2725   25.8392 C   0  0  0  0  0  0  0  0  0  0  0  0
   12.5353   11.9754   26.9073 N   0  0  0  0  0  0  0  0  0  0  0  0
   13.3780   13.5632   25.4610 N   0  0  0  0  0  0  0  0  0  0  0  0
   12.0494   12.6871   27.3834 H   0  0  0  0  0  0  0  0  0  0  0  0
   12.4758   11.0441   27.2210 H   0  0  0  0  0  0  0  0  0  0  0  0
   13.9187   13.8031   24.6740 H   0  0  0  0  0  0  0  0  0  0  0  0
 42 40  2  0  0  0
 40 34  1  0  0  0
 40 41  1  0  0  0
 38 34  2  0  0  0
 38 37  1  0  0  0
 34 39  1  0  0  0
 37 36  2  0  0  0
 39 35  2  0  0  0
 36 33  1  0  0  0
 36 35  1  0  0  0
 33  5  1  0  0  0
  4  5  2  0  0  0
  4  1  1  0  0  0
 20  1  1  0  0  0
 20 21  1  0  0  0
  5  6  1  0  0  0
 23 21  2  0  0  0
 23 26  1  0  0  0
  1  2  2  0  0  0
 21 24  1  0  0  0
 26 25  2  0  0  0
  6  3  2  0  0  0
  2  3  1  0  0  0
 24 22  2  0  0  0
 25 22  1  0  0  0
 25 28  1  0  0  0
  3  8  1  0  0  0
 27 28  2  0  0  0
 28 29  1  0  0  0
  8  7  1  0  0  0
  8  9  2  0  0  0
  7 11  1  0  0  0
 12 11  1  0  0  0
 12 13  1  0  0  0
 11 17  1  0  0  0
 13 15  1  0  0  0
 17 14  1  0  0  0
 15 14  1  0  0  0
 15 16  1  0  0  0
  7 10  1  0  0  0
 27 30  1  0  0  0
 16 18  1  0  0  0
 16 19  1  0  0  0
 29 31  1  0  0  0
 29 32  1  0  0  0
 41 43  1  0  0  0
 41 44  1  0  0  0
 42 45  1  0  0  0
M  END
> <minimizedAffinity>
-10.43944

$$$$
4O9V_NT4_A_900


 45 48  0  0  0  0  0  0  0  0999 V2000
   15.9646    6.6449   24.5414 C   0  0  0  0  0  0  0  0  0  0  0  0
   16.6709    5.9949   23.5259 C   0  0  0  0  0  0  0  0  0  0  0  0
   17.9460    5.4580   23.7812 C   0  0  0  0  0  0  0  0  0  0  0  0
   16.5359    6.8321   25.7594 C   0  0  0  0  0  0  0  0  0  0  0  0
   17.7833    6.3248   26.0370 C   0  0  0  0  0  0  0  0  0  0  0  0
   18.5226    5.6385   25.0500 C   0  0  0  0  0  0  0  0  0  0  0  0
   17.7924    4.1073   21.7817 N   0  0  0  0  0  0  0  0  0  0  0  0
   18.6189    4.6958   22.6520 C   0  0  0  0  0  0  0  0  0  0  0  0
   19.8262    4.6790   22.5431 O   0  0  0  0  0  0  0  0  0  0  0  0
   16.8320    4.2495   21.9451 H   0  0  0  0  0  0  0  0  0  0  0  0
   18.1148    3.2922   20.6357 C   0  0  0  0  0  0  0  0  0  0  0  0
   18.5543    4.2580   19.5516 C   0  0  0  0  0  0  0  0  0  0  0  0
   18.8841    3.5641   18.2229 C   0  0  0  0  0  0  0  0  0  0  0  0
   19.5398    1.5720   19.4818 C   0  0  0  0  0  0  0  0  0  0  0  0
   20.0578    2.6566   18.5244 C   0  0  0  0  0  0  0  0  0  0  0  0
   20.6840    2.1242   17.3044 N   0  0  0  0  0  0  0  0  0  0  0  0
   19.1472    2.1617   20.8536 C   0  0  0  0  0  0  0  0  0  0  0  0
   19.9978    1.5831   16.7783 H   0  0  0  0  0  0  0  0  0  0  0  0
   21.4679    1.5233   17.5590 H   0  0  0  0  0  0  0  0  0  0  0  0
   14.7500    7.2236   24.4169 O   0  0  0  0  0  0  0  0  0  0  0  0
   14.5635    8.5820   24.5407 C   0  0  0  0  0  0  0  0  0  0  0  0
   14.9114   10.7885   23.6889 C   0  0  0  0  0  0  0  0  0  0  0  0
   13.8726    9.0877   25.6506 C   0  0  0  0  0  0  0  0  0  0  0  0
   15.0792    9.4153   23.5667 C   0  0  0  0  0  0  0  0  0  0  0  0
   14.1827   11.3133   24.7793 C   0  0  0  0  0  0  0  0  0  0  0  0
   13.6835   10.4631   25.7521 C   0  0  0  0  0  0  0  0  0  0  0  0
   13.1751   13.3566   25.6788 N   0  0  0  0  0  0  0  0  0  0  0  0
   14.0592   12.8172   24.8810 C   0  0  0  0  0  0  0  0  0  0  0  0
   14.9374   13.6163   24.2808 N   0  0  0  0  0  0  0  0  0  0  0  0
   12.5134   12.7889   26.1360 H   0  0  0  0  0  0  0  0  0  0  0  0
   15.6142   13.2369   23.6749 H   0  0  0  0  0  0  0  0  0  0  0  0
   14.9103   14.5871   24.4426 H   0  0  0  0  0  0  0  0  0  0  0  0
   18.1257    6.6499   27.3428 O   0  0  0  0  0  0  0  0  0  0  0  0
   21.3906    8.6343   28.8571 C   0  0  0  0  0  0  0  0  0  0  0  0
   20.3326    7.5097   26.9661 C   0  0  0  0  0  0  0  0  0  0  0  0
   19.2148    7.2854   27.7835 C   0  0  0  0  0  0  0  0  0  0  0  0
   19.1527    7.7125   29.1131 C   0  0  0  0  0  0  0  0  0  0  0  0
   20.2393    8.3984   29.6507 C   0  0  0  0  0  0  0  0  0  0  0  0
   21.4371    8.1807   27.5159 C   0  0  0  0  0  0  0  0  0  0  0  0
   22.5533    9.4082   29.4683 C   0  0  0  0  0  0  0  0  0  0  0  0
   22.3741    9.9711   30.6617 N   0  0  0  0  0  0  0  0  0  0  0  0
   23.7637    9.5038   28.8802 N   0  0  0  0  0  0  0  0  0  0  0  0
   23.1064   10.4773   31.0822 H   0  0  0  0  0  0  0  0  0  0  0  0
   21.5094    9.8810   31.1236 H   0  0  0  0  0  0  0  0  0  0  0  0
   23.9160    9.0943   27.9979 H   0  0  0  0  0  0  0  0  0  0  0  0
 42 40  2  0  0  0
 40 34  1  0  0  0
 40 41  1  0  0  0
 38 34  2  0  0  0
 38 37  1  0  0  0
 34 39  1  0  0  0
 37 36  2  0  0  0
 39 35  2  0  0  0
 36 33  1  0  0  0
 36 35  1  0  0  0
 33  5  1  0  0  0
  4  5  2  0  0  0
  4  1  1  0  0  0
 20  1  1  0  0  0
 20 21  1  0  0  0
  5  6  1  0  0  0
 23 21  2  0  0  0
 23 26  1  0  0  0
  1  2  2  0  0  0
 21 24  1  0  0  0
 26 25  2  0  0  0
  6  3  2  0  0  0
  2  3  1  0  0  0
 24 22  2  0  0  0
 25 22  1  0  0  0
 25 28  1  0  0  0
  3  8  1  0  0  0
 27 28  2  0  0  0
 28 29  1  0  0  0
  8  7  1  0  0  0
  8  9  2  0  0  0
  7 11  1  0  0  0
 12 11  1  0  0  0
 12 13  1  0  0  0
 11 17  1  0  0  0
 13 15  1  0  0  0
 17 14  1  0  0  0
 15 14  1  0  0  0
 15 16  1  0  0  0
  7 10  1  0  0  0
 27 30  1  0  0  0
 16 18  1  0  0  0
 16 19  1  0  0  0
 29 31  1  0  0  0
 29 32  1  0  0  0
 41 43  1  0  0  0
 41 44  1  0  0  0
 42 45  1  0  0  0
M  END
> <minimizedAffinity>
-10.42572

$$$$
4O9V_NT4_A_900


 45 48  0  0  0  0  0  0  0  0999 V2000
   15.9544    6.9556   24.2218 C   0  0  0  0  0  0  0  0  0  0  0  0
   16.9567    6.7736   25.1784 C   0  0  0  0  0  0  0  0  0  0  0  0
   18.1888    6.2008   24.8138 C   0  0  0  0  0  0  0  0  0  0  0  0
   16.1330    6.5093   22.9515 C   0  0  0  0  0  0  0  0  0  0  0  0
   17.3237    5.9395   22.5666 C   0  0  0  0  0  0  0  0  0  0  0  0
   18.3736    5.7593   23.4925 C   0  0  0  0  0  0  0  0  0  0  0  0
   19.2579    7.0971   26.7886 N   0  0  0  0  0  0  0  0  0  0  0  0
   19.2586    6.1084   25.8890 C   0  0  0  0  0  0  0  0  0  0  0  0
   20.0186    5.1650   25.9336 O   0  0  0  0  0  0  0  0  0  0  0  0
   18.5480    7.7704   26.6793 H   0  0  0  0  0  0  0  0  0  0  0  0
   20.1549    7.3127   27.8979 C   0  0  0  0  0  0  0  0  0  0  0  0
   21.2635    8.2015   27.3668 C   0  0  0  0  0  0  0  0  0  0  0  0
   22.3548    8.4912   28.4064 C   0  0  0  0  0  0  0  0  0  0  0  0
   20.6702    8.2680   30.1657 C   0  0  0  0  0  0  0  0  0  0  0  0
   21.6597    9.2488   29.5176 C   0  0  0  0  0  0  0  0  0  0  0  0
   22.6093    9.8506   30.4665 N   0  0  0  0  0  0  0  0  0  0  0  0
   19.5337    7.8794   29.1957 C   0  0  0  0  0  0  0  0  0  0  0  0
   23.1738    9.1166   30.8942 H   0  0  0  0  0  0  0  0  0  0  0  0
   22.0947   10.3501   31.1918 H   0  0  0  0  0  0  0  0  0  0  0  0
   14.7246    7.4666   24.4497 O   0  0  0  0  0  0  0  0  0  0  0  0
   14.5055    8.8152   24.6191 C   0  0  0  0  0  0  0  0  0  0  0  0
   14.7765   11.0548   23.8281 C   0  0  0  0  0  0  0  0  0  0  0  0
   13.8265    9.2686   25.7587 C   0  0  0  0  0  0  0  0  0  0  0  0
   14.9774    9.6909   23.6603 C   0  0  0  0  0  0  0  0  0  0  0  0
   14.0589   11.5269   24.9495 C   0  0  0  0  0  0  0  0  0  0  0  0
   13.6038   10.6347   25.9063 C   0  0  0  0  0  0  0  0  0  0  0  0
   13.0134   13.5145   25.9272 N   0  0  0  0  0  0  0  0  0  0  0  0
   13.8984   13.0232   25.1000 C   0  0  0  0  0  0  0  0  0  0  0  0
   14.7464   13.8631   24.5121 N   0  0  0  0  0  0  0  0  0  0  0  0
   12.3737   12.9158   26.3763 H   0  0  0  0  0  0  0  0  0  0  0  0
   15.4232   13.5203   23.8846 H   0  0  0  0  0  0  0  0  0  0  0  0
   14.6970   14.8273   24.7044 H   0  0  0  0  0  0  0  0  0  0  0  0
   17.2436    5.5799   21.2278 O   0  0  0  0  0  0  0  0  0  0  0  0
   14.9214    2.7357   19.3815 C   0  0  0  0  0  0  0  0  0  0  0  0
   16.4179    3.3282   21.2172 C   0  0  0  0  0  0  0  0  0  0  0  0
   16.5074    4.6160   20.6681 C   0  0  0  0  0  0  0  0  0  0  0  0
   15.8322    4.9895   19.5025 C   0  0  0  0  0  0  0  0  0  0  0  0
   15.0278    4.0505   18.8610 C   0  0  0  0  0  0  0  0  0  0  0  0
   15.6254    2.3752   20.5568 C   0  0  0  0  0  0  0  0  0  0  0  0
   14.0146    1.7387   18.6687 C   0  0  0  0  0  0  0  0  0  0  0  0
   12.7046    1.9774   18.6593 N   0  0  0  0  0  0  0  0  0  0  0  0
   14.4830    0.6598   18.0080 N   0  0  0  0  0  0  0  0  0  0  0  0
   12.0935    1.3519   18.2071 H   0  0  0  0  0  0  0  0  0  0  0  0
   12.3472    2.7795   19.1045 H   0  0  0  0  0  0  0  0  0  0  0  0
   15.4483    0.4663   18.0032 H   0  0  0  0  0  0  0  0  0  0  0  0
 42 40  2  0  0  0
 40 34  1  0  0  0
 40 41  1  0  0  0
 38 34  2  0  0  0
 38 37  1  0  0  0
 34 39  1  0  0  0
 37 36  2  0  0  0
 39 35  2  0  0  0
 36 33  1  0  0  0
 36 35  1  0  0  0
 33  5  1  0  0  0
  4  5  2  0  0  0
  4  1  1  0  0  0
 20  1  1  0  0  0
 20 21  1  0  0  0
  5  6  1  0  0  0
 23 21  2  0  0  0
 23 26  1  0  0  0
  1  2  2  0  0  0
 21 24  1  0  0  0
 26 25  2  0  0  0
  6  3  2  0  0  0
  2  3  1  0  0  0
 24 22  2  0  0  0
 25 22  1  0  0  0
 25 28  1  0  0  0
  3  8  1  0  0  0
 27 28  2  0  0  0
 28 29  1  0  0  0
  8  7  1  0  0  0
  8  9  2  0  0  0
  7 11  1  0  0  0
 12 11  1  0  0  0
 12 13  1  0  0  0
 11 17  1  0  0  0
 13 15  1  0  0  0
 17 14  1  0  0  0
 15 14  1  0  0  0
 15 16  1  0  0  0
  7 10  1  0  0  0
 27 30  1  0  0  0
 16 18  1  0  0  0
 16 19  1  0  0  0
 29 31  1  0  0  0
 29 32  1  0  0  0
 41 43  1  0  0  0
 41 44  1  0  0  0
 42 45  1  0  0  0
M  END
> <minimizedAffinity>
-10.41401

$$$$
4O9V_NT4_A_900


 45 48  0  0  0  0  0  0  0  0999 V2000
   17.9974    6.7457   25.6836 C   0  0  0  0  0  0  0  0  0  0  0  0
   18.7208    5.7384   25.0395 C   0  0  0  0  0  0  0  0  0  0  0  0
   18.5599    5.5227   23.6586 C   0  0  0  0  0  0  0  0  0  0  0  0
   17.0766    7.4711   24.9975 C   0  0  0  0  0  0  0  0  0  0  0  0
   16.8921    7.2790   23.6487 C   0  0  0  0  0  0  0  0  0  0  0  0
   17.6194    6.2907   22.9513 C   0  0  0  0  0  0  0  0  0  0  0  0
   20.5818    4.1968   23.6511 N   0  0  0  0  0  0  0  0  0  0  0  0
   19.4382    4.4642   23.0126 C   0  0  0  0  0  0  0  0  0  0  0  0
   19.0798    3.8818   22.0118 O   0  0  0  0  0  0  0  0  0  0  0  0
   20.7267    4.6930   24.4889 H   0  0  0  0  0  0  0  0  0  0  0  0
   21.6329    3.2805   23.2806 C   0  0  0  0  0  0  0  0  0  0  0  0
   22.5504    4.0560   22.3544 C   0  0  0  0  0  0  0  0  0  0  0  0
   23.7088    3.2113   21.8064 C   0  0  0  0  0  0  0  0  0  0  0  0
   23.6356    1.8720   23.8520 C   0  0  0  0  0  0  0  0  0  0  0  0
   24.5221    2.8109   23.0189 C   0  0  0  0  0  0  0  0  0  0  0  0
   25.8250    2.2325   22.6553 N   0  0  0  0  0  0  0  0  0  0  0  0
   22.4125    2.6111   24.4362 C   0  0  0  0  0  0  0  0  0  0  0  0
   25.6798    1.3980   22.0869 H   0  0  0  0  0  0  0  0  0  0  0  0
   26.3343    1.9822   23.5028 H   0  0  0  0  0  0  0  0  0  0  0  0
   18.0421    7.0337   27.0029 O   0  0  0  0  0  0  0  0  0  0  0  0
   19.1569    7.5747   27.6029 C   0  0  0  0  0  0  0  0  0  0  0  0
   20.1717    8.5873   29.5160 C   0  0  0  0  0  0  0  0  0  0  0  0
   20.3546    7.6697   26.8808 C   0  0  0  0  0  0  0  0  0  0  0  0
   19.0582    8.0250   28.9054 C   0  0  0  0  0  0  0  0  0  0  0  0
   21.3977    8.6540   28.8177 C   0  0  0  0  0  0  0  0  0  0  0  0
   21.4742    8.2084   27.5084 C   0  0  0  0  0  0  0  0  0  0  0  0
   23.7318    9.3889   28.9266 N   0  0  0  0  0  0  0  0  0  0  0  0
   22.5688    9.3063   29.5180 C   0  0  0  0  0  0  0  0  0  0  0  0
   22.4053    9.9366   30.6782 N   0  0  0  0  0  0  0  0  0  0  0  0
   23.8805    8.9323   28.0672 H   0  0  0  0  0  0  0  0  0  0  0  0
   21.5399    9.8913   31.1453 H   0  0  0  0  0  0  0  0  0  0  0  0
   23.1498   10.4482   31.0696 H   0  0  0  0  0  0  0  0  0  0  0  0
   15.9056    8.1456   23.1970 O   0  0  0  0  0  0  0  0  0  0  0  0
   13.9433   11.1566   25.1904 C   0  0  0  0  0  0  0  0  0  0  0  0
   14.4996    8.7848   25.0317 C   0  0  0  0  0  0  0  0  0  0  0  0
   15.2452    9.0834   23.8815 C   0  0  0  0  0  0  0  0  0  0  0  0
   15.3586   10.3791   23.3694 C   0  0  0  0  0  0  0  0  0  0  0  0
   14.7145   11.4224   24.0305 C   0  0  0  0  0  0  0  0  0  0  0  0
   13.8311    9.8335   25.6842 C   0  0  0  0  0  0  0  0  0  0  0  0
   13.2700   12.3238   25.9036 C   0  0  0  0  0  0  0  0  0  0  0  0
   12.6095   12.0728   27.0323 N   0  0  0  0  0  0  0  0  0  0  0  0
   13.3566   13.5989   25.4715 N   0  0  0  0  0  0  0  0  0  0  0  0
   12.1644   12.8059   27.5156 H   0  0  0  0  0  0  0  0  0  0  0  0
   12.5663   11.1540   27.3835 H   0  0  0  0  0  0  0  0  0  0  0  0
   13.8406   13.8048   24.6393 H   0  0  0  0  0  0  0  0  0  0  0  0
 42 40  2  0  0  0
 40 34  1  0  0  0
 40 41  1  0  0  0
 38 34  2  0  0  0
 38 37  1  0  0  0
 34 39  1  0  0  0
 37 36  2  0  0  0
 39 35  2  0  0  0
 36 33  1  0  0  0
 36 35  1  0  0  0
 33  5  1  0  0  0
  4  5  2  0  0  0
  4  1  1  0  0  0
 20  1  1  0  0  0
 20 21  1  0  0  0
  5  6  1  0  0  0
 23 21  2  0  0  0
 23 26  1  0  0  0
  1  2  2  0  0  0
 21 24  1  0  0  0
 26 25  2  0  0  0
  6  3  2  0  0  0
  2  3  1  0  0  0
 24 22  2  0  0  0
 25 22  1  0  0  0
 25 28  1  0  0  0
  3  8  1  0  0  0
 27 28  2  0  0  0
 28 29  1  0  0  0
  8  7  1  0  0  0
  8  9  2  0  0  0
  7 11  1  0  0  0
 12 11  1  0  0  0
 12 13  1  0  0  0
 11 17  1  0  0  0
 13 15  1  0  0  0
 17 14  1  0  0  0
 15 14  1  0  0  0
 15 16  1  0  0  0
  7 10  1  0  0  0
 27 30  1  0  0  0
 16 18  1  0  0  0
 16 19  1  0  0  0
 29 31  1  0  0  0
 29 32  1  0  0  0
 41 43  1  0  0  0
 41 44  1  0  0  0
 42 45  1  0  0  0
M  END
> <minimizedAffinity>
-10.41135

$$$$
4O9V_NT4_A_900


 45 48  0  0  0  0  0  0  0  0999 V2000
   15.9436    6.6982   24.6288 C   0  0  0  0  0  0  0  0  0  0  0  0
   16.6536    6.0750   23.5992 C   0  0  0  0  0  0  0  0  0  0  0  0
   17.9415    5.5610   23.8366 C   0  0  0  0  0  0  0  0  0  0  0  0
   16.5221    6.8821   25.8439 C   0  0  0  0  0  0  0  0  0  0  0  0
   17.7819    6.3968   26.1043 C   0  0  0  0  0  0  0  0  0  0  0  0
   18.5259    5.7377   25.1023 C   0  0  0  0  0  0  0  0  0  0  0  0
   19.8218    4.3123   22.9697 N   0  0  0  0  0  0  0  0  0  0  0  0
   18.6194    4.8264   22.6921 C   0  0  0  0  0  0  0  0  0  0  0  0
   18.0642    4.6881   21.6234 O   0  0  0  0  0  0  0  0  0  0  0  0
   20.1345    4.4385   23.8946 H   0  0  0  0  0  0  0  0  0  0  0  0
   20.7240    3.5978   22.0995 C   0  0  0  0  0  0  0  0  0  0  0  0
   22.1185    3.8880   22.6213 C   0  0  0  0  0  0  0  0  0  0  0  0
   23.2256    3.2493   21.7715 C   0  0  0  0  0  0  0  0  0  0  0  0
   21.6690    1.4585   21.1769 C   0  0  0  0  0  0  0  0  0  0  0  0
   23.0031    1.7557   21.8793 C   0  0  0  0  0  0  0  0  0  0  0  0
   24.1377    0.9796   21.3553 N   0  0  0  0  0  0  0  0  0  0  0  0
   20.4752    2.0808   21.9326 C   0  0  0  0  0  0  0  0  0  0  0  0
   24.2774    1.2044   20.3702 H   0  0  0  0  0  0  0  0  0  0  0  0
   23.9417   -0.0167   21.4521 H   0  0  0  0  0  0  0  0  0  0  0  0
   14.7165    7.2537   24.5222 O   0  0  0  0  0  0  0  0  0  0  0  0
   14.5049    8.6074   24.6569 C   0  0  0  0  0  0  0  0  0  0  0  0
   14.7872   10.8243   23.8080 C   0  0  0  0  0  0  0  0  0  0  0  0
   13.8297    9.0938   25.7850 C   0  0  0  0  0  0  0  0  0  0  0  0
   14.9805    9.4555   23.6753 C   0  0  0  0  0  0  0  0  0  0  0  0
   14.0734   11.3291   24.9175 C   0  0  0  0  0  0  0  0  0  0  0  0
   13.6146   10.4645   25.8975 C   0  0  0  0  0  0  0  0  0  0  0  0
   13.0317   13.3468   25.8359 N   0  0  0  0  0  0  0  0  0  0  0  0
   13.9212   12.8296   25.0294 C   0  0  0  0  0  0  0  0  0  0  0  0
   14.7800   13.6494   24.4289 N   0  0  0  0  0  0  0  0  0  0  0  0
   12.3840   12.7634   26.2935 H   0  0  0  0  0  0  0  0  0  0  0  0
   15.4603   13.2870   23.8166 H   0  0  0  0  0  0  0  0  0  0  0  0
   14.7350   14.6184   24.5969 H   0  0  0  0  0  0  0  0  0  0  0  0
   18.1295    6.7128   27.4109 O   0  0  0  0  0  0  0  0  0  0  0  0
   21.3393    8.7954   28.9112 C   0  0  0  0  0  0  0  0  0  0  0  0
   20.3467    7.5558   27.0569 C   0  0  0  0  0  0  0  0  0  0  0  0
   19.2025    7.3773   27.8486 C   0  0  0  0  0  0  0  0  0  0  0  0
   19.0952    7.8832   29.1473 C   0  0  0  0  0  0  0  0  0  0  0  0
   20.1624    8.6038   29.6787 C   0  0  0  0  0  0  0  0  0  0  0  0
   21.4313    8.2622   27.6019 C   0  0  0  0  0  0  0  0  0  0  0  0
   22.4799    9.6084   29.5131 C   0  0  0  0  0  0  0  0  0  0  0  0
   23.2948   10.2566   28.6830 N   0  0  0  0  0  0  0  0  0  0  0  0
   22.6677    9.7405   30.8425 N   0  0  0  0  0  0  0  0  0  0  0  0
   24.0405   10.7899   29.0418 H   0  0  0  0  0  0  0  0  0  0  0  0
   23.1515   10.2024   27.7105 H   0  0  0  0  0  0  0  0  0  0  0  0
   22.0758    9.2693   31.4725 H   0  0  0  0  0  0  0  0  0  0  0  0
 42 40  2  0  0  0
 40 34  1  0  0  0
 40 41  1  0  0  0
 38 34  2  0  0  0
 38 37  1  0  0  0
 34 39  1  0  0  0
 37 36  2  0  0  0
 39 35  2  0  0  0
 36 33  1  0  0  0
 36 35  1  0  0  0
 33  5  1  0  0  0
  4  5  2  0  0  0
  4  1  1  0  0  0
 20  1  1  0  0  0
 20 21  1  0  0  0
  5  6  1  0  0  0
 23 21  2  0  0  0
 23 26  1  0  0  0
  1  2  2  0  0  0
 21 24  1  0  0  0
 26 25  2  0  0  0
  6  3  2  0  0  0
  2  3  1  0  0  0
 24 22  2  0  0  0
 25 22  1  0  0  0
 25 28  1  0  0  0
  3  8  1  0  0  0
 27 28  2  0  0  0
 28 29  1  0  0  0
  8  7  1  0  0  0
  8  9  2  0  0  0
  7 11  1  0  0  0
 12 11  1  0  0  0
 12 13  1  0  0  0
 11 17  1  0  0  0
 13 15  1  0  0  0
 17 14  1  0  0  0
 15 14  1  0  0  0
 15 16  1  0  0  0
  7 10  1  0  0  0
 27 30  1  0  0  0
 16 18  1  0  0  0
 16 19  1  0  0  0
 29 31  1  0  0  0
 29 32  1  0  0  0
 41 43  1  0  0  0
 41 44  1  0  0  0
 42 45  1  0  0  0
M  END
> <minimizedAffinity>
-10.19301

$$$$
4O9V_NT4_A_900


 45 48  0  0  0  0  0  0  0  0999 V2000
   17.6628    6.0782   25.4111 C   0  0  0  0  0  0  0  0  0  0  0  0
   18.6116    5.2413   24.8179 C   0  0  0  0  0  0  0  0  0  0  0  0
   19.9272    5.1977   25.3142 C   0  0  0  0  0  0  0  0  0  0  0  0
   18.0235    6.9131   26.4199 C   0  0  0  0  0  0  0  0  0  0  0  0
   19.3033    6.8982   26.9222 C   0  0  0  0  0  0  0  0  0  0  0  0
   20.2881    6.0503   26.3714 C   0  0  0  0  0  0  0  0  0  0  0  0
   20.5261    3.7686   23.4581 N   0  0  0  0  0  0  0  0  0  0  0  0
   20.8814    4.2057   24.6704 C   0  0  0  0  0  0  0  0  0  0  0  0
   21.9135    3.8858   25.2200 O   0  0  0  0  0  0  0  0  0  0  0  0
   19.6965    4.1537   23.0940 H   0  0  0  0  0  0  0  0  0  0  0  0
   21.1919    2.8097   22.6102 C   0  0  0  0  0  0  0  0  0  0  0  0
   20.1621    2.3816   21.5818 C   0  0  0  0  0  0  0  0  0  0  0  0
   20.6824    1.3057   20.6188 C   0  0  0  0  0  0  0  0  0  0  0  0
   22.9369    2.2115   20.9019 C   0  0  0  0  0  0  0  0  0  0  0  0
   21.8267    1.9561   19.8707 C   0  0  0  0  0  0  0  0  0  0  0  0
   22.2624    1.1629   18.7109 N   0  0  0  0  0  0  0  0  0  0  0  0
   22.5130    3.2650   21.9479 C   0  0  0  0  0  0  0  0  0  0  0  0
   22.5764    0.2448   19.0255 H   0  0  0  0  0  0  0  0  0  0  0  0
   23.0301    1.6420   18.2403 H   0  0  0  0  0  0  0  0  0  0  0  0
   16.3805    6.2301   25.0130 O   0  0  0  0  0  0  0  0  0  0  0  0
   15.7166    7.4326   25.1049 C   0  0  0  0  0  0  0  0  0  0  0  0
   15.3471    9.6430   24.2725 C   0  0  0  0  0  0  0  0  0  0  0  0
   14.7870    7.6334   26.1347 C   0  0  0  0  0  0  0  0  0  0  0  0
   15.9987    8.4200   24.1805 C   0  0  0  0  0  0  0  0  0  0  0  0
   14.3774    9.8488   25.2789 C   0  0  0  0  0  0  0  0  0  0  0  0
   14.1168    8.8515   26.2040 C   0  0  0  0  0  0  0  0  0  0  0  0
   12.9966   11.5398   26.3896 N   0  0  0  0  0  0  0  0  0  0  0  0
   13.7231   11.2103   25.3539 C   0  0  0  0  0  0  0  0  0  0  0  0
   13.9911   12.1471   24.4480 N   0  0  0  0  0  0  0  0  0  0  0  0
   12.7831   10.8665   27.0753 H   0  0  0  0  0  0  0  0  0  0  0  0
   14.5359   11.9267   23.6582 H   0  0  0  0  0  0  0  0  0  0  0  0
   13.6445   13.0608   24.5675 H   0  0  0  0  0  0  0  0  0  0  0  0
   19.4022    7.8355   27.9418 O   0  0  0  0  0  0  0  0  0  0  0  0
   22.7112    9.4570   29.7618 C   0  0  0  0  0  0  0  0  0  0  0  0
   21.5867    8.7948   27.6985 C   0  0  0  0  0  0  0  0  0  0  0  0
   20.5037    8.3659   28.4801 C   0  0  0  0  0  0  0  0  0  0  0  0
   20.4913    8.4654   29.8744 C   0  0  0  0  0  0  0  0  0  0  0  0
   21.5937    9.0219   30.5188 C   0  0  0  0  0  0  0  0  0  0  0  0
   22.7076    9.3342   28.3505 C   0  0  0  0  0  0  0  0  0  0  0  0
   23.8920   10.0826   30.4957 C   0  0  0  0  0  0  0  0  0  0  0  0
   24.7305    9.2733   31.1400 N   0  0  0  0  0  0  0  0  0  0  0  0
   24.1514   11.4064   30.4783 N   0  0  0  0  0  0  0  0  0  0  0  0
   25.5023    9.6477   31.6231 H   0  0  0  0  0  0  0  0  0  0  0  0
   24.5786    8.3006   31.1333 H   0  0  0  0  0  0  0  0  0  0  0  0
   23.5434   12.0211   30.0073 H   0  0  0  0  0  0  0  0  0  0  0  0
 42 40  2  0  0  0
 40 34  1  0  0  0
 40 41  1  0  0  0
 38 34  2  0  0  0
 38 37  1  0  0  0
 34 39  1  0  0  0
 37 36  2  0  0  0
 39 35  2  0  0  0
 36 33  1  0  0  0
 36 35  1  0  0  0
 33  5  1  0  0  0
  4  5  2  0  0  0
  4  1  1  0  0  0
 20  1  1  0  0  0
 20 21  1  0  0  0
  5  6  1  0  0  0
 23 21  2  0  0  0
 23 26  1  0  0  0
  1  2  2  0  0  0
 21 24  1  0  0  0
 26 25  2  0  0  0
  6  3  2  0  0  0
  2  3  1  0  0  0
 24 22  2  0  0  0
 25 22  1  0  0  0
 25 28  1  0  0  0
  3  8  1  0  0  0
 27 28  2  0  0  0
 28 29  1  0  0  0
  8  7  1  0  0  0
  8  9  2  0  0  0
  7 11  1  0  0  0
 12 11  1  0  0  0
 12 13  1  0  0  0
 11 17  1  0  0  0
 13 15  1  0  0  0
 17 14  1  0  0  0
 15 14  1  0  0  0
 15 16  1  0  0  0
  7 10  1  0  0  0
 27 30  1  0  0  0
 16 18  1  0  0  0
 16 19  1  0  0  0
 29 31  1  0  0  0
 29 32  1  0  0  0
 41 43  1  0  0  0
 41 44  1  0  0  0
 42 45  1  0  0  0
M  END
> <minimizedAffinity>
-9.96943

$$$$
4O9V_NT4_A_900


 45 48  0  0  0  0  0  0  0  0999 V2000
   17.8011    6.0755   25.6575 C   0  0  0  0  0  0  0  0  0  0  0  0
   18.7466    5.2069   25.1059 C   0  0  0  0  0  0  0  0  0  0  0  0
   20.0606    5.1785   25.6076 C   0  0  0  0  0  0  0  0  0  0  0  0
   18.1641    6.9536   26.6281 C   0  0  0  0  0  0  0  0  0  0  0  0
   19.4424    6.9543   27.1343 C   0  0  0  0  0  0  0  0  0  0  0  0
   20.4237    6.0765   26.6258 C   0  0  0  0  0  0  0  0  0  0  0  0
   21.9717    3.7143   25.8320 N   0  0  0  0  0  0  0  0  0  0  0  0
   21.0107    4.1526   25.0126 C   0  0  0  0  0  0  0  0  0  0  0  0
   20.8559    3.7399   23.8834 O   0  0  0  0  0  0  0  0  0  0  0  0
   21.9504    4.0803   26.7457 H   0  0  0  0  0  0  0  0  0  0  0  0
   23.0357    2.7784   25.5609 C   0  0  0  0  0  0  0  0  0  0  0  0
   24.1648    3.5972   24.9644 C   0  0  0  0  0  0  0  0  0  0  0  0
   25.3749    2.7470   24.5539 C   0  0  0  0  0  0  0  0  0  0  0  0
   24.8032    1.1636   26.3285 C   0  0  0  0  0  0  0  0  0  0  0  0
   25.8894    2.1342   25.8390 C   0  0  0  0  0  0  0  0  0  0  0  0
   27.2128    1.5129   25.6746 N   0  0  0  0  0  0  0  0  0  0  0  0
   23.5175    1.9095   26.7458 C   0  0  0  0  0  0  0  0  0  0  0  0
   27.1561    0.7720   24.9759 H   0  0  0  0  0  0  0  0  0  0  0  0
   27.5160    1.1181   26.5649 H   0  0  0  0  0  0  0  0  0  0  0  0
   16.5209    6.2164   25.2492 O   0  0  0  0  0  0  0  0  0  0  0  0
   15.8802    7.4348   25.2360 C   0  0  0  0  0  0  0  0  0  0  0  0
   14.3247    8.9479   26.2392 C   0  0  0  0  0  0  0  0  0  0  0  0
   16.1323    8.3385   24.1944 C   0  0  0  0  0  0  0  0  0  0  0  0
   14.9891    7.7284   26.2504 C   0  0  0  0  0  0  0  0  0  0  0  0
   14.5967    9.8873   25.2199 C   0  0  0  0  0  0  0  0  0  0  0  0
   15.4841    9.5704   24.2048 C   0  0  0  0  0  0  0  0  0  0  0  0
   13.0125   11.4603   26.2277 N   0  0  0  0  0  0  0  0  0  0  0  0
   13.8204   11.1851   25.2373 C   0  0  0  0  0  0  0  0  0  0  0  0
   14.0520   12.1312   24.3311 N   0  0  0  0  0  0  0  0  0  0  0  0
   12.8233   10.7788   26.9125 H   0  0  0  0  0  0  0  0  0  0  0  0
   14.6561   11.9512   23.5749 H   0  0  0  0  0  0  0  0  0  0  0  0
   13.6193   13.0114   24.4168 H   0  0  0  0  0  0  0  0  0  0  0  0
   19.5442    7.9367   28.1103 O   0  0  0  0  0  0  0  0  0  0  0  0
   22.8632    9.6373   29.8373 C   0  0  0  0  0  0  0  0  0  0  0  0
   21.6890    8.9653   27.8051 C   0  0  0  0  0  0  0  0  0  0  0  0
   20.6469    8.4942   28.6175 C   0  0  0  0  0  0  0  0  0  0  0  0
   20.6795    8.5769   30.0126 C   0  0  0  0  0  0  0  0  0  0  0  0
   21.7862    9.1593   30.6262 C   0  0  0  0  0  0  0  0  0  0  0  0
   22.8149    9.5310   28.4255 C   0  0  0  0  0  0  0  0  0  0  0  0
   24.0491   10.2902   30.5385 C   0  0  0  0  0  0  0  0  0  0  0  0
   24.8893    9.5064   31.2116 N   0  0  0  0  0  0  0  0  0  0  0  0
   24.3113   11.6115   30.4649 N   0  0  0  0  0  0  0  0  0  0  0  0
   25.6644    9.8987   31.6748 H   0  0  0  0  0  0  0  0  0  0  0  0
   24.7353    8.5346   31.2461 H   0  0  0  0  0  0  0  0  0  0  0  0
   23.7021   12.2074   29.9719 H   0  0  0  0  0  0  0  0  0  0  0  0
 42 40  2  0  0  0
 40 34  1  0  0  0
 40 41  1  0  0  0
 38 34  2  0  0  0
 38 37  1  0  0  0
 34 39  1  0  0  0
 37 36  2  0  0  0
 39 35  2  0  0  0
 36 33  1  0  0  0
 36 35  1  0  0  0
 33  5  1  0  0  0
  4  5  2  0  0  0
  4  1  1  0  0  0
 20  1  1  0  0  0
 20 21  1  0  0  0
  5  6  1  0  0  0
 23 21  2  0  0  0
 23 26  1  0  0  0
  1  2  2  0  0  0
 21 24  1  0  0  0
 26 25  2  0  0  0
  6  3  2  0  0  0
  2  3  1  0  0  0
 24 22  2  0  0  0
 25 22  1  0  0  0
 25 28  1  0  0  0
  3  8  1  0  0  0
 27 28  2  0  0  0
 28 29  1  0  0  0
  8  7  1  0  0  0
  8  9  2  0  0  0
  7 11  1  0  0  0
 12 11  1  0  0  0
 12 13  1  0  0  0
 11 17  1  0  0  0
 13 15  1  0  0  0
 17 14  1  0  0  0
 15 14  1  0  0  0
 15 16  1  0  0  0
  7 10  1  0  0  0
 27 30  1  0  0  0
 16 18  1  0  0  0
 16 19  1  0  0  0
 29 31  1  0  0  0
 29 32  1  0  0  0
 41 43  1  0  0  0
 41 44  1  0  0  0
 42 45  1  0  0  0
M  END
> <minimizedAffinity>
-9.60322

$$$$
