4BCN_T9N_A_1299


 27 29  0  0  0  0  0  0  0  0999 V2000
   11.5397   23.9205   24.6875 C   0  0  0  0  0  0  0  0  0  0  0  0
   12.3900   24.8513   25.2288 N   0  0  0  0  0  0  0  0  0  0  0  0
   13.6698   25.1457   24.8540 C   0  0  0  0  0  0  0  0  0  0  0  0
   14.0762   24.4037   23.8398 N   0  0  0  0  0  0  0  0  0  0  0  0
   13.3294   23.4601   23.2259 C   0  0  0  0  0  0  0  0  0  0  0  0
   12.0019   23.1561   23.6019 C   0  0  0  0  0  0  0  0  0  0  0  0
    8.1074   23.1770   26.6812 C   0  0  0  0  0  0  0  0  0  0  0  0
    7.8782   24.0694   25.7088 N   0  0  0  0  0  0  0  0  0  0  0  0
    8.8650   24.2276   24.7343 C   0  0  0  0  0  0  0  0  0  0  0  0
    8.6423   24.9795   23.4586 C   0  0  0  0  0  0  0  0  0  0  0  0
   10.1502   23.7662   25.2424 C   0  0  0  0  0  0  0  0  0  0  0  0
    9.6738   22.5067   26.3795 S   0  0  0  0  0  0  0  0  0  0  0  0
    7.9680   24.1928   28.8037 C   0  0  0  0  0  0  0  0  0  0  0  0
    7.4437   23.1564   27.9598 N   0  0  0  0  0  0  0  0  0  0  0  0
    6.7343   22.5240   28.2171 H   0  0  0  0  0  0  0  0  0  0  0  0
   14.4692   26.1711   25.4555 N   0  0  0  0  0  0  0  0  0  0  0  0
   15.2613   26.4994   24.9716 H   0  0  0  0  0  0  0  0  0  0  0  0
   14.1570   26.7406   26.7437 C   0  0  0  0  0  0  0  0  0  0  0  0
   14.5278   26.1466   27.9071 C   0  0  0  0  0  0  0  0  0  0  0  0
   14.1716   26.7999   29.2314 C   0  0  0  0  0  0  0  0  0  0  0  0
   14.5256   26.2169   30.4289 O   0  0  0  0  0  0  0  0  0  0  0  0
   13.4816   27.9751   29.2482 C   0  0  0  0  0  0  0  0  0  0  0  0
   13.0797   28.6216   27.9812 C   0  0  0  0  0  0  0  0  0  0  0  0
   13.4006   28.0360   26.7795 C   0  0  0  0  0  0  0  0  0  0  0  0
   15.0001   25.4089   30.4345 H   0  0  0  0  0  0  0  0  0  0  0  0
   11.1593   22.1411   22.9130 C   0  0  0  0  0  0  0  0  0  0  0  0
   10.5019   21.3828   22.3795 N   0  0  0  0  0  0  0  0  0  0  0  0
 13 14  1  0  0  0
 14  7  1  0  0  0
  7  8  2  0  0  0
  7 12  1  0  0  0
  8  9  1  0  0  0
  9 10  1  0  0  0
  9 11  2  0  0  0
 11  1  1  0  0  0
 11 12  1  0  0  0
  1  2  1  0  0  0
  1  6  2  0  0  0
  2  3  2  0  0  0
  3 16  1  0  0  0
  3  4  1  0  0  0
 16 18  1  0  0  0
 18 19  1  0  0  0
 18 24  2  0  0  0
 19 20  2  0  0  0
 20 21  1  0  0  0
 20 22  1  0  0  0
 22 23  2  0  0  0
 23 24  1  0  0  0
  4  5  2  0  0  0
  5  6  1  0  0  0
  6 26  1  0  0  0
 26 27  3  0  0  0
 14 15  1  0  0  0
 16 17  1  0  0  0
 21 25  1  0  0  0
M  END
> <minimizedAffinity>
-0.04604

$$$$
4BCN_T9N_A_1299


 27 29  0  0  0  0  0  0  0  0999 V2000
   13.0104   25.7535   26.9827 C   0  0  0  0  0  0  0  0  0  0  0  0
   12.7516   24.4060   26.9818 N   0  0  0  0  0  0  0  0  0  0  0  0
   13.3044   23.4389   27.7717 C   0  0  0  0  0  0  0  0  0  0  0  0
   14.1914   23.9315   28.6172 N   0  0  0  0  0  0  0  0  0  0  0  0
   14.5262   25.2369   28.7109 C   0  0  0  0  0  0  0  0  0  0  0  0
   13.9524   26.2444   27.9036 C   0  0  0  0  0  0  0  0  0  0  0  0
   11.4402   27.9343   23.9682 C   0  0  0  0  0  0  0  0  0  0  0  0
   10.6411   28.0089   25.0407 N   0  0  0  0  0  0  0  0  0  0  0  0
   11.1578   27.5692   26.2606 C   0  0  0  0  0  0  0  0  0  0  0  0
   10.4905   27.8334   27.5749 C   0  0  0  0  0  0  0  0  0  0  0  0
   12.2708   26.6567   26.0342 C   0  0  0  0  0  0  0  0  0  0  0  0
   12.9310   27.2415   24.5083 S   0  0  0  0  0  0  0  0  0  0  0  0
   10.3460   26.6954   22.2877 C   0  0  0  0  0  0  0  0  0  0  0  0
   10.9917   27.9394   22.5991 N   0  0  0  0  0  0  0  0  0  0  0  0
   11.1106   28.6866   21.9692 H   0  0  0  0  0  0  0  0  0  0  0  0
   12.9366   22.0551   27.7267 N   0  0  0  0  0  0  0  0  0  0  0  0
   13.5682   21.3853   28.0756 H   0  0  0  0  0  0  0  0  0  0  0  0
   11.6752   21.6062   27.1894 C   0  0  0  0  0  0  0  0  0  0  0  0
   11.5655   21.0799   25.9425 C   0  0  0  0  0  0  0  0  0  0  0  0
   10.2084   20.6220   25.4367 C   0  0  0  0  0  0  0  0  0  0  0  0
   10.0631   20.0924   24.1727 O   0  0  0  0  0  0  0  0  0  0  0  0
    9.1082   20.7421   26.2321 C   0  0  0  0  0  0  0  0  0  0  0  0
    9.2289   21.3139   27.5898 C   0  0  0  0  0  0  0  0  0  0  0  0
   10.4548   21.7286   28.0537 C   0  0  0  0  0  0  0  0  0  0  0  0
   10.8097   20.0031   23.6135 H   0  0  0  0  0  0  0  0  0  0  0  0
   14.2903   27.6891   28.0194 C   0  0  0  0  0  0  0  0  0  0  0  0
   14.5280   28.7977   28.0985 N   0  0  0  0  0  0  0  0  0  0  0  0
 13 14  1  0  0  0
 14  7  1  0  0  0
  7  8  2  0  0  0
  7 12  1  0  0  0
  8  9  1  0  0  0
  9 10  1  0  0  0
  9 11  2  0  0  0
 11  1  1  0  0  0
 11 12  1  0  0  0
  1  2  1  0  0  0
  1  6  2  0  0  0
  2  3  2  0  0  0
  3 16  1  0  0  0
  3  4  1  0  0  0
 16 18  1  0  0  0
 18 19  1  0  0  0
 18 24  2  0  0  0
 19 20  2  0  0  0
 20 21  1  0  0  0
 20 22  1  0  0  0
 22 23  2  0  0  0
 23 24  1  0  0  0
  4  5  2  0  0  0
  5  6  1  0  0  0
  6 26  1  0  0  0
 26 27  3  0  0  0
 14 15  1  0  0  0
 16 17  1  0  0  0
 21 25  1  0  0  0
M  END
> <minimizedAffinity>
-0.03983

$$$$
4BCN_T9N_A_1299


 27 29  0  0  0  0  0  0  0  0999 V2000
    8.1766   28.1371   27.3380 C   0  0  0  0  0  0  0  0  0  0  0  0
    9.3504   28.7595   27.6807 N   0  0  0  0  0  0  0  0  0  0  0  0
    9.5291   29.8253   28.5155 C   0  0  0  0  0  0  0  0  0  0  0  0
    8.3889   30.2617   29.0193 N   0  0  0  0  0  0  0  0  0  0  0  0
    7.1754   29.7294   28.7570 C   0  0  0  0  0  0  0  0  0  0  0  0
    6.9832   28.6214   27.9017 C   0  0  0  0  0  0  0  0  0  0  0  0
    8.3323   25.4214   24.3532 C   0  0  0  0  0  0  0  0  0  0  0  0
    8.4106   24.7955   25.5349 N   0  0  0  0  0  0  0  0  0  0  0  0
    8.0791   25.5291   26.6753 C   0  0  0  0  0  0  0  0  0  0  0  0
    7.8644   24.9018   28.0181 C   0  0  0  0  0  0  0  0  0  0  0  0
    8.2016   26.9558   26.4072 C   0  0  0  0  0  0  0  0  0  0  0  0
    7.8388   27.0464   24.6848 S   0  0  0  0  0  0  0  0  0  0  0  0
   10.4176   25.1882   23.2792 C   0  0  0  0  0  0  0  0  0  0  0  0
    9.0001   25.0016   23.1476 N   0  0  0  0  0  0  0  0  0  0  0  0
    8.5503   24.6396   22.3501 H   0  0  0  0  0  0  0  0  0  0  0  0
   10.8065   30.3821   28.8482 N   0  0  0  0  0  0  0  0  0  0  0  0
   10.8481   31.3087   29.1783 H   0  0  0  0  0  0  0  0  0  0  0  0
   12.0342   29.6358   28.7175 C   0  0  0  0  0  0  0  0  0  0  0  0
   12.4566   28.7641   29.6692 C   0  0  0  0  0  0  0  0  0  0  0  0
   13.7574   28.0056   29.4696 C   0  0  0  0  0  0  0  0  0  0  0  0
   14.2172   27.1213   30.4213 O   0  0  0  0  0  0  0  0  0  0  0  0
   14.4954   28.2028   28.3409 C   0  0  0  0  0  0  0  0  0  0  0  0
   14.0341   29.1508   27.3049 C   0  0  0  0  0  0  0  0  0  0  0  0
   12.8569   29.8390   27.4791 C   0  0  0  0  0  0  0  0  0  0  0  0
   13.7215   26.9745   31.2028 H   0  0  0  0  0  0  0  0  0  0  0  0
    5.6552   28.0070   27.6302 C   0  0  0  0  0  0  0  0  0  0  0  0
    4.6436   27.5426   27.4004 N   0  0  0  0  0  0  0  0  0  0  0  0
 13 14  1  0  0  0
 14  7  1  0  0  0
  7  8  2  0  0  0
  7 12  1  0  0  0
  8  9  1  0  0  0
  9 10  1  0  0  0
  9 11  2  0  0  0
 11  1  1  0  0  0
 11 12  1  0  0  0
  1  2  1  0  0  0
  1  6  2  0  0  0
  2  3  2  0  0  0
  3 16  1  0  0  0
  3  4  1  0  0  0
 16 18  1  0  0  0
 18 19  1  0  0  0
 18 24  2  0  0  0
 19 20  2  0  0  0
 20 21  1  0  0  0
 20 22  1  0  0  0
 22 23  2  0  0  0
 23 24  1  0  0  0
  4  5  2  0  0  0
  5  6  1  0  0  0
  6 26  1  0  0  0
 26 27  3  0  0  0
 14 15  1  0  0  0
 16 17  1  0  0  0
 21 25  1  0  0  0
M  END
> <minimizedAffinity>
-0.03588

$$$$
4BCN_T9N_A_1299


 27 29  0  0  0  0  0  0  0  0999 V2000
   12.4649   28.3106   27.1023 C   0  0  0  0  0  0  0  0  0  0  0  0
   12.1559   28.7868   25.8531 N   0  0  0  0  0  0  0  0  0  0  0  0
   12.9211   29.5654   25.0326 C   0  0  0  0  0  0  0  0  0  0  0  0
   14.0901   29.8604   25.5717 N   0  0  0  0  0  0  0  0  0  0  0  0
   14.5044   29.4482   26.7895 C   0  0  0  0  0  0  0  0  0  0  0  0
   13.7225   28.6354   27.6404 C   0  0  0  0  0  0  0  0  0  0  0  0
    9.4896   26.5613   29.1989 C   0  0  0  0  0  0  0  0  0  0  0  0
   10.2108   25.6220   28.5728 N   0  0  0  0  0  0  0  0  0  0  0  0
   11.4454   26.0035   28.0448 C   0  0  0  0  0  0  0  0  0  0  0  0
   12.4667   25.0216   27.5597 C   0  0  0  0  0  0  0  0  0  0  0  0
   11.4781   27.4452   27.8368 C   0  0  0  0  0  0  0  0  0  0  0  0
   10.3975   28.0311   29.0999 S   0  0  0  0  0  0  0  0  0  0  0  0
    7.3536   26.7057   28.2126 C   0  0  0  0  0  0  0  0  0  0  0  0
    8.0705   26.4935   29.4383 N   0  0  0  0  0  0  0  0  0  0  0  0
    7.6534   26.3262   30.3142 H   0  0  0  0  0  0  0  0  0  0  0  0
   12.5276   29.9796   23.7188 N   0  0  0  0  0  0  0  0  0  0  0  0
   12.9578   30.7718   23.3231 H   0  0  0  0  0  0  0  0  0  0  0  0
   11.5247   29.2793   22.9540 C   0  0  0  0  0  0  0  0  0  0  0  0
   11.8050   28.1491   22.2554 C   0  0  0  0  0  0  0  0  0  0  0  0
   10.7026   27.4564   21.4729 C   0  0  0  0  0  0  0  0  0  0  0  0
   10.9578   26.3133   20.7467 O   0  0  0  0  0  0  0  0  0  0  0  0
    9.4404   27.9704   21.4724 C   0  0  0  0  0  0  0  0  0  0  0  0
    9.1360   29.1999   22.2343 C   0  0  0  0  0  0  0  0  0  0  0  0
   10.1291   29.8304   22.9457 C   0  0  0  0  0  0  0  0  0  0  0  0
   11.8203   25.9473   20.7367 H   0  0  0  0  0  0  0  0  0  0  0  0
   14.1808   28.1494   28.9703 C   0  0  0  0  0  0  0  0  0  0  0  0
   14.5117   27.7870   29.9954 N   0  0  0  0  0  0  0  0  0  0  0  0
 13 14  1  0  0  0
 14  7  1  0  0  0
  7  8  2  0  0  0
  7 12  1  0  0  0
  8  9  1  0  0  0
  9 10  1  0  0  0
  9 11  2  0  0  0
 11  1  1  0  0  0
 11 12  1  0  0  0
  1  2  1  0  0  0
  1  6  2  0  0  0
  2  3  2  0  0  0
  3 16  1  0  0  0
  3  4  1  0  0  0
 16 18  1  0  0  0
 18 19  1  0  0  0
 18 24  2  0  0  0
 19 20  2  0  0  0
 20 21  1  0  0  0
 20 22  1  0  0  0
 22 23  2  0  0  0
 23 24  1  0  0  0
  4  5  2  0  0  0
  5  6  1  0  0  0
  6 26  1  0  0  0
 26 27  3  0  0  0
 14 15  1  0  0  0
 16 17  1  0  0  0
 21 25  1  0  0  0
M  END
> <minimizedAffinity>
-0.03534

$$$$
4BCN_T9N_A_1299


 27 29  0  0  0  0  0  0  0  0999 V2000
    9.3313   25.3366   24.5843 C   0  0  0  0  0  0  0  0  0  0  0  0
   10.1075   25.2056   25.7081 N   0  0  0  0  0  0  0  0  0  0  0  0
    9.7343   24.7670   26.9464 C   0  0  0  0  0  0  0  0  0  0  0  0
    8.4538   24.4479   26.9980 N   0  0  0  0  0  0  0  0  0  0  0  0
    7.5946   24.5332   25.9591 C   0  0  0  0  0  0  0  0  0  0  0  0
    7.9750   24.9773   24.6729 C   0  0  0  0  0  0  0  0  0  0  0  0
   10.9594   27.2576   21.4272 C   0  0  0  0  0  0  0  0  0  0  0  0
   11.1091   25.9352   21.2748 N   0  0  0  0  0  0  0  0  0  0  0  0
   10.3590   25.1021   22.1066 C   0  0  0  0  0  0  0  0  0  0  0  0
   10.2201   23.6286   21.8789 C   0  0  0  0  0  0  0  0  0  0  0  0
    9.9488   25.8255   23.3028 C   0  0  0  0  0  0  0  0  0  0  0  0
    9.8268   27.4828   22.7158 S   0  0  0  0  0  0  0  0  0  0  0  0
   13.0721   28.2279   21.8164 C   0  0  0  0  0  0  0  0  0  0  0  0
   11.9014   28.2542   20.9855 N   0  0  0  0  0  0  0  0  0  0  0  0
   11.7627   28.8641   20.2252 H   0  0  0  0  0  0  0  0  0  0  0  0
   10.6318   24.6227   28.0536 N   0  0  0  0  0  0  0  0  0  0  0  0
   10.3660   24.0474   28.8071 H   0  0  0  0  0  0  0  0  0  0  0  0
   11.9104   25.2887   28.1059 C   0  0  0  0  0  0  0  0  0  0  0  0
   12.0393   26.5779   28.5127 C   0  0  0  0  0  0  0  0  0  0  0  0
   13.4151   27.2206   28.5489 C   0  0  0  0  0  0  0  0  0  0  0  0
   13.5772   28.5297   28.9480 O   0  0  0  0  0  0  0  0  0  0  0  0
   14.5122   26.5049   28.1723 C   0  0  0  0  0  0  0  0  0  0  0  0
   14.3710   25.1013   27.7310 C   0  0  0  0  0  0  0  0  0  0  0  0
   13.1287   24.5137   27.6977 C   0  0  0  0  0  0  0  0  0  0  0  0
   12.8331   29.0352   29.2099 H   0  0  0  0  0  0  0  0  0  0  0  0
    7.0449   25.0455   23.5131 C   0  0  0  0  0  0  0  0  0  0  0  0
    6.3477   25.0824   22.6163 N   0  0  0  0  0  0  0  0  0  0  0  0
 13 14  1  0  0  0
 14  7  1  0  0  0
  7  8  2  0  0  0
  7 12  1  0  0  0
  8  9  1  0  0  0
  9 10  1  0  0  0
  9 11  2  0  0  0
 11  1  1  0  0  0
 11 12  1  0  0  0
  1  2  1  0  0  0
  1  6  2  0  0  0
  2  3  2  0  0  0
  3 16  1  0  0  0
  3  4  1  0  0  0
 16 18  1  0  0  0
 18 19  1  0  0  0
 18 24  2  0  0  0
 19 20  2  0  0  0
 20 21  1  0  0  0
 20 22  1  0  0  0
 22 23  2  0  0  0
 23 24  1  0  0  0
  4  5  2  0  0  0
  5  6  1  0  0  0
  6 26  1  0  0  0
 26 27  3  0  0  0
 14 15  1  0  0  0
 16 17  1  0  0  0
 21 25  1  0  0  0
M  END
> <minimizedAffinity>
-0.02842

$$$$
4BCN_T9N_A_1299


 27 29  0  0  0  0  0  0  0  0999 V2000
   10.7341   23.0793   27.7906 C   0  0  0  0  0  0  0  0  0  0  0  0
   10.9825   24.2352   28.4869 N   0  0  0  0  0  0  0  0  0  0  0  0
   10.6442   24.5345   29.7757 C   0  0  0  0  0  0  0  0  0  0  0  0
    9.9986   23.5446   30.3652 N   0  0  0  0  0  0  0  0  0  0  0  0
    9.6999   22.3630   29.7828 C   0  0  0  0  0  0  0  0  0  0  0  0
   10.0541   22.0424   28.4532 C   0  0  0  0  0  0  0  0  0  0  0  0
   11.5006   23.1149   23.8258 C   0  0  0  0  0  0  0  0  0  0  0  0
   12.5432   22.5870   24.4805 N   0  0  0  0  0  0  0  0  0  0  0  0
   12.3484   22.2216   25.8136 C   0  0  0  0  0  0  0  0  0  0  0  0
   13.3244   21.3875   26.5845 C   0  0  0  0  0  0  0  0  0  0  0  0
   11.2132   22.9448   26.3712 C   0  0  0  0  0  0  0  0  0  0  0  0
   10.1921   23.1892   24.9556 S   0  0  0  0  0  0  0  0  0  0  0  0
   12.1296   25.2064   22.9392 C   0  0  0  0  0  0  0  0  0  0  0  0
   11.5913   23.9120   22.6292 N   0  0  0  0  0  0  0  0  0  0  0  0
   11.3234   23.6129   21.7303 H   0  0  0  0  0  0  0  0  0  0  0  0
   10.9870   25.7597   30.4342 N   0  0  0  0  0  0  0  0  0  0  0  0
   10.4681   26.0342   31.2245 H   0  0  0  0  0  0  0  0  0  0  0  0
   12.0643   26.6064   29.9826 C   0  0  0  0  0  0  0  0  0  0  0  0
   11.8504   27.6942   29.1984 C   0  0  0  0  0  0  0  0  0  0  0  0
   13.0278   28.5477   28.7598 C   0  0  0  0  0  0  0  0  0  0  0  0
   12.8441   29.6523   27.9564 O   0  0  0  0  0  0  0  0  0  0  0  0
   14.2913   28.2194   29.1513 C   0  0  0  0  0  0  0  0  0  0  0  0
   14.5230   27.0359   30.0060 C   0  0  0  0  0  0  0  0  0  0  0  0
   13.4612   26.2605   30.4075 C   0  0  0  0  0  0  0  0  0  0  0  0
   11.9817   29.8914   27.6786 H   0  0  0  0  0  0  0  0  0  0  0  0
    9.7581   20.7326   27.8115 C   0  0  0  0  0  0  0  0  0  0  0  0
    9.5488   19.7364   27.3061 N   0  0  0  0  0  0  0  0  0  0  0  0
 13 14  1  0  0  0
 14  7  1  0  0  0
  7  8  2  0  0  0
  7 12  1  0  0  0
  8  9  1  0  0  0
  9 10  1  0  0  0
  9 11  2  0  0  0
 11  1  1  0  0  0
 11 12  1  0  0  0
  1  2  1  0  0  0
  1  6  2  0  0  0
  2  3  2  0  0  0
  3 16  1  0  0  0
  3  4  1  0  0  0
 16 18  1  0  0  0
 18 19  1  0  0  0
 18 24  2  0  0  0
 19 20  2  0  0  0
 20 21  1  0  0  0
 20 22  1  0  0  0
 22 23  2  0  0  0
 23 24  1  0  0  0
  4  5  2  0  0  0
  5  6  1  0  0  0
  6 26  1  0  0  0
 26 27  3  0  0  0
 14 15  1  0  0  0
 16 17  1  0  0  0
 21 25  1  0  0  0
M  END
> <minimizedAffinity>
-0.02497

$$$$
4BCN_T9N_A_1299


 27 29  0  0  0  0  0  0  0  0999 V2000
    8.4416   24.8045   27.4257 C   0  0  0  0  0  0  0  0  0  0  0  0
    9.5328   25.1039   28.2017 N   0  0  0  0  0  0  0  0  0  0  0  0
    9.5546   25.5696   29.4853 C   0  0  0  0  0  0  0  0  0  0  0  0
    8.3402   25.7305   29.9788 N   0  0  0  0  0  0  0  0  0  0  0  0
    7.1952   25.4679   29.3120 C   0  0  0  0  0  0  0  0  0  0  0  0
    7.1644   24.9775   27.9873 C   0  0  0  0  0  0  0  0  0  0  0  0
    9.1112   24.0373   23.5179 C   0  0  0  0  0  0  0  0  0  0  0  0
    9.0446   22.8848   24.1973 N   0  0  0  0  0  0  0  0  0  0  0  0
    8.5304   22.9306   25.4942 C   0  0  0  0  0  0  0  0  0  0  0  0
    8.1514   21.7058   26.2681 C   0  0  0  0  0  0  0  0  0  0  0  0
    8.6390   24.2813   26.0294 C   0  0  0  0  0  0  0  0  0  0  0  0
    8.5189   25.2714   24.5763 S   0  0  0  0  0  0  0  0  0  0  0  0
   11.3248   24.3993   22.7932 C   0  0  0  0  0  0  0  0  0  0  0  0
    9.9563   24.2782   22.3762 N   0  0  0  0  0  0  0  0  0  0  0  0
    9.6414   24.3495   21.4461 H   0  0  0  0  0  0  0  0  0  0  0  0
   10.7521   25.8135   30.2330 N   0  0  0  0  0  0  0  0  0  0  0  0
   10.7204   26.4491   30.9843 H   0  0  0  0  0  0  0  0  0  0  0  0
   12.0025   25.1628   29.9263 C   0  0  0  0  0  0  0  0  0  0  0  0
   12.2795   23.8975   30.3342 C   0  0  0  0  0  0  0  0  0  0  0  0
   13.6140   23.2672   29.9748 C   0  0  0  0  0  0  0  0  0  0  0  0
   13.9282   21.9886   30.3820 O   0  0  0  0  0  0  0  0  0  0  0  0
   14.5272   23.9715   29.2484 C   0  0  0  0  0  0  0  0  0  0  0  0
   14.2242   25.3482   28.8038 C   0  0  0  0  0  0  0  0  0  0  0  0
   13.0175   25.9234   29.1245 C   0  0  0  0  0  0  0  0  0  0  0  0
   13.3113   21.4913   30.8820 H   0  0  0  0  0  0  0  0  0  0  0  0
    5.9102   24.6549   27.2540 C   0  0  0  0  0  0  0  0  0  0  0  0
    4.9635   24.3916   26.6830 N   0  0  0  0  0  0  0  0  0  0  0  0
 13 14  1  0  0  0
 14  7  1  0  0  0
  7  8  2  0  0  0
  7 12  1  0  0  0
  8  9  1  0  0  0
  9 10  1  0  0  0
  9 11  2  0  0  0
 11  1  1  0  0  0
 11 12  1  0  0  0
  1  2  1  0  0  0
  1  6  2  0  0  0
  2  3  2  0  0  0
  3 16  1  0  0  0
  3  4  1  0  0  0
 16 18  1  0  0  0
 18 19  1  0  0  0
 18 24  2  0  0  0
 19 20  2  0  0  0
 20 21  1  0  0  0
 20 22  1  0  0  0
 22 23  2  0  0  0
 23 24  1  0  0  0
  4  5  2  0  0  0
  5  6  1  0  0  0
  6 26  1  0  0  0
 26 27  3  0  0  0
 14 15  1  0  0  0
 16 17  1  0  0  0
 21 25  1  0  0  0
M  END
> <minimizedAffinity>
-0.02417

$$$$
4BCN_T9N_A_1299


 27 29  0  0  0  0  0  0  0  0999 V2000
   13.2078   23.2042   25.9918 C   0  0  0  0  0  0  0  0  0  0  0  0
   13.0015   22.2459   25.0317 N   0  0  0  0  0  0  0  0  0  0  0  0
   13.4501   20.9561   25.0151 C   0  0  0  0  0  0  0  0  0  0  0  0
   14.1661   20.6627   26.0854 N   0  0  0  0  0  0  0  0  0  0  0  0
   14.4335   21.5206   27.0940 C   0  0  0  0  0  0  0  0  0  0  0  0
   13.9656   22.8534   27.1228 C   0  0  0  0  0  0  0  0  0  0  0  0
   12.0830   26.9792   25.1018 C   0  0  0  0  0  0  0  0  0  0  0  0
   11.1136   26.3743   25.8007 N   0  0  0  0  0  0  0  0  0  0  0  0
   11.4352   25.1793   26.4466 C   0  0  0  0  0  0  0  0  0  0  0  0
   10.5481   24.5363   27.4674 C   0  0  0  0  0  0  0  0  0  0  0  0
   12.6039   24.5715   25.8242 C   0  0  0  0  0  0  0  0  0  0  0  0
   13.4875   25.9769   25.2326 S   0  0  0  0  0  0  0  0  0  0  0  0
   11.4299   27.3026   22.8601 C   0  0  0  0  0  0  0  0  0  0  0  0
   11.8700   27.9533   24.0619 N   0  0  0  0  0  0  0  0  0  0  0  0
   12.0062   28.9233   24.1609 H   0  0  0  0  0  0  0  0  0  0  0  0
   13.1449   20.0108   23.9829 N   0  0  0  0  0  0  0  0  0  0  0  0
   13.5929   19.1342   23.9956 H   0  0  0  0  0  0  0  0  0  0  0  0
   12.2057   20.2952   22.9254 C   0  0  0  0  0  0  0  0  0  0  0  0
   12.5989   20.7741   21.7171 C   0  0  0  0  0  0  0  0  0  0  0  0
   11.5601   21.0496   20.6436 C   0  0  0  0  0  0  0  0  0  0  0  0
   11.9267   21.5444   19.4108 O   0  0  0  0  0  0  0  0  0  0  0  0
   10.2409   20.8183   20.8960 C   0  0  0  0  0  0  0  0  0  0  0  0
    9.8140   20.2958   22.2112 C   0  0  0  0  0  0  0  0  0  0  0  0
   10.7497   20.0430   23.1861 C   0  0  0  0  0  0  0  0  0  0  0  0
   12.8296   21.7088   19.2215 H   0  0  0  0  0  0  0  0  0  0  0  0
   14.2274   23.7976   28.2430 C   0  0  0  0  0  0  0  0  0  0  0  0
   14.4187   24.5358   29.0857 N   0  0  0  0  0  0  0  0  0  0  0  0
 13 14  1  0  0  0
 14  7  1  0  0  0
  7  8  2  0  0  0
  7 12  1  0  0  0
  8  9  1  0  0  0
  9 10  1  0  0  0
  9 11  2  0  0  0
 11  1  1  0  0  0
 11 12  1  0  0  0
  1  2  1  0  0  0
  1  6  2  0  0  0
  2  3  2  0  0  0
  3 16  1  0  0  0
  3  4  1  0  0  0
 16 18  1  0  0  0
 18 19  1  0  0  0
 18 24  2  0  0  0
 19 20  2  0  0  0
 20 21  1  0  0  0
 20 22  1  0  0  0
 22 23  2  0  0  0
 23 24  1  0  0  0
  4  5  2  0  0  0
  5  6  1  0  0  0
  6 26  1  0  0  0
 26 27  3  0  0  0
 14 15  1  0  0  0
 16 17  1  0  0  0
 21 25  1  0  0  0
M  END
> <minimizedAffinity>
-0.02341

$$$$
4BCN_T9N_A_1299


 27 29  0  0  0  0  0  0  0  0999 V2000
   10.0299   22.8734   24.4540 C   0  0  0  0  0  0  0  0  0  0  0  0
    9.8216   24.2160   24.2625 N   0  0  0  0  0  0  0  0  0  0  0  0
    8.9748   24.8220   23.3789 C   0  0  0  0  0  0  0  0  0  0  0  0
    8.3060   23.9481   22.6488 N   0  0  0  0  0  0  0  0  0  0  0  0
    8.4257   22.6063   22.7492 C   0  0  0  0  0  0  0  0  0  0  0  0
    9.2926   21.9717   23.6668 C   0  0  0  0  0  0  0  0  0  0  0  0
   13.1182   21.8060   26.8272 C   0  0  0  0  0  0  0  0  0  0  0  0
   11.9844   21.8128   27.5406 N   0  0  0  0  0  0  0  0  0  0  0  0
   10.7806   21.8671   26.8361 C   0  0  0  0  0  0  0  0  0  0  0  0
    9.4482   21.6164   27.4720 C   0  0  0  0  0  0  0  0  0  0  0  0
   11.0037   22.4109   25.5030 C   0  0  0  0  0  0  0  0  0  0  0  0
   12.6566   21.9028   25.1623 S   0  0  0  0  0  0  0  0  0  0  0  0
   14.5279   23.5880   27.4544 C   0  0  0  0  0  0  0  0  0  0  0  0
   14.4187   22.1613   27.3352 N   0  0  0  0  0  0  0  0  0  0  0  0
   15.1286   21.5198   27.5667 H   0  0  0  0  0  0  0  0  0  0  0  0
    8.7930   26.2397   23.2812 N   0  0  0  0  0  0  0  0  0  0  0  0
    8.1369   26.5899   22.6361 H   0  0  0  0  0  0  0  0  0  0  0  0
    9.5352   27.1733   24.0928 C   0  0  0  0  0  0  0  0  0  0  0  0
    9.0713   27.6227   25.2873 C   0  0  0  0  0  0  0  0  0  0  0  0
    9.9036   28.6028   26.0962 C   0  0  0  0  0  0  0  0  0  0  0  0
    9.4558   29.0841   27.3074 O   0  0  0  0  0  0  0  0  0  0  0  0
   11.1082   29.0284   25.6216 C   0  0  0  0  0  0  0  0  0  0  0  0
   11.6128   28.5376   24.3219 C   0  0  0  0  0  0  0  0  0  0  0  0
   10.8650   27.6493   23.5861 C   0  0  0  0  0  0  0  0  0  0  0  0
    8.6298   28.8013   27.6475 H   0  0  0  0  0  0  0  0  0  0  0  0
    9.4096   20.4948   23.8080 C   0  0  0  0  0  0  0  0  0  0  0  0
    9.5044   19.3698   23.9381 N   0  0  0  0  0  0  0  0  0  0  0  0
 13 14  1  0  0  0
 14  7  1  0  0  0
  7  8  2  0  0  0
  7 12  1  0  0  0
  8  9  1  0  0  0
  9 10  1  0  0  0
  9 11  2  0  0  0
 11  1  1  0  0  0
 11 12  1  0  0  0
  1  2  1  0  0  0
  1  6  2  0  0  0
  2  3  2  0  0  0
  3 16  1  0  0  0
  3  4  1  0  0  0
 16 18  1  0  0  0
 18 19  1  0  0  0
 18 24  2  0  0  0
 19 20  2  0  0  0
 20 21  1  0  0  0
 20 22  1  0  0  0
 22 23  2  0  0  0
 23 24  1  0  0  0
  4  5  2  0  0  0
  5  6  1  0  0  0
  6 26  1  0  0  0
 26 27  3  0  0  0
 14 15  1  0  0  0
 16 17  1  0  0  0
 21 25  1  0  0  0
M  END
> <minimizedAffinity>
-0.02172

$$$$
4BCN_T9N_A_1299


 27 29  0  0  0  0  0  0  0  0999 V2000
   10.0598   25.8812   25.3820 C   0  0  0  0  0  0  0  0  0  0  0  0
    9.7839   24.8105   24.5697 N   0  0  0  0  0  0  0  0  0  0  0  0
    8.6187   24.5223   23.9183 C   0  0  0  0  0  0  0  0  0  0  0  0
    7.6836   25.4272   24.1439 N   0  0  0  0  0  0  0  0  0  0  0  0
    7.8395   26.5208   24.9213 C   0  0  0  0  0  0  0  0  0  0  0  0
    9.0443   26.8307   25.5911 C   0  0  0  0  0  0  0  0  0  0  0  0
   13.5253   25.7876   27.4533 C   0  0  0  0  0  0  0  0  0  0  0  0
   13.6961   26.4854   26.3227 N   0  0  0  0  0  0  0  0  0  0  0  0
   12.5502   26.8754   25.6274 C   0  0  0  0  0  0  0  0  0  0  0  0
   12.5706   27.8716   24.5094 C   0  0  0  0  0  0  0  0  0  0  0  0
   11.4271   26.0225   25.9929 C   0  0  0  0  0  0  0  0  0  0  0  0
   11.8195   25.5759   27.6521 S   0  0  0  0  0  0  0  0  0  0  0  0
   14.5260   23.6536   27.4845 C   0  0  0  0  0  0  0  0  0  0  0  0
   14.5280   24.9617   28.0763 N   0  0  0  0  0  0  0  0  0  0  0  0
   15.1269   25.2519   28.8018 H   0  0  0  0  0  0  0  0  0  0  0  0
    8.4382   23.3958   23.0517 N   0  0  0  0  0  0  0  0  0  0  0  0
    7.7204   23.4261   22.3785 H   0  0  0  0  0  0  0  0  0  0  0  0
    9.2688   22.2188   23.1286 C   0  0  0  0  0  0  0  0  0  0  0  0
   10.2825   21.9895   22.2547 C   0  0  0  0  0  0  0  0  0  0  0  0
   11.1234   20.7320   22.3921 C   0  0  0  0  0  0  0  0  0  0  0  0
   12.1529   20.4666   21.5152 O   0  0  0  0  0  0  0  0  0  0  0  0
   10.8577   19.8395   23.3873 C   0  0  0  0  0  0  0  0  0  0  0  0
    9.7549   20.0906   24.3389 C   0  0  0  0  0  0  0  0  0  0  0  0
    8.9915   21.2277   24.2206 C   0  0  0  0  0  0  0  0  0  0  0  0
   12.3483   21.0701   20.8256 H   0  0  0  0  0  0  0  0  0  0  0  0
    9.2375   28.0484   26.4244 C   0  0  0  0  0  0  0  0  0  0  0  0
    9.3971   28.9659   27.0759 N   0  0  0  0  0  0  0  0  0  0  0  0
 13 14  1  0  0  0
 14  7  1  0  0  0
  7  8  2  0  0  0
  7 12  1  0  0  0
  8  9  1  0  0  0
  9 10  1  0  0  0
  9 11  2  0  0  0
 11  1  1  0  0  0
 11 12  1  0  0  0
  1  2  1  0  0  0
  1  6  2  0  0  0
  2  3  2  0  0  0
  3 16  1  0  0  0
  3  4  1  0  0  0
 16 18  1  0  0  0
 18 19  1  0  0  0
 18 24  2  0  0  0
 19 20  2  0  0  0
 20 21  1  0  0  0
 20 22  1  0  0  0
 22 23  2  0  0  0
 23 24  1  0  0  0
  4  5  2  0  0  0
  5  6  1  0  0  0
  6 26  1  0  0  0
 26 27  3  0  0  0
 14 15  1  0  0  0
 16 17  1  0  0  0
 21 25  1  0  0  0
M  END
> <minimizedAffinity>
-0.01843

$$$$
