2VJ8_HA2_A_1616


 33 34  0  0  0  0  0  0  0  0999 V2000
   13.9899   42.1546   63.9797 C   0  0  0  0  0  0  0  0  0  0  0  0
   13.7287   40.7145   63.9959 N   0  0  0  0  0  0  0  0  0  0  0  0
   14.2752   40.2782   64.7384 H   0  0  0  0  0  0  0  0  0  0  0  0
   13.9930   40.3109   63.0972 H   0  0  0  0  0  0  0  0  0  0  0  0
   13.5675   42.7916   65.3375 C   0  0  0  0  0  0  0  0  0  0  0  0
    9.4777   41.8220   66.4674 C   0  0  0  0  0  0  0  0  0  0  0  0
    9.7234   42.9129   65.6073 C   0  0  0  0  0  0  0  0  0  0  0  0
   11.0443   43.2235   65.2194 C   0  0  0  0  0  0  0  0  0  0  0  0
   10.5617   41.0320   66.9327 C   0  0  0  0  0  0  0  0  0  0  0  0
   11.8763   41.3491   66.5472 C   0  0  0  0  0  0  0  0  0  0  0  0
   12.1153   42.4445   65.6975 C   0  0  0  0  0  0  0  0  0  0  0  0
    8.1392   41.5001   66.8575 O   0  0  0  0  0  0  0  0  0  0  0  0
    7.7060   41.4042   68.2142 C   0  0  0  0  0  0  0  0  0  0  0  0
    7.5752   38.8808   67.8110 C   0  0  0  0  0  0  0  0  0  0  0  0
    7.6021   37.5668   68.3135 C   0  0  0  0  0  0  0  0  0  0  0  0
    7.7950   37.3074   69.6781 C   0  0  0  0  0  0  0  0  0  0  0  0
    7.9660   38.3884   70.5693 C   0  0  0  0  0  0  0  0  0  0  0  0
    7.9288   39.7081   70.0737 C   0  0  0  0  0  0  0  0  0  0  0  0
    7.7350   39.9643   68.7066 C   0  0  0  0  0  0  0  0  0  0  0  0
   15.4941   42.3897   63.7183 C   0  0  0  0  0  0  0  0  0  0  0  0
   16.3254   41.9531   64.8721 N   0  0  0  0  0  0  0  0  0  0  0  0
   16.1600   40.7206   65.3875 O   0  0  0  0  0  0  0  0  0  0  0  0
   17.2267   42.8032   65.4111 C   0  0  0  0  0  0  0  0  0  0  0  0
   17.3596   43.9556   64.9678 O   0  0  0  0  0  0  0  0  0  0  0  0
   15.4792   40.2481   64.8835 H   0  0  0  0  0  0  0  0  0  0  0  0
   18.0589   42.3352   66.5904 C   0  0  0  0  0  0  0  0  0  0  0  0
   19.3437   43.1467   66.7134 C   0  0  0  0  0  0  0  0  0  0  0  0
   19.5296   43.6117   68.1540 C   0  0  0  0  0  0  0  0  0  0  0  0
   18.1755   43.9335   68.7842 C   0  0  0  0  0  0  0  0  0  0  0  0
   17.6867   45.3012   68.3423 C   0  0  0  0  0  0  0  0  0  0  0  0
   18.4142   46.2595   68.6202 O   0  0  0  0  0  0  0  0  0  0  0  0
   16.5895   45.3596   67.7276 O   0  0  0  0  0  0  0  0  0  0  0  0
   16.1037   44.5759   67.5607 H   0  0  0  0  0  0  0  0  0  0  0  0
 14 15  1  0  0  0
 14 19  2  0  0  0
 15 16  2  0  0  0
 16 17  1  0  0  0
 17 18  2  0  0  0
 18 19  1  0  0  0
 19 13  1  0  0  0
 13 12  1  0  0  0
 12  6  1  0  0  0
  6  7  1  0  0  0
  6  9  2  0  0  0
  7  8  2  0  0  0
  8 11  1  0  0  0
  9 10  1  0  0  0
 10 11  2  0  0  0
 11  5  1  0  0  0
  5  1  1  0  0  0
  1  2  1  0  0  0
  1 20  1  0  0  0
 20 21  1  0  0  0
 21 22  1  0  0  0
 21 23  1  0  0  0
 23 24  2  0  0  0
 23 26  1  0  0  0
 26 27  1  0  0  0
 27 28  1  0  0  0
 28 29  1  0  0  0
 29 30  1  0  0  0
 30 31  2  0  0  0
 30 32  1  0  0  0
  2  3  1  0  0  0
  2  4  1  0  0  0
 22 25  1  0  0  0
 32 33  1  0  0  0
M  END
> <minimizedAffinity>
-11.16044

$$$$
2VJ8_HA2_A_1616


 33 34  0  0  0  0  0  0  0  0999 V2000
   13.9935   42.0878   64.0322 C   0  0  0  0  0  0  0  0  0  0  0  0
   13.7963   40.6376   64.0178 N   0  0  0  0  0  0  0  0  0  0  0  0
   14.3793   40.2081   64.7362 H   0  0  0  0  0  0  0  0  0  0  0  0
   14.0562   40.2682   63.1033 H   0  0  0  0  0  0  0  0  0  0  0  0
   13.5766   42.6722   65.4152 C   0  0  0  0  0  0  0  0  0  0  0  0
    9.4490   41.7730   66.4630 C   0  0  0  0  0  0  0  0  0  0  0  0
    9.7347   42.8916   65.6524 C   0  0  0  0  0  0  0  0  0  0  0  0
   11.0680   43.1805   65.2909 C   0  0  0  0  0  0  0  0  0  0  0  0
   10.5053   40.9334   66.9050 C   0  0  0  0  0  0  0  0  0  0  0  0
   11.8323   41.2288   66.5461 C   0  0  0  0  0  0  0  0  0  0  0  0
   12.1113   42.3518   65.7459 C   0  0  0  0  0  0  0  0  0  0  0  0
    8.0978   41.4732   66.8260 O   0  0  0  0  0  0  0  0  0  0  0  0
    7.6357   41.3854   68.1737 C   0  0  0  0  0  0  0  0  0  0  0  0
    7.5309   38.8538   67.8171 C   0  0  0  0  0  0  0  0  0  0  0  0
    7.5875   37.5493   68.3414 C   0  0  0  0  0  0  0  0  0  0  0  0
    7.8151   37.3164   69.7054 C   0  0  0  0  0  0  0  0  0  0  0  0
    7.9912   38.4151   70.5737 C   0  0  0  0  0  0  0  0  0  0  0  0
    7.9244   39.7253   70.0565 C   0  0  0  0  0  0  0  0  0  0  0  0
    7.6959   39.9548   68.6901 C   0  0  0  0  0  0  0  0  0  0  0  0
   15.4791   42.3960   63.7421 C   0  0  0  0  0  0  0  0  0  0  0  0
   16.3553   41.9798   64.8699 N   0  0  0  0  0  0  0  0  0  0  0  0
   16.2145   40.7548   65.4097 O   0  0  0  0  0  0  0  0  0  0  0  0
   17.2731   42.8411   65.3614 C   0  0  0  0  0  0  0  0  0  0  0  0
   17.3845   43.9870   64.8961 O   0  0  0  0  0  0  0  0  0  0  0  0
   15.5169   40.2723   64.9391 H   0  0  0  0  0  0  0  0  0  0  0  0
   18.1512   42.3939   66.5151 C   0  0  0  0  0  0  0  0  0  0  0  0
   18.6489   43.5876   67.3222 C   0  0  0  0  0  0  0  0  0  0  0  0
   20.0965   43.8970   66.9550 C   0  0  0  0  0  0  0  0  0  0  0  0
   20.7183   42.7138   66.2150 C   0  0  0  0  0  0  0  0  0  0  0  0
   21.8402   42.0969   67.0309 C   0  0  0  0  0  0  0  0  0  0  0  0
   22.7427   42.8606   67.3872 O   0  0  0  0  0  0  0  0  0  0  0  0
   21.7689   40.8661   67.2865 O   0  0  0  0  0  0  0  0  0  0  0  0
   21.0429   40.3637   66.9727 H   0  0  0  0  0  0  0  0  0  0  0  0
 14 15  1  0  0  0
 14 19  2  0  0  0
 15 16  2  0  0  0
 16 17  1  0  0  0
 17 18  2  0  0  0
 18 19  1  0  0  0
 19 13  1  0  0  0
 13 12  1  0  0  0
 12  6  1  0  0  0
  6  7  1  0  0  0
  6  9  2  0  0  0
  7  8  2  0  0  0
  8 11  1  0  0  0
  9 10  1  0  0  0
 10 11  2  0  0  0
 11  5  1  0  0  0
  5  1  1  0  0  0
  1  2  1  0  0  0
  1 20  1  0  0  0
 20 21  1  0  0  0
 21 22  1  0  0  0
 21 23  1  0  0  0
 23 24  2  0  0  0
 23 26  1  0  0  0
 26 27  1  0  0  0
 27 28  1  0  0  0
 28 29  1  0  0  0
 29 30  1  0  0  0
 30 31  2  0  0  0
 30 32  1  0  0  0
  2  3  1  0  0  0
  2  4  1  0  0  0
 22 25  1  0  0  0
 32 33  1  0  0  0
M  END
> <minimizedAffinity>
-11.15733

$$$$
2VJ8_HA2_A_1616


 33 34  0  0  0  0  0  0  0  0999 V2000
   15.3867   42.3518   65.6688 C   0  0  0  0  0  0  0  0  0  0  0  0
   15.2477   43.3880   66.6930 N   0  0  0  0  0  0  0  0  0  0  0  0
   15.3674   44.3065   66.2658 H   0  0  0  0  0  0  0  0  0  0  0  0
   15.9579   43.2525   67.4125 H   0  0  0  0  0  0  0  0  0  0  0  0
   14.2921   42.5291   64.5742 C   0  0  0  0  0  0  0  0  0  0  0  0
   10.2459   42.1778   66.1390 C   0  0  0  0  0  0  0  0  0  0  0  0
   11.2400   41.2730   66.5670 C   0  0  0  0  0  0  0  0  0  0  0  0
   12.5596   41.3905   66.0805 C   0  0  0  0  0  0  0  0  0  0  0  0
   10.5795   43.2127   65.2260 C   0  0  0  0  0  0  0  0  0  0  0  0
   11.8945   43.3221   64.7405 C   0  0  0  0  0  0  0  0  0  0  0  0
   12.8787   42.4101   65.1635 C   0  0  0  0  0  0  0  0  0  0  0  0
    8.9086   42.0657   66.6353 O   0  0  0  0  0  0  0  0  0  0  0  0
    8.5836   41.8556   68.0092 C   0  0  0  0  0  0  0  0  0  0  0  0
    8.2865   39.4293   67.2528 C   0  0  0  0  0  0  0  0  0  0  0  0
    7.9776   38.0907   67.5569 C   0  0  0  0  0  0  0  0  0  0  0  0
    7.6604   37.6897   68.8628 C   0  0  0  0  0  0  0  0  0  0  0  0
    7.6500   38.6503   69.8969 C   0  0  0  0  0  0  0  0  0  0  0  0
    7.9476   39.9956   69.5967 C   0  0  0  0  0  0  0  0  0  0  0  0
    8.2645   40.3936   68.2878 C   0  0  0  0  0  0  0  0  0  0  0  0
   16.7958   42.4491   65.0433 C   0  0  0  0  0  0  0  0  0  0  0  0
   17.6489   43.4311   65.7650 N   0  0  0  0  0  0  0  0  0  0  0  0
   17.4281   44.7500   65.6105 O   0  0  0  0  0  0  0  0  0  0  0  0
   18.6551   42.9952   66.5544 C   0  0  0  0  0  0  0  0  0  0  0  0
   18.8916   41.7819   66.6730 O   0  0  0  0  0  0  0  0  0  0  0  0
   16.6737   44.8840   65.0157 H   0  0  0  0  0  0  0  0  0  0  0  0
   19.5136   44.0173   67.2759 C   0  0  0  0  0  0  0  0  0  0  0  0
   19.4972   43.7841   68.7824 C   0  0  0  0  0  0  0  0  0  0  0  0
   18.0632   43.5865   69.2629 C   0  0  0  0  0  0  0  0  0  0  0  0
   17.5603   44.8504   69.9584 C   0  0  0  0  0  0  0  0  0  0  0  0
   17.2049   45.9203   68.9416 C   0  0  0  0  0  0  0  0  0  0  0  0
   16.2264   45.6911   68.2241 O   0  0  0  0  0  0  0  0  0  0  0  0
   17.9221   46.9544   68.9058 O   0  0  0  0  0  0  0  0  0  0  0  0
   18.6481   47.0416   69.4919 H   0  0  0  0  0  0  0  0  0  0  0  0
 14 15  1  0  0  0
 14 19  2  0  0  0
 15 16  2  0  0  0
 16 17  1  0  0  0
 17 18  2  0  0  0
 18 19  1  0  0  0
 19 13  1  0  0  0
 13 12  1  0  0  0
 12  6  1  0  0  0
  6  7  1  0  0  0
  6  9  2  0  0  0
  7  8  2  0  0  0
  8 11  1  0  0  0
  9 10  1  0  0  0
 10 11  2  0  0  0
 11  5  1  0  0  0
  5  1  1  0  0  0
  1  2  1  0  0  0
  1 20  1  0  0  0
 20 21  1  0  0  0
 21 22  1  0  0  0
 21 23  1  0  0  0
 23 24  2  0  0  0
 23 26  1  0  0  0
 26 27  1  0  0  0
 27 28  1  0  0  0
 28 29  1  0  0  0
 29 30  1  0  0  0
 30 31  2  0  0  0
 30 32  1  0  0  0
  2  3  1  0  0  0
  2  4  1  0  0  0
 22 25  1  0  0  0
 32 33  1  0  0  0
M  END
> <minimizedAffinity>
-10.74227

$$$$
2VJ8_HA2_A_1616


 33 34  0  0  0  0  0  0  0  0999 V2000
   15.1613   42.3155   65.7131 C   0  0  0  0  0  0  0  0  0  0  0  0
   15.2491   43.4104   66.6804 N   0  0  0  0  0  0  0  0  0  0  0  0
   15.4925   44.2740   66.1952 H   0  0  0  0  0  0  0  0  0  0  0  0
   15.9665   43.1956   67.3729 H   0  0  0  0  0  0  0  0  0  0  0  0
   14.0512   42.6162   64.6618 C   0  0  0  0  0  0  0  0  0  0  0  0
   10.0299   42.0560   66.2298 C   0  0  0  0  0  0  0  0  0  0  0  0
   11.0686   41.2002   66.6526 C   0  0  0  0  0  0  0  0  0  0  0  0
   12.3800   41.3858   66.1650 C   0  0  0  0  0  0  0  0  0  0  0  0
   10.3100   43.1103   65.3210 C   0  0  0  0  0  0  0  0  0  0  0  0
   11.6172   43.2875   64.8344 C   0  0  0  0  0  0  0  0  0  0  0  0
   12.6464   42.4241   65.2522 C   0  0  0  0  0  0  0  0  0  0  0  0
    8.7005   41.8750   66.7272 O   0  0  0  0  0  0  0  0  0  0  0  0
    8.3808   41.7255   68.1103 C   0  0  0  0  0  0  0  0  0  0  0  0
    7.8928   39.8725   69.8060 C   0  0  0  0  0  0  0  0  0  0  0  0
    7.6706   38.5124   70.0896 C   0  0  0  0  0  0  0  0  0  0  0  0
    7.6653   37.5433   69.0760 C   0  0  0  0  0  0  0  0  0  0  0  0
    7.8884   37.9401   67.7399 C   0  0  0  0  0  0  0  0  0  0  0  0
    8.1228   39.3001   67.4504 C   0  0  0  0  0  0  0  0  0  0  0  0
    8.1278   40.2678   68.4681 C   0  0  0  0  0  0  0  0  0  0  0  0
   16.5308   42.1475   65.0184 C   0  0  0  0  0  0  0  0  0  0  0  0
   17.4883   43.2084   65.4314 N   0  0  0  0  0  0  0  0  0  0  0  0
   17.3574   44.4554   64.9418 O   0  0  0  0  0  0  0  0  0  0  0  0
   18.4979   42.9100   66.2784 C   0  0  0  0  0  0  0  0  0  0  0  0
   18.6505   41.7539   66.7052 O   0  0  0  0  0  0  0  0  0  0  0  0
   16.5862   44.4929   64.3546 H   0  0  0  0  0  0  0  0  0  0  0  0
   19.4638   44.0089   66.6805 C   0  0  0  0  0  0  0  0  0  0  0  0
   18.9320   44.8005   67.8700 C   0  0  0  0  0  0  0  0  0  0  0  0
   19.4932   44.2293   69.1680 C   0  0  0  0  0  0  0  0  0  0  0  0
   18.4449   43.3587   69.8589 C   0  0  0  0  0  0  0  0  0  0  0  0
   18.9810   41.9591   70.1008 C   0  0  0  0  0  0  0  0  0  0  0  0
   18.5216   41.3571   71.0763 O   0  0  0  0  0  0  0  0  0  0  0  0
   19.8424   41.5157   69.2968 O   0  0  0  0  0  0  0  0  0  0  0  0
   20.1330   42.0468   68.5816 H   0  0  0  0  0  0  0  0  0  0  0  0
 14 15  1  0  0  0
 14 19  2  0  0  0
 15 16  2  0  0  0
 16 17  1  0  0  0
 17 18  2  0  0  0
 18 19  1  0  0  0
 19 13  1  0  0  0
 13 12  1  0  0  0
 12  6  1  0  0  0
  6  7  1  0  0  0
  6  9  2  0  0  0
  7  8  2  0  0  0
  8 11  1  0  0  0
  9 10  1  0  0  0
 10 11  2  0  0  0
 11  5  1  0  0  0
  5  1  1  0  0  0
  1  2  1  0  0  0
  1 20  1  0  0  0
 20 21  1  0  0  0
 21 22  1  0  0  0
 21 23  1  0  0  0
 23 24  2  0  0  0
 23 26  1  0  0  0
 26 27  1  0  0  0
 27 28  1  0  0  0
 28 29  1  0  0  0
 29 30  1  0  0  0
 30 31  2  0  0  0
 30 32  1  0  0  0
  2  3  1  0  0  0
  2  4  1  0  0  0
 22 25  1  0  0  0
 32 33  1  0  0  0
M  END
> <minimizedAffinity>
-10.24468

$$$$
2VJ8_HA2_A_1616


 33 34  0  0  0  0  0  0  0  0999 V2000
   16.1130   43.1064   65.5933 C   0  0  0  0  0  0  0  0  0  0  0  0
   16.7883   44.2862   65.0508 N   0  0  0  0  0  0  0  0  0  0  0  0
   17.3735   44.0104   64.2622 H   0  0  0  0  0  0  0  0  0  0  0  0
   17.3701   44.7078   65.7748 H   0  0  0  0  0  0  0  0  0  0  0  0
   15.1993   42.4643   64.5066 C   0  0  0  0  0  0  0  0  0  0  0  0
   11.0749   42.3482   65.8916 C   0  0  0  0  0  0  0  0  0  0  0  0
   11.4595   43.3020   64.9261 C   0  0  0  0  0  0  0  0  0  0  0  0
   12.7898   43.3351   64.4561 C   0  0  0  0  0  0  0  0  0  0  0  0
   12.0272   41.4156   66.3809 C   0  0  0  0  0  0  0  0  0  0  0  0
   13.3525   41.4565   65.9131 C   0  0  0  0  0  0  0  0  0  0  0  0
   13.7319   42.4169   64.9577 C   0  0  0  0  0  0  0  0  0  0  0  0
    9.7253   42.3073   66.3655 O   0  0  0  0  0  0  0  0  0  0  0  0
    9.3675   42.1469   67.7380 C   0  0  0  0  0  0  0  0  0  0  0  0
    8.0915   40.4951   69.2182 C   0  0  0  0  0  0  0  0  0  0  0  0
    7.5274   39.2205   69.4104 C   0  0  0  0  0  0  0  0  0  0  0  0
    7.5787   38.2376   68.4114 C   0  0  0  0  0  0  0  0  0  0  0  0
    8.2108   38.5323   67.1843 C   0  0  0  0  0  0  0  0  0  0  0  0
    8.7880   39.8042   66.9895 C   0  0  0  0  0  0  0  0  0  0  0  0
    8.7351   40.7859   67.9923 C   0  0  0  0  0  0  0  0  0  0  0  0
   17.1769   42.0933   66.0708 C   0  0  0  0  0  0  0  0  0  0  0  0
   18.2762   42.7637   66.8158 N   0  0  0  0  0  0  0  0  0  0  0  0
   19.4539   42.9947   66.2062 O   0  0  0  0  0  0  0  0  0  0  0  0
   18.0949   43.1176   68.1072 C   0  0  0  0  0  0  0  0  0  0  0  0
   17.0259   42.8740   68.6902 O   0  0  0  0  0  0  0  0  0  0  0  0
   19.4105   42.6808   65.2895 H   0  0  0  0  0  0  0  0  0  0  0  0
   19.2334   43.7958   68.8461 C   0  0  0  0  0  0  0  0  0  0  0  0
   19.6674   42.9778   70.0573 C   0  0  0  0  0  0  0  0  0  0  0  0
   19.8379   41.5144   69.6630 C   0  0  0  0  0  0  0  0  0  0  0  0
   21.2757   41.0634   69.9153 C   0  0  0  0  0  0  0  0  0  0  0  0
   21.9630   40.6988   68.6116 C   0  0  0  0  0  0  0  0  0  0  0  0
   21.5801   41.3000   67.6033 O   0  0  0  0  0  0  0  0  0  0  0  0
   22.8665   39.8229   68.6519 O   0  0  0  0  0  0  0  0  0  0  0  0
   23.0910   39.4185   69.4668 H   0  0  0  0  0  0  0  0  0  0  0  0
 14 15  1  0  0  0
 14 19  2  0  0  0
 15 16  2  0  0  0
 16 17  1  0  0  0
 17 18  2  0  0  0
 18 19  1  0  0  0
 19 13  1  0  0  0
 13 12  1  0  0  0
 12  6  1  0  0  0
  6  7  1  0  0  0
  6  9  2  0  0  0
  7  8  2  0  0  0
  8 11  1  0  0  0
  9 10  1  0  0  0
 10 11  2  0  0  0
 11  5  1  0  0  0
  5  1  1  0  0  0
  1  2  1  0  0  0
  1 20  1  0  0  0
 20 21  1  0  0  0
 21 22  1  0  0  0
 21 23  1  0  0  0
 23 24  2  0  0  0
 23 26  1  0  0  0
 26 27  1  0  0  0
 27 28  1  0  0  0
 28 29  1  0  0  0
 29 30  1  0  0  0
 30 31  2  0  0  0
 30 32  1  0  0  0
  2  3  1  0  0  0
  2  4  1  0  0  0
 22 25  1  0  0  0
 32 33  1  0  0  0
M  END
> <minimizedAffinity>
-10.02456

$$$$
2VJ8_HA2_A_1616


 33 34  0  0  0  0  0  0  0  0999 V2000
   15.9085   42.1902   64.5779 C   0  0  0  0  0  0  0  0  0  0  0  0
   16.0115   40.9002   65.2616 N   0  0  0  0  0  0  0  0  0  0  0  0
   15.2099   40.7785   65.8804 H   0  0  0  0  0  0  0  0  0  0  0  0
   16.8713   40.8736   65.8097 H   0  0  0  0  0  0  0  0  0  0  0  0
   14.6120   42.2379   63.7149 C   0  0  0  0  0  0  0  0  0  0  0  0
   11.1004   42.1829   66.2856 C   0  0  0  0  0  0  0  0  0  0  0  0
   11.2708   43.2342   65.3606 C   0  0  0  0  0  0  0  0  0  0  0  0
   12.3962   43.2509   64.5089 C   0  0  0  0  0  0  0  0  0  0  0  0
   12.0584   41.1369   66.3497 C   0  0  0  0  0  0  0  0  0  0  0  0
   13.1804   41.1612   65.5025 C   0  0  0  0  0  0  0  0  0  0  0  0
   13.3496   42.2180   64.5894 C   0  0  0  0  0  0  0  0  0  0  0  0
    9.9573   42.1592   67.1460 O   0  0  0  0  0  0  0  0  0  0  0  0
    8.6987   41.5920   66.7832 C   0  0  0  0  0  0  0  0  0  0  0  0
    8.0667   40.5085   69.0134 C   0  0  0  0  0  0  0  0  0  0  0  0
    7.7756   39.3550   69.7649 C   0  0  0  0  0  0  0  0  0  0  0  0
    7.7678   38.0809   69.1792 C   0  0  0  0  0  0  0  0  0  0  0  0
    8.0589   37.9509   67.8042 C   0  0  0  0  0  0  0  0  0  0  0  0
    8.3624   39.1018   67.0480 C   0  0  0  0  0  0  0  0  0  0  0  0
    8.3698   40.3762   67.6378 C   0  0  0  0  0  0  0  0  0  0  0  0
   15.8962   43.3187   65.6328 C   0  0  0  0  0  0  0  0  0  0  0  0
   17.0794   43.2417   66.5311 N   0  0  0  0  0  0  0  0  0  0  0  0
   16.9588   42.6838   67.7501 O   0  0  0  0  0  0  0  0  0  0  0  0
   18.2638   43.7520   66.1279 C   0  0  0  0  0  0  0  0  0  0  0  0
   18.3759   44.3034   65.0209 O   0  0  0  0  0  0  0  0  0  0  0  0
   16.0489   42.3716   67.8742 H   0  0  0  0  0  0  0  0  0  0  0  0
   19.4541   43.6651   67.0647 C   0  0  0  0  0  0  0  0  0  0  0  0
   20.6386   42.9851   66.3873 C   0  0  0  0  0  0  0  0  0  0  0  0
   21.5450   42.3511   67.4374 C   0  0  0  0  0  0  0  0  0  0  0  0
   20.9297   41.0501   67.9503 C   0  0  0  0  0  0  0  0  0  0  0  0
   21.7907   40.4400   69.0418 C   0  0  0  0  0  0  0  0  0  0  0  0
   21.3888   40.5820   70.2007 O   0  0  0  0  0  0  0  0  0  0  0  0
   22.8386   39.8364   68.6912 O   0  0  0  0  0  0  0  0  0  0  0  0
   23.0647   39.7789   67.7837 H   0  0  0  0  0  0  0  0  0  0  0  0
 14 15  1  0  0  0
 14 19  2  0  0  0
 15 16  2  0  0  0
 16 17  1  0  0  0
 17 18  2  0  0  0
 18 19  1  0  0  0
 19 13  1  0  0  0
 13 12  1  0  0  0
 12  6  1  0  0  0
  6  7  1  0  0  0
  6  9  2  0  0  0
  7  8  2  0  0  0
  8 11  1  0  0  0
  9 10  1  0  0  0
 10 11  2  0  0  0
 11  5  1  0  0  0
  5  1  1  0  0  0
  1  2  1  0  0  0
  1 20  1  0  0  0
 20 21  1  0  0  0
 21 22  1  0  0  0
 21 23  1  0  0  0
 23 24  2  0  0  0
 23 26  1  0  0  0
 26 27  1  0  0  0
 27 28  1  0  0  0
 28 29  1  0  0  0
 29 30  1  0  0  0
 30 31  2  0  0  0
 30 32  1  0  0  0
  2  3  1  0  0  0
  2  4  1  0  0  0
 22 25  1  0  0  0
 32 33  1  0  0  0
M  END
> <minimizedAffinity>
-10.01655

$$$$
2VJ8_HA2_A_1616


 33 34  0  0  0  0  0  0  0  0999 V2000
   11.3425   41.6432   65.9950 C   0  0  0  0  0  0  0  0  0  0  0  0
   12.1751   40.8466   66.8975 N   0  0  0  0  0  0  0  0  0  0  0  0
   12.5115   41.4361   67.6589 H   0  0  0  0  0  0  0  0  0  0  0  0
   12.9706   40.4697   66.3823 H   0  0  0  0  0  0  0  0  0  0  0  0
   10.1077   42.2059   66.7609 C   0  0  0  0  0  0  0  0  0  0  0  0
    7.6751   39.0880   68.5787 C   0  0  0  0  0  0  0  0  0  0  0  0
    8.3756   38.8183   67.3843 C   0  0  0  0  0  0  0  0  0  0  0  0
    9.1826   39.8164   66.7974 C   0  0  0  0  0  0  0  0  0  0  0  0
    7.7928   40.3624   69.1936 C   0  0  0  0  0  0  0  0  0  0  0  0
    8.5941   41.3548   68.6019 C   0  0  0  0  0  0  0  0  0  0  0  0
    9.2819   41.0826   67.4052 C   0  0  0  0  0  0  0  0  0  0  0  0
    6.8612   38.0764   69.1800 O   0  0  0  0  0  0  0  0  0  0  0  0
    6.6175   37.9796   70.5831 C   0  0  0  0  0  0  0  0  0  0  0  0
    7.7537   35.8204   71.3537 C   0  0  0  0  0  0  0  0  0  0  0  0
    8.8076   35.1748   72.0262 C   0  0  0  0  0  0  0  0  0  0  0  0
    9.8480   35.8994   72.6256 C   0  0  0  0  0  0  0  0  0  0  0  0
    9.8387   37.3090   72.5537 C   0  0  0  0  0  0  0  0  0  0  0  0
    8.7794   37.9625   71.8909 C   0  0  0  0  0  0  0  0  0  0  0  0
    7.7390   37.2337   71.2921 C   0  0  0  0  0  0  0  0  0  0  0  0
   12.1904   42.7976   65.4165 C   0  0  0  0  0  0  0  0  0  0  0  0
   13.6471   42.5231   65.5411 N   0  0  0  0  0  0  0  0  0  0  0  0
   14.2981   42.8634   66.6690 O   0  0  0  0  0  0  0  0  0  0  0  0
   14.3142   41.9538   64.5131 C   0  0  0  0  0  0  0  0  0  0  0  0
   13.7309   41.6717   63.4538 O   0  0  0  0  0  0  0  0  0  0  0  0
   13.6723   43.2563   67.2975 H   0  0  0  0  0  0  0  0  0  0  0  0
   15.8005   41.6886   64.6636 C   0  0  0  0  0  0  0  0  0  0  0  0
   16.5922   42.9913   64.6853 C   0  0  0  0  0  0  0  0  0  0  0  0
   17.7962   42.8533   65.6113 C   0  0  0  0  0  0  0  0  0  0  0  0
   18.0100   44.1465   66.3962 C   0  0  0  0  0  0  0  0  0  0  0  0
   17.1437   44.1700   67.6427 C   0  0  0  0  0  0  0  0  0  0  0  0
   16.7379   45.2778   68.0074 O   0  0  0  0  0  0  0  0  0  0  0  0
   16.9004   43.0709   68.2066 O   0  0  0  0  0  0  0  0  0  0  0  0
   17.2532   42.2766   67.8566 H   0  0  0  0  0  0  0  0  0  0  0  0
 14 15  1  0  0  0
 14 19  2  0  0  0
 15 16  2  0  0  0
 16 17  1  0  0  0
 17 18  2  0  0  0
 18 19  1  0  0  0
 19 13  1  0  0  0
 13 12  1  0  0  0
 12  6  1  0  0  0
  6  7  1  0  0  0
  6  9  2  0  0  0
  7  8  2  0  0  0
  8 11  1  0  0  0
  9 10  1  0  0  0
 10 11  2  0  0  0
 11  5  1  0  0  0
  5  1  1  0  0  0
  1  2  1  0  0  0
  1 20  1  0  0  0
 20 21  1  0  0  0
 21 22  1  0  0  0
 21 23  1  0  0  0
 23 24  2  0  0  0
 23 26  1  0  0  0
 26 27  1  0  0  0
 27 28  1  0  0  0
 28 29  1  0  0  0
 29 30  1  0  0  0
 30 31  2  0  0  0
 30 32  1  0  0  0
  2  3  1  0  0  0
  2  4  1  0  0  0
 22 25  1  0  0  0
 32 33  1  0  0  0
M  END
> <minimizedAffinity>
-9.73825

$$$$
2VJ8_HA2_A_1616


 33 34  0  0  0  0  0  0  0  0999 V2000
   14.8186   42.5007   65.6623 C   0  0  0  0  0  0  0  0  0  0  0  0
   15.0002   43.5366   66.6802 N   0  0  0  0  0  0  0  0  0  0  0  0
   15.2306   44.4212   66.2276 H   0  0  0  0  0  0  0  0  0  0  0  0
   15.7584   43.2680   67.3073 H   0  0  0  0  0  0  0  0  0  0  0  0
   13.6460   42.8836   64.7104 C   0  0  0  0  0  0  0  0  0  0  0  0
    9.7405   41.8503   66.3299 C   0  0  0  0  0  0  0  0  0  0  0  0
   10.8611   41.0561   66.6518 C   0  0  0  0  0  0  0  0  0  0  0  0
   12.1353   41.3940   66.1476 C   0  0  0  0  0  0  0  0  0  0  0  0
    9.9004   42.9956   65.5062 C   0  0  0  0  0  0  0  0  0  0  0  0
   11.1712   43.3248   65.0023 C   0  0  0  0  0  0  0  0  0  0  0  0
   12.2827   42.5227   65.3189 C   0  0  0  0  0  0  0  0  0  0  0  0
    8.4484   41.5145   66.8446 O   0  0  0  0  0  0  0  0  0  0  0  0
    8.1408   41.4368   68.2363 C   0  0  0  0  0  0  0  0  0  0  0  0
    7.8036   38.9457   67.7592 C   0  0  0  0  0  0  0  0  0  0  0  0
    7.6609   37.6268   68.2284 C   0  0  0  0  0  0  0  0  0  0  0  0
    7.7101   37.3261   69.5973 C   0  0  0  0  0  0  0  0  0  0  0  0
    7.9067   38.3697   70.5270 C   0  0  0  0  0  0  0  0  0  0  0  0
    8.0391   39.6951   70.0640 C   0  0  0  0  0  0  0  0  0  0  0  0
    7.9890   39.9926   68.6925 C   0  0  0  0  0  0  0  0  0  0  0  0
   16.1321   42.3442   64.8645 C   0  0  0  0  0  0  0  0  0  0  0  0
   17.1935   43.2541   65.3727 N   0  0  0  0  0  0  0  0  0  0  0  0
   17.1725   44.5582   65.0400 O   0  0  0  0  0  0  0  0  0  0  0  0
   18.1856   42.7630   66.1475 C   0  0  0  0  0  0  0  0  0  0  0  0
   18.2355   41.5544   66.4280 O   0  0  0  0  0  0  0  0  0  0  0  0
   16.3977   44.7379   64.4848 H   0  0  0  0  0  0  0  0  0  0  0  0
   19.2587   43.7111   66.6492 C   0  0  0  0  0  0  0  0  0  0  0  0
   18.8579   44.3416   67.9781 C   0  0  0  0  0  0  0  0  0  0  0  0
   19.3277   43.4636   69.1334 C   0  0  0  0  0  0  0  0  0  0  0  0
   20.6523   42.7893   68.7797 C   0  0  0  0  0  0  0  0  0  0  0  0
   21.8230   43.5654   69.3559 C   0  0  0  0  0  0  0  0  0  0  0  0
   22.4152   44.3209   68.5792 O   0  0  0  0  0  0  0  0  0  0  0  0
   22.1005   43.3886   70.5711 O   0  0  0  0  0  0  0  0  0  0  0  0
   21.5931   42.7920   71.0856 H   0  0  0  0  0  0  0  0  0  0  0  0
 14 15  1  0  0  0
 14 19  2  0  0  0
 15 16  2  0  0  0
 16 17  1  0  0  0
 17 18  2  0  0  0
 18 19  1  0  0  0
 19 13  1  0  0  0
 13 12  1  0  0  0
 12  6  1  0  0  0
  6  7  1  0  0  0
  6  9  2  0  0  0
  7  8  2  0  0  0
  8 11  1  0  0  0
  9 10  1  0  0  0
 10 11  2  0  0  0
 11  5  1  0  0  0
  5  1  1  0  0  0
  1  2  1  0  0  0
  1 20  1  0  0  0
 20 21  1  0  0  0
 21 22  1  0  0  0
 21 23  1  0  0  0
 23 24  2  0  0  0
 23 26  1  0  0  0
 26 27  1  0  0  0
 27 28  1  0  0  0
 28 29  1  0  0  0
 29 30  1  0  0  0
 30 31  2  0  0  0
 30 32  1  0  0  0
  2  3  1  0  0  0
  2  4  1  0  0  0
 22 25  1  0  0  0
 32 33  1  0  0  0
M  END
> <minimizedAffinity>
-9.69409

$$$$
2VJ8_HA2_A_1616


 33 34  0  0  0  0  0  0  0  0999 V2000
    8.7822   41.9896   66.5222 C   0  0  0  0  0  0  0  0  0  0  0  0
    7.9136   43.1129   66.8771 N   0  0  0  0  0  0  0  0  0  0  0  0
    7.7105   43.0831   67.8762 H   0  0  0  0  0  0  0  0  0  0  0  0
    7.0422   43.0483   66.3508 H   0  0  0  0  0  0  0  0  0  0  0  0
   10.1295   42.0870   67.2989 C   0  0  0  0  0  0  0  0  0  0  0  0
   13.5012   42.1296   64.5470 C   0  0  0  0  0  0  0  0  0  0  0  0
   12.5610   43.1808   64.5139 C   0  0  0  0  0  0  0  0  0  0  0  0
   11.4749   43.1863   65.4152 C   0  0  0  0  0  0  0  0  0  0  0  0
   13.3572   41.0835   65.4961 C   0  0  0  0  0  0  0  0  0  0  0  0
   12.2705   41.0913   66.3883 C   0  0  0  0  0  0  0  0  0  0  0  0
   11.3308   42.1372   66.3432 C   0  0  0  0  0  0  0  0  0  0  0  0
   14.6072   42.1242   63.6391 O   0  0  0  0  0  0  0  0  0  0  0  0
   15.9250   41.7040   63.9915 C   0  0  0  0  0  0  0  0  0  0  0  0
   15.7857   43.6185   65.6833 C   0  0  0  0  0  0  0  0  0  0  0  0
   16.3063   44.2891   66.8053 C   0  0  0  0  0  0  0  0  0  0  0  0
   17.4543   43.8295   67.4669 C   0  0  0  0  0  0  0  0  0  0  0  0
   18.1038   42.6678   66.9970 C   0  0  0  0  0  0  0  0  0  0  0  0
   17.5935   41.9975   65.8661 C   0  0  0  0  0  0  0  0  0  0  0  0
   16.4439   42.4607   65.2059 C   0  0  0  0  0  0  0  0  0  0  0  0
    8.0584   40.6677   66.8614 C   0  0  0  0  0  0  0  0  0  0  0  0
    7.9966   40.4383   68.3299 N   0  0  0  0  0  0  0  0  0  0  0  0
    7.7757   41.4744   69.1603 O   0  0  0  0  0  0  0  0  0  0  0  0
    8.1844   39.1950   68.8245 C   0  0  0  0  0  0  0  0  0  0  0  0
    8.4273   38.2393   68.0697 O   0  0  0  0  0  0  0  0  0  0  0  0
    7.6632   42.2862   68.6415 H   0  0  0  0  0  0  0  0  0  0  0  0
    8.1211   38.9883   70.3263 C   0  0  0  0  0  0  0  0  0  0  0  0
    8.0594   37.5055   70.6752 C   0  0  0  0  0  0  0  0  0  0  0  0
    7.8924   37.3318   72.1812 C   0  0  0  0  0  0  0  0  0  0  0  0
    8.6214   36.0744   72.6521 C   0  0  0  0  0  0  0  0  0  0  0  0
    9.7427   36.4290   73.6121 C   0  0  0  0  0  0  0  0  0  0  0  0
   10.1307   35.5257   74.3593 O   0  0  0  0  0  0  0  0  0  0  0  0
   10.1945   37.6036   73.5754 O   0  0  0  0  0  0  0  0  0  0  0  0
    9.8362   38.2247   72.9722 H   0  0  0  0  0  0  0  0  0  0  0  0
 14 15  1  0  0  0
 14 19  2  0  0  0
 15 16  2  0  0  0
 16 17  1  0  0  0
 17 18  2  0  0  0
 18 19  1  0  0  0
 19 13  1  0  0  0
 13 12  1  0  0  0
 12  6  1  0  0  0
  6  7  1  0  0  0
  6  9  2  0  0  0
  7  8  2  0  0  0
  8 11  1  0  0  0
  9 10  1  0  0  0
 10 11  2  0  0  0
 11  5  1  0  0  0
  5  1  1  0  0  0
  1  2  1  0  0  0
  1 20  1  0  0  0
 20 21  1  0  0  0
 21 22  1  0  0  0
 21 23  1  0  0  0
 23 24  2  0  0  0
 23 26  1  0  0  0
 26 27  1  0  0  0
 27 28  1  0  0  0
 28 29  1  0  0  0
 29 30  1  0  0  0
 30 31  2  0  0  0
 30 32  1  0  0  0
  2  3  1  0  0  0
  2  4  1  0  0  0
 22 25  1  0  0  0
 32 33  1  0  0  0
M  END
> <minimizedAffinity>
-9.61810

$$$$
2VJ8_HA2_A_1616


 33 34  0  0  0  0  0  0  0  0999 V2000
   17.4672   43.2423   65.6753 C   0  0  0  0  0  0  0  0  0  0  0  0
   17.2224   44.6826   65.5874 N   0  0  0  0  0  0  0  0  0  0  0  0
   17.5774   45.0342   64.6982 H   0  0  0  0  0  0  0  0  0  0  0  0
   17.6992   45.1560   66.3549 H   0  0  0  0  0  0  0  0  0  0  0  0
   16.7242   42.5007   64.5239 C   0  0  0  0  0  0  0  0  0  0  0  0
   12.6383   41.5085   65.6485 C   0  0  0  0  0  0  0  0  0  0  0  0
   13.1939   42.7397   66.0551 C   0  0  0  0  0  0  0  0  0  0  0  0
   14.5111   43.0794   65.6790 C   0  0  0  0  0  0  0  0  0  0  0  0
   13.4044   40.6173   64.8517 C   0  0  0  0  0  0  0  0  0  0  0  0
   14.7181   40.9584   64.4842 C   0  0  0  0  0  0  0  0  0  0  0  0
   15.2696   42.1834   64.9016 C   0  0  0  0  0  0  0  0  0  0  0  0
   11.3009   41.1637   66.0223 O   0  0  0  0  0  0  0  0  0  0  0  0
   10.3653   42.0881   66.5769 C   0  0  0  0  0  0  0  0  0  0  0  0
    8.4663   42.1096   68.2918 C   0  0  0  0  0  0  0  0  0  0  0  0
    7.5303   41.4121   69.0774 C   0  0  0  0  0  0  0  0  0  0  0  0
    7.4274   40.0144   69.0272 C   0  0  0  0  0  0  0  0  0  0  0  0
    8.2822   39.2892   68.1695 C   0  0  0  0  0  0  0  0  0  0  0  0
    9.2301   39.9815   67.3878 C   0  0  0  0  0  0  0  0  0  0  0  0
    9.3307   41.3812   67.4409 C   0  0  0  0  0  0  0  0  0  0  0  0
   18.9879   42.9847   65.5898 C   0  0  0  0  0  0  0  0  0  0  0  0
   19.5787   42.7412   66.9332 N   0  0  0  0  0  0  0  0  0  0  0  0
   19.6359   41.4883   67.4219 O   0  0  0  0  0  0  0  0  0  0  0  0
   20.0346   43.7812   67.6655 C   0  0  0  0  0  0  0  0  0  0  0  0
   19.9510   44.9448   67.2402 O   0  0  0  0  0  0  0  0  0  0  0  0
   19.2692   40.8701   66.7705 H   0  0  0  0  0  0  0  0  0  0  0  0
   20.6283   43.5066   69.0346 C   0  0  0  0  0  0  0  0  0  0  0  0
   19.7803   44.1311   70.1370 C   0  0  0  0  0  0  0  0  0  0  0  0
   18.3101   43.7883   69.9200 C   0  0  0  0  0  0  0  0  0  0  0  0
   17.4334   45.0001   70.2319 C   0  0  0  0  0  0  0  0  0  0  0  0
   17.2189   45.8446   68.9888 C   0  0  0  0  0  0  0  0  0  0  0  0
   16.3232   45.4755   68.2231 O   0  0  0  0  0  0  0  0  0  0  0  0
   17.9581   46.8516   68.8311 O   0  0  0  0  0  0  0  0  0  0  0  0
   18.6147   47.0550   69.4678 H   0  0  0  0  0  0  0  0  0  0  0  0
 14 15  1  0  0  0
 14 19  2  0  0  0
 15 16  2  0  0  0
 16 17  1  0  0  0
 17 18  2  0  0  0
 18 19  1  0  0  0
 19 13  1  0  0  0
 13 12  1  0  0  0
 12  6  1  0  0  0
  6  7  1  0  0  0
  6  9  2  0  0  0
  7  8  2  0  0  0
  8 11  1  0  0  0
  9 10  1  0  0  0
 10 11  2  0  0  0
 11  5  1  0  0  0
  5  1  1  0  0  0
  1  2  1  0  0  0
  1 20  1  0  0  0
 20 21  1  0  0  0
 21 22  1  0  0  0
 21 23  1  0  0  0
 23 24  2  0  0  0
 23 26  1  0  0  0
 26 27  1  0  0  0
 27 28  1  0  0  0
 28 29  1  0  0  0
 29 30  1  0  0  0
 30 31  2  0  0  0
 30 32  1  0  0  0
  2  3  1  0  0  0
  2  4  1  0  0  0
 22 25  1  0  0  0
 32 33  1  0  0  0
M  END
> <minimizedAffinity>
-9.54314

$$$$
