3LPP_KTL_B_5001
  RCSB PDB12061709383D
Coordinates from PDB:3LPP:B:5001 Model:1 without hydrogens
 26 26  0  0  0  0            999 V2000
   42.6470   59.5550   72.8240   O 0  0  0  0  0  0  0  0  0  0  0  0
   40.0720   55.7350   84.0270   O 0  0  0  0  0  0  0  0  0  0  0  0
   41.2560   57.7780   74.3250   O 0  0  0  0  0  0  0  0  0  0  0  0
   36.5150   59.1090   83.8500   O 0  0  0  0  0  0  0  0  0  0  0  0
   37.6510   58.0580   78.7070   O 0  0  0  0  0  0  0  0  0  0  0  0
   38.7030   59.3910   73.9830   O 0  0  0  0  0  0  0  0  0  0  0  0
   39.1760   58.8960   84.8880   O 0  0  0  0  0  0  0  0  0  0  0  0
   39.6160   57.1640   75.9630   O 0  0  0  0  0  0  0  0  0  0  0  0
   41.6450   61.4230   76.9670   O 0  0  0  0  0  0  0  0  0  0  0  0
   41.1400   61.0200   79.2730   O 0  5  0  0  0  0  0  0  0  0  0  0
   43.1830   60.1080   78.3000   O 0  0  0  0  0  0  0  0  0  0  0  0
   41.4410   60.0520   73.4210   C 0  0  0  0  0  0  0  0  0  0  0  0
   40.7500   56.6760   83.1940   C 0  0  0  0  0  0  0  0  0  0  0  0
   37.4150   58.0280   81.7850   C 0  0  0  0  0  0  0  0  0  0  0  0
   39.5710   58.4240   80.1450   C 0  0  0  0  0  0  0  0  0  0  0  0
   41.0030   59.0560   77.6610   O 0  0  0  0  0  0  0  0  0  0  0  0
   41.0630   59.1770   74.6210   C 0  0  0  0  0  0  0  0  0  0  0  0
   37.6700   58.8820   83.0350   C 0  0  0  0  0  0  0  0  0  0  0  0
   39.0800   58.0570   78.7400   C 0  0  0  0  0  0  0  0  0  0  0  0
   39.6290   59.4520   75.0930   C 0  0  0  0  0  0  0  0  0  0  0  0
   38.7240   58.1130   83.8030   C 0  0  0  0  0  0  0  0  0  0  0  0
   39.1640   58.5140   76.2170   C 0  0  0  0  0  0  0  0  0  0  0  0
   39.8110   57.8080   82.7770   C 0  0  0  0  0  0  0  0  0  0  0  0
   39.5880   58.9840   77.6190   C 0  0  0  0  0  0  0  0  0  0  0  0
   38.9440   57.4870   81.3760   S 0  3  0  0  0  0  0  0  0  0  0  0
   41.7600   60.4420   78.0570   S 0  0  0  0  0  0  0  0  0  0  0  0
  1 12  1  0  0  0  0
  2 13  1  0  0  0  0
  3 17  1  0  0  0  0
  4 18  1  0  0  0  0
  5 19  1  0  0  0  0
  6 20  1  0  0  0  0
  7 21  1  0  0  0  0
  8 22  1  0  0  0  0
  9 26  2  0  0  0  0
 10 26  1  0  0  0  0
 11 26  2  0  0  0  0
 12 17  1  0  0  0  0
 13 23  1  0  0  0  0
 14 18  1  0  0  0  0
 14 25  1  0  0  0  0
 15 19  1  0  0  0  0
 15 25  1  0  0  0  0
 16 24  1  0  0  0  0
 16 26  1  0  0  0  0
 17 20  1  0  0  0  0
 18 21  1  0  0  0  0
 19 24  1  0  0  0  0
 20 22  1  0  0  0  0
 21 23  1  0  0  0  0
 22 24  1  0  0  0  0
 23 25  1  0  0  0  0
M  CHG  2  10  -1  25   1
A    1
OAA
A    2
OAB
A    3
OAC
A    4
OAD
A    5
OAE
A    6
OAF
A    7
OAG
A    8
OAH
A    9
OAI
A   10
OAJ
A   11
OAK
A   12
CAL
A   13
CAM
A   14
CAN
A   15
CAO
A   16
OAP
A   17
CAQ
A   18
CAR
A   19
CAS
A   20
CAT
A   21
CAU
A   22
CAV
A   23
CAW
A   24
CAX
A   25
SAY
A   26
SAZ
M  END
>  <InstanceId>
3LPP_KTL_B_5001

>  <ChemCompId>
KTL

>  <PdbId>
3LPP

>  <ChainId>
B

>  <ResidueNumber>
5001

>  <InsertionCode>


>  <Model>
1

>  <AltIds>


>  <MissingHeavyAtoms>
0

>  <ObservedFormula>
C12 O12 S2

>  <Name>
(1S,2R,3R,4S)-1-{(1S)-2-[(2R,3S,4S)-3,4-dihydroxy-2-(hydroxymethyl)tetrahydrothiophenium-1-yl]-1-hydroxyethyl}-2,3,4,5-tetrahydroxypentyl sulfate

>  <SystematicName>
[(2S,3S,4R,5R,6S)-1-[(1S,2R,3S,4S)-3,4-dihydroxy-2-(hydroxymethyl)thiolan-1-ium-1-yl]-2,4,5,6,7-pentahydroxy-heptan-3-yl] sulfate

>  <Synonyms>


>  <Type>
NON-POLYMER

>  <Formula>
C12 H24 O12 S2

>  <MolecularWeight>
424.442

>  <ModifiedDate>
2011-06-04

>  <Parent>


>  <OneLetterCode>


>  <SubcomponentList>


>  <AmbiguousFlag>
N

>  <InChI>
InChI=1S/C12H24O12S2/c13-1-5(15)10(19)11(20)12(24-26(21,22)23)7(17)4-25-3-6(16)9(18)8(25)2-14/h5-20H,1-4H2/t5-,6+,7+,8+,9-,10+,11+,12+,25-/m0/s1

>  <InChIKey>
OMKXVFDVAGCPBS-QTIKZJLFSA-N

>  <SMILES>
C1[C@H]([C@@H]([C@H]([S@@+]1C[C@H]([C@H]([C@@H]([C@@H]([C@H](CO)O)O)O)OS(=O)(=O)[O-])O)CO)O)O

$$$$
