2R5P_MK1_B_902
  RCSB PDB12061706533D
Coordinates from PDB:2R5P:B:902 Model:1 without hydrogens
 45 49  0  0  0  0            999 V2000
   26.4360   -8.3120   -1.5830   N 0  0  0  0  0  0  0  0  0  0  0  0
   27.9290   -8.3930   -1.5440   C 0  0  0  0  0  0  0  0  0  0  0  0
   28.4980   -9.5290   -2.4010   C 0  0  0  0  0  0  0  0  0  0  0  0
   30.0200   -9.5050   -2.2950   C 0  0  0  0  0  0  0  0  0  0  0  0
   30.5500   -9.8940   -1.2470   O 0  0  0  0  0  0  0  0  0  0  0  0
   30.6940   -9.0480   -3.3730   N 0  0  0  0  0  0  0  0  0  0  0  0
   32.1510   -8.9380   -3.5100   C 0  0  0  0  0  0  0  0  0  0  0  0
   32.3650   -8.3490   -4.9030   C 0  0  0  0  0  0  0  0  0  0  0  0
   32.7860  -10.3210   -3.4480   C 0  0  0  0  0  0  0  0  0  0  0  0
   32.7520   -7.9740   -2.4800   C 0  0  0  0  0  0  0  0  0  0  0  0
   27.8750  -10.8290   -1.8520   N 0  0  0  0  0  0  0  0  0  0  0  0
   26.3900  -10.8170   -1.9150   C 0  0  0  0  0  0  0  0  0  0  0  0
   25.8920   -9.6050   -1.1300   C 0  0  0  0  0  0  0  0  0  0  0  0
   28.3230  -12.0320   -2.6040   C 0  0  0  0  0  0  0  0  0  0  0  0
   28.6030  -13.2040   -1.6400   C 0  0  0  0  0  0  0  0  0  0  0  0
   28.2070  -14.3830   -2.3530   O 0  0  0  0  0  0  0  0  0  0  0  0
   30.0940  -13.3640   -1.2560   C 0  0  0  0  0  0  0  0  0  0  0  0
   30.3800  -14.5220   -0.2780   C 0  0  0  0  0  0  0  0  0  0  0  0
   31.9030  -14.6030    0.0040   C 0  0  0  0  0  0  0  0  0  0  0  0
   32.2710  -15.7110    0.9750   C 0  0  0  0  0  0  0  0  0  0  0  0
   31.9590  -17.0730    0.7120   C 0  0  0  0  0  0  0  0  0  0  0  0
   32.2940  -18.0880    1.6280   C 0  0  0  0  0  0  0  0  0  0  0  0
   32.9530  -17.7250    2.8300   C 0  0  0  0  0  0  0  0  0  0  0  0
   33.2690  -16.3760    3.1010   C 0  0  0  0  0  0  0  0  0  0  0  0
   32.9290  -15.3610    2.1760   C 0  0  0  0  0  0  0  0  0  0  0  0
   29.6300  -14.3110    1.0470   C 0  0  0  0  0  0  0  0  0  0  0  0
   29.5680  -13.2300    1.6440   O 0  0  0  0  0  0  0  0  0  0  0  0
   29.0600  -15.4200    1.5200   N 0  0  0  0  0  0  0  0  0  0  0  0
   28.6760  -15.6000    2.8800   C 0  0  0  0  0  0  0  0  0  0  0  0
   28.9850  -16.9600    3.4790   C 0  0  0  0  0  0  0  0  0  0  0  0
   28.8000  -18.0050    2.5130   O 0  0  0  0  0  0  0  0  0  0  0  0
   28.0110  -17.1060    4.6180   C 0  0  0  0  0  0  0  0  0  0  0  0
   26.7800  -16.3380    4.1890   C 0  0  0  0  0  0  0  0  0  0  0  0
   25.4220  -16.3750    4.6140   C 0  0  0  0  0  0  0  0  0  0  0  0
   24.4970  -15.5160    4.0040   C 0  0  0  0  0  0  0  0  0  0  0  0
   24.8650  -14.6250    2.9830   C 0  0  0  0  0  0  0  0  0  0  0  0
   26.2050  -14.5930    2.5660   C 0  0  0  0  0  0  0  0  0  0  0  0
   27.1900  -15.4310    3.1370   C 0  0  0  0  0  0  0  0  0  0  0  0
   25.9490   -7.1870   -0.7530   C 0  0  0  0  0  0  0  0  0  0  0  0
   26.3920   -5.7760   -1.0760   C 0  0  0  0  0  0  0  0  0  0  0  0
   25.9800   -5.1460   -2.2680   C 0  0  0  0  0  0  0  0  0  0  0  0
   26.3330   -3.8390   -2.6700   N 0  0  0  0  0  0  0  0  0  0  0  0
   27.1670   -3.2090   -1.7210   C 0  0  0  0  0  0  0  0  0  0  0  0
   27.6260   -3.7530   -0.5110   C 0  0  0  0  0  0  0  0  0  0  0  0
   27.2300   -5.0630   -0.1810   C 0  0  0  0  0  0  0  0  0  0  0  0
  1  2  1  0  0  0  0
  1 13  1  0  0  0  0
  1 39  1  0  0  0  0
  2  3  1  0  0  0  0
  3  4  1  0  0  0  0
  3 11  1  0  0  0  0
  4  5  2  0  0  0  0
  4  6  1  0  0  0  0
  6  7  1  0  0  0  0
  7  8  1  0  0  0  0
  7  9  1  0  0  0  0
  7 10  1  0  0  0  0
 11 12  1  0  0  0  0
 11 14  1  0  0  0  0
 12 13  1  0  0  0  0
 14 15  1  0  0  0  0
 15 16  1  0  0  0  0
 15 17  1  0  0  0  0
 17 18  1  0  0  0  0
 18 19  1  0  0  0  0
 18 26  1  0  0  0  0
 19 20  1  0  0  0  0
 20 21  2  0  0  0  0
 20 25  1  0  0  0  0
 21 22  1  0  0  0  0
 22 23  2  0  0  0  0
 23 24  1  0  0  0  0
 24 25  2  0  0  0  0
 26 27  2  0  0  0  0
 26 28  1  0  0  0  0
 28 29  1  0  0  0  0
 29 30  1  0  0  0  0
 29 38  1  0  0  0  0
 30 31  1  0  0  0  0
 30 32  1  0  0  0  0
 32 33  1  0  0  0  0
 33 34  2  0  0  0  0
 33 38  1  0  0  0  0
 34 35  1  0  0  0  0
 35 36  2  0  0  0  0
 36 37  1  0  0  0  0
 37 38  2  0  0  0  0
 39 40  1  0  0  0  0
 40 41  1  0  0  0  0
 40 45  2  0  0  0  0
 41 42  2  0  0  0  0
 42 43  1  0  0  0  0
 43 44  2  0  0  0  0
 44 45  1  0  0  0  0
A    1
N1
A    2
C1
A    3
C2
A    4
C3
A    5
O1
A    6
N2
A    7
C4
A    8
C5
A    9
C6
A   10
C7
A   11
N3
A   12
C8
A   13
C9
A   14
C10
A   15
C11
A   16
O2
A   17
C12
A   18
C13
A   19
C14
A   20
C15
A   21
C16
A   22
C17
A   23
C18
A   24
C19
A   25
C20
A   26
C21
A   27
O3
A   28
N4
A   29
C22
A   30
C23
A   31
O4
A   32
C24
A   33
C25
A   34
C26
A   35
C27
A   36
C28
A   37
C29
A   38
C30
A   39
C31
A   40
C32
A   41
C33
A   42
N5
A   43
C34
A   44
C35
A   45
C36
M  END
>  <InstanceId>
2R5P_MK1_B_902

>  <ChemCompId>
MK1

>  <PdbId>
2R5P

>  <ChainId>
B

>  <ResidueNumber>
902

>  <InsertionCode>


>  <Model>
1

>  <AltIds>


>  <MissingHeavyAtoms>
0

>  <ObservedFormula>
C36 N5 O4

>  <Name>
N-[2(R)-HYDROXY-1(S)-INDANYL]-5-[(2(S)-TERTIARY BUTYLAMINOCARBONYL)-4(3-PYRIDYLMETHYL)PIPERAZINO]-4(S)-HYDROXY-2(R)-PHENYLMETHYLPENTANAMIDE

>  <SystematicName>
(1S,2S,4R)-N-tert-butyl-1-[(2S,4R)-2-hydroxy-5-[[(1S,2R)-2-hydroxy-2,3-dihydro-1H-inden-1-yl]amino]-5-oxo-4-(phenylmethyl)pentyl]-4-(pyridin-3-ylmethyl)piperazine-2-carboxamide

>  <Synonyms>
INDINAVIR

>  <Type>
NON-POLYMER

>  <Formula>
C36 H47 N5 O4

>  <MolecularWeight>
613.789

>  <ModifiedDate>
2011-06-04

>  <Parent>


>  <OneLetterCode>


>  <SubcomponentList>


>  <AmbiguousFlag>
N

>  <InChI>
InChI=1S/C36H47N5O4/c1-36(2,3)39-35(45)31-24-40(22-26-12-9-15-37-21-26)16-17-41(31)23-29(42)19-28(18-25-10-5-4-6-11-25)34(44)38-33-30-14-8-7-13-27(30)20-32(33)43/h4-15,21,28-29,31-33,42-43H,16-20,22-24H2,1-3H3,(H,38,44)(H,39,45)/t28-,29+,31+,32-,33+/m1/s1

>  <InChIKey>
CBVCZFGXHXORBI-PXQQMZJSSA-N

>  <SMILES>
CC(C)(C)NC(=O)[C@@H]1C[N@@](CC[N@]1C[C@H](C[C@@H](Cc2ccccc2)C(=O)N[C@H]3c4ccccc4C[C@H]3O)O)Cc5cccnc5

$$$$
