2R5P_MK1_B_902


 49 53  0  0  0  0  0  0  0  0999 V2000
   28.6797  -12.9199   -1.5987 C   0  0  0  0  0  0  0  0  0  0  0  0
   28.3232  -14.1578   -2.2277 O   0  0  0  0  0  0  0  0  0  0  0  0
   28.8809  -14.2956   -3.0093 H   0  0  0  0  0  0  0  0  0  0  0  0
   28.4241  -11.8334   -2.6642 C   0  0  0  0  0  0  0  0  0  0  0  0
   26.3959   -8.1032   -2.0206 N   0  0  0  0  0  0  0  0  0  0  0  0
   27.8887   -8.1322   -1.9319 C   0  0  0  0  0  0  0  0  0  0  0  0
   28.5180   -9.3178   -2.6717 C   0  0  0  0  0  0  0  0  0  0  0  0
   27.9171  -10.5861   -2.0313 N   0  0  0  0  0  0  0  0  0  0  0  0
   26.4351  -10.6275   -2.1377 C   0  0  0  0  0  0  0  0  0  0  0  0
   25.8768   -9.3701   -1.4742 C   0  0  0  0  0  0  0  0  0  0  0  0
   30.0345   -9.2356   -2.5244 C   0  0  0  0  0  0  0  0  0  0  0  0
   30.5361   -9.4327   -1.4108 O   0  0  0  0  0  0  0  0  0  0  0  0
   30.7355   -8.9439   -3.6419 N   0  0  0  0  0  0  0  0  0  0  0  0
   30.2161   -8.8011   -4.4660 H   0  0  0  0  0  0  0  0  0  0  0  0
   32.1936   -8.8186   -3.7504 C   0  0  0  0  0  0  0  0  0  0  0  0
   32.4327   -8.2991   -5.1668 C   0  0  0  0  0  0  0  0  0  0  0  0
   32.8466  -10.1865   -3.6018 C   0  0  0  0  0  0  0  0  0  0  0  0
   32.7559   -7.7935   -2.7583 C   0  0  0  0  0  0  0  0  0  0  0  0
   25.8498   -6.9283   -1.3044 C   0  0  0  0  0  0  0  0  0  0  0  0
   26.2922   -5.5378   -1.7074 C   0  0  0  0  0  0  0  0  0  0  0  0
   26.0139   -5.0378   -2.9959 C   0  0  0  0  0  0  0  0  0  0  0  0
   26.3795   -3.7616   -3.4776 N   0  0  0  0  0  0  0  0  0  0  0  0
   27.0734   -3.0147   -2.5010 C   0  0  0  0  0  0  0  0  0  0  0  0
   27.3938   -3.4257   -1.1975 C   0  0  0  0  0  0  0  0  0  0  0  0
   26.9945   -4.7133   -0.7918 C   0  0  0  0  0  0  0  0  0  0  0  0
   30.1567  -13.0283   -1.1483 C   0  0  0  0  0  0  0  0  0  0  0  0
   30.4571  -14.2315   -0.2310 C   0  0  0  0  0  0  0  0  0  0  0  0
   29.6739  -14.1180    1.0867 C   0  0  0  0  0  0  0  0  0  0  0  0
   29.5954  -13.0837    1.7597 O   0  0  0  0  0  0  0  0  0  0  0  0
   29.0939  -15.2585    1.4626 N   0  0  0  0  0  0  0  0  0  0  0  0
   28.9453  -15.9495    0.7772 H   0  0  0  0  0  0  0  0  0  0  0  0
   28.6763  -15.5377    2.7957 C   0  0  0  0  0  0  0  0  0  0  0  0
   28.9408  -16.9487    3.2888 C   0  0  0  0  0  0  0  0  0  0  0  0
   28.7530  -17.9078    2.2379 O   0  0  0  0  0  0  0  0  0  0  0  0
   27.9391  -17.1617    4.3926 C   0  0  0  0  0  0  0  0  0  0  0  0
   26.7357  -16.3316    4.0027 C   0  0  0  0  0  0  0  0  0  0  0  0
   25.3683  -16.3691    4.3962 C   0  0  0  0  0  0  0  0  0  0  0  0
   24.4768  -15.4414    3.8394 C   0  0  0  0  0  0  0  0  0  0  0  0
   24.8874  -14.4805    2.9013 C   0  0  0  0  0  0  0  0  0  0  0  0
   26.2365  -14.4482    2.5150 C   0  0  0  0  0  0  0  0  0  0  0  0
   27.1893  -15.3534    3.0359 C   0  0  0  0  0  0  0  0  0  0  0  0
   27.8487  -17.8378    1.8941 H   0  0  0  0  0  0  0  0  0  0  0  0
   31.9757  -14.2845    0.0799 C   0  0  0  0  0  0  0  0  0  0  0  0
   32.3571  -15.4365    0.9928 C   0  0  0  0  0  0  0  0  0  0  0  0
   32.1725  -16.7923    0.6065 C   0  0  0  0  0  0  0  0  0  0  0  0
   32.5178  -17.8499    1.4689 C   0  0  0  0  0  0  0  0  0  0  0  0
   33.0567  -17.5367    2.7427 C   0  0  0  0  0  0  0  0  0  0  0  0
   33.2457  -16.1941    3.1363 C   0  0  0  0  0  0  0  0  0  0  0  0
   32.8961  -15.1362    2.2645 C   0  0  0  0  0  0  0  0  0  0  0  0
  5  6  1  0  0  0
  5 10  1  0  0  0
  5 19  1  0  0  0
  6  7  1  0  0  0
  7 11  1  0  0  0
  7  8  1  0  0  0
 11 12  2  0  0  0
 11 13  1  0  0  0
 13 15  1  0  0  0
 15 16  1  0  0  0
 15 17  1  0  0  0
 15 18  1  0  0  0
  8  9  1  0  0  0
  8  4  1  0  0  0
  9 10  1  0  0  0
  4  1  1  0  0  0
  1  2  1  0  0  0
  1 26  1  0  0  0
 26 27  1  0  0  0
 27 43  1  0  0  0
 27 28  1  0  0  0
 43 44  1  0  0  0
 44 45  2  0  0  0
 44 49  1  0  0  0
 45 46  1  0  0  0
 46 47  2  0  0  0
 47 48  1  0  0  0
 48 49  2  0  0  0
 28 29  2  0  0  0
 28 30  1  0  0  0
 30 32  1  0  0  0
 32 33  1  0  0  0
 32 41  1  0  0  0
 33 34  1  0  0  0
 33 35  1  0  0  0
 35 36  1  0  0  0
 36 37  2  0  0  0
 36 41  1  0  0  0
 37 38  1  0  0  0
 38 39  2  0  0  0
 39 40  1  0  0  0
 40 41  2  0  0  0
 19 20  1  0  0  0
 20 21  1  0  0  0
 20 25  2  0  0  0
 21 22  2  0  0  0
 22 23  1  0  0  0
 23 24  2  0  0  0
 24 25  1  0  0  0
 13 14  1  0  0  0
  2  3  1  0  0  0
 30 31  1  0  0  0
 34 42  1  0  0  0
M  END
> <minimizedAffinity>
-12.45203

$$$$
2R5P_MK1_B_902


 49 53  0  0  0  0  0  0  0  0999 V2000
   28.9286  -10.4397   -2.4015 C   0  0  0  0  0  0  0  0  0  0  0  0
   28.8017   -9.4802   -1.3440 O   0  0  0  0  0  0  0  0  0  0  0  0
   27.8774   -9.1940   -1.2762 H   0  0  0  0  0  0  0  0  0  0  0  0
   28.4794   -9.6995   -3.6788 C   0  0  0  0  0  0  0  0  0  0  0  0
   28.0534   -5.4593   -4.2088 N   0  0  0  0  0  0  0  0  0  0  0  0
   29.4058   -6.0721   -4.3892 C   0  0  0  0  0  0  0  0  0  0  0  0
   29.3563   -7.5721   -4.6996 C   0  0  0  0  0  0  0  0  0  0  0  0
   28.6234   -8.2283   -3.5114 N   0  0  0  0  0  0  0  0  0  0  0  0
   27.2527   -7.6859   -3.3210 C   0  0  0  0  0  0  0  0  0  0  0  0
   27.3639   -6.1758   -3.1206 C   0  0  0  0  0  0  0  0  0  0  0  0
   30.7838   -8.0814   -4.8757 C   0  0  0  0  0  0  0  0  0  0  0  0
   31.1977   -8.3096   -6.0190 O   0  0  0  0  0  0  0  0  0  0  0  0
   31.5075   -8.2542   -3.7480 N   0  0  0  0  0  0  0  0  0  0  0  0
   31.0589   -8.0439   -2.8972 H   0  0  0  0  0  0  0  0  0  0  0  0
   32.8953   -8.7240   -3.6642 C   0  0  0  0  0  0  0  0  0  0  0  0
   32.7882  -10.2477   -3.6608 C   0  0  0  0  0  0  0  0  0  0  0  0
   33.5232   -8.2631   -2.3554 C   0  0  0  0  0  0  0  0  0  0  0  0
   33.7183   -8.3000   -4.8866 C   0  0  0  0  0  0  0  0  0  0  0  0
   28.1663   -4.0096   -3.9307 C   0  0  0  0  0  0  0  0  0  0  0  0
   29.0900   -3.1583   -4.7752 C   0  0  0  0  0  0  0  0  0  0  0  0
   28.7263   -2.7795   -6.0836 C   0  0  0  0  0  0  0  0  0  0  0  0
   29.5080   -1.9922   -6.9574 N   0  0  0  0  0  0  0  0  0  0  0  0
   30.7303   -1.6107   -6.3629 C   0  0  0  0  0  0  0  0  0  0  0  0
   31.1766   -1.9365   -5.0725 C   0  0  0  0  0  0  0  0  0  0  0  0
   30.3393   -2.7258   -4.2614 C   0  0  0  0  0  0  0  0  0  0  0  0
   28.0505  -11.6614   -2.0372 C   0  0  0  0  0  0  0  0  0  0  0  0
   28.7828  -12.7567   -1.2351 C   0  0  0  0  0  0  0  0  0  0  0  0
   28.3774  -12.7067    0.2467 C   0  0  0  0  0  0  0  0  0  0  0  0
   28.3385  -11.6705    0.9202 O   0  0  0  0  0  0  0  0  0  0  0  0
   28.0880  -13.9024    0.7614 N   0  0  0  0  0  0  0  0  0  0  0  0
   27.8588  -14.6303    0.1395 H   0  0  0  0  0  0  0  0  0  0  0  0
   28.0905  -14.1904    2.1566 C   0  0  0  0  0  0  0  0  0  0  0  0
   29.0165  -15.3090    2.5984 C   0  0  0  0  0  0  0  0  0  0  0  0
   29.0564  -16.3626    1.6249 O   0  0  0  0  0  0  0  0  0  0  0  0
   28.4300  -15.8008    3.8951 C   0  0  0  0  0  0  0  0  0  0  0  0
   26.9384  -15.5839    3.7640 C   0  0  0  0  0  0  0  0  0  0  0  0
   25.8184  -16.1401    4.4440 C   0  0  0  0  0  0  0  0  0  0  0  0
   24.5297  -15.7236    4.0814 C   0  0  0  0  0  0  0  0  0  0  0  0
   24.3074  -14.7806    3.0650 C   0  0  0  0  0  0  0  0  0  0  0  0
   25.4148  -14.2359    2.3960 C   0  0  0  0  0  0  0  0  0  0  0  0
   26.7414  -14.6105    2.7100 C   0  0  0  0  0  0  0  0  0  0  0  0
   28.1605  -16.7064    1.4837 H   0  0  0  0  0  0  0  0  0  0  0  0
   30.3158  -12.5531   -1.3528 C   0  0  0  0  0  0  0  0  0  0  0  0
   31.1159  -13.6142   -0.6182 C   0  0  0  0  0  0  0  0  0  0  0  0
   31.7097  -13.3626    0.6489 C   0  0  0  0  0  0  0  0  0  0  0  0
   32.4605  -14.3516    1.3119 C   0  0  0  0  0  0  0  0  0  0  0  0
   32.6173  -15.6151    0.6875 C   0  0  0  0  0  0  0  0  0  0  0  0
   32.0310  -15.8766   -0.5699 C   0  0  0  0  0  0  0  0  0  0  0  0
   31.2780  -14.8777   -1.2307 C   0  0  0  0  0  0  0  0  0  0  0  0
  5  6  1  0  0  0
  5 10  1  0  0  0
  5 19  1  0  0  0
  6  7  1  0  0  0
  7 11  1  0  0  0
  7  8  1  0  0  0
 11 12  2  0  0  0
 11 13  1  0  0  0
 13 15  1  0  0  0
 15 16  1  0  0  0
 15 17  1  0  0  0
 15 18  1  0  0  0
  8  9  1  0  0  0
  8  4  1  0  0  0
  9 10  1  0  0  0
  4  1  1  0  0  0
  1  2  1  0  0  0
  1 26  1  0  0  0
 26 27  1  0  0  0
 27 43  1  0  0  0
 27 28  1  0  0  0
 43 44  1  0  0  0
 44 45  2  0  0  0
 44 49  1  0  0  0
 45 46  1  0  0  0
 46 47  2  0  0  0
 47 48  1  0  0  0
 48 49  2  0  0  0
 28 29  2  0  0  0
 28 30  1  0  0  0
 30 32  1  0  0  0
 32 33  1  0  0  0
 32 41  1  0  0  0
 33 34  1  0  0  0
 33 35  1  0  0  0
 35 36  1  0  0  0
 36 37  2  0  0  0
 36 41  1  0  0  0
 37 38  1  0  0  0
 38 39  2  0  0  0
 39 40  1  0  0  0
 40 41  2  0  0  0
 19 20  1  0  0  0
 20 21  1  0  0  0
 20 25  2  0  0  0
 21 22  2  0  0  0
 22 23  1  0  0  0
 23 24  2  0  0  0
 24 25  1  0  0  0
 13 14  1  0  0  0
  2  3  1  0  0  0
 30 31  1  0  0  0
 34 42  1  0  0  0
M  END
> <minimizedAffinity>
-10.30888

$$$$
2R5P_MK1_B_902


 49 53  0  0  0  0  0  0  0  0999 V2000
   28.1244  -11.9393   -0.9486 C   0  0  0  0  0  0  0  0  0  0  0  0
   28.0731  -13.2742   -1.4689 O   0  0  0  0  0  0  0  0  0  0  0  0
   27.4571  -13.8042   -0.9392 H   0  0  0  0  0  0  0  0  0  0  0  0
   28.6236  -12.0876    0.5041 C   0  0  0  0  0  0  0  0  0  0  0  0
   27.6786  -15.3195    3.1693 N   0  0  0  0  0  0  0  0  0  0  0  0
   28.9511  -15.3849    2.3859 C   0  0  0  0  0  0  0  0  0  0  0  0
   29.4387  -14.0142    1.9043 C   0  0  0  0  0  0  0  0  0  0  0  0
   28.3015  -13.4397    1.0347 N   0  0  0  0  0  0  0  0  0  0  0  0
   27.0248  -13.3090    1.7844 C   0  0  0  0  0  0  0  0  0  0  0  0
   26.6490  -14.6875    2.3246 C   0  0  0  0  0  0  0  0  0  0  0  0
   30.7424  -14.2030    1.1341 C   0  0  0  0  0  0  0  0  0  0  0  0
   31.2741  -13.2151    0.6125 O   0  0  0  0  0  0  0  0  0  0  0  0
   31.2311  -15.4609    1.0719 N   0  0  0  0  0  0  0  0  0  0  0  0
   30.7079  -16.1622    1.5231 H   0  0  0  0  0  0  0  0  0  0  0  0
   32.4640  -15.8866    0.3992 C   0  0  0  0  0  0  0  0  0  0  0  0
   32.6481  -17.3446    0.8159 C   0  0  0  0  0  0  0  0  0  0  0  0
   33.6438  -15.0678    0.9066 C   0  0  0  0  0  0  0  0  0  0  0  0
   32.3311  -15.8333   -1.1275 C   0  0  0  0  0  0  0  0  0  0  0  0
   27.2699  -16.6687    3.6213 C   0  0  0  0  0  0  0  0  0  0  0  0
   28.0623  -17.3623    4.7087 C   0  0  0  0  0  0  0  0  0  0  0  0
   29.3785  -17.8071    4.4697 C   0  0  0  0  0  0  0  0  0  0  0  0
   30.2056  -18.4648    5.4066 N   0  0  0  0  0  0  0  0  0  0  0  0
   29.5552  -18.6336    6.6481 C   0  0  0  0  0  0  0  0  0  0  0  0
   28.2536  -18.2247    6.9790 C   0  0  0  0  0  0  0  0  0  0  0  0
   27.4915  -17.5751    5.9896 C   0  0  0  0  0  0  0  0  0  0  0  0
   26.7062  -11.3312   -1.0705 C   0  0  0  0  0  0  0  0  0  0  0  0
   26.6656   -9.9325   -1.7195 C   0  0  0  0  0  0  0  0  0  0  0  0
   28.0878   -9.3820   -1.9117 C   0  0  0  0  0  0  0  0  0  0  0  0
   28.8920   -9.2021   -0.9898 O   0  0  0  0  0  0  0  0  0  0  0  0
   28.3790   -9.0868   -3.1792 N   0  0  0  0  0  0  0  0  0  0  0  0
   27.8361   -9.5027   -3.8873 H   0  0  0  0  0  0  0  0  0  0  0  0
   29.4281   -8.2060   -3.5707 C   0  0  0  0  0  0  0  0  0  0  0  0
   29.1507   -7.3514   -4.7940 C   0  0  0  0  0  0  0  0  0  0  0  0
   28.3903   -8.0773   -5.7708 O   0  0  0  0  0  0  0  0  0  0  0  0
   30.5128   -6.9989   -5.3306 C   0  0  0  0  0  0  0  0  0  0  0  0
   31.3954   -8.1763   -4.9784 C   0  0  0  0  0  0  0  0  0  0  0  0
   32.6438   -8.6335   -5.4871 C   0  0  0  0  0  0  0  0  0  0  0  0
   33.2186   -9.7876   -4.9364 C   0  0  0  0  0  0  0  0  0  0  0  0
   32.6000  -10.5110   -3.9040 C   0  0  0  0  0  0  0  0  0  0  0  0
   31.3682  -10.0573   -3.4065 C   0  0  0  0  0  0  0  0  0  0  0  0
   30.7319   -8.9019   -3.9151 C   0  0  0  0  0  0  0  0  0  0  0  0
   28.8729   -8.8792   -6.0256 H   0  0  0  0  0  0  0  0  0  0  0  0
   25.8592   -8.9618   -0.8178 C   0  0  0  0  0  0  0  0  0  0  0  0
   26.0071   -7.5069   -1.2271 C   0  0  0  0  0  0  0  0  0  0  0  0
   25.4939   -7.0188   -2.4599 C   0  0  0  0  0  0  0  0  0  0  0  0
   25.6507   -5.6703   -2.8324 C   0  0  0  0  0  0  0  0  0  0  0  0
   26.3372   -4.7991   -1.9490 C   0  0  0  0  0  0  0  0  0  0  0  0
   26.8497   -5.2725   -0.7216 C   0  0  0  0  0  0  0  0  0  0  0  0
   26.6888   -6.6291   -0.3539 C   0  0  0  0  0  0  0  0  0  0  0  0
  5  6  1  0  0  0
  5 10  1  0  0  0
  5 19  1  0  0  0
  6  7  1  0  0  0
  7 11  1  0  0  0
  7  8  1  0  0  0
 11 12  2  0  0  0
 11 13  1  0  0  0
 13 15  1  0  0  0
 15 16  1  0  0  0
 15 17  1  0  0  0
 15 18  1  0  0  0
  8  9  1  0  0  0
  8  4  1  0  0  0
  9 10  1  0  0  0
  4  1  1  0  0  0
  1  2  1  0  0  0
  1 26  1  0  0  0
 26 27  1  0  0  0
 27 43  1  0  0  0
 27 28  1  0  0  0
 43 44  1  0  0  0
 44 45  2  0  0  0
 44 49  1  0  0  0
 45 46  1  0  0  0
 46 47  2  0  0  0
 47 48  1  0  0  0
 48 49  2  0  0  0
 28 29  2  0  0  0
 28 30  1  0  0  0
 30 32  1  0  0  0
 32 33  1  0  0  0
 32 41  1  0  0  0
 33 34  1  0  0  0
 33 35  1  0  0  0
 35 36  1  0  0  0
 36 37  2  0  0  0
 36 41  1  0  0  0
 37 38  1  0  0  0
 38 39  2  0  0  0
 39 40  1  0  0  0
 40 41  2  0  0  0
 19 20  1  0  0  0
 20 21  1  0  0  0
 20 25  2  0  0  0
 21 22  2  0  0  0
 22 23  1  0  0  0
 23 24  2  0  0  0
 24 25  1  0  0  0
 13 14  1  0  0  0
  2  3  1  0  0  0
 30 31  1  0  0  0
 34 42  1  0  0  0
M  END
> <minimizedAffinity>
-10.19194

$$$$
2R5P_MK1_B_902


 49 53  0  0  0  0  0  0  0  0999 V2000
   29.0616  -11.9362   -1.7925 C   0  0  0  0  0  0  0  0  0  0  0  0
   28.4710  -13.2069   -2.0953 O   0  0  0  0  0  0  0  0  0  0  0  0
   27.5482  -13.2140   -1.7965 H   0  0  0  0  0  0  0  0  0  0  0  0
   28.9716  -11.8008   -0.2579 C   0  0  0  0  0  0  0  0  0  0  0  0
   27.4985  -14.6821    2.5651 N   0  0  0  0  0  0  0  0  0  0  0  0
   28.8428  -14.9051    1.9484 C   0  0  0  0  0  0  0  0  0  0  0  0
   29.4806  -13.6229    1.4027 C   0  0  0  0  0  0  0  0  0  0  0  0
   28.4937  -13.0698    0.3541 N   0  0  0  0  0  0  0  0  0  0  0  0
   27.1537  -12.7852    0.9311 C   0  0  0  0  0  0  0  0  0  0  0  0
   26.6196  -14.0761    1.5487 C   0  0  0  0  0  0  0  0  0  0  0  0
   30.8453  -13.9689    0.8143 C   0  0  0  0  0  0  0  0  0  0  0  0
   31.5110  -13.0701    0.2857 O   0  0  0  0  0  0  0  0  0  0  0  0
   31.2359  -15.2586    0.9108 N   0  0  0  0  0  0  0  0  0  0  0  0
   30.6096  -15.8796    1.3483 H   0  0  0  0  0  0  0  0  0  0  0  0
   32.5002  -15.8267    0.4286 C   0  0  0  0  0  0  0  0  0  0  0  0
   32.5647  -17.2168    1.0586 C   0  0  0  0  0  0  0  0  0  0  0  0
   33.6714  -14.9936    0.9326 C   0  0  0  0  0  0  0  0  0  0  0  0
   32.5119  -15.9861   -1.0964 C   0  0  0  0  0  0  0  0  0  0  0  0
   26.9437  -15.9508    3.0889 C   0  0  0  0  0  0  0  0  0  0  0  0
   27.7288  -16.7406    4.1142 C   0  0  0  0  0  0  0  0  0  0  0  0
   28.9057  -17.4259    3.7497 C   0  0  0  0  0  0  0  0  0  0  0  0
   29.7125  -18.1918    4.6197 N   0  0  0  0  0  0  0  0  0  0  0  0
   29.2009  -18.1974    5.9355 C   0  0  0  0  0  0  0  0  0  0  0  0
   28.0434  -17.5469    6.3914 C   0  0  0  0  0  0  0  0  0  0  0  0
   27.2921  -16.8026    5.4622 C   0  0  0  0  0  0  0  0  0  0  0  0
   28.2742  -10.8535   -2.5696 C   0  0  0  0  0  0  0  0  0  0  0  0
   28.6094   -9.4044   -2.1608 C   0  0  0  0  0  0  0  0  0  0  0  0
   27.3532   -8.6801   -1.6509 C   0  0  0  0  0  0  0  0  0  0  0  0
   26.3233   -9.2556   -1.2809 O   0  0  0  0  0  0  0  0  0  0  0  0
   27.4615   -7.3509   -1.6636 N   0  0  0  0  0  0  0  0  0  0  0  0
   28.3651   -6.9609   -1.6882 H   0  0  0  0  0  0  0  0  0  0  0  0
   26.3491   -6.4613   -1.6436 C   0  0  0  0  0  0  0  0  0  0  0  0
   25.7761   -6.0899   -2.9992 C   0  0  0  0  0  0  0  0  0  0  0  0
   26.8145   -5.9549   -3.9805 O   0  0  0  0  0  0  0  0  0  0  0  0
   25.0803   -4.7739   -2.7724 C   0  0  0  0  0  0  0  0  0  0  0  0
   25.8707   -4.0900   -1.6784 C   0  0  0  0  0  0  0  0  0  0  0  0
   25.9699   -2.7320   -1.2636 C   0  0  0  0  0  0  0  0  0  0  0  0
   26.8113   -2.4109   -0.1891 C   0  0  0  0  0  0  0  0  0  0  0  0
   27.5644   -3.3843    0.4871 C   0  0  0  0  0  0  0  0  0  0  0  0
   27.4647   -4.7220    0.0736 C   0  0  0  0  0  0  0  0  0  0  0  0
   26.6363   -5.1165   -1.0019 C   0  0  0  0  0  0  0  0  0  0  0  0
   27.4487   -5.2810   -3.6895 H   0  0  0  0  0  0  0  0  0  0  0  0
   29.1822   -8.6370   -3.3808 C   0  0  0  0  0  0  0  0  0  0  0  0
   30.6867   -8.7843   -3.5246 C   0  0  0  0  0  0  0  0  0  0  0  0
   31.3171   -8.8344   -4.7980 C   0  0  0  0  0  0  0  0  0  0  0  0
   32.7117   -8.9852   -4.9160 C   0  0  0  0  0  0  0  0  0  0  0  0
   33.4843   -9.0889   -3.7315 C   0  0  0  0  0  0  0  0  0  0  0  0
   32.8692   -9.0390   -2.4617 C   0  0  0  0  0  0  0  0  0  0  0  0
   31.4670   -8.8876   -2.3506 C   0  0  0  0  0  0  0  0  0  0  0  0
  5  6  1  0  0  0
  5 10  1  0  0  0
  5 19  1  0  0  0
  6  7  1  0  0  0
  7 11  1  0  0  0
  7  8  1  0  0  0
 11 12  2  0  0  0
 11 13  1  0  0  0
 13 15  1  0  0  0
 15 16  1  0  0  0
 15 17  1  0  0  0
 15 18  1  0  0  0
  8  9  1  0  0  0
  8  4  1  0  0  0
  9 10  1  0  0  0
  4  1  1  0  0  0
  1  2  1  0  0  0
  1 26  1  0  0  0
 26 27  1  0  0  0
 27 43  1  0  0  0
 27 28  1  0  0  0
 43 44  1  0  0  0
 44 45  2  0  0  0
 44 49  1  0  0  0
 45 46  1  0  0  0
 46 47  2  0  0  0
 47 48  1  0  0  0
 48 49  2  0  0  0
 28 29  2  0  0  0
 28 30  1  0  0  0
 30 32  1  0  0  0
 32 33  1  0  0  0
 32 41  1  0  0  0
 33 34  1  0  0  0
 33 35  1  0  0  0
 35 36  1  0  0  0
 36 37  2  0  0  0
 36 41  1  0  0  0
 37 38  1  0  0  0
 38 39  2  0  0  0
 39 40  1  0  0  0
 40 41  2  0  0  0
 19 20  1  0  0  0
 20 21  1  0  0  0
 20 25  2  0  0  0
 21 22  2  0  0  0
 22 23  1  0  0  0
 23 24  2  0  0  0
 24 25  1  0  0  0
 13 14  1  0  0  0
  2  3  1  0  0  0
 30 31  1  0  0  0
 34 42  1  0  0  0
M  END
> <minimizedAffinity>
-10.18261

$$$$
2R5P_MK1_B_902


 49 53  0  0  0  0  0  0  0  0999 V2000
   31.0219  -10.5769   -1.9187 C   0  0  0  0  0  0  0  0  0  0  0  0
   30.5278  -11.6807   -2.6887 O   0  0  0  0  0  0  0  0  0  0  0  0
   29.5949  -11.8343   -2.4719 H   0  0  0  0  0  0  0  0  0  0  0  0
   30.8548  -11.0017   -0.4447 C   0  0  0  0  0  0  0  0  0  0  0  0
   27.5252  -13.1527    1.2071 N   0  0  0  0  0  0  0  0  0  0  0  0
   28.7198  -13.9252    0.7453 C   0  0  0  0  0  0  0  0  0  0  0  0
   29.9993  -13.0841    0.6817 C   0  0  0  0  0  0  0  0  0  0  0  0
   29.6991  -11.9260   -0.2922 N   0  0  0  0  0  0  0  0  0  0  0  0
   28.5473  -11.0971    0.1502 C   0  0  0  0  0  0  0  0  0  0  0  0
   27.3324  -12.0117    0.2938 C   0  0  0  0  0  0  0  0  0  0  0  0
   31.1464  -13.9752    0.2143 C   0  0  0  0  0  0  0  0  0  0  0  0
   31.3551  -14.0893   -0.9997 O   0  0  0  0  0  0  0  0  0  0  0  0
   31.8645  -14.5917    1.1784 N   0  0  0  0  0  0  0  0  0  0  0  0
   31.5915  -14.4245    2.1094 H   0  0  0  0  0  0  0  0  0  0  0  0
   33.0108  -15.4856    0.9769 C   0  0  0  0  0  0  0  0  0  0  0  0
   33.3340  -16.0201    2.3708 C   0  0  0  0  0  0  0  0  0  0  0  0
   34.2031  -14.6943    0.4550 C   0  0  0  0  0  0  0  0  0  0  0  0
   32.6590  -16.6734    0.0732 C   0  0  0  0  0  0  0  0  0  0  0  0
   26.3280  -14.0215    1.2653 C   0  0  0  0  0  0  0  0  0  0  0  0
   26.0169  -14.7777    2.5393 C   0  0  0  0  0  0  0  0  0  0  0  0
   27.0327  -15.4606    3.2387 C   0  0  0  0  0  0  0  0  0  0  0  0
   26.8561  -16.1966    4.4310 N   0  0  0  0  0  0  0  0  0  0  0  0
   25.5125  -16.1739    4.8636 C   0  0  0  0  0  0  0  0  0  0  0  0
   24.4375  -15.5233    4.2375 C   0  0  0  0  0  0  0  0  0  0  0  0
   24.6947  -14.8099    3.0515 C   0  0  0  0  0  0  0  0  0  0  0  0
   30.2026   -9.3238   -2.3120 C   0  0  0  0  0  0  0  0  0  0  0  0
   29.1448   -9.5713   -3.4071 C   0  0  0  0  0  0  0  0  0  0  0  0
   28.9968   -8.3345   -4.3078 C   0  0  0  0  0  0  0  0  0  0  0  0
   28.5111   -8.3590   -5.4447 O   0  0  0  0  0  0  0  0  0  0  0  0
   29.4672   -7.2144   -3.7578 N   0  0  0  0  0  0  0  0  0  0  0  0
   29.5726   -7.1887   -2.7793 H   0  0  0  0  0  0  0  0  0  0  0  0
   29.8264   -6.0528   -4.5002 C   0  0  0  0  0  0  0  0  0  0  0  0
   31.3076   -5.7230   -4.5346 C   0  0  0  0  0  0  0  0  0  0  0  0
   31.9335   -6.0215   -3.2782 O   0  0  0  0  0  0  0  0  0  0  0  0
   31.3635   -4.2460   -4.8225 C   0  0  0  0  0  0  0  0  0  0  0  0
   30.1145   -3.6707   -4.1913 C   0  0  0  0  0  0  0  0  0  0  0  0
   29.7528   -2.3526   -3.7939 C   0  0  0  0  0  0  0  0  0  0  0  0
   28.4901   -2.1390   -3.2233 C   0  0  0  0  0  0  0  0  0  0  0  0
   27.5731   -3.1838   -3.0250 C   0  0  0  0  0  0  0  0  0  0  0  0
   27.9347   -4.4823   -3.4170 C   0  0  0  0  0  0  0  0  0  0  0  0
   29.1910   -4.7695   -3.9981 C   0  0  0  0  0  0  0  0  0  0  0  0
   31.4958   -5.5210   -2.5720 H   0  0  0  0  0  0  0  0  0  0  0  0
   27.7772   -9.8911   -2.7492 C   0  0  0  0  0  0  0  0  0  0  0  0
   27.0184   -8.6485   -2.3179 C   0  0  0  0  0  0  0  0  0  0  0  0
   25.9998   -8.0735   -3.1262 C   0  0  0  0  0  0  0  0  0  0  0  0
   25.3143   -6.9131   -2.7198 C   0  0  0  0  0  0  0  0  0  0  0  0
   25.6616   -6.3209   -1.4791 C   0  0  0  0  0  0  0  0  0  0  0  0
   26.6704   -6.8840   -0.6677 C   0  0  0  0  0  0  0  0  0  0  0  0
   27.3555   -8.0501   -1.0825 C   0  0  0  0  0  0  0  0  0  0  0  0
  5  6  1  0  0  0
  5 10  1  0  0  0
  5 19  1  0  0  0
  6  7  1  0  0  0
  7 11  1  0  0  0
  7  8  1  0  0  0
 11 12  2  0  0  0
 11 13  1  0  0  0
 13 15  1  0  0  0
 15 16  1  0  0  0
 15 17  1  0  0  0
 15 18  1  0  0  0
  8  9  1  0  0  0
  8  4  1  0  0  0
  9 10  1  0  0  0
  4  1  1  0  0  0
  1  2  1  0  0  0
  1 26  1  0  0  0
 26 27  1  0  0  0
 27 43  1  0  0  0
 27 28  1  0  0  0
 43 44  1  0  0  0
 44 45  2  0  0  0
 44 49  1  0  0  0
 45 46  1  0  0  0
 46 47  2  0  0  0
 47 48  1  0  0  0
 48 49  2  0  0  0
 28 29  2  0  0  0
 28 30  1  0  0  0
 30 32  1  0  0  0
 32 33  1  0  0  0
 32 41  1  0  0  0
 33 34  1  0  0  0
 33 35  1  0  0  0
 35 36  1  0  0  0
 36 37  2  0  0  0
 36 41  1  0  0  0
 37 38  1  0  0  0
 38 39  2  0  0  0
 39 40  1  0  0  0
 40 41  2  0  0  0
 19 20  1  0  0  0
 20 21  1  0  0  0
 20 25  2  0  0  0
 21 22  2  0  0  0
 22 23  1  0  0  0
 23 24  2  0  0  0
 24 25  1  0  0  0
 13 14  1  0  0  0
  2  3  1  0  0  0
 30 31  1  0  0  0
 34 42  1  0  0  0
M  END
> <minimizedAffinity>
-10.10430

$$$$
2R5P_MK1_B_902


 49 53  0  0  0  0  0  0  0  0999 V2000
   27.1486   -9.5993   -2.0200 C   0  0  0  0  0  0  0  0  0  0  0  0
   26.6739  -10.6186   -2.9094 O   0  0  0  0  0  0  0  0  0  0  0  0
   27.4167  -10.9689   -3.4255 H   0  0  0  0  0  0  0  0  0  0  0  0
   27.7546   -8.5126   -2.9327 C   0  0  0  0  0  0  0  0  0  0  0  0
   25.3915   -4.9753   -2.3455 N   0  0  0  0  0  0  0  0  0  0  0  0
   26.6812   -4.8598   -3.0940 C   0  0  0  0  0  0  0  0  0  0  0  0
   27.1572   -6.1881   -3.6921 C   0  0  0  0  0  0  0  0  0  0  0  0
   27.3111   -7.1589   -2.5033 N   0  0  0  0  0  0  0  0  0  0  0  0
   26.0404   -7.3454   -1.7550 C   0  0  0  0  0  0  0  0  0  0  0  0
   25.5668   -5.9745   -1.2760 C   0  0  0  0  0  0  0  0  0  0  0  0
   28.4657   -5.9461   -4.4388 C   0  0  0  0  0  0  0  0  0  0  0  0
   28.8449   -6.7868   -5.2634 O   0  0  0  0  0  0  0  0  0  0  0  0
   29.1325   -4.8103   -4.1378 N   0  0  0  0  0  0  0  0  0  0  0  0
   28.7278   -4.2266   -3.4561 H   0  0  0  0  0  0  0  0  0  0  0  0
   30.3996   -4.3596   -4.7251 C   0  0  0  0  0  0  0  0  0  0  0  0
   30.1269   -4.2901   -6.2264 C   0  0  0  0  0  0  0  0  0  0  0  0
   31.4912   -5.3886   -4.4614 C   0  0  0  0  0  0  0  0  0  0  0  0
   30.7898   -2.9585   -4.2392 C   0  0  0  0  0  0  0  0  0  0  0  0
   24.9757   -3.6596   -1.8090 C   0  0  0  0  0  0  0  0  0  0  0  0
   23.7845   -2.9497   -2.4161 C   0  0  0  0  0  0  0  0  0  0  0  0
   22.8282   -2.3161   -1.5966 C   0  0  0  0  0  0  0  0  0  0  0  0
   21.6820   -1.6291   -2.0533 N   0  0  0  0  0  0  0  0  0  0  0  0
   21.5929   -1.6425   -3.4621 C   0  0  0  0  0  0  0  0  0  0  0  0
   22.4928   -2.2429   -4.3568 C   0  0  0  0  0  0  0  0  0  0  0  0
   23.6120   -2.9096   -3.8233 C   0  0  0  0  0  0  0  0  0  0  0  0
   28.1664  -10.2532   -1.0543 C   0  0  0  0  0  0  0  0  0  0  0  0
   29.3371  -10.9739   -1.7538 C   0  0  0  0  0  0  0  0  0  0  0  0
   29.2039  -12.4978   -1.6033 C   0  0  0  0  0  0  0  0  0  0  0  0
   28.3928  -13.1882   -2.2313 O   0  0  0  0  0  0  0  0  0  0  0  0
   30.0376  -13.0200   -0.7030 N   0  0  0  0  0  0  0  0  0  0  0  0
   30.8327  -12.4969   -0.4510 H   0  0  0  0  0  0  0  0  0  0  0  0
   29.8476  -14.2888   -0.0837 C   0  0  0  0  0  0  0  0  0  0  0  0
   28.8227  -14.3308    1.0351 C   0  0  0  0  0  0  0  0  0  0  0  0
   28.8558  -13.1251    1.8126 O   0  0  0  0  0  0  0  0  0  0  0  0
   29.2193  -15.5180    1.8721 C   0  0  0  0  0  0  0  0  0  0  0  0
   30.7241  -15.6096    1.7439 C   0  0  0  0  0  0  0  0  0  0  0  0
   31.7234  -16.2459    2.5330 C   0  0  0  0  0  0  0  0  0  0  0  0
   33.0652  -16.1430    2.1397 C   0  0  0  0  0  0  0  0  0  0  0  0
   33.4562  -15.4273    0.9967 C   0  0  0  0  0  0  0  0  0  0  0  0
   32.4675  -14.8001    0.2224 C   0  0  0  0  0  0  0  0  0  0  0  0
   31.0962  -14.8627    0.5602 C   0  0  0  0  0  0  0  0  0  0  0  0
   29.7455  -13.0006    2.1786 H   0  0  0  0  0  0  0  0  0  0  0  0
   30.6806  -10.5142   -1.1300 C   0  0  0  0  0  0  0  0  0  0  0  0
   31.6305   -9.9030   -2.1449 C   0  0  0  0  0  0  0  0  0  0  0  0
   32.0303  -10.6044   -3.3153 C   0  0  0  0  0  0  0  0  0  0  0  0
   32.9226  -10.0306   -4.2405 C   0  0  0  0  0  0  0  0  0  0  0  0
   33.4220   -8.7288   -3.9819 C   0  0  0  0  0  0  0  0  0  0  0  0
   33.0307   -8.0224   -2.8238 C   0  0  0  0  0  0  0  0  0  0  0  0
   32.1339   -8.6055   -1.8980 C   0  0  0  0  0  0  0  0  0  0  0  0
  5  6  1  0  0  0
  5 10  1  0  0  0
  5 19  1  0  0  0
  6  7  1  0  0  0
  7 11  1  0  0  0
  7  8  1  0  0  0
 11 12  2  0  0  0
 11 13  1  0  0  0
 13 15  1  0  0  0
 15 16  1  0  0  0
 15 17  1  0  0  0
 15 18  1  0  0  0
  8  9  1  0  0  0
  8  4  1  0  0  0
  9 10  1  0  0  0
  4  1  1  0  0  0
  1  2  1  0  0  0
  1 26  1  0  0  0
 26 27  1  0  0  0
 27 43  1  0  0  0
 27 28  1  0  0  0
 43 44  1  0  0  0
 44 45  2  0  0  0
 44 49  1  0  0  0
 45 46  1  0  0  0
 46 47  2  0  0  0
 47 48  1  0  0  0
 48 49  2  0  0  0
 28 29  2  0  0  0
 28 30  1  0  0  0
 30 32  1  0  0  0
 32 33  1  0  0  0
 32 41  1  0  0  0
 33 34  1  0  0  0
 33 35  1  0  0  0
 35 36  1  0  0  0
 36 37  2  0  0  0
 36 41  1  0  0  0
 37 38  1  0  0  0
 38 39  2  0  0  0
 39 40  1  0  0  0
 40 41  2  0  0  0
 19 20  1  0  0  0
 20 21  1  0  0  0
 20 25  2  0  0  0
 21 22  2  0  0  0
 22 23  1  0  0  0
 23 24  2  0  0  0
 24 25  1  0  0  0
 13 14  1  0  0  0
  2  3  1  0  0  0
 30 31  1  0  0  0
 34 42  1  0  0  0
M  END
> <minimizedAffinity>
-9.83397

$$$$
2R5P_MK1_B_902


 49 53  0  0  0  0  0  0  0  0999 V2000
   27.6084  -11.0919   -1.5698 C   0  0  0  0  0  0  0  0  0  0  0  0
   26.4289  -11.3712   -2.3354 O   0  0  0  0  0  0  0  0  0  0  0  0
   25.6431  -11.1893   -1.7967 H   0  0  0  0  0  0  0  0  0  0  0  0
   27.5365  -12.0371   -0.3521 C   0  0  0  0  0  0  0  0  0  0  0  0
   30.7768  -14.8292   -0.7346 N   0  0  0  0  0  0  0  0  0  0  0  0
   30.0590  -14.7389    0.5745 C   0  0  0  0  0  0  0  0  0  0  0  0
   28.6513  -14.1447    0.4553 C   0  0  0  0  0  0  0  0  0  0  0  0
   28.8330  -12.7400   -0.1557 N   0  0  0  0  0  0  0  0  0  0  0  0
   29.4997  -12.7810   -1.4836 C   0  0  0  0  0  0  0  0  0  0  0  0
   30.8493  -13.4762   -1.3152 C   0  0  0  0  0  0  0  0  0  0  0  0
   28.0152  -14.1150    1.8419 C   0  0  0  0  0  0  0  0  0  0  0  0
   28.5263  -13.4046    2.7164 O   0  0  0  0  0  0  0  0  0  0  0  0
   26.9195  -14.8848    2.0210 N   0  0  0  0  0  0  0  0  0  0  0  0
   26.6164  -15.4110    1.2461 H   0  0  0  0  0  0  0  0  0  0  0  0
   26.1358  -15.0152    3.2549 C   0  0  0  0  0  0  0  0  0  0  0  0
   25.2569  -16.2435    3.0268 C   0  0  0  0  0  0  0  0  0  0  0  0
   25.2481  -13.7915    3.4401 C   0  0  0  0  0  0  0  0  0  0  0  0
   27.0273  -15.2785    4.4745 C   0  0  0  0  0  0  0  0  0  0  0  0
   32.1197  -15.4265   -0.5574 C   0  0  0  0  0  0  0  0  0  0  0  0
   32.4617  -16.1187    0.7447 C   0  0  0  0  0  0  0  0  0  0  0  0
   32.0588  -17.4488    0.9817 C   0  0  0  0  0  0  0  0  0  0  0  0
   32.3202  -18.1887    2.1559 N   0  0  0  0  0  0  0  0  0  0  0  0
   33.0525  -17.4325    3.0966 C   0  0  0  0  0  0  0  0  0  0  0  0
   33.4969  -16.1090    2.9499 C   0  0  0  0  0  0  0  0  0  0  0  0
   33.1962  -15.4382    1.7493 C   0  0  0  0  0  0  0  0  0  0  0  0
   27.5878   -9.5878   -1.2045 C   0  0  0  0  0  0  0  0  0  0  0  0
   28.4967   -8.7053   -2.0844 C   0  0  0  0  0  0  0  0  0  0  0  0
   27.6617   -7.6854   -2.8751 C   0  0  0  0  0  0  0  0  0  0  0  0
   26.9525   -7.9739   -3.8460 O   0  0  0  0  0  0  0  0  0  0  0  0
   27.7875   -6.4341   -2.4314 N   0  0  0  0  0  0  0  0  0  0  0  0
   28.1187   -6.3000   -1.5140 H   0  0  0  0  0  0  0  0  0  0  0  0
   27.4718   -5.2797   -3.2042 C   0  0  0  0  0  0  0  0  0  0  0  0
   28.5579   -4.8012   -4.1504 C   0  0  0  0  0  0  0  0  0  0  0  0
   29.8601   -4.9714   -3.5719 O   0  0  0  0  0  0  0  0  0  0  0  0
   28.2570   -3.3424   -4.3708 C   0  0  0  0  0  0  0  0  0  0  0  0
   27.6230   -2.8683   -3.0815 C   0  0  0  0  0  0  0  0  0  0  0  0
   27.4455   -1.5764   -2.5107 C   0  0  0  0  0  0  0  0  0  0  0  0
   26.8031   -1.4661   -1.2694 C   0  0  0  0  0  0  0  0  0  0  0  0
   26.3348   -2.5887   -0.5678 C   0  0  0  0  0  0  0  0  0  0  0  0
   26.5133   -3.8608   -1.1338 C   0  0  0  0  0  0  0  0  0  0  0  0
   27.1524   -4.0454   -2.3812 C   0  0  0  0  0  0  0  0  0  0  0  0
   29.9080   -4.4844   -2.7344 H   0  0  0  0  0  0  0  0  0  0  0  0
   29.2880   -9.5970   -3.0765 C   0  0  0  0  0  0  0  0  0  0  0  0
   30.7897   -9.3842   -3.0014 C   0  0  0  0  0  0  0  0  0  0  0  0
   31.3520   -8.1706   -2.5194 C   0  0  0  0  0  0  0  0  0  0  0  0
   32.7461   -7.9823   -2.4685 C   0  0  0  0  0  0  0  0  0  0  0  0
   33.5881   -9.0335   -2.9121 C   0  0  0  0  0  0  0  0  0  0  0  0
   33.0409  -10.2434   -3.3914 C   0  0  0  0  0  0  0  0  0  0  0  0
   31.6388  -10.4256   -3.4400 C   0  0  0  0  0  0  0  0  0  0  0  0
  5  6  1  0  0  0
  5 10  1  0  0  0
  5 19  1  0  0  0
  6  7  1  0  0  0
  7 11  1  0  0  0
  7  8  1  0  0  0
 11 12  2  0  0  0
 11 13  1  0  0  0
 13 15  1  0  0  0
 15 16  1  0  0  0
 15 17  1  0  0  0
 15 18  1  0  0  0
  8  9  1  0  0  0
  8  4  1  0  0  0
  9 10  1  0  0  0
  4  1  1  0  0  0
  1  2  1  0  0  0
  1 26  1  0  0  0
 26 27  1  0  0  0
 27 43  1  0  0  0
 27 28  1  0  0  0
 43 44  1  0  0  0
 44 45  2  0  0  0
 44 49  1  0  0  0
 45 46  1  0  0  0
 46 47  2  0  0  0
 47 48  1  0  0  0
 48 49  2  0  0  0
 28 29  2  0  0  0
 28 30  1  0  0  0
 30 32  1  0  0  0
 32 33  1  0  0  0
 32 41  1  0  0  0
 33 34  1  0  0  0
 33 35  1  0  0  0
 35 36  1  0  0  0
 36 37  2  0  0  0
 36 41  1  0  0  0
 37 38  1  0  0  0
 38 39  2  0  0  0
 39 40  1  0  0  0
 40 41  2  0  0  0
 19 20  1  0  0  0
 20 21  1  0  0  0
 20 25  2  0  0  0
 21 22  2  0  0  0
 22 23  1  0  0  0
 23 24  2  0  0  0
 24 25  1  0  0  0
 13 14  1  0  0  0
  2  3  1  0  0  0
 30 31  1  0  0  0
 34 42  1  0  0  0
M  END
> <minimizedAffinity>
-9.63840

$$$$
2R5P_MK1_B_902


 49 53  0  0  0  0  0  0  0  0999 V2000
   28.6702   -8.5711   -3.5186 C   0  0  0  0  0  0  0  0  0  0  0  0
   29.1877   -7.9466   -2.3365 O   0  0  0  0  0  0  0  0  0  0  0  0
   30.1569   -7.9866   -2.3475 H   0  0  0  0  0  0  0  0  0  0  0  0
   29.1685  -10.0304   -3.4596 C   0  0  0  0  0  0  0  0  0  0  0  0
   29.3986  -12.5229    0.0298 N   0  0  0  0  0  0  0  0  0  0  0  0
   28.2750  -11.5415   -0.0774 C   0  0  0  0  0  0  0  0  0  0  0  0
   27.9828  -11.1080   -1.5180 C   0  0  0  0  0  0  0  0  0  0  0  0
   29.2912  -10.4868   -2.0489 N   0  0  0  0  0  0  0  0  0  0  0  0
   30.4296  -11.4415   -2.0086 C   0  0  0  0  0  0  0  0  0  0  0  0
   30.6014  -11.9138   -0.5661 C   0  0  0  0  0  0  0  0  0  0  0  0
   26.8169  -10.1238   -1.5045 C   0  0  0  0  0  0  0  0  0  0  0  0
   25.7647  -10.4395   -2.0735 O   0  0  0  0  0  0  0  0  0  0  0  0
   27.0216   -8.9527   -0.8628 N   0  0  0  0  0  0  0  0  0  0  0  0
   27.9084   -8.8193   -0.4566 H   0  0  0  0  0  0  0  0  0  0  0  0
   26.0545   -7.8594   -0.7107 C   0  0  0  0  0  0  0  0  0  0  0  0
   26.8749   -6.6899   -0.1700 C   0  0  0  0  0  0  0  0  0  0  0  0
   24.9927   -8.2417    0.3122 C   0  0  0  0  0  0  0  0  0  0  0  0
   25.4455   -7.4422   -2.0547 C   0  0  0  0  0  0  0  0  0  0  0  0
   29.6199  -12.9163    1.4398 C   0  0  0  0  0  0  0  0  0  0  0  0
   29.3523  -14.3439    1.8661 C   0  0  0  0  0  0  0  0  0  0  0  0
   30.3965  -15.2899    1.9140 C   0  0  0  0  0  0  0  0  0  0  0  0
   30.2611  -16.6435    2.2934 N   0  0  0  0  0  0  0  0  0  0  0  0
   28.9275  -16.9590    2.6324 C   0  0  0  0  0  0  0  0  0  0  0  0
   27.8264  -16.0883    2.6168 C   0  0  0  0  0  0  0  0  0  0  0  0
   28.0430  -14.7531    2.2265 C   0  0  0  0  0  0  0  0  0  0  0  0
   29.1913   -7.7742   -4.7391 C   0  0  0  0  0  0  0  0  0  0  0  0
   29.9956   -6.5085   -4.3783 C   0  0  0  0  0  0  0  0  0  0  0  0
   29.3228   -5.2542   -4.9586 C   0  0  0  0  0  0  0  0  0  0  0  0
   29.5291   -4.8213   -6.0983 O   0  0  0  0  0  0  0  0  0  0  0  0
   28.4990   -4.6467   -4.1038 N   0  0  0  0  0  0  0  0  0  0  0  0
   28.1560   -5.1681   -3.3424 H   0  0  0  0  0  0  0  0  0  0  0  0
   28.0851   -3.2890   -4.2255 C   0  0  0  0  0  0  0  0  0  0  0  0
   29.1971   -2.2559   -4.2115 C   0  0  0  0  0  0  0  0  0  0  0  0
   30.2420   -2.6327   -3.3029 O   0  0  0  0  0  0  0  0  0  0  0  0
   28.5302   -0.9830   -3.7614 C   0  0  0  0  0  0  0  0  0  0  0  0
   27.4153   -1.4235   -2.8383 C   0  0  0  0  0  0  0  0  0  0  0  0
   26.6699   -0.7459   -1.8327 C   0  0  0  0  0  0  0  0  0  0  0  0
   25.6780   -1.4490   -1.1345 C   0  0  0  0  0  0  0  0  0  0  0  0
   25.4003   -2.8015   -1.3902 C   0  0  0  0  0  0  0  0  0  0  0  0
   26.1390   -3.4661   -2.3817 C   0  0  0  0  0  0  0  0  0  0  0  0
   27.1533   -2.8190   -3.1238 C   0  0  0  0  0  0  0  0  0  0  0  0
   29.8732   -2.7390   -2.4121 H   0  0  0  0  0  0  0  0  0  0  0  0
   31.4346   -6.6253   -4.9451 C   0  0  0  0  0  0  0  0  0  0  0  0
   32.1952   -7.8203   -4.3981 C   0  0  0  0  0  0  0  0  0  0  0  0
   32.4846   -8.9570   -5.2017 C   0  0  0  0  0  0  0  0  0  0  0  0
   33.1786  -10.0636   -4.6770 C   0  0  0  0  0  0  0  0  0  0  0  0
   33.5867  -10.0255   -3.3194 C   0  0  0  0  0  0  0  0  0  0  0  0
   33.3061   -8.9016   -2.5126 C   0  0  0  0  0  0  0  0  0  0  0  0
   32.6079   -7.7930   -3.0464 C   0  0  0  0  0  0  0  0  0  0  0  0
  5  6  1  0  0  0
  5 10  1  0  0  0
  5 19  1  0  0  0
  6  7  1  0  0  0
  7 11  1  0  0  0
  7  8  1  0  0  0
 11 12  2  0  0  0
 11 13  1  0  0  0
 13 15  1  0  0  0
 15 16  1  0  0  0
 15 17  1  0  0  0
 15 18  1  0  0  0
  8  9  1  0  0  0
  8  4  1  0  0  0
  9 10  1  0  0  0
  4  1  1  0  0  0
  1  2  1  0  0  0
  1 26  1  0  0  0
 26 27  1  0  0  0
 27 43  1  0  0  0
 27 28  1  0  0  0
 43 44  1  0  0  0
 44 45  2  0  0  0
 44 49  1  0  0  0
 45 46  1  0  0  0
 46 47  2  0  0  0
 47 48  1  0  0  0
 48 49  2  0  0  0
 28 29  2  0  0  0
 28 30  1  0  0  0
 30 32  1  0  0  0
 32 33  1  0  0  0
 32 41  1  0  0  0
 33 34  1  0  0  0
 33 35  1  0  0  0
 35 36  1  0  0  0
 36 37  2  0  0  0
 36 41  1  0  0  0
 37 38  1  0  0  0
 38 39  2  0  0  0
 39 40  1  0  0  0
 40 41  2  0  0  0
 19 20  1  0  0  0
 20 21  1  0  0  0
 20 25  2  0  0  0
 21 22  2  0  0  0
 22 23  1  0  0  0
 23 24  2  0  0  0
 24 25  1  0  0  0
 13 14  1  0  0  0
  2  3  1  0  0  0
 30 31  1  0  0  0
 34 42  1  0  0  0
M  END
> <minimizedAffinity>
-9.61646

$$$$
2R5P_MK1_B_902


 49 53  0  0  0  0  0  0  0  0999 V2000
   27.6842  -10.8111   -0.7804 C   0  0  0  0  0  0  0  0  0  0  0  0
   27.1908  -11.8176   -1.6741 O   0  0  0  0  0  0  0  0  0  0  0  0
   27.9298  -12.3619   -1.9878 H   0  0  0  0  0  0  0  0  0  0  0  0
   28.6762   -9.9754   -1.6163 C   0  0  0  0  0  0  0  0  0  0  0  0
   26.2052   -6.6472   -2.7384 N   0  0  0  0  0  0  0  0  0  0  0  0
   27.5734   -6.7570   -3.3328 C   0  0  0  0  0  0  0  0  0  0  0  0
   28.1380   -8.1813   -3.2980 C   0  0  0  0  0  0  0  0  0  0  0  0
   28.1637   -8.5924   -1.8115 N   0  0  0  0  0  0  0  0  0  0  0  0
   26.8156   -8.5467   -1.1870 C   0  0  0  0  0  0  0  0  0  0  0  0
   26.2668   -7.1302   -1.3470 C   0  0  0  0  0  0  0  0  0  0  0  0
   29.5225   -8.1732   -3.9394 C   0  0  0  0  0  0  0  0  0  0  0  0
   29.6103   -8.2918   -5.1677 O   0  0  0  0  0  0  0  0  0  0  0  0
   30.5753   -8.0382   -3.1035 N   0  0  0  0  0  0  0  0  0  0  0  0
   30.3714   -7.9605   -2.1435 H   0  0  0  0  0  0  0  0  0  0  0  0
   31.9922   -7.9959   -3.4832 C   0  0  0  0  0  0  0  0  0  0  0  0
   32.7392   -7.7886   -2.1671 C   0  0  0  0  0  0  0  0  0  0  0  0
   32.2509   -6.8065   -4.3987 C   0  0  0  0  0  0  0  0  0  0  0  0
   32.4594   -9.3193   -4.1010 C   0  0  0  0  0  0  0  0  0  0  0  0
   25.7079   -5.2551   -2.8180 C   0  0  0  0  0  0  0  0  0  0  0  0
   26.6865   -4.1061   -2.7008 C   0  0  0  0  0  0  0  0  0  0  0  0
   27.1236   -3.6573   -1.4379 C   0  0  0  0  0  0  0  0  0  0  0  0
   28.0290   -2.5973   -1.2117 N   0  0  0  0  0  0  0  0  0  0  0  0
   28.4658   -2.0174   -2.4225 C   0  0  0  0  0  0  0  0  0  0  0  0
   28.0891   -2.3954   -3.7210 C   0  0  0  0  0  0  0  0  0  0  0  0
   27.1815   -3.4621   -3.8635 C   0  0  0  0  0  0  0  0  0  0  0  0
   28.3271  -11.5301    0.4304 C   0  0  0  0  0  0  0  0  0  0  0  0
   29.1336  -12.7937    0.0671 C   0  0  0  0  0  0  0  0  0  0  0  0
   28.2684  -14.0542    0.2266 C   0  0  0  0  0  0  0  0  0  0  0  0
   27.7424  -14.6577   -0.7157 O   0  0  0  0  0  0  0  0  0  0  0  0
   28.1103  -14.4360    1.4945 N   0  0  0  0  0  0  0  0  0  0  0  0
   28.7593  -14.1110    2.1596 H   0  0  0  0  0  0  0  0  0  0  0  0
   27.0592  -15.2855    1.9450 C   0  0  0  0  0  0  0  0  0  0  0  0
   25.7784  -14.5866    2.3633 C   0  0  0  0  0  0  0  0  0  0  0  0
   26.0591  -13.3430    3.0222 O   0  0  0  0  0  0  0  0  0  0  0  0
   25.1068  -15.5510    3.3046 C   0  0  0  0  0  0  0  0  0  0  0  0
   26.2359  -16.2947    3.9838 C   0  0  0  0  0  0  0  0  0  0  0  0
   26.3086  -17.0472    5.1899 C   0  0  0  0  0  0  0  0  0  0  0  0
   27.5320  -17.6269    5.5546 C   0  0  0  0  0  0  0  0  0  0  0  0
   28.6894  -17.4840    4.7724 C   0  0  0  0  0  0  0  0  0  0  0  0
   28.6133  -16.7398    3.5846 C   0  0  0  0  0  0  0  0  0  0  0  0
   27.4129  -16.1280    3.1566 C   0  0  0  0  0  0  0  0  0  0  0  0
   26.6190  -13.5069    3.7972 H   0  0  0  0  0  0  0  0  0  0  0  0
   30.3740  -12.9049    0.9916 C   0  0  0  0  0  0  0  0  0  0  0  0
   31.1970  -14.1554    0.7364 C   0  0  0  0  0  0  0  0  0  0  0  0
   31.5706  -14.5524   -0.5767 C   0  0  0  0  0  0  0  0  0  0  0  0
   32.3220  -15.7218   -0.7991 C   0  0  0  0  0  0  0  0  0  0  0  0
   32.7022  -16.5055    0.3198 C   0  0  0  0  0  0  0  0  0  0  0  0
   32.3380  -16.1203    1.6283 C   0  0  0  0  0  0  0  0  0  0  0  0
   31.5825  -14.9439    1.8444 C   0  0  0  0  0  0  0  0  0  0  0  0
  5  6  1  0  0  0
  5 10  1  0  0  0
  5 19  1  0  0  0
  6  7  1  0  0  0
  7 11  1  0  0  0
  7  8  1  0  0  0
 11 12  2  0  0  0
 11 13  1  0  0  0
 13 15  1  0  0  0
 15 16  1  0  0  0
 15 17  1  0  0  0
 15 18  1  0  0  0
  8  9  1  0  0  0
  8  4  1  0  0  0
  9 10  1  0  0  0
  4  1  1  0  0  0
  1  2  1  0  0  0
  1 26  1  0  0  0
 26 27  1  0  0  0
 27 43  1  0  0  0
 27 28  1  0  0  0
 43 44  1  0  0  0
 44 45  2  0  0  0
 44 49  1  0  0  0
 45 46  1  0  0  0
 46 47  2  0  0  0
 47 48  1  0  0  0
 48 49  2  0  0  0
 28 29  2  0  0  0
 28 30  1  0  0  0
 30 32  1  0  0  0
 32 33  1  0  0  0
 32 41  1  0  0  0
 33 34  1  0  0  0
 33 35  1  0  0  0
 35 36  1  0  0  0
 36 37  2  0  0  0
 36 41  1  0  0  0
 37 38  1  0  0  0
 38 39  2  0  0  0
 39 40  1  0  0  0
 40 41  2  0  0  0
 19 20  1  0  0  0
 20 21  1  0  0  0
 20 25  2  0  0  0
 21 22  2  0  0  0
 22 23  1  0  0  0
 23 24  2  0  0  0
 24 25  1  0  0  0
 13 14  1  0  0  0
  2  3  1  0  0  0
 30 31  1  0  0  0
 34 42  1  0  0  0
M  END
> <minimizedAffinity>
-9.52897

$$$$
2R5P_MK1_B_902


 49 53  0  0  0  0  0  0  0  0999 V2000
   30.3763  -12.1617   -2.3870 C   0  0  0  0  0  0  0  0  0  0  0  0
   31.3141  -13.2332   -2.5535 O   0  0  0  0  0  0  0  0  0  0  0  0
   31.8907  -13.2822   -1.7750 H   0  0  0  0  0  0  0  0  0  0  0  0
   31.2350  -10.8871   -2.2484 C   0  0  0  0  0  0  0  0  0  0  0  0
   30.9847   -7.2485   -4.5154 N   0  0  0  0  0  0  0  0  0  0  0  0
   29.7989   -7.6739   -3.7092 C   0  0  0  0  0  0  0  0  0  0  0  0
   30.1525   -8.6374   -2.5711 C   0  0  0  0  0  0  0  0  0  0  0  0
   30.8144   -9.8601   -3.2393 N   0  0  0  0  0  0  0  0  0  0  0  0
   32.0289   -9.4948   -4.0143 C   0  0  0  0  0  0  0  0  0  0  0  0
   31.6288   -8.4569   -5.0612 C   0  0  0  0  0  0  0  0  0  0  0  0
   28.8749   -8.9890   -1.8146 C   0  0  0  0  0  0  0  0  0  0  0  0
   28.9627   -9.3586   -0.6372 O   0  0  0  0  0  0  0  0  0  0  0  0
   27.7157   -8.8732   -2.4989 N   0  0  0  0  0  0  0  0  0  0  0  0
   27.7819   -8.5759   -3.4351 H   0  0  0  0  0  0  0  0  0  0  0  0
   26.3679   -9.1461   -1.9864 C   0  0  0  0  0  0  0  0  0  0  0  0
   25.4303   -8.4707   -2.9854 C   0  0  0  0  0  0  0  0  0  0  0  0
   26.1904   -8.5012   -0.6180 C   0  0  0  0  0  0  0  0  0  0  0  0
   26.0550  -10.6471   -1.9684 C   0  0  0  0  0  0  0  0  0  0  0  0
   30.5826   -6.3066   -5.5845 C   0  0  0  0  0  0  0  0  0  0  0  0
   30.2570   -4.8714   -5.2299 C   0  0  0  0  0  0  0  0  0  0  0  0
   31.2760   -3.9728   -4.8536 C   0  0  0  0  0  0  0  0  0  0  0  0
   31.0870   -2.6182   -4.5018 N   0  0  0  0  0  0  0  0  0  0  0  0
   29.7268   -2.2464   -4.5710 C   0  0  0  0  0  0  0  0  0  0  0  0
   28.6474   -3.0668   -4.9350 C   0  0  0  0  0  0  0  0  0  0  0  0
   28.9177   -4.4066   -5.2722 C   0  0  0  0  0  0  0  0  0  0  0  0
   29.5129  -12.4804   -1.1424 C   0  0  0  0  0  0  0  0  0  0  0  0
   29.9728  -13.7196   -0.3473 C   0  0  0  0  0  0  0  0  0  0  0  0
   29.2602  -13.7868    1.0129 C   0  0  0  0  0  0  0  0  0  0  0  0
   29.0327  -12.8025    1.7258 O   0  0  0  0  0  0  0  0  0  0  0  0
   28.9221  -15.0242    1.3777 N   0  0  0  0  0  0  0  0  0  0  0  0
   28.8631  -15.7130    0.6767 H   0  0  0  0  0  0  0  0  0  0  0  0
   28.6412  -15.4099    2.7200 C   0  0  0  0  0  0  0  0  0  0  0  0
   29.0600  -16.8173    3.1041 C   0  0  0  0  0  0  0  0  0  0  0  0
   28.8640  -17.7309    2.0150 O   0  0  0  0  0  0  0  0  0  0  0  0
   28.1745  -17.1751    4.2683 C   0  0  0  0  0  0  0  0  0  0  0  0
   26.8791  -16.4319    4.0252 C   0  0  0  0  0  0  0  0  0  0  0  0
   25.5569  -16.6083    4.5218 C   0  0  0  0  0  0  0  0  0  0  0  0
   24.5495  -15.7321    4.0941 C   0  0  0  0  0  0  0  0  0  0  0  0
   24.8007  -14.6902    3.1868 C   0  0  0  0  0  0  0  0  0  0  0  0
   26.1059  -14.5210    2.6985 C   0  0  0  0  0  0  0  0  0  0  0  0
   27.1693  -15.3675    3.0870 C   0  0  0  0  0  0  0  0  0  0  0  0
   27.9315  -17.7206    1.7481 H   0  0  0  0  0  0  0  0  0  0  0  0
   31.5055  -13.6539   -0.1188 C   0  0  0  0  0  0  0  0  0  0  0  0
   32.0439  -14.8439    0.6557 C   0  0  0  0  0  0  0  0  0  0  0  0
   32.5603  -14.7095    1.9736 C   0  0  0  0  0  0  0  0  0  0  0  0
   33.0690  -15.8194    2.6743 C   0  0  0  0  0  0  0  0  0  0  0  0
   33.0590  -17.0857    2.0363 C   0  0  0  0  0  0  0  0  0  0  0  0
   32.5475  -17.2312    0.7285 C   0  0  0  0  0  0  0  0  0  0  0  0
   32.0381  -16.1113    0.0300 C   0  0  0  0  0  0  0  0  0  0  0  0
  5  6  1  0  0  0
  5 10  1  0  0  0
  5 19  1  0  0  0
  6  7  1  0  0  0
  7 11  1  0  0  0
  7  8  1  0  0  0
 11 12  2  0  0  0
 11 13  1  0  0  0
 13 15  1  0  0  0
 15 16  1  0  0  0
 15 17  1  0  0  0
 15 18  1  0  0  0
  8  9  1  0  0  0
  8  4  1  0  0  0
  9 10  1  0  0  0
  4  1  1  0  0  0
  1  2  1  0  0  0
  1 26  1  0  0  0
 26 27  1  0  0  0
 27 43  1  0  0  0
 27 28  1  0  0  0
 43 44  1  0  0  0
 44 45  2  0  0  0
 44 49  1  0  0  0
 45 46  1  0  0  0
 46 47  2  0  0  0
 47 48  1  0  0  0
 48 49  2  0  0  0
 28 29  2  0  0  0
 28 30  1  0  0  0
 30 32  1  0  0  0
 32 33  1  0  0  0
 32 41  1  0  0  0
 33 34  1  0  0  0
 33 35  1  0  0  0
 35 36  1  0  0  0
 36 37  2  0  0  0
 36 41  1  0  0  0
 37 38  1  0  0  0
 38 39  2  0  0  0
 39 40  1  0  0  0
 40 41  2  0  0  0
 19 20  1  0  0  0
 20 21  1  0  0  0
 20 25  2  0  0  0
 21 22  2  0  0  0
 22 23  1  0  0  0
 23 24  2  0  0  0
 24 25  1  0  0  0
 13 14  1  0  0  0
  2  3  1  0  0  0
 30 31  1  0  0  0
 34 42  1  0  0  0
M  END
> <minimizedAffinity>
-9.52407

$$$$
