4QPL_V3L_A_201


 45 48  0  0  0  0  0  0  0  0999 V2000
   54.6973   11.2167   30.4484 C   0  0  0  0  0  0  0  0  0  0  0  0
   56.2193   11.1013   30.5560 C   0  0  0  0  0  0  0  0  0  0  0  0
   56.5855   10.3193   29.3202 C   0  0  0  0  0  0  0  0  0  0  0  0
   56.8382   11.2109   28.2276 O   0  0  0  0  0  0  0  0  0  0  0  0
   55.3604    9.4590   29.0673 C   0  0  0  0  0  0  0  0  0  0  0  0
   54.2546   10.0643   29.7491 O   0  0  0  0  0  0  0  0  0  0  0  0
   56.0594   11.7701   28.0798 H   0  0  0  0  0  0  0  0  0  0  0  0
   52.8685   14.4603   34.0134 N   0  0  0  0  0  0  0  0  0  0  0  0
   53.2319   14.6953   32.7356 C   0  0  0  0  0  0  0  0  0  0  0  0
   53.6836   13.7147   31.9371 N   0  0  0  0  0  0  0  0  0  0  0  0
   53.8044   12.4405   32.4019 C   0  0  0  0  0  0  0  0  0  0  0  0
   53.4653   12.1272   33.7021 C   0  0  0  0  0  0  0  0  0  0  0  0
   52.9782   13.2170   34.5465 C   0  0  0  0  0  0  0  0  0  0  0  0
   52.6249   12.9555   35.8101 N   0  0  0  0  0  0  0  0  0  0  0  0
   53.6636   10.8054   33.8983 N   0  0  0  0  0  0  0  0  0  0  0  0
   54.1312   10.3061   32.7359 C   0  0  0  0  0  0  0  0  0  0  0  0
   54.1858   11.3060   31.8273 N   0  0  0  0  0  0  0  0  0  0  0  0
   52.2954   13.6803   36.3892 H   0  0  0  0  0  0  0  0  0  0  0  0
   52.6945   12.0382   36.1609 H   0  0  0  0  0  0  0  0  0  0  0  0
   56.8459   12.3816   30.6500 O   0  0  0  0  0  0  0  0  0  0  0  0
   57.7032   12.6155   31.7602 C   0  0  0  0  0  0  0  0  0  0  0  0
   57.9122   14.1155   31.9793 C   0  0  0  0  0  0  0  0  0  0  0  0
   56.6875   14.8668   31.9730 O   0  0  0  0  0  0  0  0  0  0  0  0
   58.9053   14.4688   30.8737 C   0  0  0  0  0  0  0  0  0  0  0  0
   58.2711   14.8952   29.6506 O   0  0  0  0  0  0  0  0  0  0  0  0
   59.6498   13.1521   30.6135 C   0  0  0  0  0  0  0  0  0  0  0  0
   59.0201   12.1626   31.4341 O   0  0  0  0  0  0  0  0  0  0  0  0
   56.2280   14.7290   31.1299 H   0  0  0  0  0  0  0  0  0  0  0  0
   57.6893   14.1905   29.3253 H   0  0  0  0  0  0  0  0  0  0  0  0
   61.1485   13.2573   30.9254 C   0  0  0  0  0  0  0  0  0  0  0  0
   61.6057   12.0573   31.5632 O   0  0  0  0  0  0  0  0  0  0  0  0
   61.9129   12.0014   33.1456 P   0  0  0  0  0  0  0  0  0  0  0  0
   62.3868   10.5902   33.4287 O   0  0  0  0  0  0  0  0  0  0  0  0
   62.9458   13.0737   33.3150 O   0  0  0  0  0  0  0  0  0  0  0  0
   60.5865   12.3629   33.7631 O   0  0  0  0  0  0  0  0  0  0  0  0
   63.2426   10.4436   32.9962 H   0  0  0  0  0  0  0  0  0  0  0  0
   60.3613   13.2778   33.5326 H   0  0  0  0  0  0  0  0  0  0  0  0
   55.5346    8.0283   29.5722 C   0  0  0  0  0  0  0  0  0  0  0  0
   55.9654    8.0069   30.9371 O   0  0  0  0  0  0  0  0  0  0  0  0
   55.5797    6.7691   31.8919 P   0  0  0  0  0  0  0  0  0  0  0  0
   56.0506    7.1503   33.2606 O   0  0  0  0  0  0  0  0  0  0  0  0
   54.0845    6.6956   31.7833 O   0  0  0  0  0  0  0  0  0  0  0  0
   56.3173    5.5998   31.2997 O   0  0  0  0  0  0  0  0  0  0  0  0
   55.5351    7.9070   33.5807 H   0  0  0  0  0  0  0  0  0  0  0  0
   55.9634    5.4076   30.4172 H   0  0  0  0  0  0  0  0  0  0  0  0
  8 13  2  0  0  0
  8  9  1  0  0  0
  9 10  2  0  0  0
 11 10  1  0  0  0
 12 11  2  0  0  0
 11 17  1  0  0  0
 13 12  1  0  0  0
 12 15  1  0  0  0
 14 13  1  0  0  0
 15 16  2  0  0  0
 16 17  1  0  0  0
 17  1  1  0  0  0
 42 40  2  0  0  0
 40 39  1  0  0  0
 40 41  1  0  0  0
 40 43  1  0  0  0
 31 32  1  0  0  0
 34 32  2  0  0  0
 32 35  1  0  0  0
 32 33  1  0  0  0
 20 21  1  0  0  0
 21 22  1  0  0  0
 21 27  1  0  0  0
  6  1  1  0  0  0
  1  2  1  0  0  0
 23 22  1  0  0  0
 22 24  1  0  0  0
  3  2  1  0  0  0
  2 20  1  0  0  0
 25 24  1  0  0  0
 24 26  1  0  0  0
  5  3  1  0  0  0
  3  4  1  0  0  0
 27 26  1  0  0  0
 26 30  1  0  0  0
  6  5  1  0  0  0
 38  5  1  0  0  0
 30 31  1  0  0  0
 38 39  1  0  0  0
 14 18  1  0  0  0
 14 19  1  0  0  0
 41 44  1  0  0  0
 33 36  1  0  0  0
 23 28  1  0  0  0
 25 29  1  0  0  0
  4  7  1  0  0  0
 43 45  1  0  0  0
 35 37  1  0  0  0
M  END
> <minimizedAffinity>
-10.09891

$$$$
4QPL_V3L_A_201


 45 48  0  0  0  0  0  0  0  0999 V2000
   54.2591   11.1454   30.3403 C   0  0  0  0  0  0  0  0  0  0  0  0
   55.7829   11.0060   30.3256 C   0  0  0  0  0  0  0  0  0  0  0  0
   56.0345   10.1963   29.0791 C   0  0  0  0  0  0  0  0  0  0  0  0
   56.2107   11.0641   27.9528 O   0  0  0  0  0  0  0  0  0  0  0  0
   54.7796    9.3527   28.9432 C   0  0  0  0  0  0  0  0  0  0  0  0
   53.7428    9.9886   29.7014 O   0  0  0  0  0  0  0  0  0  0  0  0
   55.4312   11.6337   27.8585 H   0  0  0  0  0  0  0  0  0  0  0  0
   52.8597   14.4930   34.0022 N   0  0  0  0  0  0  0  0  0  0  0  0
   53.1293   14.7020   32.6969 C   0  0  0  0  0  0  0  0  0  0  0  0
   53.4740   13.6965   31.8763 N   0  0  0  0  0  0  0  0  0  0  0  0
   53.5777   12.4221   32.3446 C   0  0  0  0  0  0  0  0  0  0  0  0
   53.3307   12.1340   33.6710 C   0  0  0  0  0  0  0  0  0  0  0  0
   52.9590   13.2505   34.5391 C   0  0  0  0  0  0  0  0  0  0  0  0
   52.6971   13.0145   35.8296 N   0  0  0  0  0  0  0  0  0  0  0  0
   53.4880   10.8065   33.8659 N   0  0  0  0  0  0  0  0  0  0  0  0
   53.8397   10.2783   32.6758 C   0  0  0  0  0  0  0  0  0  0  0  0
   53.8637   11.2677   31.7544 N   0  0  0  0  0  0  0  0  0  0  0  0
   52.4457   13.7574   36.4248 H   0  0  0  0  0  0  0  0  0  0  0  0
   52.7557   12.0980   36.1842 H   0  0  0  0  0  0  0  0  0  0  0  0
   56.4349   12.2768   30.3440 O   0  0  0  0  0  0  0  0  0  0  0  0
   57.8429   12.2920   30.5431 C   0  0  0  0  0  0  0  0  0  0  0  0
   58.1930   12.8978   31.9041 C   0  0  0  0  0  0  0  0  0  0  0  0
   57.4201   12.3514   32.9851 O   0  0  0  0  0  0  0  0  0  0  0  0
   58.0043   14.3924   31.6513 C   0  0  0  0  0  0  0  0  0  0  0  0
   56.6758   14.8610   31.9603 O   0  0  0  0  0  0  0  0  0  0  0  0
   58.2454   14.5438   30.1431 C   0  0  0  0  0  0  0  0  0  0  0  0
   58.4316   13.2209   29.6288 O   0  0  0  0  0  0  0  0  0  0  0  0
   56.4761   12.4882   32.8090 H   0  0  0  0  0  0  0  0  0  0  0  0
   56.0290   14.3762   31.4241 H   0  0  0  0  0  0  0  0  0  0  0  0
   59.4557   15.4339   29.8318 C   0  0  0  0  0  0  0  0  0  0  0  0
   59.8884   15.2246   28.4809 O   0  0  0  0  0  0  0  0  0  0  0  0
   59.2046   15.9974   27.2413 P   0  0  0  0  0  0  0  0  0  0  0  0
   60.3471   16.5044   26.3847 O   0  0  0  0  0  0  0  0  0  0  0  0
   58.3576   14.9293   26.6188 O   0  0  0  0  0  0  0  0  0  0  0  0
   58.3906   17.0711   27.9166 O   0  0  0  0  0  0  0  0  0  0  0  0
   60.8146   15.7514   25.9907 H   0  0  0  0  0  0  0  0  0  0  0  0
   57.6854   16.6605   28.4409 H   0  0  0  0  0  0  0  0  0  0  0  0
   54.9722    7.9282   29.4593 C   0  0  0  0  0  0  0  0  0  0  0  0
   55.7647    7.9092   30.6511 O   0  0  0  0  0  0  0  0  0  0  0  0
   55.4945    6.8027   31.7892 P   0  0  0  0  0  0  0  0  0  0  0  0
   54.0126    6.5934   31.8080 O   0  0  0  0  0  0  0  0  0  0  0  0
   56.2520    5.6034   31.2986 O   0  0  0  0  0  0  0  0  0  0  0  0
   56.0360    7.4244   33.0471 O   0  0  0  0  0  0  0  0  0  0  0  0
   53.7322    6.1914   30.9709 H   0  0  0  0  0  0  0  0  0  0  0  0
   56.9968    7.5310   32.9674 H   0  0  0  0  0  0  0  0  0  0  0  0
  8 13  2  0  0  0
  8  9  1  0  0  0
  9 10  2  0  0  0
 11 10  1  0  0  0
 12 11  2  0  0  0
 11 17  1  0  0  0
 13 12  1  0  0  0
 12 15  1  0  0  0
 14 13  1  0  0  0
 15 16  2  0  0  0
 16 17  1  0  0  0
 17  1  1  0  0  0
 42 40  2  0  0  0
 40 39  1  0  0  0
 40 41  1  0  0  0
 40 43  1  0  0  0
 31 32  1  0  0  0
 34 32  2  0  0  0
 32 35  1  0  0  0
 32 33  1  0  0  0
 20 21  1  0  0  0
 21 22  1  0  0  0
 21 27  1  0  0  0
  6  1  1  0  0  0
  1  2  1  0  0  0
 23 22  1  0  0  0
 22 24  1  0  0  0
  3  2  1  0  0  0
  2 20  1  0  0  0
 25 24  1  0  0  0
 24 26  1  0  0  0
  5  3  1  0  0  0
  3  4  1  0  0  0
 27 26  1  0  0  0
 26 30  1  0  0  0
  6  5  1  0  0  0
 38  5  1  0  0  0
 30 31  1  0  0  0
 38 39  1  0  0  0
 14 18  1  0  0  0
 14 19  1  0  0  0
 41 44  1  0  0  0
 33 36  1  0  0  0
 23 28  1  0  0  0
 25 29  1  0  0  0
  4  7  1  0  0  0
 43 45  1  0  0  0
 35 37  1  0  0  0
M  END
> <minimizedAffinity>
-9.32174

$$$$
4QPL_V3L_A_201


 45 48  0  0  0  0  0  0  0  0999 V2000
   54.7808    7.4318   30.3333 C   0  0  0  0  0  0  0  0  0  0  0  0
   54.9477    8.9494   30.4352 C   0  0  0  0  0  0  0  0  0  0  0  0
   54.5083    9.4281   29.0748 C   0  0  0  0  0  0  0  0  0  0  0  0
   53.0999    9.6911   29.0741 O   0  0  0  0  0  0  0  0  0  0  0  0
   54.8606    8.2697   28.1589 C   0  0  0  0  0  0  0  0  0  0  0  0
   54.9850    7.0949   28.9704 O   0  0  0  0  0  0  0  0  0  0  0  0
   52.6216    8.8916   29.3441 H   0  0  0  0  0  0  0  0  0  0  0  0
   55.7056    6.1881   35.2499 N   0  0  0  0  0  0  0  0  0  0  0  0
   54.5988    6.7124   34.6841 C   0  0  0  0  0  0  0  0  0  0  0  0
   54.5303    6.9662   33.3672 N   0  0  0  0  0  0  0  0  0  0  0  0
   55.5933    6.7130   32.5547 C   0  0  0  0  0  0  0  0  0  0  0  0
   56.7637    6.1898   33.0644 C   0  0  0  0  0  0  0  0  0  0  0  0
   56.8073    5.9260   34.5020 C   0  0  0  0  0  0  0  0  0  0  0  0
   57.9179    5.4058   35.0366 N   0  0  0  0  0  0  0  0  0  0  0  0
   57.6438    6.0230   32.0531 N   0  0  0  0  0  0  0  0  0  0  0  0
   57.0300    6.4482   30.9300 C   0  0  0  0  0  0  0  0  0  0  0  0
   55.7747    6.8394   31.2456 N   0  0  0  0  0  0  0  0  0  0  0  0
   57.9602    5.2234   36.0031 H   0  0  0  0  0  0  0  0  0  0  0  0
   58.6929    5.2054   34.4634 H   0  0  0  0  0  0  0  0  0  0  0  0
   54.1993    9.4965   31.5220 O   0  0  0  0  0  0  0  0  0  0  0  0
   54.8997   10.2936   32.4688 C   0  0  0  0  0  0  0  0  0  0  0  0
   53.9380   11.2186   33.2182 C   0  0  0  0  0  0  0  0  0  0  0  0
   52.7731   10.5423   33.7183 O   0  0  0  0  0  0  0  0  0  0  0  0
   53.6702   12.3121   32.1858 C   0  0  0  0  0  0  0  0  0  0  0  0
   52.5202   12.0464   31.3570 O   0  0  0  0  0  0  0  0  0  0  0  0
   54.9280   12.3036   31.3063 C   0  0  0  0  0  0  0  0  0  0  0  0
   55.7377   11.2176   31.7692 O   0  0  0  0  0  0  0  0  0  0  0  0
   52.3020   10.1222   32.9819 H   0  0  0  0  0  0  0  0  0  0  0  0
   52.6469   11.2071   30.8875 H   0  0  0  0  0  0  0  0  0  0  0  0
   55.6942   13.6315   31.3704 C   0  0  0  0  0  0  0  0  0  0  0  0
   57.0131   13.4672   30.8322 O   0  0  0  0  0  0  0  0  0  0  0  0
   58.3313   13.6730   31.7385 P   0  0  0  0  0  0  0  0  0  0  0  0
   59.4289   14.1028   30.7863 O   0  0  0  0  0  0  0  0  0  0  0  0
   57.8901   14.7122   32.7239 O   0  0  0  0  0  0  0  0  0  0  0  0
   58.5283   12.3170   32.3659 O   0  0  0  0  0  0  0  0  0  0  0  0
   59.2228   14.9814   30.4307 H   0  0  0  0  0  0  0  0  0  0  0  0
   57.7841   12.1231   32.9571 H   0  0  0  0  0  0  0  0  0  0  0  0
   56.1695    8.4956   27.4051 C   0  0  0  0  0  0  0  0  0  0  0  0
   56.6772    9.8153   27.6278 O   0  0  0  0  0  0  0  0  0  0  0  0
   58.0982   10.0275   28.3548 P   0  0  0  0  0  0  0  0  0  0  0  0
   58.6091    8.6532   28.6559 O   0  0  0  0  0  0  0  0  0  0  0  0
   58.9162   10.7462   27.3218 O   0  0  0  0  0  0  0  0  0  0  0  0
   57.7709   10.8357   29.5803 O   0  0  0  0  0  0  0  0  0  0  0  0
   58.7992    8.1898   27.8252 H   0  0  0  0  0  0  0  0  0  0  0  0
   57.4471   11.7103   29.3137 H   0  0  0  0  0  0  0  0  0  0  0  0
  8 13  2  0  0  0
  8  9  1  0  0  0
  9 10  2  0  0  0
 11 10  1  0  0  0
 12 11  2  0  0  0
 11 17  1  0  0  0
 13 12  1  0  0  0
 12 15  1  0  0  0
 14 13  1  0  0  0
 15 16  2  0  0  0
 16 17  1  0  0  0
 17  1  1  0  0  0
 42 40  2  0  0  0
 40 39  1  0  0  0
 40 41  1  0  0  0
 40 43  1  0  0  0
 31 32  1  0  0  0
 34 32  2  0  0  0
 32 35  1  0  0  0
 32 33  1  0  0  0
 20 21  1  0  0  0
 21 22  1  0  0  0
 21 27  1  0  0  0
  6  1  1  0  0  0
  1  2  1  0  0  0
 23 22  1  0  0  0
 22 24  1  0  0  0
  3  2  1  0  0  0
  2 20  1  0  0  0
 25 24  1  0  0  0
 24 26  1  0  0  0
  5  3  1  0  0  0
  3  4  1  0  0  0
 27 26  1  0  0  0
 26 30  1  0  0  0
  6  5  1  0  0  0
 38  5  1  0  0  0
 30 31  1  0  0  0
 38 39  1  0  0  0
 14 18  1  0  0  0
 14 19  1  0  0  0
 41 44  1  0  0  0
 33 36  1  0  0  0
 23 28  1  0  0  0
 25 29  1  0  0  0
  4  7  1  0  0  0
 43 45  1  0  0  0
 35 37  1  0  0  0
M  END
> <minimizedAffinity>
-8.72112

$$$$
4QPL_V3L_A_201


 45 48  0  0  0  0  0  0  0  0999 V2000
   57.9819   12.0331   29.8147 C   0  0  0  0  0  0  0  0  0  0  0  0
   59.1388   13.0111   29.5990 C   0  0  0  0  0  0  0  0  0  0  0  0
   60.2585   12.1116   29.1407 C   0  0  0  0  0  0  0  0  0  0  0  0
   60.2399   11.9867   27.7135 O   0  0  0  0  0  0  0  0  0  0  0  0
   59.9539   10.7890   29.8211 C   0  0  0  0  0  0  0  0  0  0  0  0
   58.5660   10.7924   30.1786 O   0  0  0  0  0  0  0  0  0  0  0  0
   59.3742   11.6540   27.4294 H   0  0  0  0  0  0  0  0  0  0  0  0
   53.1335   12.3924   31.5289 N   0  0  0  0  0  0  0  0  0  0  0  0
   53.6340   11.6905   30.4910 C   0  0  0  0  0  0  0  0  0  0  0  0
   54.9429   11.7069   30.1920 N   0  0  0  0  0  0  0  0  0  0  0  0
   55.8141   12.4526   30.9264 C   0  0  0  0  0  0  0  0  0  0  0  0
   55.3732   13.2072   31.9939 C   0  0  0  0  0  0  0  0  0  0  0  0
   53.9423   13.1693   32.2930 C   0  0  0  0  0  0  0  0  0  0  0  0
   53.4732   13.8752   33.3282 N   0  0  0  0  0  0  0  0  0  0  0  0
   56.4321   13.8322   32.5534 N   0  0  0  0  0  0  0  0  0  0  0  0
   57.5166   13.4781   31.8341 C   0  0  0  0  0  0  0  0  0  0  0  0
   57.1300   12.6178   30.8651 N   0  0  0  0  0  0  0  0  0  0  0  0
   52.5120   13.8584   33.5403 H   0  0  0  0  0  0  0  0  0  0  0  0
   54.0893   14.4115   33.8778 H   0  0  0  0  0  0  0  0  0  0  0  0
   58.7979   14.0449   28.6742 O   0  0  0  0  0  0  0  0  0  0  0  0
   59.0422   15.3890   29.0692 C   0  0  0  0  0  0  0  0  0  0  0  0
   59.0947   16.3129   27.8504 C   0  0  0  0  0  0  0  0  0  0  0  0
   57.9947   16.1231   26.9457 O   0  0  0  0  0  0  0  0  0  0  0  0
   60.4776   16.0122   27.2755 C   0  0  0  0  0  0  0  0  0  0  0  0
   60.4691   14.9644   26.2845 O   0  0  0  0  0  0  0  0  0  0  0  0
   61.2863   15.5388   28.4910 C   0  0  0  0  0  0  0  0  0  0  0  0
   60.3706   15.4862   29.5902 O   0  0  0  0  0  0  0  0  0  0  0  0
   57.9783   15.2008   26.6457 H   0  0  0  0  0  0  0  0  0  0  0  0
   60.1178   14.1502   26.6778 H   0  0  0  0  0  0  0  0  0  0  0  0
   62.4702   16.4643   28.8010 C   0  0  0  0  0  0  0  0  0  0  0  0
   63.1299   16.0375   30.0005 O   0  0  0  0  0  0  0  0  0  0  0  0
   64.2882   14.9153   29.9786 P   0  0  0  0  0  0  0  0  0  0  0  0
   65.1205   15.1993   28.7446 O   0  0  0  0  0  0  0  0  0  0  0  0
   64.9817   15.1375   31.2883 O   0  0  0  0  0  0  0  0  0  0  0  0
   63.5112   13.6246   29.9387 O   0  0  0  0  0  0  0  0  0  0  0  0
   65.5843   16.0440   28.8548 H   0  0  0  0  0  0  0  0  0  0  0  0
   63.0099   13.5234   30.7630 H   0  0  0  0  0  0  0  0  0  0  0  0
   60.7921   10.5703   31.0789 C   0  0  0  0  0  0  0  0  0  0  0  0
   61.6034   11.7134   31.3690 O   0  0  0  0  0  0  0  0  0  0  0  0
   61.8092   12.1992   32.8902 P   0  0  0  0  0  0  0  0  0  0  0  0
   60.4349   12.4628   33.4214 O   0  0  0  0  0  0  0  0  0  0  0  0
   62.4781   11.0259   33.5451 O   0  0  0  0  0  0  0  0  0  0  0  0
   62.6621   13.4324   32.7738 O   0  0  0  0  0  0  0  0  0  0  0  0
   59.9417   11.6290   33.4704 H   0  0  0  0  0  0  0  0  0  0  0  0
   63.5344   13.1905   32.4252 H   0  0  0  0  0  0  0  0  0  0  0  0
  8 13  2  0  0  0
  8  9  1  0  0  0
  9 10  2  0  0  0
 11 10  1  0  0  0
 12 11  2  0  0  0
 11 17  1  0  0  0
 13 12  1  0  0  0
 12 15  1  0  0  0
 14 13  1  0  0  0
 15 16  2  0  0  0
 16 17  1  0  0  0
 17  1  1  0  0  0
 42 40  2  0  0  0
 40 39  1  0  0  0
 40 41  1  0  0  0
 40 43  1  0  0  0
 31 32  1  0  0  0
 34 32  2  0  0  0
 32 35  1  0  0  0
 32 33  1  0  0  0
 20 21  1  0  0  0
 21 22  1  0  0  0
 21 27  1  0  0  0
  6  1  1  0  0  0
  1  2  1  0  0  0
 23 22  1  0  0  0
 22 24  1  0  0  0
  3  2  1  0  0  0
  2 20  1  0  0  0
 25 24  1  0  0  0
 24 26  1  0  0  0
  5  3  1  0  0  0
  3  4  1  0  0  0
 27 26  1  0  0  0
 26 30  1  0  0  0
  6  5  1  0  0  0
 38  5  1  0  0  0
 30 31  1  0  0  0
 38 39  1  0  0  0
 14 18  1  0  0  0
 14 19  1  0  0  0
 41 44  1  0  0  0
 33 36  1  0  0  0
 23 28  1  0  0  0
 25 29  1  0  0  0
  4  7  1  0  0  0
 43 45  1  0  0  0
 35 37  1  0  0  0
M  END
> <minimizedAffinity>
-8.50227

$$$$
4QPL_V3L_A_201


 45 48  0  0  0  0  0  0  0  0999 V2000
   54.6146   11.2317   30.3996 C   0  0  0  0  0  0  0  0  0  0  0  0
   56.1362   11.0857   30.4703 C   0  0  0  0  0  0  0  0  0  0  0  0
   56.4589   10.3165   29.2145 C   0  0  0  0  0  0  0  0  0  0  0  0
   56.7038   11.2202   28.1301 O   0  0  0  0  0  0  0  0  0  0  0  0
   55.2119    9.4837   28.9767 C   0  0  0  0  0  0  0  0  0  0  0  0
   54.1339   10.0991   29.6931 O   0  0  0  0  0  0  0  0  0  0  0  0
   55.9329   11.7964   28.0089 H   0  0  0  0  0  0  0  0  0  0  0  0
   52.8599   14.4418   34.0315 N   0  0  0  0  0  0  0  0  0  0  0  0
   53.1910   14.6875   32.7469 C   0  0  0  0  0  0  0  0  0  0  0  0
   53.6272   13.7146   31.9306 N   0  0  0  0  0  0  0  0  0  0  0  0
   53.7646   12.4377   32.3831 C   0  0  0  0  0  0  0  0  0  0  0  0
   53.4586   12.1136   33.6888 C   0  0  0  0  0  0  0  0  0  0  0  0
   52.9877   13.1953   34.5528 C   0  0  0  0  0  0  0  0  0  0  0  0
   52.6665   12.9232   35.8227 N   0  0  0  0  0  0  0  0  0  0  0  0
   53.6672   10.7914   33.8706 N   0  0  0  0  0  0  0  0  0  0  0  0
   54.1082   10.3023   32.6936 C   0  0  0  0  0  0  0  0  0  0  0  0
   54.1366   11.3090   31.7912 N   0  0  0  0  0  0  0  0  0  0  0  0
   52.3481   13.6424   36.4148 H   0  0  0  0  0  0  0  0  0  0  0  0
   52.7484   12.0038   36.1650 H   0  0  0  0  0  0  0  0  0  0  0  0
   56.7895   12.3521   30.5694 O   0  0  0  0  0  0  0  0  0  0  0  0
   58.2102   12.3575   30.6303 C   0  0  0  0  0  0  0  0  0  0  0  0
   58.6976   13.0715   31.8931 C   0  0  0  0  0  0  0  0  0  0  0  0
   58.0278   12.6352   33.0869 O   0  0  0  0  0  0  0  0  0  0  0  0
   58.5012   14.5421   31.5296 C   0  0  0  0  0  0  0  0  0  0  0  0
   57.2141   15.0609   31.9224 O   0  0  0  0  0  0  0  0  0  0  0  0
   58.5960   14.5583   29.9978 C   0  0  0  0  0  0  0  0  0  0  0  0
   58.7172   13.1927   29.5858 O   0  0  0  0  0  0  0  0  0  0  0  0
   57.0726   12.7743   32.9910 H   0  0  0  0  0  0  0  0  0  0  0  0
   56.5131   14.5441   31.4954 H   0  0  0  0  0  0  0  0  0  0  0  0
   59.7798   15.3950   29.4949 C   0  0  0  0  0  0  0  0  0  0  0  0
   59.3049   16.5305   28.7593 O   0  0  0  0  0  0  0  0  0  0  0  0
   59.2440   16.5325   27.1475 P   0  0  0  0  0  0  0  0  0  0  0  0
   60.4070   15.6780   26.6854 O   0  0  0  0  0  0  0  0  0  0  0  0
   57.8825   15.9703   26.8723 O   0  0  0  0  0  0  0  0  0  0  0  0
   59.3539   17.9958   26.8044 O   0  0  0  0  0  0  0  0  0  0  0  0
   60.2548   14.7563   26.9463 H   0  0  0  0  0  0  0  0  0  0  0  0
   58.5722   18.4651   27.1354 H   0  0  0  0  0  0  0  0  0  0  0  0
   55.3697    8.0421   29.4555 C   0  0  0  0  0  0  0  0  0  0  0  0
   55.7302    7.1722   28.3775 O   0  0  0  0  0  0  0  0  0  0  0  0
   57.2793    6.9335   28.0088 P   0  0  0  0  0  0  0  0  0  0  0  0
   57.3698    5.5170   27.5341 O   0  0  0  0  0  0  0  0  0  0  0  0
   57.5392    7.9360   26.9223 O   0  0  0  0  0  0  0  0  0  0  0  0
   58.0111    7.1902   29.2974 O   0  0  0  0  0  0  0  0  0  0  0  0
   56.8786    5.4224   26.7031 H   0  0  0  0  0  0  0  0  0  0  0  0
   57.9116    8.1226   29.5457 H   0  0  0  0  0  0  0  0  0  0  0  0
  8 13  2  0  0  0
  8  9  1  0  0  0
  9 10  2  0  0  0
 11 10  1  0  0  0
 12 11  2  0  0  0
 11 17  1  0  0  0
 13 12  1  0  0  0
 12 15  1  0  0  0
 14 13  1  0  0  0
 15 16  2  0  0  0
 16 17  1  0  0  0
 17  1  1  0  0  0
 42 40  2  0  0  0
 40 39  1  0  0  0
 40 41  1  0  0  0
 40 43  1  0  0  0
 31 32  1  0  0  0
 34 32  2  0  0  0
 32 35  1  0  0  0
 32 33  1  0  0  0
 20 21  1  0  0  0
 21 22  1  0  0  0
 21 27  1  0  0  0
  6  1  1  0  0  0
  1  2  1  0  0  0
 23 22  1  0  0  0
 22 24  1  0  0  0
  3  2  1  0  0  0
  2 20  1  0  0  0
 25 24  1  0  0  0
 24 26  1  0  0  0
  5  3  1  0  0  0
  3  4  1  0  0  0
 27 26  1  0  0  0
 26 30  1  0  0  0
  6  5  1  0  0  0
 38  5  1  0  0  0
 30 31  1  0  0  0
 38 39  1  0  0  0
 14 18  1  0  0  0
 14 19  1  0  0  0
 41 44  1  0  0  0
 33 36  1  0  0  0
 23 28  1  0  0  0
 25 29  1  0  0  0
  4  7  1  0  0  0
 43 45  1  0  0  0
 35 37  1  0  0  0
M  END
> <minimizedAffinity>
-8.42013

$$$$
4QPL_V3L_A_201


 45 48  0  0  0  0  0  0  0  0999 V2000
   59.0719   12.1360   32.2208 C   0  0  0  0  0  0  0  0  0  0  0  0
   59.5267   11.8511   30.7878 C   0  0  0  0  0  0  0  0  0  0  0  0
   60.9666   11.4420   30.9671 C   0  0  0  0  0  0  0  0  0  0  0  0
   61.0577   10.0257   31.1631 O   0  0  0  0  0  0  0  0  0  0  0  0
   61.4024   12.2063   32.2044 C   0  0  0  0  0  0  0  0  0  0  0  0
   60.2212   12.5728   32.9287 O   0  0  0  0  0  0  0  0  0  0  0  0
   60.5150    9.7692   31.9252 H   0  0  0  0  0  0  0  0  0  0  0  0
   53.9855   12.8973   32.5730 N   0  0  0  0  0  0  0  0  0  0  0  0
   54.7079   11.7756   32.7732 C   0  0  0  0  0  0  0  0  0  0  0  0
   56.0445   11.7630   32.6449 N   0  0  0  0  0  0  0  0  0  0  0  0
   56.7190   12.8915   32.2904 C   0  0  0  0  0  0  0  0  0  0  0  0
   56.0463   14.0729   32.0556 C   0  0  0  0  0  0  0  0  0  0  0  0
   54.5915   14.0536   32.2021 C   0  0  0  0  0  0  0  0  0  0  0  0
   53.9001   15.1806   31.9974 N   0  0  0  0  0  0  0  0  0  0  0  0
   56.9443   15.0308   31.7380 N   0  0  0  0  0  0  0  0  0  0  0  0
   58.1601   14.4475   31.7645 C   0  0  0  0  0  0  0  0  0  0  0  0
   58.0104   13.1538   32.1284 N   0  0  0  0  0  0  0  0  0  0  0  0
   52.9202   15.1811   32.0928 H   0  0  0  0  0  0  0  0  0  0  0  0
   54.3712   16.0093   31.7514 H   0  0  0  0  0  0  0  0  0  0  0  0
   58.7090   10.8657   30.1547 O   0  0  0  0  0  0  0  0  0  0  0  0
   57.7968   11.3083   29.1576 C   0  0  0  0  0  0  0  0  0  0  0  0
   57.8727   10.4161   27.9166 C   0  0  0  0  0  0  0  0  0  0  0  0
   57.8242    9.0130   28.2218 O   0  0  0  0  0  0  0  0  0  0  0  0
   59.1587   10.8992   27.2488 C   0  0  0  0  0  0  0  0  0  0  0  0
   60.3278   10.1607   27.6584 O   0  0  0  0  0  0  0  0  0  0  0  0
   59.2974   12.3516   27.7251 C   0  0  0  0  0  0  0  0  0  0  0  0
   58.2339   12.5748   28.6570 O   0  0  0  0  0  0  0  0  0  0  0  0
   58.5525    8.7871   28.8214 H   0  0  0  0  0  0  0  0  0  0  0  0
   60.4362   10.2340   28.6196 H   0  0  0  0  0  0  0  0  0  0  0  0
   59.2365   13.3547   26.5656 C   0  0  0  0  0  0  0  0  0  0  0  0
   58.3702   14.4466   26.9021 O   0  0  0  0  0  0  0  0  0  0  0  0
   58.9435   15.9253   27.1958 P   0  0  0  0  0  0  0  0  0  0  0  0
   57.9038   16.6118   28.0584 O   0  0  0  0  0  0  0  0  0  0  0  0
   60.2518   15.6398   27.8685 O   0  0  0  0  0  0  0  0  0  0  0  0
   59.1093   16.5068   25.8154 O   0  0  0  0  0  0  0  0  0  0  0  0
   57.8632   16.1761   28.9241 H   0  0  0  0  0  0  0  0  0  0  0  0
   59.7901   16.0103   25.3350 H   0  0  0  0  0  0  0  0  0  0  0  0
   62.1913   13.4693   31.8656 C   0  0  0  0  0  0  0  0  0  0  0  0
   63.0381   13.2649   30.7298 O   0  0  0  0  0  0  0  0  0  0  0  0
   64.5432   13.8370   30.7247 P   0  0  0  0  0  0  0  0  0  0  0  0
   65.0545   13.6214   29.3346 O   0  0  0  0  0  0  0  0  0  0  0  0
   64.3678   15.2875   31.0688 O   0  0  0  0  0  0  0  0  0  0  0  0
   65.2546   13.0190   31.7672 O   0  0  0  0  0  0  0  0  0  0  0  0
   64.5543   14.1767   28.7164 H   0  0  0  0  0  0  0  0  0  0  0  0
   64.8752   13.2067   32.6399 H   0  0  0  0  0  0  0  0  0  0  0  0
  8 13  2  0  0  0
  8  9  1  0  0  0
  9 10  2  0  0  0
 11 10  1  0  0  0
 12 11  2  0  0  0
 11 17  1  0  0  0
 13 12  1  0  0  0
 12 15  1  0  0  0
 14 13  1  0  0  0
 15 16  2  0  0  0
 16 17  1  0  0  0
 17  1  1  0  0  0
 42 40  2  0  0  0
 40 39  1  0  0  0
 40 41  1  0  0  0
 40 43  1  0  0  0
 31 32  1  0  0  0
 34 32  2  0  0  0
 32 35  1  0  0  0
 32 33  1  0  0  0
 20 21  1  0  0  0
 21 22  1  0  0  0
 21 27  1  0  0  0
  6  1  1  0  0  0
  1  2  1  0  0  0
 23 22  1  0  0  0
 22 24  1  0  0  0
  3  2  1  0  0  0
  2 20  1  0  0  0
 25 24  1  0  0  0
 24 26  1  0  0  0
  5  3  1  0  0  0
  3  4  1  0  0  0
 27 26  1  0  0  0
 26 30  1  0  0  0
  6  5  1  0  0  0
 38  5  1  0  0  0
 30 31  1  0  0  0
 38 39  1  0  0  0
 14 18  1  0  0  0
 14 19  1  0  0  0
 41 44  1  0  0  0
 33 36  1  0  0  0
 23 28  1  0  0  0
 25 29  1  0  0  0
  4  7  1  0  0  0
 43 45  1  0  0  0
 35 37  1  0  0  0
M  END
> <minimizedAffinity>
-8.00436

$$$$
4QPL_V3L_A_201


 45 48  0  0  0  0  0  0  0  0999 V2000
   55.7783   10.0602   29.5672 C   0  0  0  0  0  0  0  0  0  0  0  0
   57.1457   10.7124   29.7823 C   0  0  0  0  0  0  0  0  0  0  0  0
   57.8092   10.5534   28.4379 C   0  0  0  0  0  0  0  0  0  0  0  0
   57.5204   11.6843   27.6070 O   0  0  0  0  0  0  0  0  0  0  0  0
   57.1919    9.2816   27.8844 C   0  0  0  0  0  0  0  0  0  0  0  0
   55.9624    9.0535   28.5846 O   0  0  0  0  0  0  0  0  0  0  0  0
   56.5595   11.7863   27.5223 H   0  0  0  0  0  0  0  0  0  0  0  0
   55.9816    5.9611   32.6867 N   0  0  0  0  0  0  0  0  0  0  0  0
   56.5555    6.1603   31.4820 C   0  0  0  0  0  0  0  0  0  0  0  0
   56.4004    7.3104   30.8064 N   0  0  0  0  0  0  0  0  0  0  0  0
   55.6383    8.3176   31.3152 C   0  0  0  0  0  0  0  0  0  0  0  0
   55.0090    8.1809   32.5353 C   0  0  0  0  0  0  0  0  0  0  0  0
   55.1962    6.9164   33.2455 C   0  0  0  0  0  0  0  0  0  0  0  0
   54.6153    6.7459   34.4386 N   0  0  0  0  0  0  0  0  0  0  0  0
   54.3367    9.3200   32.8097 N   0  0  0  0  0  0  0  0  0  0  0  0
   54.5376   10.1505   31.7661 C   0  0  0  0  0  0  0  0  0  0  0  0
   55.3528    9.5383   30.8779 N   0  0  0  0  0  0  0  0  0  0  0  0
   54.7334    5.8994   34.9271 H   0  0  0  0  0  0  0  0  0  0  0  0
   54.0698    7.4670   34.8280 H   0  0  0  0  0  0  0  0  0  0  0  0
   57.0276   12.0655   30.2244 O   0  0  0  0  0  0  0  0  0  0  0  0
   57.8137   12.4650   31.3401 C   0  0  0  0  0  0  0  0  0  0  0  0
   58.1460   13.9569   31.2648 C   0  0  0  0  0  0  0  0  0  0  0  0
   57.0022   14.7804   30.9860 O   0  0  0  0  0  0  0  0  0  0  0  0
   59.2516   13.9894   30.2112 C   0  0  0  0  0  0  0  0  0  0  0  0
   58.7583   14.1921   28.8712 O   0  0  0  0  0  0  0  0  0  0  0  0
   59.8862   12.5948   30.3006 C   0  0  0  0  0  0  0  0  0  0  0  0
   59.1032   11.8541   31.2427 O   0  0  0  0  0  0  0  0  0  0  0  0
   56.5991   14.5014   30.1490 H   0  0  0  0  0  0  0  0  0  0  0  0
   58.1396   13.4806   28.6433 H   0  0  0  0  0  0  0  0  0  0  0  0
   61.3590   12.6498   30.7272 C   0  0  0  0  0  0  0  0  0  0  0  0
   61.6642   11.5476   31.5921 O   0  0  0  0  0  0  0  0  0  0  0  0
   61.8625   11.7450   33.1806 P   0  0  0  0  0  0  0  0  0  0  0  0
   60.5792   12.3723   33.6862 O   0  0  0  0  0  0  0  0  0  0  0  0
   62.1254   10.3471   33.6522 O   0  0  0  0  0  0  0  0  0  0  0  0
   63.0794   12.6301   33.2645 O   0  0  0  0  0  0  0  0  0  0  0  0
   59.8514   11.7374   33.5958 H   0  0  0  0  0  0  0  0  0  0  0  0
   63.8510   12.1522   32.9222 H   0  0  0  0  0  0  0  0  0  0  0  0
   58.0986    8.0653   28.0602 C   0  0  0  0  0  0  0  0  0  0  0  0
   59.4773    8.4470   28.1112 O   0  0  0  0  0  0  0  0  0  0  0  0
   60.3707    8.0954   29.4038 P   0  0  0  0  0  0  0  0  0  0  0  0
   59.3972    7.7989   30.5014 O   0  0  0  0  0  0  0  0  0  0  0  0
   61.1542    6.8906   28.9708 O   0  0  0  0  0  0  0  0  0  0  0  0
   61.1898    9.3350   29.6370 O   0  0  0  0  0  0  0  0  0  0  0  0
   58.9050    6.9908   30.2875 H   0  0  0  0  0  0  0  0  0  0  0  0
   61.7962    9.4668   28.8915 H   0  0  0  0  0  0  0  0  0  0  0  0
  8 13  2  0  0  0
  8  9  1  0  0  0
  9 10  2  0  0  0
 11 10  1  0  0  0
 12 11  2  0  0  0
 11 17  1  0  0  0
 13 12  1  0  0  0
 12 15  1  0  0  0
 14 13  1  0  0  0
 15 16  2  0  0  0
 16 17  1  0  0  0
 17  1  1  0  0  0
 42 40  2  0  0  0
 40 39  1  0  0  0
 40 41  1  0  0  0
 40 43  1  0  0  0
 31 32  1  0  0  0
 34 32  2  0  0  0
 32 35  1  0  0  0
 32 33  1  0  0  0
 20 21  1  0  0  0
 21 22  1  0  0  0
 21 27  1  0  0  0
  6  1  1  0  0  0
  1  2  1  0  0  0
 23 22  1  0  0  0
 22 24  1  0  0  0
  3  2  1  0  0  0
  2 20  1  0  0  0
 25 24  1  0  0  0
 24 26  1  0  0  0
  5  3  1  0  0  0
  3  4  1  0  0  0
 27 26  1  0  0  0
 26 30  1  0  0  0
  6  5  1  0  0  0
 38  5  1  0  0  0
 30 31  1  0  0  0
 38 39  1  0  0  0
 14 18  1  0  0  0
 14 19  1  0  0  0
 41 44  1  0  0  0
 33 36  1  0  0  0
 23 28  1  0  0  0
 25 29  1  0  0  0
  4  7  1  0  0  0
 43 45  1  0  0  0
 35 37  1  0  0  0
M  END
> <minimizedAffinity>
-8.00025

$$$$
4QPL_V3L_A_201


 45 48  0  0  0  0  0  0  0  0999 V2000
   59.5310   13.1992   28.7024 C   0  0  0  0  0  0  0  0  0  0  0  0
   59.1955   14.0392   29.9366 C   0  0  0  0  0  0  0  0  0  0  0  0
   59.5420   15.4385   29.4953 C   0  0  0  0  0  0  0  0  0  0  0  0
   58.4021   16.0636   28.8930 O   0  0  0  0  0  0  0  0  0  0  0  0
   60.6600   15.2282   28.4899 C   0  0  0  0  0  0  0  0  0  0  0  0
   60.5841   13.8726   28.0312 O   0  0  0  0  0  0  0  0  0  0  0  0
   58.0901   15.5213   28.1517 H   0  0  0  0  0  0  0  0  0  0  0  0
   57.9555    8.3038   29.0582 N   0  0  0  0  0  0  0  0  0  0  0  0
   57.3659    9.3608   28.4622 C   0  0  0  0  0  0  0  0  0  0  0  0
   57.9328   10.5780   28.4596 N   0  0  0  0  0  0  0  0  0  0  0  0
   59.1273   10.7894   29.0781 C   0  0  0  0  0  0  0  0  0  0  0  0
   59.7828    9.7593   29.7206 C   0  0  0  0  0  0  0  0  0  0  0  0
   59.1390    8.4465   29.7070 C   0  0  0  0  0  0  0  0  0  0  0  0
   59.7461    7.4158   30.3060 N   0  0  0  0  0  0  0  0  0  0  0  0
   60.9408   10.2308   30.2322 N   0  0  0  0  0  0  0  0  0  0  0  0
   60.9980   11.5416   29.9201 C   0  0  0  0  0  0  0  0  0  0  0  0
   59.9022   11.8611   29.1952 N   0  0  0  0  0  0  0  0  0  0  0  0
   59.3233    6.5267   30.3041 H   0  0  0  0  0  0  0  0  0  0  0  0
   60.6156    7.5464   30.7489 H   0  0  0  0  0  0  0  0  0  0  0  0
   57.8370   13.8696   30.3440 O   0  0  0  0  0  0  0  0  0  0  0  0
   57.4932   14.2567   31.6684 C   0  0  0  0  0  0  0  0  0  0  0  0
   57.6378   13.0784   32.6342 C   0  0  0  0  0  0  0  0  0  0  0  0
   58.8865   12.3811   32.4968 O   0  0  0  0  0  0  0  0  0  0  0  0
   56.3882   12.2546   32.3291 C   0  0  0  0  0  0  0  0  0  0  0  0
   56.5998   11.2485   31.3177 O   0  0  0  0  0  0  0  0  0  0  0  0
   55.3863   13.2888   31.7980 C   0  0  0  0  0  0  0  0  0  0  0  0
   56.0909   14.5327   31.7229 O   0  0  0  0  0  0  0  0  0  0  0  0
   58.9789   12.0597   31.5863 H   0  0  0  0  0  0  0  0  0  0  0  0
   56.8945   11.6724   30.4965 H   0  0  0  0  0  0  0  0  0  0  0  0
   54.1439   13.4098   32.6903 C   0  0  0  0  0  0  0  0  0  0  0  0
   54.1311   12.3579   33.6646 O   0  0  0  0  0  0  0  0  0  0  0  0
   53.1664   11.0741   33.5148 P   0  0  0  0  0  0  0  0  0  0  0  0
   52.0189   11.3002   34.4784 O   0  0  0  0  0  0  0  0  0  0  0  0
   52.8029   11.1076   32.0614 O   0  0  0  0  0  0  0  0  0  0  0  0
   54.0740    9.9232   33.8652 O   0  0  0  0  0  0  0  0  0  0  0  0
   51.4890   12.0553   34.1786 H   0  0  0  0  0  0  0  0  0  0  0  0
   54.7761    9.8509   33.1999 H   0  0  0  0  0  0  0  0  0  0  0  0
   62.0423   15.4746   29.0906 C   0  0  0  0  0  0  0  0  0  0  0  0
   62.2304   14.7183   30.2912 O   0  0  0  0  0  0  0  0  0  0  0  0
   63.6982   14.2013   30.7046 P   0  0  0  0  0  0  0  0  0  0  0  0
   64.2716   13.5785   29.4703 O   0  0  0  0  0  0  0  0  0  0  0  0
   64.4096   15.4579   31.1146 O   0  0  0  0  0  0  0  0  0  0  0  0
   63.4467   13.2222   31.8182 O   0  0  0  0  0  0  0  0  0  0  0  0
   64.4080   14.2627   28.7964 H   0  0  0  0  0  0  0  0  0  0  0  0
   63.0772   13.6905   32.5832 H   0  0  0  0  0  0  0  0  0  0  0  0
  8 13  2  0  0  0
  8  9  1  0  0  0
  9 10  2  0  0  0
 11 10  1  0  0  0
 12 11  2  0  0  0
 11 17  1  0  0  0
 13 12  1  0  0  0
 12 15  1  0  0  0
 14 13  1  0  0  0
 15 16  2  0  0  0
 16 17  1  0  0  0
 17  1  1  0  0  0
 42 40  2  0  0  0
 40 39  1  0  0  0
 40 41  1  0  0  0
 40 43  1  0  0  0
 31 32  1  0  0  0
 34 32  2  0  0  0
 32 35  1  0  0  0
 32 33  1  0  0  0
 20 21  1  0  0  0
 21 22  1  0  0  0
 21 27  1  0  0  0
  6  1  1  0  0  0
  1  2  1  0  0  0
 23 22  1  0  0  0
 22 24  1  0  0  0
  3  2  1  0  0  0
  2 20  1  0  0  0
 25 24  1  0  0  0
 24 26  1  0  0  0
  5  3  1  0  0  0
  3  4  1  0  0  0
 27 26  1  0  0  0
 26 30  1  0  0  0
  6  5  1  0  0  0
 38  5  1  0  0  0
 30 31  1  0  0  0
 38 39  1  0  0  0
 14 18  1  0  0  0
 14 19  1  0  0  0
 41 44  1  0  0  0
 33 36  1  0  0  0
 23 28  1  0  0  0
 25 29  1  0  0  0
  4  7  1  0  0  0
 43 45  1  0  0  0
 35 37  1  0  0  0
M  END
> <minimizedAffinity>
-7.87815

$$$$
4QPL_V3L_A_201


 45 48  0  0  0  0  0  0  0  0999 V2000
   54.7017    7.4468   30.3487 C   0  0  0  0  0  0  0  0  0  0  0  0
   54.8519    8.9665   30.4458 C   0  0  0  0  0  0  0  0  0  0  0  0
   54.3907    9.4373   29.0899 C   0  0  0  0  0  0  0  0  0  0  0  0
   52.9794    9.6837   29.1056 O   0  0  0  0  0  0  0  0  0  0  0  0
   54.7456    8.2812   28.1720 C   0  0  0  0  0  0  0  0  0  0  0  0
   54.8934    7.1096   28.9840 O   0  0  0  0  0  0  0  0  0  0  0  0
   52.5137    8.8792   29.3828 H   0  0  0  0  0  0  0  0  0  0  0  0
   55.6845    6.1874   35.2500 N   0  0  0  0  0  0  0  0  0  0  0  0
   54.5636    6.6936   34.6954 C   0  0  0  0  0  0  0  0  0  0  0  0
   54.4811    6.9551   33.3809 N   0  0  0  0  0  0  0  0  0  0  0  0
   55.5434    6.7288   32.5595 C   0  0  0  0  0  0  0  0  0  0  0  0
   56.7275    6.2254   33.0575 C   0  0  0  0  0  0  0  0  0  0  0  0
   56.7861    5.9525   34.4929 C   0  0  0  0  0  0  0  0  0  0  0  0
   57.9104    5.4508   35.0163 N   0  0  0  0  0  0  0  0  0  0  0  0
   57.6037    6.0832   32.0393 N   0  0  0  0  0  0  0  0  0  0  0  0
   56.9740    6.5040   30.9233 C   0  0  0  0  0  0  0  0  0  0  0  0
   55.7134    6.8679   31.2501 N   0  0  0  0  0  0  0  0  0  0  0  0
   57.9629    5.2625   35.9812 H   0  0  0  0  0  0  0  0  0  0  0  0
   58.6853    5.2698   34.4366 H   0  0  0  0  0  0  0  0  0  0  0  0
   54.1103    9.5069   31.5405 O   0  0  0  0  0  0  0  0  0  0  0  0
   54.8365   10.1881   32.5558 C   0  0  0  0  0  0  0  0  0  0  0  0
   53.9550   11.2292   33.2494 C   0  0  0  0  0  0  0  0  0  0  0  0
   52.6722   10.7158   33.6434 O   0  0  0  0  0  0  0  0  0  0  0  0
   53.9230   12.3609   32.2240 C   0  0  0  0  0  0  0  0  0  0  0  0
   52.8166   12.2672   31.3036 O   0  0  0  0  0  0  0  0  0  0  0  0
   55.2333   12.1877   31.4438 C   0  0  0  0  0  0  0  0  0  0  0  0
   55.8465   10.9946   31.9434 O   0  0  0  0  0  0  0  0  0  0  0  0
   52.2075   10.3736   32.8638 H   0  0  0  0  0  0  0  0  0  0  0  0
   52.8633   11.4238   30.8268 H   0  0  0  0  0  0  0  0  0  0  0  0
   56.1675   13.3954   31.5961 C   0  0  0  0  0  0  0  0  0  0  0  0
   57.2260   13.3257   30.6314 O   0  0  0  0  0  0  0  0  0  0  0  0
   58.7651   13.5817   31.0403 P   0  0  0  0  0  0  0  0  0  0  0  0
   58.8007   13.5747   32.5552 O   0  0  0  0  0  0  0  0  0  0  0  0
   59.4731   12.4413   30.3742 O   0  0  0  0  0  0  0  0  0  0  0  0
   59.0700   14.9129   30.4030 O   0  0  0  0  0  0  0  0  0  0  0  0
   58.5942   12.6841   32.8793 H   0  0  0  0  0  0  0  0  0  0  0  0
   59.0255   14.8270   29.4378 H   0  0  0  0  0  0  0  0  0  0  0  0
   56.0425    8.5210   27.4021 C   0  0  0  0  0  0  0  0  0  0  0  0
   56.7849    7.3076   27.2424 O   0  0  0  0  0  0  0  0  0  0  0  0
   56.8508    6.5777   25.8087 P   0  0  0  0  0  0  0  0  0  0  0  0
   55.4975    5.9739   25.5982 O   0  0  0  0  0  0  0  0  0  0  0  0
   57.1487    7.7001   24.8577 O   0  0  0  0  0  0  0  0  0  0  0  0
   57.9515    5.5638   25.9588 O   0  0  0  0  0  0  0  0  0  0  0  0
   54.8385    6.6801   25.5098 H   0  0  0  0  0  0  0  0  0  0  0  0
   58.7965    6.0212   26.0913 H   0  0  0  0  0  0  0  0  0  0  0  0
  8 13  2  0  0  0
  8  9  1  0  0  0
  9 10  2  0  0  0
 11 10  1  0  0  0
 12 11  2  0  0  0
 11 17  1  0  0  0
 13 12  1  0  0  0
 12 15  1  0  0  0
 14 13  1  0  0  0
 15 16  2  0  0  0
 16 17  1  0  0  0
 17  1  1  0  0  0
 42 40  2  0  0  0
 40 39  1  0  0  0
 40 41  1  0  0  0
 40 43  1  0  0  0
 31 32  1  0  0  0
 34 32  2  0  0  0
 32 35  1  0  0  0
 32 33  1  0  0  0
 20 21  1  0  0  0
 21 22  1  0  0  0
 21 27  1  0  0  0
  6  1  1  0  0  0
  1  2  1  0  0  0
 23 22  1  0  0  0
 22 24  1  0  0  0
  3  2  1  0  0  0
  2 20  1  0  0  0
 25 24  1  0  0  0
 24 26  1  0  0  0
  5  3  1  0  0  0
  3  4  1  0  0  0
 27 26  1  0  0  0
 26 30  1  0  0  0
  6  5  1  0  0  0
 38  5  1  0  0  0
 30 31  1  0  0  0
 38 39  1  0  0  0
 14 18  1  0  0  0
 14 19  1  0  0  0
 41 44  1  0  0  0
 33 36  1  0  0  0
 23 28  1  0  0  0
 25 29  1  0  0  0
  4  7  1  0  0  0
 43 45  1  0  0  0
 35 37  1  0  0  0
M  END
> <minimizedAffinity>
-7.79478

$$$$
4QPL_V3L_A_201


 45 48  0  0  0  0  0  0  0  0999 V2000
   54.3327    7.5289   30.8939 C   0  0  0  0  0  0  0  0  0  0  0  0
   54.7463    8.9940   30.7394 C   0  0  0  0  0  0  0  0  0  0  0  0
   54.5353    9.2497   29.2687 C   0  0  0  0  0  0  0  0  0  0  0  0
   53.2004    9.7138   29.0339 O   0  0  0  0  0  0  0  0  0  0  0  0
   54.7743    7.8917   28.6334 C   0  0  0  0  0  0  0  0  0  0  0  0
   54.6126    6.8986   29.6541 O   0  0  0  0  0  0  0  0  0  0  0  0
   52.5671    9.0651   29.3791 H   0  0  0  0  0  0  0  0  0  0  0  0
   58.3675    4.5701   32.1351 N   0  0  0  0  0  0  0  0  0  0  0  0
   57.9039    4.9357   30.9220 C   0  0  0  0  0  0  0  0  0  0  0  0
   56.8305    5.7308   30.7854 N   0  0  0  0  0  0  0  0  0  0  0  0
   56.1597    6.1864   31.8793 C   0  0  0  0  0  0  0  0  0  0  0  0
   56.5669    5.8430   33.1520 C   0  0  0  0  0  0  0  0  0  0  0  0
   57.7379    4.9749   33.2672 C   0  0  0  0  0  0  0  0  0  0  0  0
   58.1759    4.6279   34.4828 N   0  0  0  0  0  0  0  0  0  0  0  0
   55.7461    6.4344   34.0472 N   0  0  0  0  0  0  0  0  0  0  0  0
   54.8329    7.1282   33.3376 C   0  0  0  0  0  0  0  0  0  0  0  0
   55.1129    6.9905   32.0220 N   0  0  0  0  0  0  0  0  0  0  0  0
   58.9632    4.0440   34.5742 H   0  0  0  0  0  0  0  0  0  0  0  0
   57.7109    4.9566   35.2859 H   0  0  0  0  0  0  0  0  0  0  0  0
   53.9971    9.8533   31.6000 O   0  0  0  0  0  0  0  0  0  0  0  0
   54.7118   10.5741   32.5960 C   0  0  0  0  0  0  0  0  0  0  0  0
   54.2388   12.0280   32.6596 C   0  0  0  0  0  0  0  0  0  0  0  0
   52.8088   12.1589   32.7063 O   0  0  0  0  0  0  0  0  0  0  0  0
   54.9151   12.6422   31.4354 C   0  0  0  0  0  0  0  0  0  0  0  0
   54.0993   12.5934   30.2470 O   0  0  0  0  0  0  0  0  0  0  0  0
   56.1560   11.7647   31.2215 C   0  0  0  0  0  0  0  0  0  0  0  0
   56.0749   10.7084   32.1843 O   0  0  0  0  0  0  0  0  0  0  0  0
   52.4194   11.7311   31.9277 H   0  0  0  0  0  0  0  0  0  0  0  0
   53.8788   11.6709   30.0439 H   0  0  0  0  0  0  0  0  0  0  0  0
   57.4628   12.5540   31.3750 C   0  0  0  0  0  0  0  0  0  0  0  0
   58.5860   11.6639   31.3277 O   0  0  0  0  0  0  0  0  0  0  0  0
   60.1015   12.2028   31.4464 P   0  0  0  0  0  0  0  0  0  0  0  0
   59.9949   13.6835   31.7502 O   0  0  0  0  0  0  0  0  0  0  0  0
   60.6622   11.3577   32.5496 O   0  0  0  0  0  0  0  0  0  0  0  0
   60.6877   11.8706   30.0983 O   0  0  0  0  0  0  0  0  0  0  0  0
   59.6097   13.8057   32.6320 H   0  0  0  0  0  0  0  0  0  0  0  0
   60.7188   10.9074   29.9878 H   0  0  0  0  0  0  0  0  0  0  0  0
   56.1718    7.7642   28.0309 C   0  0  0  0  0  0  0  0  0  0  0  0
   56.8513    9.0240   28.0211 O   0  0  0  0  0  0  0  0  0  0  0  0
   58.3383    9.1503   28.6254 P   0  0  0  0  0  0  0  0  0  0  0  0
   59.1335    8.0602   27.9776 O   0  0  0  0  0  0  0  0  0  0  0  0
   58.7718   10.5244   28.2049 O   0  0  0  0  0  0  0  0  0  0  0  0
   58.1534    8.9687   30.1070 O   0  0  0  0  0  0  0  0  0  0  0  0
   59.2138    8.2394   27.0277 H   0  0  0  0  0  0  0  0  0  0  0  0
   57.6322    9.7064   30.4606 H   0  0  0  0  0  0  0  0  0  0  0  0
  8 13  2  0  0  0
  8  9  1  0  0  0
  9 10  2  0  0  0
 11 10  1  0  0  0
 12 11  2  0  0  0
 11 17  1  0  0  0
 13 12  1  0  0  0
 12 15  1  0  0  0
 14 13  1  0  0  0
 15 16  2  0  0  0
 16 17  1  0  0  0
 17  1  1  0  0  0
 42 40  2  0  0  0
 40 39  1  0  0  0
 40 41  1  0  0  0
 40 43  1  0  0  0
 31 32  1  0  0  0
 34 32  2  0  0  0
 32 35  1  0  0  0
 32 33  1  0  0  0
 20 21  1  0  0  0
 21 22  1  0  0  0
 21 27  1  0  0  0
  6  1  1  0  0  0
  1  2  1  0  0  0
 23 22  1  0  0  0
 22 24  1  0  0  0
  3  2  1  0  0  0
  2 20  1  0  0  0
 25 24  1  0  0  0
 24 26  1  0  0  0
  5  3  1  0  0  0
  3  4  1  0  0  0
 27 26  1  0  0  0
 26 30  1  0  0  0
  6  5  1  0  0  0
 38  5  1  0  0  0
 30 31  1  0  0  0
 38 39  1  0  0  0
 14 18  1  0  0  0
 14 19  1  0  0  0
 41 44  1  0  0  0
 33 36  1  0  0  0
 23 28  1  0  0  0
 25 29  1  0  0  0
  4  7  1  0  0  0
 43 45  1  0  0  0
 35 37  1  0  0  0
M  END
> <minimizedAffinity>
-7.73549

$$$$
