4E9U_RWY_A_301
  RCSB PDB12061712213D
Coordinates from PDB:4E9U:A:301 Model:1 without hydrogens
 19 20  0  0  0  0            999 V2000
   22.4090  -10.1520    8.8920   N 0  0  0  0  0  0  0  0  0  0  0  0
   22.6250  -10.6120    7.8740   C 0  0  0  0  0  0  0  0  0  0  0  0
   23.7840  -21.6090    6.7750   C 0  0  0  0  0  0  0  0  0  0  0  0
   23.2190  -21.6030    8.0440   C 0  0  0  0  0  0  0  0  0  0  0  0
   23.9840  -20.4130    6.0960   C 0  0  0  0  0  0  0  0  0  0  0  0
   22.8570  -20.3990    8.6320   C 0  0  0  0  0  0  0  0  0  0  0  0
   23.6230  -19.2080    6.6850   C 0  0  0  0  0  0  0  0  0  0  0  0
   24.7960  -15.0510    8.6080   C 0  0  0  0  0  0  0  0  0  0  0  0
   24.6860  -15.8860    6.3550   C 0  0  0  0  0  0  0  0  0  0  0  0
   23.9730  -16.0870    9.0310   C 0  0  0  0  0  0  0  0  0  0  0  0
   23.8640  -16.9220    6.7780   C 0  0  0  0  0  0  0  0  0  0  0  0
   25.1560  -12.9670    6.1710   C 0  0  0  0  0  0  0  0  0  0  0  0
   23.8310  -12.7860    6.9120   C 0  0  0  0  0  0  0  0  0  0  0  0
   25.9550  -13.9380    6.8580   O 0  0  0  0  0  0  0  0  0  0  0  0
   22.7010  -18.0310    8.5350   O 0  0  0  0  0  0  0  0  0  0  0  0
   22.9350  -11.2730    6.4070   S 0  0  0  0  0  0  0  0  0  0  0  0
   25.1520  -14.9520    7.2700   C 0  0  0  0  0  0  0  0  0  0  0  0
   23.0590  -19.2030    7.9530   C 0  0  0  0  0  0  0  0  0  0  0  0
   23.5080  -17.0220    8.1160   C 0  0  0  0  0  0  0  0  0  0  0  0
  2  1  3  0  0  0  0
 16  2  1  0  0  0  0
  5  3  2  0  0  0  0
  3  4  1  0  0  0  0
  4  6  2  0  0  0  0
  5  7  1  0  0  0  0
 18  6  1  0  0  0  0
  7 18  2  0  0  0  0
 17  8  2  0  0  0  0
  8 10  1  0  0  0  0
  9 11  2  0  0  0  0
  9 17  1  0  0  0  0
 19 10  2  0  0  0  0
 11 19  1  0  0  0  0
 12 14  1  0  0  0  0
 12 13  1  0  0  0  0
 16 13  1  0  0  0  0
 14 17  1  0  0  0  0
 18 15  1  0  0  0  0
 19 15  1  0  0  0  0
A    1
NAA
A    2
CAB
A    3
CAC
A    4
CAD
A    5
CAE
A    6
CAF
A    7
CAG
A    8
CAH
A    9
CAI
A   10
CAJ
A   11
CAK
A   12
CAL
A   13
CAM
A   14
OAN
A   15
OAO
A   16
SAP
A   17
CAQ
A   18
CAR
A   19
CAS
M  END
>  <InstanceId>
4E9U_RWY_A_301

>  <ChemCompId>
RWY

>  <PdbId>
4E9U

>  <ChainId>
A

>  <ResidueNumber>
301

>  <InsertionCode>


>  <Model>
1

>  <AltIds>


>  <MissingHeavyAtoms>
0

>  <ObservedFormula>
C15 N O2 S

>  <Name>
2-(4-phenoxyphenoxy)ethyl thiocyanate

>  <SystematicName>
2-(4-phenoxyphenoxy)ethyl thiocyanate

>  <Synonyms>


>  <Type>
NON-POLYMER

>  <Formula>
C15 H13 N O2 S

>  <MolecularWeight>
271.334

>  <ModifiedDate>
2012-04-20

>  <Parent>


>  <OneLetterCode>


>  <SubcomponentList>


>  <AmbiguousFlag>
N

>  <InChI>
InChI=1S/C15H13NO2S/c16-12-19-11-10-17-13-6-8-15(9-7-13)18-14-4-2-1-3-5-14/h1-9H,10-11H2

>  <InChIKey>
YQZHGQYIMXWEHI-UHFFFAOYSA-N

>  <SMILES>
c1ccc(cc1)Oc2ccc(cc2)OCCSC#N

$$$$
