4MC1_526_A_102


 40 43  0  0  0  0  0  0  0  0999 V2000
   13.3213   24.1808    4.9373 C   0  0  0  0  0  0  0  0  0  0  0  0
   13.8822   25.4179    4.5165 O   0  0  0  0  0  0  0  0  0  0  0  0
   13.9646   25.4236    3.5501 H   0  0  0  0  0  0  0  0  0  0  0  0
   14.2819   23.0694    4.5706 C   0  0  0  0  0  0  0  0  0  0  0  0
   16.4999   18.3404    2.7076 C   0  0  0  0  0  0  0  0  0  0  0  0
   17.5377   18.3999    3.6097 C   0  0  0  0  0  0  0  0  0  0  0  0
   17.4287   19.1008    4.7925 C   0  0  0  0  0  0  0  0  0  0  0  0
   16.2601   19.7603    5.1278 C   0  0  0  0  0  0  0  0  0  0  0  0
   15.2158   19.6858    4.2141 C   0  0  0  0  0  0  0  0  0  0  0  0
   15.3192   18.9842    3.0266 C   0  0  0  0  0  0  0  0  0  0  0  0
   16.3066   20.5167    6.4232 C   0  0  0  0  0  0  0  0  0  0  0  0
   15.0557   20.6951    7.2834 C   0  0  0  0  0  0  0  0  0  0  0  0
   14.1733   21.8395    6.7943 C   0  0  0  0  0  0  0  0  0  0  0  0
   13.9642   21.8558    5.3345 N   0  0  0  0  0  0  0  0  0  0  0  0
   13.6368   20.4481    4.4728 S   0  0  0  0  0  0  0  0  0  0  0  0
   13.0976   20.7996    3.1911 O   0  0  0  0  0  0  0  0  0  0  0  0
   12.9100   19.5576    5.3615 O   0  0  0  0  0  0  0  0  0  0  0  0
   18.6930   17.7829    3.3109 F   0  0  0  0  0  0  0  0  0  0  0  0
   15.3983   20.8760    8.7700 C   0  0  0  0  0  0  0  0  0  0  0  0
   14.2453   21.5010    9.5167 C   0  0  0  0  0  0  0  0  0  0  0  0
   16.5616   21.8353    8.9755 C   0  0  0  0  0  0  0  0  0  0  0  0
   15.7507   19.5741    9.4626 C   0  0  0  0  0  0  0  0  0  0  0  0
   11.8920   24.0439    4.4210 C   0  0  0  0  0  0  0  0  0  0  0  0
   11.1454   25.1499    4.9792 N   0  0  0  0  0  0  0  0  0  0  0  0
   10.0014   24.9793    5.7285 C   0  0  0  0  0  0  0  0  0  0  0  0
    9.5039   23.9160    6.0805 O   0  0  0  0  0  0  0  0  0  0  0  0
   11.4689   26.0654    4.8165 H   0  0  0  0  0  0  0  0  0  0  0  0
    9.5030   26.2296    5.9870 O   0  0  0  0  0  0  0  0  0  0  0  0
    8.5419   26.3135    7.0374 C   0  0  0  0  0  0  0  0  0  0  0  0
    7.8255   27.6294    6.8274 C   0  0  0  0  0  0  0  0  0  0  0  0
    9.2712   26.4736    8.3475 C   0  0  0  0  0  0  0  0  0  0  0  0
    8.5616   28.5702    7.6051 O   0  0  0  0  0  0  0  0  0  0  0  0
    8.9365   27.8755    8.7770 C   0  0  0  0  0  0  0  0  0  0  0  0
   11.7336   24.0160    2.9014 C   0  0  0  0  0  0  0  0  0  0  0  0
   10.3489   23.5934    2.5327 C   0  0  0  0  0  0  0  0  0  0  0  0
    9.9073   22.3161    2.8366 C   0  0  0  0  0  0  0  0  0  0  0  0
    8.6136   21.9454    2.5200 C   0  0  0  0  0  0  0  0  0  0  0  0
    7.7698   22.8487    1.9067 C   0  0  0  0  0  0  0  0  0  0  0  0
    8.2065   24.1247    1.5987 C   0  0  0  0  0  0  0  0  0  0  0  0
    9.5017   24.4928    1.9085 C   0  0  0  0  0  0  0  0  0  0  0  0
 33 32  1  0  0  0
 33 31  1  0  0  0
 22 19  1  0  0  0
 32 30  1  0  0  0
 31 29  1  0  0  0
 21 19  1  0  0  0
 20 19  1  0  0  0
 19 12  1  0  0  0
 30 29  1  0  0  0
 29 28  1  0  0  0
 12 13  1  0  0  0
 12 11  1  0  0  0
 13 14  1  0  0  0
 28 25  1  0  0  0
 11  8  1  0  0  0
  2  1  1  0  0  0
 25 26  2  0  0  0
 25 24  1  0  0  0
  1  4  1  0  0  0
  1 23  1  0  0  0
 24 23  1  0  0  0
  4 14  1  0  0  0
 14 15  1  0  0  0
  8  7  2  0  0  0
  8  9  1  0  0  0
 23 34  1  0  0  0
  7  6  1  0  0  0
 17 15  2  0  0  0
 15  9  1  0  0  0
 15 16  2  0  0  0
  9 10  2  0  0  0
 34 35  1  0  0  0
  6 18  1  0  0  0
  6  5  2  0  0  0
 35 40  2  0  0  0
 35 36  1  0  0  0
 40 39  1  0  0  0
 10  5  1  0  0  0
 36 37  2  0  0  0
 39 38  2  0  0  0
 37 38  1  0  0  0
  2  3  1  0  0  0
 24 27  1  0  0  0
M  END
> <minimizedAffinity>
-11.44054

$$$$
4MC1_526_A_102


 40 43  0  0  0  0  0  0  0  0999 V2000
   13.8464   23.7813    4.9820 C   0  0  0  0  0  0  0  0  0  0  0  0
   14.9100   24.5532    4.4387 O   0  0  0  0  0  0  0  0  0  0  0  0
   15.2857   25.1187    5.1314 H   0  0  0  0  0  0  0  0  0  0  0  0
   12.7476   24.7239    5.4252 C   0  0  0  0  0  0  0  0  0  0  0  0
    8.7017   27.0493    8.4214 C   0  0  0  0  0  0  0  0  0  0  0  0
    8.1502   27.6585    7.3173 C   0  0  0  0  0  0  0  0  0  0  0  0
    8.3477   27.1651    6.0447 C   0  0  0  0  0  0  0  0  0  0  0  0
    9.0975   26.0229    5.8290 C   0  0  0  0  0  0  0  0  0  0  0  0
    9.6418   25.4110    6.9515 C   0  0  0  0  0  0  0  0  0  0  0  0
    9.4467   25.9010    8.2302 C   0  0  0  0  0  0  0  0  0  0  0  0
    9.2625   25.6338    4.3889 C   0  0  0  0  0  0  0  0  0  0  0  0
    9.4038   24.1695    3.9738 C   0  0  0  0  0  0  0  0  0  0  0  0
   10.8291   23.6529    4.1441 C   0  0  0  0  0  0  0  0  0  0  0  0
   11.4549   24.0267    5.4261 N   0  0  0  0  0  0  0  0  0  0  0  0
   10.6146   23.9311    6.8808 S   0  0  0  0  0  0  0  0  0  0  0  0
   11.5527   23.9637    7.9652 O   0  0  0  0  0  0  0  0  0  0  0  0
    9.6636   22.8395    6.7586 O   0  0  0  0  0  0  0  0  0  0  0  0
    7.4276   28.7781    7.4875 F   0  0  0  0  0  0  0  0  0  0  0  0
    8.9098   23.9257    2.5397 C   0  0  0  0  0  0  0  0  0  0  0  0
   10.0708   23.8023    1.5833 C   0  0  0  0  0  0  0  0  0  0  0  0
    8.0917   25.0948    2.0108 C   0  0  0  0  0  0  0  0  0  0  0  0
    8.0617   22.6760    2.4063 C   0  0  0  0  0  0  0  0  0  0  0  0
   14.3782   22.8124    6.0339 C   0  0  0  0  0  0  0  0  0  0  0  0
   15.3302   21.9565    5.3607 N   0  0  0  0  0  0  0  0  0  0  0  0
   15.0944   20.6210    5.1153 C   0  0  0  0  0  0  0  0  0  0  0  0
   14.0652   19.9995    5.3533 O   0  0  0  0  0  0  0  0  0  0  0  0
   16.1848   22.3453    5.0646 H   0  0  0  0  0  0  0  0  0  0  0  0
   16.2437   20.1048    4.5757 O   0  0  0  0  0  0  0  0  0  0  0  0
   16.1810   18.7419    4.1605 C   0  0  0  0  0  0  0  0  0  0  0  0
   17.6177   18.2734    4.0882 C   0  0  0  0  0  0  0  0  0  0  0  0
   15.6849   18.6930    2.7374 C   0  0  0  0  0  0  0  0  0  0  0  0
   18.0136   18.5269    2.7426 O   0  0  0  0  0  0  0  0  0  0  0  0
   16.8804   18.2230    1.9553 C   0  0  0  0  0  0  0  0  0  0  0  0
   15.0233   23.4526    7.2623 C   0  0  0  0  0  0  0  0  0  0  0  0
   15.2705   22.4212    8.3143 C   0  0  0  0  0  0  0  0  0  0  0  0
   14.2069   21.8583    9.0003 C   0  0  0  0  0  0  0  0  0  0  0  0
   14.4440   20.8814    9.9494 C   0  0  0  0  0  0  0  0  0  0  0  0
   15.7363   20.4710   10.2059 C   0  0  0  0  0  0  0  0  0  0  0  0
   16.8024   21.0316    9.5256 C   0  0  0  0  0  0  0  0  0  0  0  0
   16.5659   22.0131    8.5823 C   0  0  0  0  0  0  0  0  0  0  0  0
 33 32  1  0  0  0
 33 31  1  0  0  0
 22 19  1  0  0  0
 32 30  1  0  0  0
 31 29  1  0  0  0
 21 19  1  0  0  0
 20 19  1  0  0  0
 19 12  1  0  0  0
 30 29  1  0  0  0
 29 28  1  0  0  0
 12 13  1  0  0  0
 12 11  1  0  0  0
 13 14  1  0  0  0
 28 25  1  0  0  0
 11  8  1  0  0  0
  2  1  1  0  0  0
 25 26  2  0  0  0
 25 24  1  0  0  0
  1  4  1  0  0  0
  1 23  1  0  0  0
 24 23  1  0  0  0
  4 14  1  0  0  0
 14 15  1  0  0  0
  8  7  2  0  0  0
  8  9  1  0  0  0
 23 34  1  0  0  0
  7  6  1  0  0  0
 17 15  2  0  0  0
 15  9  1  0  0  0
 15 16  2  0  0  0
  9 10  2  0  0  0
 34 35  1  0  0  0
  6 18  1  0  0  0
  6  5  2  0  0  0
 35 40  2  0  0  0
 35 36  1  0  0  0
 40 39  1  0  0  0
 10  5  1  0  0  0
 36 37  2  0  0  0
 39 38  2  0  0  0
 37 38  1  0  0  0
  2  3  1  0  0  0
 24 27  1  0  0  0
M  END
> <minimizedAffinity>
-11.22894

$$$$
4MC1_526_A_102


 40 43  0  0  0  0  0  0  0  0999 V2000
   12.5454   24.7344    5.8251 C   0  0  0  0  0  0  0  0  0  0  0  0
   13.1356   25.8778    5.2198 O   0  0  0  0  0  0  0  0  0  0  0  0
   12.6991   26.0566    4.3722 H   0  0  0  0  0  0  0  0  0  0  0  0
   12.8013   23.5355    4.9365 C   0  0  0  0  0  0  0  0  0  0  0  0
   14.9955   19.0050    2.6098 C   0  0  0  0  0  0  0  0  0  0  0  0
   16.1764   19.1462    3.3025 C   0  0  0  0  0  0  0  0  0  0  0  0
   16.2369   19.8336    4.4967 C   0  0  0  0  0  0  0  0  0  0  0  0
   15.1038   20.3958    5.0562 C   0  0  0  0  0  0  0  0  0  0  0  0
   13.9155   20.2392    4.3531 C   0  0  0  0  0  0  0  0  0  0  0  0
   13.8488   19.5507    3.1553 C   0  0  0  0  0  0  0  0  0  0  0  0
   15.3332   21.1508    6.3329 C   0  0  0  0  0  0  0  0  0  0  0  0
   14.2563   21.2258    7.4150 C   0  0  0  0  0  0  0  0  0  0  0  0
   13.2102   22.2962    7.1196 C   0  0  0  0  0  0  0  0  0  0  0  0
   12.7297   22.2987    5.7253 N   0  0  0  0  0  0  0  0  0  0  0  0
   12.3582   20.8710    4.9160 S   0  0  0  0  0  0  0  0  0  0  0  0
   11.5615   21.1804    3.7643 O   0  0  0  0  0  0  0  0  0  0  0  0
   11.8840   19.9228    5.9096 O   0  0  0  0  0  0  0  0  0  0  0  0
   17.3000   18.6252    2.7821 F   0  0  0  0  0  0  0  0  0  0  0  0
   14.8570   21.4307    8.8140 C   0  0  0  0  0  0  0  0  0  0  0  0
   15.8935   22.5276    8.8004 C   0  0  0  0  0  0  0  0  0  0  0  0
   15.6018   20.1968    9.3023 C   0  0  0  0  0  0  0  0  0  0  0  0
   13.8193   21.7836    9.8618 C   0  0  0  0  0  0  0  0  0  0  0  0
   11.0899   25.0171    6.1853 C   0  0  0  0  0  0  0  0  0  0  0  0
   10.2814   24.2652    5.2509 N   0  0  0  0  0  0  0  0  0  0  0  0
    9.1598   24.7859    4.6425 C   0  0  0  0  0  0  0  0  0  0  0  0
    8.7351   25.9315    4.7388 O   0  0  0  0  0  0  0  0  0  0  0  0
   10.5441   23.3401    5.0401 H   0  0  0  0  0  0  0  0  0  0  0  0
    8.5861   23.7691    3.9247 O   0  0  0  0  0  0  0  0  0  0  0  0
    8.1225   24.1105    2.6199 C   0  0  0  0  0  0  0  0  0  0  0  0
    7.7394   22.7993    1.9696 C   0  0  0  0  0  0  0  0  0  0  0  0
    9.2891   24.6186    1.8106 C   0  0  0  0  0  0  0  0  0  0  0  0
    8.9195   22.3720    1.2942 O   0  0  0  0  0  0  0  0  0  0  0  0
    9.5004   23.5501    0.7736 C   0  0  0  0  0  0  0  0  0  0  0  0
   10.6830   24.6836    7.6200 C   0  0  0  0  0  0  0  0  0  0  0  0
    9.6742   25.6684    8.1144 C   0  0  0  0  0  0  0  0  0  0  0  0
   10.0739   26.9338    8.5115 C   0  0  0  0  0  0  0  0  0  0  0  0
    9.1285   27.8485    8.9372 C   0  0  0  0  0  0  0  0  0  0  0  0
    7.7942   27.4977    8.9614 C   0  0  0  0  0  0  0  0  0  0  0  0
    7.3898   26.2345    8.5683 C   0  0  0  0  0  0  0  0  0  0  0  0
    8.3354   25.3180    8.1499 C   0  0  0  0  0  0  0  0  0  0  0  0
 33 32  1  0  0  0
 33 31  1  0  0  0
 22 19  1  0  0  0
 32 30  1  0  0  0
 31 29  1  0  0  0
 21 19  1  0  0  0
 20 19  1  0  0  0
 19 12  1  0  0  0
 30 29  1  0  0  0
 29 28  1  0  0  0
 12 13  1  0  0  0
 12 11  1  0  0  0
 13 14  1  0  0  0
 28 25  1  0  0  0
 11  8  1  0  0  0
  2  1  1  0  0  0
 25 26  2  0  0  0
 25 24  1  0  0  0
  1  4  1  0  0  0
  1 23  1  0  0  0
 24 23  1  0  0  0
  4 14  1  0  0  0
 14 15  1  0  0  0
  8  7  2  0  0  0
  8  9  1  0  0  0
 23 34  1  0  0  0
  7  6  1  0  0  0
 17 15  2  0  0  0
 15  9  1  0  0  0
 15 16  2  0  0  0
  9 10  2  0  0  0
 34 35  1  0  0  0
  6 18  1  0  0  0
  6  5  2  0  0  0
 35 40  2  0  0  0
 35 36  1  0  0  0
 40 39  1  0  0  0
 10  5  1  0  0  0
 36 37  2  0  0  0
 39 38  2  0  0  0
 37 38  1  0  0  0
  2  3  1  0  0  0
 24 27  1  0  0  0
M  END
> <minimizedAffinity>
-10.88596

$$$$
4MC1_526_A_102


 40 43  0  0  0  0  0  0  0  0999 V2000
   10.9043   22.7091    4.5731 C   0  0  0  0  0  0  0  0  0  0  0  0
   10.0451   21.8065    3.8881 O   0  0  0  0  0  0  0  0  0  0  0  0
    9.5544   21.2743    4.5337 H   0  0  0  0  0  0  0  0  0  0  0  0
   11.9261   21.9040    5.3477 C   0  0  0  0  0  0  0  0  0  0  0  0
   16.2155   22.6494    8.7827 C   0  0  0  0  0  0  0  0  0  0  0  0
   16.5478   21.3140    8.7565 C   0  0  0  0  0  0  0  0  0  0  0  0
   16.1912   20.5004    7.7015 C   0  0  0  0  0  0  0  0  0  0  0  0
   15.4973   21.0014    6.6150 C   0  0  0  0  0  0  0  0  0  0  0  0
   15.1752   22.3527    6.6478 C   0  0  0  0  0  0  0  0  0  0  0  0
   15.5304   23.1736    7.7028 C   0  0  0  0  0  0  0  0  0  0  0  0
   15.1399   19.9881    5.5671 C   0  0  0  0  0  0  0  0  0  0  0  0
   15.0371   20.3746    4.0918 C   0  0  0  0  0  0  0  0  0  0  0  0
   13.6937   21.0122    3.7511 C   0  0  0  0  0  0  0  0  0  0  0  0
   13.2483   22.0302    4.7207 N   0  0  0  0  0  0  0  0  0  0  0  0
   14.3066   23.1806    5.3433 S   0  0  0  0  0  0  0  0  0  0  0  0
   13.5464   24.2493    5.9238 O   0  0  0  0  0  0  0  0  0  0  0  0
   15.3001   23.4521    4.3184 O   0  0  0  0  0  0  0  0  0  0  0  0
   17.2095   20.7897    9.8015 F   0  0  0  0  0  0  0  0  0  0  0  0
   15.3203   19.1847    3.1622 C   0  0  0  0  0  0  0  0  0  0  0  0
   14.6759   17.9251    3.6873 C   0  0  0  0  0  0  0  0  0  0  0  0
   16.8051   18.8602    3.0858 C   0  0  0  0  0  0  0  0  0  0  0  0
   14.8263   19.4049    1.7458 C   0  0  0  0  0  0  0  0  0  0  0  0
   10.0848   23.7185    5.3715 C   0  0  0  0  0  0  0  0  0  0  0  0
    8.8512   23.9154    4.6424 N   0  0  0  0  0  0  0  0  0  0  0  0
    8.3487   25.1633    4.3432 C   0  0  0  0  0  0  0  0  0  0  0  0
    8.8776   26.2444    4.5741 O   0  0  0  0  0  0  0  0  0  0  0  0
    8.3480   23.1225    4.3467 H   0  0  0  0  0  0  0  0  0  0  0  0
    7.1240   24.9712    3.7585 O   0  0  0  0  0  0  0  0  0  0  0  0
    7.1149   24.9137    2.3335 C   0  0  0  0  0  0  0  0  0  0  0  0
    6.8346   23.4678    1.9877 C   0  0  0  0  0  0  0  0  0  0  0  0
    8.5136   25.1687    1.8310 C   0  0  0  0  0  0  0  0  0  0  0  0
    8.1221   22.8675    1.8716 O   0  0  0  0  0  0  0  0  0  0  0  0
    8.9368   23.8446    1.2569 C   0  0  0  0  0  0  0  0  0  0  0  0
    9.7842   23.3343    6.8196 C   0  0  0  0  0  0  0  0  0  0  0  0
    9.7518   24.5532    7.6828 C   0  0  0  0  0  0  0  0  0  0  0  0
   10.9341   25.1549    8.0816 C   0  0  0  0  0  0  0  0  0  0  0  0
   10.8928   26.3010    8.8537 C   0  0  0  0  0  0  0  0  0  0  0  0
    9.6765   26.8401    9.2199 C   0  0  0  0  0  0  0  0  0  0  0  0
    8.4928   26.2419    8.8266 C   0  0  0  0  0  0  0  0  0  0  0  0
    8.5342   25.0923    8.0611 C   0  0  0  0  0  0  0  0  0  0  0  0
 33 32  1  0  0  0
 33 31  1  0  0  0
 22 19  1  0  0  0
 32 30  1  0  0  0
 31 29  1  0  0  0
 21 19  1  0  0  0
 20 19  1  0  0  0
 19 12  1  0  0  0
 30 29  1  0  0  0
 29 28  1  0  0  0
 12 13  1  0  0  0
 12 11  1  0  0  0
 13 14  1  0  0  0
 28 25  1  0  0  0
 11  8  1  0  0  0
  2  1  1  0  0  0
 25 26  2  0  0  0
 25 24  1  0  0  0
  1  4  1  0  0  0
  1 23  1  0  0  0
 24 23  1  0  0  0
  4 14  1  0  0  0
 14 15  1  0  0  0
  8  7  2  0  0  0
  8  9  1  0  0  0
 23 34  1  0  0  0
  7  6  1  0  0  0
 17 15  2  0  0  0
 15  9  1  0  0  0
 15 16  2  0  0  0
  9 10  2  0  0  0
 34 35  1  0  0  0
  6 18  1  0  0  0
  6  5  2  0  0  0
 35 40  2  0  0  0
 35 36  1  0  0  0
 40 39  1  0  0  0
 10  5  1  0  0  0
 36 37  2  0  0  0
 39 38  2  0  0  0
 37 38  1  0  0  0
  2  3  1  0  0  0
 24 27  1  0  0  0
M  END
> <minimizedAffinity>
-10.85217

$$$$
4MC1_526_A_102


 40 43  0  0  0  0  0  0  0  0999 V2000
   14.3836   22.6320    4.1708 C   0  0  0  0  0  0  0  0  0  0  0  0
   15.4859   23.4629    3.8289 O   0  0  0  0  0  0  0  0  0  0  0  0
   16.0790   23.5435    4.5922 H   0  0  0  0  0  0  0  0  0  0  0  0
   13.5952   23.3101    5.2713 C   0  0  0  0  0  0  0  0  0  0  0  0
   10.1235   25.6948    8.8787 C   0  0  0  0  0  0  0  0  0  0  0  0
    9.5348   26.4619    7.8993 C   0  0  0  0  0  0  0  0  0  0  0  0
    9.5558   26.0830    6.5733 C   0  0  0  0  0  0  0  0  0  0  0  0
   10.1574   24.9024    6.1765 C   0  0  0  0  0  0  0  0  0  0  0  0
   10.7404   24.1314    7.1747 C   0  0  0  0  0  0  0  0  0  0  0  0
   10.7221   24.5061    8.5061 C   0  0  0  0  0  0  0  0  0  0  0  0
   10.1409   24.6467    4.6977 C   0  0  0  0  0  0  0  0  0  0  0  0
   10.0873   23.2250    4.1388 C   0  0  0  0  0  0  0  0  0  0  0  0
   11.4604   22.5608    4.1093 C   0  0  0  0  0  0  0  0  0  0  0  0
   12.2427   22.7422    5.3462 N   0  0  0  0  0  0  0  0  0  0  0  0
   11.5415   22.5806    6.8671 S   0  0  0  0  0  0  0  0  0  0  0  0
   12.5781   22.4142    7.8443 O   0  0  0  0  0  0  0  0  0  0  0  0
   10.4740   21.6022    6.7481 O   0  0  0  0  0  0  0  0  0  0  0  0
    8.9533   27.6222    8.2461 F   0  0  0  0  0  0  0  0  0  0  0  0
    9.4345   23.1753    2.7491 C   0  0  0  0  0  0  0  0  0  0  0  0
    9.2688   21.7498    2.2819 C   0  0  0  0  0  0  0  0  0  0  0  0
   10.3014   23.8353    1.6867 C   0  0  0  0  0  0  0  0  0  0  0  0
    8.0726   23.8405    2.7068 C   0  0  0  0  0  0  0  0  0  0  0  0
   14.8587   21.2093    4.4504 C   0  0  0  0  0  0  0  0  0  0  0  0
   14.7290   21.0052    5.8764 N   0  0  0  0  0  0  0  0  0  0  0  0
   15.7444   20.4940    6.6556 C   0  0  0  0  0  0  0  0  0  0  0  0
   16.8809   20.2139    6.2924 O   0  0  0  0  0  0  0  0  0  0  0  0
   13.8773   21.2419    6.3098 H   0  0  0  0  0  0  0  0  0  0  0  0
   15.2356   20.3296    7.9175 O   0  0  0  0  0  0  0  0  0  0  0  0
   16.1371   20.5865    8.9923 C   0  0  0  0  0  0  0  0  0  0  0  0
   15.4190   20.1277   10.2425 C   0  0  0  0  0  0  0  0  0  0  0  0
   16.2828   22.0786    9.1541 C   0  0  0  0  0  0  0  0  0  0  0  0
   14.7361   21.2868   10.7134 O   0  0  0  0  0  0  0  0  0  0  0  0
   15.6174   22.3645   10.4722 C   0  0  0  0  0  0  0  0  0  0  0  0
   14.1272   20.1027    3.6919 C   0  0  0  0  0  0  0  0  0  0  0  0
   15.0962   19.0642    3.2291 C   0  0  0  0  0  0  0  0  0  0  0  0
   15.7159   19.1909    1.9968 C   0  0  0  0  0  0  0  0  0  0  0  0
   16.6352   18.2411    1.5916 C   0  0  0  0  0  0  0  0  0  0  0  0
   16.9321   17.1754    2.4164 C   0  0  0  0  0  0  0  0  0  0  0  0
   16.3143   17.0427    3.6470 C   0  0  0  0  0  0  0  0  0  0  0  0
   15.3901   17.9880    4.0487 C   0  0  0  0  0  0  0  0  0  0  0  0
 33 32  1  0  0  0
 33 31  1  0  0  0
 22 19  1  0  0  0
 32 30  1  0  0  0
 31 29  1  0  0  0
 21 19  1  0  0  0
 20 19  1  0  0  0
 19 12  1  0  0  0
 30 29  1  0  0  0
 29 28  1  0  0  0
 12 13  1  0  0  0
 12 11  1  0  0  0
 13 14  1  0  0  0
 28 25  1  0  0  0
 11  8  1  0  0  0
  2  1  1  0  0  0
 25 26  2  0  0  0
 25 24  1  0  0  0
  1  4  1  0  0  0
  1 23  1  0  0  0
 24 23  1  0  0  0
  4 14  1  0  0  0
 14 15  1  0  0  0
  8  7  2  0  0  0
  8  9  1  0  0  0
 23 34  1  0  0  0
  7  6  1  0  0  0
 17 15  2  0  0  0
 15  9  1  0  0  0
 15 16  2  0  0  0
  9 10  2  0  0  0
 34 35  1  0  0  0
  6 18  1  0  0  0
  6  5  2  0  0  0
 35 40  2  0  0  0
 35 36  1  0  0  0
 40 39  1  0  0  0
 10  5  1  0  0  0
 36 37  2  0  0  0
 39 38  2  0  0  0
 37 38  1  0  0  0
  2  3  1  0  0  0
 24 27  1  0  0  0
M  END
> <minimizedAffinity>
-10.66016

$$$$
4MC1_526_A_102


 40 43  0  0  0  0  0  0  0  0999 V2000
   13.7857   23.6473    4.4484 C   0  0  0  0  0  0  0  0  0  0  0  0
   14.9887   24.4041    4.3999 O   0  0  0  0  0  0  0  0  0  0  0  0
   15.4555   24.3236    5.2464 H   0  0  0  0  0  0  0  0  0  0  0  0
   12.8844   24.2467    5.5072 C   0  0  0  0  0  0  0  0  0  0  0  0
    9.0647   26.3210    8.9510 C   0  0  0  0  0  0  0  0  0  0  0  0
    8.5676   27.1690    7.9876 C   0  0  0  0  0  0  0  0  0  0  0  0
    8.7188   26.9037    6.6426 C   0  0  0  0  0  0  0  0  0  0  0  0
    9.3642   25.7604    6.2075 C   0  0  0  0  0  0  0  0  0  0  0  0
    9.8539   24.9069    7.1887 C   0  0  0  0  0  0  0  0  0  0  0  0
    9.7048   25.1675    8.5389 C   0  0  0  0  0  0  0  0  0  0  0  0
    9.4920   25.6308    4.7177 C   0  0  0  0  0  0  0  0  0  0  0  0
    9.5026   24.2616    4.0383 C   0  0  0  0  0  0  0  0  0  0  0  0
   10.8768   23.6009    4.0854 C   0  0  0  0  0  0  0  0  0  0  0  0
   11.5351   23.6760    5.4029 N   0  0  0  0  0  0  0  0  0  0  0  0
   10.6919   23.3869    6.8300 S   0  0  0  0  0  0  0  0  0  0  0  0
   11.6307   23.1372    7.8851 O   0  0  0  0  0  0  0  0  0  0  0  0
    9.6478   22.4232    6.5263 O   0  0  0  0  0  0  0  0  0  0  0  0
    7.9472   28.2964    8.3734 F   0  0  0  0  0  0  0  0  0  0  0  0
    8.9869   24.3305    2.5928 C   0  0  0  0  0  0  0  0  0  0  0  0
    8.5516   25.7324    2.2419 C   0  0  0  0  0  0  0  0  0  0  0  0
    7.7457   23.4742    2.3876 C   0  0  0  0  0  0  0  0  0  0  0  0
   10.0185   23.8937    1.5711 C   0  0  0  0  0  0  0  0  0  0  0  0
   14.0998   22.1603    4.5834 C   0  0  0  0  0  0  0  0  0  0  0  0
   13.9636   21.8369    5.9865 N   0  0  0  0  0  0  0  0  0  0  0  0
   14.9206   21.1387    6.6908 C   0  0  0  0  0  0  0  0  0  0  0  0
   16.0118   20.7645    6.2771 O   0  0  0  0  0  0  0  0  0  0  0  0
   13.1509   22.1285    6.4596 H   0  0  0  0  0  0  0  0  0  0  0  0
   14.4108   20.9144    7.9431 O   0  0  0  0  0  0  0  0  0  0  0  0
   14.4087   22.0344    8.8260 C   0  0  0  0  0  0  0  0  0  0  0  0
   15.8606   22.4294    8.9835 C   0  0  0  0  0  0  0  0  0  0  0  0
   13.9827   21.5688   10.1956 C   0  0  0  0  0  0  0  0  0  0  0  0
   16.3124   21.7007   10.1221 O   0  0  0  0  0  0  0  0  0  0  0  0
   15.2276   21.7102   11.0274 C   0  0  0  0  0  0  0  0  0  0  0  0
   13.2394   21.2197    3.7408 C   0  0  0  0  0  0  0  0  0  0  0  0
   14.0296   20.0183    3.3358 C   0  0  0  0  0  0  0  0  0  0  0  0
   14.7666   20.0333    2.1631 C   0  0  0  0  0  0  0  0  0  0  0  0
   15.5201   18.9280    1.8135 C   0  0  0  0  0  0  0  0  0  0  0  0
   15.5361   17.8190    2.6345 C   0  0  0  0  0  0  0  0  0  0  0  0
   14.7999   17.7977    3.8055 C   0  0  0  0  0  0  0  0  0  0  0  0
   14.0412   18.8995    4.1511 C   0  0  0  0  0  0  0  0  0  0  0  0
 33 32  1  0  0  0
 33 31  1  0  0  0
 22 19  1  0  0  0
 32 30  1  0  0  0
 31 29  1  0  0  0
 21 19  1  0  0  0
 20 19  1  0  0  0
 19 12  1  0  0  0
 30 29  1  0  0  0
 29 28  1  0  0  0
 12 13  1  0  0  0
 12 11  1  0  0  0
 13 14  1  0  0  0
 28 25  1  0  0  0
 11  8  1  0  0  0
  2  1  1  0  0  0
 25 26  2  0  0  0
 25 24  1  0  0  0
  1  4  1  0  0  0
  1 23  1  0  0  0
 24 23  1  0  0  0
  4 14  1  0  0  0
 14 15  1  0  0  0
  8  7  2  0  0  0
  8  9  1  0  0  0
 23 34  1  0  0  0
  7  6  1  0  0  0
 17 15  2  0  0  0
 15  9  1  0  0  0
 15 16  2  0  0  0
  9 10  2  0  0  0
 34 35  1  0  0  0
  6 18  1  0  0  0
  6  5  2  0  0  0
 35 40  2  0  0  0
 35 36  1  0  0  0
 40 39  1  0  0  0
 10  5  1  0  0  0
 36 37  2  0  0  0
 39 38  2  0  0  0
 37 38  1  0  0  0
  2  3  1  0  0  0
 24 27  1  0  0  0
M  END
> <minimizedAffinity>
-10.55808

$$$$
4MC1_526_A_102


 40 43  0  0  0  0  0  0  0  0999 V2000
   13.6638   21.7737    7.0057 C   0  0  0  0  0  0  0  0  0  0  0  0
   13.5646   21.3336    8.3543 O   0  0  0  0  0  0  0  0  0  0  0  0
   13.0317   20.5240    8.3919 H   0  0  0  0  0  0  0  0  0  0  0  0
   12.2775   22.1357    6.5162 C   0  0  0  0  0  0  0  0  0  0  0  0
   10.0137   23.9703    1.7979 C   0  0  0  0  0  0  0  0  0  0  0  0
    8.7750   24.1212    2.3788 C   0  0  0  0  0  0  0  0  0  0  0  0
    8.6309   24.3009    3.7386 C   0  0  0  0  0  0  0  0  0  0  0  0
    9.7323   24.3541    4.5736 C   0  0  0  0  0  0  0  0  0  0  0  0
   10.9781   24.2099    3.9752 C   0  0  0  0  0  0  0  0  0  0  0  0
   11.1289   24.0299    2.6122 C   0  0  0  0  0  0  0  0  0  0  0  0
    9.4166   24.5082    6.0327 C   0  0  0  0  0  0  0  0  0  0  0  0
   10.3623   25.2528    6.9749 C   0  0  0  0  0  0  0  0  0  0  0  0
   11.5182   24.3770    7.4484 C   0  0  0  0  0  0  0  0  0  0  0  0
   12.1570   23.5927    6.3752 N   0  0  0  0  0  0  0  0  0  0  0  0
   12.5047   24.2682    4.8739 S   0  0  0  0  0  0  0  0  0  0  0  0
   13.4527   23.4338    4.1942 O   0  0  0  0  0  0  0  0  0  0  0  0
   12.7819   25.6782    5.0892 O   0  0  0  0  0  0  0  0  0  0  0  0
    7.6818   24.0607    1.6004 F   0  0  0  0  0  0  0  0  0  0  0  0
    9.6207   25.8615    8.1747 C   0  0  0  0  0  0  0  0  0  0  0  0
    9.1000   27.2390    7.8443 C   0  0  0  0  0  0  0  0  0  0  0  0
   10.5402   26.0687    9.3695 C   0  0  0  0  0  0  0  0  0  0  0  0
    8.4484   25.0197    8.6398 C   0  0  0  0  0  0  0  0  0  0  0  0
   14.4368   20.7563    6.1717 C   0  0  0  0  0  0  0  0  0  0  0  0
   15.3708   20.1131    7.0694 N   0  0  0  0  0  0  0  0  0  0  0  0
   16.7086   19.9607    6.7756 C   0  0  0  0  0  0  0  0  0  0  0  0
   17.2989   20.3876    5.7900 O   0  0  0  0  0  0  0  0  0  0  0  0
   15.0358   19.7688    7.9288 H   0  0  0  0  0  0  0  0  0  0  0  0
   17.2568   19.2131    7.7851 O   0  0  0  0  0  0  0  0  0  0  0  0
   17.8054   19.9470    8.8780 C   0  0  0  0  0  0  0  0  0  0  0  0
   16.8149   19.7889   10.0106 C   0  0  0  0  0  0  0  0  0  0  0  0
   17.7741   21.4157    8.5375 C   0  0  0  0  0  0  0  0  0  0  0  0
   15.9335   20.9012    9.8784 O   0  0  0  0  0  0  0  0  0  0  0  0
   16.7524   21.9830    9.4841 C   0  0  0  0  0  0  0  0  0  0  0  0
   13.5912   19.7067    5.4518 C   0  0  0  0  0  0  0  0  0  0  0  0
   14.2315   19.3248    4.1571 C   0  0  0  0  0  0  0  0  0  0  0  0
   14.1637   20.1791    3.0689 C   0  0  0  0  0  0  0  0  0  0  0  0
   14.7869   19.8309    1.8849 C   0  0  0  0  0  0  0  0  0  0  0  0
   15.4743   18.6378    1.7945 C   0  0  0  0  0  0  0  0  0  0  0  0
   15.5430   17.7798    2.8775 C   0  0  0  0  0  0  0  0  0  0  0  0
   14.9139   18.1245    4.0584 C   0  0  0  0  0  0  0  0  0  0  0  0
 33 32  1  0  0  0
 33 31  1  0  0  0
 22 19  1  0  0  0
 32 30  1  0  0  0
 31 29  1  0  0  0
 21 19  1  0  0  0
 20 19  1  0  0  0
 19 12  1  0  0  0
 30 29  1  0  0  0
 29 28  1  0  0  0
 12 13  1  0  0  0
 12 11  1  0  0  0
 13 14  1  0  0  0
 28 25  1  0  0  0
 11  8  1  0  0  0
  2  1  1  0  0  0
 25 26  2  0  0  0
 25 24  1  0  0  0
  1  4  1  0  0  0
  1 23  1  0  0  0
 24 23  1  0  0  0
  4 14  1  0  0  0
 14 15  1  0  0  0
  8  7  2  0  0  0
  8  9  1  0  0  0
 23 34  1  0  0  0
  7  6  1  0  0  0
 17 15  2  0  0  0
 15  9  1  0  0  0
 15 16  2  0  0  0
  9 10  2  0  0  0
 34 35  1  0  0  0
  6 18  1  0  0  0
  6  5  2  0  0  0
 35 40  2  0  0  0
 35 36  1  0  0  0
 40 39  1  0  0  0
 10  5  1  0  0  0
 36 37  2  0  0  0
 39 38  2  0  0  0
 37 38  1  0  0  0
  2  3  1  0  0  0
 24 27  1  0  0  0
M  END
> <minimizedAffinity>
-10.35460

$$$$
4MC1_526_A_102


 40 43  0  0  0  0  0  0  0  0999 V2000
   15.1249   22.6813    6.7771 C   0  0  0  0  0  0  0  0  0  0  0  0
   16.0709   23.5084    7.4428 O   0  0  0  0  0  0  0  0  0  0  0  0
   16.1502   23.2288    8.3682 H   0  0  0  0  0  0  0  0  0  0  0  0
   13.7694   22.8910    7.4183 C   0  0  0  0  0  0  0  0  0  0  0  0
   11.0223   22.2020    2.6505 C   0  0  0  0  0  0  0  0  0  0  0  0
    9.8103   22.0915    3.2935 C   0  0  0  0  0  0  0  0  0  0  0  0
    9.6018   22.6373    4.5428 C   0  0  0  0  0  0  0  0  0  0  0  0
   10.6026   23.3355    5.1942 C   0  0  0  0  0  0  0  0  0  0  0  0
   11.8188   23.4488    4.5318 C   0  0  0  0  0  0  0  0  0  0  0  0
   12.0336   22.9040    3.2788 C   0  0  0  0  0  0  0  0  0  0  0  0
   10.2431   23.8310    6.5645 C   0  0  0  0  0  0  0  0  0  0  0  0
   10.8458   25.1186    7.1261 C   0  0  0  0  0  0  0  0  0  0  0  0
   12.2386   24.9012    7.7094 C   0  0  0  0  0  0  0  0  0  0  0  0
   13.1264   24.0870    6.8586 N   0  0  0  0  0  0  0  0  0  0  0  0
   13.2131   24.3197    5.1944 S   0  0  0  0  0  0  0  0  0  0  0  0
   14.4045   23.6954    4.6967 O   0  0  0  0  0  0  0  0  0  0  0  0
   12.9553   25.7271    4.9417 O   0  0  0  0  0  0  0  0  0  0  0  0
    8.8196   21.4080    2.6970 F   0  0  0  0  0  0  0  0  0  0  0  0
    9.9256   25.7832    8.1613 C   0  0  0  0  0  0  0  0  0  0  0  0
    8.8071   24.8533    8.5640 C   0  0  0  0  0  0  0  0  0  0  0  0
    9.2269   27.0125    7.5988 C   0  0  0  0  0  0  0  0  0  0  0  0
   10.6550   26.2074    9.4210 C   0  0  0  0  0  0  0  0  0  0  0  0
   15.6319   21.2437    6.7104 C   0  0  0  0  0  0  0  0  0  0  0  0
   15.7291   20.9066    5.3072 N   0  0  0  0  0  0  0  0  0  0  0  0
   14.6988   20.3203    4.6044 C   0  0  0  0  0  0  0  0  0  0  0  0
   13.5729   20.0712    5.0195 O   0  0  0  0  0  0  0  0  0  0  0  0
   16.5688   21.1048    4.8330 H   0  0  0  0  0  0  0  0  0  0  0  0
   15.1786   20.0397    3.3516 O   0  0  0  0  0  0  0  0  0  0  0  0
   15.3578   18.6580    3.0469 C   0  0  0  0  0  0  0  0  0  0  0  0
   16.0043   18.0527    4.2735 C   0  0  0  0  0  0  0  0  0  0  0  0
   16.3958   18.5339    1.9602 C   0  0  0  0  0  0  0  0  0  0  0  0
   17.4052   18.1518    4.0303 O   0  0  0  0  0  0  0  0  0  0  0  0
   17.5654   17.8888    2.6513 C   0  0  0  0  0  0  0  0  0  0  0  0
   16.9639   20.9752    7.4094 C   0  0  0  0  0  0  0  0  0  0  0  0
   16.7941   19.9310    8.4642 C   0  0  0  0  0  0  0  0  0  0  0  0
   15.6269   19.8770    9.2081 C   0  0  0  0  0  0  0  0  0  0  0  0
   15.4664   18.8870   10.1597 C   0  0  0  0  0  0  0  0  0  0  0  0
   16.4666   17.9580   10.3611 C   0  0  0  0  0  0  0  0  0  0  0  0
   17.6354   18.0088    9.6228 C   0  0  0  0  0  0  0  0  0  0  0  0
   17.7987   19.0026    8.6769 C   0  0  0  0  0  0  0  0  0  0  0  0
 33 32  1  0  0  0
 33 31  1  0  0  0
 22 19  1  0  0  0
 32 30  1  0  0  0
 31 29  1  0  0  0
 21 19  1  0  0  0
 20 19  1  0  0  0
 19 12  1  0  0  0
 30 29  1  0  0  0
 29 28  1  0  0  0
 12 13  1  0  0  0
 12 11  1  0  0  0
 13 14  1  0  0  0
 28 25  1  0  0  0
 11  8  1  0  0  0
  2  1  1  0  0  0
 25 26  2  0  0  0
 25 24  1  0  0  0
  1  4  1  0  0  0
  1 23  1  0  0  0
 24 23  1  0  0  0
  4 14  1  0  0  0
 14 15  1  0  0  0
  8  7  2  0  0  0
  8  9  1  0  0  0
 23 34  1  0  0  0
  7  6  1  0  0  0
 17 15  2  0  0  0
 15  9  1  0  0  0
 15 16  2  0  0  0
  9 10  2  0  0  0
 34 35  1  0  0  0
  6 18  1  0  0  0
  6  5  2  0  0  0
 35 40  2  0  0  0
 35 36  1  0  0  0
 40 39  1  0  0  0
 10  5  1  0  0  0
 36 37  2  0  0  0
 39 38  2  0  0  0
 37 38  1  0  0  0
  2  3  1  0  0  0
 24 27  1  0  0  0
M  END
> <minimizedAffinity>
-9.32762

$$$$
4MC1_526_A_102


 40 43  0  0  0  0  0  0  0  0999 V2000
   11.2530   23.6352    3.6762 C   0  0  0  0  0  0  0  0  0  0  0  0
   11.5017   23.5794    2.2772 O   0  0  0  0  0  0  0  0  0  0  0  0
   11.0277   22.8246    1.8944 H   0  0  0  0  0  0  0  0  0  0  0  0
   11.8238   22.3868    4.3150 C   0  0  0  0  0  0  0  0  0  0  0  0
   15.0365   22.6043    8.8298 C   0  0  0  0  0  0  0  0  0  0  0  0
   15.1789   21.2359    8.8698 C   0  0  0  0  0  0  0  0  0  0  0  0
   15.0261   20.4595    7.7402 C   0  0  0  0  0  0  0  0  0  0  0  0
   14.7394   21.0305    6.5135 C   0  0  0  0  0  0  0  0  0  0  0  0
   14.6070   22.4134    6.4831 C   0  0  0  0  0  0  0  0  0  0  0  0
   14.7596   23.1972    7.6125 C   0  0  0  0  0  0  0  0  0  0  0  0
   14.5568   20.0564    5.3864 C   0  0  0  0  0  0  0  0  0  0  0  0
   14.9254   20.4268    3.9499 C   0  0  0  0  0  0  0  0  0  0  0  0
   13.8307   21.2347    3.2597 C   0  0  0  0  0  0  0  0  0  0  0  0
   13.2732   22.3210    4.0866 N   0  0  0  0  0  0  0  0  0  0  0  0
   14.2598   23.3280    5.0051 S   0  0  0  0  0  0  0  0  0  0  0  0
   13.5192   24.5002    5.3715 O   0  0  0  0  0  0  0  0  0  0  0  0
   15.5282   23.4436    4.3059 O   0  0  0  0  0  0  0  0  0  0  0  0
   15.4435   20.6454   10.0471 F   0  0  0  0  0  0  0  0  0  0  0  0
   15.2943   19.1930    3.1122 C   0  0  0  0  0  0  0  0  0  0  0  0
   14.6551   17.9476    3.6762 C   0  0  0  0  0  0  0  0  0  0  0  0
   16.7893   18.9102    3.1394 C   0  0  0  0  0  0  0  0  0  0  0  0
   14.8775   19.3133    1.6594 C   0  0  0  0  0  0  0  0  0  0  0  0
    9.7782   23.9228    3.9414 C   0  0  0  0  0  0  0  0  0  0  0  0
    9.7360   24.9575    4.9512 N   0  0  0  0  0  0  0  0  0  0  0  0
    9.6091   24.6866    6.2966 C   0  0  0  0  0  0  0  0  0  0  0  0
    9.5851   23.5814    6.8257 O   0  0  0  0  0  0  0  0  0  0  0  0
    9.8009   25.8971    4.6648 H   0  0  0  0  0  0  0  0  0  0  0  0
    9.4862   25.8921    6.9370 O   0  0  0  0  0  0  0  0  0  0  0  0
    8.9793   25.8424    8.2691 C   0  0  0  0  0  0  0  0  0  0  0  0
    7.4755   25.9394    8.1347 C   0  0  0  0  0  0  0  0  0  0  0  0
    9.3867   27.1037    8.9881 C   0  0  0  0  0  0  0  0  0  0  0  0
    7.1938   27.3339    8.2209 O   0  0  0  0  0  0  0  0  0  0  0  0
    8.0898   27.8377    9.1904 C   0  0  0  0  0  0  0  0  0  0  0  0
    8.9530   24.3410    2.7251 C   0  0  0  0  0  0  0  0  0  0  0  0
    7.4965   24.3243    3.0569 C   0  0  0  0  0  0  0  0  0  0  0  0
    6.9079   25.4231    3.6608 C   0  0  0  0  0  0  0  0  0  0  0  0
    5.5527   25.4102    3.9345 C   0  0  0  0  0  0  0  0  0  0  0  0
    4.7946   24.3060    3.6027 C   0  0  0  0  0  0  0  0  0  0  0  0
    5.3778   23.2049    3.0017 C   0  0  0  0  0  0  0  0  0  0  0  0
    6.7334   23.2150    2.7349 C   0  0  0  0  0  0  0  0  0  0  0  0
 33 32  1  0  0  0
 33 31  1  0  0  0
 22 19  1  0  0  0
 32 30  1  0  0  0
 31 29  1  0  0  0
 21 19  1  0  0  0
 20 19  1  0  0  0
 19 12  1  0  0  0
 30 29  1  0  0  0
 29 28  1  0  0  0
 12 13  1  0  0  0
 12 11  1  0  0  0
 13 14  1  0  0  0
 28 25  1  0  0  0
 11  8  1  0  0  0
  2  1  1  0  0  0
 25 26  2  0  0  0
 25 24  1  0  0  0
  1  4  1  0  0  0
  1 23  1  0  0  0
 24 23  1  0  0  0
  4 14  1  0  0  0
 14 15  1  0  0  0
  8  7  2  0  0  0
  8  9  1  0  0  0
 23 34  1  0  0  0
  7  6  1  0  0  0
 17 15  2  0  0  0
 15  9  1  0  0  0
 15 16  2  0  0  0
  9 10  2  0  0  0
 34 35  1  0  0  0
  6 18  1  0  0  0
  6  5  2  0  0  0
 35 40  2  0  0  0
 35 36  1  0  0  0
 40 39  1  0  0  0
 10  5  1  0  0  0
 36 37  2  0  0  0
 39 38  2  0  0  0
 37 38  1  0  0  0
  2  3  1  0  0  0
 24 27  1  0  0  0
M  END
> <minimizedAffinity>
-9.22070

$$$$
4MC1_526_A_102


 40 43  0  0  0  0  0  0  0  0999 V2000
   11.5505   23.9825    4.8734 C   0  0  0  0  0  0  0  0  0  0  0  0
   11.8673   24.6147    3.6397 O   0  0  0  0  0  0  0  0  0  0  0  0
   11.3401   24.2182    2.9285 H   0  0  0  0  0  0  0  0  0  0  0  0
   11.9557   22.5264    4.7841 C   0  0  0  0  0  0  0  0  0  0  0  0
   15.6917   22.5938    8.8818 C   0  0  0  0  0  0  0  0  0  0  0  0
   15.7941   21.2213    8.8940 C   0  0  0  0  0  0  0  0  0  0  0  0
   15.4823   20.4628    7.7851 C   0  0  0  0  0  0  0  0  0  0  0  0
   15.0690   21.0562    6.6060 C   0  0  0  0  0  0  0  0  0  0  0  0
   14.9782   22.4428    6.6022 C   0  0  0  0  0  0  0  0  0  0  0  0
   15.2899   23.2086    7.7110 C   0  0  0  0  0  0  0  0  0  0  0  0
   14.7217   20.1011    5.5017 C   0  0  0  0  0  0  0  0  0  0  0  0
   14.9271   20.4761    4.0342 C   0  0  0  0  0  0  0  0  0  0  0  0
   13.7840   21.3251    3.4866 C   0  0  0  0  0  0  0  0  0  0  0  0
   13.3645   22.4186    4.3828 N   0  0  0  0  0  0  0  0  0  0  0  0
   14.4857   23.3843    5.1836 S   0  0  0  0  0  0  0  0  0  0  0  0
   13.8321   24.5746    5.6452 O   0  0  0  0  0  0  0  0  0  0  0  0
   15.6642   23.4688    4.3380 O   0  0  0  0  0  0  0  0  0  0  0  0
   16.1789   20.6096   10.0264 F   0  0  0  0  0  0  0  0  0  0  0  0
   15.1534   19.2412    3.1490 C   0  0  0  0  0  0  0  0  0  0  0  0
   14.4471   18.0342    3.7166 C   0  0  0  0  0  0  0  0  0  0  0  0
   16.6207   18.8419    3.0896 C   0  0  0  0  0  0  0  0  0  0  0  0
   14.6734   19.4341    1.7237 C   0  0  0  0  0  0  0  0  0  0  0  0
   10.1006   24.2639    5.2564 C   0  0  0  0  0  0  0  0  0  0  0  0
   10.1412   25.1739    6.3800 N   0  0  0  0  0  0  0  0  0  0  0  0
    9.4226   24.9674    7.5377 C   0  0  0  0  0  0  0  0  0  0  0  0
    8.7285   23.9946    7.8094 O   0  0  0  0  0  0  0  0  0  0  0  0
   10.7075   25.9765    6.3149 H   0  0  0  0  0  0  0  0  0  0  0  0
    9.6073   26.0737    8.3254 O   0  0  0  0  0  0  0  0  0  0  0  0
    9.1528   27.3108    7.7804 C   0  0  0  0  0  0  0  0  0  0  0  0
    8.6804   28.1262    8.9640 C   0  0  0  0  0  0  0  0  0  0  0  0
    7.9100   27.0523    6.9666 C   0  0  0  0  0  0  0  0  0  0  0  0
    7.2932   27.8211    9.0829 O   0  0  0  0  0  0  0  0  0  0  0  0
    6.8173   27.7186    7.7565 C   0  0  0  0  0  0  0  0  0  0  0  0
    9.2190   24.8366    4.1474 C   0  0  0  0  0  0  0  0  0  0  0  0
    9.1008   23.8596    3.0234 C   0  0  0  0  0  0  0  0  0  0  0  0
    9.3239   24.2694    1.7192 C   0  0  0  0  0  0  0  0  0  0  0  0
    9.2436   23.3505    0.6893 C   0  0  0  0  0  0  0  0  0  0  0  0
    8.9448   22.0320    0.9657 C   0  0  0  0  0  0  0  0  0  0  0  0
    8.7185   21.6179    2.2661 C   0  0  0  0  0  0  0  0  0  0  0  0
    8.7916   22.5378    3.2945 C   0  0  0  0  0  0  0  0  0  0  0  0
 33 32  1  0  0  0
 33 31  1  0  0  0
 22 19  1  0  0  0
 32 30  1  0  0  0
 31 29  1  0  0  0
 21 19  1  0  0  0
 20 19  1  0  0  0
 19 12  1  0  0  0
 30 29  1  0  0  0
 29 28  1  0  0  0
 12 13  1  0  0  0
 12 11  1  0  0  0
 13 14  1  0  0  0
 28 25  1  0  0  0
 11  8  1  0  0  0
  2  1  1  0  0  0
 25 26  2  0  0  0
 25 24  1  0  0  0
  1  4  1  0  0  0
  1 23  1  0  0  0
 24 23  1  0  0  0
  4 14  1  0  0  0
 14 15  1  0  0  0
  8  7  2  0  0  0
  8  9  1  0  0  0
 23 34  1  0  0  0
  7  6  1  0  0  0
 17 15  2  0  0  0
 15  9  1  0  0  0
 15 16  2  0  0  0
  9 10  2  0  0  0
 34 35  1  0  0  0
  6 18  1  0  0  0
  6  5  2  0  0  0
 35 40  2  0  0  0
 35 36  1  0  0  0
 40 39  1  0  0  0
 10  5  1  0  0  0
 36 37  2  0  0  0
 39 38  2  0  0  0
 37 38  1  0  0  0
  2  3  1  0  0  0
 24 27  1  0  0  0
M  END
> <minimizedAffinity>
-8.56916

$$$$
