5KA1_OTA_A_301


 22 23  0  0  0  0  0  0  0  0999 V2000
    6.7517  117.4474   -6.7698 N   0  0  0  0  0  0  0  0  0  0  0  0
    6.7596  118.1418   -5.5010 C   0  0  0  0  0  0  0  0  0  0  0  0
    5.4246  118.6673   -4.9906 C   0  0  0  0  0  0  0  0  0  0  0  0
    4.2701  118.1397   -5.6516 C   0  0  0  0  0  0  0  0  0  0  0  0
    4.3508  117.1510   -6.7523 C   0  0  0  0  0  0  0  0  0  0  0  0
    5.6610  116.4888   -6.9293 C   0  0  0  0  0  0  0  0  0  0  0  0
    5.0127  119.7033   -3.8755 S   0  0  0  0  0  0  0  0  0  0  0  0
    3.4461  119.6660   -3.9854 C   0  0  0  0  0  0  0  0  0  0  0  0
    3.0171  118.7843   -4.9898 C   0  0  0  0  0  0  0  0  0  0  0  0
    7.6341  116.9444   -6.8631 H   0  0  0  0  0  0  0  0  0  0  0  0
    1.5350  118.5341   -5.3978 C   0  0  0  0  0  0  0  0  0  0  0  0
    0.6624  118.3597   -4.5060 O   0  0  0  0  0  0  0  0  0  0  0  0
    1.2272  118.5600   -6.6584 O   0  0  0  0  0  0  0  0  0  0  0  0
    0.9119  118.3453   -3.6029 H   0  0  0  0  0  0  0  0  0  0  0  0
    2.4449  120.3387   -3.2691 N   0  0  0  0  0  0  0  0  0  0  0  0
    2.6710  120.9481   -2.0476 C   0  0  0  0  0  0  0  0  0  0  0  0
    3.7925  120.9451   -1.4881 O   0  0  0  0  0  0  0  0  0  0  0  0
    1.5394  120.3791   -3.6534 H   0  0  0  0  0  0  0  0  0  0  0  0
    1.4341  121.6033   -1.4846 C   0  0  0  0  0  0  0  0  0  0  0  0
    1.4366  122.8537   -1.1983 O   0  0  0  0  0  0  0  0  0  0  0  0
    0.4187  120.8720   -1.3443 O   0  0  0  0  0  0  0  0  0  0  0  0
    2.2156  123.3602   -1.3184 H   0  0  0  0  0  0  0  0  0  0  0  0
  1  2  1  0  0  0
  1  6  1  0  0  0
  2  3  1  0  0  0
  3  4  2  0  0  0
  3  7  1  0  0  0
  4  5  1  0  0  0
  4  9  1  0  0  0
  5  6  1  0  0  0
  7  8  1  0  0  0
  8  9  2  0  0  0
  8 15  1  0  0  0
  9 11  1  0  0  0
 11 12  1  0  0  0
 11 13  2  0  0  0
 15 16  1  0  0  0
 16 19  1  0  0  0
 16 17  2  0  0  0
 19 20  1  0  0  0
 19 21  2  0  0  0
  1 10  1  0  0  0
 12 14  1  0  0  0
 15 18  1  0  0  0
 20 22  1  0  0  0
M  END
> <minimizedAffinity>
-8.20644

$$$$
5KA1_OTA_A_301


 22 23  0  0  0  0  0  0  0  0999 V2000
    2.4484  120.4945   -3.3472 N   0  0  0  0  0  0  0  0  0  0  0  0
    2.2571  119.2347   -4.0313 C   0  0  0  0  0  0  0  0  0  0  0  0
    3.4592  118.6550   -4.7647 C   0  0  0  0  0  0  0  0  0  0  0  0
    4.7191  119.2454   -4.4296 C   0  0  0  0  0  0  0  0  0  0  0  0
    4.8608  120.3397   -3.4407 C   0  0  0  0  0  0  0  0  0  0  0  0
    3.6861  120.5838   -2.5765 C   0  0  0  0  0  0  0  0  0  0  0  0
    3.6354  117.5282   -5.8535 S   0  0  0  0  0  0  0  0  0  0  0  0
    5.1913  117.5496   -6.0685 C   0  0  0  0  0  0  0  0  0  0  0  0
    5.8127  118.5203   -5.2673 C   0  0  0  0  0  0  0  0  0  0  0  0
    1.6649  120.6325   -2.7089 H   0  0  0  0  0  0  0  0  0  0  0  0
    7.3364  118.8422   -5.2586 C   0  0  0  0  0  0  0  0  0  0  0  0
    7.8916  119.2648   -6.3077 O   0  0  0  0  0  0  0  0  0  0  0  0
    7.9906  118.7106   -4.1455 O   0  0  0  0  0  0  0  0  0  0  0  0
    7.3960  119.3503   -7.0982 H   0  0  0  0  0  0  0  0  0  0  0  0
    6.0292  116.7845   -6.8936 N   0  0  0  0  0  0  0  0  0  0  0  0
    6.0632  116.9223   -8.2699 C   0  0  0  0  0  0  0  0  0  0  0  0
    5.3452  117.7454   -8.8846 O   0  0  0  0  0  0  0  0  0  0  0  0
    6.6204  116.1186   -6.4737 H   0  0  0  0  0  0  0  0  0  0  0  0
    7.0474  115.9858   -8.9260 C   0  0  0  0  0  0  0  0  0  0  0  0
    8.0360  116.4516   -9.5976 O   0  0  0  0  0  0  0  0  0  0  0  0
    6.8588  114.7529   -8.7534 O   0  0  0  0  0  0  0  0  0  0  0  0
    8.1376  117.3774   -9.7007 H   0  0  0  0  0  0  0  0  0  0  0  0
  1  2  1  0  0  0
  1  6  1  0  0  0
  2  3  1  0  0  0
  3  4  2  0  0  0
  3  7  1  0  0  0
  4  5  1  0  0  0
  4  9  1  0  0  0
  5  6  1  0  0  0
  7  8  1  0  0  0
  8  9  2  0  0  0
  8 15  1  0  0  0
  9 11  1  0  0  0
 11 12  1  0  0  0
 11 13  2  0  0  0
 15 16  1  0  0  0
 16 19  1  0  0  0
 16 17  2  0  0  0
 19 20  1  0  0  0
 19 21  2  0  0  0
  1 10  1  0  0  0
 12 14  1  0  0  0
 15 18  1  0  0  0
 20 22  1  0  0  0
M  END
> <minimizedAffinity>
-6.29368

$$$$
5KA1_OTA_A_301


 22 23  0  0  0  0  0  0  0  0999 V2000
    3.8035  115.0418   -9.7910 N   0  0  0  0  0  0  0  0  0  0  0  0
    2.8822  116.1025   -9.4474 C   0  0  0  0  0  0  0  0  0  0  0  0
    3.1152  116.8213   -8.1254 C   0  0  0  0  0  0  0  0  0  0  0  0
    4.3954  116.5948   -7.5270 C   0  0  0  0  0  0  0  0  0  0  0  0
    5.4310  115.7291   -8.1383 C   0  0  0  0  0  0  0  0  0  0  0  0
    5.2093  115.3593   -9.5528 C   0  0  0  0  0  0  0  0  0  0  0  0
    2.2347  117.7756   -7.2308 S   0  0  0  0  0  0  0  0  0  0  0  0
    3.2185  118.0783   -6.0442 C   0  0  0  0  0  0  0  0  0  0  0  0
    4.4439  117.4123   -6.2031 C   0  0  0  0  0  0  0  0  0  0  0  0
    3.6886  114.8286  -10.7818 H   0  0  0  0  0  0  0  0  0  0  0  0
    5.6304  117.4536   -5.1951 C   0  0  0  0  0  0  0  0  0  0  0  0
    6.8146  117.4716   -5.6246 O   0  0  0  0  0  0  0  0  0  0  0  0
    5.3631  117.5174   -3.9267 O   0  0  0  0  0  0  0  0  0  0  0  0
    6.9797  117.4243   -6.5457 H   0  0  0  0  0  0  0  0  0  0  0  0
    3.0807  118.8776   -4.8995 N   0  0  0  0  0  0  0  0  0  0  0  0
    1.9195  118.9268   -4.1489 C   0  0  0  0  0  0  0  0  0  0  0  0
    0.8998  118.2572   -4.4366 O   0  0  0  0  0  0  0  0  0  0  0  0
    3.8459  119.4291   -4.6172 H   0  0  0  0  0  0  0  0  0  0  0  0
    2.0268  119.8604   -2.9685 C   0  0  0  0  0  0  0  0  0  0  0  0
    1.0422  119.9948   -2.1574 O   0  0  0  0  0  0  0  0  0  0  0  0
    3.1234  120.4605   -2.8177 O   0  0  0  0  0  0  0  0  0  0  0  0
    0.2437  119.5284   -2.3085 H   0  0  0  0  0  0  0  0  0  0  0  0
  1  2  1  0  0  0
  1  6  1  0  0  0
  2  3  1  0  0  0
  3  4  2  0  0  0
  3  7  1  0  0  0
  4  5  1  0  0  0
  4  9  1  0  0  0
  5  6  1  0  0  0
  7  8  1  0  0  0
  8  9  2  0  0  0
  8 15  1  0  0  0
  9 11  1  0  0  0
 11 12  1  0  0  0
 11 13  2  0  0  0
 15 16  1  0  0  0
 16 19  1  0  0  0
 16 17  2  0  0  0
 19 20  1  0  0  0
 19 21  2  0  0  0
  1 10  1  0  0  0
 12 14  1  0  0  0
 15 18  1  0  0  0
 20 22  1  0  0  0
M  END
> <minimizedAffinity>
-6.14358

$$$$
5KA1_OTA_A_301


 22 23  0  0  0  0  0  0  0  0999 V2000
    5.8377  116.0140   -8.9880 N   0  0  0  0  0  0  0  0  0  0  0  0
    6.1675  116.1092   -7.5830 C   0  0  0  0  0  0  0  0  0  0  0  0
    5.1888  116.8612   -6.6911 C   0  0  0  0  0  0  0  0  0  0  0  0
    3.9033  117.1072   -7.2701 C   0  0  0  0  0  0  0  0  0  0  0  0
    3.5348  116.6660   -8.6358 C   0  0  0  0  0  0  0  0  0  0  0  0
    4.4421  115.6804   -9.2617 C   0  0  0  0  0  0  0  0  0  0  0  0
    5.2769  117.4620   -5.2358 S   0  0  0  0  0  0  0  0  0  0  0  0
    3.8367  118.0654   -5.0651 C   0  0  0  0  0  0  0  0  0  0  0  0
    3.0527  117.8704   -6.2130 C   0  0  0  0  0  0  0  0  0  0  0  0
    6.4255  115.2922   -9.4050 H   0  0  0  0  0  0  0  0  0  0  0  0
    1.5926  118.3770   -6.4050 C   0  0  0  0  0  0  0  0  0  0  0  0
    0.8621  118.5740   -5.3976 O   0  0  0  0  0  0  0  0  0  0  0  0
    1.1787  118.6310   -7.6086 O   0  0  0  0  0  0  0  0  0  0  0  0
    1.1858  118.3820   -4.5395 H   0  0  0  0  0  0  0  0  0  0  0  0
    3.2277  118.7361   -3.9939 N   0  0  0  0  0  0  0  0  0  0  0  0
    3.7661  119.8684   -3.4087 C   0  0  0  0  0  0  0  0  0  0  0  0
    4.8424  120.3819   -3.7944 O   0  0  0  0  0  0  0  0  0  0  0  0
    2.3779  118.3849   -3.6423 H   0  0  0  0  0  0  0  0  0  0  0  0
    2.9200  120.3994   -2.2781 C   0  0  0  0  0  0  0  0  0  0  0  0
    1.6662  120.1332   -2.2270 O   0  0  0  0  0  0  0  0  0  0  0  0
    3.5112  121.0772   -1.3970 O   0  0  0  0  0  0  0  0  0  0  0  0
    1.2672  119.6247   -2.9053 H   0  0  0  0  0  0  0  0  0  0  0  0
  1  2  1  0  0  0
  1  6  1  0  0  0
  2  3  1  0  0  0
  3  4  2  0  0  0
  3  7  1  0  0  0
  4  5  1  0  0  0
  4  9  1  0  0  0
  5  6  1  0  0  0
  7  8  1  0  0  0
  8  9  2  0  0  0
  8 15  1  0  0  0
  9 11  1  0  0  0
 11 12  1  0  0  0
 11 13  2  0  0  0
 15 16  1  0  0  0
 16 19  1  0  0  0
 16 17  2  0  0  0
 19 20  1  0  0  0
 19 21  2  0  0  0
  1 10  1  0  0  0
 12 14  1  0  0  0
 15 18  1  0  0  0
 20 22  1  0  0  0
M  END
> <minimizedAffinity>
-5.94232

$$$$
5KA1_OTA_A_301


 22 23  0  0  0  0  0  0  0  0999 V2000
    1.3273  118.5317   -4.7639 N   0  0  0  0  0  0  0  0  0  0  0  0
    2.3652  119.3436   -4.1677 C   0  0  0  0  0  0  0  0  0  0  0  0
    3.8007  119.0439   -4.5781 C   0  0  0  0  0  0  0  0  0  0  0  0
    3.9421  118.2216   -5.7408 C   0  0  0  0  0  0  0  0  0  0  0  0
    2.7858  117.6947   -6.5030 C   0  0  0  0  0  0  0  0  0  0  0  0
    1.4779  118.3146   -6.2006 C   0  0  0  0  0  0  0  0  0  0  0  0
    5.2098  119.4329   -3.9868 S   0  0  0  0  0  0  0  0  0  0  0  0
    6.1755  118.7275   -5.0054 C   0  0  0  0  0  0  0  0  0  0  0  0
    5.4659  118.0379   -6.0010 C   0  0  0  0  0  0  0  0  0  0  0  0
    0.4313  118.9920   -4.6034 H   0  0  0  0  0  0  0  0  0  0  0  0
    6.1047  117.1945   -7.1439 C   0  0  0  0  0  0  0  0  0  0  0  0
    6.8162  117.7611   -8.0157 O   0  0  0  0  0  0  0  0  0  0  0  0
    5.9241  115.9093   -7.1399 O   0  0  0  0  0  0  0  0  0  0  0  0
    6.9301  118.6909   -7.9955 H   0  0  0  0  0  0  0  0  0  0  0  0
    7.5754  118.6799   -5.0831 N   0  0  0  0  0  0  0  0  0  0  0  0
    8.3100  119.4671   -5.9520 C   0  0  0  0  0  0  0  0  0  0  0  0
    7.7770  120.2857   -6.7372 O   0  0  0  0  0  0  0  0  0  0  0  0
    8.0575  118.0574   -4.4920 H   0  0  0  0  0  0  0  0  0  0  0  0
    9.7956  119.2285   -5.8413 C   0  0  0  0  0  0  0  0  0  0  0  0
   10.2652  118.4922   -4.9017 O   0  0  0  0  0  0  0  0  0  0  0  0
   10.5225  119.7592   -6.7218 O   0  0  0  0  0  0  0  0  0  0  0  0
    9.6869  118.1171   -4.2671 H   0  0  0  0  0  0  0  0  0  0  0  0
  1  2  1  0  0  0
  1  6  1  0  0  0
  2  3  1  0  0  0
  3  4  2  0  0  0
  3  7  1  0  0  0
  4  5  1  0  0  0
  4  9  1  0  0  0
  5  6  1  0  0  0
  7  8  1  0  0  0
  8  9  2  0  0  0
  8 15  1  0  0  0
  9 11  1  0  0  0
 11 12  1  0  0  0
 11 13  2  0  0  0
 15 16  1  0  0  0
 16 19  1  0  0  0
 16 17  2  0  0  0
 19 20  1  0  0  0
 19 21  2  0  0  0
  1 10  1  0  0  0
 12 14  1  0  0  0
 15 18  1  0  0  0
 20 22  1  0  0  0
M  END
> <minimizedAffinity>
-5.30196

$$$$
5KA1_OTA_A_301


 22 23  0  0  0  0  0  0  0  0999 V2000
    3.3750  120.8746   -1.1739 N   0  0  0  0  0  0  0  0  0  0  0  0
    4.5262  120.8269   -2.0481 C   0  0  0  0  0  0  0  0  0  0  0  0
    4.3933  120.0070   -3.3244 C   0  0  0  0  0  0  0  0  0  0  0  0
    3.0548  119.6451   -3.6786 C   0  0  0  0  0  0  0  0  0  0  0  0
    1.8729  120.0347   -2.8742 C   0  0  0  0  0  0  0  0  0  0  0  0
    2.1020  121.0851   -1.8589 C   0  0  0  0  0  0  0  0  0  0  0  0
    5.4278  119.4358   -4.3685 S   0  0  0  0  0  0  0  0  0  0  0  0
    4.4715  118.7149   -5.3851 C   0  0  0  0  0  0  0  0  0  0  0  0
    3.1260  118.8271   -5.0012 C   0  0  0  0  0  0  0  0  0  0  0  0
    3.5099  121.6378   -0.5108 H   0  0  0  0  0  0  0  0  0  0  0  0
    1.9175  118.1961   -5.7540 C   0  0  0  0  0  0  0  0  0  0  0  0
    0.7802  118.1857   -5.2121 O   0  0  0  0  0  0  0  0  0  0  0  0
    2.1068  117.7359   -6.9527 O   0  0  0  0  0  0  0  0  0  0  0  0
    0.6712  118.5243   -4.3452 H   0  0  0  0  0  0  0  0  0  0  0  0
    4.7310  118.0097   -6.5698 N   0  0  0  0  0  0  0  0  0  0  0  0
    5.5009  116.8608   -6.6108 C   0  0  0  0  0  0  0  0  0  0  0  0
    6.0256  116.3620   -5.5877 O   0  0  0  0  0  0  0  0  0  0  0  0
    4.3474  118.3480   -7.4110 H   0  0  0  0  0  0  0  0  0  0  0  0
    5.6281  116.2930   -8.0028 C   0  0  0  0  0  0  0  0  0  0  0  0
    6.7705  116.2547   -8.5849 O   0  0  0  0  0  0  0  0  0  0  0  0
    4.5765  115.8451   -8.5310 O   0  0  0  0  0  0  0  0  0  0  0  0
    7.5276  116.6001   -8.1542 H   0  0  0  0  0  0  0  0  0  0  0  0
  1  2  1  0  0  0
  1  6  1  0  0  0
  2  3  1  0  0  0
  3  4  2  0  0  0
  3  7  1  0  0  0
  4  5  1  0  0  0
  4  9  1  0  0  0
  5  6  1  0  0  0
  7  8  1  0  0  0
  8  9  2  0  0  0
  8 15  1  0  0  0
  9 11  1  0  0  0
 11 12  1  0  0  0
 11 13  2  0  0  0
 15 16  1  0  0  0
 16 19  1  0  0  0
 16 17  2  0  0  0
 19 20  1  0  0  0
 19 21  2  0  0  0
  1 10  1  0  0  0
 12 14  1  0  0  0
 15 18  1  0  0  0
 20 22  1  0  0  0
M  END
> <minimizedAffinity>
-5.29484

$$$$
5KA1_OTA_A_301


 22 23  0  0  0  0  0  0  0  0999 V2000
    6.7323  114.8997  -10.3830 N   0  0  0  0  0  0  0  0  0  0  0  0
    6.8347  115.4451   -9.0473 C   0  0  0  0  0  0  0  0  0  0  0  0
    5.5752  116.0598   -8.4516 C   0  0  0  0  0  0  0  0  0  0  0  0
    4.3601  115.7427   -9.1380 C   0  0  0  0  0  0  0  0  0  0  0  0
    4.3135  114.8780  -10.3404 C   0  0  0  0  0  0  0  0  0  0  0  0
    5.5364  114.0947  -10.6188 C   0  0  0  0  0  0  0  0  0  0  0  0
    5.2985  117.0072   -7.2219 S   0  0  0  0  0  0  0  0  0  0  0  0
    3.7369  117.1605   -7.2978 C   0  0  0  0  0  0  0  0  0  0  0  0
    3.1975  116.4489   -8.3809 C   0  0  0  0  0  0  0  0  0  0  0  0
    7.5495  114.3129  -10.5509 H   0  0  0  0  0  0  0  0  0  0  0  0
    1.6920  116.4152   -8.7781 C   0  0  0  0  0  0  0  0  0  0  0  0
    1.0843  115.3129   -8.8306 O   0  0  0  0  0  0  0  0  0  0  0  0
    1.0851  117.5407   -9.0001 O   0  0  0  0  0  0  0  0  0  0  0  0
    1.5466  114.5147   -8.6659 H   0  0  0  0  0  0  0  0  0  0  0  0
    2.8283  117.8600   -6.4895 N   0  0  0  0  0  0  0  0  0  0  0  0
    3.0902  118.1908   -5.1718 C   0  0  0  0  0  0  0  0  0  0  0  0
    4.1639  117.8894   -4.5999 O   0  0  0  0  0  0  0  0  0  0  0  0
    1.9643  118.1279   -6.8780 H   0  0  0  0  0  0  0  0  0  0  0  0
    1.9547  118.9424   -4.5222 C   0  0  0  0  0  0  0  0  0  0  0  0
    0.7484  118.5223   -4.6402 O   0  0  0  0  0  0  0  0  0  0  0  0
    2.2604  119.9632   -3.8515 O   0  0  0  0  0  0  0  0  0  0  0  0
    0.5665  117.7572   -5.1496 H   0  0  0  0  0  0  0  0  0  0  0  0
  1  2  1  0  0  0
  1  6  1  0  0  0
  2  3  1  0  0  0
  3  4  2  0  0  0
  3  7  1  0  0  0
  4  5  1  0  0  0
  4  9  1  0  0  0
  5  6  1  0  0  0
  7  8  1  0  0  0
  8  9  2  0  0  0
  8 15  1  0  0  0
  9 11  1  0  0  0
 11 12  1  0  0  0
 11 13  2  0  0  0
 15 16  1  0  0  0
 16 19  1  0  0  0
 16 17  2  0  0  0
 19 20  1  0  0  0
 19 21  2  0  0  0
  1 10  1  0  0  0
 12 14  1  0  0  0
 15 18  1  0  0  0
 20 22  1  0  0  0
M  END
> <minimizedAffinity>
-5.27136

$$$$
