5MZ8_SIN_A_501


 10  9  0  0  0  0  0  0  0  0999 V2000
   48.1621  -68.1623   39.7761 C   0  0  0  0  0  0  0  0  0  0  0  0
   47.7992  -67.4576   38.4795 C   0  0  0  0  0  0  0  0  0  0  0  0
   47.0362  -66.4581   38.5255 O   0  0  0  0  0  0  0  0  0  0  0  0
   48.2645  -67.8214   37.3648 O   0  0  0  0  0  0  0  0  0  0  0  0
   48.8340  -68.5637   37.3146 H   0  0  0  0  0  0  0  0  0  0  0  0
   47.7096  -67.4406   41.0386 C   0  0  0  0  0  0  0  0  0  0  0  0
   48.8700  -66.9352   41.8911 C   0  0  0  0  0  0  0  0  0  0  0  0
   49.9329  -67.6154   41.9772 O   0  0  0  0  0  0  0  0  0  0  0  0
   48.7865  -65.8584   42.5439 O   0  0  0  0  0  0  0  0  0  0  0  0
   48.0079  -65.3395   42.4941 H   0  0  0  0  0  0  0  0  0  0  0  0
  2  3  2  0  0  0
  2  4  1  0  0  0
  2  1  1  0  0  0
  1  6  1  0  0  0
  6  7  1  0  0  0
  7  8  2  0  0  0
  7  9  1  0  0  0
  4  5  1  0  0  0
  9 10  1  0  0  0
M  END
> <minimizedAffinity>
-6.25845

$$$$
5MZ8_SIN_A_501


 10  9  0  0  0  0  0  0  0  0999 V2000
   47.7019  -67.3723   41.0269 C   0  0  0  0  0  0  0  0  0  0  0  0
   48.8833  -66.9381   41.8785 C   0  0  0  0  0  0  0  0  0  0  0  0
   48.7996  -65.8644   42.5294 O   0  0  0  0  0  0  0  0  0  0  0  0
   49.9298  -67.6352   41.9801 O   0  0  0  0  0  0  0  0  0  0  0  0
   50.0067  -68.4371   41.5016 H   0  0  0  0  0  0  0  0  0  0  0  0
   48.0738  -68.1799   39.7905 C   0  0  0  0  0  0  0  0  0  0  0  0
   47.7933  -67.4429   38.4840 C   0  0  0  0  0  0  0  0  0  0  0  0
   47.0528  -66.4175   38.4844 O   0  0  0  0  0  0  0  0  0  0  0  0
   48.2620  -67.8501   37.3853 O   0  0  0  0  0  0  0  0  0  0  0  0
   48.8127  -68.6078   37.3629 H   0  0  0  0  0  0  0  0  0  0  0  0
  2  3  2  0  0  0
  2  4  1  0  0  0
  2  1  1  0  0  0
  1  6  1  0  0  0
  6  7  1  0  0  0
  7  8  2  0  0  0
  7  9  1  0  0  0
  4  5  1  0  0  0
  9 10  1  0  0  0
M  END
> <minimizedAffinity>
-6.25298

$$$$
5MZ8_SIN_A_501


 10  9  0  0  0  0  0  0  0  0999 V2000
   48.1214  -68.1588   39.7732 C   0  0  0  0  0  0  0  0  0  0  0  0
   47.7999  -67.4125   38.4890 C   0  0  0  0  0  0  0  0  0  0  0  0
   47.0004  -66.4419   38.5356 O   0  0  0  0  0  0  0  0  0  0  0  0
   48.3337  -67.7130   37.3863 O   0  0  0  0  0  0  0  0  0  0  0  0
   48.9311  -68.4331   37.3358 H   0  0  0  0  0  0  0  0  0  0  0  0
   47.6966  -67.4410   41.0475 C   0  0  0  0  0  0  0  0  0  0  0  0
   48.8758  -66.9717   41.8949 C   0  0  0  0  0  0  0  0  0  0  0  0
   48.8042  -65.8771   42.5246 O   0  0  0  0  0  0  0  0  0  0  0  0
   49.9444  -67.6396   41.9624 O   0  0  0  0  0  0  0  0  0  0  0  0
   50.0182  -68.4532   41.5035 H   0  0  0  0  0  0  0  0  0  0  0  0
  2  3  2  0  0  0
  2  4  1  0  0  0
  2  1  1  0  0  0
  1  6  1  0  0  0
  6  7  1  0  0  0
  7  8  2  0  0  0
  7  9  1  0  0  0
  4  5  1  0  0  0
  9 10  1  0  0  0
M  END
> <minimizedAffinity>
-6.25194

$$$$
5MZ8_SIN_A_501


 10  9  0  0  0  0  0  0  0  0999 V2000
   48.1692  -68.1709   39.7690 C   0  0  0  0  0  0  0  0  0  0  0  0
   47.7969  -67.4193   38.5017 C   0  0  0  0  0  0  0  0  0  0  0  0
   48.2515  -67.8247   37.4006 O   0  0  0  0  0  0  0  0  0  0  0  0
   47.0213  -66.4246   38.5145 O   0  0  0  0  0  0  0  0  0  0  0  0
   46.6747  -66.1112   39.3267 H   0  0  0  0  0  0  0  0  0  0  0  0
   47.7268  -67.4955   41.0603 C   0  0  0  0  0  0  0  0  0  0  0  0
   48.8921  -66.9710   41.8944 C   0  0  0  0  0  0  0  0  0  0  0  0
   49.9581  -67.6459   41.9841 O   0  0  0  0  0  0  0  0  0  0  0  0
   48.8099  -65.8830   42.5286 O   0  0  0  0  0  0  0  0  0  0  0  0
   48.0291  -65.3678   42.4758 H   0  0  0  0  0  0  0  0  0  0  0  0
  2  3  2  0  0  0
  2  4  1  0  0  0
  2  1  1  0  0  0
  1  6  1  0  0  0
  6  7  1  0  0  0
  7  8  2  0  0  0
  7  9  1  0  0  0
  4  5  1  0  0  0
  9 10  1  0  0  0
M  END
> <minimizedAffinity>
-6.23687

$$$$
5MZ8_SIN_A_501


 10  9  0  0  0  0  0  0  0  0999 V2000
   48.3472  -68.1911   39.5527 C   0  0  0  0  0  0  0  0  0  0  0  0
   47.9561  -66.7618   39.2156 C   0  0  0  0  0  0  0  0  0  0  0  0
   46.9613  -66.5650   38.4706 O   0  0  0  0  0  0  0  0  0  0  0  0
   48.5751  -65.7680   39.6850 O   0  0  0  0  0  0  0  0  0  0  0  0
   49.3178  -65.8986   40.2412 H   0  0  0  0  0  0  0  0  0  0  0  0
   48.1148  -68.5867   41.0050 C   0  0  0  0  0  0  0  0  0  0  0  0
   49.3333  -68.3545   41.8939 C   0  0  0  0  0  0  0  0  0  0  0  0
   49.7481  -69.2795   42.6502 O   0  0  0  0  0  0  0  0  0  0  0  0
   49.9282  -67.2417   41.9170 O   0  0  0  0  0  0  0  0  0  0  0  0
   49.6369  -66.5432   41.3647 H   0  0  0  0  0  0  0  0  0  0  0  0
  2  3  2  0  0  0
  2  4  1  0  0  0
  2  1  1  0  0  0
  1  6  1  0  0  0
  6  7  1  0  0  0
  7  8  2  0  0  0
  7  9  1  0  0  0
  4  5  1  0  0  0
  9 10  1  0  0  0
M  END
> <minimizedAffinity>
-5.40745

$$$$
5MZ8_SIN_A_501


 10  9  0  0  0  0  0  0  0  0999 V2000
   47.0011  -69.6185   38.1402 C   0  0  0  0  0  0  0  0  0  0  0  0
   45.8173  -70.5071   38.4846 C   0  0  0  0  0  0  0  0  0  0  0  0
   45.9850  -71.4522   39.2983 O   0  0  0  0  0  0  0  0  0  0  0  0
   44.6667  -70.3072   38.0078 O   0  0  0  0  0  0  0  0  0  0  0  0
   44.5263  -69.6073   37.4008 H   0  0  0  0  0  0  0  0  0  0  0  0
   47.4671  -68.7148   39.2741 C   0  0  0  0  0  0  0  0  0  0  0  0
   47.9936  -67.3665   38.7908 C   0  0  0  0  0  0  0  0  0  0  0  0
   48.3782  -67.2317   37.5934 O   0  0  0  0  0  0  0  0  0  0  0  0
   48.0842  -66.3780   39.5701 O   0  0  0  0  0  0  0  0  0  0  0  0
   47.8048  -66.4566   40.4610 H   0  0  0  0  0  0  0  0  0  0  0  0
  2  3  2  0  0  0
  2  4  1  0  0  0
  2  1  1  0  0  0
  1  6  1  0  0  0
  6  7  1  0  0  0
  7  8  2  0  0  0
  7  9  1  0  0  0
  4  5  1  0  0  0
  9 10  1  0  0  0
M  END
> <minimizedAffinity>
-4.34171

$$$$
5MZ8_SIN_A_501


 10  9  0  0  0  0  0  0  0  0999 V2000
   49.0353  -67.8822   40.7673 C   0  0  0  0  0  0  0  0  0  0  0  0
   48.2961  -66.8527   41.6060 C   0  0  0  0  0  0  0  0  0  0  0  0
   48.9594  -66.0996   42.3650 O   0  0  0  0  0  0  0  0  0  0  0  0
   47.0448  -66.7068   41.5404 O   0  0  0  0  0  0  0  0  0  0  0  0
   46.5374  -67.2600   40.9796 H   0  0  0  0  0  0  0  0  0  0  0  0
   48.4624  -68.0934   39.3721 C   0  0  0  0  0  0  0  0  0  0  0  0
   47.3014  -69.0833   39.3422 C   0  0  0  0  0  0  0  0  0  0  0  0
   46.6945  -69.3116   38.2563 O   0  0  0  0  0  0  0  0  0  0  0  0
   46.9065  -69.6658   40.3898 O   0  0  0  0  0  0  0  0  0  0  0  0
   47.3422  -69.5107   41.2047 H   0  0  0  0  0  0  0  0  0  0  0  0
  2  3  2  0  0  0
  2  4  1  0  0  0
  2  1  1  0  0  0
  1  6  1  0  0  0
  6  7  1  0  0  0
  7  8  2  0  0  0
  7  9  1  0  0  0
  4  5  1  0  0  0
  9 10  1  0  0  0
M  END
> <minimizedAffinity>
-4.26532

$$$$
5MZ8_SIN_A_501


 10  9  0  0  0  0  0  0  0  0999 V2000
   48.2333  -68.2040   40.7551 C   0  0  0  0  0  0  0  0  0  0  0  0
   47.9885  -66.8703   41.4412 C   0  0  0  0  0  0  0  0  0  0  0  0
   48.9754  -66.1405   41.7179 O   0  0  0  0  0  0  0  0  0  0  0  0
   46.8274  -66.4573   41.7110 O   0  0  0  0  0  0  0  0  0  0  0  0
   46.0826  -66.9895   41.5108 H   0  0  0  0  0  0  0  0  0  0  0  0
   49.6691  -68.7052   40.8364 C   0  0  0  0  0  0  0  0  0  0  0  0
   50.1403  -68.9505   42.2670 C   0  0  0  0  0  0  0  0  0  0  0  0
   51.2708  -68.5239   42.6410 O   0  0  0  0  0  0  0  0  0  0  0  0
   49.4369  -69.6004   43.0889 O   0  0  0  0  0  0  0  0  0  0  0  0
   48.5964  -69.9252   42.8321 H   0  0  0  0  0  0  0  0  0  0  0  0
  2  3  2  0  0  0
  2  4  1  0  0  0
  2  1  1  0  0  0
  1  6  1  0  0  0
  6  7  1  0  0  0
  7  8  2  0  0  0
  7  9  1  0  0  0
  4  5  1  0  0  0
  9 10  1  0  0  0
M  END
> <minimizedAffinity>
-3.90738

$$$$
