2WYJ_898_A_1244
  RCSB PDB12061707213D
Coordinates from PDB:2WYJ:A:1244 Model:1 without hydrogens
 30 32  0  0  0  0            999 V2000
   13.8460    7.2030   26.2060  Cl 0  0  0  0  0  0  0  0  0  0  0  0
   12.1140    7.3220   26.3700   C 0  0  0  0  0  0  0  0  0  0  0  0
   11.3460    6.8890   27.4040   C 0  0  0  0  0  0  0  0  0  0  0  0
    9.9570    7.1490   27.1930   C 0  0  0  0  0  0  0  0  0  0  0  0
   11.2210    8.0530   25.1210   S 0  0  0  0  0  0  0  0  0  0  0  0
    9.7400    7.8050   25.9360   C 0  0  0  0  0  0  0  0  0  0  0  0
    8.4480    8.2260   25.4220   C 0  0  0  0  0  0  0  0  0  0  0  0
    8.1810    8.6580   24.1800   C 0  0  0  0  0  0  0  0  0  0  0  0
    6.5550    9.1380   23.8130   S 0  0  0  0  0  0  0  0  0  0  0  0
    6.6210   10.3440   23.0560   O 0  0  0  0  0  0  0  0  0  0  0  0
    5.8500    9.1080   25.0740   O 0  0  0  0  0  0  0  0  0  0  0  0
    5.8390    8.1320   22.7580   N 0  0  0  0  0  0  0  0  0  0  0  0
    5.8520    6.6830   22.8500   C 0  0  0  0  0  0  0  0  0  0  0  0
    4.5020    6.0540   22.5210   C 0  0  0  0  0  0  0  0  0  0  0  0
    4.8590    4.7080   21.8690   C 0  0  0  0  0  0  0  0  0  0  0  0
    6.7830    6.0510   21.8280   C 0  0  0  0  0  0  0  0  0  0  0  0
    7.8600    6.4720   21.4430   O 0  0  0  0  0  0  0  0  0  0  0  0
    6.2280    4.9070   21.3940   N 0  0  0  0  0  0  0  0  0  0  0  0
    6.9130    3.9680   20.5730   C 0  0  0  0  0  0  0  0  0  0  0  0
    7.6000    4.3670   19.4180   C 0  0  0  0  0  0  0  0  0  0  0  0
    7.6320    5.6500   19.0660   F 0  0  0  0  0  0  0  0  0  0  0  0
    6.8770    2.6120   20.9520   C 0  0  0  0  0  0  0  0  0  0  0  0
    7.5520    1.6880   20.1400   C 0  0  0  0  0  0  0  0  0  0  0  0
    8.2310    2.1090   18.9730   C 0  0  0  0  0  0  0  0  0  0  0  0
    8.2590    3.4630   18.6070   C 0  0  0  0  0  0  0  0  0  0  0  0
    8.9350    1.1180   18.1000   C 0  0  0  0  0  0  0  0  0  0  0  0
   10.3900    1.5450   17.8440   C 0  0  0  0  0  0  0  0  0  0  0  0
    8.1890    0.8820   16.8140   N 0  0  0  0  0  0  0  0  0  0  0  0
    6.8160    0.3800   17.0150   C 0  0  0  0  0  0  0  0  0  0  0  0
    8.1850    1.9860   15.8160   C 0  0  0  0  0  0  0  0  0  0  0  0
  1  2  1  0  0  0  0
  2  3  2  0  0  0  0
  2  5  1  0  0  0  0
  3  4  1  0  0  0  0
  4  6  2  0  0  0  0
  5  6  1  0  0  0  0
  6  7  1  0  0  0  0
  7  8  2  0  0  0  0
  8  9  1  0  0  0  0
  9 10  2  0  0  0  0
  9 11  2  0  0  0  0
  9 12  1  0  0  0  0
 12 13  1  0  0  0  0
 13 14  1  0  0  0  0
 13 16  1  0  0  0  0
 14 15  1  0  0  0  0
 15 18  1  0  0  0  0
 16 17  2  0  0  0  0
 16 18  1  0  0  0  0
 18 19  1  0  0  0  0
 19 20  1  0  0  0  0
 19 22  2  0  0  0  0
 20 21  1  0  0  0  0
 20 25  2  0  0  0  0
 22 23  1  0  0  0  0
 23 24  2  0  0  0  0
 24 25  1  0  0  0  0
 24 26  1  0  0  0  0
 26 27  1  0  0  0  0
 26 28  1  0  0  0  0
 28 29  1  0  0  0  0
 28 30  1  0  0  0  0
A    1
CL1
A    2
C1
A    3
C2
A    4
C3
A    5
S2
A    6
C4
A    7
C5
A    8
C6
A    9
S1
A   10
O2
A   11
O1
A   12
N1
A   13
C12
A   14
C13
A   15
C14
A   16
C50
A   17
O3
A   18
N2
A   19
C15
A   20
C21
A   21
F1
A   22
C22
A   23
C26
A   24
C27
A   25
C24
A   26
C28
A   27
C8
A   28
N3
A   29
C9
A   30
C7
M  END
>  <InstanceId>
2WYJ_898_A_1244

>  <ChemCompId>
898

>  <PdbId>
2WYJ

>  <ChainId>
A

>  <ResidueNumber>
1244

>  <InsertionCode>


>  <Model>
1

>  <AltIds>


>  <MissingHeavyAtoms>
0

>  <ObservedFormula>
C20 N3 O3 S2 F Cl

>  <Name>
(E)-2-(5-CHLOROTHIOPHEN-2-YL)-N-[(3S)-1-{4-[(1S)-1-(DIMETHYLAMINO)ETHYL]-2-FLUOROPHENYL}-2-OXOPYRROLIDIN-3-YL]ETHENESULFONAMIDE

>  <SystematicName>
(E)-2-(5-chlorothiophen-2-yl)-N-[(3S)-1-[4-[(1S)-1-dimethylaminoethyl]-2-fluoro-phenyl]-2-oxo-pyrrolidin-3-yl]ethenesulfonamide

>  <Synonyms>


>  <Type>
non-polymer

>  <Formula>
C20 H23 Cl F N3 O3 S2

>  <MolecularWeight>
471.996

>  <ModifiedDate>
2011-06-04

>  <Parent>


>  <OneLetterCode>


>  <SubcomponentList>


>  <AmbiguousFlag>
N

>  <InChI>
InChI=1S/C20H23ClFN3O3S2/c1-13(24(2)3)14-4-6-18(16(22)12-14)25-10-8-17(20(25)26)23-30(27,28)11-9-15-5-7-19(21)29-15/h4-7,9,11-13,17,23H,8,10H2,1-3H3/b11-9+/t13-,17-/m0/s1

>  <InChIKey>
AFDHTIFDRFSZDA-WZMLOTFKSA-N

>  <SMILES>
C[C@@H](c1ccc(c(c1)F)N2CC[C@@H](C2=O)NS(=O)(=O)\C=C\c3ccc(s3)Cl)N(C)C

$$$$
