3ZPS_EQM_B_1202


 53 54  0  0  0  0  0  0  0  0999 V2000
   11.4427   23.2613    6.2767 C   0  0  0  0  0  0  0  0  0  0  0  0
   10.3444   24.3326    6.3898 C   0  0  0  0  0  0  0  0  0  0  0  0
    9.2537   23.7931    7.1500 O   0  0  0  0  0  0  0  0  0  0  0  0
    8.8728   23.0368    6.6769 H   0  0  0  0  0  0  0  0  0  0  0  0
    8.4672   24.7832    4.9399 N   0  0  0  0  0  0  0  0  0  0  0  0
    9.8552   24.7362    5.1317 C   0  0  0  0  0  0  0  0  0  0  0  0
   10.5925   25.2098    4.2631 O   0  0  0  0  0  0  0  0  0  0  0  0
    7.8887   24.3013    5.5742 H   0  0  0  0  0  0  0  0  0  0  0  0
    7.8298   25.5269    3.8234 C   0  0  0  0  0  0  0  0  0  0  0  0
    7.1845   24.5574    2.8186 C   0  0  0  0  0  0  0  0  0  0  0  0
    5.7718   24.1817    3.2741 C   0  0  0  0  0  0  0  0  0  0  0  0
    7.1005   25.2470    1.4570 C   0  0  0  0  0  0  0  0  0  0  0  0
    8.0312   23.2902    2.6934 C   0  0  0  0  0  0  0  0  0  0  0  0
    6.3530   26.3032    5.5903 N   0  0  0  0  0  0  0  0  0  0  0  0
    6.4390   27.3730    3.6134 O   0  0  0  0  0  0  0  0  0  0  0  0
    6.8771   26.4487    4.3036 C   0  0  0  0  0  0  0  0  0  0  0  0
    6.6805   25.5865    6.1806 H   0  0  0  0  0  0  0  0  0  0  0  0
    5.2995   27.2359    6.0615 C   0  0  0  0  0  0  0  0  0  0  0  0
    3.5063   27.0190    7.6755 C   0  0  0  0  0  0  0  0  0  0  0  0
    4.8404   26.8492    7.3191 C   0  0  0  0  0  0  0  0  0  0  0  0
   10.9382   25.5321    7.1538 C   0  0  0  0  0  0  0  0  0  0  0  0
   10.0068   26.0928    8.0235 C   0  0  0  0  0  0  0  0  0  0  0  0
    9.9043   25.6296    9.3302 C   0  0  0  0  0  0  0  0  0  0  0  0
    8.9676   26.1892   10.1935 C   0  0  0  0  0  0  0  0  0  0  0  0
    8.1452   27.2209    9.7538 C   0  0  0  0  0  0  0  0  0  0  0  0
    8.2663   27.6985    8.4535 C   0  0  0  0  0  0  0  0  0  0  0  0
    9.2320   27.1687    7.6060 C   0  0  0  0  0  0  0  0  0  0  0  0
   12.8200   23.8065    6.6762 C   0  0  0  0  0  0  0  0  0  0  0  0
   13.8980   23.2884    5.7078 C   0  0  0  0  0  0  0  0  0  0  0  0
   14.6382   22.1271    6.2356 N   0  0  0  0  0  0  0  0  0  0  0  0
   15.2476   21.5730    5.3094 N   0  0  0  0  0  0  0  0  0  0  0  0
   13.8040   19.8081    5.2990 O   0  0  0  0  0  0  0  0  0  0  0  0
   14.8099   20.3751    4.8634 C   0  0  0  0  0  0  0  0  0  0  0  0
   16.0378   21.9989    4.9052 H   0  0  0  0  0  0  0  0  0  0  0  0
   15.8531   19.6104    4.0286 C   0  0  0  0  0  0  0  0  0  0  0  0
   16.5441   18.6101    4.8536 N   0  0  0  0  0  0  0  0  0  0  0  0
   18.3074   19.9434    5.1786 O   0  0  0  0  0  0  0  0  0  0  0  0
   17.7064   18.8986    5.4670 C   0  0  0  0  0  0  0  0  0  0  0  0
   16.1503   17.7141    4.9593 H   0  0  0  0  0  0  0  0  0  0  0  0
   18.3507   17.9137    6.1645 O   0  0  0  0  0  0  0  0  0  0  0  0
   19.0465   17.0445    5.2651 C   0  0  0  0  0  0  0  0  0  0  0  0
   15.2689   18.9458    2.7798 C   0  0  0  0  0  0  0  0  0  0  0  0
   14.3654   19.9536    2.0663 C   0  0  0  0  0  0  0  0  0  0  0  0
   16.3928   18.5246    1.8278 C   0  0  0  0  0  0  0  0  0  0  0  0
   14.4485   17.7161    3.1717 C   0  0  0  0  0  0  0  0  0  0  0  0
   15.6158   22.6123    7.2316 C   0  0  0  0  0  0  0  0  0  0  0  0
   17.4289   18.0395   10.8240 Br  0  0  0  0  0  0  0  0  0  0  0  0
   16.0208   21.6107    8.1181 C   0  0  0  0  0  0  0  0  0  0  0  0
   17.3743   21.3585    8.3052 C   0  0  0  0  0  0  0  0  0  0  0  0
   17.7820   20.3394    9.1599 C   0  0  0  0  0  0  0  0  0  0  0  0
   16.8445   19.5000    9.7495 C   0  0  0  0  0  0  0  0  0  0  0  0
   15.4932   19.6816    9.4756 C   0  0  0  0  0  0  0  0  0  0  0  0
   15.0823   20.7419    8.6674 C   0  0  0  0  0  0  0  0  0  0  0  0
 47 51  1  0  0  0
  2  3  1  0  0  0
  2  6  1  0  0  0
  2  1  1  0  0  0
  2 21  1  0  0  0
  5  6  1  0  0  0
  5  9  1  0  0  0
  6  7  2  0  0  0
 30 31  1  0  0  0
 30 29  1  0  0  0
 30 46  1  0  0  0
  9 10  1  0  0  0
  9 16  1  0  0  0
 31 33  1  0  0  0
 32 33  2  0  0  0
 10 11  1  0  0  0
 10 12  1  0  0  0
 10 13  1  0  0  0
 36 35  1  0  0  0
 36 38  1  0  0  0
 37 38  2  0  0  0
 14 16  1  0  0  0
 14 18  1  0  0  0
 40 38  1  0  0  0
 40 41  1  0  0  0
 15 16  2  0  0  0
  1 28  1  0  0  0
 28 29  1  0  0  0
 46 48  1  0  0  0
 48 49  2  0  0  0
 48 53  1  0  0  0
 33 35  1  0  0  0
 35 42  1  0  0  0
 42 43  1  0  0  0
 42 44  1  0  0  0
 42 45  1  0  0  0
 49 50  1  0  0  0
 50 51  2  0  0  0
 51 52  1  0  0  0
 52 53  2  0  0  0
 21 22  1  0  0  0
 22 23  2  0  0  0
 22 27  1  0  0  0
 23 24  1  0  0  0
 24 25  2  0  0  0
 25 26  1  0  0  0
 26 27  2  0  0  0
 19 20  2  0  0  0
 20 18  1  0  0  0
  5  8  1  0  0  0
  3  4  1  0  0  0
 31 34  1  0  0  0
 36 39  1  0  0  0
 14 17  1  0  0  0
M  END
> <minimizedAffinity>
-9.85938

$$$$
3ZPS_EQM_B_1202


 53 54  0  0  0  0  0  0  0  0999 V2000
   12.6192   23.2033    6.0770 C   0  0  0  0  0  0  0  0  0  0  0  0
   11.9015   24.5409    5.8270 C   0  0  0  0  0  0  0  0  0  0  0  0
   12.6316   25.5839    6.4885 O   0  0  0  0  0  0  0  0  0  0  0  0
   12.6251   25.4263    7.4456 H   0  0  0  0  0  0  0  0  0  0  0  0
    9.8908   25.7614    6.3715 N   0  0  0  0  0  0  0  0  0  0  0  0
   10.5801   24.5418    6.3157 C   0  0  0  0  0  0  0  0  0  0  0  0
    9.9593   23.4970    6.5281 O   0  0  0  0  0  0  0  0  0  0  0  0
   10.4091   26.5968    6.3196 H   0  0  0  0  0  0  0  0  0  0  0  0
    8.4143   25.8504    6.5053 C   0  0  0  0  0  0  0  0  0  0  0  0
    8.0246   26.4894    7.8491 C   0  0  0  0  0  0  0  0  0  0  0  0
    6.5741   26.9778    7.8051 C   0  0  0  0  0  0  0  0  0  0  0  0
    8.1613   25.4376    8.9499 C   0  0  0  0  0  0  0  0  0  0  0  0
    8.9481   27.6686    8.1576 C   0  0  0  0  0  0  0  0  0  0  0  0
    6.7792   26.0253    4.7162 N   0  0  0  0  0  0  0  0  0  0  0  0
    8.2869   27.6596    5.0572 O   0  0  0  0  0  0  0  0  0  0  0  0
    7.8479   26.5692    5.4327 C   0  0  0  0  0  0  0  0  0  0  0  0
    6.3894   25.1626    4.9864 H   0  0  0  0  0  0  0  0  0  0  0  0
    6.2354   26.7565    3.5451 C   0  0  0  0  0  0  0  0  0  0  0  0
    7.6400   26.9175    1.5782 C   0  0  0  0  0  0  0  0  0  0  0  0
    6.7332   26.2121    2.3629 C   0  0  0  0  0  0  0  0  0  0  0  0
   11.9211   24.8055    4.3090 C   0  0  0  0  0  0  0  0  0  0  0  0
   11.1479   23.8748    3.6204 C   0  0  0  0  0  0  0  0  0  0  0  0
    9.9102   24.2406    3.1037 C   0  0  0  0  0  0  0  0  0  0  0  0
    9.1387   23.3049    2.4218 C   0  0  0  0  0  0  0  0  0  0  0  0
    9.6120   22.0093    2.2444 C   0  0  0  0  0  0  0  0  0  0  0  0
   10.8607   21.6527    2.7413 C   0  0  0  0  0  0  0  0  0  0  0  0
   11.6491   22.6000    3.3838 C   0  0  0  0  0  0  0  0  0  0  0  0
   13.6757   23.3165    7.1837 C   0  0  0  0  0  0  0  0  0  0  0  0
   15.0761   23.0313    6.6128 C   0  0  0  0  0  0  0  0  0  0  0  0
   15.5149   21.6398    6.8281 N   0  0  0  0  0  0  0  0  0  0  0  0
   15.9466   21.1758    5.7629 N   0  0  0  0  0  0  0  0  0  0  0  0
   14.1238   19.8297    5.5095 O   0  0  0  0  0  0  0  0  0  0  0  0
   15.2225   20.2342    5.1192 C   0  0  0  0  0  0  0  0  0  0  0  0
   16.8032   21.4885    5.3918 H   0  0  0  0  0  0  0  0  0  0  0  0
   16.0276   19.4520    4.0657 C   0  0  0  0  0  0  0  0  0  0  0  0
   16.6847   18.2879    4.6754 N   0  0  0  0  0  0  0  0  0  0  0  0
   18.6128   19.3849    4.9427 O   0  0  0  0  0  0  0  0  0  0  0  0
   17.9312   18.3761    5.1743 C   0  0  0  0  0  0  0  0  0  0  0  0
   16.2051   17.4293    4.7198 H   0  0  0  0  0  0  0  0  0  0  0  0
   18.5302   17.2486    5.6660 O   0  0  0  0  0  0  0  0  0  0  0  0
   18.3316   16.1513    4.7687 C   0  0  0  0  0  0  0  0  0  0  0  0
   15.1923   19.0105    2.8616 C   0  0  0  0  0  0  0  0  0  0  0  0
   14.3375   20.1922    2.3992 C   0  0  0  0  0  0  0  0  0  0  0  0
   16.1068   18.5780    1.7112 C   0  0  0  0  0  0  0  0  0  0  0  0
   14.2811   17.8456    3.2506 C   0  0  0  0  0  0  0  0  0  0  0  0
   16.6043   21.6450    7.8264 C   0  0  0  0  0  0  0  0  0  0  0  0
   16.5591   16.4377   10.9862 Br  0  0  0  0  0  0  0  0  0  0  0  0
   16.6143   20.4917    8.6156 C   0  0  0  0  0  0  0  0  0  0  0  0
   17.7105   19.6387    8.5798 C   0  0  0  0  0  0  0  0  0  0  0  0
   17.7108   18.4716    9.3369 C   0  0  0  0  0  0  0  0  0  0  0  0
   16.5784   18.0965   10.0498 C   0  0  0  0  0  0  0  0  0  0  0  0
   15.4402   18.8940    9.9980 C   0  0  0  0  0  0  0  0  0  0  0  0
   15.4623   20.0948    9.2883 C   0  0  0  0  0  0  0  0  0  0  0  0
 47 51  1  0  0  0
  2  3  1  0  0  0
  2  6  1  0  0  0
  2  1  1  0  0  0
  2 21  1  0  0  0
  5  6  1  0  0  0
  5  9  1  0  0  0
  6  7  2  0  0  0
 30 31  1  0  0  0
 30 29  1  0  0  0
 30 46  1  0  0  0
  9 10  1  0  0  0
  9 16  1  0  0  0
 31 33  1  0  0  0
 32 33  2  0  0  0
 10 11  1  0  0  0
 10 12  1  0  0  0
 10 13  1  0  0  0
 36 35  1  0  0  0
 36 38  1  0  0  0
 37 38  2  0  0  0
 14 16  1  0  0  0
 14 18  1  0  0  0
 40 38  1  0  0  0
 40 41  1  0  0  0
 15 16  2  0  0  0
  1 28  1  0  0  0
 28 29  1  0  0  0
 46 48  1  0  0  0
 48 49  2  0  0  0
 48 53  1  0  0  0
 33 35  1  0  0  0
 35 42  1  0  0  0
 42 43  1  0  0  0
 42 44  1  0  0  0
 42 45  1  0  0  0
 49 50  1  0  0  0
 50 51  2  0  0  0
 51 52  1  0  0  0
 52 53  2  0  0  0
 21 22  1  0  0  0
 22 23  2  0  0  0
 22 27  1  0  0  0
 23 24  1  0  0  0
 24 25  2  0  0  0
 25 26  1  0  0  0
 26 27  2  0  0  0
 19 20  2  0  0  0
 20 18  1  0  0  0
  5  8  1  0  0  0
  3  4  1  0  0  0
 31 34  1  0  0  0
 36 39  1  0  0  0
 14 17  1  0  0  0
M  END
> <minimizedAffinity>
-9.67999

$$$$
3ZPS_EQM_B_1202


 53 54  0  0  0  0  0  0  0  0999 V2000
   12.5457   24.4889    6.2786 C   0  0  0  0  0  0  0  0  0  0  0  0
   11.0727   24.5416    5.8380 C   0  0  0  0  0  0  0  0  0  0  0  0
   10.8892   25.6811    4.9857 O   0  0  0  0  0  0  0  0  0  0  0  0
   11.0709   26.4919    5.4862 H   0  0  0  0  0  0  0  0  0  0  0  0
    9.8275   25.9357    7.3661 N   0  0  0  0  0  0  0  0  0  0  0  0
   10.1886   24.6533    6.9293 C   0  0  0  0  0  0  0  0  0  0  0  0
    9.5943   23.6770    7.3938 O   0  0  0  0  0  0  0  0  0  0  0  0
   10.3799   26.7006    7.0851 H   0  0  0  0  0  0  0  0  0  0  0  0
    8.6495   26.1928    8.2333 C   0  0  0  0  0  0  0  0  0  0  0  0
    9.0904   26.5461    9.6639 C   0  0  0  0  0  0  0  0  0  0  0  0
    9.1736   25.2812   10.5226 C   0  0  0  0  0  0  0  0  0  0  0  0
   10.4718   27.1978    9.6042 C   0  0  0  0  0  0  0  0  0  0  0  0
    8.0963   27.5226   10.2939 C   0  0  0  0  0  0  0  0  0  0  0  0
    6.4753   26.9827    7.4889 N   0  0  0  0  0  0  0  0  0  0  0  0
    8.2857   28.3115    7.3587 O   0  0  0  0  0  0  0  0  0  0  0  0
    7.8368   27.2137    7.6994 C   0  0  0  0  0  0  0  0  0  0  0  0
    6.0713   26.1253    7.7552 H   0  0  0  0  0  0  0  0  0  0  0  0
    5.6421   28.0380    6.8614 C   0  0  0  0  0  0  0  0  0  0  0  0
    3.5814   26.9162    7.4638 C   0  0  0  0  0  0  0  0  0  0  0  0
    4.3948   27.5239    6.5125 C   0  0  0  0  0  0  0  0  0  0  0  0
   10.7807   23.2629    5.0290 C   0  0  0  0  0  0  0  0  0  0  0  0
   10.0185   23.5398    3.8974 C   0  0  0  0  0  0  0  0  0  0  0  0
   10.6412   23.7866    2.6792 C   0  0  0  0  0  0  0  0  0  0  0  0
    9.8750   24.0690    1.5527 C   0  0  0  0  0  0  0  0  0  0  0  0
    8.4873   24.0895    1.6422 C   0  0  0  0  0  0  0  0  0  0  0  0
    7.8664   23.8187    2.8565 C   0  0  0  0  0  0  0  0  0  0  0  0
    8.6312   23.4936    3.9706 C   0  0  0  0  0  0  0  0  0  0  0  0
   13.0894   23.0543    6.2946 C   0  0  0  0  0  0  0  0  0  0  0  0
   14.6205   23.0678    6.4481 C   0  0  0  0  0  0  0  0  0  0  0  0
   15.1859   21.7319    6.7145 N   0  0  0  0  0  0  0  0  0  0  0  0
   15.6755   21.2775    5.6704 N   0  0  0  0  0  0  0  0  0  0  0  0
   14.0420   19.6972    5.4889 O   0  0  0  0  0  0  0  0  0  0  0  0
   15.0800   20.2210    5.0751 C   0  0  0  0  0  0  0  0  0  0  0  0
   16.4853   21.6800    5.2812 H   0  0  0  0  0  0  0  0  0  0  0  0
   15.9810   19.5001    4.0560 C   0  0  0  0  0  0  0  0  0  0  0  0
   16.6932   18.3840    4.6930 N   0  0  0  0  0  0  0  0  0  0  0  0
   18.5384   19.6039    5.0076 O   0  0  0  0  0  0  0  0  0  0  0  0
   17.9164   18.5547    5.2269 C   0  0  0  0  0  0  0  0  0  0  0  0
   16.2684   17.4966    4.7298 H   0  0  0  0  0  0  0  0  0  0  0  0
   18.5717   17.4707    5.7439 O   0  0  0  0  0  0  0  0  0  0  0  0
   18.0867   16.2659    5.1421 C   0  0  0  0  0  0  0  0  0  0  0  0
   15.2292   19.0034    2.8189 C   0  0  0  0  0  0  0  0  0  0  0  0
   14.3720   17.8003    3.2174 C   0  0  0  0  0  0  0  0  0  0  0  0
   14.3157   20.1063    2.2747 C   0  0  0  0  0  0  0  0  0  0  0  0
   16.2203   18.5837    1.7326 C   0  0  0  0  0  0  0  0  0  0  0  0
   16.2546   21.8723    7.7250 C   0  0  0  0  0  0  0  0  0  0  0  0
   16.7781   16.7170   10.9267 Br  0  0  0  0  0  0  0  0  0  0  0  0
   16.3913   20.7334    8.5233 C   0  0  0  0  0  0  0  0  0  0  0  0
   17.5697   19.9982    8.4835 C   0  0  0  0  0  0  0  0  0  0  0  0
   17.6978   18.8443    9.2498 C   0  0  0  0  0  0  0  0  0  0  0  0
   16.6168   18.3604    9.9769 C   0  0  0  0  0  0  0  0  0  0  0  0
   15.4017   19.0351    9.9300 C   0  0  0  0  0  0  0  0  0  0  0  0
   15.2927   20.2253    9.2105 C   0  0  0  0  0  0  0  0  0  0  0  0
 47 51  1  0  0  0
  2  3  1  0  0  0
  2  6  1  0  0  0
  2  1  1  0  0  0
  2 21  1  0  0  0
  5  6  1  0  0  0
  5  9  1  0  0  0
  6  7  2  0  0  0
 30 31  1  0  0  0
 30 29  1  0  0  0
 30 46  1  0  0  0
  9 10  1  0  0  0
  9 16  1  0  0  0
 31 33  1  0  0  0
 32 33  2  0  0  0
 10 11  1  0  0  0
 10 12  1  0  0  0
 10 13  1  0  0  0
 36 35  1  0  0  0
 36 38  1  0  0  0
 37 38  2  0  0  0
 14 16  1  0  0  0
 14 18  1  0  0  0
 40 38  1  0  0  0
 40 41  1  0  0  0
 15 16  2  0  0  0
  1 28  1  0  0  0
 28 29  1  0  0  0
 46 48  1  0  0  0
 48 49  2  0  0  0
 48 53  1  0  0  0
 33 35  1  0  0  0
 35 42  1  0  0  0
 42 43  1  0  0  0
 42 44  1  0  0  0
 42 45  1  0  0  0
 49 50  1  0  0  0
 50 51  2  0  0  0
 51 52  1  0  0  0
 52 53  2  0  0  0
 21 22  1  0  0  0
 22 23  2  0  0  0
 22 27  1  0  0  0
 23 24  1  0  0  0
 24 25  2  0  0  0
 25 26  1  0  0  0
 26 27  2  0  0  0
 19 20  2  0  0  0
 20 18  1  0  0  0
  5  8  1  0  0  0
  3  4  1  0  0  0
 31 34  1  0  0  0
 36 39  1  0  0  0
 14 17  1  0  0  0
M  END
> <minimizedAffinity>
-9.52654

$$$$
3ZPS_EQM_B_1202


 53 54  0  0  0  0  0  0  0  0999 V2000
   12.5267   20.8112    4.8977 C   0  0  0  0  0  0  0  0  0  0  0  0
   13.9449   20.2523    4.6899 C   0  0  0  0  0  0  0  0  0  0  0  0
   13.9304   18.8465    4.9762 O   0  0  0  0  0  0  0  0  0  0  0  0
   13.6985   18.7086    5.9079 H   0  0  0  0  0  0  0  0  0  0  0  0
   15.6074   20.0671    6.4308 N   0  0  0  0  0  0  0  0  0  0  0  0
   14.8942   20.8690    5.5287 C   0  0  0  0  0  0  0  0  0  0  0  0
   15.2382   22.0440    5.3761 O   0  0  0  0  0  0  0  0  0  0  0  0
   15.2595   19.1698    6.6384 H   0  0  0  0  0  0  0  0  0  0  0  0
   16.8638   20.5096    7.0877 C   0  0  0  0  0  0  0  0  0  0  0  0
   16.6417   20.7433    8.5917 C   0  0  0  0  0  0  0  0  0  0  0  0
   17.9555   20.5650    9.3575 C   0  0  0  0  0  0  0  0  0  0  0  0
   16.1372   22.1716    8.7965 C   0  0  0  0  0  0  0  0  0  0  0  0
   15.6034   19.7573    9.1288 C   0  0  0  0  0  0  0  0  0  0  0  0
   17.6926   18.2263    7.1558 N   0  0  0  0  0  0  0  0  0  0  0  0
   19.0281   19.9131    6.4991 O   0  0  0  0  0  0  0  0  0  0  0  0
   17.9026   19.5794    6.8794 C   0  0  0  0  0  0  0  0  0  0  0  0
   16.8074   17.9125    7.4513 H   0  0  0  0  0  0  0  0  0  0  0  0
   18.8123   17.2650    7.0009 C   0  0  0  0  0  0  0  0  0  0  0  0
   19.5193   16.1765    4.9557 C   0  0  0  0  0  0  0  0  0  0  0  0
   18.5605   16.3983    5.9392 C   0  0  0  0  0  0  0  0  0  0  0  0
   14.3146   20.4545    3.2076 C   0  0  0  0  0  0  0  0  0  0  0  0
   15.1709   19.4541    2.7559 C   0  0  0  0  0  0  0  0  0  0  0  0
   14.7988   18.6463    1.6874 C   0  0  0  0  0  0  0  0  0  0  0  0
   15.6557   17.6439    1.2439 C   0  0  0  0  0  0  0  0  0  0  0  0
   16.8894   17.4603    1.8592 C   0  0  0  0  0  0  0  0  0  0  0  0
   17.2691   18.2854    2.9120 C   0  0  0  0  0  0  0  0  0  0  0  0
   16.4312   19.3143    3.3253 C   0  0  0  0  0  0  0  0  0  0  0  0
   12.1631   21.8621    3.8406 C   0  0  0  0  0  0  0  0  0  0  0  0
   12.0386   23.2506    4.4923 C   0  0  0  0  0  0  0  0  0  0  0  0
   10.6650   23.7861    4.4523 N   0  0  0  0  0  0  0  0  0  0  0  0
   10.5915   24.7834    5.1847 N   0  0  0  0  0  0  0  0  0  0  0  0
    9.6684   23.5753    6.8839 O   0  0  0  0  0  0  0  0  0  0  0  0
   10.0571   24.6502    6.4184 C   0  0  0  0  0  0  0  0  0  0  0  0
   10.9173   25.6584    4.8725 H   0  0  0  0  0  0  0  0  0  0  0  0
    9.6427   25.9880    7.0575 C   0  0  0  0  0  0  0  0  0  0  0  0
    8.1990   26.2116    6.9009 N   0  0  0  0  0  0  0  0  0  0  0  0
    8.4734   27.3244    4.9829 O   0  0  0  0  0  0  0  0  0  0  0  0
    7.7020   26.7909    5.7928 C   0  0  0  0  0  0  0  0  0  0  0  0
    7.5853   25.9329    7.6185 H   0  0  0  0  0  0  0  0  0  0  0  0
    6.3595   27.0453    5.7226 O   0  0  0  0  0  0  0  0  0  0  0  0
    5.7358   26.7620    6.9793 C   0  0  0  0  0  0  0  0  0  0  0  0
   10.0341   26.1084    8.5322 C   0  0  0  0  0  0  0  0  0  0  0  0
    9.8291   27.5582    8.9762 C   0  0  0  0  0  0  0  0  0  0  0  0
    9.1530   25.1959    9.3912 C   0  0  0  0  0  0  0  0  0  0  0  0
   11.5014   25.7215    8.7216 C   0  0  0  0  0  0  0  0  0  0  0  0
   10.3626   24.1872    3.0627 C   0  0  0  0  0  0  0  0  0  0  0  0
    4.4367   24.9938    1.9073 Br  0  0  0  0  0  0  0  0  0  0  0  0
    9.0008   24.4246    2.8570 C   0  0  0  0  0  0  0  0  0  0  0  0
    8.0602   23.5306    3.3536 C   0  0  0  0  0  0  0  0  0  0  0  0
    6.7052   23.7438    3.1216 C   0  0  0  0  0  0  0  0  0  0  0  0
    6.2882   24.7888    2.3059 C   0  0  0  0  0  0  0  0  0  0  0  0
    7.2356   25.6194    1.7174 C   0  0  0  0  0  0  0  0  0  0  0  0
    8.5900   25.4418    2.0004 C   0  0  0  0  0  0  0  0  0  0  0  0
 47 51  1  0  0  0
  2  3  1  0  0  0
  2  6  1  0  0  0
  2  1  1  0  0  0
  2 21  1  0  0  0
  5  6  1  0  0  0
  5  9  1  0  0  0
  6  7  2  0  0  0
 30 31  1  0  0  0
 30 29  1  0  0  0
 30 46  1  0  0  0
  9 10  1  0  0  0
  9 16  1  0  0  0
 31 33  1  0  0  0
 32 33  2  0  0  0
 10 11  1  0  0  0
 10 12  1  0  0  0
 10 13  1  0  0  0
 36 35  1  0  0  0
 36 38  1  0  0  0
 37 38  2  0  0  0
 14 16  1  0  0  0
 14 18  1  0  0  0
 40 38  1  0  0  0
 40 41  1  0  0  0
 15 16  2  0  0  0
  1 28  1  0  0  0
 28 29  1  0  0  0
 46 48  1  0  0  0
 48 49  2  0  0  0
 48 53  1  0  0  0
 33 35  1  0  0  0
 35 42  1  0  0  0
 42 43  1  0  0  0
 42 44  1  0  0  0
 42 45  1  0  0  0
 49 50  1  0  0  0
 50 51  2  0  0  0
 51 52  1  0  0  0
 52 53  2  0  0  0
 21 22  1  0  0  0
 22 23  2  0  0  0
 22 27  1  0  0  0
 23 24  1  0  0  0
 24 25  2  0  0  0
 25 26  1  0  0  0
 26 27  2  0  0  0
 19 20  2  0  0  0
 20 18  1  0  0  0
  5  8  1  0  0  0
  3  4  1  0  0  0
 31 34  1  0  0  0
 36 39  1  0  0  0
 14 17  1  0  0  0
M  END
> <minimizedAffinity>
-9.45619

$$$$
3ZPS_EQM_B_1202


 53 54  0  0  0  0  0  0  0  0999 V2000
   10.1571   24.3937    5.7357 C   0  0  0  0  0  0  0  0  0  0  0  0
    9.2373   25.4903    6.3000 C   0  0  0  0  0  0  0  0  0  0  0  0
    8.2285   24.8707    7.1104 O   0  0  0  0  0  0  0  0  0  0  0  0
    7.6817   24.2901    6.5583 H   0  0  0  0  0  0  0  0  0  0  0  0
    7.7340   25.5624    4.4122 N   0  0  0  0  0  0  0  0  0  0  0  0
    8.6014   26.2333    5.2859 C   0  0  0  0  0  0  0  0  0  0  0  0
    8.6457   27.4657    5.2506 O   0  0  0  0  0  0  0  0  0  0  0  0
    7.7870   24.5808    4.3594 H   0  0  0  0  0  0  0  0  0  0  0  0
    6.7389   26.2652    3.5627 C   0  0  0  0  0  0  0  0  0  0  0  0
    6.5754   25.5531    2.2091 C   0  0  0  0  0  0  0  0  0  0  0  0
    5.1449   25.7206    1.6893 C   0  0  0  0  0  0  0  0  0  0  0  0
    7.5448   26.1783    1.2061 C   0  0  0  0  0  0  0  0  0  0  0  0
    6.8903   24.0640    2.3575 C   0  0  0  0  0  0  0  0  0  0  0  0
    4.9561   25.2668    4.8779 N   0  0  0  0  0  0  0  0  0  0  0  0
    4.8224   27.4079    4.2011 O   0  0  0  0  0  0  0  0  0  0  0  0
    5.4955   26.3738    4.2183 C   0  0  0  0  0  0  0  0  0  0  0  0
    5.4623   24.4239    4.9265 H   0  0  0  0  0  0  0  0  0  0  0  0
    3.6151   25.3699    5.5048 C   0  0  0  0  0  0  0  0  0  0  0  0
    3.3426   23.2320    4.3991 C   0  0  0  0  0  0  0  0  0  0  0  0
    2.8058   24.3146    5.0888 C   0  0  0  0  0  0  0  0  0  0  0  0
   10.0966   26.4085    7.1908 C   0  0  0  0  0  0  0  0  0  0  0  0
    9.5714   26.5067    8.4763 C   0  0  0  0  0  0  0  0  0  0  0  0
    9.7772   25.4836    9.3948 C   0  0  0  0  0  0  0  0  0  0  0  0
    9.2448   25.5839   10.6764 C   0  0  0  0  0  0  0  0  0  0  0  0
    8.5205   26.7132   11.0425 C   0  0  0  0  0  0  0  0  0  0  0  0
    8.3366   27.7457   10.1295 C   0  0  0  0  0  0  0  0  0  0  0  0
    8.9060   27.6638    8.8643 C   0  0  0  0  0  0  0  0  0  0  0  0
   11.6352   24.8021    5.7859 C   0  0  0  0  0  0  0  0  0  0  0  0
   12.3235   24.1580    7.0023 C   0  0  0  0  0  0  0  0  0  0  0  0
   13.0704   22.9328    6.6613 N   0  0  0  0  0  0  0  0  0  0  0  0
   12.8030   22.5992    5.4979 N   0  0  0  0  0  0  0  0  0  0  0  0
   11.7091   20.7238    6.1944 O   0  0  0  0  0  0  0  0  0  0  0  0
   12.1223   21.4514    5.2871 C   0  0  0  0  0  0  0  0  0  0  0  0
   13.0822   23.1616    4.7396 H   0  0  0  0  0  0  0  0  0  0  0  0
   12.2120   20.9396    3.8380 C   0  0  0  0  0  0  0  0  0  0  0  0
   11.8092   21.9893    2.8922 N   0  0  0  0  0  0  0  0  0  0  0  0
    9.6531   21.4161    3.0126 O   0  0  0  0  0  0  0  0  0  0  0  0
   10.5115   22.2197    2.6216 C   0  0  0  0  0  0  0  0  0  0  0  0
   12.5002   22.5329    2.4492 H   0  0  0  0  0  0  0  0  0  0  0  0
   10.1868   23.1574    1.6797 O   0  0  0  0  0  0  0  0  0  0  0  0
   10.6955   24.4395    2.0618 C   0  0  0  0  0  0  0  0  0  0  0  0
   13.5950   20.4009    3.4644 C   0  0  0  0  0  0  0  0  0  0  0  0
   14.6109   21.5393    3.5786 C   0  0  0  0  0  0  0  0  0  0  0  0
   14.0014   19.2741    4.4194 C   0  0  0  0  0  0  0  0  0  0  0  0
   13.5847   19.8710    2.0299 C   0  0  0  0  0  0  0  0  0  0  0  0
   14.5151   23.2272    6.7568 C   0  0  0  0  0  0  0  0  0  0  0  0
   17.3901   19.2147   10.3257 Br  0  0  0  0  0  0  0  0  0  0  0  0
   15.2079   22.2759    7.5107 C   0  0  0  0  0  0  0  0  0  0  0  0
   14.5535   21.1319    7.9507 C   0  0  0  0  0  0  0  0  0  0  0  0
   15.2289   20.1988    8.7307 C   0  0  0  0  0  0  0  0  0  0  0  0
   16.5251   20.4515    9.1634 C   0  0  0  0  0  0  0  0  0  0  0  0
   17.1432   21.6477    8.8154 C   0  0  0  0  0  0  0  0  0  0  0  0
   16.4874   22.5545    7.9825 C   0  0  0  0  0  0  0  0  0  0  0  0
 47 51  1  0  0  0
  2  3  1  0  0  0
  2  6  1  0  0  0
  2  1  1  0  0  0
  2 21  1  0  0  0
  5  6  1  0  0  0
  5  9  1  0  0  0
  6  7  2  0  0  0
 30 31  1  0  0  0
 30 29  1  0  0  0
 30 46  1  0  0  0
  9 10  1  0  0  0
  9 16  1  0  0  0
 31 33  1  0  0  0
 32 33  2  0  0  0
 10 11  1  0  0  0
 10 12  1  0  0  0
 10 13  1  0  0  0
 36 35  1  0  0  0
 36 38  1  0  0  0
 37 38  2  0  0  0
 14 16  1  0  0  0
 14 18  1  0  0  0
 40 38  1  0  0  0
 40 41  1  0  0  0
 15 16  2  0  0  0
  1 28  1  0  0  0
 28 29  1  0  0  0
 46 48  1  0  0  0
 48 49  2  0  0  0
 48 53  1  0  0  0
 33 35  1  0  0  0
 35 42  1  0  0  0
 42 43  1  0  0  0
 42 44  1  0  0  0
 42 45  1  0  0  0
 49 50  1  0  0  0
 50 51  2  0  0  0
 51 52  1  0  0  0
 52 53  2  0  0  0
 21 22  1  0  0  0
 22 23  2  0  0  0
 22 27  1  0  0  0
 23 24  1  0  0  0
 24 25  2  0  0  0
 25 26  1  0  0  0
 26 27  2  0  0  0
 19 20  2  0  0  0
 20 18  1  0  0  0
  5  8  1  0  0  0
  3  4  1  0  0  0
 31 34  1  0  0  0
 36 39  1  0  0  0
 14 17  1  0  0  0
M  END
> <minimizedAffinity>
-9.42552

$$$$
3ZPS_EQM_B_1202


 53 54  0  0  0  0  0  0  0  0999 V2000
   13.0499   21.7745    3.3970 C   0  0  0  0  0  0  0  0  0  0  0  0
   14.0930   21.6014    4.5145 C   0  0  0  0  0  0  0  0  0  0  0  0
   15.1883   22.4930    4.2618 O   0  0  0  0  0  0  0  0  0  0  0  0
   15.6165   22.2503    3.4259 H   0  0  0  0  0  0  0  0  0  0  0  0
   15.9827   20.0989    4.5323 N   0  0  0  0  0  0  0  0  0  0  0  0
   14.5942   20.2865    4.5833 C   0  0  0  0  0  0  0  0  0  0  0  0
   13.8733   19.3239    4.8587 O   0  0  0  0  0  0  0  0  0  0  0  0
   16.5443   20.8351    4.1978 H   0  0  0  0  0  0  0  0  0  0  0  0
   16.6449   18.8401    4.9598 C   0  0  0  0  0  0  0  0  0  0  0  0
   16.8508   17.8966    3.7626 C   0  0  0  0  0  0  0  0  0  0  0  0
   17.1984   18.6995    2.5061 C   0  0  0  0  0  0  0  0  0  0  0  0
   18.0053   16.9465    4.0801 C   0  0  0  0  0  0  0  0  0  0  0  0
   15.5804   17.0835    3.5100 C   0  0  0  0  0  0  0  0  0  0  0  0
   18.1086   18.6102    6.8859 N   0  0  0  0  0  0  0  0  0  0  0  0
   18.7545   19.7990    5.0888 O   0  0  0  0  0  0  0  0  0  0  0  0
   17.8733   19.1026    5.6000 C   0  0  0  0  0  0  0  0  0  0  0  0
   17.4383   18.0412    7.3289 H   0  0  0  0  0  0  0  0  0  0  0  0
   19.3753   18.9503    7.5798 C   0  0  0  0  0  0  0  0  0  0  0  0
   19.7419   21.2160    8.3544 C   0  0  0  0  0  0  0  0  0  0  0  0
   19.1578   19.9631    8.5119 C   0  0  0  0  0  0  0  0  0  0  0  0
   13.4238   21.9996    5.8443 C   0  0  0  0  0  0  0  0  0  0  0  0
   14.3456   22.0349    6.8870 C   0  0  0  0  0  0  0  0  0  0  0  0
   15.0887   23.1857    7.1236 C   0  0  0  0  0  0  0  0  0  0  0  0
   16.0131   23.2136    8.1632 C   0  0  0  0  0  0  0  0  0  0  0  0
   16.1824   22.0964    8.9739 C   0  0  0  0  0  0  0  0  0  0  0  0
   15.4206   20.9549    8.7500 C   0  0  0  0  0  0  0  0  0  0  0  0
   14.4667   20.9435    7.7393 C   0  0  0  0  0  0  0  0  0  0  0  0
   11.7165   22.3107    3.9341 C   0  0  0  0  0  0  0  0  0  0  0  0
   11.5251   23.7782    3.5120 C   0  0  0  0  0  0  0  0  0  0  0  0
   10.1304   24.2395    3.6435 N   0  0  0  0  0  0  0  0  0  0  0  0
   10.0838   25.1827    4.4464 N   0  0  0  0  0  0  0  0  0  0  0  0
    9.4499   23.8116    6.1544 O   0  0  0  0  0  0  0  0  0  0  0  0
    9.7116   24.9375    5.7218 C   0  0  0  0  0  0  0  0  0  0  0  0
   10.3143   26.0958    4.1594 H   0  0  0  0  0  0  0  0  0  0  0  0
    9.2948   26.2015    6.4954 C   0  0  0  0  0  0  0  0  0  0  0  0
    7.8546   26.4497    6.3443 N   0  0  0  0  0  0  0  0  0  0  0  0
    8.1595   27.7407    4.5463 O   0  0  0  0  0  0  0  0  0  0  0  0
    7.3748   27.1371    5.2917 C   0  0  0  0  0  0  0  0  0  0  0  0
    7.2304   26.1076    7.0243 H   0  0  0  0  0  0  0  0  0  0  0  0
    6.0349   27.4069    5.2308 O   0  0  0  0  0  0  0  0  0  0  0  0
    5.3546   26.7852    6.3259 C   0  0  0  0  0  0  0  0  0  0  0  0
    9.6660   26.1603    7.9796 C   0  0  0  0  0  0  0  0  0  0  0  0
   11.1205   25.7028    8.1078 C   0  0  0  0  0  0  0  0  0  0  0  0
    9.5266   27.5539    8.6004 C   0  0  0  0  0  0  0  0  0  0  0  0
    8.7576   25.1804    8.7234 C   0  0  0  0  0  0  0  0  0  0  0  0
    9.6700   24.7110    2.3211 C   0  0  0  0  0  0  0  0  0  0  0  0
    3.6674   25.6721    1.9367 Br  0  0  0  0  0  0  0  0  0  0  0  0
    8.2988   24.9803    2.2950 C   0  0  0  0  0  0  0  0  0  0  0  0
    7.4051   24.0727    2.8501 C   0  0  0  0  0  0  0  0  0  0  0  0
    6.0371   24.3193    2.7957 C   0  0  0  0  0  0  0  0  0  0  0  0
    5.5483   25.4165    2.0968 C   0  0  0  0  0  0  0  0  0  0  0  0
    6.4365   26.2661    1.4461 C   0  0  0  0  0  0  0  0  0  0  0  0
    7.8108   26.0521    1.5531 C   0  0  0  0  0  0  0  0  0  0  0  0
 47 51  1  0  0  0
  2  3  1  0  0  0
  2  6  1  0  0  0
  2  1  1  0  0  0
  2 21  1  0  0  0
  5  6  1  0  0  0
  5  9  1  0  0  0
  6  7  2  0  0  0
 30 31  1  0  0  0
 30 29  1  0  0  0
 30 46  1  0  0  0
  9 10  1  0  0  0
  9 16  1  0  0  0
 31 33  1  0  0  0
 32 33  2  0  0  0
 10 11  1  0  0  0
 10 12  1  0  0  0
 10 13  1  0  0  0
 36 35  1  0  0  0
 36 38  1  0  0  0
 37 38  2  0  0  0
 14 16  1  0  0  0
 14 18  1  0  0  0
 40 38  1  0  0  0
 40 41  1  0  0  0
 15 16  2  0  0  0
  1 28  1  0  0  0
 28 29  1  0  0  0
 46 48  1  0  0  0
 48 49  2  0  0  0
 48 53  1  0  0  0
 33 35  1  0  0  0
 35 42  1  0  0  0
 42 43  1  0  0  0
 42 44  1  0  0  0
 42 45  1  0  0  0
 49 50  1  0  0  0
 50 51  2  0  0  0
 51 52  1  0  0  0
 52 53  2  0  0  0
 21 22  1  0  0  0
 22 23  2  0  0  0
 22 27  1  0  0  0
 23 24  1  0  0  0
 24 25  2  0  0  0
 25 26  1  0  0  0
 26 27  2  0  0  0
 19 20  2  0  0  0
 20 18  1  0  0  0
  5  8  1  0  0  0
  3  4  1  0  0  0
 31 34  1  0  0  0
 36 39  1  0  0  0
 14 17  1  0  0  0
M  END
> <minimizedAffinity>
-9.14755

$$$$
3ZPS_EQM_B_1202


 53 54  0  0  0  0  0  0  0  0999 V2000
   10.2673   24.5667    5.1340 C   0  0  0  0  0  0  0  0  0  0  0  0
    9.3365   25.5436    5.8730 C   0  0  0  0  0  0  0  0  0  0  0  0
    8.4138   24.7854    6.6681 O   0  0  0  0  0  0  0  0  0  0  0  0
    7.8596   24.2399    6.0882 H   0  0  0  0  0  0  0  0  0  0  0  0
    7.7830   25.7362    4.0349 N   0  0  0  0  0  0  0  0  0  0  0  0
    8.6005   26.3576    4.9894 C   0  0  0  0  0  0  0  0  0  0  0  0
    8.5175   27.5794    5.1393 O   0  0  0  0  0  0  0  0  0  0  0  0
    7.9348   24.7843    3.8345 H   0  0  0  0  0  0  0  0  0  0  0  0
    6.6985   26.4484    3.3121 C   0  0  0  0  0  0  0  0  0  0  0  0
    6.4345   25.7979    1.9435 C   0  0  0  0  0  0  0  0  0  0  0  0
    4.9428   25.8604    1.6037 C   0  0  0  0  0  0  0  0  0  0  0  0
    7.2192   26.5628    0.8777 C   0  0  0  0  0  0  0  0  0  0  0  0
    6.8908   24.3384    1.9588 C   0  0  0  0  0  0  0  0  0  0  0  0
    5.1379   25.3748    4.8343 N   0  0  0  0  0  0  0  0  0  0  0  0
    4.7557   27.4594    4.0802 O   0  0  0  0  0  0  0  0  0  0  0  0
    5.5156   26.4871    4.0783 C   0  0  0  0  0  0  0  0  0  0  0  0
    5.7184   24.5804    4.8711 H   0  0  0  0  0  0  0  0  0  0  0  0
    3.8561   25.3983    5.5814 C   0  0  0  0  0  0  0  0  0  0  0  0
    3.3649   23.3343    4.4126 C   0  0  0  0  0  0  0  0  0  0  0  0
    2.9418   24.5233    4.9982 C   0  0  0  0  0  0  0  0  0  0  0  0
   10.2088   26.4040    6.8077 C   0  0  0  0  0  0  0  0  0  0  0  0
    9.6696   26.4691    8.0896 C   0  0  0  0  0  0  0  0  0  0  0  0
    8.9348   27.5819    8.4825 C   0  0  0  0  0  0  0  0  0  0  0  0
    8.4034   27.6447    9.7668 C   0  0  0  0  0  0  0  0  0  0  0  0
    8.5944   26.5886   10.6513 C   0  0  0  0  0  0  0  0  0  0  0  0
    9.3093   25.4664   10.2477 C   0  0  0  0  0  0  0  0  0  0  0  0
    9.8020   25.3859    8.9506 C   0  0  0  0  0  0  0  0  0  0  0  0
   11.5664   24.3132    5.9100 C   0  0  0  0  0  0  0  0  0  0  0  0
   11.7065   22.8160    6.2371 C   0  0  0  0  0  0  0  0  0  0  0  0
   12.7774   22.1548    5.4682 N   0  0  0  0  0  0  0  0  0  0  0  0
   13.5766   21.6221    6.2517 N   0  0  0  0  0  0  0  0  0  0  0  0
   15.2639   23.0183    5.6174 O   0  0  0  0  0  0  0  0  0  0  0  0
   14.8501   22.0714    6.2920 C   0  0  0  0  0  0  0  0  0  0  0  0
   13.2880   20.8835    6.8352 H   0  0  0  0  0  0  0  0  0  0  0  0
   15.8268   21.0934    6.9700 C   0  0  0  0  0  0  0  0  0  0  0  0
   17.0067   20.8698    6.1236 N   0  0  0  0  0  0  0  0  0  0  0  0
   16.8297   18.6482    6.2830 O   0  0  0  0  0  0  0  0  0  0  0  0
   17.3690   19.6287    5.7507 C   0  0  0  0  0  0  0  0  0  0  0  0
   17.5410   21.6406    5.8243 H   0  0  0  0  0  0  0  0  0  0  0  0
   18.5160   19.4630    5.0235 O   0  0  0  0  0  0  0  0  0  0  0  0
   18.6570   18.0950    4.6267 C   0  0  0  0  0  0  0  0  0  0  0  0
   16.2623   21.5357    8.3690 C   0  0  0  0  0  0  0  0  0  0  0  0
   15.6523   22.9083    8.6604 C   0  0  0  0  0  0  0  0  0  0  0  0
   15.7656   20.5376    9.4197 C   0  0  0  0  0  0  0  0  0  0  0  0
   17.7869   21.6314    8.4410 C   0  0  0  0  0  0  0  0  0  0  0  0
   12.1650   21.1097    4.6221 C   0  0  0  0  0  0  0  0  0  0  0  0
   16.0216   17.8802    1.1871 Br  0  0  0  0  0  0  0  0  0  0  0  0
   13.1094   20.4093    3.8667 C   0  0  0  0  0  0  0  0  0  0  0  0
   13.3379   20.7650    2.5431 C   0  0  0  0  0  0  0  0  0  0  0  0
   14.2515   20.0488    1.7765 C   0  0  0  0  0  0  0  0  0  0  0  0
   14.8625   18.9120    2.2920 C   0  0  0  0  0  0  0  0  0  0  0  0
   14.5509   18.4904    3.5801 C   0  0  0  0  0  0  0  0  0  0  0  0
   13.6816   19.2441    4.3689 C   0  0  0  0  0  0  0  0  0  0  0  0
 47 51  1  0  0  0
  2  3  1  0  0  0
  2  6  1  0  0  0
  2  1  1  0  0  0
  2 21  1  0  0  0
  5  6  1  0  0  0
  5  9  1  0  0  0
  6  7  2  0  0  0
 30 31  1  0  0  0
 30 29  1  0  0  0
 30 46  1  0  0  0
  9 10  1  0  0  0
  9 16  1  0  0  0
 31 33  1  0  0  0
 32 33  2  0  0  0
 10 11  1  0  0  0
 10 12  1  0  0  0
 10 13  1  0  0  0
 36 35  1  0  0  0
 36 38  1  0  0  0
 37 38  2  0  0  0
 14 16  1  0  0  0
 14 18  1  0  0  0
 40 38  1  0  0  0
 40 41  1  0  0  0
 15 16  2  0  0  0
  1 28  1  0  0  0
 28 29  1  0  0  0
 46 48  1  0  0  0
 48 49  2  0  0  0
 48 53  1  0  0  0
 33 35  1  0  0  0
 35 42  1  0  0  0
 42 43  1  0  0  0
 42 44  1  0  0  0
 42 45  1  0  0  0
 49 50  1  0  0  0
 50 51  2  0  0  0
 51 52  1  0  0  0
 52 53  2  0  0  0
 21 22  1  0  0  0
 22 23  2  0  0  0
 22 27  1  0  0  0
 23 24  1  0  0  0
 24 25  2  0  0  0
 25 26  1  0  0  0
 26 27  2  0  0  0
 19 20  2  0  0  0
 20 18  1  0  0  0
  5  8  1  0  0  0
  3  4  1  0  0  0
 31 34  1  0  0  0
 36 39  1  0  0  0
 14 17  1  0  0  0
M  END
> <minimizedAffinity>
-9.06844

$$$$
3ZPS_EQM_B_1202


 53 54  0  0  0  0  0  0  0  0999 V2000
   15.2716   22.3602    6.7440 C   0  0  0  0  0  0  0  0  0  0  0  0
   15.7393   20.8946    6.7356 C   0  0  0  0  0  0  0  0  0  0  0  0
   14.5839   20.0442    6.7450 O   0  0  0  0  0  0  0  0  0  0  0  0
   14.0859   20.1844    7.5655 H   0  0  0  0  0  0  0  0  0  0  0  0
   16.7387   19.2264    8.1663 N   0  0  0  0  0  0  0  0  0  0  0  0
   16.5360   20.5779    7.8536 C   0  0  0  0  0  0  0  0  0  0  0  0
   17.1936   21.4327    8.4529 O   0  0  0  0  0  0  0  0  0  0  0  0
   16.1319   18.5574    7.7746 H   0  0  0  0  0  0  0  0  0  0  0  0
   17.8271   18.7579    9.0617 C   0  0  0  0  0  0  0  0  0  0  0  0
   17.2721   17.8368   10.1615 C   0  0  0  0  0  0  0  0  0  0  0  0
   15.7647   18.0505   10.3237 C   0  0  0  0  0  0  0  0  0  0  0  0
   17.5275   16.3843    9.7593 C   0  0  0  0  0  0  0  0  0  0  0  0
   17.9715   18.1250   11.4906 C   0  0  0  0  0  0  0  0  0  0  0  0
   18.5392   17.4967    7.1105 N   0  0  0  0  0  0  0  0  0  0  0  0
   19.9972   17.9969    8.7488 O   0  0  0  0  0  0  0  0  0  0  0  0
   18.8405   18.1030    8.3324 C   0  0  0  0  0  0  0  0  0  0  0  0
   17.6321   17.5646    6.7340 H   0  0  0  0  0  0  0  0  0  0  0  0
   19.5954   16.7495    6.3839 C   0  0  0  0  0  0  0  0  0  0  0  0
   18.0212   15.8986    4.7511 C   0  0  0  0  0  0  0  0  0  0  0  0
   19.2154   16.5428    5.0592 C   0  0  0  0  0  0  0  0  0  0  0  0
   16.5190   20.6603    5.4271 C   0  0  0  0  0  0  0  0  0  0  0  0
   15.7375   20.0047    4.4797 C   0  0  0  0  0  0  0  0  0  0  0  0
   14.8792   20.7290    3.6603 C   0  0  0  0  0  0  0  0  0  0  0  0
   14.0957   20.0682    2.7193 C   0  0  0  0  0  0  0  0  0  0  0  0
   14.1825   18.6864    2.5885 C   0  0  0  0  0  0  0  0  0  0  0  0
   15.0595   17.9671    3.3929 C   0  0  0  0  0  0  0  0  0  0  0  0
   15.8733   18.6328    4.3018 C   0  0  0  0  0  0  0  0  0  0  0  0
   13.7932   22.4889    7.1337 C   0  0  0  0  0  0  0  0  0  0  0  0
   13.3814   23.9712    7.1745 C   0  0  0  0  0  0  0  0  0  0  0  0
   12.1008   24.2336    6.4916 N   0  0  0  0  0  0  0  0  0  0  0  0
   11.4763   25.1066    7.1114 N   0  0  0  0  0  0  0  0  0  0  0  0
    9.5469   23.8931    7.0505 O   0  0  0  0  0  0  0  0  0  0  0  0
   10.1633   24.9148    7.3657 C   0  0  0  0  0  0  0  0  0  0  0  0
   11.9297   25.9267    7.4134 H   0  0  0  0  0  0  0  0  0  0  0  0
    9.4169   26.2037    7.7549 C   0  0  0  0  0  0  0  0  0  0  0  0
    8.0151   26.1421    7.3191 N   0  0  0  0  0  0  0  0  0  0  0  0
    8.3568   27.6020    5.6626 O   0  0  0  0  0  0  0  0  0  0  0  0
    7.6029   26.7864    6.2121 C   0  0  0  0  0  0  0  0  0  0  0  0
    7.3669   25.6208    7.8456 H   0  0  0  0  0  0  0  0  0  0  0  0
    6.2745   26.7608    5.8857 O   0  0  0  0  0  0  0  0  0  0  0  0
    5.4814   27.1617    7.0078 C   0  0  0  0  0  0  0  0  0  0  0  0
    9.4866   26.5228    9.2502 C   0  0  0  0  0  0  0  0  0  0  0  0
    9.2555   25.2314   10.0375 C   0  0  0  0  0  0  0  0  0  0  0  0
   10.8661   27.0840    9.6093 C   0  0  0  0  0  0  0  0  0  0  0  0
    8.4110   27.5442    9.6222 C   0  0  0  0  0  0  0  0  0  0  0  0
   12.3925   24.7268    5.1297 C   0  0  0  0  0  0  0  0  0  0  0  0
    9.3332   21.4730    0.9878 Br  0  0  0  0  0  0  0  0  0  0  0  0
   11.7580   23.9730    4.1386 C   0  0  0  0  0  0  0  0  0  0  0  0
   11.0075   24.6109    3.1586 C   0  0  0  0  0  0  0  0  0  0  0  0
   10.3454   23.8631    2.1904 C   0  0  0  0  0  0  0  0  0  0  0  0
   10.3414   22.4749    2.2561 C   0  0  0  0  0  0  0  0  0  0  0  0
   11.0006   21.8360    3.3007 C   0  0  0  0  0  0  0  0  0  0  0  0
   11.7153   22.5852    4.2357 C   0  0  0  0  0  0  0  0  0  0  0  0
 47 51  1  0  0  0
  2  3  1  0  0  0
  2  6  1  0  0  0
  2  1  1  0  0  0
  2 21  1  0  0  0
  5  6  1  0  0  0
  5  9  1  0  0  0
  6  7  2  0  0  0
 30 31  1  0  0  0
 30 29  1  0  0  0
 30 46  1  0  0  0
  9 10  1  0  0  0
  9 16  1  0  0  0
 31 33  1  0  0  0
 32 33  2  0  0  0
 10 11  1  0  0  0
 10 12  1  0  0  0
 10 13  1  0  0  0
 36 35  1  0  0  0
 36 38  1  0  0  0
 37 38  2  0  0  0
 14 16  1  0  0  0
 14 18  1  0  0  0
 40 38  1  0  0  0
 40 41  1  0  0  0
 15 16  2  0  0  0
  1 28  1  0  0  0
 28 29  1  0  0  0
 46 48  1  0  0  0
 48 49  2  0  0  0
 48 53  1  0  0  0
 33 35  1  0  0  0
 35 42  1  0  0  0
 42 43  1  0  0  0
 42 44  1  0  0  0
 42 45  1  0  0  0
 49 50  1  0  0  0
 50 51  2  0  0  0
 51 52  1  0  0  0
 52 53  2  0  0  0
 21 22  1  0  0  0
 22 23  2  0  0  0
 22 27  1  0  0  0
 23 24  1  0  0  0
 24 25  2  0  0  0
 25 26  1  0  0  0
 26 27  2  0  0  0
 19 20  2  0  0  0
 20 18  1  0  0  0
  5  8  1  0  0  0
  3  4  1  0  0  0
 31 34  1  0  0  0
 36 39  1  0  0  0
 14 17  1  0  0  0
M  END
> <minimizedAffinity>
-8.79527

$$$$
3ZPS_EQM_B_1202


 53 54  0  0  0  0  0  0  0  0999 V2000
    8.0012   26.0758    2.6712 C   0  0  0  0  0  0  0  0  0  0  0  0
    6.5606   26.1331    3.2078 C   0  0  0  0  0  0  0  0  0  0  0  0
    5.6895   26.5367    2.1416 O   0  0  0  0  0  0  0  0  0  0  0  0
    5.9263   27.4316    1.8518 H   0  0  0  0  0  0  0  0  0  0  0  0
    5.1469   27.2210    4.8348 N   0  0  0  0  0  0  0  0  0  0  0  0
    6.4185   27.0470    4.2706 C   0  0  0  0  0  0  0  0  0  0  0  0
    7.3922   27.5606    4.8278 O   0  0  0  0  0  0  0  0  0  0  0  0
    4.3616   26.9128    4.3272 H   0  0  0  0  0  0  0  0  0  0  0  0
    4.9305   27.8491    6.1631 C   0  0  0  0  0  0  0  0  0  0  0  0
    3.4286   28.0117    6.4529 C   0  0  0  0  0  0  0  0  0  0  0  0
    3.1861   28.1152    7.9612 C   0  0  0  0  0  0  0  0  0  0  0  0
    2.9359   29.2935    5.7815 C   0  0  0  0  0  0  0  0  0  0  0  0
    2.6536   26.8173    5.8951 C   0  0  0  0  0  0  0  0  0  0  0  0
    6.7107   27.5956    7.7976 N   0  0  0  0  0  0  0  0  0  0  0  0
    5.1473   25.9979    7.5461 O   0  0  0  0  0  0  0  0  0  0  0  0
    5.5543   27.1058    7.1859 C   0  0  0  0  0  0  0  0  0  0  0  0
    7.0659   28.4797    7.5497 H   0  0  0  0  0  0  0  0  0  0  0  0
    7.4003   26.7745    8.8233 C   0  0  0  0  0  0  0  0  0  0  0  0
    8.5066   27.1401   10.9470 C   0  0  0  0  0  0  0  0  0  0  0  0
    8.1263   27.5920    9.6873 C   0  0  0  0  0  0  0  0  0  0  0  0
    6.1720   24.7110    3.6566 C   0  0  0  0  0  0  0  0  0  0  0  0
    4.9579   24.3162    3.1012 C   0  0  0  0  0  0  0  0  0  0  0  0
    4.8357   24.1661    1.7245 C   0  0  0  0  0  0  0  0  0  0  0  0
    3.6184   23.7774    1.1741 C   0  0  0  0  0  0  0  0  0  0  0  0
    2.5296   23.5248    2.0016 C   0  0  0  0  0  0  0  0  0  0  0  0
    2.6614   23.6524    3.3799 C   0  0  0  0  0  0  0  0  0  0  0  0
    3.8894   23.9980    3.9313 C   0  0  0  0  0  0  0  0  0  0  0  0
    8.7493   24.8311    3.1661 C   0  0  0  0  0  0  0  0  0  0  0  0
   10.0688   24.6614    2.3924 C   0  0  0  0  0  0  0  0  0  0  0  0
   11.0536   23.8274    3.1065 N   0  0  0  0  0  0  0  0  0  0  0  0
   10.8840   23.9472    4.3285 N   0  0  0  0  0  0  0  0  0  0  0  0
   12.7680   25.2116    4.5540 O   0  0  0  0  0  0  0  0  0  0  0  0
   11.7898   24.6446    5.0487 C   0  0  0  0  0  0  0  0  0  0  0  0
   10.1019   23.5408    4.7672 H   0  0  0  0  0  0  0  0  0  0  0  0
   11.7077   24.3800    6.5630 C   0  0  0  0  0  0  0  0  0  0  0  0
   13.0074   24.6250    7.2027 N   0  0  0  0  0  0  0  0  0  0  0  0
   13.6332   22.4909    6.9879 O   0  0  0  0  0  0  0  0  0  0  0  0
   13.9385   23.6565    7.2773 C   0  0  0  0  0  0  0  0  0  0  0  0
   13.2003   25.5124    7.5830 H   0  0  0  0  0  0  0  0  0  0  0  0
   15.1051   23.9081    7.9464 O   0  0  0  0  0  0  0  0  0  0  0  0
   15.7105   22.6803    8.3644 C   0  0  0  0  0  0  0  0  0  0  0  0
   10.6167   25.1903    7.2671 C   0  0  0  0  0  0  0  0  0  0  0  0
    9.4837   24.2425    7.6661 C   0  0  0  0  0  0  0  0  0  0  0  0
   11.1786   25.8526    8.5290 C   0  0  0  0  0  0  0  0  0  0  0  0
   10.0714   26.2676    6.3286 C   0  0  0  0  0  0  0  0  0  0  0  0
   10.8311   22.4170    2.7266 C   0  0  0  0  0  0  0  0  0  0  0  0
   15.4660   18.6155    3.8078 Br  0  0  0  0  0  0  0  0  0  0  0  0
   11.9368   21.6069    2.9993 C   0  0  0  0  0  0  0  0  0  0  0  0
   12.7711   21.2040    1.9638 C   0  0  0  0  0  0  0  0  0  0  0  0
   13.8529   20.3692    2.2248 C   0  0  0  0  0  0  0  0  0  0  0  0
   14.0466   19.8479    3.4983 C   0  0  0  0  0  0  0  0  0  0  0  0
   13.1478   20.1621    4.5119 C   0  0  0  0  0  0  0  0  0  0  0  0
   12.0992   21.0480    4.2636 C   0  0  0  0  0  0  0  0  0  0  0  0
 47 51  1  0  0  0
  2  3  1  0  0  0
  2  6  1  0  0  0
  2  1  1  0  0  0
  2 21  1  0  0  0
  5  6  1  0  0  0
  5  9  1  0  0  0
  6  7  2  0  0  0
 30 31  1  0  0  0
 30 29  1  0  0  0
 30 46  1  0  0  0
  9 10  1  0  0  0
  9 16  1  0  0  0
 31 33  1  0  0  0
 32 33  2  0  0  0
 10 11  1  0  0  0
 10 12  1  0  0  0
 10 13  1  0  0  0
 36 35  1  0  0  0
 36 38  1  0  0  0
 37 38  2  0  0  0
 14 16  1  0  0  0
 14 18  1  0  0  0
 40 38  1  0  0  0
 40 41  1  0  0  0
 15 16  2  0  0  0
  1 28  1  0  0  0
 28 29  1  0  0  0
 46 48  1  0  0  0
 48 49  2  0  0  0
 48 53  1  0  0  0
 33 35  1  0  0  0
 35 42  1  0  0  0
 42 43  1  0  0  0
 42 44  1  0  0  0
 42 45  1  0  0  0
 49 50  1  0  0  0
 50 51  2  0  0  0
 51 52  1  0  0  0
 52 53  2  0  0  0
 21 22  1  0  0  0
 22 23  2  0  0  0
 22 27  1  0  0  0
 23 24  1  0  0  0
 24 25  2  0  0  0
 25 26  1  0  0  0
 26 27  2  0  0  0
 19 20  2  0  0  0
 20 18  1  0  0  0
  5  8  1  0  0  0
  3  4  1  0  0  0
 31 34  1  0  0  0
 36 39  1  0  0  0
 14 17  1  0  0  0
M  END
> <minimizedAffinity>
-8.69882

$$$$
3ZPS_EQM_B_1202


 53 54  0  0  0  0  0  0  0  0999 V2000
   14.8658   21.3978    6.8521 C   0  0  0  0  0  0  0  0  0  0  0  0
   14.5470   21.4835    5.3495 C   0  0  0  0  0  0  0  0  0  0  0  0
   15.7817   21.5150    4.6195 O   0  0  0  0  0  0  0  0  0  0  0  0
   16.2771   22.3146    4.8565 H   0  0  0  0  0  0  0  0  0  0  0  0
   12.4979   22.4728    4.5423 N   0  0  0  0  0  0  0  0  0  0  0  0
   13.8052   22.6357    5.0221 C   0  0  0  0  0  0  0  0  0  0  0  0
   14.1985   23.7705    5.3043 O   0  0  0  0  0  0  0  0  0  0  0  0
   12.2273   21.5875    4.2072 H   0  0  0  0  0  0  0  0  0  0  0  0
   11.5027   23.5750    4.5165 C   0  0  0  0  0  0  0  0  0  0  0  0
   10.4844   23.3659    3.3828 C   0  0  0  0  0  0  0  0  0  0  0  0
    9.0846   23.7837    3.8414 C   0  0  0  0  0  0  0  0  0  0  0  0
   10.8947   24.2293    2.1900 C   0  0  0  0  0  0  0  0  0  0  0  0
   10.4626   21.8962    2.9607 C   0  0  0  0  0  0  0  0  0  0  0  0
   10.5701   24.9618    6.2807 N   0  0  0  0  0  0  0  0  0  0  0  0
   10.5300   22.7184    6.4418 O   0  0  0  0  0  0  0  0  0  0  0  0
   10.8442   23.6959    5.7573 C   0  0  0  0  0  0  0  0  0  0  0  0
   10.7933   25.7701    5.7650 H   0  0  0  0  0  0  0  0  0  0  0  0
    9.9404   25.0800    7.6191 C   0  0  0  0  0  0  0  0  0  0  0  0
   11.7163   25.9264    9.0323 C   0  0  0  0  0  0  0  0  0  0  0  0
   10.5265   26.1201    8.3377 C   0  0  0  0  0  0  0  0  0  0  0  0
   13.7725   20.2087    4.9624 C   0  0  0  0  0  0  0  0  0  0  0  0
   14.3999   19.5284    3.9224 C   0  0  0  0  0  0  0  0  0  0  0  0
   15.2471   18.4609    4.1969 C   0  0  0  0  0  0  0  0  0  0  0  0
   15.8765   17.7884    3.1541 C   0  0  0  0  0  0  0  0  0  0  0  0
   15.6463   18.1742    1.8379 C   0  0  0  0  0  0  0  0  0  0  0  0
   14.7797   19.2267    1.5650 C   0  0  0  0  0  0  0  0  0  0  0  0
   14.1178   19.8691    2.6046 C   0  0  0  0  0  0  0  0  0  0  0  0
   16.2144   20.7149    7.1149 C   0  0  0  0  0  0  0  0  0  0  0  0
   16.2068   20.0379    8.4969 C   0  0  0  0  0  0  0  0  0  0  0  0
   17.5466   19.6029    8.9340 N   0  0  0  0  0  0  0  0  0  0  0  0
   17.8044   18.4996    8.4316 N   0  0  0  0  0  0  0  0  0  0  0  0
   17.2283   17.3972   10.3425 O   0  0  0  0  0  0  0  0  0  0  0  0
   17.6520   17.3874    9.1834 C   0  0  0  0  0  0  0  0  0  0  0  0
   18.1152   18.4346    7.4997 H   0  0  0  0  0  0  0  0  0  0  0  0
   18.3787   16.1553    8.6144 C   0  0  0  0  0  0  0  0  0  0  0  0
   19.2186   16.5324    7.4694 N   0  0  0  0  0  0  0  0  0  0  0  0
   18.0361   15.2721    6.0533 O   0  0  0  0  0  0  0  0  0  0  0  0
   18.9136   16.1307    6.2220 C   0  0  0  0  0  0  0  0  0  0  0  0
   20.0177   17.0881    7.6173 H   0  0  0  0  0  0  0  0  0  0  0  0
   19.7643   16.4445    5.1975 O   0  0  0  0  0  0  0  0  0  0  0  0
   20.6413   15.3458    4.9285 C   0  0  0  0  0  0  0  0  0  0  0  0
   19.2159   15.4054    9.6533 C   0  0  0  0  0  0  0  0  0  0  0  0
   19.8320   14.1729    8.9881 C   0  0  0  0  0  0  0  0  0  0  0  0
   20.3418   16.3033   10.1760 C   0  0  0  0  0  0  0  0  0  0  0  0
   18.3344   14.9647   10.8226 C   0  0  0  0  0  0  0  0  0  0  0  0
   18.5354   20.5914    8.4560 C   0  0  0  0  0  0  0  0  0  0  0  0
   22.7074   21.8055   12.7247 Br  0  0  0  0  0  0  0  0  0  0  0  0
   19.5464   20.8339    9.3900 C   0  0  0  0  0  0  0  0  0  0  0  0
   19.6633   20.0196   10.5097 C   0  0  0  0  0  0  0  0  0  0  0  0
   20.6459   20.2778   11.4600 C   0  0  0  0  0  0  0  0  0  0  0  0
   21.4469   21.4084   11.3528 C   0  0  0  0  0  0  0  0  0  0  0  0
   21.2569   22.2851   10.2901 C   0  0  0  0  0  0  0  0  0  0  0  0
   20.3130   21.9925    9.3054 C   0  0  0  0  0  0  0  0  0  0  0  0
 47 51  1  0  0  0
  2  3  1  0  0  0
  2  6  1  0  0  0
  2  1  1  0  0  0
  2 21  1  0  0  0
  5  6  1  0  0  0
  5  9  1  0  0  0
  6  7  2  0  0  0
 30 31  1  0  0  0
 30 29  1  0  0  0
 30 46  1  0  0  0
  9 10  1  0  0  0
  9 16  1  0  0  0
 31 33  1  0  0  0
 32 33  2  0  0  0
 10 11  1  0  0  0
 10 12  1  0  0  0
 10 13  1  0  0  0
 36 35  1  0  0  0
 36 38  1  0  0  0
 37 38  2  0  0  0
 14 16  1  0  0  0
 14 18  1  0  0  0
 40 38  1  0  0  0
 40 41  1  0  0  0
 15 16  2  0  0  0
  1 28  1  0  0  0
 28 29  1  0  0  0
 46 48  1  0  0  0
 48 49  2  0  0  0
 48 53  1  0  0  0
 33 35  1  0  0  0
 35 42  1  0  0  0
 42 43  1  0  0  0
 42 44  1  0  0  0
 42 45  1  0  0  0
 49 50  1  0  0  0
 50 51  2  0  0  0
 51 52  1  0  0  0
 52 53  2  0  0  0
 21 22  1  0  0  0
 22 23  2  0  0  0
 22 27  1  0  0  0
 23 24  1  0  0  0
 24 25  2  0  0  0
 25 26  1  0  0  0
 26 27  2  0  0  0
 19 20  2  0  0  0
 20 18  1  0  0  0
  5  8  1  0  0  0
  3  4  1  0  0  0
 31 34  1  0  0  0
 36 39  1  0  0  0
 14 17  1  0  0  0
M  END
> <minimizedAffinity>
-8.43053

$$$$
