3ZPS_EQM_B_1202
  RCSB PDB12061711313D
Coordinates from PDB:3ZPS:B:1202 Model:1 without hydrogens
 48 49  0  0  0  0            999 V2000
   16.4790   16.5930   10.7750  Br 0  0  0  0  0  0  0  0  0  0  0  0
   11.9700   24.2580    4.6700   C 0  0  0  0  0  0  0  0  0  0  0  0
   10.2080   25.5340    5.7170   N 0  0  0  0  0  0  0  0  0  0  0  0
   12.3760   25.5980    4.3570   O 0  0  0  0  0  0  0  0  0  0  0  0
   10.8910   24.3180    5.5740   C 0  0  0  0  0  0  0  0  0  0  0  0
   15.2780   22.2820    7.1520   N 0  0  0  0  0  0  0  0  0  0  0  0
   10.4240   23.3070    6.1050   O 0  0  0  0  0  0  0  0  0  0  0  0
    8.8600   25.6370    6.3320   C 0  0  0  0  0  0  0  0  0  0  0  0
   15.8020   21.6890    6.1980   N 0  0  0  0  0  0  0  0  0  0  0  0
   14.0020   20.3110    5.9530   O 0  0  0  0  0  0  0  0  0  0  0  0
    8.9580   26.1350    7.7840   C 0  0  0  0  0  0  0  0  0  0  0  0
   16.7030   18.7560    5.5760   N 0  0  0  0  0  0  0  0  0  0  0  0
   18.7310   19.5330    5.0510   O 0  0  0  0  0  0  0  0  0  0  0  0
    9.7350   27.4530    7.8430   C 0  0  0  0  0  0  0  0  0  0  0  0
    6.7890   26.0010    5.1140   N 0  0  0  0  0  0  0  0  0  0  0  0
   18.6310   17.7800    6.4690   O 0  0  0  0  0  0  0  0  0  0  0  0
    7.5450   26.3670    8.3190   C 0  0  0  0  0  0  0  0  0  0  0  0
    8.3380   27.6260    5.2560   O 0  0  0  0  0  0  0  0  0  0  0  0
   13.1780   23.5000    5.2470   C 0  0  0  0  0  0  0  0  0  0  0  0
   13.6780   24.1270    6.5550   C 0  0  0  0  0  0  0  0  0  0  0  0
   15.1360   23.7120    6.8200   C 0  0  0  0  0  0  0  0  0  0  0  0
   16.1580   22.1640    8.3330   C 0  0  0  0  0  0  0  0  0  0  0  0
   16.2300   20.8560    8.8200   C 0  0  0  0  0  0  0  0  0  0  0  0
   15.1340   20.6690    5.6160   C 0  0  0  0  0  0  0  0  0  0  0  0
   16.0270   19.7640    4.7480   C 0  0  0  0  0  0  0  0  0  0  0  0
   15.2760   19.0820    3.6020   C 0  0  0  0  0  0  0  0  0  0  0  0
   16.2990   18.5090    2.6190   C 0  0  0  0  0  0  0  0  0  0  0  0
   14.4100   17.9390    4.1410   C 0  0  0  0  0  0  0  0  0  0  0  0
   14.3870   20.0940    2.8780   C 0  0  0  0  0  0  0  0  0  0  0  0
   18.0370   18.7810    5.7500   C 0  0  0  0  0  0  0  0  0  0  0  0
   19.9140   18.2040    6.9410   C 0  0  0  0  0  0  0  0  0  0  0  0
   15.0860   20.2350    9.3060   C 0  0  0  0  0  0  0  0  0  0  0  0
   15.1590   18.9460    9.8240   C 0  0  0  0  0  0  0  0  0  0  0  0
   16.3880   18.3110    9.9570   C 0  0  0  0  0  0  0  0  0  0  0  0
   17.5480   18.9750    9.5730   C 0  0  0  0  0  0  0  0  0  0  0  0
   17.4670   20.2430    8.9970   C 0  0  0  0  0  0  0  0  0  0  0  0
   11.5510   23.5480    3.3680   C 0  0  0  0  0  0  0  0  0  0  0  0
   10.2630   23.9100    2.9830   C 0  0  0  0  0  0  0  0  0  0  0  0
   10.0470   25.1020    2.3010   C 0  0  0  0  0  0  0  0  0  0  0  0
    8.7570   25.4620    1.9240   C 0  0  0  0  0  0  0  0  0  0  0  0
    7.6870   24.6230    2.2160   C 0  0  0  0  0  0  0  0  0  0  0  0
    7.9090   23.4200    2.8770   C 0  0  0  0  0  0  0  0  0  0  0  0
    9.2030   23.0410    3.2140   C 0  0  0  0  0  0  0  0  0  0  0  0
    5.8030   25.3490    2.3790   C 0  0  0  0  0  0  0  0  0  0  0  0
    8.0180   26.4780    5.5760   C 0  0  0  0  0  0  0  0  0  0  0  0
    9.6630   25.0910    8.6510   C 0  0  0  0  0  0  0  0  0  0  0  0
    5.1880   26.0930    3.3810   C 0  0  0  0  0  0  0  0  0  0  0  0
    5.9410   26.8690    4.2600   C 0  0  0  0  0  0  0  0  0  0  0  0
  1 34  1  0  0  0  0
  2  4  1  0  0  0  0
  2  5  1  0  0  0  0
  2 19  1  0  0  0  0
  2 37  1  0  0  0  0
  3  5  1  0  0  0  0
  3  8  1  0  0  0  0
  5  7  2  0  0  0  0
  6  9  1  0  0  0  0
  6 21  1  0  0  0  0
  6 22  1  0  0  0  0
  8 11  1  0  0  0  0
  8 45  1  0  0  0  0
  9 24  1  0  0  0  0
 10 24  2  0  0  0  0
 11 14  1  0  0  0  0
 11 17  1  0  0  0  0
 11 46  1  0  0  0  0
 12 25  1  0  0  0  0
 12 30  1  0  0  0  0
 13 30  2  0  0  0  0
 15 45  1  0  0  0  0
 15 48  1  0  0  0  0
 16 30  1  0  0  0  0
 16 31  1  0  0  0  0
 18 45  2  0  0  0  0
 19 20  1  0  0  0  0
 20 21  1  0  0  0  0
 22 23  1  0  0  0  0
 23 32  2  0  0  0  0
 23 36  1  0  0  0  0
 24 25  1  0  0  0  0
 25 26  1  0  0  0  0
 26 27  1  0  0  0  0
 26 28  1  0  0  0  0
 26 29  1  0  0  0  0
 32 33  1  0  0  0  0
 33 34  2  0  0  0  0
 34 35  1  0  0  0  0
 35 36  2  0  0  0  0
 37 38  1  0  0  0  0
 38 39  2  0  0  0  0
 38 43  1  0  0  0  0
 39 40  1  0  0  0  0
 40 41  2  0  0  0  0
 41 42  1  0  0  0  0
 42 43  2  0  0  0  0
 44 47  2  0  0  0  0
 47 48  1  0  0  0  0
A    1
BR
A    2
C1
A    3
N1
A    4
O1
A    5
C2
A    6
N2
A    7
O2
A    8
C3
A    9
N3
A   10
O3
A   11
C4
A   12
N4
A   13
O4
A   14
C5
A   15
N5
A   16
O5
A   17
C6
A   18
O6
A   19
C7
A   20
C8
A   21
C9
A   22
C10
A   23
C11
A   24
C12
A   25
C13
A   26
C14
A   27
C15
A   28
C16
A   29
C17
A   30
C18
A   31
C19
A   32
C20
A   33
C21
A   34
C22
A   35
C23
A   36
C24
A   37
C25
A   38
C26
A   39
C27
A   40
C28
A   41
C29
A   42
C30
A   43
C31
A   44
C33
A   45
C34
A   46
C35
A   47
C36
A   48
C37
M  END
>  <InstanceId>
3ZPS_EQM_B_1202

>  <ChemCompId>
EQM

>  <PdbId>
3ZPS

>  <ChainId>
B

>  <ResidueNumber>
1202

>  <InsertionCode>


>  <Model>
1

>  <AltIds>


>  <MissingHeavyAtoms>
0

>  <ObservedFormula>
C36 N5 O6 Br

>  <Name>
methyl N-[(2S)-1-[2-[(4-bromophenyl)methyl]-2-[(4R)-5-[[(2S)-3,3-dimethyl-1-oxidanylidene-1-(prop-2-enylamino)butan-2-yl]amino]-4-oxidanyl-5-oxidanylidene-4-(phenylmethyl)pentyl]hydrazinyl]-3,3-dimethyl-1-oxidanylidene-butan-2-yl]carbamate

>  <SystematicName>
methyl N-[(2S)-1-[2-[(4-bromophenyl)methyl]-2-[(4R)-5-[[(2S)-3,3-dimethyl-1-oxidanylidene-1-(prop-2-enylamino)butan-2-yl]amino]-4-oxidanyl-5-oxidanylidene-4-(phenylmethyl)pentyl]hydrazinyl]-3,3-dimethyl-1-oxidanylidene-butan-2-yl]carbamate

>  <Synonyms>


>  <Type>
NON-POLYMER

>  <Formula>
C36 H52 Br N5 O6

>  <MolecularWeight>
730.732

>  <ModifiedDate>
2013-11-01

>  <Parent>


>  <OneLetterCode>


>  <SubcomponentList>


>  <AmbiguousFlag>
N

>  <InChI>
InChI=1S/C36H52BrN5O6/c1-9-21-38-30(43)28(34(2,3)4)39-32(45)36(47,23-25-14-11-10-12-15-25)20-13-22-42(24-26-16-18-27(37)19-17-26)41-31(44)29(35(5,6)7)40-33(46)48-8/h9-12,14-19,28-29,47H,1,13,20-24H2,2-8H3,(H,38,43)(H,39,45)(H,40,46)(H,41,44)/t28-,29-,36-/m1/s1

>  <InChIKey>
SCBLWEFHRVDOAJ-DFNFTQNPSA-N

>  <SMILES>
CC(C)(C)[C@@H](C(=O)NCC=C)NC(=O)[C@@](CCCN(Cc1ccc(cc1)Br)NC(=O)[C@H](C(C)(C)C)NC(=O)OC)(Cc2ccccc2)O

$$$$
