3G1V_5FU_A_501
  RCSB PDB12061708413D
Coordinates from PDB:3G1V:A:501 Model:1 without hydrogens
 22 23  0  0  0  0            999 V2000
    8.9240    6.1900   -0.0760   F 0  0  0  0  0  0  0  0  0  0  0  0
    8.6290    5.3510    0.9880   C 0  0  0  0  0  0  0  0  0  0  0  0
    7.5110    5.5470    1.7610   C 0  0  0  0  0  0  0  0  0  0  0  0
    6.7040    6.5140    1.5860   O 0  0  0  0  0  0  0  0  0  0  0  0
    7.2240    4.6810    2.7620   N 0  0  0  0  0  0  0  0  0  0  0  0
    7.9930    3.5680    2.9890   C 0  0  0  0  0  0  0  0  0  0  0  0
    7.6710    2.7830    3.8900   O 0  0  0  0  0  0  0  0  0  0  0  0
    9.4820    4.2940    1.2660   C 0  0  0  0  0  0  0  0  0  0  0  0
    9.1170    3.3600    2.1790   N 0  0  0  0  0  0  0  0  0  0  0  0
    9.9360    2.1300    2.2430   C 0  0  0  0  0  0  0  0  0  0  0  0
    9.0740    0.9910    1.9990   O 0  0  0  0  0  0  0  0  0  0  0  0
   10.6230    1.8320    3.5600   C 0  0  0  0  0  0  0  0  0  0  0  0
   11.9040    2.4390    3.6890   O 0  0  0  0  0  0  0  0  0  0  0  0
   10.6770    0.3420    3.5800   C 0  0  0  0  0  0  0  0  0  0  0  0
   11.8230   -0.1070    2.8390   O 0  0  0  0  0  0  0  0  0  0  0  0
    9.4050   -0.0710    2.9170   C 0  0  0  0  0  0  0  0  0  0  0  0
    8.2370   -0.2410    3.8800   C 0  0  0  0  0  0  0  0  0  0  0  0
    8.4900   -1.4310    4.6180   O 0  0  0  0  0  0  0  0  0  0  0  0
    7.4870   -1.9610    5.7610   P 0  0  0  0  0  0  0  0  0  0  0  0
    8.4250   -2.7280    6.6350   O 0  0  0  0  0  0  0  0  0  0  0  0
    6.8760   -0.7730    6.4530   O 0  0  0  0  0  0  0  0  0  0  0  0
    6.4880   -2.8440    5.0820   O 0  0  0  0  0  0  0  0  0  0  0  0
  1  2  1  0  0  0  0
  2  8  2  0  0  0  0
  2  3  1  0  0  0  0
  3  4  2  0  0  0  0
  3  5  1  0  0  0  0
  5  6  1  0  0  0  0
  6  9  1  0  0  0  0
  6  7  2  0  0  0  0
  8  9  1  0  0  0  0
  9 10  1  0  0  0  0
 10 12  1  0  0  0  0
 10 11  1  0  0  0  0
 11 16  1  0  0  0  0
 12 13  1  0  0  0  0
 12 14  1  0  0  0  0
 14 16  1  0  0  0  0
 14 15  1  0  0  0  0
 16 17  1  0  0  0  0
 17 18  1  0  0  0  0
 18 19  1  0  0  0  0
 19 20  2  0  0  0  0
 19 21  1  0  0  0  0
 19 22  1  0  0  0  0
A    1
F5
A    2
C5
A    3
C4
A    4
O4
A    5
N3
A    6
C2
A    7
O2
A    8
C6
A    9
N1
A   10
C1'
A   11
O4'
A   12
C2'
A   13
O2'
A   14
C3'
A   15
O3'
A   16
C4'
A   17
C5'
A   18
O5'
A   19
P
A   20
O1P
A   21
O2P
A   22
O3P
M  END
>  <InstanceId>
3G1V_5FU_A_501

>  <ChemCompId>
5FU

>  <PdbId>
3G1V

>  <ChainId>
A

>  <ResidueNumber>
501

>  <InsertionCode>


>  <Model>
1

>  <AltIds>


>  <MissingHeavyAtoms>
0

>  <ObservedFormula>
C9 N2 O9 P F

>  <Name>
5-FLUORO-URIDINE-5'-MONOPHOSPHATE

>  <SystematicName>
[(2R,3S,4R,5R)-5-(5-fluoro-2,4-dioxo-pyrimidin-1-yl)-3,4-dihydroxy-oxolan-2-yl]methyl dihydrogen phosphate

>  <Synonyms>


>  <Type>
RNA LINKING

>  <Formula>
C9 H12 F N2 O9 P

>  <MolecularWeight>
342.172

>  <ModifiedDate>
2011-06-04

>  <Parent>
U

>  <OneLetterCode>
U

>  <SubcomponentList>


>  <AmbiguousFlag>
N

>  <InChI>
InChI=1S/C9H12FN2O9P/c10-3-1-12(9(16)11-7(3)15)8-6(14)5(13)4(21-8)2-20-22(17,18)19/h1,4-6,8,13-14H,2H2,(H,11,15,16)(H2,17,18,19)/t4-,5-,6-,8-/m1/s1

>  <InChIKey>
RNBMPPYRHNWTMA-UAKXSSHOSA-N

>  <SMILES>
C1=C(C(=O)NC(=O)N1[C@H]2[C@@H]([C@@H]([C@H](O2)COP(=O)(O)O)O)O)F

$$$$
