3S72_EVE_B_1
  RCSB PDB12061710413D
Coordinates from PDB:3S72:B:1 Model:1 without hydrogens
 13 14  0  0  0  0            999 V2000
   15.5820   -0.3750   16.2530   N 0  0  0  0  0  0  0  0  0  0  0  0
   15.0500    0.9700   16.8670   S 0  0  0  0  0  0  0  0  0  0  0  0
   15.0080    3.2680   15.3490   N 0  0  0  0  0  0  0  0  0  0  0  0
   15.5490    1.1130   18.1900   O 0  0  0  0  0  0  0  0  0  0  0  0
   15.7310    2.2650   15.9790   C 0  0  0  0  0  0  0  0  0  0  0  0
   17.0990    2.4290   15.8280   N 0  0  0  0  0  0  0  0  0  0  0  0
   13.6300    1.1000   16.6920   O 0  0  0  0  0  0  0  0  0  0  0  0
   15.8260    5.2200   14.0690   C 0  0  0  0  0  0  0  0  0  0  0  0
   17.0480    5.7890   13.6630   C 0  0  0  0  0  0  0  0  0  0  0  0
   18.3300    5.3130   13.9600   C 0  0  0  0  0  0  0  0  0  0  0  0
   18.4910    4.1920   14.7530   C 0  0  0  0  0  0  0  0  0  0  0  0
   17.2520    3.5660   15.0970   C 0  0  0  0  0  0  0  0  0  0  0  0
   15.9790    4.0500   14.8240   C 0  0  0  0  0  0  0  0  0  0  0  0
  1  2  1  0  0  0  0
  5  2  1  0  0  0  0
  7  2  2  0  0  0  0
  2  4  2  0  0  0  0
 13  3  1  0  0  0  0
  3  5  1  0  0  0  0
  6  5  2  0  0  0  0
 12  6  1  0  0  0  0
  9  8  1  0  0  0  0
  8 13  2  0  0  0  0
  9 10  2  0  0  0  0
 10 11  1  0  0  0  0
 11 12  2  0  0  0  0
 13 12  1  0  0  0  0
A    1
N
A    2
S
A    3
N1
A    4
O1
A    5
C2
A    6
N2
A    7
O2
A    8
C4
A    9
C5
A   10
C6
A   11
C7
A   12
C8
A   13
C9
M  END
>  <InstanceId>
3S72_EVE_B_1

>  <ChemCompId>
EVE

>  <PdbId>
3S72

>  <ChainId>
B

>  <ResidueNumber>
1

>  <InsertionCode>


>  <Model>
1

>  <AltIds>


>  <MissingHeavyAtoms>
0

>  <ObservedFormula>
C7 N3 O2 S

>  <Name>
1H-benzimidazole-2-sulfonamide

>  <SystematicName>
1H-benzimidazole-2-sulfonamide

>  <Synonyms>


>  <Type>
NON-POLYMER

>  <Formula>
C7 H7 N3 O2 S

>  <MolecularWeight>
197.214

>  <ModifiedDate>
2011-10-14

>  <Parent>


>  <OneLetterCode>


>  <SubcomponentList>


>  <AmbiguousFlag>
N

>  <InChI>
InChI=1S/C7H7N3O2S/c8-13(11,12)7-9-5-3-1-2-4-6(5)10-7/h1-4H,(H,9,10)(H2,8,11,12)

>  <InChIKey>
XRGHQBXKSHAQRB-UHFFFAOYSA-N

>  <SMILES>
c1ccc2c(c1)[nH]c(n2)S(=O)(=O)N

$$$$
