5KA7_OTA_A_303


 22 23  0  0  0  0  0  0  0  0999 V2000
  -42.5014   10.6911   -0.3757 N   0  0  0  0  0  0  0  0  0  0  0  0
  -42.2290   10.8297    1.0488 C   0  0  0  0  0  0  0  0  0  0  0  0
  -42.6472   12.1369    1.7198 C   0  0  0  0  0  0  0  0  0  0  0  0
  -43.5165   12.9646    0.9462 C   0  0  0  0  0  0  0  0  0  0  0  0
  -44.0270   12.5868   -0.4010 C   0  0  0  0  0  0  0  0  0  0  0  0
  -43.8080   11.1882   -0.7970 C   0  0  0  0  0  0  0  0  0  0  0  0
  -42.2818   12.8271    3.1056 S   0  0  0  0  0  0  0  0  0  0  0  0
  -43.1260   14.1605    3.0103 C   0  0  0  0  0  0  0  0  0  0  0  0
  -43.8158   14.2504    1.7877 C   0  0  0  0  0  0  0  0  0  0  0  0
  -42.4455    9.7012   -0.6153 H   0  0  0  0  0  0  0  0  0  0  0  0
  -44.7180   15.4383    1.3228 C   0  0  0  0  0  0  0  0  0  0  0  0
  -45.3389   16.1426    2.2171 O   0  0  0  0  0  0  0  0  0  0  0  0
  -44.8242   15.7075    0.0928 O   0  0  0  0  0  0  0  0  0  0  0  0
  -45.2500   15.9302    3.1254 H   0  0  0  0  0  0  0  0  0  0  0  0
  -43.2904   15.2464    3.9035 N   0  0  0  0  0  0  0  0  0  0  0  0
  -42.2365   15.9013    4.5396 C   0  0  0  0  0  0  0  0  0  0  0  0
  -41.0383   15.6116    4.3610 O   0  0  0  0  0  0  0  0  0  0  0  0
  -44.2059   15.5587    4.0869 H   0  0  0  0  0  0  0  0  0  0  0  0
  -42.6912   17.0257    5.4385 C   0  0  0  0  0  0  0  0  0  0  0  0
  -41.8166   17.6319    6.1487 O   0  0  0  0  0  0  0  0  0  0  0  0
  -43.8911   17.3674    5.3695 O   0  0  0  0  0  0  0  0  0  0  0  0
  -40.9302   17.3283    6.1602 H   0  0  0  0  0  0  0  0  0  0  0  0
  1  2  1  0  0  0
  1  6  1  0  0  0
  2  3  1  0  0  0
  3  4  2  0  0  0
  3  7  1  0  0  0
  4  5  1  0  0  0
  4  9  1  0  0  0
  5  6  1  0  0  0
  7  8  1  0  0  0
  8  9  2  0  0  0
  8 15  1  0  0  0
  9 11  1  0  0  0
 11 12  1  0  0  0
 11 13  2  0  0  0
 15 16  1  0  0  0
 16 19  1  0  0  0
 16 17  2  0  0  0
 19 20  1  0  0  0
 19 21  2  0  0  0
  1 10  1  0  0  0
 12 14  1  0  0  0
 15 18  1  0  0  0
 20 22  1  0  0  0
M  END
> <minimizedAffinity>
-8.03640

$$$$
5KA7_OTA_A_303


 22 23  0  0  0  0  0  0  0  0999 V2000
  -44.9792   11.7336   -2.5415 N   0  0  0  0  0  0  0  0  0  0  0  0
  -44.9596   13.1265   -2.1145 C   0  0  0  0  0  0  0  0  0  0  0  0
  -44.4205   13.4248   -0.7165 C   0  0  0  0  0  0  0  0  0  0  0  0
  -43.7286   12.3441   -0.0900 C   0  0  0  0  0  0  0  0  0  0  0  0
  -43.4984   11.0263   -0.7447 C   0  0  0  0  0  0  0  0  0  0  0  0
  -43.7865   10.9706   -2.1851 C   0  0  0  0  0  0  0  0  0  0  0  0
  -44.5023   14.6882    0.2465 S   0  0  0  0  0  0  0  0  0  0  0  0
  -43.7005   14.1617    1.5035 C   0  0  0  0  0  0  0  0  0  0  0  0
  -43.2717   12.8339    1.3250 C   0  0  0  0  0  0  0  0  0  0  0  0
  -45.0779   11.7136   -3.5565 H   0  0  0  0  0  0  0  0  0  0  0  0
  -42.4870   11.9705    2.3642 C   0  0  0  0  0  0  0  0  0  0  0  0
  -42.0550   12.5333    3.4497 O   0  0  0  0  0  0  0  0  0  0  0  0
  -42.2925   10.7411    2.1462 O   0  0  0  0  0  0  0  0  0  0  0  0
  -42.2072   13.4461    3.5967 H   0  0  0  0  0  0  0  0  0  0  0  0
  -43.3643   14.7679    2.7377 N   0  0  0  0  0  0  0  0  0  0  0  0
  -44.2324   15.5720    3.4753 C   0  0  0  0  0  0  0  0  0  0  0  0
  -45.4053   15.8137    3.1323 O   0  0  0  0  0  0  0  0  0  0  0  0
  -42.4614   14.6120    3.0977 H   0  0  0  0  0  0  0  0  0  0  0  0
  -43.6207   16.0898    4.7547 C   0  0  0  0  0  0  0  0  0  0  0  0
  -42.7415   15.3725    5.3455 O   0  0  0  0  0  0  0  0  0  0  0  0
  -43.9402   17.2413    5.1196 O   0  0  0  0  0  0  0  0  0  0  0  0
  -42.5441   14.5146    5.0247 H   0  0  0  0  0  0  0  0  0  0  0  0
  1  2  1  0  0  0
  1  6  1  0  0  0
  2  3  1  0  0  0
  3  4  2  0  0  0
  3  7  1  0  0  0
  4  5  1  0  0  0
  4  9  1  0  0  0
  5  6  1  0  0  0
  7  8  1  0  0  0
  8  9  2  0  0  0
  8 15  1  0  0  0
  9 11  1  0  0  0
 11 12  1  0  0  0
 11 13  2  0  0  0
 15 16  1  0  0  0
 16 19  1  0  0  0
 16 17  2  0  0  0
 19 20  1  0  0  0
 19 21  2  0  0  0
  1 10  1  0  0  0
 12 14  1  0  0  0
 15 18  1  0  0  0
 20 22  1  0  0  0
M  END
> <minimizedAffinity>
-6.05652

$$$$
5KA7_OTA_A_303


 22 23  0  0  0  0  0  0  0  0999 V2000
  -43.0315   15.5805    3.4611 N   0  0  0  0  0  0  0  0  0  0  0  0
  -44.0109   15.1864    2.4570 C   0  0  0  0  0  0  0  0  0  0  0  0
  -43.7585   13.8813    1.7042 C   0  0  0  0  0  0  0  0  0  0  0  0
  -42.7455   13.0446    2.2637 C   0  0  0  0  0  0  0  0  0  0  0  0
  -42.0034   13.3755    3.5119 C   0  0  0  0  0  0  0  0  0  0  0  0
  -42.5484   14.4890    4.3019 C   0  0  0  0  0  0  0  0  0  0  0  0
  -44.3517   13.2493    0.3704 S   0  0  0  0  0  0  0  0  0  0  0  0
  -43.5420   11.8935    0.2929 C   0  0  0  0  0  0  0  0  0  0  0  0
  -42.6239   11.7775    1.3523 C   0  0  0  0  0  0  0  0  0  0  0  0
  -43.4602   16.2815    4.0655 H   0  0  0  0  0  0  0  0  0  0  0  0
  -41.6271   10.5968    1.5840 C   0  0  0  0  0  0  0  0  0  0  0  0
  -40.7114   10.3647    0.6956 O   0  0  0  0  0  0  0  0  0  0  0  0
  -41.7131    9.8930    2.6299 O   0  0  0  0  0  0  0  0  0  0  0  0
  -40.6608   10.8957   -0.0748 H   0  0  0  0  0  0  0  0  0  0  0  0
  -43.5696   10.8223   -0.6320 N   0  0  0  0  0  0  0  0  0  0  0  0
  -43.0982   10.9083   -1.9415 C   0  0  0  0  0  0  0  0  0  0  0  0
  -42.5775   11.9339   -2.4194 O   0  0  0  0  0  0  0  0  0  0  0  0
  -43.9450    9.9630   -0.3321 H   0  0  0  0  0  0  0  0  0  0  0  0
  -43.2461    9.6187   -2.7125 C   0  0  0  0  0  0  0  0  0  0  0  0
  -42.2279    8.8520   -2.8216 O   0  0  0  0  0  0  0  0  0  0  0  0
  -44.3879    9.3237   -3.1254 O   0  0  0  0  0  0  0  0  0  0  0  0
  -41.3955    9.1287   -2.4921 H   0  0  0  0  0  0  0  0  0  0  0  0
  1  2  1  0  0  0
  1  6  1  0  0  0
  2  3  1  0  0  0
  3  4  2  0  0  0
  3  7  1  0  0  0
  4  5  1  0  0  0
  4  9  1  0  0  0
  5  6  1  0  0  0
  7  8  1  0  0  0
  8  9  2  0  0  0
  8 15  1  0  0  0
  9 11  1  0  0  0
 11 12  1  0  0  0
 11 13  2  0  0  0
 15 16  1  0  0  0
 16 19  1  0  0  0
 16 17  2  0  0  0
 19 20  1  0  0  0
 19 21  2  0  0  0
  1 10  1  0  0  0
 12 14  1  0  0  0
 15 18  1  0  0  0
 20 22  1  0  0  0
M  END
> <minimizedAffinity>
-5.91097

$$$$
5KA7_OTA_A_303


 22 23  0  0  0  0  0  0  0  0999 V2000
  -44.3696   10.5098   -3.2028 N   0  0  0  0  0  0  0  0  0  0  0  0
  -44.2768   10.1960   -1.7830 C   0  0  0  0  0  0  0  0  0  0  0  0
  -44.1966   11.3696   -0.8083 C   0  0  0  0  0  0  0  0  0  0  0  0
  -44.5101   12.6454   -1.3681 C   0  0  0  0  0  0  0  0  0  0  0  0
  -44.9283   12.8409   -2.7841 C   0  0  0  0  0  0  0  0  0  0  0  0
  -45.2658   11.6166   -3.5244 C   0  0  0  0  0  0  0  0  0  0  0  0
  -43.7816   11.5013    0.7217 S   0  0  0  0  0  0  0  0  0  0  0  0
  -43.9585   13.0560    0.9494 C   0  0  0  0  0  0  0  0  0  0  0  0
  -44.3575   13.7099   -0.2303 C   0  0  0  0  0  0  0  0  0  0  0  0
  -44.7031    9.6785   -3.6909 H   0  0  0  0  0  0  0  0  0  0  0  0
  -44.5934   15.2452   -0.3993 C   0  0  0  0  0  0  0  0  0  0  0  0
  -44.8810   15.9551    0.6470 O   0  0  0  0  0  0  0  0  0  0  0  0
  -44.4911   15.7786   -1.5403 O   0  0  0  0  0  0  0  0  0  0  0  0
  -44.9534   15.5447    1.4862 H   0  0  0  0  0  0  0  0  0  0  0  0
  -43.7775   13.8755    2.0893 N   0  0  0  0  0  0  0  0  0  0  0  0
  -42.7019   13.7634    2.9694 C   0  0  0  0  0  0  0  0  0  0  0  0
  -41.7745   12.9449    2.8219 O   0  0  0  0  0  0  0  0  0  0  0  0
  -44.4531   14.5679    2.2720 H   0  0  0  0  0  0  0  0  0  0  0  0
  -42.7525   14.7620    4.1005 C   0  0  0  0  0  0  0  0  0  0  0  0
  -43.5112   15.7849    3.9789 O   0  0  0  0  0  0  0  0  0  0  0  0
  -42.1176   14.4852    5.1404 O   0  0  0  0  0  0  0  0  0  0  0  0
  -43.9625   15.9402    3.1725 H   0  0  0  0  0  0  0  0  0  0  0  0
  1  2  1  0  0  0
  1  6  1  0  0  0
  2  3  1  0  0  0
  3  4  2  0  0  0
  3  7  1  0  0  0
  4  5  1  0  0  0
  4  9  1  0  0  0
  5  6  1  0  0  0
  7  8  1  0  0  0
  8  9  2  0  0  0
  8 15  1  0  0  0
  9 11  1  0  0  0
 11 12  1  0  0  0
 11 13  2  0  0  0
 15 16  1  0  0  0
 16 19  1  0  0  0
 16 17  2  0  0  0
 19 20  1  0  0  0
 19 21  2  0  0  0
  1 10  1  0  0  0
 12 14  1  0  0  0
 15 18  1  0  0  0
 20 22  1  0  0  0
M  END
> <minimizedAffinity>
-5.59964

$$$$
