5KA7_OTA_A_303
  RCSB PDB12061718343D
Coordinates from PDB:5KA7:A:303 Model:1 without hydrogens
 18 19  0  0  0  0            999 V2000
  -42.5890   10.4530    0.0390   N 0  0  0  0  0  0  0  0  0  0  0  0
  -42.3690   10.7370    1.4510   C 0  0  0  0  0  0  0  0  0  0  0  0
  -42.7580   12.1250    1.9570   C 0  0  0  0  0  0  0  0  0  0  0  0
  -43.5590   12.8950    1.0600   C 0  0  0  0  0  0  0  0  0  0  0  0
  -44.0300   12.3910   -0.2600   C 0  0  0  0  0  0  0  0  0  0  0  0
  -43.8550   10.9500   -0.4920   C 0  0  0  0  0  0  0  0  0  0  0  0
  -42.4200   12.9490    3.2750   S 0  0  0  0  0  0  0  0  0  0  0  0
  -43.2020   14.2950    2.9980   C 0  0  0  0  0  0  0  0  0  0  0  0
  -43.8370   14.2760    1.7430   C 0  0  0  0  0  0  0  0  0  0  0  0
  -44.6680   15.4390    1.1120   C 0  0  0  0  0  0  0  0  0  0  0  0
  -45.1170   16.3800    1.8830   O 0  0  0  0  0  0  0  0  0  0  0  0
  -44.8830   15.4590   -0.1330   O 0  0  0  0  0  0  0  0  0  0  0  0
  -43.3560   15.4780    3.7600   N 0  0  0  0  0  0  0  0  0  0  0  0
  -42.8180   15.6630    5.0330   C 0  0  0  0  0  0  0  0  0  0  0  0
  -43.1320   17.0180    5.6200   C 0  0  0  0  0  0  0  0  0  0  0  0
  -42.2000   17.6530    6.2240   O 0  0  0  0  0  0  0  0  0  0  0  0
  -44.2680   17.4900    5.4010   O 0  0  0  0  0  0  0  0  0  0  0  0
  -42.1210   14.8110    5.6160   O 0  0  0  0  0  0  0  0  0  0  0  0
  1  2  1  0  0  0  0
  1  6  1  0  0  0  0
  2  3  1  0  0  0  0
  3  4  2  0  0  0  0
  3  7  1  0  0  0  0
  4  5  1  0  0  0  0
  4  9  1  0  0  0  0
  5  6  1  0  0  0  0
  7  8  1  0  0  0  0
  8  9  2  0  0  0  0
  8 13  1  0  0  0  0
  9 10  1  0  0  0  0
 10 11  1  0  0  0  0
 10 12  2  0  0  0  0
 13 14  1  0  0  0  0
 14 15  1  0  0  0  0
 14 18  2  0  0  0  0
 15 16  1  0  0  0  0
 15 17  2  0  0  0  0
A    1
N1
A    2
C2
A    3
C3
A    4
C4
A    5
C5
A    6
C6
A    7
S13
A    8
C14
A    9
C15
A   10
C16
A   11
O17
A   12
O18
A   13
N19
A   14
C20
A   15
C21
A   16
O22
A   17
O23
A   18
O24
M  END
>  <InstanceId>
5KA7_OTA_A_303

>  <ChemCompId>
OTA

>  <PdbId>
5KA7

>  <ChainId>
A

>  <ResidueNumber>
303

>  <InsertionCode>


>  <Model>
1

>  <AltIds>


>  <MissingHeavyAtoms>
0

>  <ObservedFormula>
C10 N2 O5 S

>  <Name>
2-(OXALYL-AMINO)-4,5,6,7-TETRAHYDRO-THIENO[2,3-C]PYRIDINE-3-CARBOXYLIC ACID

>  <SystematicName>
2-(carboxycarbonylamino)-4,5,6,7-tetrahydrothieno[5,4-c]pyridine-3-carboxylic acid

>  <Synonyms>


>  <Type>
NON-POLYMER

>  <Formula>
C10 H10 N2 O5 S

>  <MolecularWeight>
270.262

>  <ModifiedDate>
2011-06-04

>  <Parent>


>  <OneLetterCode>


>  <SubcomponentList>


>  <AmbiguousFlag>
N

>  <InChI>
InChI=1S/C10H10N2O5S/c13-7(10(16)17)12-8-6(9(14)15)4-1-2-11-3-5(4)18-8/h11H,1-3H2,(H,12,13)(H,14,15)(H,16,17)

>  <InChIKey>
ZIBMATWHOAGNTR-UHFFFAOYSA-N

>  <SMILES>
C1CNCc2c1c(c(s2)NC(=O)C(=O)O)C(=O)O

$$$$
