3IAE_D7K_A_571
  RCSB PDB12061709023D
Coordinates from PDB:3IAE:A:571 Model:1 without hydrogens
 39 41  0  0  0  0            999 V2000
   -2.9350  -50.0030  -29.7900   P 0  0  0  0  0  0  0  0  0  0  0  0
   -3.4690  -50.3920  -31.2990   O 0  0  0  0  0  0  0  0  0  0  0  0
   -2.1510  -51.1960  -29.3770   O 0  0  0  0  0  0  0  0  0  0  0  0
   -6.5320  -49.3790  -28.0370   O 0  0  0  0  0  0  0  0  0  0  0  0
   -5.2280  -48.6220  -28.7190   P 0  0  0  0  0  0  0  0  0  0  0  0
   -5.3710  -48.1810  -30.3110   O 0  0  0  0  0  0  0  0  0  0  0  0
   -4.7880  -47.4280  -27.9440   O 0  0  0  0  0  0  0  0  0  0  0  0
   -4.0870  -49.8160  -28.6440   O 0  0  0  0  0  0  0  0  0  0  0  0
   -2.1400  -48.5730  -29.8520   O 0  0  0  0  0  0  0  0  0  0  0  0
   -1.3480  -48.1590  -28.7760   C 0  0  0  0  0  0  0  0  0  0  0  0
   -1.0560  -46.6940  -29.0850   C 0  0  0  0  0  0  0  0  0  0  0  0
    0.0210  -46.0960  -28.1720   C 0  0  0  0  0  0  0  0  0  0  0  0
    1.5350  -45.9340  -28.5530   C 0  0  0  0  0  0  0  0  0  0  0  0
    2.1690  -46.3630  -29.8810   C 0  0  0  0  0  0  0  0  0  0  0  0
   -0.2430  -45.5120  -26.6440   S 0  0  0  0  0  0  0  0  0  0  0  0
    1.4000  -45.0210  -26.2400   C 0  0  0  0  0  0  0  0  0  0  0  0
    2.3460  -45.2760  -27.4010   N 0  3  0  0  0  0  0  0  0  0  0  0
    3.7810  -45.0010  -27.4720   C 0  0  0  0  0  0  0  0  0  0  0  0
    4.6090  -46.2880  -27.4480   C 0  0  0  0  0  0  0  0  0  0  0  0
    5.5100  -46.6180  -28.5840   C 0  0  0  0  0  0  0  0  0  0  0  0
    4.5560  -47.1930  -26.2470   C 0  0  0  0  0  0  0  0  0  0  0  0
    3.7200  -46.9170  -25.1240   N 0  0  0  0  0  0  0  0  0  0  0  0
    5.3490  -48.3900  -26.1750   N 0  0  0  0  0  0  0  0  0  0  0  0
    6.2510  -48.7460  -27.2810   C 0  0  0  0  0  0  0  0  0  0  0  0
    6.3070  -47.8450  -28.4850   N 0  0  0  0  0  0  0  0  0  0  0  0
    7.0560  -50.0310  -27.1810   C 0  0  0  0  0  0  0  0  0  0  0  0
    2.8270  -42.2120  -26.5240   O 0  0  0  0  0  0  0  0  0  0  0  0
    1.6620  -42.3300  -25.3850   P 0  0  0  0  0  0  0  0  0  0  0  0
    0.3650  -41.8580  -25.9190   O 0  0  0  0  0  0  0  0  0  0  0  0
    2.0310  -41.4840  -23.9720   O 0  0  0  0  0  0  0  0  0  0  0  0
    1.0330  -40.8810  -23.1800   C 0  0  0  0  0  0  0  0  0  0  0  0
    1.6530  -44.1680  -24.9640   C 0  0  0  0  0  0  0  0  0  0  0  0
    2.9620  -44.4340  -24.4670   O 0  0  0  0  0  0  0  0  0  0  0  0
    0.5300  -44.5120  -23.9190   C 0  0  0  0  0  0  0  0  0  0  0  0
    0.7560  -45.6130  -22.8370   C 0  0  0  0  0  0  0  0  0  0  0  0
   -0.3190  -45.9570  -21.8040   C 0  0  0  0  0  0  0  0  0  0  0  0
   -1.6820  -45.2160  -21.8230   C 0  0  0  0  0  0  0  0  0  0  0  0
   -1.9280  -44.1240  -22.8780   C 0  0  0  0  0  0  0  0  0  0  0  0
   -0.8340  -43.7810  -23.9220   C 0  0  0  0  0  0  0  0  0  0  0  0
  1  3  1  0  0  0  0
  1  8  1  0  0  0  0
  2  1  2  0  0  0  0
  5  4  1  0  0  0  0
  5  8  1  0  0  0  0
  5  7  1  0  0  0  0
  6  5  2  0  0  0  0
  9  1  1  0  0  0  0
  9 10  1  0  0  0  0
 11 10  1  0  0  0  0
 11 12  1  0  0  0  0
 12 15  1  0  0  0  0
 13 12  2  0  0  0  0
 13 17  1  0  0  0  0
 14 13  1  0  0  0  0
 15 16  1  0  0  0  0
 16 32  1  0  0  0  0
 17 16  2  0  0  0  0
 17 18  1  0  0  0  0
 19 18  1  0  0  0  0
 19 21  1  0  0  0  0
 20 19  2  0  0  0  0
 20 25  1  0  0  0  0
 21 22  1  0  0  0  0
 23 21  2  0  0  0  0
 24 23  1  0  0  0  0
 24 26  1  0  0  0  0
 25 24  2  0  0  0  0
 27 28  2  0  0  0  0
 28 32  1  0  0  0  0
 28 30  1  0  0  0  0
 29 28  1  0  0  0  0
 30 31  1  0  0  0  0
 32 33  1  0  0  0  0
 32 34  1  0  0  0  0
 34 35  1  0  0  0  0
 35 36  2  0  0  0  0
 37 36  1  0  0  0  0
 38 37  2  0  0  0  0
 39 34  2  0  0  0  0
 39 38  1  0  0  0  0
M  CHG  1  17   1
A    1
PA
A    2
O1A
A    3
O2A
A    4
O1B
A    5
PB
A    6
O2B
A    7
O3B
A    8
O3A
A    9
O01
A   10
C01
A   11
C05
A   12
C04
A   13
C03
A   14
CM4
A   15
S1
A   16
C02
A   17
N3
A   18
C7,
A   19
C5,
A   20
C6,
A   21
C4,
A   22
N4,
A   23
N3,
A   24
C2,
A   25
N1,
A   26
CM2
A   27
O12
A   28
P8
A   29
O11
A   30
O9
A   31
C10
A   32
C7
A   33
O7
A   34
C2
A   35
C3
A   36
C4
A   37
C5
A   38
C6
A   39
C1
M  END
>  <InstanceId>
3IAE_D7K_A_571

>  <ChemCompId>
D7K

>  <PdbId>
3IAE

>  <ChainId>
A

>  <ResidueNumber>
571

>  <InsertionCode>


>  <Model>
1

>  <AltIds>


>  <MissingHeavyAtoms>
0

>  <ObservedFormula>
C20 N4 O11 P3 S

>  <Name>
3-[(4-amino-2-methylpyrimidin-5-yl)methyl]-2-{(S)-hydroxy[(R)-hydroxy(methoxy)phosphoryl]phenylmethyl}-5-(2-{[(R)-hydroxy(phosphonooxy)phosphoryl]oxy}ethyl)-4-methyl-1,3-thiazol-3-ium

>  <SystematicName>
[(S)-[3-[(4-amino-2-methyl-pyrimidin-5-yl)methyl]-5-[2-(hydroxy-phosphonooxy-phosphoryl)oxyethyl]-4-methyl-1,3-thiazol-3-ium-2-yl]-hydroxy-phenyl-methyl]-methoxy-phosphinic acid

>  <Synonyms>


>  <Type>
NON-POLYMER

>  <Formula>
C20 H28 N4 O11 P3 S

>  <MolecularWeight>
625.443

>  <ModifiedDate>
2011-06-04

>  <Parent>


>  <OneLetterCode>


>  <SubcomponentList>


>  <AmbiguousFlag>
N

>  <InChI>
InChI=1S/C20H27N4O11P3S/c1-13-17(9-10-34-38(31,32)35-37(28,29)30)39-19(24(13)12-15-11-22-14(2)23-18(15)21)20(25,36(26,27)33-3)16-7-5-4-6-8-16/h4-8,11,25H,9-10,12H2,1-3H3,(H5-,21,22,23,26,27,28,29,30,31,32)/p+1/t20-/m0/s1

>  <InChIKey>
NEEQBMRCDKRNBV-FQEVSTJZSA-O

>  <SMILES>
Cc1c(sc([n+]1Cc2cnc(nc2N)C)[C@@](c3ccccc3)(O)[P@@](=O)(O)OC)CCO[P@@](=O)(O)OP(=O)(O)O

$$$$
