6CN5_F7M_A_601
  RCSB PDB09151803293D
Coordinates from PDB:6CN5:A:601 Model:1 without hydrogens
 35 39  0  0  0  0            999 V2000
   -6.4770   31.8310   -1.9120   C 0  0  0  0  0  0  0  0  0  0  0  0
   -6.3630   31.1930   -4.4160   C 0  0  0  0  0  0  0  0  0  0  0  0
   -7.7020   29.9680   -2.4300   C 0  0  0  0  0  0  0  0  0  0  0  0
   -6.7790   31.0100   -2.9590   C 0  0  0  0  0  0  0  0  0  0  0  0
   -8.4000   28.8740   -2.9480   C 0  0  0  0  0  0  0  0  0  0  0  0
   -6.6420   34.2360   -7.1660   C 0  0  0  0  0  0  0  0  0  0  0  0
   -5.9220   35.6020   -7.2960   C 0  0  0  0  0  0  0  0  0  0  0  0
   -7.7800   34.3090   -7.5790   O 0  0  0  0  0  0  0  0  0  0  0  0
  -11.1840   26.9320   -2.7970   C 0  0  0  0  0  0  0  0  0  0  0  0
  -11.9500   27.7860   -2.3730   O 0  0  0  0  0  0  0  0  0  0  0  0
   -7.8610   30.2370   -1.0610   C 0  0  0  0  0  0  0  0  0  0  0  0
   -7.0880   31.3440   -0.7780   N 0  0  0  0  0  0  0  0  0  0  0  0
   -8.6790   29.4260   -0.2410   C 0  0  0  0  0  0  0  0  0  0  0  0
   -9.1880   28.0890   -2.1260   C 0  0  0  0  0  0  0  0  0  0  0  0
   -7.6580   31.5770   -5.2110   C 0  0  0  0  0  0  0  0  0  0  0  0
   -5.2650   32.2860   -4.5930   C 0  0  0  0  0  0  0  0  0  0  0  0
   -9.3220   28.3530   -0.7520   C 0  0  0  0  0  0  0  0  0  0  0  0
   -9.8320   26.9950   -2.6890   N 0  0  0  0  0  0  0  0  0  0  0  0
   -7.3390   31.9230   -6.7070   C 0  0  0  0  0  0  0  0  0  0  0  0
   -5.0120   32.6450   -6.0690   C 0  0  0  0  0  0  0  0  0  0  0  0
   -6.2960   33.0020   -6.6870   N 0  0  0  0  0  0  0  0  0  0  0  0
  -11.7560   25.7770   -3.4450   C 0  0  0  0  0  0  0  0  0  0  0  0
  -11.0620   25.1430   -4.3870   N 0  0  0  0  0  0  0  0  0  0  0  0
  -11.5910   24.0940   -5.0460   C 0  0  0  0  0  0  0  0  0  0  0  0
  -12.8750   23.6210   -4.7580   C 0  0  0  0  0  0  0  0  0  0  0  0
  -13.6200   24.2870   -3.7340   C 0  0  0  0  0  0  0  0  0  0  0  0
  -13.0520   25.3800   -3.0540   C 0  0  0  0  0  0  0  0  0  0  0  0
  -14.9080   23.8810   -3.2620   C 0  0  0  0  0  0  0  0  0  0  0  0
  -15.9180   23.5480   -2.8760   N 0  0  0  0  0  0  0  0  0  0  0  0
   -5.0690   36.0710   -6.1460   C 0  0  0  0  0  0  0  0  0  0  0  0
   -4.4740   37.4820   -6.3890   C 0  0  0  0  0  0  0  0  0  0  0  0
   -4.2320   37.9820   -7.8440   C 0  0  0  0  0  0  0  0  0  0  0  0
   -4.9140   37.2240   -8.9860   C 0  0  0  0  0  0  0  0  0  0  0  0
   -5.2510   35.7830   -8.6710   C 0  0  0  0  0  0  0  0  0  0  0  0
   -7.0240   31.8960    0.5900   C 0  0  0  0  0  0  0  0  0  0  0  0
 33 34  1  0  0  0  0
 33 32  1  0  0  0  0
 34  7  1  0  0  0  0
 32 31  1  0  0  0  0
  8  6  2  0  0  0  0
  7  6  1  0  0  0  0
  7 30  1  0  0  0  0
  6 21  1  0  0  0  0
 19 21  1  0  0  0  0
 19 15  1  0  0  0  0
 21 20  1  0  0  0  0
 31 30  1  0  0  0  0
 20 16  1  0  0  0  0
 15  2  1  0  0  0  0
 24 25  2  0  0  0  0
 24 23  1  0  0  0  0
 25 26  1  0  0  0  0
 16  2  1  0  0  0  0
  2  4  1  0  0  0  0
 23 22  2  0  0  0  0
 26 28  1  0  0  0  0
 26 27  2  0  0  0  0
 22 27  1  0  0  0  0
 22  9  1  0  0  0  0
 28 29  3  0  0  0  0
  4  3  1  0  0  0  0
  4  1  2  0  0  0  0
  5  3  2  0  0  0  0
  5 14  1  0  0  0  0
  9 18  1  0  0  0  0
  9 10  2  0  0  0  0
 18 14  1  0  0  0  0
  3 11  1  0  0  0  0
 14 17  2  0  0  0  0
  1 12  1  0  0  0  0
 11 12  1  0  0  0  0
 11 13  2  0  0  0  0
 12 35  1  0  0  0  0
 17 13  1  0  0  0  0
A    1
C11
A    2
C10
A    3
C6
A    4
C7
A    5
C9
A    6
C2
A    7
C1
A    8
O3
A    9
C4
A   10
O5
A   11
C8
A   12
N12
A   13
C13
A   14
C14
A   15
C15
A   16
C16
A   17
C17
A   18
N18
A   19
C19
A   20
C20
A   21
N21
A   22
C22
A   23
N23
A   24
C24
A   25
C25
A   26
C26
A   27
C27
A   28
C28
A   29
N29
A   30
C30
A   31
C31
A   32
C32
A   33
C33
A   34
C34
A   35
C35
M  END
>  <InstanceId>
6CN5_F7M_A_601

>  <ChemCompId>
F7M

>  <PdbId>
6CN5

>  <ChainId>
A

>  <ResidueNumber>
601

>  <InsertionCode>


>  <Model>
1

>  <AltIds>


>  <MissingHeavyAtoms>
0

>  <ObservedFormula>
C28 N5 O2

>  <Name>
4-cyano-N-{3-[1-(cyclohexanecarbonyl)piperidin-4-yl]-1-methyl-1H-indol-5-yl}pyridine-2-carboxamide

>  <SystematicName>
4-cyano-~{N}-[3-(1-cyclohexylcarbonylpiperidin-4-yl)-1-methyl-indol-5-yl]pyridine-2-carboxamide

>  <Synonyms>


>  <Type>
NON-POLYMER

>  <Formula>
C28 H31 N5 O2

>  <MolecularWeight>
469.578

>  <ModifiedDate>
2018-08-31

>  <Parent>


>  <OneLetterCode>


>  <SubcomponentList>


>  <AmbiguousFlag>
N

>  <InChI>
InChI=1S/C28H31N5O2/c1-32-18-24(20-10-13-33(14-11-20)28(35)21-5-3-2-4-6-21)23-16-22(7-8-26(23)32)31-27(34)25-15-19(17-29)9-12-30-25/h7-9,12,15-16,18,20-21H,2-6,10-11,13-14H2,1H3,(H,31,34)

>  <InChIKey>
LRJCIDHTWFKTMZ-UHFFFAOYSA-N

>  <SMILES>
Cn1cc(c2c1ccc(c2)NC(=O)c3cc(ccn3)C#N)C4CCN(CC4)C(=O)C5CCCCC5

$$$$
