5UC4_83S_A_301
  RCSB PDB01131817403D
Coordinates from PDB:5UC4:A:301 Model:1 without hydrogens
 23 25  0  0  0  0            999 V2000
   35.4920   84.1510   -6.5720   C 0  0  0  0  0  0  0  0  0  0  0  0
   36.5450   86.0770   -7.4210   C 0  0  0  0  0  0  0  0  0  0  0  0
   36.9000   85.1300  -10.0190   C 0  0  0  0  0  0  0  0  0  0  0  0
   33.4980   79.5180   -2.8150   C 0  0  0  0  0  0  0  0  0  0  0  0
   37.1500   86.8720   -8.3500   C 0  0  0  0  0  0  0  0  0  0  0  0
   37.3260   86.3890   -9.6710   C 0  0  0  0  0  0  0  0  0  0  0  0
   36.2830   84.3100   -9.0490   C 0  0  0  0  0  0  0  0  0  0  0  0
   31.1210   82.2250   -5.1370   C 0  0  0  0  0  0  0  0  0  0  0  0
   31.6200   81.7070   -3.8500   C 0  0  0  0  0  0  0  0  0  0  0  0
   30.8460   82.3680   -2.5810   C 0  0  0  0  0  0  0  0  0  0  0  0
   33.1170   81.9200   -3.6890   C 0  0  0  0  0  0  0  0  0  0  0  0
   33.6220   83.1690   -3.9800   C 0  0  0  0  0  0  0  0  0  0  0  0
   35.0200   83.4270   -3.8090   C 0  0  0  0  0  0  0  0  0  0  0  0
   35.8900   82.4370   -3.3130   C 0  0  0  0  0  0  0  0  0  0  0  0
   37.2160   82.7310   -3.1070   O 0  0  0  0  0  0  0  0  0  0  0  0
   35.3700   81.1820   -3.0030   C 0  0  0  0  0  0  0  0  0  0  0  0
   33.9970   80.9110   -3.1730   C 0  0  0  0  0  0  0  0  0  0  0  0
   32.6920   78.9140   -3.5910   O 0  0  0  0  0  0  0  0  0  0  0  0
   35.5740   84.7820   -4.1560   C 0  0  0  0  0  0  0  0  0  0  0  0
   35.8590   85.6200   -3.2700   O 0  0  0  0  0  0  0  0  0  0  0  0
   35.6850   85.0970   -5.4910   N 0  0  0  0  0  0  0  0  0  0  0  0
   36.2210   86.3240   -5.9900   C 0  0  0  0  0  0  0  0  0  0  0  0
   36.1160   84.7730   -7.7700   C 0  0  0  0  0  0  0  0  0  0  0  0
 10  9  1  0  0  0  0
  4 17  1  0  0  0  0
  4 18  2  0  0  0  0
 16 17  1  0  0  0  0
 16 14  2  0  0  0  0
 15 14  1  0  0  0  0
 17 11  2  0  0  0  0
 14 13  1  0  0  0  0
 20 19  2  0  0  0  0
 11  9  1  0  0  0  0
 11 12  1  0  0  0  0
 13 12  2  0  0  0  0
 13 19  1  0  0  0  0
  9  8  1  0  0  0  0
 19 21  1  0  0  0  0
 21 22  1  0  0  0  0
 21  1  1  0  0  0  0
 22  2  1  0  0  0  0
  1 23  1  0  0  0  0
  2 23  1  0  0  0  0
  2  5  2  0  0  0  0
 23  7  2  0  0  0  0
  5  6  1  0  0  0  0
  7  3  1  0  0  0  0
  6  3  2  0  0  0  0
A    1
C23
A    2
C17
A    3
C20
A    4
C11
A    5
C18
A    6
C19
A    7
C21
A    8
C01
A    9
C02
A   10
C03
A   11
C04
A   12
C05
A   13
C06
A   14
C07
A   15
O08
A   16
C09
A   17
C10
A   18
O12
A   19
C13
A   20
O14
A   21
N15
A   22
C16
A   23
C22
M  END
>  <InstanceId>
5UC4_83S_A_301

>  <ChemCompId>
83S

>  <PdbId>
5UC4

>  <ChainId>
A

>  <ResidueNumber>
301

>  <InsertionCode>


>  <Model>
1

>  <AltIds>


>  <MissingHeavyAtoms>
0

>  <ObservedFormula>
C19 N O3

>  <Name>
5-Hydroxy-4-(isoindoline-2-carbonyl)-2-isopropylbenzaldehyde

>  <SystematicName>
4-(1,3-dihydroisoindol-2-ylcarbonyl)-5-oxidanyl-2-propan-2-yl-benzaldehyde

>  <Synonyms>


>  <Type>
NON-POLYMER

>  <Formula>
C19 H19 N O3

>  <MolecularWeight>
309.359

>  <ModifiedDate>
2018-01-12

>  <Parent>


>  <OneLetterCode>


>  <SubcomponentList>


>  <AmbiguousFlag>
N

>  <InChI>
InChI=1S/C19H19NO3/c1-12(2)16-8-17(18(22)7-15(16)11-21)19(23)20-9-13-5-3-4-6-14(13)10-20/h3-8,11-12,22H,9-10H2,1-2H3

>  <InChIKey>
SVCSVCKMYMUSOV-UHFFFAOYSA-N

>  <SMILES>
CC(C)c1cc(c(cc1C=O)O)C(=O)N2Cc3ccccc3C2

$$$$
