5F2R_ACP_A_501
  RCSB PDB12061717353D
Coordinates from PDB:5F2R:A:501 Model:1 without hydrogens
 31 33  0  0  0  0            999 V2000
   19.7520    3.1920    2.3630   P 0  0  0  0  0  0  0  0  0  0  0  0
   18.6550    2.9540    1.3620   O 0  0  0  0  0  0  0  0  0  0  0  0
   21.1470    3.2550    1.7380   O 0  0  0  0  0  0  0  0  0  0  0  0
   19.5690    4.3080    3.3820   O 0  0  0  0  0  0  0  0  0  0  0  0
   20.2380    0.1500    2.6160   P 0  0  0  0  0  0  0  0  0  0  0  0
   19.9080    0.1540    1.1350   O 0  0  0  0  0  0  0  0  0  0  0  0
   21.6900   -0.0960    2.9180   O 0  0  0  0  0  0  0  0  0  0  0  0
   19.6380    1.6850    3.4030   C 0  0  0  0  0  0  0  0  0  0  0  0
   18.7610   -2.2880    2.5140   P 0  0  0  0  0  0  0  0  0  0  0  0
   17.6950   -1.7830    1.6070   O 0  0  0  0  0  0  0  0  0  0  0  0
   20.0030   -2.9090    1.9030   O 0  0  0  0  0  0  0  0  0  0  0  0
   19.3110   -0.9910    3.2830   O 0  0  0  0  0  0  0  0  0  0  0  0
   18.1780   -3.0930    3.7540   O 0  0  0  0  0  0  0  0  0  0  0  0
   18.9510   -3.8230    4.6920   C 0  0  0  0  0  0  0  0  0  0  0  0
   17.9260   -4.4320    5.6350   C 0  0  0  0  0  0  0  0  0  0  0  0
   17.1810   -5.4130    4.9020   O 0  0  0  0  0  0  0  0  0  0  0  0
   18.5450   -5.1570    6.8460   C 0  0  0  0  0  0  0  0  0  0  0  0
   17.8690   -4.8120    8.0190   O 0  0  0  0  0  0  0  0  0  0  0  0
   18.2840   -6.6150    6.5870   C 0  0  0  0  0  0  0  0  0  0  0  0
   18.2310   -7.3800    7.7950   O 0  0  0  0  0  0  0  0  0  0  0  0
   16.9570   -6.4700    5.8260   C 0  0  0  0  0  0  0  0  0  0  0  0
   16.6470   -7.6430    5.0570   N 0  0  0  0  0  0  0  0  0  0  0  0
   17.3820   -8.2060    4.0600   C 0  0  0  0  0  0  0  0  0  0  0  0
   16.7580   -9.3090    3.6210   N 0  0  0  0  0  0  0  0  0  0  0  0
   15.5990   -9.4430    4.3230   C 0  0  0  0  0  0  0  0  0  0  0  0
   14.5380  -10.3830    4.3350   C 0  0  0  0  0  0  0  0  0  0  0  0
   14.4570  -11.4580    3.4970   N 0  0  0  0  0  0  0  0  0  0  0  0
   13.5260  -10.1820    5.2310   N 0  0  0  0  0  0  0  0  0  0  0  0
   13.5440   -9.1250    6.0820   C 0  0  0  0  0  0  0  0  0  0  0  0
   14.5170   -8.2220    6.1310   N 0  0  0  0  0  0  0  0  0  0  0  0
   15.5470   -8.3870    5.2490   C 0  0  0  0  0  0  0  0  0  0  0  0
  1  2  2  0  0  0  0
  1  3  1  0  0  0  0
  1  4  1  0  0  0  0
  1  8  1  0  0  0  0
  5  6  2  0  0  0  0
  5  7  1  0  0  0  0
  5  8  1  0  0  0  0
  5 12  1  0  0  0  0
  9 10  2  0  0  0  0
  9 11  1  0  0  0  0
  9 12  1  0  0  0  0
  9 13  1  0  0  0  0
 13 14  1  0  0  0  0
 14 15  1  0  0  0  0
 15 16  1  0  0  0  0
 15 17  1  0  0  0  0
 16 21  1  0  0  0  0
 17 18  1  0  0  0  0
 17 19  1  0  0  0  0
 19 20  1  0  0  0  0
 19 21  1  0  0  0  0
 21 22  1  0  0  0  0
 22 23  1  0  0  0  0
 22 31  1  0  0  0  0
 23 24  2  0  0  0  0
 24 25  1  0  0  0  0
 25 26  1  0  0  0  0
 25 31  2  0  0  0  0
 26 27  1  0  0  0  0
 26 28  2  0  0  0  0
 28 29  1  0  0  0  0
 29 30  2  0  0  0  0
 30 31  1  0  0  0  0
A    1
PG
A    2
O1G
A    3
O2G
A    4
O3G
A    5
PB
A    6
O1B
A    7
O2B
A    8
C3B
A    9
PA
A   10
O1A
A   11
O2A
A   12
O3A
A   13
O5'
A   14
C5'
A   15
C4'
A   16
O4'
A   17
C3'
A   18
O3'
A   19
C2'
A   20
O2'
A   21
C1'
A   22
N9
A   23
C8
A   24
N7
A   25
C5
A   26
C6
A   27
N6
A   28
N1
A   29
C2
A   30
N3
A   31
C4
M  END
>  <InstanceId>
5F2R_ACP_A_501

>  <ChemCompId>
ACP

>  <PdbId>
5F2R

>  <ChainId>
A

>  <ResidueNumber>
501

>  <InsertionCode>


>  <Model>
1

>  <AltIds>


>  <MissingHeavyAtoms>
0

>  <ObservedFormula>
C11 N5 O12 P3

>  <Name>
PHOSPHOMETHYLPHOSPHONIC ACID ADENYLATE ESTER

>  <SystematicName>
[[[(2R,3S,4R,5R)-5-(6-aminopurin-9-yl)-3,4-dihydroxy-oxolan-2-yl]methoxy-hydroxy-phosphoryl]oxy-hydroxy-phosphoryl]methylphosphonic acid

>  <Synonyms>
ADENOSINE-5'-[BETA, GAMMA-METHYLENE]TRIPHOSPHATE

>  <Type>
NON-POLYMER

>  <Formula>
C11 H18 N5 O12 P3

>  <MolecularWeight>
505.208

>  <ModifiedDate>
2011-06-04

>  <Parent>


>  <OneLetterCode>


>  <SubcomponentList>


>  <AmbiguousFlag>
N

>  <InChI>
InChI=1S/C11H18N5O12P3/c12-9-6-10(14-2-13-9)16(3-15-6)11-8(18)7(17)5(27-11)1-26-31(24,25)28-30(22,23)4-29(19,20)21/h2-3,5,7-8,11,17-18H,1,4H2,(H,22,23)(H,24,25)(H2,12,13,14)(H2,19,20,21)/t5-,7-,8-,11-/m1/s1

>  <InChIKey>
UFZTZBNSLXELAL-IOSLPCCCSA-N

>  <SMILES>
c1nc(c2c(n1)n(cn2)[C@H]3[C@@H]([C@@H]([C@H](O3)CO[P@@](=O)(O)O[P@](=O)(CP(=O)(O)O)O)O)O)N

$$$$
