5F2R_ACP_A_501


 39 41  0  0  0  0  0  0  0  0999 V2000
   18.2997   -4.4426    5.2854 C   0  0  0  0  0  0  0  0  0  0  0  0
   17.4413   -5.4152    4.6754 O   0  0  0  0  0  0  0  0  0  0  0  0
   18.8505   -5.0821    6.5750 C   0  0  0  0  0  0  0  0  0  0  0  0
   18.2321   -4.5264    7.6978 O   0  0  0  0  0  0  0  0  0  0  0  0
   18.4266   -6.5225    6.4930 C   0  0  0  0  0  0  0  0  0  0  0  0
   18.3051   -7.1270    7.7842 O   0  0  0  0  0  0  0  0  0  0  0  0
   17.1139   -6.3227    5.7196 C   0  0  0  0  0  0  0  0  0  0  0  0
   17.2721   -4.6488    7.6320 H   0  0  0  0  0  0  0  0  0  0  0  0
   17.7041   -6.5993    8.3330 H   0  0  0  0  0  0  0  0  0  0  0  0
   16.6662   -7.5373    5.0970 N   0  0  0  0  0  0  0  0  0  0  0  0
   17.2666   -8.2309    4.0922 C   0  0  0  0  0  0  0  0  0  0  0  0
   16.5436   -9.3272    3.8198 N   0  0  0  0  0  0  0  0  0  0  0  0
   15.4552   -9.3261    4.6380 C   0  0  0  0  0  0  0  0  0  0  0  0
   14.3520  -10.1933    4.8387 C   0  0  0  0  0  0  0  0  0  0  0  0
   14.1301  -11.3309    4.1169 N   0  0  0  0  0  0  0  0  0  0  0  0
   13.4469   -9.8512    5.8037 N   0  0  0  0  0  0  0  0  0  0  0  0
   13.6065   -8.7264    6.5461 C   0  0  0  0  0  0  0  0  0  0  0  0
   14.6265   -7.8851    6.4177 N   0  0  0  0  0  0  0  0  0  0  0  0
   15.5527   -8.1913    5.4614 C   0  0  0  0  0  0  0  0  0  0  0  0
   14.7661  -11.6007    3.4155 H   0  0  0  0  0  0  0  0  0  0  0  0
   13.3341  -11.8812    4.2977 H   0  0  0  0  0  0  0  0  0  0  0  0
   19.3733   -4.0685    4.2764 C   0  0  0  0  0  0  0  0  0  0  0  0
   19.1382   -2.6974    4.0026 O   0  0  0  0  0  0  0  0  0  0  0  0
   19.3826   -1.9870    2.6022 P   0  0  0  0  0  0  0  0  0  0  0  0
   18.3813   -2.3847    1.5760 O   0  0  0  0  0  0  0  0  0  0  0  0
   20.8428   -1.9008    2.1997 O   0  0  0  0  0  0  0  0  0  0  0  0
   20.9155   -1.4579    1.3398 H   0  0  0  0  0  0  0  0  0  0  0  0
   18.9994   -0.4814    3.0055 O   0  0  0  0  0  0  0  0  0  0  0  0
   19.8784    0.8217    2.6380 P   0  0  0  0  0  0  0  0  0  0  0  0
   20.4093    0.5947    1.2348 O   0  0  0  0  0  0  0  0  0  0  0  0
   20.9499    1.0521    3.6670 O   0  0  0  0  0  0  0  0  0  0  0  0
   21.4650    1.8382    3.4271 H   0  0  0  0  0  0  0  0  0  0  0  0
   18.6447    2.1684    2.6385 C   0  0  0  0  0  0  0  0  0  0  0  0
   19.2259    3.7602    1.9356 P   0  0  0  0  0  0  0  0  0  0  0  0
   19.8744    4.4016    3.1314 O   0  0  0  0  0  0  0  0  0  0  0  0
   18.0178    4.5353    1.4059 O   0  0  0  0  0  0  0  0  0  0  0  0
   20.1176    3.3058    0.7885 O   0  0  0  0  0  0  0  0  0  0  0  0
   18.3142    5.3796    1.0316 H   0  0  0  0  0  0  0  0  0  0  0  0
   20.4855    4.0821    0.3380 H   0  0  0  0  0  0  0  0  0  0  0  0
 34 35  2  0  0  0
 34 36  1  0  0  0
 34 37  1  0  0  0
 34 33  1  0  0  0
 29 30  2  0  0  0
 29 31  1  0  0  0
 29 33  1  0  0  0
 29 28  1  0  0  0
 24 25  2  0  0  0
 24 26  1  0  0  0
 24 28  1  0  0  0
 24 23  1  0  0  0
 23 22  1  0  0  0
 22  1  1  0  0  0
  1  2  1  0  0  0
  1  3  1  0  0  0
  2  7  1  0  0  0
  3  4  1  0  0  0
  3  5  1  0  0  0
  5  6  1  0  0  0
  5  7  1  0  0  0
  7 10  1  0  0  0
 10 11  1  0  0  0
 10 19  1  0  0  0
 11 12  2  0  0  0
 12 13  1  0  0  0
 13 14  1  0  0  0
 13 19  2  0  0  0
 14 15  1  0  0  0
 14 16  2  0  0  0
 16 17  1  0  0  0
 17 18  2  0  0  0
 18 19  1  0  0  0
 36 38  1  0  0  0
 37 39  1  0  0  0
 31 32  1  0  0  0
 26 27  1  0  0  0
  4  8  1  0  0  0
  6  9  1  0  0  0
 15 20  1  0  0  0
 15 21  1  0  0  0
M  END
> <minimizedAffinity>
-11.57093

$$$$
5F2R_ACP_A_501


 39 41  0  0  0  0  0  0  0  0999 V2000
   17.8556   -4.2904    5.4493 C   0  0  0  0  0  0  0  0  0  0  0  0
   16.6578   -5.0714    5.3487 O   0  0  0  0  0  0  0  0  0  0  0  0
   18.7851   -5.0265    6.4339 C   0  0  0  0  0  0  0  0  0  0  0  0
   18.8257   -4.3572    7.6596 O   0  0  0  0  0  0  0  0  0  0  0  0
   18.1152   -6.3525    6.6659 C   0  0  0  0  0  0  0  0  0  0  0  0
   18.4581   -6.9195    7.9341 O   0  0  0  0  0  0  0  0  0  0  0  0
   16.6572   -5.8940    6.5082 C   0  0  0  0  0  0  0  0  0  0  0  0
   17.9274   -4.2845    8.0182 H   0  0  0  0  0  0  0  0  0  0  0  0
   18.2604   -6.2815    8.6376 H   0  0  0  0  0  0  0  0  0  0  0  0
   15.7729   -6.9945    6.2434 N   0  0  0  0  0  0  0  0  0  0  0  0
   14.5779   -7.2663    6.8345 C   0  0  0  0  0  0  0  0  0  0  0  0
   14.0525   -8.3689    6.2805 N   0  0  0  0  0  0  0  0  0  0  0  0
   14.9282   -8.8257    5.3432 C   0  0  0  0  0  0  0  0  0  0  0  0
   14.9452   -9.9129    4.4337 C   0  0  0  0  0  0  0  0  0  0  0  0
   13.9615  -10.8559    4.3480 N   0  0  0  0  0  0  0  0  0  0  0  0
   16.0279  -10.0289    3.6080 N   0  0  0  0  0  0  0  0  0  0  0  0
   17.0432   -9.1296    3.6543 C   0  0  0  0  0  0  0  0  0  0  0  0
   17.0766   -8.0820    4.4704 N   0  0  0  0  0  0  0  0  0  0  0  0
   16.0124   -7.9319    5.3137 C   0  0  0  0  0  0  0  0  0  0  0  0
   13.1705  -10.7965    4.9311 H   0  0  0  0  0  0  0  0  0  0  0  0
   14.0432  -11.5953    3.7031 H   0  0  0  0  0  0  0  0  0  0  0  0
   18.4342   -4.1400    4.0517 C   0  0  0  0  0  0  0  0  0  0  0  0
   18.9140   -2.8065    4.0097 O   0  0  0  0  0  0  0  0  0  0  0  0
   19.4794   -2.0757    2.7168 P   0  0  0  0  0  0  0  0  0  0  0  0
   18.7226   -2.4257    1.4844 O   0  0  0  0  0  0  0  0  0  0  0  0
   20.9941   -2.0216    2.6503 O   0  0  0  0  0  0  0  0  0  0  0  0
   21.2660   -1.5642    1.8394 H   0  0  0  0  0  0  0  0  0  0  0  0
   19.0498   -0.5685    3.0628 O   0  0  0  0  0  0  0  0  0  0  0  0
   19.9118    0.7435    2.6863 P   0  0  0  0  0  0  0  0  0  0  0  0
   20.4710    0.5006    1.2968 O   0  0  0  0  0  0  0  0  0  0  0  0
   20.9610    1.0118    3.7291 O   0  0  0  0  0  0  0  0  0  0  0  0
   21.4661    1.8027    3.4835 H   0  0  0  0  0  0  0  0  0  0  0  0
   18.6546    2.0674    2.6409 C   0  0  0  0  0  0  0  0  0  0  0  0
   19.2275    3.6650    1.9442 P   0  0  0  0  0  0  0  0  0  0  0  0
   19.8306    4.3249    3.1536 O   0  0  0  0  0  0  0  0  0  0  0  0
   18.0216    4.4154    1.3756 O   0  0  0  0  0  0  0  0  0  0  0  0
   20.1591    3.2194    0.8258 O   0  0  0  0  0  0  0  0  0  0  0  0
   18.3137    5.2625    1.0043 H   0  0  0  0  0  0  0  0  0  0  0  0
   20.5261    3.9993    0.3807 H   0  0  0  0  0  0  0  0  0  0  0  0
 34 35  2  0  0  0
 34 36  1  0  0  0
 34 37  1  0  0  0
 34 33  1  0  0  0
 29 30  2  0  0  0
 29 31  1  0  0  0
 29 33  1  0  0  0
 29 28  1  0  0  0
 24 25  2  0  0  0
 24 26  1  0  0  0
 24 28  1  0  0  0
 24 23  1  0  0  0
 23 22  1  0  0  0
 22  1  1  0  0  0
  1  2  1  0  0  0
  1  3  1  0  0  0
  2  7  1  0  0  0
  3  4  1  0  0  0
  3  5  1  0  0  0
  5  6  1  0  0  0
  5  7  1  0  0  0
  7 10  1  0  0  0
 10 11  1  0  0  0
 10 19  1  0  0  0
 11 12  2  0  0  0
 12 13  1  0  0  0
 13 14  1  0  0  0
 13 19  2  0  0  0
 14 15  1  0  0  0
 14 16  2  0  0  0
 16 17  1  0  0  0
 17 18  2  0  0  0
 18 19  1  0  0  0
 36 38  1  0  0  0
 37 39  1  0  0  0
 31 32  1  0  0  0
 26 27  1  0  0  0
  4  8  1  0  0  0
  6  9  1  0  0  0
 15 20  1  0  0  0
 15 21  1  0  0  0
M  END
> <minimizedAffinity>
-11.36577

$$$$
5F2R_ACP_A_501


 39 41  0  0  0  0  0  0  0  0999 V2000
   17.3358   -4.5743    5.7945 C   0  0  0  0  0  0  0  0  0  0  0  0
   16.5171   -5.6969    5.4418 O   0  0  0  0  0  0  0  0  0  0  0  0
   18.7703   -5.1086    5.9728 C   0  0  0  0  0  0  0  0  0  0  0  0
   19.1066   -5.1608    7.3278 O   0  0  0  0  0  0  0  0  0  0  0  0
   18.7117   -6.5237    5.4677 C   0  0  0  0  0  0  0  0  0  0  0  0
   19.7112   -7.3552    6.0651 O   0  0  0  0  0  0  0  0  0  0  0  0
   17.2585   -6.8369    5.8565 C   0  0  0  0  0  0  0  0  0  0  0  0
   18.4673   -5.7182    7.7984 H   0  0  0  0  0  0  0  0  0  0  0  0
   19.6361   -7.3080    7.0310 H   0  0  0  0  0  0  0  0  0  0  0  0
   16.7388   -7.9634    5.1325 N   0  0  0  0  0  0  0  0  0  0  0  0
   17.2715   -8.5696    4.0370 C   0  0  0  0  0  0  0  0  0  0  0  0
   16.4954   -9.6052    3.6850 N   0  0  0  0  0  0  0  0  0  0  0  0
   15.4405   -9.6504    4.5447 C   0  0  0  0  0  0  0  0  0  0  0  0
   14.3122  -10.4939    4.7025 C   0  0  0  0  0  0  0  0  0  0  0  0
   14.0172  -11.5416    3.8781 N   0  0  0  0  0  0  0  0  0  0  0  0
   13.4597  -10.2220    5.7354 N   0  0  0  0  0  0  0  0  0  0  0  0
   13.6928   -9.1870    6.5816 C   0  0  0  0  0  0  0  0  0  0  0  0
   14.7397   -8.3738    6.4965 N   0  0  0  0  0  0  0  0  0  0  0  0
   15.6151   -8.6117    5.4752 C   0  0  0  0  0  0  0  0  0  0  0  0
   14.6142  -11.7596    3.1262 H   0  0  0  0  0  0  0  0  0  0  0  0
   13.2075  -12.0791    4.0354 H   0  0  0  0  0  0  0  0  0  0  0  0
   17.1988   -3.5326    4.6959 C   0  0  0  0  0  0  0  0  0  0  0  0
   18.0405   -4.0029    3.6564 O   0  0  0  0  0  0  0  0  0  0  0  0
   19.2419   -3.1880    3.0098 P   0  0  0  0  0  0  0  0  0  0  0  0
   19.9265   -3.9417    1.9248 O   0  0  0  0  0  0  0  0  0  0  0  0
   20.0879   -2.4315    4.0166 O   0  0  0  0  0  0  0  0  0  0  0  0
   20.7977   -1.9602    3.5532 H   0  0  0  0  0  0  0  0  0  0  0  0
   18.4040   -2.0404    2.2635 O   0  0  0  0  0  0  0  0  0  0  0  0
   19.0522   -0.8545    1.3805 P   0  0  0  0  0  0  0  0  0  0  0  0
   18.2315   -0.7755    0.1067 O   0  0  0  0  0  0  0  0  0  0  0  0
   20.5174   -1.0990    1.1493 O   0  0  0  0  0  0  0  0  0  0  0  0
   20.8859   -0.3761    0.6179 H   0  0  0  0  0  0  0  0  0  0  0  0
   18.7718    0.6291    2.4080 C   0  0  0  0  0  0  0  0  0  0  0  0
   20.2266    1.2000    3.3688 P   0  0  0  0  0  0  0  0  0  0  0  0
   20.5498    2.5008    2.6865 O   0  0  0  0  0  0  0  0  0  0  0  0
   21.3370    0.1545    3.2496 O   0  0  0  0  0  0  0  0  0  0  0  0
   19.6829    1.2466    4.7900 O   0  0  0  0  0  0  0  0  0  0  0  0
   22.1119    0.4467    3.7546 H   0  0  0  0  0  0  0  0  0  0  0  0
   20.3821    1.5417    5.3941 H   0  0  0  0  0  0  0  0  0  0  0  0
 34 35  2  0  0  0
 34 36  1  0  0  0
 34 37  1  0  0  0
 34 33  1  0  0  0
 29 30  2  0  0  0
 29 31  1  0  0  0
 29 33  1  0  0  0
 29 28  1  0  0  0
 24 25  2  0  0  0
 24 26  1  0  0  0
 24 28  1  0  0  0
 24 23  1  0  0  0
 23 22  1  0  0  0
 22  1  1  0  0  0
  1  2  1  0  0  0
  1  3  1  0  0  0
  2  7  1  0  0  0
  3  4  1  0  0  0
  3  5  1  0  0  0
  5  6  1  0  0  0
  5  7  1  0  0  0
  7 10  1  0  0  0
 10 11  1  0  0  0
 10 19  1  0  0  0
 11 12  2  0  0  0
 12 13  1  0  0  0
 13 14  1  0  0  0
 13 19  2  0  0  0
 14 15  1  0  0  0
 14 16  2  0  0  0
 16 17  1  0  0  0
 17 18  2  0  0  0
 18 19  1  0  0  0
 36 38  1  0  0  0
 37 39  1  0  0  0
 31 32  1  0  0  0
 26 27  1  0  0  0
  4  8  1  0  0  0
  6  9  1  0  0  0
 15 20  1  0  0  0
 15 21  1  0  0  0
M  END
> <minimizedAffinity>
-10.37569

$$$$
5F2R_ACP_A_501


 39 41  0  0  0  0  0  0  0  0999 V2000
   18.1017   -6.9784    5.8786 C   0  0  0  0  0  0  0  0  0  0  0  0
   18.9296   -6.4885    4.8159 O   0  0  0  0  0  0  0  0  0  0  0  0
   17.0086   -5.9182    6.1158 C   0  0  0  0  0  0  0  0  0  0  0  0
   17.2626   -5.2107    7.2935 O   0  0  0  0  0  0  0  0  0  0  0  0
   17.1606   -4.9564    4.9700 C   0  0  0  0  0  0  0  0  0  0  0  0
   16.6864   -3.6460    5.2946 O   0  0  0  0  0  0  0  0  0  0  0  0
   18.6781   -5.0900    4.7693 C   0  0  0  0  0  0  0  0  0  0  0  0
   18.1397   -4.7998    7.2411 H   0  0  0  0  0  0  0  0  0  0  0  0
   17.1300   -3.3314    6.0978 H   0  0  0  0  0  0  0  0  0  0  0  0
   19.0916   -4.6307    3.4726 N   0  0  0  0  0  0  0  0  0  0  0  0
   19.1919   -5.3530    2.3239 C   0  0  0  0  0  0  0  0  0  0  0  0
   19.5830   -4.5449    1.3276 N   0  0  0  0  0  0  0  0  0  0  0  0
   19.7613   -3.2977    1.8442 C   0  0  0  0  0  0  0  0  0  0  0  0
   20.1461   -2.0400    1.3155 C   0  0  0  0  0  0  0  0  0  0  0  0
   20.4945   -1.8307    0.0120 N   0  0  0  0  0  0  0  0  0  0  0  0
   20.1882   -0.9792    2.1759 N   0  0  0  0  0  0  0  0  0  0  0  0
   19.8646   -1.1267    3.4856 C   0  0  0  0  0  0  0  0  0  0  0  0
   19.4800   -2.2732    4.0354 N   0  0  0  0  0  0  0  0  0  0  0  0
   19.4269   -3.3587    3.2079 C   0  0  0  0  0  0  0  0  0  0  0  0
   20.4730   -2.5775   -0.6293 H   0  0  0  0  0  0  0  0  0  0  0  0
   20.7671   -0.9331   -0.2867 H   0  0  0  0  0  0  0  0  0  0  0  0
   17.5617   -8.3370    5.4619 C   0  0  0  0  0  0  0  0  0  0  0  0
   18.0514   -8.5226    4.1443 O   0  0  0  0  0  0  0  0  0  0  0  0
   17.2969   -9.3097    2.9881 P   0  0  0  0  0  0  0  0  0  0  0  0
   16.6738   -8.4003    1.9887 O   0  0  0  0  0  0  0  0  0  0  0  0
   16.5064  -10.5106    3.4723 O   0  0  0  0  0  0  0  0  0  0  0  0
   16.0750  -10.9397    2.7168 H   0  0  0  0  0  0  0  0  0  0  0  0
   18.5648   -9.9519    2.2423 O   0  0  0  0  0  0  0  0  0  0  0  0
   18.5049  -11.2362    1.2661 P   0  0  0  0  0  0  0  0  0  0  0  0
   17.7011  -10.8101    0.0517 O   0  0  0  0  0  0  0  0  0  0  0  0
   17.9396  -12.4292    1.9854 O   0  0  0  0  0  0  0  0  0  0  0  0
   17.9127  -13.1879    1.3816 H   0  0  0  0  0  0  0  0  0  0  0  0
   20.2545  -11.4928    0.8097 C   0  0  0  0  0  0  0  0  0  0  0  0
   20.6234  -11.3500   -0.9818 P   0  0  0  0  0  0  0  0  0  0  0  0
   22.1216  -11.4810   -0.9948 O   0  0  0  0  0  0  0  0  0  0  0  0
   20.1239   -9.9928   -1.4810 O   0  0  0  0  0  0  0  0  0  0  0  0
   19.7953  -12.4796   -1.5779 O   0  0  0  0  0  0  0  0  0  0  0  0
   20.3141   -9.9067   -2.4282 H   0  0  0  0  0  0  0  0  0  0  0  0
   19.9173  -12.4970   -2.5401 H   0  0  0  0  0  0  0  0  0  0  0  0
 34 35  2  0  0  0
 34 36  1  0  0  0
 34 37  1  0  0  0
 34 33  1  0  0  0
 29 30  2  0  0  0
 29 31  1  0  0  0
 29 33  1  0  0  0
 29 28  1  0  0  0
 24 25  2  0  0  0
 24 26  1  0  0  0
 24 28  1  0  0  0
 24 23  1  0  0  0
 23 22  1  0  0  0
 22  1  1  0  0  0
  1  2  1  0  0  0
  1  3  1  0  0  0
  2  7  1  0  0  0
  3  4  1  0  0  0
  3  5  1  0  0  0
  5  6  1  0  0  0
  5  7  1  0  0  0
  7 10  1  0  0  0
 10 11  1  0  0  0
 10 19  1  0  0  0
 11 12  2  0  0  0
 12 13  1  0  0  0
 13 14  1  0  0  0
 13 19  2  0  0  0
 14 15  1  0  0  0
 14 16  2  0  0  0
 16 17  1  0  0  0
 17 18  2  0  0  0
 18 19  1  0  0  0
 36 38  1  0  0  0
 37 39  1  0  0  0
 31 32  1  0  0  0
 26 27  1  0  0  0
  4  8  1  0  0  0
  6  9  1  0  0  0
 15 20  1  0  0  0
 15 21  1  0  0  0
M  END
> <minimizedAffinity>
-10.22419

$$$$
5F2R_ACP_A_501


 39 41  0  0  0  0  0  0  0  0999 V2000
   18.7758   -3.5419    3.7189 C   0  0  0  0  0  0  0  0  0  0  0  0
   18.8756   -2.1139    3.7921 O   0  0  0  0  0  0  0  0  0  0  0  0
   19.5052   -3.9734    2.4316 C   0  0  0  0  0  0  0  0  0  0  0  0
   18.5834   -4.3450    1.4497 O   0  0  0  0  0  0  0  0  0  0  0  0
   20.1960   -2.7265    1.9531 C   0  0  0  0  0  0  0  0  0  0  0  0
   20.4162   -2.7363    0.5393 O   0  0  0  0  0  0  0  0  0  0  0  0
   19.1760   -1.6982    2.4661 C   0  0  0  0  0  0  0  0  0  0  0  0
   17.9802   -3.6055    1.2760 H   0  0  0  0  0  0  0  0  0  0  0  0
   19.5740   -2.8865    0.0820 H   0  0  0  0  0  0  0  0  0  0  0  0
   19.7395   -0.3799    2.5554 N   0  0  0  0  0  0  0  0  0  0  0  0
   21.0497   -0.0396    2.6928 C   0  0  0  0  0  0  0  0  0  0  0  0
   21.1592    1.2970    2.7057 N   0  0  0  0  0  0  0  0  0  0  0  0
   19.9069    1.8216    2.6021 C   0  0  0  0  0  0  0  0  0  0  0  0
   19.3715    3.1331    2.5491 C   0  0  0  0  0  0  0  0  0  0  0  0
   20.1201    4.2710    2.6445 N   0  0  0  0  0  0  0  0  0  0  0  0
   18.0173    3.2576    2.4144 N   0  0  0  0  0  0  0  0  0  0  0  0
   17.2190    2.1636    2.3264 C   0  0  0  0  0  0  0  0  0  0  0  0
   17.6620    0.9116    2.3519 N   0  0  0  0  0  0  0  0  0  0  0  0
   19.0110    0.7448    2.4874 C   0  0  0  0  0  0  0  0  0  0  0  0
   21.0978    4.2102    2.7422 H   0  0  0  0  0  0  0  0  0  0  0  0
   19.6821    5.1522    2.6155 H   0  0  0  0  0  0  0  0  0  0  0  0
   19.3776   -4.1182    4.9903 C   0  0  0  0  0  0  0  0  0  0  0  0
   18.6843   -5.3392    5.1872 O   0  0  0  0  0  0  0  0  0  0  0  0
   17.2786   -5.4887    5.9132 P   0  0  0  0  0  0  0  0  0  0  0  0
   16.3566   -4.3600    5.6134 O   0  0  0  0  0  0  0  0  0  0  0  0
   17.3711   -5.9939    7.3407 O   0  0  0  0  0  0  0  0  0  0  0  0
   16.4803   -6.0600    7.7187 H   0  0  0  0  0  0  0  0  0  0  0  0
   16.6958   -6.7396    5.0935 O   0  0  0  0  0  0  0  0  0  0  0  0
   16.2889   -8.1587    5.7466 P   0  0  0  0  0  0  0  0  0  0  0  0
   15.0215   -7.9123    6.5435 O   0  0  0  0  0  0  0  0  0  0  0  0
   17.4229   -8.7184    6.5596 O   0  0  0  0  0  0  0  0  0  0  0  0
   17.1574   -9.5694    6.9420 H   0  0  0  0  0  0  0  0  0  0  0  0
   15.9289   -9.1986    4.2891 C   0  0  0  0  0  0  0  0  0  0  0  0
   17.2500   -9.2448    3.0171 P   0  0  0  0  0  0  0  0  0  0  0  0
   16.5706   -8.5842    1.8492 O   0  0  0  0  0  0  0  0  0  0  0  0
   17.6328  -10.7031    2.7570 O   0  0  0  0  0  0  0  0  0  0  0  0
   18.3902   -8.5041    3.7017 O   0  0  0  0  0  0  0  0  0  0  0  0
   18.3316  -10.7390    2.0851 H   0  0  0  0  0  0  0  0  0  0  0  0
   19.1557   -8.4684    3.1071 H   0  0  0  0  0  0  0  0  0  0  0  0
 34 35  2  0  0  0
 34 36  1  0  0  0
 34 37  1  0  0  0
 34 33  1  0  0  0
 29 30  2  0  0  0
 29 31  1  0  0  0
 29 33  1  0  0  0
 29 28  1  0  0  0
 24 25  2  0  0  0
 24 26  1  0  0  0
 24 28  1  0  0  0
 24 23  1  0  0  0
 23 22  1  0  0  0
 22  1  1  0  0  0
  1  2  1  0  0  0
  1  3  1  0  0  0
  2  7  1  0  0  0
  3  4  1  0  0  0
  3  5  1  0  0  0
  5  6  1  0  0  0
  5  7  1  0  0  0
  7 10  1  0  0  0
 10 11  1  0  0  0
 10 19  1  0  0  0
 11 12  2  0  0  0
 12 13  1  0  0  0
 13 14  1  0  0  0
 13 19  2  0  0  0
 14 15  1  0  0  0
 14 16  2  0  0  0
 16 17  1  0  0  0
 17 18  2  0  0  0
 18 19  1  0  0  0
 36 38  1  0  0  0
 37 39  1  0  0  0
 31 32  1  0  0  0
 26 27  1  0  0  0
  4  8  1  0  0  0
  6  9  1  0  0  0
 15 20  1  0  0  0
 15 21  1  0  0  0
M  END
> <minimizedAffinity>
-10.21264

$$$$
5F2R_ACP_A_501


 39 41  0  0  0  0  0  0  0  0999 V2000
   18.5633   -3.7085    3.6900 C   0  0  0  0  0  0  0  0  0  0  0  0
   18.6950   -2.2835    3.7731 O   0  0  0  0  0  0  0  0  0  0  0  0
   19.3613   -4.1574    2.4502 C   0  0  0  0  0  0  0  0  0  0  0  0
   18.4942   -4.5041    1.4111 O   0  0  0  0  0  0  0  0  0  0  0  0
   20.1128   -2.9282    2.0196 C   0  0  0  0  0  0  0  0  0  0  0  0
   20.4216   -2.9423    0.6226 O   0  0  0  0  0  0  0  0  0  0  0  0
   19.0892   -1.8745    2.4698 C   0  0  0  0  0  0  0  0  0  0  0  0
   17.9224   -3.7491    1.2015 H   0  0  0  0  0  0  0  0  0  0  0  0
   19.6065   -3.0703    0.1126 H   0  0  0  0  0  0  0  0  0  0  0  0
   19.6797   -0.5713    2.5981 N   0  0  0  0  0  0  0  0  0  0  0  0
   20.9875   -0.2650    2.8147 C   0  0  0  0  0  0  0  0  0  0  0  0
   21.1299    1.0684    2.8397 N   0  0  0  0  0  0  0  0  0  0  0  0
   19.8998    1.6251    2.6638 C   0  0  0  0  0  0  0  0  0  0  0  0
   19.4019    2.9500    2.5843 C   0  0  0  0  0  0  0  0  0  0  0  0
   20.1722    4.0681    2.7289 N   0  0  0  0  0  0  0  0  0  0  0  0
   18.0618    3.1095    2.3697 N   0  0  0  0  0  0  0  0  0  0  0  0
   17.2426    2.0365    2.2298 C   0  0  0  0  0  0  0  0  0  0  0  0
   17.6515    0.7735    2.2764 N   0  0  0  0  0  0  0  0  0  0  0  0
   18.9853    0.5719    2.4914 C   0  0  0  0  0  0  0  0  0  0  0  0
   21.1405    3.9821    2.8845 H   0  0  0  0  0  0  0  0  0  0  0  0
   19.7592    4.9604    2.6775 H   0  0  0  0  0  0  0  0  0  0  0  0
   19.0684   -4.3014    4.9953 C   0  0  0  0  0  0  0  0  0  0  0  0
   18.3687   -5.5282    5.1201 O   0  0  0  0  0  0  0  0  0  0  0  0
   17.3419   -5.8844    6.2795 P   0  0  0  0  0  0  0  0  0  0  0  0
   16.5760   -4.6987    6.7501 O   0  0  0  0  0  0  0  0  0  0  0  0
   17.8863   -6.8555    7.3101 O   0  0  0  0  0  0  0  0  0  0  0  0
   17.2090   -7.0259    7.9833 H   0  0  0  0  0  0  0  0  0  0  0  0
   16.2923   -6.7580    5.4362 O   0  0  0  0  0  0  0  0  0  0  0  0
   16.5357   -8.2812    4.9600 P   0  0  0  0  0  0  0  0  0  0  0  0
   18.0201   -8.5471    5.1275 O   0  0  0  0  0  0  0  0  0  0  0  0
   16.0314   -8.4910    3.5594 O   0  0  0  0  0  0  0  0  0  0  0  0
   16.1873   -9.4109    3.2940 H   0  0  0  0  0  0  0  0  0  0  0  0
   15.5770   -9.2536    6.1727 C   0  0  0  0  0  0  0  0  0  0  0  0
   13.7851   -8.8664    6.2429 P   0  0  0  0  0  0  0  0  0  0  0  0
   13.2706   -9.9682    7.1280 O   0  0  0  0  0  0  0  0  0  0  0  0
   13.2163   -8.9065    4.8232 O   0  0  0  0  0  0  0  0  0  0  0  0
   13.7783   -7.4436    6.7843 O   0  0  0  0  0  0  0  0  0  0  0  0
   12.2683   -8.7029    4.8488 H   0  0  0  0  0  0  0  0  0  0  0  0
   12.8631   -7.1322    6.8634 H   0  0  0  0  0  0  0  0  0  0  0  0
 34 35  2  0  0  0
 34 36  1  0  0  0
 34 37  1  0  0  0
 34 33  1  0  0  0
 29 30  2  0  0  0
 29 31  1  0  0  0
 29 33  1  0  0  0
 29 28  1  0  0  0
 24 25  2  0  0  0
 24 26  1  0  0  0
 24 28  1  0  0  0
 24 23  1  0  0  0
 23 22  1  0  0  0
 22  1  1  0  0  0
  1  2  1  0  0  0
  1  3  1  0  0  0
  2  7  1  0  0  0
  3  4  1  0  0  0
  3  5  1  0  0  0
  5  6  1  0  0  0
  5  7  1  0  0  0
  7 10  1  0  0  0
 10 11  1  0  0  0
 10 19  1  0  0  0
 11 12  2  0  0  0
 12 13  1  0  0  0
 13 14  1  0  0  0
 13 19  2  0  0  0
 14 15  1  0  0  0
 14 16  2  0  0  0
 16 17  1  0  0  0
 17 18  2  0  0  0
 18 19  1  0  0  0
 36 38  1  0  0  0
 37 39  1  0  0  0
 31 32  1  0  0  0
 26 27  1  0  0  0
  4  8  1  0  0  0
  6  9  1  0  0  0
 15 20  1  0  0  0
 15 21  1  0  0  0
M  END
> <minimizedAffinity>
-9.99279

$$$$
5F2R_ACP_A_501


 39 41  0  0  0  0  0  0  0  0999 V2000
   18.9774   -4.7228    4.1228 C   0  0  0  0  0  0  0  0  0  0  0  0
   18.0790   -5.2001    5.1326 O   0  0  0  0  0  0  0  0  0  0  0  0
   18.9543   -5.7582    2.9814 C   0  0  0  0  0  0  0  0  0  0  0  0
   20.1303   -6.5125    2.9831 O   0  0  0  0  0  0  0  0  0  0  0  0
   17.8237   -6.6844    3.3347 C   0  0  0  0  0  0  0  0  0  0  0  0
   17.9975   -7.9907    2.7774 O   0  0  0  0  0  0  0  0  0  0  0  0
   17.9293   -6.5883    4.8646 C   0  0  0  0  0  0  0  0  0  0  0  0
   20.2346   -6.9469    3.8442 H   0  0  0  0  0  0  0  0  0  0  0  0
   18.8591   -8.3453    3.0473 H   0  0  0  0  0  0  0  0  0  0  0  0
   16.7217   -7.0149    5.5151 N   0  0  0  0  0  0  0  0  0  0  0  0
   16.0382   -6.3806    6.5059 C   0  0  0  0  0  0  0  0  0  0  0  0
   14.9455   -7.0943    6.8145 N   0  0  0  0  0  0  0  0  0  0  0  0
   14.9390   -8.2103    6.0345 C   0  0  0  0  0  0  0  0  0  0  0  0
   14.0708   -9.3203    5.8811 C   0  0  0  0  0  0  0  0  0  0  0  0
   12.9410   -9.5178    6.6222 N   0  0  0  0  0  0  0  0  0  0  0  0
   14.4035  -10.2580    4.9444 N   0  0  0  0  0  0  0  0  0  0  0  0
   15.5203  -10.1235    4.1851 C   0  0  0  0  0  0  0  0  0  0  0  0
   16.3619   -9.0992    4.2694 N   0  0  0  0  0  0  0  0  0  0  0  0
   16.0649   -8.1407    5.1962 C   0  0  0  0  0  0  0  0  0  0  0  0
   12.6779   -8.8581    7.3039 H   0  0  0  0  0  0  0  0  0  0  0  0
   12.3895  -10.3199    6.4747 H   0  0  0  0  0  0  0  0  0  0  0  0
   18.5166   -3.3357    3.7052 C   0  0  0  0  0  0  0  0  0  0  0  0
   19.5961   -2.8189    2.9450 O   0  0  0  0  0  0  0  0  0  0  0  0
   19.6091   -1.4092    2.2114 P   0  0  0  0  0  0  0  0  0  0  0  0
   18.4196   -1.2060    1.3409 O   0  0  0  0  0  0  0  0  0  0  0  0
   20.9725   -0.9970    1.6893 O   0  0  0  0  0  0  0  0  0  0  0  0
   20.9048   -0.1318    1.2561 H   0  0  0  0  0  0  0  0  0  0  0  0
   19.3722   -0.4551    3.4801 O   0  0  0  0  0  0  0  0  0  0  0  0
   19.8587    1.0810    3.5798 P   0  0  0  0  0  0  0  0  0  0  0  0
   21.2576    1.1229    2.9937 O   0  0  0  0  0  0  0  0  0  0  0  0
   19.7742    1.5782    4.9960 O   0  0  0  0  0  0  0  0  0  0  0  0
   20.0705    2.5011    5.0329 H   0  0  0  0  0  0  0  0  0  0  0  0
   18.6875    1.9591    2.4876 C   0  0  0  0  0  0  0  0  0  0  0  0
   19.2280    3.6250    1.9415 P   0  0  0  0  0  0  0  0  0  0  0  0
   19.8083    4.1872    3.2101 O   0  0  0  0  0  0  0  0  0  0  0  0
   18.0088    4.3963    1.4324 O   0  0  0  0  0  0  0  0  0  0  0  0
   20.1765    3.3024    0.7954 O   0  0  0  0  0  0  0  0  0  0  0  0
   18.2836    5.2797    1.1408 H   0  0  0  0  0  0  0  0  0  0  0  0
   20.5283    4.1270    0.4250 H   0  0  0  0  0  0  0  0  0  0  0  0
 34 35  2  0  0  0
 34 36  1  0  0  0
 34 37  1  0  0  0
 34 33  1  0  0  0
 29 30  2  0  0  0
 29 31  1  0  0  0
 29 33  1  0  0  0
 29 28  1  0  0  0
 24 25  2  0  0  0
 24 26  1  0  0  0
 24 28  1  0  0  0
 24 23  1  0  0  0
 23 22  1  0  0  0
 22  1  1  0  0  0
  1  2  1  0  0  0
  1  3  1  0  0  0
  2  7  1  0  0  0
  3  4  1  0  0  0
  3  5  1  0  0  0
  5  6  1  0  0  0
  5  7  1  0  0  0
  7 10  1  0  0  0
 10 11  1  0  0  0
 10 19  1  0  0  0
 11 12  2  0  0  0
 12 13  1  0  0  0
 13 14  1  0  0  0
 13 19  2  0  0  0
 14 15  1  0  0  0
 14 16  2  0  0  0
 16 17  1  0  0  0
 17 18  2  0  0  0
 18 19  1  0  0  0
 36 38  1  0  0  0
 37 39  1  0  0  0
 31 32  1  0  0  0
 26 27  1  0  0  0
  4  8  1  0  0  0
  6  9  1  0  0  0
 15 20  1  0  0  0
 15 21  1  0  0  0
M  END
> <minimizedAffinity>
-9.91053

$$$$
5F2R_ACP_A_501


 39 41  0  0  0  0  0  0  0  0999 V2000
   17.6896   -5.7992    5.4582 C   0  0  0  0  0  0  0  0  0  0  0  0
   17.7314   -6.6312    4.2917 O   0  0  0  0  0  0  0  0  0  0  0  0
   17.0526   -6.6401    6.5818 C   0  0  0  0  0  0  0  0  0  0  0  0
   15.7445   -6.2153    6.8274 O   0  0  0  0  0  0  0  0  0  0  0  0
   16.9765   -8.0310    6.0155 C   0  0  0  0  0  0  0  0  0  0  0  0
   15.9287   -8.8028    6.6103 O   0  0  0  0  0  0  0  0  0  0  0  0
   16.7789   -7.6574    4.5382 C   0  0  0  0  0  0  0  0  0  0  0  0
   15.2256   -6.2774    6.0102 H   0  0  0  0  0  0  0  0  0  0  0  0
   15.0880   -8.3264    6.5251 H   0  0  0  0  0  0  0  0  0  0  0  0
   17.0985   -8.7484    3.6601 N   0  0  0  0  0  0  0  0  0  0  0  0
   18.1869   -8.8803    2.8543 C   0  0  0  0  0  0  0  0  0  0  0  0
   18.1252  -10.0601    2.2195 N   0  0  0  0  0  0  0  0  0  0  0  0
   16.9749  -10.6816    2.5996 C   0  0  0  0  0  0  0  0  0  0  0  0
   16.3603  -11.9230    2.2985 C   0  0  0  0  0  0  0  0  0  0  0  0
   16.8656  -12.8343    1.4161 N   0  0  0  0  0  0  0  0  0  0  0  0
   15.1770  -12.2091    2.9193 N   0  0  0  0  0  0  0  0  0  0  0  0
   14.6186  -11.3381    3.7975 C   0  0  0  0  0  0  0  0  0  0  0  0
   15.1541  -10.1699    4.1336 N   0  0  0  0  0  0  0  0  0  0  0  0
   16.3372   -9.8460    3.5326 C   0  0  0  0  0  0  0  0  0  0  0  0
   17.7164  -12.6534    0.9548 H   0  0  0  0  0  0  0  0  0  0  0  0
   16.3792  -13.6722    1.2412 H   0  0  0  0  0  0  0  0  0  0  0  0
   19.1085   -5.3440    5.7586 C   0  0  0  0  0  0  0  0  0  0  0  0
   19.1786   -4.0318    5.2261 O   0  0  0  0  0  0  0  0  0  0  0  0
   18.6990   -3.6054    3.7723 P   0  0  0  0  0  0  0  0  0  0  0  0
   17.2978   -3.1049    3.7556 O   0  0  0  0  0  0  0  0  0  0  0  0
   19.1485   -4.5483    2.6721 O   0  0  0  0  0  0  0  0  0  0  0  0
   18.8212   -4.2271    1.8173 H   0  0  0  0  0  0  0  0  0  0  0  0
   19.6152   -2.3034    3.5691 O   0  0  0  0  0  0  0  0  0  0  0  0
   19.8178   -1.5307    2.1662 P   0  0  0  0  0  0  0  0  0  0  0  0
   18.4344   -1.1033    1.7125 O   0  0  0  0  0  0  0  0  0  0  0  0
   20.5444   -2.3989    1.1771 O   0  0  0  0  0  0  0  0  0  0  0  0
   20.6551   -1.9160    0.3432 H   0  0  0  0  0  0  0  0  0  0  0  0
   20.8098   -0.0708    2.6358 C   0  0  0  0  0  0  0  0  0  0  0  0
   19.8422    1.3825    3.1991 P   0  0  0  0  0  0  0  0  0  0  0  0
   20.7399    2.5199    2.7959 O   0  0  0  0  0  0  0  0  0  0  0  0
   19.6298    1.2773    4.7105 O   0  0  0  0  0  0  0  0  0  0  0  0
   18.5243    1.2061    2.4579 O   0  0  0  0  0  0  0  0  0  0  0  0
   19.1187    2.0417    5.0192 H   0  0  0  0  0  0  0  0  0  0  0  0
   17.9251    1.9339    2.6861 H   0  0  0  0  0  0  0  0  0  0  0  0
 34 35  2  0  0  0
 34 36  1  0  0  0
 34 37  1  0  0  0
 34 33  1  0  0  0
 29 30  2  0  0  0
 29 31  1  0  0  0
 29 33  1  0  0  0
 29 28  1  0  0  0
 24 25  2  0  0  0
 24 26  1  0  0  0
 24 28  1  0  0  0
 24 23  1  0  0  0
 23 22  1  0  0  0
 22  1  1  0  0  0
  1  2  1  0  0  0
  1  3  1  0  0  0
  2  7  1  0  0  0
  3  4  1  0  0  0
  3  5  1  0  0  0
  5  6  1  0  0  0
  5  7  1  0  0  0
  7 10  1  0  0  0
 10 11  1  0  0  0
 10 19  1  0  0  0
 11 12  2  0  0  0
 12 13  1  0  0  0
 13 14  1  0  0  0
 13 19  2  0  0  0
 14 15  1  0  0  0
 14 16  2  0  0  0
 16 17  1  0  0  0
 17 18  2  0  0  0
 18 19  1  0  0  0
 36 38  1  0  0  0
 37 39  1  0  0  0
 31 32  1  0  0  0
 26 27  1  0  0  0
  4  8  1  0  0  0
  6  9  1  0  0  0
 15 20  1  0  0  0
 15 21  1  0  0  0
M  END
> <minimizedAffinity>
-9.83559

$$$$
5F2R_ACP_A_501


 39 41  0  0  0  0  0  0  0  0999 V2000
   16.1085   -7.6128    5.5859 C   0  0  0  0  0  0  0  0  0  0  0  0
   16.2264   -8.5403    4.4994 O   0  0  0  0  0  0  0  0  0  0  0  0
   15.0502   -8.1870    6.5480 C   0  0  0  0  0  0  0  0  0  0  0  0
   13.8563   -7.4688    6.4447 O   0  0  0  0  0  0  0  0  0  0  0  0
   14.7873   -9.5757    6.0348 C   0  0  0  0  0  0  0  0  0  0  0  0
   13.4801  -10.0437    6.3804 O   0  0  0  0  0  0  0  0  0  0  0  0
   15.0313   -9.3090    4.5413 C   0  0  0  0  0  0  0  0  0  0  0  0
   13.5420   -7.4941    5.5274 H   0  0  0  0  0  0  0  0  0  0  0  0
   12.8165   -9.4075    6.0710 H   0  0  0  0  0  0  0  0  0  0  0  0
   15.2842  -10.5209    3.8128 N   0  0  0  0  0  0  0  0  0  0  0  0
   14.5104  -11.6386    3.7573 C   0  0  0  0  0  0  0  0  0  0  0  0
   15.0860  -12.5335    2.9408 N   0  0  0  0  0  0  0  0  0  0  0  0
   16.2529  -11.9980    2.4874 C   0  0  0  0  0  0  0  0  0  0  0  0
   17.2798  -12.4305    1.6111 C   0  0  0  0  0  0  0  0  0  0  0  0
   17.3061  -13.6544    1.0062 N   0  0  0  0  0  0  0  0  0  0  0  0
   18.3156  -11.5701    1.3782 N   0  0  0  0  0  0  0  0  0  0  0  0
   18.3518  -10.3444    1.9597 C   0  0  0  0  0  0  0  0  0  0  0  0
   17.4127   -9.8760    2.7741 N   0  0  0  0  0  0  0  0  0  0  0  0
   16.3606  -10.7076    3.0337 C   0  0  0  0  0  0  0  0  0  0  0  0
   16.5727  -14.2937    1.1567 H   0  0  0  0  0  0  0  0  0  0  0  0
   18.0585  -13.8976    0.4197 H   0  0  0  0  0  0  0  0  0  0  0  0
   17.4843   -7.4482    6.2111 C   0  0  0  0  0  0  0  0  0  0  0  0
   18.1924   -6.6290    5.2958 O   0  0  0  0  0  0  0  0  0  0  0  0
   18.2995   -5.0454    5.3755 P   0  0  0  0  0  0  0  0  0  0  0  0
   19.2832   -4.5887    6.3942 O   0  0  0  0  0  0  0  0  0  0  0  0
   16.9648   -4.3304    5.2802 O   0  0  0  0  0  0  0  0  0  0  0  0
   17.1066   -3.3724    5.3358 H   0  0  0  0  0  0  0  0  0  0  0  0
   18.9965   -4.7615    3.9579 O   0  0  0  0  0  0  0  0  0  0  0  0
   19.0072   -3.3321    3.2077 P   0  0  0  0  0  0  0  0  0  0  0  0
   19.9194   -2.4322    4.0203 O   0  0  0  0  0  0  0  0  0  0  0  0
   17.6099   -2.8014    3.0473 O   0  0  0  0  0  0  0  0  0  0  0  0
   17.6397   -1.9437    2.5952 H   0  0  0  0  0  0  0  0  0  0  0  0
   19.7703   -3.7162    1.5934 C   0  0  0  0  0  0  0  0  0  0  0  0
   19.8422   -2.3157    0.4106 P   0  0  0  0  0  0  0  0  0  0  0  0
   18.3837   -2.0816    0.1278 O   0  0  0  0  0  0  0  0  0  0  0  0
   20.6415   -2.7501   -0.8194 O   0  0  0  0  0  0  0  0  0  0  0  0
   20.6026   -1.2591    1.1997 O   0  0  0  0  0  0  0  0  0  0  0  0
   20.6858   -2.0161   -1.4521 H   0  0  0  0  0  0  0  0  0  0  0  0
   20.7001   -0.4596    0.6590 H   0  0  0  0  0  0  0  0  0  0  0  0
 34 35  2  0  0  0
 34 36  1  0  0  0
 34 37  1  0  0  0
 34 33  1  0  0  0
 29 30  2  0  0  0
 29 31  1  0  0  0
 29 33  1  0  0  0
 29 28  1  0  0  0
 24 25  2  0  0  0
 24 26  1  0  0  0
 24 28  1  0  0  0
 24 23  1  0  0  0
 23 22  1  0  0  0
 22  1  1  0  0  0
  1  2  1  0  0  0
  1  3  1  0  0  0
  2  7  1  0  0  0
  3  4  1  0  0  0
  3  5  1  0  0  0
  5  6  1  0  0  0
  5  7  1  0  0  0
  7 10  1  0  0  0
 10 11  1  0  0  0
 10 19  1  0  0  0
 11 12  2  0  0  0
 12 13  1  0  0  0
 13 14  1  0  0  0
 13 19  2  0  0  0
 14 15  1  0  0  0
 14 16  2  0  0  0
 16 17  1  0  0  0
 17 18  2  0  0  0
 18 19  1  0  0  0
 36 38  1  0  0  0
 37 39  1  0  0  0
 31 32  1  0  0  0
 26 27  1  0  0  0
  4  8  1  0  0  0
  6  9  1  0  0  0
 15 20  1  0  0  0
 15 21  1  0  0  0
M  END
> <minimizedAffinity>
-9.30320

$$$$
5F2R_ACP_A_501


 39 41  0  0  0  0  0  0  0  0999 V2000
   17.8579   -7.3663    5.6136 C   0  0  0  0  0  0  0  0  0  0  0  0
   18.6468   -6.9048    4.5094 O   0  0  0  0  0  0  0  0  0  0  0  0
   17.0828   -6.1458    6.1473 C   0  0  0  0  0  0  0  0  0  0  0  0
   17.6342   -5.7070    7.3536 O   0  0  0  0  0  0  0  0  0  0  0  0
   17.3216   -5.0700    5.1242 C   0  0  0  0  0  0  0  0  0  0  0  0
   17.2128   -3.7568    5.6818 O   0  0  0  0  0  0  0  0  0  0  0  0
   18.7298   -5.4959    4.6806 C   0  0  0  0  0  0  0  0  0  0  0  0
   18.5711   -5.4930    7.2220 H   0  0  0  0  0  0  0  0  0  0  0  0
   17.8099   -3.6778    6.4422 H   0  0  0  0  0  0  0  0  0  0  0  0
   19.0842   -4.9368    3.4058 N   0  0  0  0  0  0  0  0  0  0  0  0
   19.0905   -5.5571    2.1948 C   0  0  0  0  0  0  0  0  0  0  0  0
   19.4530   -4.6767    1.2503 N   0  0  0  0  0  0  0  0  0  0  0  0
   19.7075   -3.4867    1.8612 C   0  0  0  0  0  0  0  0  0  0  0  0
   20.1078   -2.2000    1.4211 C   0  0  0  0  0  0  0  0  0  0  0  0
   20.3875   -1.8872    0.1217 N   0  0  0  0  0  0  0  0  0  0  0  0
   20.2394   -1.2217    2.3660 N   0  0  0  0  0  0  0  0  0  0  0  0
   19.9872   -1.4745    3.6753 C   0  0  0  0  0  0  0  0  0  0  0  0
   19.5926   -2.6523    4.1461 N   0  0  0  0  0  0  0  0  0  0  0  0
   19.4509   -3.6578    3.2324 C   0  0  0  0  0  0  0  0  0  0  0  0
   20.3009   -2.5729   -0.5793 H   0  0  0  0  0  0  0  0  0  0  0  0
   20.6757   -0.9758   -0.1141 H   0  0  0  0  0  0  0  0  0  0  0  0
   16.9664   -8.4912    5.1132 C   0  0  0  0  0  0  0  0  0  0  0  0
   17.7247   -9.1140    4.0897 O   0  0  0  0  0  0  0  0  0  0  0  0
   17.1183   -9.8694    2.8298 P   0  0  0  0  0  0  0  0  0  0  0  0
   16.7332   -8.9384    1.7349 O   0  0  0  0  0  0  0  0  0  0  0  0
   16.1773  -11.0053    3.1845 O   0  0  0  0  0  0  0  0  0  0  0  0
   15.8477  -11.4180    2.3709 H   0  0  0  0  0  0  0  0  0  0  0  0
   18.4441  -10.6090    2.3089 O   0  0  0  0  0  0  0  0  0  0  0  0
   18.5763  -11.3703    0.8915 P   0  0  0  0  0  0  0  0  0  0  0  0
   19.3124  -10.4200   -0.0346 O   0  0  0  0  0  0  0  0  0  0  0  0
   17.2264  -11.7950    0.3841 O   0  0  0  0  0  0  0  0  0  0  0  0
   17.3291  -12.2494   -0.4667 H   0  0  0  0  0  0  0  0  0  0  0  0
   19.6284  -12.8091    1.2895 C   0  0  0  0  0  0  0  0  0  0  0  0
   18.7814  -14.1752    2.1738 P   0  0  0  0  0  0  0  0  0  0  0  0
   19.7599  -14.4767    3.2755 O   0  0  0  0  0  0  0  0  0  0  0  0
   18.5768  -15.3391    1.2021 O   0  0  0  0  0  0  0  0  0  0  0  0
   17.4464  -13.5460    2.5470 O   0  0  0  0  0  0  0  0  0  0  0  0
   18.1292  -16.0677    1.6600 H   0  0  0  0  0  0  0  0  0  0  0  0
   16.9073  -14.1930    3.0282 H   0  0  0  0  0  0  0  0  0  0  0  0
 34 35  2  0  0  0
 34 36  1  0  0  0
 34 37  1  0  0  0
 34 33  1  0  0  0
 29 30  2  0  0  0
 29 31  1  0  0  0
 29 33  1  0  0  0
 29 28  1  0  0  0
 24 25  2  0  0  0
 24 26  1  0  0  0
 24 28  1  0  0  0
 24 23  1  0  0  0
 23 22  1  0  0  0
 22  1  1  0  0  0
  1  2  1  0  0  0
  1  3  1  0  0  0
  2  7  1  0  0  0
  3  4  1  0  0  0
  3  5  1  0  0  0
  5  6  1  0  0  0
  5  7  1  0  0  0
  7 10  1  0  0  0
 10 11  1  0  0  0
 10 19  1  0  0  0
 11 12  2  0  0  0
 12 13  1  0  0  0
 13 14  1  0  0  0
 13 19  2  0  0  0
 14 15  1  0  0  0
 14 16  2  0  0  0
 16 17  1  0  0  0
 17 18  2  0  0  0
 18 19  1  0  0  0
 36 38  1  0  0  0
 37 39  1  0  0  0
 31 32  1  0  0  0
 26 27  1  0  0  0
  4  8  1  0  0  0
  6  9  1  0  0  0
 15 20  1  0  0  0
 15 21  1  0  0  0
M  END
> <minimizedAffinity>
-9.21096

$$$$
