3O9P_MHI_A_516


 36 35  0  0  0  0  0  0  0  0999 V2000
   15.0137   64.5407   36.4369 N   0  0  0  0  0  0  0  0  0  0  0  0
   13.3361   63.4529   35.4344 O   0  0  0  0  0  0  0  0  0  0  0  0
   13.8988   63.8251   36.4662 C   0  0  0  0  0  0  0  0  0  0  0  0
   15.4487   64.7510   37.2946 H   0  0  0  0  0  0  0  0  0  0  0  0
   13.3284   63.5166   37.8470 C   0  0  0  0  0  0  0  0  0  0  0  0
   14.3305   62.6901   38.6511 C   0  0  0  0  0  0  0  0  0  0  0  0
   14.4069   63.1511   40.1020 C   0  0  0  0  0  0  0  0  0  0  0  0
   12.4956   63.6718   42.0347 O   0  0  0  0  0  0  0  0  0  0  0  0
   13.8089   62.2024   41.0314 N   0  0  0  0  0  0  0  0  0  0  0  0
   12.9066   62.5622   41.9504 C   0  0  0  0  0  0  0  0  0  0  0  0
   14.0802   61.2573   40.9809 H   0  0  0  0  0  0  0  0  0  0  0  0
   12.4402   60.0966   42.2252 C   0  0  0  0  0  0  0  0  0  0  0  0
   10.9549   61.7589   43.1710 N   0  0  0  0  0  0  0  0  0  0  0  0
   12.3488   61.5180   42.8859 C   0  0  0  0  0  0  0  0  0  0  0  0
   10.6079   61.0384   43.8041 H   0  0  0  0  0  0  0  0  0  0  0  0
   10.4210   61.7341   42.3023 H   0  0  0  0  0  0  0  0  0  0  0  0
   16.7765   63.3354   39.4979 O   0  0  0  0  0  0  0  0  0  0  0  0
   16.1992   63.5844   41.5630 O   0  0  0  0  0  0  0  0  0  0  0  0
   15.8535   63.3417   40.4377 C   0  0  0  0  0  0  0  0  0  0  0  0
   15.5674   63.5968   42.2549 H   0  0  0  0  0  0  0  0  0  0  0  0
   15.6292   65.0300   35.2320 C   0  0  0  0  0  0  0  0  0  0  0  0
   17.5023   63.4285   35.5141 O   0  0  0  0  0  0  0  0  0  0  0  0
   16.7308   63.6869   33.5353 O   0  0  0  0  0  0  0  0  0  0  0  0
   16.6307   64.0017   34.7109 C   0  0  0  0  0  0  0  0  0  0  0  0
   16.1461   64.0527   32.9010 H   0  0  0  0  0  0  0  0  0  0  0  0
   16.2930   66.3402   35.6054 C   0  0  0  0  0  0  0  0  0  0  0  0
   15.3093   67.4853   35.8022 C   0  0  0  0  0  0  0  0  0  0  0  0
   15.1316   68.3320   34.5662 C   0  0  0  0  0  0  0  0  0  0  0  0
   13.6667   70.0369   35.5899 N   0  0  0  0  0  0  0  0  0  0  0  0
   13.8358   69.1526   34.4588 C   0  0  0  0  0  0  0  0  0  0  0  0
   13.6154   69.4865   36.4471 H   0  0  0  0  0  0  0  0  0  0  0  0
   12.8057   70.5720   35.4774 H   0  0  0  0  0  0  0  0  0  0  0  0
   14.9183   70.8947   33.2687 O   0  0  0  0  0  0  0  0  0  0  0  0
   13.0117   70.0750   32.4347 O   0  0  0  0  0  0  0  0  0  0  0  0
   13.8928   70.0733   33.3121 C   0  0  0  0  0  0  0  0  0  0  0  0
   12.2921   69.4777   32.4921 H   0  0  0  0  0  0  0  0  0  0  0  0
 12 14  1  0  0  0
 13 14  1  0  0  0
  8 10  2  0  0  0
 14 10  1  0  0  0
  9 10  1  0  0  0
  9  7  1  0  0  0
 17 19  2  0  0  0
  1  3  1  0  0  0
  1 21  1  0  0  0
 18 19  1  0  0  0
  7 19  1  0  0  0
  7  6  1  0  0  0
 29 30  1  0  0  0
  2  3  2  0  0  0
 22 24  2  0  0  0
  6  5  1  0  0  0
 23 24  1  0  0  0
  5  3  1  0  0  0
 33 35  2  0  0  0
 34 35  1  0  0  0
 21 24  1  0  0  0
 21 26  1  0  0  0
 26 27  1  0  0  0
 27 28  1  0  0  0
 28 30  1  0  0  0
 35 30  1  0  0  0
 13 15  1  0  0  0
 13 16  1  0  0  0
  9 11  1  0  0  0
  1  4  1  0  0  0
 18 20  1  0  0  0
 29 31  1  0  0  0
 29 32  1  0  0  0
 23 25  1  0  0  0
 34 36  1  0  0  0
M  END
> <minimizedAffinity>
-9.49963

$$$$
3O9P_MHI_A_516


 36 35  0  0  0  0  0  0  0  0999 V2000
   13.6705   62.6461   39.8993 N   0  0  0  0  0  0  0  0  0  0  0  0
   15.6416   61.8736   40.6208 O   0  0  0  0  0  0  0  0  0  0  0  0
   14.4531   61.6797   40.3568 C   0  0  0  0  0  0  0  0  0  0  0  0
   12.7159   62.4433   39.7695 H   0  0  0  0  0  0  0  0  0  0  0  0
   13.8127   60.3031   40.5054 C   0  0  0  0  0  0  0  0  0  0  0  0
   13.3808   60.0839   41.9544 C   0  0  0  0  0  0  0  0  0  0  0  0
   12.2864   59.0285   42.0635 C   0  0  0  0  0  0  0  0  0  0  0  0
   11.2712   57.5835   39.9325 O   0  0  0  0  0  0  0  0  0  0  0  0
   12.7159   57.7156   41.6018 N   0  0  0  0  0  0  0  0  0  0  0  0
   12.1392   57.0878   40.5714 C   0  0  0  0  0  0  0  0  0  0  0  0
   13.4614   57.2721   42.0674 H   0  0  0  0  0  0  0  0  0  0  0  0
   14.0470   55.8370   39.4908 C   0  0  0  0  0  0  0  0  0  0  0  0
   11.7561   55.1068   39.2028 N   0  0  0  0  0  0  0  0  0  0  0  0
   12.6353   55.7210   40.1682 C   0  0  0  0  0  0  0  0  0  0  0  0
   12.1175   54.1869   38.9508 H   0  0  0  0  0  0  0  0  0  0  0  0
   11.7050   55.6920   38.3689 H   0  0  0  0  0  0  0  0  0  0  0  0
   11.2994   59.9669   44.1029 O   0  0  0  0  0  0  0  0  0  0  0  0
   12.0030   57.9262   44.1225 O   0  0  0  0  0  0  0  0  0  0  0  0
   11.8805   58.9487   43.5025 C   0  0  0  0  0  0  0  0  0  0  0  0
   12.4120   57.1830   43.7245 H   0  0  0  0  0  0  0  0  0  0  0  0
   14.1263   63.9729   39.5801 C   0  0  0  0  0  0  0  0  0  0  0  0
   13.1388   66.1779   40.1422 O   0  0  0  0  0  0  0  0  0  0  0  0
   13.3492   64.7690   41.7385 O   0  0  0  0  0  0  0  0  0  0  0  0
   13.5016   64.9782   40.5451 C   0  0  0  0  0  0  0  0  0  0  0  0
   13.5842   63.9380   42.1022 H   0  0  0  0  0  0  0  0  0  0  0  0
   13.7119   64.2218   38.1438 C   0  0  0  0  0  0  0  0  0  0  0  0
   14.4726   63.3714   37.1359 C   0  0  0  0  0  0  0  0  0  0  0  0
   14.4060   63.9172   35.7310 C   0  0  0  0  0  0  0  0  0  0  0  0
   16.2286   65.4560   36.3717 N   0  0  0  0  0  0  0  0  0  0  0  0
   15.5793   64.7935   35.2628 C   0  0  0  0  0  0  0  0  0  0  0  0
   15.5585   66.0618   36.8454 H   0  0  0  0  0  0  0  0  0  0  0  0
   17.0071   66.0162   36.0244 H   0  0  0  0  0  0  0  0  0  0  0  0
   17.5371   63.4816   35.5256 O   0  0  0  0  0  0  0  0  0  0  0  0
   16.7157   63.7475   33.4623 O   0  0  0  0  0  0  0  0  0  0  0  0
   16.6513   63.9675   34.6845 C   0  0  0  0  0  0  0  0  0  0  0  0
   16.0697   64.1073   32.8868 H   0  0  0  0  0  0  0  0  0  0  0  0
 12 14  1  0  0  0
 13 14  1  0  0  0
  8 10  2  0  0  0
 14 10  1  0  0  0
  9 10  1  0  0  0
  9  7  1  0  0  0
 17 19  2  0  0  0
  1  3  1  0  0  0
  1 21  1  0  0  0
 18 19  1  0  0  0
  7 19  1  0  0  0
  7  6  1  0  0  0
 29 30  1  0  0  0
  2  3  2  0  0  0
 22 24  2  0  0  0
  6  5  1  0  0  0
 23 24  1  0  0  0
  5  3  1  0  0  0
 33 35  2  0  0  0
 34 35  1  0  0  0
 21 24  1  0  0  0
 21 26  1  0  0  0
 26 27  1  0  0  0
 27 28  1  0  0  0
 28 30  1  0  0  0
 35 30  1  0  0  0
 13 15  1  0  0  0
 13 16  1  0  0  0
  9 11  1  0  0  0
  1  4  1  0  0  0
 18 20  1  0  0  0
 29 31  1  0  0  0
 29 32  1  0  0  0
 23 25  1  0  0  0
 34 36  1  0  0  0
M  END
> <minimizedAffinity>
-9.42209

$$$$
3O9P_MHI_A_516


 36 35  0  0  0  0  0  0  0  0999 V2000
   14.9537   64.4697   36.3520 N   0  0  0  0  0  0  0  0  0  0  0  0
   13.2373   63.4226   35.3723 O   0  0  0  0  0  0  0  0  0  0  0  0
   13.8337   63.7631   36.3961 C   0  0  0  0  0  0  0  0  0  0  0  0
   15.4158   64.6540   37.2016 H   0  0  0  0  0  0  0  0  0  0  0  0
   13.3014   63.4237   37.7848 C   0  0  0  0  0  0  0  0  0  0  0  0
   13.8798   64.3925   38.8148 C   0  0  0  0  0  0  0  0  0  0  0  0
   14.4315   63.6592   40.0319 C   0  0  0  0  0  0  0  0  0  0  0  0
   14.4662   62.0915   42.3124 O   0  0  0  0  0  0  0  0  0  0  0  0
   13.8648   62.3277   40.1974 N   0  0  0  0  0  0  0  0  0  0  0  0
   13.9583   61.6396   41.3402 C   0  0  0  0  0  0  0  0  0  0  0  0
   13.3936   61.9173   39.4366 H   0  0  0  0  0  0  0  0  0  0  0  0
   13.7450   59.4242   40.1493 C   0  0  0  0  0  0  0  0  0  0  0  0
   11.9156   60.3142   41.4628 N   0  0  0  0  0  0  0  0  0  0  0  0
   13.3569   60.2582   41.4218 C   0  0  0  0  0  0  0  0  0  0  0  0
   11.5400   59.3674   41.5176 H   0  0  0  0  0  0  0  0  0  0  0  0
   11.5689   60.7692   40.6183 H   0  0  0  0  0  0  0  0  0  0  0  0
   16.4542   63.4033   38.6691 O   0  0  0  0  0  0  0  0  0  0  0  0
   16.6553   63.6940   40.7987 O   0  0  0  0  0  0  0  0  0  0  0  0
   15.9155   63.5576   39.8612 C   0  0  0  0  0  0  0  0  0  0  0  0
   16.3043   63.8061   41.6602 H   0  0  0  0  0  0  0  0  0  0  0  0
   15.5379   64.9849   35.1423 C   0  0  0  0  0  0  0  0  0  0  0  0
   17.5216   63.5364   35.4878 O   0  0  0  0  0  0  0  0  0  0  0  0
   16.7954   63.7329   33.4849 O   0  0  0  0  0  0  0  0  0  0  0  0
   16.6335   64.0389   34.6559 C   0  0  0  0  0  0  0  0  0  0  0  0
   16.2042   64.0513   32.8314 H   0  0  0  0  0  0  0  0  0  0  0  0
   16.0774   66.3573   35.4916 C   0  0  0  0  0  0  0  0  0  0  0  0
   15.2907   67.4981   34.8613 C   0  0  0  0  0  0  0  0  0  0  0  0
   14.2532   68.0839   35.7868 C   0  0  0  0  0  0  0  0  0  0  0  0
   12.6269   69.4613   34.5384 N   0  0  0  0  0  0  0  0  0  0  0  0
   13.7399   69.4959   35.4605 C   0  0  0  0  0  0  0  0  0  0  0  0
   12.9236   69.0290   33.6635 H   0  0  0  0  0  0  0  0  0  0  0  0
   12.3066   70.4124   34.3562 H   0  0  0  0  0  0  0  0  0  0  0  0
   11.9738   69.7348   37.0248 O   0  0  0  0  0  0  0  0  0  0  0  0
   13.7907   71.0134   37.2831 O   0  0  0  0  0  0  0  0  0  0  0  0
   13.1707   70.1356   36.6575 C   0  0  0  0  0  0  0  0  0  0  0  0
   14.6427   71.2789   36.9975 H   0  0  0  0  0  0  0  0  0  0  0  0
 12 14  1  0  0  0
 13 14  1  0  0  0
  8 10  2  0  0  0
 14 10  1  0  0  0
  9 10  1  0  0  0
  9  7  1  0  0  0
 17 19  2  0  0  0
  1  3  1  0  0  0
  1 21  1  0  0  0
 18 19  1  0  0  0
  7 19  1  0  0  0
  7  6  1  0  0  0
 29 30  1  0  0  0
  2  3  2  0  0  0
 22 24  2  0  0  0
  6  5  1  0  0  0
 23 24  1  0  0  0
  5  3  1  0  0  0
 33 35  2  0  0  0
 34 35  1  0  0  0
 21 24  1  0  0  0
 21 26  1  0  0  0
 26 27  1  0  0  0
 27 28  1  0  0  0
 28 30  1  0  0  0
 35 30  1  0  0  0
 13 15  1  0  0  0
 13 16  1  0  0  0
  9 11  1  0  0  0
  1  4  1  0  0  0
 18 20  1  0  0  0
 29 31  1  0  0  0
 29 32  1  0  0  0
 23 25  1  0  0  0
 34 36  1  0  0  0
M  END
> <minimizedAffinity>
-9.19593

$$$$
3O9P_MHI_A_516


 36 35  0  0  0  0  0  0  0  0999 V2000
   13.8032   62.6413   39.1513 N   0  0  0  0  0  0  0  0  0  0  0  0
   15.7389   62.5831   40.2702 O   0  0  0  0  0  0  0  0  0  0  0  0
   14.6490   62.0746   39.9994 C   0  0  0  0  0  0  0  0  0  0  0  0
   12.9227   62.2186   39.0273 H   0  0  0  0  0  0  0  0  0  0  0  0
   14.2166   60.7390   40.5961 C   0  0  0  0  0  0  0  0  0  0  0  0
   13.8309   60.9248   42.0627 C   0  0  0  0  0  0  0  0  0  0  0  0
   12.3241   60.8195   42.2677 C   0  0  0  0  0  0  0  0  0  0  0  0
   11.8365   58.2218   41.4467 O   0  0  0  0  0  0  0  0  0  0  0  0
   11.9423   59.6868   43.1000 N   0  0  0  0  0  0  0  0  0  0  0  0
   11.7031   58.4703   42.5991 C   0  0  0  0  0  0  0  0  0  0  0  0
   11.8567   59.8225   44.0714 H   0  0  0  0  0  0  0  0  0  0  0  0
    9.8785   57.6493   44.1382 C   0  0  0  0  0  0  0  0  0  0  0  0
   12.2114   57.2365   44.6396 N   0  0  0  0  0  0  0  0  0  0  0  0
   11.2960   57.3551   43.5304 C   0  0  0  0  0  0  0  0  0  0  0  0
   11.9100   56.4764   45.2493 H   0  0  0  0  0  0  0  0  0  0  0  0
   12.2229   58.1103   45.1658 H   0  0  0  0  0  0  0  0  0  0  0  0
   12.3087   63.2615   42.4914 O   0  0  0  0  0  0  0  0  0  0  0  0
   11.0268   62.0843   43.7684 O   0  0  0  0  0  0  0  0  0  0  0  0
   11.8674   62.0929   42.9093 C   0  0  0  0  0  0  0  0  0  0  0  0
   10.6917   61.2696   44.0878 H   0  0  0  0  0  0  0  0  0  0  0  0
   14.0889   63.8346   38.4000 C   0  0  0  0  0  0  0  0  0  0  0  0
   13.7732   66.2746   38.7154 O   0  0  0  0  0  0  0  0  0  0  0  0
   12.8569   64.9798   40.1512 O   0  0  0  0  0  0  0  0  0  0  0  0
   13.5208   65.0504   39.1288 C   0  0  0  0  0  0  0  0  0  0  0  0
   12.6353   64.1427   40.5091 H   0  0  0  0  0  0  0  0  0  0  0  0
   13.4538   63.6323   37.0390 C   0  0  0  0  0  0  0  0  0  0  0  0
   14.4488   63.6967   35.8885 C   0  0  0  0  0  0  0  0  0  0  0  0
   15.2572   64.9705   35.8758 C   0  0  0  0  0  0  0  0  0  0  0  0
   16.5399   63.8580   34.0821 N   0  0  0  0  0  0  0  0  0  0  0  0
   16.4832   65.0136   34.9491 C   0  0  0  0  0  0  0  0  0  0  0  0
   16.6077   63.0118   34.6475 H   0  0  0  0  0  0  0  0  0  0  0  0
   17.3569   63.9279   33.4754 H   0  0  0  0  0  0  0  0  0  0  0  0
   17.0484   67.2318   34.3300 O   0  0  0  0  0  0  0  0  0  0  0  0
   15.7144   66.0643   32.9662 O   0  0  0  0  0  0  0  0  0  0  0  0
   16.3888   66.1411   34.0081 C   0  0  0  0  0  0  0  0  0  0  0  0
   15.2547   65.2735   32.7629 H   0  0  0  0  0  0  0  0  0  0  0  0
 12 14  1  0  0  0
 13 14  1  0  0  0
  8 10  2  0  0  0
 14 10  1  0  0  0
  9 10  1  0  0  0
  9  7  1  0  0  0
 17 19  2  0  0  0
  1  3  1  0  0  0
  1 21  1  0  0  0
 18 19  1  0  0  0
  7 19  1  0  0  0
  7  6  1  0  0  0
 29 30  1  0  0  0
  2  3  2  0  0  0
 22 24  2  0  0  0
  6  5  1  0  0  0
 23 24  1  0  0  0
  5  3  1  0  0  0
 33 35  2  0  0  0
 34 35  1  0  0  0
 21 24  1  0  0  0
 21 26  1  0  0  0
 26 27  1  0  0  0
 27 28  1  0  0  0
 28 30  1  0  0  0
 35 30  1  0  0  0
 13 15  1  0  0  0
 13 16  1  0  0  0
  9 11  1  0  0  0
  1  4  1  0  0  0
 18 20  1  0  0  0
 29 31  1  0  0  0
 29 32  1  0  0  0
 23 25  1  0  0  0
 34 36  1  0  0  0
M  END
> <minimizedAffinity>
-9.07566

$$$$
3O9P_MHI_A_516


 36 35  0  0  0  0  0  0  0  0999 V2000
   14.1994   64.2632   39.7933 N   0  0  0  0  0  0  0  0  0  0  0  0
   13.1389   62.6991   38.5968 O   0  0  0  0  0  0  0  0  0  0  0  0
   13.7393   63.7745   38.6508 C   0  0  0  0  0  0  0  0  0  0  0  0
   14.6126   65.1566   39.7790 H   0  0  0  0  0  0  0  0  0  0  0  0
   14.0244   64.5977   37.3986 C   0  0  0  0  0  0  0  0  0  0  0  0
   14.3693   63.6710   36.2340 C   0  0  0  0  0  0  0  0  0  0  0  0
   14.9704   64.4376   35.0616 C   0  0  0  0  0  0  0  0  0  0  0  0
   15.7257   66.3943   33.2560 O   0  0  0  0  0  0  0  0  0  0  0  0
   14.9991   65.8774   35.2797 N   0  0  0  0  0  0  0  0  0  0  0  0
   15.4076   66.7417   34.3447 C   0  0  0  0  0  0  0  0  0  0  0  0
   14.7058   66.2286   36.1514 H   0  0  0  0  0  0  0  0  0  0  0  0
   14.5017   68.5150   35.8961 C   0  0  0  0  0  0  0  0  0  0  0  0
   14.9068   68.9941   33.5572 N   0  0  0  0  0  0  0  0  0  0  0  0
   15.4216   68.2175   34.6590 C   0  0  0  0  0  0  0  0  0  0  0  0
   14.9292   69.9846   33.7997 H   0  0  0  0  0  0  0  0  0  0  0  0
   13.9456   68.7133   33.3631 H   0  0  0  0  0  0  0  0  0  0  0  0
   17.1696   63.7289   35.8834 O   0  0  0  0  0  0  0  0  0  0  0  0
   16.7568   63.6198   33.7674 O   0  0  0  0  0  0  0  0  0  0  0  0
   16.3648   63.9305   34.8604 C   0  0  0  0  0  0  0  0  0  0  0  0
   16.2088   63.7501   33.0186 H   0  0  0  0  0  0  0  0  0  0  0  0
   14.1338   63.5719   41.0534 C   0  0  0  0  0  0  0  0  0  0  0  0
   15.1890   65.5620   42.0920 O   0  0  0  0  0  0  0  0  0  0  0  0
   13.7808   64.4741   43.2799 O   0  0  0  0  0  0  0  0  0  0  0  0
   14.3366   64.5641   42.1963 C   0  0  0  0  0  0  0  0  0  0  0  0
   13.1597   63.7892   43.4324 H   0  0  0  0  0  0  0  0  0  0  0  0
   15.2219   62.5180   41.0078 C   0  0  0  0  0  0  0  0  0  0  0  0
   14.8055   61.1878   41.6201 C   0  0  0  0  0  0  0  0  0  0  0  0
   13.3088   61.0112   41.6903 C   0  0  0  0  0  0  0  0  0  0  0  0
   11.7575   59.3396   42.6386 N   0  0  0  0  0  0  0  0  0  0  0  0
   12.7690   59.5728   41.6324 C   0  0  0  0  0  0  0  0  0  0  0  0
   12.1598   59.4830   43.5649 H   0  0  0  0  0  0  0  0  0  0  0  0
   11.4153   58.3818   42.5612 H   0  0  0  0  0  0  0  0  0  0  0  0
   11.6193   58.1090   40.1632 O   0  0  0  0  0  0  0  0  0  0  0  0
   11.8777   60.2409   39.5381 O   0  0  0  0  0  0  0  0  0  0  0  0
   12.0542   59.3325   40.3687 C   0  0  0  0  0  0  0  0  0  0  0  0
   12.1992   61.1037   39.7120 H   0  0  0  0  0  0  0  0  0  0  0  0
 12 14  1  0  0  0
 13 14  1  0  0  0
  8 10  2  0  0  0
 14 10  1  0  0  0
  9 10  1  0  0  0
  9  7  1  0  0  0
 17 19  2  0  0  0
  1  3  1  0  0  0
  1 21  1  0  0  0
 18 19  1  0  0  0
  7 19  1  0  0  0
  7  6  1  0  0  0
 29 30  1  0  0  0
  2  3  2  0  0  0
 22 24  2  0  0  0
  6  5  1  0  0  0
 23 24  1  0  0  0
  5  3  1  0  0  0
 33 35  2  0  0  0
 34 35  1  0  0  0
 21 24  1  0  0  0
 21 26  1  0  0  0
 26 27  1  0  0  0
 27 28  1  0  0  0
 28 30  1  0  0  0
 35 30  1  0  0  0
 13 15  1  0  0  0
 13 16  1  0  0  0
  9 11  1  0  0  0
  1  4  1  0  0  0
 18 20  1  0  0  0
 29 31  1  0  0  0
 29 32  1  0  0  0
 23 25  1  0  0  0
 34 36  1  0  0  0
M  END
> <minimizedAffinity>
-8.97736

$$$$
3O9P_MHI_A_516


 36 35  0  0  0  0  0  0  0  0999 V2000
   12.7248   61.0762   41.3757 N   0  0  0  0  0  0  0  0  0  0  0  0
   11.9366   60.0076   39.5758 O   0  0  0  0  0  0  0  0  0  0  0  0
   12.7304   60.8058   40.0786 C   0  0  0  0  0  0  0  0  0  0  0  0
   13.3406   61.7705   41.7042 H   0  0  0  0  0  0  0  0  0  0  0  0
   13.7971   61.5089   39.2449 C   0  0  0  0  0  0  0  0  0  0  0  0
   14.5961   62.4688   40.1248 C   0  0  0  0  0  0  0  0  0  0  0  0
   14.5149   63.9027   39.6143 C   0  0  0  0  0  0  0  0  0  0  0  0
   16.1302   64.3823   37.4187 O   0  0  0  0  0  0  0  0  0  0  0  0
   14.1068   63.9861   38.2186 N   0  0  0  0  0  0  0  0  0  0  0  0
   14.9667   64.2495   37.2289 C   0  0  0  0  0  0  0  0  0  0  0  0
   13.1589   63.8426   37.9946 H   0  0  0  0  0  0  0  0  0  0  0  0
   13.2011   63.4097   35.6323 C   0  0  0  0  0  0  0  0  0  0  0  0
   15.4502   63.8798   34.8680 N   0  0  0  0  0  0  0  0  0  0  0  0
   14.4573   64.3344   35.8112 C   0  0  0  0  0  0  0  0  0  0  0  0
   15.0769   63.9493   33.9213 H   0  0  0  0  0  0  0  0  0  0  0  0
   15.6903   62.9090   35.0685 H   0  0  0  0  0  0  0  0  0  0  0  0
   13.1182   65.8430   40.1605 O   0  0  0  0  0  0  0  0  0  0  0  0
   13.0231   64.0948   41.4233 O   0  0  0  0  0  0  0  0  0  0  0  0
   13.5270   64.6303   40.4725 C   0  0  0  0  0  0  0  0  0  0  0  0
   13.2915   63.2322   41.6719 H   0  0  0  0  0  0  0  0  0  0  0  0
   11.8764   60.4203   42.3349 C   0  0  0  0  0  0  0  0  0  0  0  0
   11.2719   62.7068   43.0829 O   0  0  0  0  0  0  0  0  0  0  0  0
   11.1657   61.1446   44.5409 O   0  0  0  0  0  0  0  0  0  0  0  0
   11.4006   61.4300   43.3771 C   0  0  0  0  0  0  0  0  0  0  0  0
   11.2354   60.2555   44.8285 H   0  0  0  0  0  0  0  0  0  0  0  0
   12.7148   59.3158   42.9463 C   0  0  0  0  0  0  0  0  0  0  0  0
   12.0647   57.9417   42.8616 C   0  0  0  0  0  0  0  0  0  0  0  0
   11.6164   57.4153   44.2025 C   0  0  0  0  0  0  0  0  0  0  0  0
   10.1366   55.8262   45.3795 N   0  0  0  0  0  0  0  0  0  0  0  0
   10.2355   56.7424   44.2655 C   0  0  0  0  0  0  0  0  0  0  0  0
   10.8360   55.0907   45.2779 H   0  0  0  0  0  0  0  0  0  0  0  0
    9.2055   55.4101   45.3959 H   0  0  0  0  0  0  0  0  0  0  0  0
    8.2882   57.4000   45.4482 O   0  0  0  0  0  0  0  0  0  0  0  0
    9.1422   58.8237   43.9494 O   0  0  0  0  0  0  0  0  0  0  0  0
    9.1830   57.7324   44.5443 C   0  0  0  0  0  0  0  0  0  0  0  0
    9.7940   59.0332   43.3097 H   0  0  0  0  0  0  0  0  0  0  0  0
 12 14  1  0  0  0
 13 14  1  0  0  0
  8 10  2  0  0  0
 14 10  1  0  0  0
  9 10  1  0  0  0
  9  7  1  0  0  0
 17 19  2  0  0  0
  1  3  1  0  0  0
  1 21  1  0  0  0
 18 19  1  0  0  0
  7 19  1  0  0  0
  7  6  1  0  0  0
 29 30  1  0  0  0
  2  3  2  0  0  0
 22 24  2  0  0  0
  6  5  1  0  0  0
 23 24  1  0  0  0
  5  3  1  0  0  0
 33 35  2  0  0  0
 34 35  1  0  0  0
 21 24  1  0  0  0
 21 26  1  0  0  0
 26 27  1  0  0  0
 27 28  1  0  0  0
 28 30  1  0  0  0
 35 30  1  0  0  0
 13 15  1  0  0  0
 13 16  1  0  0  0
  9 11  1  0  0  0
  1  4  1  0  0  0
 18 20  1  0  0  0
 29 31  1  0  0  0
 29 32  1  0  0  0
 23 25  1  0  0  0
 34 36  1  0  0  0
M  END
> <minimizedAffinity>
-8.95296

$$$$
3O9P_MHI_A_516


 36 35  0  0  0  0  0  0  0  0999 V2000
   13.7335   62.6252   41.0338 N   0  0  0  0  0  0  0  0  0  0  0  0
   15.6552   61.4819   41.0822 O   0  0  0  0  0  0  0  0  0  0  0  0
   14.4229   61.4937   41.0488 C   0  0  0  0  0  0  0  0  0  0  0  0
   12.7515   62.5668   41.0726 H   0  0  0  0  0  0  0  0  0  0  0  0
   13.6098   60.2045   40.9860 C   0  0  0  0  0  0  0  0  0  0  0  0
   13.0021   59.9054   42.3554 C   0  0  0  0  0  0  0  0  0  0  0  0
   11.9458   58.8093   42.2768 C   0  0  0  0  0  0  0  0  0  0  0  0
   11.3027   57.5497   39.8979 O   0  0  0  0  0  0  0  0  0  0  0  0
   12.4729   57.5479   41.7744 N   0  0  0  0  0  0  0  0  0  0  0  0
   12.0754   57.0086   40.6172 C   0  0  0  0  0  0  0  0  0  0  0  0
   13.1496   57.0729   42.3088 H   0  0  0  0  0  0  0  0  0  0  0  0
   14.0408   55.9206   39.4658 C   0  0  0  0  0  0  0  0  0  0  0  0
   11.8038   55.0252   39.2255 N   0  0  0  0  0  0  0  0  0  0  0  0
   12.6608   55.6890   40.1779 C   0  0  0  0  0  0  0  0  0  0  0  0
   12.2256   54.1388   38.9486 H   0  0  0  0  0  0  0  0  0  0  0  0
   11.6863   55.6173   38.4033 H   0  0  0  0  0  0  0  0  0  0  0  0
   12.1370   58.0905   44.6136 O   0  0  0  0  0  0  0  0  0  0  0  0
   10.2972   59.0000   43.9444 O   0  0  0  0  0  0  0  0  0  0  0  0
   11.3981   58.6128   43.6564 C   0  0  0  0  0  0  0  0  0  0  0  0
    9.7462   59.3767   43.2868 H   0  0  0  0  0  0  0  0  0  0  0  0
   14.3279   63.9336   40.9644 C   0  0  0  0  0  0  0  0  0  0  0  0
   14.7860   65.7886   42.5461 O   0  0  0  0  0  0  0  0  0  0  0  0
   13.6616   64.1278   43.2913 O   0  0  0  0  0  0  0  0  0  0  0  0
   14.2188   64.6216   42.3233 C   0  0  0  0  0  0  0  0  0  0  0  0
   13.2343   63.2977   43.2128 H   0  0  0  0  0  0  0  0  0  0  0  0
   13.5725   64.6777   39.8816 C   0  0  0  0  0  0  0  0  0  0  0  0
   13.4886   63.9159   38.5662 C   0  0  0  0  0  0  0  0  0  0  0  0
   14.2979   64.5501   37.4622 C   0  0  0  0  0  0  0  0  0  0  0  0
   13.6649   63.8263   35.1871 N   0  0  0  0  0  0  0  0  0  0  0  0
   14.6360   63.6711   36.2469 C   0  0  0  0  0  0  0  0  0  0  0  0
   12.7443   63.5468   35.5260 H   0  0  0  0  0  0  0  0  0  0  0  0
   13.9286   63.2393   34.3958 H   0  0  0  0  0  0  0  0  0  0  0  0
   16.3893   63.3201   34.6894 O   0  0  0  0  0  0  0  0  0  0  0  0
   16.4629   65.1574   35.9629 O   0  0  0  0  0  0  0  0  0  0  0  0
   15.8953   64.1050   35.6212 C   0  0  0  0  0  0  0  0  0  0  0  0
   16.0870   65.6970   36.6303 H   0  0  0  0  0  0  0  0  0  0  0  0
 12 14  1  0  0  0
 13 14  1  0  0  0
  8 10  2  0  0  0
 14 10  1  0  0  0
  9 10  1  0  0  0
  9  7  1  0  0  0
 17 19  2  0  0  0
  1  3  1  0  0  0
  1 21  1  0  0  0
 18 19  1  0  0  0
  7 19  1  0  0  0
  7  6  1  0  0  0
 29 30  1  0  0  0
  2  3  2  0  0  0
 22 24  2  0  0  0
  6  5  1  0  0  0
 23 24  1  0  0  0
  5  3  1  0  0  0
 33 35  2  0  0  0
 34 35  1  0  0  0
 21 24  1  0  0  0
 21 26  1  0  0  0
 26 27  1  0  0  0
 27 28  1  0  0  0
 28 30  1  0  0  0
 35 30  1  0  0  0
 13 15  1  0  0  0
 13 16  1  0  0  0
  9 11  1  0  0  0
  1  4  1  0  0  0
 18 20  1  0  0  0
 29 31  1  0  0  0
 29 32  1  0  0  0
 23 25  1  0  0  0
 34 36  1  0  0  0
M  END
> <minimizedAffinity>
-8.90320

$$$$
3O9P_MHI_A_516


 36 35  0  0  0  0  0  0  0  0999 V2000
   15.2998   64.7773   35.9690 N   0  0  0  0  0  0  0  0  0  0  0  0
   13.4764   63.5567   35.5358 O   0  0  0  0  0  0  0  0  0  0  0  0
   14.2298   64.0949   36.3498 C   0  0  0  0  0  0  0  0  0  0  0  0
   15.8962   65.1276   36.6696 H   0  0  0  0  0  0  0  0  0  0  0  0
   13.9596   64.0411   37.8502 C   0  0  0  0  0  0  0  0  0  0  0  0
   13.6407   62.6073   38.2704 C   0  0  0  0  0  0  0  0  0  0  0  0
   14.4333   62.1912   39.5041 C   0  0  0  0  0  0  0  0  0  0  0  0
   16.5679   63.5130   40.6685 O   0  0  0  0  0  0  0  0  0  0  0  0
   14.3836   63.1811   40.5713 N   0  0  0  0  0  0  0  0  0  0  0  0
   15.4817   63.7454   41.0851 C   0  0  0  0  0  0  0  0  0  0  0  0
   13.5054   63.4458   40.9291 H   0  0  0  0  0  0  0  0  0  0  0  0
   16.2884   64.3687   43.3944 C   0  0  0  0  0  0  0  0  0  0  0  0
   13.9969   64.7728   42.7235 N   0  0  0  0  0  0  0  0  0  0  0  0
   15.3419   64.7510   42.2013 C   0  0  0  0  0  0  0  0  0  0  0  0
   13.9348   65.4604   43.4743 H   0  0  0  0  0  0  0  0  0  0  0  0
   13.7583   63.8501   43.0869 H   0  0  0  0  0  0  0  0  0  0  0  0
   12.6585   60.5030   39.6230 O   0  0  0  0  0  0  0  0  0  0  0  0
   14.5149   60.1468   40.6654 O   0  0  0  0  0  0  0  0  0  0  0  0
   13.8606   60.8963   39.9909 C   0  0  0  0  0  0  0  0  0  0  0  0
   15.3741   60.3962   40.9440 H   0  0  0  0  0  0  0  0  0  0  0  0
   15.6462   65.0391   34.5973 C   0  0  0  0  0  0  0  0  0  0  0  0
   16.8997   62.9114   34.3637 O   0  0  0  0  0  0  0  0  0  0  0  0
   17.9143   64.7076   33.7962 O   0  0  0  0  0  0  0  0  0  0  0  0
   16.8748   64.2188   34.2107 C   0  0  0  0  0  0  0  0  0  0  0  0
   17.9758   65.6328   33.6610 H   0  0  0  0  0  0  0  0  0  0  0  0
   15.9003   66.5306   34.5090 C   0  0  0  0  0  0  0  0  0  0  0  0
   14.6271   67.3651   34.5124 C   0  0  0  0  0  0  0  0  0  0  0  0
   14.5511   68.3241   35.6746 C   0  0  0  0  0  0  0  0  0  0  0  0
   12.6508   69.4507   34.5699 N   0  0  0  0  0  0  0  0  0  0  0  0
   13.7813   69.6362   35.4518 C   0  0  0  0  0  0  0  0  0  0  0  0
   12.9788   69.1249   33.6606 H   0  0  0  0  0  0  0  0  0  0  0  0
   12.1591   70.3370   34.4564 H   0  0  0  0  0  0  0  0  0  0  0  0
   13.7871   71.0636   37.3454 O   0  0  0  0  0  0  0  0  0  0  0  0
   12.1094   69.5997   37.1341 O   0  0  0  0  0  0  0  0  0  0  0  0
   13.1636   70.0999   36.7044 C   0  0  0  0  0  0  0  0  0  0  0  0
   11.6871   68.9138   36.6554 H   0  0  0  0  0  0  0  0  0  0  0  0
 12 14  1  0  0  0
 13 14  1  0  0  0
  8 10  2  0  0  0
 14 10  1  0  0  0
  9 10  1  0  0  0
  9  7  1  0  0  0
 17 19  2  0  0  0
  1  3  1  0  0  0
  1 21  1  0  0  0
 18 19  1  0  0  0
  7 19  1  0  0  0
  7  6  1  0  0  0
 29 30  1  0  0  0
  2  3  2  0  0  0
 22 24  2  0  0  0
  6  5  1  0  0  0
 23 24  1  0  0  0
  5  3  1  0  0  0
 33 35  2  0  0  0
 34 35  1  0  0  0
 21 24  1  0  0  0
 21 26  1  0  0  0
 26 27  1  0  0  0
 27 28  1  0  0  0
 28 30  1  0  0  0
 35 30  1  0  0  0
 13 15  1  0  0  0
 13 16  1  0  0  0
  9 11  1  0  0  0
  1  4  1  0  0  0
 18 20  1  0  0  0
 29 31  1  0  0  0
 29 32  1  0  0  0
 23 25  1  0  0  0
 34 36  1  0  0  0
M  END
> <minimizedAffinity>
-8.87805

$$$$
3O9P_MHI_A_516


 36 35  0  0  0  0  0  0  0  0999 V2000
   14.6826   64.2138   38.4828 N   0  0  0  0  0  0  0  0  0  0  0  0
   13.3811   63.7657   36.7199 O   0  0  0  0  0  0  0  0  0  0  0  0
   14.3927   64.2888   37.1920 C   0  0  0  0  0  0  0  0  0  0  0  0
   15.4702   64.7073   38.8074 H   0  0  0  0  0  0  0  0  0  0  0  0
   15.3980   65.0274   36.3140 C   0  0  0  0  0  0  0  0  0  0  0  0
   14.7849   65.3068   34.9429 C   0  0  0  0  0  0  0  0  0  0  0  0
   14.8883   66.7806   34.5681 C   0  0  0  0  0  0  0  0  0  0  0  0
   13.4679   69.1483   34.3782 O   0  0  0  0  0  0  0  0  0  0  0  0
   14.5058   67.6710   35.6554 N   0  0  0  0  0  0  0  0  0  0  0  0
   13.8379   68.8119   35.4539 C   0  0  0  0  0  0  0  0  0  0  0  0
   14.7490   67.4228   36.5765 H   0  0  0  0  0  0  0  0  0  0  0  0
   13.5019   68.8352   37.9556 C   0  0  0  0  0  0  0  0  0  0  0  0
   12.1726   70.2483   36.5065 N   0  0  0  0  0  0  0  0  0  0  0  0
   13.4949   69.6853   36.6356 C   0  0  0  0  0  0  0  0  0  0  0  0
   11.9708   70.8319   37.3183 H   0  0  0  0  0  0  0  0  0  0  0  0
   11.4866   69.4955   36.4499 H   0  0  0  0  0  0  0  0  0  0  0  0
   17.1645   67.5679   35.0297 O   0  0  0  0  0  0  0  0  0  0  0  0
   16.7224   66.7163   33.0960 O   0  0  0  0  0  0  0  0  0  0  0  0
   16.3085   67.0461   34.1753 C   0  0  0  0  0  0  0  0  0  0  0  0
   16.1395   66.3418   32.4652 H   0  0  0  0  0  0  0  0  0  0  0  0
   13.9202   63.4576   39.4403 C   0  0  0  0  0  0  0  0  0  0  0  0
   14.5298   65.2624   41.0291 O   0  0  0  0  0  0  0  0  0  0  0  0
   12.8029   64.0908   41.5011 O   0  0  0  0  0  0  0  0  0  0  0  0
   13.7024   64.2926   40.7002 C   0  0  0  0  0  0  0  0  0  0  0  0
   12.1729   63.4166   41.3381 H   0  0  0  0  0  0  0  0  0  0  0  0
   14.7237   62.2023   39.7150 C   0  0  0  0  0  0  0  0  0  0  0  0
   13.8626   60.9695   39.9525 C   0  0  0  0  0  0  0  0  0  0  0  0
   13.8194   60.5477   41.4004 C   0  0  0  0  0  0  0  0  0  0  0  0
   12.9374   58.5637   42.5779 N   0  0  0  0  0  0  0  0  0  0  0  0
   12.5778   59.7705   41.8675 C   0  0  0  0  0  0  0  0  0  0  0  0
   13.4723   57.9525   41.9609 H   0  0  0  0  0  0  0  0  0  0  0  0
   12.0907   58.0831   42.8821 H   0  0  0  0  0  0  0  0  0  0  0  0
   11.5714   59.9388   44.0080 O   0  0  0  0  0  0  0  0  0  0  0  0
   11.4391   61.7029   42.6395 O   0  0  0  0  0  0  0  0  0  0  0  0
   11.8227   60.5422   42.8675 C   0  0  0  0  0  0  0  0  0  0  0  0
   11.6331   62.1074   41.8169 H   0  0  0  0  0  0  0  0  0  0  0  0
 12 14  1  0  0  0
 13 14  1  0  0  0
  8 10  2  0  0  0
 14 10  1  0  0  0
  9 10  1  0  0  0
  9  7  1  0  0  0
 17 19  2  0  0  0
  1  3  1  0  0  0
  1 21  1  0  0  0
 18 19  1  0  0  0
  7 19  1  0  0  0
  7  6  1  0  0  0
 29 30  1  0  0  0
  2  3  2  0  0  0
 22 24  2  0  0  0
  6  5  1  0  0  0
 23 24  1  0  0  0
  5  3  1  0  0  0
 33 35  2  0  0  0
 34 35  1  0  0  0
 21 24  1  0  0  0
 21 26  1  0  0  0
 26 27  1  0  0  0
 27 28  1  0  0  0
 28 30  1  0  0  0
 35 30  1  0  0  0
 13 15  1  0  0  0
 13 16  1  0  0  0
  9 11  1  0  0  0
  1  4  1  0  0  0
 18 20  1  0  0  0
 29 31  1  0  0  0
 29 32  1  0  0  0
 23 25  1  0  0  0
 34 36  1  0  0  0
M  END
> <minimizedAffinity>
-8.86574

$$$$
3O9P_MHI_A_516


 36 35  0  0  0  0  0  0  0  0999 V2000
   12.7260   61.0553   41.4985 N   0  0  0  0  0  0  0  0  0  0  0  0
   11.8516   60.1110   39.6692 O   0  0  0  0  0  0  0  0  0  0  0  0
   12.7454   60.7700   40.2047 C   0  0  0  0  0  0  0  0  0  0  0  0
   13.4350   61.6397   41.8520 H   0  0  0  0  0  0  0  0  0  0  0  0
   13.9533   61.2706   39.4189 C   0  0  0  0  0  0  0  0  0  0  0  0
   13.4943   62.1938   38.2915 C   0  0  0  0  0  0  0  0  0  0  0  0
   13.8272   63.6520   38.5852 C   0  0  0  0  0  0  0  0  0  0  0  0
   12.7385   64.3264   41.0386 O   0  0  0  0  0  0  0  0  0  0  0  0
   14.5337   63.8300   39.8463 N   0  0  0  0  0  0  0  0  0  0  0  0
   13.9146   64.1839   40.9776 C   0  0  0  0  0  0  0  0  0  0  0  0
   15.5071   63.6839   39.8668 H   0  0  0  0  0  0  0  0  0  0  0  0
   15.6187   63.0970   42.4898 C   0  0  0  0  0  0  0  0  0  0  0  0
   13.8732   64.5117   43.3932 N   0  0  0  0  0  0  0  0  0  0  0  0
   14.7248   64.3630   42.2378 C   0  0  0  0  0  0  0  0  0  0  0  0
   14.4488   64.6306   44.2268 H   0  0  0  0  0  0  0  0  0  0  0  0
   13.2925   63.6795   43.4969 H   0  0  0  0  0  0  0  0  0  0  0  0
   15.9755   64.3020   37.5972 O   0  0  0  0  0  0  0  0  0  0  0  0
   14.1981   64.3638   36.3737 O   0  0  0  0  0  0  0  0  0  0  0  0
   14.6739   64.1559   37.4578 C   0  0  0  0  0  0  0  0  0  0  0  0
   13.2754   64.2688   36.2410 H   0  0  0  0  0  0  0  0  0  0  0  0
   11.7352   60.5660   42.4198 C   0  0  0  0  0  0  0  0  0  0  0  0
   10.8483   61.4169   44.5744 O   0  0  0  0  0  0  0  0  0  0  0  0
   11.3555   62.8694   43.0877 O   0  0  0  0  0  0  0  0  0  0  0  0
   11.3251   61.6833   43.3765 C   0  0  0  0  0  0  0  0  0  0  0  0
   11.6818   63.1399   42.2520 H   0  0  0  0  0  0  0  0  0  0  0  0
   12.3779   59.3988   43.1419 C   0  0  0  0  0  0  0  0  0  0  0  0
   11.9275   58.0405   42.6224 C   0  0  0  0  0  0  0  0  0  0  0  0
   12.8451   57.4769   41.5658 C   0  0  0  0  0  0  0  0  0  0  0  0
   11.3082   57.2294   39.6481 N   0  0  0  0  0  0  0  0  0  0  0  0
   12.2204   56.5317   40.5264 C   0  0  0  0  0  0  0  0  0  0  0  0
   10.5489   57.6324   40.1971 H   0  0  0  0  0  0  0  0  0  0  0  0
   10.9246   56.5746   38.9666 H   0  0  0  0  0  0  0  0  0  0  0  0
   14.4432   56.5475   39.7007 O   0  0  0  0  0  0  0  0  0  0  0  0
   12.9891   55.1155   38.7855 O   0  0  0  0  0  0  0  0  0  0  0  0
   13.2464   56.0117   39.6084 C   0  0  0  0  0  0  0  0  0  0  0  0
   12.1264   54.7524   38.7427 H   0  0  0  0  0  0  0  0  0  0  0  0
 12 14  1  0  0  0
 13 14  1  0  0  0
  8 10  2  0  0  0
 14 10  1  0  0  0
  9 10  1  0  0  0
  9  7  1  0  0  0
 17 19  2  0  0  0
  1  3  1  0  0  0
  1 21  1  0  0  0
 18 19  1  0  0  0
  7 19  1  0  0  0
  7  6  1  0  0  0
 29 30  1  0  0  0
  2  3  2  0  0  0
 22 24  2  0  0  0
  6  5  1  0  0  0
 23 24  1  0  0  0
  5  3  1  0  0  0
 33 35  2  0  0  0
 34 35  1  0  0  0
 21 24  1  0  0  0
 21 26  1  0  0  0
 26 27  1  0  0  0
 27 28  1  0  0  0
 28 30  1  0  0  0
 35 30  1  0  0  0
 13 15  1  0  0  0
 13 16  1  0  0  0
  9 11  1  0  0  0
  1  4  1  0  0  0
 18 20  1  0  0  0
 29 31  1  0  0  0
 29 32  1  0  0  0
 23 25  1  0  0  0
 34 36  1  0  0  0
M  END
> <minimizedAffinity>
-8.83610

$$$$
