2ZMM_35B_A_307


 34 36  0  0  0  0  0  0  0  0999 V2000
   44.7433   11.4985   -1.9488 C   0  0  0  0  0  0  0  0  0  0  0  0
   44.4473   10.1923   -1.5356 C   0  0  0  0  0  0  0  0  0  0  0  0
   44.3736    9.8900   -0.1747 C   0  0  0  0  0  0  0  0  0  0  0  0
   44.5963   10.8757    0.7859 C   0  0  0  0  0  0  0  0  0  0  0  0
   44.8901   12.1842    0.3931 C   0  0  0  0  0  0  0  0  0  0  0  0
   44.9633   12.4851   -0.9713 C   0  0  0  0  0  0  0  0  0  0  0  0
   41.2295   11.4432   -4.2148 C   0  0  0  0  0  0  0  0  0  0  0  0
   43.6787   11.8679   -4.1722 C   0  0  0  0  0  0  0  0  0  0  0  0
   42.5010   11.4898   -3.5304 N   0  0  0  0  0  0  0  0  0  0  0  0
   43.6909   12.1781   -5.3660 O   0  0  0  0  0  0  0  0  0  0  0  0
   44.8275   11.8577   -3.3407 N   0  0  0  0  0  0  0  0  0  0  0  0
   42.5367   11.2460   -2.5772 H   0  0  0  0  0  0  0  0  0  0  0  0
   46.1587   12.2543   -3.8906 C   0  0  0  0  0  0  0  0  0  0  0  0
   47.3345   11.3860   -3.4008 C   0  0  0  0  0  0  0  0  0  0  0  0
   48.5063   12.2362   -2.9116 C   0  0  0  0  0  0  0  0  0  0  0  0
   48.9411   13.2900   -3.9290 C   0  0  0  0  0  0  0  0  0  0  0  0
   47.7687   14.1141   -4.4579 C   0  0  0  0  0  0  0  0  0  0  0  0
   46.4558   13.7555   -3.7614 C   0  0  0  0  0  0  0  0  0  0  0  0
   45.1171   13.2285    1.3908 C   0  0  0  0  0  0  0  0  0  0  0  0
   46.0736   13.3568    2.3763 C   0  0  0  0  0  0  0  0  0  0  0  0
   45.9350   14.5407    3.1578 C   0  0  0  0  0  0  0  0  0  0  0  0
   44.8963   15.3212    2.6837 C   0  0  0  0  0  0  0  0  0  0  0  0
   44.0810   14.5938    1.3718 S   0  0  0  0  0  0  0  0  0  0  0  0
   47.4141   12.0797    2.7584 Br  0  0  0  0  0  0  0  0  0  0  0  0
   44.4125   16.7126    3.2247 C   0  0  0  0  0  0  0  0  0  0  0  0
   44.3182   16.8771    4.4763 O   0  0  0  0  0  0  0  0  0  0  0  0
   44.1642   17.5737    2.3252 O   0  0  0  0  0  0  0  0  0  0  0  0
   44.5263   16.1729    5.0584 H   0  0  0  0  0  0  0  0  0  0  0  0
   46.7470   14.8952    4.1954 O   0  0  0  0  0  0  0  0  0  0  0  0
   47.8545   15.7421    3.8548 C   0  0  0  0  0  0  0  0  0  0  0  0
   47.8173   16.9382    4.8169 C   0  0  0  0  0  0  0  0  0  0  0  0
   46.8237   17.0008    5.5975 O   0  0  0  0  0  0  0  0  0  0  0  0
   48.7970   17.7310    4.7266 O   0  0  0  0  0  0  0  0  0  0  0  0
   46.1586   16.3418    5.5630 H   0  0  0  0  0  0  0  0  0  0  0  0
  7  9  1  0  0  0
  9  8  1  0  0  0
 10  8  2  0  0  0
  8 11  1  0  0  0
  2  1  2  0  0  0
  1 11  1  0  0  0
  1  6  1  0  0  0
  3  2  1  0  0  0
  3  4  2  0  0  0
  4  5  1  0  0  0
  5  6  2  0  0  0
  5 19  1  0  0  0
 23 19  1  0  0  0
 19 20  2  0  0  0
 20 21  1  0  0  0
 20 24  1  0  0  0
 22 21  2  0  0  0
 21 29  1  0  0  0
 23 22  1  0  0  0
 25 22  1  0  0  0
 27 25  2  0  0  0
 25 26  1  0  0  0
 30 29  1  0  0  0
 30 31  1  0  0  0
 33 31  2  0  0  0
 31 32  1  0  0  0
 11 13  1  0  0  0
 14 13  1  0  0  0
 13 18  1  0  0  0
 14 15  1  0  0  0
 15 16  1  0  0  0
 16 17  1  0  0  0
 18 17  1  0  0  0
  9 12  1  0  0  0
 26 28  1  0  0  0
 32 34  1  0  0  0
M  END
> <minimizedAffinity>
-8.50810

$$$$
2ZMM_35B_A_307


 34 36  0  0  0  0  0  0  0  0999 V2000
   44.5825   11.5894   -2.0796 C   0  0  0  0  0  0  0  0  0  0  0  0
   44.3515   10.2647   -1.6842 C   0  0  0  0  0  0  0  0  0  0  0  0
   44.3612    9.9285   -0.3293 C   0  0  0  0  0  0  0  0  0  0  0  0
   44.6034   10.8985    0.6425 C   0  0  0  0  0  0  0  0  0  0  0  0
   44.8332   12.2249    0.2675 C   0  0  0  0  0  0  0  0  0  0  0  0
   44.8229   12.5598   -1.0909 C   0  0  0  0  0  0  0  0  0  0  0  0
   48.0056   10.8204   -4.3546 C   0  0  0  0  0  0  0  0  0  0  0  0
   45.7011   11.7514   -4.3014 C   0  0  0  0  0  0  0  0  0  0  0  0
   46.7778   11.1390   -3.6631 N   0  0  0  0  0  0  0  0  0  0  0  0
   45.7488   12.0570   -5.4954 O   0  0  0  0  0  0  0  0  0  0  0  0
   44.5798   11.9835   -3.4646 N   0  0  0  0  0  0  0  0  0  0  0  0
   46.6990   10.9156   -2.7075 H   0  0  0  0  0  0  0  0  0  0  0  0
   43.3468   12.6209   -4.0173 C   0  0  0  0  0  0  0  0  0  0  0  0
   43.2259   14.1304   -3.7287 C   0  0  0  0  0  0  0  0  0  0  0  0
   41.8484   14.4972   -3.1781 C   0  0  0  0  0  0  0  0  0  0  0  0
   40.7038   13.9735   -4.0445 C   0  0  0  0  0  0  0  0  0  0  0  0
   40.8518   12.4903   -4.3785 C   0  0  0  0  0  0  0  0  0  0  0  0
   42.0558   11.8621   -3.6764 C   0  0  0  0  0  0  0  0  0  0  0  0
   45.0799   13.2527    1.2776 C   0  0  0  0  0  0  0  0  0  0  0  0
   46.0428   13.3545    2.2600 C   0  0  0  0  0  0  0  0  0  0  0  0
   45.9249   14.5299    3.0575 C   0  0  0  0  0  0  0  0  0  0  0  0
   44.8952   15.3313    2.5987 C   0  0  0  0  0  0  0  0  0  0  0  0
   44.0633   14.6328    1.2815 S   0  0  0  0  0  0  0  0  0  0  0  0
   47.3666   12.0535    2.6188 Br  0  0  0  0  0  0  0  0  0  0  0  0
   44.4340   16.7222    3.1602 C   0  0  0  0  0  0  0  0  0  0  0  0
   44.3432   16.8701    4.4141 O   0  0  0  0  0  0  0  0  0  0  0  0
   44.1988   17.6001    2.2734 O   0  0  0  0  0  0  0  0  0  0  0  0
   44.5405   16.1544    4.9858 H   0  0  0  0  0  0  0  0  0  0  0  0
   46.7467   14.8592    4.0956 O   0  0  0  0  0  0  0  0  0  0  0  0
   47.8486   15.7178    3.7659 C   0  0  0  0  0  0  0  0  0  0  0  0
   47.8251   16.8822    4.7667 C   0  0  0  0  0  0  0  0  0  0  0  0
   48.7956   17.6917    4.7098 O   0  0  0  0  0  0  0  0  0  0  0  0
   46.8251   16.9072    5.5386 O   0  0  0  0  0  0  0  0  0  0  0  0
   49.4808   17.5585    4.0847 H   0  0  0  0  0  0  0  0  0  0  0  0
  7  9  1  0  0  0
  9  8  1  0  0  0
 10  8  2  0  0  0
  8 11  1  0  0  0
  2  1  2  0  0  0
  1 11  1  0  0  0
  1  6  1  0  0  0
  3  2  1  0  0  0
  3  4  2  0  0  0
  4  5  1  0  0  0
  5  6  2  0  0  0
  5 19  1  0  0  0
 23 19  1  0  0  0
 19 20  2  0  0  0
 20 21  1  0  0  0
 20 24  1  0  0  0
 22 21  2  0  0  0
 21 29  1  0  0  0
 23 22  1  0  0  0
 25 22  1  0  0  0
 27 25  2  0  0  0
 25 26  1  0  0  0
 30 29  1  0  0  0
 30 31  1  0  0  0
 33 31  2  0  0  0
 31 32  1  0  0  0
 11 13  1  0  0  0
 14 13  1  0  0  0
 13 18  1  0  0  0
 14 15  1  0  0  0
 15 16  1  0  0  0
 16 17  1  0  0  0
 18 17  1  0  0  0
  9 12  1  0  0  0
 26 28  1  0  0  0
 32 34  1  0  0  0
M  END
> <minimizedAffinity>
-8.45341

$$$$
2ZMM_35B_A_307


 34 36  0  0  0  0  0  0  0  0999 V2000
   47.4418    9.5450    0.3650 C   0  0  0  0  0  0  0  0  0  0  0  0
   46.3720    8.7488   -0.0660 C   0  0  0  0  0  0  0  0  0  0  0  0
   45.0669    9.2410   -0.0068 C   0  0  0  0  0  0  0  0  0  0  0  0
   44.8110   10.5212    0.4826 C   0  0  0  0  0  0  0  0  0  0  0  0
   45.8652   11.3305    0.9146 C   0  0  0  0  0  0  0  0  0  0  0  0
   47.1724   10.8354    0.8542 C   0  0  0  0  0  0  0  0  0  0  0  0
   49.9568   11.0958   -2.5938 C   0  0  0  0  0  0  0  0  0  0  0  0
   49.7185    9.5644   -0.6499 C   0  0  0  0  0  0  0  0  0  0  0  0
   49.1768   10.4909   -1.5388 N   0  0  0  0  0  0  0  0  0  0  0  0
   50.8978    9.2112   -0.7266 O   0  0  0  0  0  0  0  0  0  0  0  0
   48.8043    9.0810    0.3206 N   0  0  0  0  0  0  0  0  0  0  0  0
   48.2296   10.7420   -1.4446 H   0  0  0  0  0  0  0  0  0  0  0  0
   49.2498    8.0924    1.3483 C   0  0  0  0  0  0  0  0  0  0  0  0
   49.1576    6.6208    0.8985 C   0  0  0  0  0  0  0  0  0  0  0  0
   48.4640    5.7475    1.9434 C   0  0  0  0  0  0  0  0  0  0  0  0
   49.0695    5.8963    3.3383 C   0  0  0  0  0  0  0  0  0  0  0  0
   49.2139    7.3566    3.7628 C   0  0  0  0  0  0  0  0  0  0  0  0
   48.6190    8.3148    2.7307 C   0  0  0  0  0  0  0  0  0  0  0  0
   45.6106   12.6778    1.4218 C   0  0  0  0  0  0  0  0  0  0  0  0
   46.1567   13.3728    2.4808 C   0  0  0  0  0  0  0  0  0  0  0  0
   45.6158   14.6809    2.6471 C   0  0  0  0  0  0  0  0  0  0  0  0
   44.7065   14.9654    1.6444 C   0  0  0  0  0  0  0  0  0  0  0  0
   44.4772   13.6501    0.5802 S   0  0  0  0  0  0  0  0  0  0  0  0
   47.4413   12.6816    3.6833 Br  0  0  0  0  0  0  0  0  0  0  0  0
   43.8977   16.2924    1.4260 C   0  0  0  0  0  0  0  0  0  0  0  0
   44.0962   17.2607    2.2167 O   0  0  0  0  0  0  0  0  0  0  0  0
   43.1025   16.2715    0.4362 O   0  0  0  0  0  0  0  0  0  0  0  0
   44.7086   17.1729    2.9204 H   0  0  0  0  0  0  0  0  0  0  0  0
   45.9810   15.5627    3.6219 O   0  0  0  0  0  0  0  0  0  0  0  0
   47.1763   16.3137    3.3627 C   0  0  0  0  0  0  0  0  0  0  0  0
   47.6034   16.9506    4.6930 C   0  0  0  0  0  0  0  0  0  0  0  0
   46.6987   17.0869    5.5668 O   0  0  0  0  0  0  0  0  0  0  0  0
   48.8249   17.2642    4.7709 O   0  0  0  0  0  0  0  0  0  0  0  0
   45.8228   16.8107    5.3813 H   0  0  0  0  0  0  0  0  0  0  0  0
  7  9  1  0  0  0
  9  8  1  0  0  0
 10  8  2  0  0  0
  8 11  1  0  0  0
  2  1  2  0  0  0
  1 11  1  0  0  0
  1  6  1  0  0  0
  3  2  1  0  0  0
  3  4  2  0  0  0
  4  5  1  0  0  0
  5  6  2  0  0  0
  5 19  1  0  0  0
 23 19  1  0  0  0
 19 20  2  0  0  0
 20 21  1  0  0  0
 20 24  1  0  0  0
 22 21  2  0  0  0
 21 29  1  0  0  0
 23 22  1  0  0  0
 25 22  1  0  0  0
 27 25  2  0  0  0
 25 26  1  0  0  0
 30 29  1  0  0  0
 30 31  1  0  0  0
 33 31  2  0  0  0
 31 32  1  0  0  0
 11 13  1  0  0  0
 14 13  1  0  0  0
 13 18  1  0  0  0
 14 15  1  0  0  0
 15 16  1  0  0  0
 16 17  1  0  0  0
 18 17  1  0  0  0
  9 12  1  0  0  0
 26 28  1  0  0  0
 32 34  1  0  0  0
M  END
> <minimizedAffinity>
-8.36754

$$$$
2ZMM_35B_A_307


 34 36  0  0  0  0  0  0  0  0999 V2000
   47.6337    9.8091    0.0361 C   0  0  0  0  0  0  0  0  0  0  0  0
   46.6020    8.8832   -0.1708 C   0  0  0  0  0  0  0  0  0  0  0  0
   45.2824    9.2304    0.1243 C   0  0  0  0  0  0  0  0  0  0  0  0
   44.9751   10.4931    0.6295 C   0  0  0  0  0  0  0  0  0  0  0  0
   45.9901   11.4303    0.8399 C   0  0  0  0  0  0  0  0  0  0  0  0
   47.3119   11.0804    0.5434 C   0  0  0  0  0  0  0  0  0  0  0  0
   49.9031    7.9353    3.0065 C   0  0  0  0  0  0  0  0  0  0  0  0
   49.8401    8.8569    0.6985 C   0  0  0  0  0  0  0  0  0  0  0  0
   49.2162    8.5858    1.9146 N   0  0  0  0  0  0  0  0  0  0  0  0
   51.0193    8.5559    0.4981 O   0  0  0  0  0  0  0  0  0  0  0  0
   49.0088    9.4968   -0.2558 N   0  0  0  0  0  0  0  0  0  0  0  0
   48.2744    8.8466    2.0339 H   0  0  0  0  0  0  0  0  0  0  0  0
   49.5400    9.8358   -1.6104 C   0  0  0  0  0  0  0  0  0  0  0  0
   49.9653   11.3081   -1.7776 C   0  0  0  0  0  0  0  0  0  0  0  0
   49.3892   11.9271   -3.0506 C   0  0  0  0  0  0  0  0  0  0  0  0
   49.6716   11.0910   -4.2980 C   0  0  0  0  0  0  0  0  0  0  0  0
   49.3030    9.6200   -4.1144 C   0  0  0  0  0  0  0  0  0  0  0  0
   48.6412    9.3596   -2.7611 C   0  0  0  0  0  0  0  0  0  0  0  0
   45.6795   12.7604    1.3612 C   0  0  0  0  0  0  0  0  0  0  0  0
   46.1890   13.4623    2.4337 C   0  0  0  0  0  0  0  0  0  0  0  0
   45.5970   14.7467    2.6108 C   0  0  0  0  0  0  0  0  0  0  0  0
   44.6866   15.0089    1.6030 C   0  0  0  0  0  0  0  0  0  0  0  0
   44.5175   13.6993    0.5207 S   0  0  0  0  0  0  0  0  0  0  0  0
   47.4881   12.8056    3.6400 Br  0  0  0  0  0  0  0  0  0  0  0  0
   43.8297   16.3067    1.3931 C   0  0  0  0  0  0  0  0  0  0  0  0
   44.0649   17.3135    2.1234 O   0  0  0  0  0  0  0  0  0  0  0  0
   42.9600   16.2242    0.4715 O   0  0  0  0  0  0  0  0  0  0  0  0
   44.7328   17.2707    2.7792 H   0  0  0  0  0  0  0  0  0  0  0  0
   45.9193   15.6295    3.5997 O   0  0  0  0  0  0  0  0  0  0  0  0
   47.1325   16.3695    3.3993 C   0  0  0  0  0  0  0  0  0  0  0  0
   47.5077   16.9913    4.7522 C   0  0  0  0  0  0  0  0  0  0  0  0
   46.5957   17.0227    5.6284 O   0  0  0  0  0  0  0  0  0  0  0  0
   48.6998   17.3999    4.8437 O   0  0  0  0  0  0  0  0  0  0  0  0
   45.7449   16.6833    5.4314 H   0  0  0  0  0  0  0  0  0  0  0  0
  7  9  1  0  0  0
  9  8  1  0  0  0
 10  8  2  0  0  0
  8 11  1  0  0  0
  2  1  2  0  0  0
  1 11  1  0  0  0
  1  6  1  0  0  0
  3  2  1  0  0  0
  3  4  2  0  0  0
  4  5  1  0  0  0
  5  6  2  0  0  0
  5 19  1  0  0  0
 23 19  1  0  0  0
 19 20  2  0  0  0
 20 21  1  0  0  0
 20 24  1  0  0  0
 22 21  2  0  0  0
 21 29  1  0  0  0
 23 22  1  0  0  0
 25 22  1  0  0  0
 27 25  2  0  0  0
 25 26  1  0  0  0
 30 29  1  0  0  0
 30 31  1  0  0  0
 33 31  2  0  0  0
 31 32  1  0  0  0
 11 13  1  0  0  0
 14 13  1  0  0  0
 13 18  1  0  0  0
 14 15  1  0  0  0
 15 16  1  0  0  0
 16 17  1  0  0  0
 18 17  1  0  0  0
  9 12  1  0  0  0
 26 28  1  0  0  0
 32 34  1  0  0  0
M  END
> <minimizedAffinity>
-8.17786

$$$$
2ZMM_35B_A_307


 34 36  0  0  0  0  0  0  0  0999 V2000
   46.7894    9.6594   -0.3613 C   0  0  0  0  0  0  0  0  0  0  0  0
   47.3050    8.8373    0.6500 C   0  0  0  0  0  0  0  0  0  0  0  0
   47.3640    9.3014    1.9653 C   0  0  0  0  0  0  0  0  0  0  0  0
   46.9177   10.5822    2.2882 C   0  0  0  0  0  0  0  0  0  0  0  0
   46.3980   11.4153    1.2939 C   0  0  0  0  0  0  0  0  0  0  0  0
   46.3396   10.9481   -0.0236 C   0  0  0  0  0  0  0  0  0  0  0  0
   50.3311    9.4201   -2.5712 C   0  0  0  0  0  0  0  0  0  0  0  0
   47.8645    9.1113   -2.5425 C   0  0  0  0  0  0  0  0  0  0  0  0
   49.0500    9.4722   -1.9053 N   0  0  0  0  0  0  0  0  0  0  0  0
   47.8533    8.7322   -3.7161 O   0  0  0  0  0  0  0  0  0  0  0  0
   46.7067    9.2230   -1.7311 N   0  0  0  0  0  0  0  0  0  0  0  0
   49.0134    9.7731   -0.9686 H   0  0  0  0  0  0  0  0  0  0  0  0
   45.3656    8.8561   -2.2779 C   0  0  0  0  0  0  0  0  0  0  0  0
   44.7551    9.9071   -3.2261 C   0  0  0  0  0  0  0  0  0  0  0  0
   43.3056   10.2282   -2.8640 C   0  0  0  0  0  0  0  0  0  0  0  0
   42.4347    8.9792   -2.7361 C   0  0  0  0  0  0  0  0  0  0  0  0
   43.0649    7.9134   -1.8416 C   0  0  0  0  0  0  0  0  0  0  0  0
   44.3677    8.3971   -1.2045 C   0  0  0  0  0  0  0  0  0  0  0  0
   45.9189   12.7571    1.6214 C   0  0  0  0  0  0  0  0  0  0  0  0
   46.2661   13.6288    2.6325 C   0  0  0  0  0  0  0  0  0  0  0  0
   45.5414   14.8558    2.6046 C   0  0  0  0  0  0  0  0  0  0  0  0
   44.6993   14.9019    1.5084 C   0  0  0  0  0  0  0  0  0  0  0  0
   44.7484   13.4646    0.5881 S   0  0  0  0  0  0  0  0  0  0  0  0
   47.5144   13.2570    4.0026 Br  0  0  0  0  0  0  0  0  0  0  0  0
   43.7435   16.0693    1.0765 C   0  0  0  0  0  0  0  0  0  0  0  0
   43.6129   17.0633    1.8492 O   0  0  0  0  0  0  0  0  0  0  0  0
   43.1820   15.9050   -0.0505 O   0  0  0  0  0  0  0  0  0  0  0  0
   44.0746   17.0870    2.6643 H   0  0  0  0  0  0  0  0  0  0  0  0
   45.6928   15.8767    3.4968 O   0  0  0  0  0  0  0  0  0  0  0  0
   46.7902   16.7657    3.2416 C   0  0  0  0  0  0  0  0  0  0  0  0
   47.4731   17.0344    4.5905 C   0  0  0  0  0  0  0  0  0  0  0  0
   46.7165   17.0853    5.6031 O   0  0  0  0  0  0  0  0  0  0  0  0
   48.7284   17.1687    4.5399 O   0  0  0  0  0  0  0  0  0  0  0  0
   45.7922   16.9680    5.5037 H   0  0  0  0  0  0  0  0  0  0  0  0
  7  9  1  0  0  0
  9  8  1  0  0  0
 10  8  2  0  0  0
  8 11  1  0  0  0
  2  1  2  0  0  0
  1 11  1  0  0  0
  1  6  1  0  0  0
  3  2  1  0  0  0
  3  4  2  0  0  0
  4  5  1  0  0  0
  5  6  2  0  0  0
  5 19  1  0  0  0
 23 19  1  0  0  0
 19 20  2  0  0  0
 20 21  1  0  0  0
 20 24  1  0  0  0
 22 21  2  0  0  0
 21 29  1  0  0  0
 23 22  1  0  0  0
 25 22  1  0  0  0
 27 25  2  0  0  0
 25 26  1  0  0  0
 30 29  1  0  0  0
 30 31  1  0  0  0
 33 31  2  0  0  0
 31 32  1  0  0  0
 11 13  1  0  0  0
 14 13  1  0  0  0
 13 18  1  0  0  0
 14 15  1  0  0  0
 15 16  1  0  0  0
 16 17  1  0  0  0
 18 17  1  0  0  0
  9 12  1  0  0  0
 26 28  1  0  0  0
 32 34  1  0  0  0
M  END
> <minimizedAffinity>
-8.11411

$$$$
2ZMM_35B_A_307


 34 36  0  0  0  0  0  0  0  0999 V2000
   44.3434   10.3849   -1.7297 C   0  0  0  0  0  0  0  0  0  0  0  0
   44.3689   10.9902   -2.9935 C   0  0  0  0  0  0  0  0  0  0  0  0
   44.6008   12.3622   -3.1062 C   0  0  0  0  0  0  0  0  0  0  0  0
   44.8047   13.1448   -1.9705 C   0  0  0  0  0  0  0  0  0  0  0  0
   44.7853   12.5585   -0.7021 C   0  0  0  0  0  0  0  0  0  0  0  0
   44.5529   11.1833   -0.5914 C   0  0  0  0  0  0  0  0  0  0  0  0
   40.5906    8.8702   -2.7821 C   0  0  0  0  0  0  0  0  0  0  0  0
   42.8655    8.3851   -1.9044 C   0  0  0  0  0  0  0  0  0  0  0  0
   41.9155    9.2855   -2.3825 N   0  0  0  0  0  0  0  0  0  0  0  0
   42.6154    7.1823   -1.7946 O   0  0  0  0  0  0  0  0  0  0  0  0
   44.1103    8.9735   -1.5644 N   0  0  0  0  0  0  0  0  0  0  0  0
   42.1554   10.2379   -2.4504 H   0  0  0  0  0  0  0  0  0  0  0  0
   45.2286    8.1262   -1.0513 C   0  0  0  0  0  0  0  0  0  0  0  0
   45.4532    8.2214    0.4709 C   0  0  0  0  0  0  0  0  0  0  0  0
   46.9238    8.4507    0.8171 C   0  0  0  0  0  0  0  0  0  0  0  0
   47.8557    7.4400    0.1501 C   0  0  0  0  0  0  0  0  0  0  0  0
   47.5964    7.3029   -1.3489 C   0  0  0  0  0  0  0  0  0  0  0  0
   46.5364    8.2893   -1.8397 C   0  0  0  0  0  0  0  0  0  0  0  0
   45.0063   13.3669    0.4958 C   0  0  0  0  0  0  0  0  0  0  0  0
   45.9176   13.2451    1.5240 C   0  0  0  0  0  0  0  0  0  0  0  0
   45.7902   14.2522    2.5244 C   0  0  0  0  0  0  0  0  0  0  0  0
   44.8093   15.1640    2.1786 C   0  0  0  0  0  0  0  0  0  0  0  0
   44.0299   14.7587    0.7146 S   0  0  0  0  0  0  0  0  0  0  0  0
   47.1835   11.8508    1.6903 Br  0  0  0  0  0  0  0  0  0  0  0  0
   44.3578   16.4402    2.9725 C   0  0  0  0  0  0  0  0  0  0  0  0
   44.2218   16.3566    4.2282 O   0  0  0  0  0  0  0  0  0  0  0  0
   44.1767   17.4732    2.2565 O   0  0  0  0  0  0  0  0  0  0  0  0
   44.3807   15.5422    4.6635 H   0  0  0  0  0  0  0  0  0  0  0  0
   46.5642   14.3484    3.6438 O   0  0  0  0  0  0  0  0  0  0  0  0
   47.7559   15.1365    3.5080 C   0  0  0  0  0  0  0  0  0  0  0  0
   47.7133   16.2075    4.6075 C   0  0  0  0  0  0  0  0  0  0  0  0
   48.6059   17.1025    4.5550 O   0  0  0  0  0  0  0  0  0  0  0  0
   46.7776   16.0791    5.4467 O   0  0  0  0  0  0  0  0  0  0  0  0
   49.2492   17.0833    3.8739 H   0  0  0  0  0  0  0  0  0  0  0  0
  7  9  1  0  0  0
  9  8  1  0  0  0
 10  8  2  0  0  0
  8 11  1  0  0  0
  2  1  2  0  0  0
  1 11  1  0  0  0
  1  6  1  0  0  0
  3  2  1  0  0  0
  3  4  2  0  0  0
  4  5  1  0  0  0
  5  6  2  0  0  0
  5 19  1  0  0  0
 23 19  1  0  0  0
 19 20  2  0  0  0
 20 21  1  0  0  0
 20 24  1  0  0  0
 22 21  2  0  0  0
 21 29  1  0  0  0
 23 22  1  0  0  0
 25 22  1  0  0  0
 27 25  2  0  0  0
 25 26  1  0  0  0
 30 29  1  0  0  0
 30 31  1  0  0  0
 33 31  2  0  0  0
 31 32  1  0  0  0
 11 13  1  0  0  0
 14 13  1  0  0  0
 13 18  1  0  0  0
 14 15  1  0  0  0
 15 16  1  0  0  0
 16 17  1  0  0  0
 18 17  1  0  0  0
  9 12  1  0  0  0
 26 28  1  0  0  0
 32 34  1  0  0  0
M  END
> <minimizedAffinity>
-7.77333

$$$$
2ZMM_35B_A_307


 34 36  0  0  0  0  0  0  0  0999 V2000
   46.7436    9.6642   -0.4394 C   0  0  0  0  0  0  0  0  0  0  0  0
   47.2851    8.8415    0.5577 C   0  0  0  0  0  0  0  0  0  0  0  0
   47.3747    9.3036    1.8721 C   0  0  0  0  0  0  0  0  0  0  0  0
   46.9335   10.5828    2.2079 C   0  0  0  0  0  0  0  0  0  0  0  0
   46.3884   11.4165    1.2278 C   0  0  0  0  0  0  0  0  0  0  0  0
   46.2994   10.9514   -0.0888 C   0  0  0  0  0  0  0  0  0  0  0  0
   43.1330    7.9494   -1.6672 C   0  0  0  0  0  0  0  0  0  0  0  0
   45.4346    8.6445   -2.2996 C   0  0  0  0  0  0  0  0  0  0  0  0
   44.4221    8.5196   -1.3504 N   0  0  0  0  0  0  0  0  0  0  0  0
   45.2774    8.2661   -3.4630 O   0  0  0  0  0  0  0  0  0  0  0  0
   46.6289    9.2301   -1.8076 N   0  0  0  0  0  0  0  0  0  0  0  0
   44.5911    8.8308   -0.4318 H   0  0  0  0  0  0  0  0  0  0  0  0
   47.7953    9.4395   -2.7173 C   0  0  0  0  0  0  0  0  0  0  0  0
   49.1257    8.8673   -2.1893 C   0  0  0  0  0  0  0  0  0  0  0  0
   50.2626    9.8838   -2.2873 C   0  0  0  0  0  0  0  0  0  0  0  0
   50.3991   10.4895   -3.6835 C   0  0  0  0  0  0  0  0  0  0  0  0
   49.0702   11.0062   -4.2315 C   0  0  0  0  0  0  0  0  0  0  0  0
   47.9426   10.8880   -3.2060 C   0  0  0  0  0  0  0  0  0  0  0  0
   45.9144   12.7568    1.5691 C   0  0  0  0  0  0  0  0  0  0  0  0
   46.2693   13.6191    2.5855 C   0  0  0  0  0  0  0  0  0  0  0  0
   45.5476   14.8480    2.5717 C   0  0  0  0  0  0  0  0  0  0  0  0
   44.6996   14.9053    1.4806 C   0  0  0  0  0  0  0  0  0  0  0  0
   44.7402   13.4756    0.5481 S   0  0  0  0  0  0  0  0  0  0  0  0
   47.5242   13.2328    3.9456 Br  0  0  0  0  0  0  0  0  0  0  0  0
   43.7445   16.0786    1.0636 C   0  0  0  0  0  0  0  0  0  0  0  0
   43.6141   17.0627    1.8492 O   0  0  0  0  0  0  0  0  0  0  0  0
   43.1832   15.9293   -0.0655 O   0  0  0  0  0  0  0  0  0  0  0  0
   44.0756   17.0756    2.6646 H   0  0  0  0  0  0  0  0  0  0  0  0
   45.7064   15.8611    3.4716 O   0  0  0  0  0  0  0  0  0  0  0  0
   46.8388   16.7148    3.2509 C   0  0  0  0  0  0  0  0  0  0  0  0
   47.4356   17.0340    4.6292 C   0  0  0  0  0  0  0  0  0  0  0  0
   46.6386   16.9893    5.6107 O   0  0  0  0  0  0  0  0  0  0  0  0
   48.6705   17.3012    4.6312 O   0  0  0  0  0  0  0  0  0  0  0  0
   45.7366   16.7763    5.4724 H   0  0  0  0  0  0  0  0  0  0  0  0
  7  9  1  0  0  0
  9  8  1  0  0  0
 10  8  2  0  0  0
  8 11  1  0  0  0
  2  1  2  0  0  0
  1 11  1  0  0  0
  1  6  1  0  0  0
  3  2  1  0  0  0
  3  4  2  0  0  0
  4  5  1  0  0  0
  5  6  2  0  0  0
  5 19  1  0  0  0
 23 19  1  0  0  0
 19 20  2  0  0  0
 20 21  1  0  0  0
 20 24  1  0  0  0
 22 21  2  0  0  0
 21 29  1  0  0  0
 23 22  1  0  0  0
 25 22  1  0  0  0
 27 25  2  0  0  0
 25 26  1  0  0  0
 30 29  1  0  0  0
 30 31  1  0  0  0
 33 31  2  0  0  0
 31 32  1  0  0  0
 11 13  1  0  0  0
 14 13  1  0  0  0
 13 18  1  0  0  0
 14 15  1  0  0  0
 15 16  1  0  0  0
 16 17  1  0  0  0
 18 17  1  0  0  0
  9 12  1  0  0  0
 26 28  1  0  0  0
 32 34  1  0  0  0
M  END
> <minimizedAffinity>
-7.59457

$$$$
2ZMM_35B_A_307


 34 36  0  0  0  0  0  0  0  0999 V2000
   45.1685   10.8970   -2.0429 C   0  0  0  0  0  0  0  0  0  0  0  0
   44.5107   11.5141   -3.1157 C   0  0  0  0  0  0  0  0  0  0  0  0
   44.0068   12.8084   -2.9747 C   0  0  0  0  0  0  0  0  0  0  0  0
   44.1464   13.4989   -1.7715 C   0  0  0  0  0  0  0  0  0  0  0  0
   44.8016   12.9009   -0.6917 C   0  0  0  0  0  0  0  0  0  0  0  0
   45.3060   11.6038   -0.8351 C   0  0  0  0  0  0  0  0  0  0  0  0
   49.3091   10.4138   -1.7158 C   0  0  0  0  0  0  0  0  0  0  0  0
   47.0994    9.3205   -2.0358 C   0  0  0  0  0  0  0  0  0  0  0  0
   47.8714   10.4654   -1.8491 N   0  0  0  0  0  0  0  0  0  0  0  0
   47.6127    8.2009   -2.1016 O   0  0  0  0  0  0  0  0  0  0  0  0
   45.7065    9.5650   -2.1424 N   0  0  0  0  0  0  0  0  0  0  0  0
   47.4215   11.3401   -1.8064 H   0  0  0  0  0  0  0  0  0  0  0  0
   44.7547    8.4290   -2.3308 C   0  0  0  0  0  0  0  0  0  0  0  0
   44.6877    7.8866   -3.7723 C   0  0  0  0  0  0  0  0  0  0  0  0
   43.2469    7.7416   -4.2606 C   0  0  0  0  0  0  0  0  0  0  0  0
   42.3697    6.9465   -3.2947 C   0  0  0  0  0  0  0  0  0  0  0  0
   42.4783    7.4469   -1.8556 C   0  0  0  0  0  0  0  0  0  0  0  0
   43.3589    8.6918   -1.7467 C   0  0  0  0  0  0  0  0  0  0  0  0
   44.9619   13.6179    0.5723 C   0  0  0  0  0  0  0  0  0  0  0  0
   45.7303   13.3457    1.6850 C   0  0  0  0  0  0  0  0  0  0  0  0
   45.5894   14.3076    2.7273 C   0  0  0  0  0  0  0  0  0  0  0  0
   44.7525   15.3362    2.3340 C   0  0  0  0  0  0  0  0  0  0  0  0
   44.1121   15.0933    0.7701 S   0  0  0  0  0  0  0  0  0  0  0  0
   46.8210   11.8168    1.9011 Br  0  0  0  0  0  0  0  0  0  0  0  0
   44.3426   16.6107    3.1527 C   0  0  0  0  0  0  0  0  0  0  0  0
   44.2835   16.5279    4.4145 O   0  0  0  0  0  0  0  0  0  0  0  0
   44.1125   17.6418    2.4482 O   0  0  0  0  0  0  0  0  0  0  0  0
   44.4733   15.7149    4.8400 H   0  0  0  0  0  0  0  0  0  0  0  0
   46.2334   14.2620    3.9292 O   0  0  0  0  0  0  0  0  0  0  0  0
   47.6452   14.5168    3.8864 C   0  0  0  0  0  0  0  0  0  0  0  0
   47.8511   15.9760    4.3177 C   0  0  0  0  0  0  0  0  0  0  0  0
   47.0477   16.4240    5.1862 O   0  0  0  0  0  0  0  0  0  0  0  0
   48.8145   16.5712    3.7572 O   0  0  0  0  0  0  0  0  0  0  0  0
   46.3693   15.8736    5.5250 H   0  0  0  0  0  0  0  0  0  0  0  0
  7  9  1  0  0  0
  9  8  1  0  0  0
 10  8  2  0  0  0
  8 11  1  0  0  0
  2  1  2  0  0  0
  1 11  1  0  0  0
  1  6  1  0  0  0
  3  2  1  0  0  0
  3  4  2  0  0  0
  4  5  1  0  0  0
  5  6  2  0  0  0
  5 19  1  0  0  0
 23 19  1  0  0  0
 19 20  2  0  0  0
 20 21  1  0  0  0
 20 24  1  0  0  0
 22 21  2  0  0  0
 21 29  1  0  0  0
 23 22  1  0  0  0
 25 22  1  0  0  0
 27 25  2  0  0  0
 25 26  1  0  0  0
 30 29  1  0  0  0
 30 31  1  0  0  0
 33 31  2  0  0  0
 31 32  1  0  0  0
 11 13  1  0  0  0
 14 13  1  0  0  0
 13 18  1  0  0  0
 14 15  1  0  0  0
 15 16  1  0  0  0
 16 17  1  0  0  0
 18 17  1  0  0  0
  9 12  1  0  0  0
 26 28  1  0  0  0
 32 34  1  0  0  0
M  END
> <minimizedAffinity>
-7.23312

$$$$
2ZMM_35B_A_307


 34 36  0  0  0  0  0  0  0  0999 V2000
   43.9296   15.3300   -0.9880 C   0  0  0  0  0  0  0  0  0  0  0  0
   43.7643   15.9123    0.2762 C   0  0  0  0  0  0  0  0  0  0  0  0
   44.0301   15.1690    1.4276 C   0  0  0  0  0  0  0  0  0  0  0  0
   44.4568   13.8448    1.3367 C   0  0  0  0  0  0  0  0  0  0  0  0
   44.6297   13.2481    0.0849 C   0  0  0  0  0  0  0  0  0  0  0  0
   44.3630   13.9947   -1.0678 C   0  0  0  0  0  0  0  0  0  0  0  0
   40.0532   15.2348   -2.5530 C   0  0  0  0  0  0  0  0  0  0  0  0
   42.3798   16.0779   -2.7914 C   0  0  0  0  0  0  0  0  0  0  0  0
   41.4238   15.3307   -2.1062 N   0  0  0  0  0  0  0  0  0  0  0  0
   42.0988   16.6931   -3.8229 O   0  0  0  0  0  0  0  0  0  0  0  0
   43.6700   16.0580   -2.2030 N   0  0  0  0  0  0  0  0  0  0  0  0
   41.6916   14.8515   -1.2890 H   0  0  0  0  0  0  0  0  0  0  0  0
   44.7918   16.8265   -2.8218 C   0  0  0  0  0  0  0  0  0  0  0  0
   44.4628   18.3020   -3.1235 C   0  0  0  0  0  0  0  0  0  0  0  0
   44.8600   18.6955   -4.5457 C   0  0  0  0  0  0  0  0  0  0  0  0
   46.3082   18.3390   -4.8781 C   0  0  0  0  0  0  0  0  0  0  0  0
   46.6519   16.8926   -4.5271 C   0  0  0  0  0  0  0  0  0  0  0  0
   45.4323   16.1194   -4.0252 C   0  0  0  0  0  0  0  0  0  0  0  0
   45.0849   11.8630   -0.0237 C   0  0  0  0  0  0  0  0  0  0  0  0
   45.9339   11.1165    0.7666 C   0  0  0  0  0  0  0  0  0  0  0  0
   46.1283    9.7844    0.2988 C   0  0  0  0  0  0  0  0  0  0  0  0
   45.3490    9.5391   -0.8172 C   0  0  0  0  0  0  0  0  0  0  0  0
   44.4650   10.9143   -1.3097 S   0  0  0  0  0  0  0  0  0  0  0  0
   46.8482   11.7656    2.2887 Br  0  0  0  0  0  0  0  0  0  0  0  0
   45.2318    8.2053   -1.6359 C   0  0  0  0  0  0  0  0  0  0  0  0
   46.2817    7.5315   -1.8508 O   0  0  0  0  0  0  0  0  0  0  0  0
   44.0532    7.9135   -2.0076 O   0  0  0  0  0  0  0  0  0  0  0  0
   47.1079    7.8368   -1.5313 H   0  0  0  0  0  0  0  0  0  0  0  0
   46.9248    8.8515    0.8961 O   0  0  0  0  0  0  0  0  0  0  0  0
   48.3261    8.9535    0.6034 C   0  0  0  0  0  0  0  0  0  0  0  0
   49.0579    8.0242    1.5826 C   0  0  0  0  0  0  0  0  0  0  0  0
   49.8422    8.5799    2.4051 O   0  0  0  0  0  0  0  0  0  0  0  0
   48.7870    6.7960    1.4620 O   0  0  0  0  0  0  0  0  0  0  0  0
   49.9552    9.5100    2.3896 H   0  0  0  0  0  0  0  0  0  0  0  0
  7  9  1  0  0  0
  9  8  1  0  0  0
 10  8  2  0  0  0
  8 11  1  0  0  0
  2  1  2  0  0  0
  1 11  1  0  0  0
  1  6  1  0  0  0
  3  2  1  0  0  0
  3  4  2  0  0  0
  4  5  1  0  0  0
  5  6  2  0  0  0
  5 19  1  0  0  0
 23 19  1  0  0  0
 19 20  2  0  0  0
 20 21  1  0  0  0
 20 24  1  0  0  0
 22 21  2  0  0  0
 21 29  1  0  0  0
 23 22  1  0  0  0
 25 22  1  0  0  0
 27 25  2  0  0  0
 25 26  1  0  0  0
 30 29  1  0  0  0
 30 31  1  0  0  0
 33 31  2  0  0  0
 31 32  1  0  0  0
 11 13  1  0  0  0
 14 13  1  0  0  0
 13 18  1  0  0  0
 14 15  1  0  0  0
 15 16  1  0  0  0
 16 17  1  0  0  0
 18 17  1  0  0  0
  9 12  1  0  0  0
 26 28  1  0  0  0
 32 34  1  0  0  0
M  END
> <minimizedAffinity>
-6.52114

$$$$
2ZMM_35B_A_307


 34 36  0  0  0  0  0  0  0  0999 V2000
   48.1088    8.2938   -1.2051 C   0  0  0  0  0  0  0  0  0  0  0  0
   47.8126    7.1571   -1.9696 C   0  0  0  0  0  0  0  0  0  0  0  0
   48.1432    5.8879   -1.4912 C   0  0  0  0  0  0  0  0  0  0  0  0
   48.7724    5.7350   -0.2564 C   0  0  0  0  0  0  0  0  0  0  0  0
   49.0734    6.8565    0.5211 C   0  0  0  0  0  0  0  0  0  0  0  0
   48.7410    8.1274    0.0398 C   0  0  0  0  0  0  0  0  0  0  0  0
   50.3069    9.8865   -4.3858 C   0  0  0  0  0  0  0  0  0  0  0  0
   48.4817   10.2280   -2.7327 C   0  0  0  0  0  0  0  0  0  0  0  0
   49.4916    9.4391   -3.2801 N   0  0  0  0  0  0  0  0  0  0  0  0
   48.2384   11.3563   -3.1673 O   0  0  0  0  0  0  0  0  0  0  0  0
   47.7847    9.6223   -1.6563 N   0  0  0  0  0  0  0  0  0  0  0  0
   49.6552    8.5457   -2.9002 H   0  0  0  0  0  0  0  0  0  0  0  0
   46.6660   10.3465   -0.9810 C   0  0  0  0  0  0  0  0  0  0  0  0
   47.1147   11.3221    0.1250 C   0  0  0  0  0  0  0  0  0  0  0  0
   46.3135   11.1322    1.4124 C   0  0  0  0  0  0  0  0  0  0  0  0
   44.8032   11.1629    1.1821 C   0  0  0  0  0  0  0  0  0  0  0  0
   44.3635   10.2386    0.0483 C   0  0  0  0  0  0  0  0  0  0  0  0
   45.5299    9.4252   -0.5130 C   0  0  0  0  0  0  0  0  0  0  0  0
   49.7252    6.7085    1.8213 C   0  0  0  0  0  0  0  0  0  0  0  0
   49.5346    5.7978    2.8396 C   0  0  0  0  0  0  0  0  0  0  0  0
   50.3828    6.0113    3.9649 C   0  0  0  0  0  0  0  0  0  0  0  0
   51.2550    7.0584    3.7285 C   0  0  0  0  0  0  0  0  0  0  0  0
   50.9946    7.7930    2.2094 S   0  0  0  0  0  0  0  0  0  0  0  0
   48.2324    4.4273    2.8379 Br  0  0  0  0  0  0  0  0  0  0  0  0
   52.3722    7.6147    4.6799 C   0  0  0  0  0  0  0  0  0  0  0  0
   53.1527    6.7932    5.2440 O   0  0  0  0  0  0  0  0  0  0  0  0
   52.3947    8.8798    4.7879 O   0  0  0  0  0  0  0  0  0  0  0  0
   53.0506    5.8734    5.0971 H   0  0  0  0  0  0  0  0  0  0  0  0
   50.3845    5.2553    5.1006 O   0  0  0  0  0  0  0  0  0  0  0  0
   51.2143    4.0849    5.0653 C   0  0  0  0  0  0  0  0  0  0  0  0
   51.5311    3.7153    6.5216 C   0  0  0  0  0  0  0  0  0  0  0  0
   51.1828    2.5582    6.8962 O   0  0  0  0  0  0  0  0  0  0  0  0
   52.1173    4.6141    7.1887 O   0  0  0  0  0  0  0  0  0  0  0  0
   50.7506    1.9821    6.2969 H   0  0  0  0  0  0  0  0  0  0  0  0
  7  9  1  0  0  0
  9  8  1  0  0  0
 10  8  2  0  0  0
  8 11  1  0  0  0
  2  1  2  0  0  0
  1 11  1  0  0  0
  1  6  1  0  0  0
  3  2  1  0  0  0
  3  4  2  0  0  0
  4  5  1  0  0  0
  5  6  2  0  0  0
  5 19  1  0  0  0
 23 19  1  0  0  0
 19 20  2  0  0  0
 20 21  1  0  0  0
 20 24  1  0  0  0
 22 21  2  0  0  0
 21 29  1  0  0  0
 23 22  1  0  0  0
 25 22  1  0  0  0
 27 25  2  0  0  0
 25 26  1  0  0  0
 30 29  1  0  0  0
 30 31  1  0  0  0
 33 31  2  0  0  0
 31 32  1  0  0  0
 11 13  1  0  0  0
 14 13  1  0  0  0
 13 18  1  0  0  0
 14 15  1  0  0  0
 15 16  1  0  0  0
 16 17  1  0  0  0
 18 17  1  0  0  0
  9 12  1  0  0  0
 26 28  1  0  0  0
 32 34  1  0  0  0
M  END
> <minimizedAffinity>
-6.43851

$$$$
