1FPC_0ZI_H_371
  RCSB PDB12061702313D
Coordinates from PDB:1FPC:H:371 Model:1 without hydrogens
 35 37  0  0  0  0            999 V2000
   17.5650  -17.0930   22.3550   C 0  0  0  0  0  0  0  0  0  0  0  0
   18.3640  -17.0780   21.1800   C 0  0  0  0  0  0  0  0  0  0  0  0
   19.6660  -16.6580   21.2390   C 0  0  0  0  0  0  0  0  0  0  0  0
   20.2110  -16.2220   22.4590   C 0  0  0  0  0  0  0  0  0  0  0  0
   19.4500  -16.2300   23.6240   C 0  0  0  0  0  0  0  0  0  0  0  0
   19.9740  -15.8220   24.8170   C 0  0  0  0  0  0  0  0  0  0  0  0
   19.2000  -15.7920   25.9650   C 0  0  0  0  0  0  0  0  0  0  0  0
   17.8740  -16.2710   25.8910   C 0  0  0  0  0  0  0  0  0  0  0  0
   17.3140  -16.6790   24.6970   C 0  0  0  0  0  0  0  0  0  0  0  0
   18.0840  -16.6810   23.5630   C 0  0  0  0  0  0  0  0  0  0  0  0
   21.2910  -15.3480   24.8670   N 0  0  0  0  0  0  0  0  0  0  0  0
   21.6710  -13.9230   24.9480   C 0  0  0  0  0  0  0  0  0  0  0  0
   22.2730  -16.2210   25.8110   C 0  0  0  0  0  0  0  0  0  0  0  0
   15.7800  -17.6380   22.1970   S 0  0  0  0  0  0  0  0  0  0  0  0
   15.6560  -18.0790   20.7840   O 0  0  0  0  0  0  0  0  0  0  0  0
   15.0610  -18.5890   23.1260   O 0  0  0  0  0  0  0  0  0  0  0  0
   14.6980  -16.2450   22.3190   N 0  0  0  0  0  0  0  0  0  0  0  0
   14.7870  -15.1650   21.3470   C 0  0  0  0  0  0  0  0  0  0  0  0
   15.8750  -14.1850   21.7940   C 0  0  0  0  0  0  0  0  0  0  0  0
   16.1180  -13.9270   22.9870   O 0  0  0  0  0  0  0  0  0  0  0  0
   13.4540  -14.4560   21.2730   C 0  0  0  0  0  0  0  0  0  0  0  0
   11.9190  -14.5210   21.3030   C 0  0  0  0  0  0  0  0  0  0  0  0
   11.4410  -13.1890   21.2000   C 0  0  0  0  0  0  0  0  0  0  0  0
   10.9800  -12.7740   22.5580   N 0  0  0  0  0  0  0  0  0  0  0  0
   11.1730  -11.7290   23.3130   C 0  0  0  0  0  0  0  0  0  0  0  0
   11.8990  -10.7000   22.7900   N 0  0  0  0  0  0  0  0  0  0  0  0
   10.6820  -11.7010   24.4910   N 0  3  0  0  0  0  0  0  0  0  0  0
   16.8870  -13.8810   20.8120   N 0  0  0  0  0  0  0  0  0  0  0  0
   17.8720  -12.8090   21.3660   C 0  0  0  0  0  0  0  0  0  0  0  0
   19.1770  -12.8640   20.5860   C 0  0  0  0  0  0  0  0  0  0  0  0
   18.8650  -12.9240   19.0080   C 0  0  0  0  0  0  0  0  0  0  0  0
   17.7980  -14.0640   18.5390   C 0  0  0  0  0  0  0  0  0  0  0  0
   16.4600  -13.9480   19.3070   C 0  0  0  0  0  0  0  0  0  0  0  0
   20.1770  -13.1700   18.4840   C 0  0  0  0  0  0  0  0  0  0  0  0
   20.3190  -13.0360   16.9390   C 0  0  0  0  0  0  0  0  0  0  0  0
  1  2  2  0  0  0  0
  1 10  1  0  0  0  0
  1 14  1  0  0  0  0
  2  3  1  0  0  0  0
  3  4  2  0  0  0  0
  4  5  1  0  0  0  0
  5  6  2  0  0  0  0
  5 10  1  0  0  0  0
  6  7  1  0  0  0  0
  6 11  1  0  0  0  0
  7  8  2  0  0  0  0
  8  9  1  0  0  0  0
  9 10  2  0  0  0  0
 11 12  1  0  0  0  0
 11 13  1  0  0  0  0
 14 15  2  0  0  0  0
 14 16  2  0  0  0  0
 17 18  1  0  0  0  0
 18 19  1  0  0  0  0
 18 21  1  0  0  0  0
 19 20  2  0  0  0  0
 21 22  1  0  0  0  0
 22 23  1  0  0  0  0
 23 24  1  0  0  0  0
 24 25  1  0  0  0  0
 25 26  1  0  0  0  0
 25 27  2  0  0  0  0
 28 29  1  0  0  0  0
 28 33  1  0  0  0  0
 29 30  1  0  0  0  0
 30 31  1  0  0  0  0
 31 32  1  0  0  0  0
 31 34  1  0  0  0  0
 32 33  1  0  0  0  0
 34 35  1  0  0  0  0
 14 17  1  0  0  0  0
 19 28  1  0  0  0  0
M  CHG  1  27   1
A    1
C1
A    2
C2
A    3
C3
A    4
C4
A    5
C4A
A    6
C5
A    7
C6
A    8
C7
A    9
C8
A   10
C8A
A   11
N
A   12
CM1
A   13
CM2
A   14
S
A   15
O1S
A   16
O2S
A   17
N1
A   18
CA
A   19
C
A   20
O
A   21
CB
A   22
CG
A   23
CD
A   24
NE
A   25
CZ
A   26
NH1
A   27
NH2
A   28
N11
A   29
C21
A   30
C31
A   31
C41
A   32
C51
A   33
C61
A   34
C1'
A   35
C2'
M  END
>  <InstanceId>
1FPC_0ZI_H_371

>  <ChemCompId>
0ZI

>  <PdbId>
1FPC

>  <ChainId>
H

>  <ResidueNumber>
371

>  <InsertionCode>


>  <Model>
1

>  <AltIds>


>  <MissingHeavyAtoms>
0

>  <ObservedFormula>
C25 N6 O3 S

>  <Name>
amino{[(4S)-4-({[5-(dimethylamino)naphthalen-1-yl]sulfonyl}amino)-5-(4-ethylpiperidin-1-yl)-5-oxopentyl]amino}methaniminium

>  <SystematicName>
[amino-[[(4S)-4-[(5-dimethylaminonaphthalen-1-yl)sulfonylamino]-5-(4-ethylpiperidin-1-yl)-5-oxo-pentyl]amino]methylidene]azanium

>  <Synonyms>
DAPA

>  <Type>
peptide-like

>  <Formula>
C25 H39 N6 O3 S

>  <MolecularWeight>
503.681

>  <ModifiedDate>
2011-07-13

>  <Parent>


>  <OneLetterCode>


>  <SubcomponentList>
ANS ARG EPI

>  <AmbiguousFlag>
N

>  <InChI>
InChI=1S/C25H38N6O3S/c1-4-18-13-16-31(17-14-18)24(32)21(10-7-15-28-25(26)27)29-35(33,34)23-12-6-8-19-20(23)9-5-11-22(19)30(2)3/h5-6,8-9,11-12,18,21,29H,4,7,10,13-17H2,1-3H3,(H4,26,27,28)/p+1/t21-/m0/s1

>  <InChIKey>
IIYZWOIELWZHJV-NRFANRHFSA-O

>  <SMILES>


$$$$
