5C1W_4XS_A_803


 12 13  0  0  0  0  0  0  0  0999 V2000
    4.3338   12.3113   43.8211 C   0  0  0  0  0  0  0  0  0  0  0  0
    4.0558   13.7359   41.9827 C   0  0  0  0  0  0  0  0  0  0  0  0
    3.3716   14.6032   42.7576 N   0  0  0  0  0  0  0  0  0  0  0  0
    3.3720   12.8783   46.1842 C   0  0  0  0  0  0  0  0  0  0  0  0
    2.3088   15.4430   44.9567 Cl  0  0  0  0  0  0  0  0  0  0  0  0
    3.1995   14.2591   44.0543 C   0  0  0  0  0  0  0  0  0  0  0  0
    3.6461   13.1206   44.7224 C   0  0  0  0  0  0  0  0  0  0  0  0
    4.5235   12.5687   42.5115 N   0  0  0  0  0  0  0  0  0  0  0  0
    5.0620   10.7725   44.1832 Cl  0  0  0  0  0  0  0  0  0  0  0  0
    3.5025   15.0370   39.7216 C   0  0  0  0  0  0  0  0  0  0  0  0
    4.3184   14.0307   40.5298 C   0  0  0  0  0  0  0  0  0  0  0  0
    4.8754   15.4286   40.2750 C   0  0  0  0  0  0  0  0  0  0  0  0
 10 12  1  0  0  0
 10 11  1  0  0  0
 12 11  1  0  0  0
 11  2  1  0  0  0
  2  8  2  0  0  0
  2  3  1  0  0  0
  8  1  1  0  0  0
  3  6  2  0  0  0
  1  9  1  0  0  0
  1  7  2  0  0  0
  6  7  1  0  0  0
  6  5  1  0  0  0
  7  4  1  0  0  0
M  END
> <minimizedAffinity>
-6.47371

$$$$
5C1W_4XS_A_803


 12 13  0  0  0  0  0  0  0  0999 V2000
    3.1703   14.1906   44.0588 C   0  0  0  0  0  0  0  0  0  0  0  0
    4.1257   13.6498   41.9898 C   0  0  0  0  0  0  0  0  0  0  0  0
    4.6558   12.5310   42.5264 N   0  0  0  0  0  0  0  0  0  0  0  0
    3.4756   12.6853   46.1734 C   0  0  0  0  0  0  0  0  0  0  0  0
    5.1359   10.8437   44.4221 Cl  0  0  0  0  0  0  0  0  0  0  0  0
    4.4089   12.3062   43.8372 C   0  0  0  0  0  0  0  0  0  0  0  0
    3.6609   13.0724   44.7289 C   0  0  0  0  0  0  0  0  0  0  0  0
    3.3940   14.5000   42.7659 N   0  0  0  0  0  0  0  0  0  0  0  0
    2.1952   15.4515   44.7580 Cl  0  0  0  0  0  0  0  0  0  0  0  0
    3.4417   14.9735   39.7782 C   0  0  0  0  0  0  0  0  0  0  0  0
    4.3254   13.9852   40.5357 C   0  0  0  0  0  0  0  0  0  0  0  0
    4.8159   15.4099   40.2931 C   0  0  0  0  0  0  0  0  0  0  0  0
 10 12  1  0  0  0
 10 11  1  0  0  0
 12 11  1  0  0  0
 11  2  1  0  0  0
  2  8  2  0  0  0
  2  3  1  0  0  0
  8  1  1  0  0  0
  3  6  2  0  0  0
  1  9  1  0  0  0
  1  7  2  0  0  0
  6  7  1  0  0  0
  6  5  1  0  0  0
  7  4  1  0  0  0
M  END
> <minimizedAffinity>
-6.42925

$$$$
5C1W_4XS_A_803


 12 13  0  0  0  0  0  0  0  0999 V2000
    3.3092   13.8717   44.0809 C   0  0  0  0  0  0  0  0  0  0  0  0
    4.5494   13.1744   42.2202 C   0  0  0  0  0  0  0  0  0  0  0  0
    5.0562   12.1521   42.9404 N   0  0  0  0  0  0  0  0  0  0  0  0
    3.4060   12.6181   46.3721 C   0  0  0  0  0  0  0  0  0  0  0  0
    5.3628   10.7053   45.0579 Cl  0  0  0  0  0  0  0  0  0  0  0  0
    4.6515   12.0520   44.2272 C   0  0  0  0  0  0  0  0  0  0  0  0
    3.7595   12.8616   44.9277 C   0  0  0  0  0  0  0  0  0  0  0  0
    3.6847   14.0562   42.7993 N   0  0  0  0  0  0  0  0  0  0  0  0
    2.1946   15.1385   44.5080 Cl  0  0  0  0  0  0  0  0  0  0  0  0
    4.2496   12.6069   39.6319 C   0  0  0  0  0  0  0  0  0  0  0  0
    4.9208   13.3665   40.7738 C   0  0  0  0  0  0  0  0  0  0  0  0
    3.8363   14.0478   39.9438 C   0  0  0  0  0  0  0  0  0  0  0  0
 10 12  1  0  0  0
 10 11  1  0  0  0
 12 11  1  0  0  0
 11  2  1  0  0  0
  2  8  2  0  0  0
  2  3  1  0  0  0
  8  1  1  0  0  0
  3  6  2  0  0  0
  1  9  1  0  0  0
  1  7  2  0  0  0
  6  7  1  0  0  0
  6  5  1  0  0  0
  7  4  1  0  0  0
M  END
> <minimizedAffinity>
-6.00238

$$$$
5C1W_4XS_A_803


 12 13  0  0  0  0  0  0  0  0999 V2000
    4.0572   13.6197   42.6431 C   0  0  0  0  0  0  0  0  0  0  0  0
    5.1556   11.6510   43.2787 C   0  0  0  0  0  0  0  0  0  0  0  0
    4.6374   11.7618   44.5196 N   0  0  0  0  0  0  0  0  0  0  0  0
    2.5603   14.9796   44.2986 C   0  0  0  0  0  0  0  0  0  0  0  0
    3.2311   12.8733   46.3791 Cl  0  0  0  0  0  0  0  0  0  0  0  0
    3.8417   12.8298   44.7559 C   0  0  0  0  0  0  0  0  0  0  0  0
    3.4624   13.8467   43.8819 C   0  0  0  0  0  0  0  0  0  0  0  0
    4.8822   12.5986   42.3363 N   0  0  0  0  0  0  0  0  0  0  0  0
    3.8957   14.6292   41.2344 Cl  0  0  0  0  0  0  0  0  0  0  0  0
    7.5595   10.5975   42.8066 C   0  0  0  0  0  0  0  0  0  0  0  0
    6.0396   10.4908   42.9054 C   0  0  0  0  0  0  0  0  0  0  0  0
    6.9116    9.9860   44.0517 C   0  0  0  0  0  0  0  0  0  0  0  0
 10 12  1  0  0  0
 10 11  1  0  0  0
 12 11  1  0  0  0
 11  2  1  0  0  0
  2  8  2  0  0  0
  2  3  1  0  0  0
  8  1  1  0  0  0
  3  6  2  0  0  0
  1  9  1  0  0  0
  1  7  2  0  0  0
  6  7  1  0  0  0
  6  5  1  0  0  0
  7  4  1  0  0  0
M  END
> <minimizedAffinity>
-5.95687

$$$$
5C1W_4XS_A_803


 12 13  0  0  0  0  0  0  0  0999 V2000
    4.2378   12.4711   45.1238 C   0  0  0  0  0  0  0  0  0  0  0  0
    5.8624   11.0166   44.2685 C   0  0  0  0  0  0  0  0  0  0  0  0
    5.7979   11.6449   43.0761 N   0  0  0  0  0  0  0  0  0  0  0  0
    3.1574   14.3618   43.6787 C   0  0  0  0  0  0  0  0  0  0  0  0
    4.9258   13.4087   41.4029 Cl  0  0  0  0  0  0  0  0  0  0  0  0
    4.9270   12.6749   42.9749 C   0  0  0  0  0  0  0  0  0  0  0  0
    4.0779   13.1994   43.9474 C   0  0  0  0  0  0  0  0  0  0  0  0
    5.0607   11.4174   45.2968 N   0  0  0  0  0  0  0  0  0  0  0  0
    3.3786   12.7393   46.6136 Cl  0  0  0  0  0  0  0  0  0  0  0  0
    6.9440    9.1459   45.8311 C   0  0  0  0  0  0  0  0  0  0  0  0
    6.8111    9.8693   44.4931 C   0  0  0  0  0  0  0  0  0  0  0  0
    6.1166    8.5264   44.7016 C   0  0  0  0  0  0  0  0  0  0  0  0
 10 12  1  0  0  0
 10 11  1  0  0  0
 12 11  1  0  0  0
 11  2  1  0  0  0
  2  8  2  0  0  0
  2  3  1  0  0  0
  8  1  1  0  0  0
  3  6  2  0  0  0
  1  9  1  0  0  0
  1  7  2  0  0  0
  6  7  1  0  0  0
  6  5  1  0  0  0
  7  4  1  0  0  0
M  END
> <minimizedAffinity>
-5.91588

$$$$
5C1W_4XS_A_803


 12 13  0  0  0  0  0  0  0  0999 V2000
    4.7907   12.7902   42.9415 C   0  0  0  0  0  0  0  0  0  0  0  0
    5.6616   11.0081   44.1873 C   0  0  0  0  0  0  0  0  0  0  0  0
    4.9073   11.3771   45.2435 N   0  0  0  0  0  0  0  0  0  0  0  0
    3.0425   14.4620   43.9311 C   0  0  0  0  0  0  0  0  0  0  0  0
    3.1971   12.8503   46.4988 Cl  0  0  0  0  0  0  0  0  0  0  0  0
    4.1217   12.4662   45.0821 C   0  0  0  0  0  0  0  0  0  0  0  0
    3.9664   13.2719   43.9557 C   0  0  0  0  0  0  0  0  0  0  0  0
    5.6211   11.7320   43.0319 N   0  0  0  0  0  0  0  0  0  0  0  0
    4.9565   13.4761   41.3505 Cl  0  0  0  0  0  0  0  0  0  0  0  0
    6.8864    9.0772   45.5596 C   0  0  0  0  0  0  0  0  0  0  0  0
    6.5579    9.8002   44.2554 C   0  0  0  0  0  0  0  0  0  0  0  0
    5.8267    8.5089   44.6119 C   0  0  0  0  0  0  0  0  0  0  0  0
 10 12  1  0  0  0
 10 11  1  0  0  0
 12 11  1  0  0  0
 11  2  1  0  0  0
  2  8  2  0  0  0
  2  3  1  0  0  0
  8  1  1  0  0  0
  3  6  2  0  0  0
  1  9  1  0  0  0
  1  7  2  0  0  0
  6  7  1  0  0  0
  6  5  1  0  0  0
  7  4  1  0  0  0
M  END
> <minimizedAffinity>
-5.90227

$$$$
5C1W_4XS_A_803


 12 13  0  0  0  0  0  0  0  0999 V2000
    3.7355   14.0664   40.4463 C   0  0  0  0  0  0  0  0  0  0  0  0
    3.8307   14.1585   42.7849 C   0  0  0  0  0  0  0  0  0  0  0  0
    4.4995   12.9867   42.8043 N   0  0  0  0  0  0  0  0  0  0  0  0
    4.7665   12.0885   39.0842 C   0  0  0  0  0  0  0  0  0  0  0  0
    5.6109   10.9072   41.7500 Cl  0  0  0  0  0  0  0  0  0  0  0  0
    4.7477   12.4053   41.6085 C   0  0  0  0  0  0  0  0  0  0  0  0
    4.4165   12.8567   40.3324 C   0  0  0  0  0  0  0  0  0  0  0  0
    3.4250   14.6946   41.5980 N   0  0  0  0  0  0  0  0  0  0  0  0
    3.1024   15.0080   39.1265 Cl  0  0  0  0  0  0  0  0  0  0  0  0
    2.0952   15.1388   44.5564 C   0  0  0  0  0  0  0  0  0  0  0  0
    3.5185   14.8973   44.0590 C   0  0  0  0  0  0  0  0  0  0  0  0
    2.9390   14.0122   45.1591 C   0  0  0  0  0  0  0  0  0  0  0  0
 10 12  1  0  0  0
 10 11  1  0  0  0
 12 11  1  0  0  0
 11  2  1  0  0  0
  2  8  2  0  0  0
  2  3  1  0  0  0
  8  1  1  0  0  0
  3  6  2  0  0  0
  1  9  1  0  0  0
  1  7  2  0  0  0
  6  7  1  0  0  0
  6  5  1  0  0  0
  7  4  1  0  0  0
M  END
> <minimizedAffinity>
-5.79453

$$$$
5C1W_4XS_A_803


 12 13  0  0  0  0  0  0  0  0999 V2000
    5.5079   11.6446   42.9620 C   0  0  0  0  0  0  0  0  0  0  0  0
    4.1551   13.4752   42.4094 C   0  0  0  0  0  0  0  0  0  0  0  0
    3.6700   13.4973   43.6684 N   0  0  0  0  0  0  0  0  0  0  0  0
    5.5140   10.5843   45.3508 C   0  0  0  0  0  0  0  0  0  0  0  0
    3.4535   12.6805   46.1091 Cl  0  0  0  0  0  0  0  0  0  0  0  0
    4.1426   12.5602   44.5216 C   0  0  0  0  0  0  0  0  0  0  0  0
    5.0864   11.5622   44.2870 C   0  0  0  0  0  0  0  0  0  0  0  0
    5.0662   12.5280   42.0444 N   0  0  0  0  0  0  0  0  0  0  0  0
    6.6672   10.5979   42.1941 Cl  0  0  0  0  0  0  0  0  0  0  0  0
    4.6780   15.2358   40.4760 C   0  0  0  0  0  0  0  0  0  0  0  0
    3.7085   14.4848   41.3857 C   0  0  0  0  0  0  0  0  0  0  0  0
    3.9034   14.0276   39.9427 C   0  0  0  0  0  0  0  0  0  0  0  0
 10 12  1  0  0  0
 10 11  1  0  0  0
 12 11  1  0  0  0
 11  2  1  0  0  0
  2  8  2  0  0  0
  2  3  1  0  0  0
  8  1  1  0  0  0
  3  6  2  0  0  0
  1  9  1  0  0  0
  1  7  2  0  0  0
  6  7  1  0  0  0
  6  5  1  0  0  0
  7  4  1  0  0  0
M  END
> <minimizedAffinity>
-5.65838

$$$$
5C1W_4XS_A_803


 12 13  0  0  0  0  0  0  0  0999 V2000
    4.6913   12.3016   42.2512 C   0  0  0  0  0  0  0  0  0  0  0  0
    3.5490   13.9779   43.4223 C   0  0  0  0  0  0  0  0  0  0  0  0
    3.3266   14.6354   42.2652 N   0  0  0  0  0  0  0  0  0  0  0  0
    5.0154   12.3831   39.6591 C   0  0  0  0  0  0  0  0  0  0  0  0
    3.4771   14.9995   39.7126 Cl  0  0  0  0  0  0  0  0  0  0  0  0
    3.8200   14.0728   41.1385 C   0  0  0  0  0  0  0  0  0  0  0  0
    4.5289   12.8816   40.9953 C   0  0  0  0  0  0  0  0  0  0  0  0
    4.2560   12.8113   43.4209 N   0  0  0  0  0  0  0  0  0  0  0  0
    5.5276   10.8122   42.5857 Cl  0  0  0  0  0  0  0  0  0  0  0  0
    3.0353   15.9921   45.0928 C   0  0  0  0  0  0  0  0  0  0  0  0
    3.0279   14.5086   44.7313 C   0  0  0  0  0  0  0  0  0  0  0  0
    1.7472   15.3280   44.5987 C   0  0  0  0  0  0  0  0  0  0  0  0
 10 12  1  0  0  0
 10 11  1  0  0  0
 12 11  1  0  0  0
 11  2  1  0  0  0
  2  8  2  0  0  0
  2  3  1  0  0  0
  8  1  1  0  0  0
  3  6  2  0  0  0
  1  9  1  0  0  0
  1  7  2  0  0  0
  6  7  1  0  0  0
  6  5  1  0  0  0
  7  4  1  0  0  0
M  END
> <minimizedAffinity>
-5.61601

$$$$
5C1W_4XS_A_803


 12 13  0  0  0  0  0  0  0  0999 V2000
    3.6586   13.2141   45.3909 C   0  0  0  0  0  0  0  0  0  0  0  0
    2.7375   15.3531   45.1399 C   0  0  0  0  0  0  0  0  0  0  0  0
    2.9438   15.2861   43.8081 N   0  0  0  0  0  0  0  0  0  0  0  0
    4.5531   11.8326   43.3607 C   0  0  0  0  0  0  0  0  0  0  0  0
    3.7354   14.1768   41.6140 Cl  0  0  0  0  0  0  0  0  0  0  0  0
    3.5175   14.1563   43.3350 C   0  0  0  0  0  0  0  0  0  0  0  0
    3.9239   13.0232   44.0370 C   0  0  0  0  0  0  0  0  0  0  0  0
    3.1171   14.3182   45.9434 N   0  0  0  0  0  0  0  0  0  0  0  0
    4.0069   12.0832   46.6673 Cl  0  0  0  0  0  0  0  0  0  0  0  0
    2.0932   16.8201   47.2716 C   0  0  0  0  0  0  0  0  0  0  0  0
    2.0896   16.5586   45.7672 C   0  0  0  0  0  0  0  0  0  0  0  0
    3.0828   17.5532   46.3619 C   0  0  0  0  0  0  0  0  0  0  0  0
 10 12  1  0  0  0
 10 11  1  0  0  0
 12 11  1  0  0  0
 11  2  1  0  0  0
  2  8  2  0  0  0
  2  3  1  0  0  0
  8  1  1  0  0  0
  3  6  2  0  0  0
  1  9  1  0  0  0
  1  7  2  0  0  0
  6  7  1  0  0  0
  6  5  1  0  0  0
  7  4  1  0  0  0
M  END
> <minimizedAffinity>
-5.56832

$$$$
