4GFM_0X2_A_1201


 19 20  0  0  0  0  0  0  0  0999 V2000
   32.0724  -12.4014    4.2302 C   0  0  0  0  0  0  0  0  0  0  0  0
   31.3887  -13.3037    3.5091 N   0  0  0  0  0  0  0  0  0  0  0  0
   32.2928  -12.5551    5.4318 O   0  0  0  0  0  0  0  0  0  0  0  0
   31.2138  -13.0584    2.5719 H   0  0  0  0  0  0  0  0  0  0  0  0
   32.5491  -11.1679    3.4728 C   0  0  0  0  0  0  0  0  0  0  0  0
   33.7099  -11.2218    2.7172 C   0  0  0  0  0  0  0  0  0  0  0  0
   34.1700  -10.1095    2.0045 C   0  0  0  0  0  0  0  0  0  0  0  0
   31.8698   -9.9653    3.4792 C   0  0  0  0  0  0  0  0  0  0  0  0
   30.4058   -9.8763    4.4379 Cl  0  0  0  0  0  0  0  0  0  0  0  0
   32.2951   -8.8325    2.7898 C   0  0  0  0  0  0  0  0  0  0  0  0
   34.6405  -12.7423    2.6660 Cl  0  0  0  0  0  0  0  0  0  0  0  0
   33.4646   -8.9085    2.0356 C   0  0  0  0  0  0  0  0  0  0  0  0
   30.9501  -16.9527    4.1569 C   0  0  0  0  0  0  0  0  0  0  0  0
   30.8868  -14.5597    3.9188 C   0  0  0  0  0  0  0  0  0  0  0  0
   29.5914  -14.5990    4.4538 C   0  0  0  0  0  0  0  0  0  0  0  0
   29.0161  -15.8160    4.8412 C   0  0  0  0  0  0  0  0  0  0  0  0
   31.5694  -15.7656    3.7590 C   0  0  0  0  0  0  0  0  0  0  0  0
   29.6940  -16.9551    4.6738 N   0  0  0  0  0  0  0  0  0  0  0  0
   31.5559  -18.0352    4.0314 O   0  0  0  0  0  0  0  0  0  0  0  0
 16 18  2  0  0  0
 16 15  1  0  0  0
 11  6  1  0  0  0
 18 13  1  0  0  0
 15 14  1  0  0  0
 13 19  2  0  0  0
 13 17  1  0  0  0
 14 17  2  0  0  0
 14  2  1  0  0  0
  6  7  2  0  0  0
  6  5  1  0  0  0
  2  1  1  0  0  0
  7 12  1  0  0  0
  1  3  2  0  0  0
  1  5  1  0  0  0
  5  8  2  0  0  0
 12 10  2  0  0  0
  8 10  1  0  0  0
  8  9  1  0  0  0
  2  4  1  0  0  0
M  END
> <minimizedAffinity>
-7.93290

$$$$
4GFM_0X2_A_1201


 19 20  0  0  0  0  0  0  0  0999 V2000
   32.0787  -12.4006    4.2118 C   0  0  0  0  0  0  0  0  0  0  0  0
   31.3983  -13.3157    3.5039 N   0  0  0  0  0  0  0  0  0  0  0  0
   32.3017  -12.5373    5.4150 O   0  0  0  0  0  0  0  0  0  0  0  0
   31.2208  -13.0836    2.5638 H   0  0  0  0  0  0  0  0  0  0  0  0
   32.5479  -11.1748    3.4375 C   0  0  0  0  0  0  0  0  0  0  0  0
   31.8219   -9.9955    3.4966 C   0  0  0  0  0  0  0  0  0  0  0  0
   32.2300   -8.8508    2.8038 C   0  0  0  0  0  0  0  0  0  0  0  0
   33.6945  -11.1580    2.6675 C   0  0  0  0  0  0  0  0  0  0  0  0
   34.6187  -12.6436    2.5731 Cl  0  0  0  0  0  0  0  0  0  0  0  0
   34.1335  -10.0435    1.9572 C   0  0  0  0  0  0  0  0  0  0  0  0
   30.3281   -9.9456    4.4694 Cl  0  0  0  0  0  0  0  0  0  0  0  0
   33.3890   -8.8677    2.0308 C   0  0  0  0  0  0  0  0  0  0  0  0
   30.9735  -16.9593    4.1897 C   0  0  0  0  0  0  0  0  0  0  0  0
   30.9035  -14.5687    3.9309 C   0  0  0  0  0  0  0  0  0  0  0  0
   29.6147  -14.6051    4.4819 C   0  0  0  0  0  0  0  0  0  0  0  0
   29.0461  -15.8194    4.8872 C   0  0  0  0  0  0  0  0  0  0  0  0
   31.5860  -15.7750    3.7737 C   0  0  0  0  0  0  0  0  0  0  0  0
   29.7238  -16.9589    4.7219 N   0  0  0  0  0  0  0  0  0  0  0  0
   31.5794  -18.0420    4.0666 O   0  0  0  0  0  0  0  0  0  0  0  0
 16 18  2  0  0  0
 16 15  1  0  0  0
 11  6  1  0  0  0
 18 13  1  0  0  0
 15 14  1  0  0  0
 13 19  2  0  0  0
 13 17  1  0  0  0
 14 17  2  0  0  0
 14  2  1  0  0  0
  6  7  2  0  0  0
  6  5  1  0  0  0
  2  1  1  0  0  0
  7 12  1  0  0  0
  1  3  2  0  0  0
  1  5  1  0  0  0
  5  8  2  0  0  0
 12 10  2  0  0  0
  8 10  1  0  0  0
  8  9  1  0  0  0
  2  4  1  0  0  0
M  END
> <minimizedAffinity>
-7.92146

$$$$
4GFM_0X2_A_1201


 19 20  0  0  0  0  0  0  0  0999 V2000
   31.2200  -13.4505    4.7033 C   0  0  0  0  0  0  0  0  0  0  0  0
   30.1355  -13.8650    4.0298 N   0  0  0  0  0  0  0  0  0  0  0  0
   31.3154  -13.5666    5.9253 O   0  0  0  0  0  0  0  0  0  0  0  0
   30.1316  -13.6714    3.0646 H   0  0  0  0  0  0  0  0  0  0  0  0
   32.3218  -12.8154    3.8637 C   0  0  0  0  0  0  0  0  0  0  0  0
   32.3766  -11.4383    3.7158 C   0  0  0  0  0  0  0  0  0  0  0  0
   33.3795  -10.8242    2.9583 C   0  0  0  0  0  0  0  0  0  0  0  0
   33.3096  -13.5457    3.2322 C   0  0  0  0  0  0  0  0  0  0  0  0
   33.2494  -15.2888    3.3998 Cl  0  0  0  0  0  0  0  0  0  0  0  0
   34.3219  -12.9760    2.4641 C   0  0  0  0  0  0  0  0  0  0  0  0
   31.1308  -10.4324    4.5010 Cl  0  0  0  0  0  0  0  0  0  0  0  0
   34.3589  -11.5894    2.3288 C   0  0  0  0  0  0  0  0  0  0  0  0
   27.7729  -16.4744    5.2693 C   0  0  0  0  0  0  0  0  0  0  0  0
   28.9984  -14.5429    4.5245 C   0  0  0  0  0  0  0  0  0  0  0  0
   27.8063  -13.8140    4.6405 C   0  0  0  0  0  0  0  0  0  0  0  0
   26.6312  -14.4341    5.0841 C   0  0  0  0  0  0  0  0  0  0  0  0
   28.9710  -15.9025    4.8354 C   0  0  0  0  0  0  0  0  0  0  0  0
   26.6358  -15.7386    5.3725 N   0  0  0  0  0  0  0  0  0  0  0  0
   27.7397  -17.6857    5.5629 O   0  0  0  0  0  0  0  0  0  0  0  0
 16 18  2  0  0  0
 16 15  1  0  0  0
 11  6  1  0  0  0
 18 13  1  0  0  0
 15 14  1  0  0  0
 13 19  2  0  0  0
 13 17  1  0  0  0
 14 17  2  0  0  0
 14  2  1  0  0  0
  6  7  2  0  0  0
  6  5  1  0  0  0
  2  1  1  0  0  0
  7 12  1  0  0  0
  1  3  2  0  0  0
  1  5  1  0  0  0
  5  8  2  0  0  0
 12 10  2  0  0  0
  8 10  1  0  0  0
  8  9  1  0  0  0
  2  4  1  0  0  0
M  END
> <minimizedAffinity>
-7.68937

$$$$
4GFM_0X2_A_1201


 19 20  0  0  0  0  0  0  0  0999 V2000
   31.2065  -13.4865    4.7214 C   0  0  0  0  0  0  0  0  0  0  0  0
   30.0893  -13.8303    4.0619 N   0  0  0  0  0  0  0  0  0  0  0  0
   31.3457  -13.6958    5.9268 O   0  0  0  0  0  0  0  0  0  0  0  0
   30.0529  -13.5646    3.1147 H   0  0  0  0  0  0  0  0  0  0  0  0
   32.2886  -12.8092    3.8891 C   0  0  0  0  0  0  0  0  0  0  0  0
   33.2546  -13.5720    3.2518 C   0  0  0  0  0  0  0  0  0  0  0  0
   34.2564  -12.9814    2.4744 C   0  0  0  0  0  0  0  0  0  0  0  0
   32.3627  -11.4415    3.7110 C   0  0  0  0  0  0  0  0  0  0  0  0
   31.1555  -10.4611    4.5183 Cl  0  0  0  0  0  0  0  0  0  0  0  0
   33.3458  -10.8121    2.9516 C   0  0  0  0  0  0  0  0  0  0  0  0
   33.2222  -15.3451    3.4406 Cl  0  0  0  0  0  0  0  0  0  0  0  0
   34.3073  -11.5978    2.3188 C   0  0  0  0  0  0  0  0  0  0  0  0
   27.7557  -16.4708    5.2905 C   0  0  0  0  0  0  0  0  0  0  0  0
   28.9582  -14.5237    4.5489 C   0  0  0  0  0  0  0  0  0  0  0  0
   27.7539  -13.8129    4.6505 C   0  0  0  0  0  0  0  0  0  0  0  0
   26.5844  -14.4492    5.0858 C   0  0  0  0  0  0  0  0  0  0  0  0
   28.9489  -15.8822    4.8654 C   0  0  0  0  0  0  0  0  0  0  0  0
   26.6065  -15.7523    5.3799 N   0  0  0  0  0  0  0  0  0  0  0  0
   27.7385  -17.6812    5.5891 O   0  0  0  0  0  0  0  0  0  0  0  0
 16 18  2  0  0  0
 16 15  1  0  0  0
 11  6  1  0  0  0
 18 13  1  0  0  0
 15 14  1  0  0  0
 13 19  2  0  0  0
 13 17  1  0  0  0
 14 17  2  0  0  0
 14  2  1  0  0  0
  6  7  2  0  0  0
  6  5  1  0  0  0
  2  1  1  0  0  0
  7 12  1  0  0  0
  1  3  2  0  0  0
  1  5  1  0  0  0
  5  8  2  0  0  0
 12 10  2  0  0  0
  8 10  1  0  0  0
  8  9  1  0  0  0
  2  4  1  0  0  0
M  END
> <minimizedAffinity>
-7.64166

$$$$
4GFM_0X2_A_1201


 19 20  0  0  0  0  0  0  0  0999 V2000
   31.5905  -13.8683    4.5718 C   0  0  0  0  0  0  0  0  0  0  0  0
   30.5478  -14.3585    3.8833 N   0  0  0  0  0  0  0  0  0  0  0  0
   31.7526  -14.1033    5.7695 O   0  0  0  0  0  0  0  0  0  0  0  0
   30.4762  -14.0623    2.9472 H   0  0  0  0  0  0  0  0  0  0  0  0
   32.5559  -12.9921    3.7827 C   0  0  0  0  0  0  0  0  0  0  0  0
   32.4126  -11.6135    3.7959 C   0  0  0  0  0  0  0  0  0  0  0  0
   33.2865  -10.7813    3.0885 C   0  0  0  0  0  0  0  0  0  0  0  0
   33.6069  -13.4983    3.0431 C   0  0  0  0  0  0  0  0  0  0  0  0
   33.7965  -15.2398    3.0067 Cl  0  0  0  0  0  0  0  0  0  0  0  0
   34.4959  -12.7072    2.3197 C   0  0  0  0  0  0  0  0  0  0  0  0
   31.0747  -10.8905    4.7275 Cl  0  0  0  0  0  0  0  0  0  0  0  0
   34.3342  -11.3232    2.3470 C   0  0  0  0  0  0  0  0  0  0  0  0
   27.4172  -15.8023    5.3123 C   0  0  0  0  0  0  0  0  0  0  0  0
   29.5391  -15.2438    4.3259 C   0  0  0  0  0  0  0  0  0  0  0  0
   29.8181  -16.6174    4.2896 C   0  0  0  0  0  0  0  0  0  0  0  0
   28.8794  -17.5485    4.7524 C   0  0  0  0  0  0  0  0  0  0  0  0
   28.3173  -14.8346    4.8602 C   0  0  0  0  0  0  0  0  0  0  0  0
   27.7184  -17.1258    5.2606 N   0  0  0  0  0  0  0  0  0  0  0  0
   26.3165  -15.4490    5.7793 O   0  0  0  0  0  0  0  0  0  0  0  0
 16 18  2  0  0  0
 16 15  1  0  0  0
 11  6  1  0  0  0
 18 13  1  0  0  0
 15 14  1  0  0  0
 13 19  2  0  0  0
 13 17  1  0  0  0
 14 17  2  0  0  0
 14  2  1  0  0  0
  6  7  2  0  0  0
  6  5  1  0  0  0
  2  1  1  0  0  0
  7 12  1  0  0  0
  1  3  2  0  0  0
  1  5  1  0  0  0
  5  8  2  0  0  0
 12 10  2  0  0  0
  8 10  1  0  0  0
  8  9  1  0  0  0
  2  4  1  0  0  0
M  END
> <minimizedAffinity>
-7.60411

$$$$
4GFM_0X2_A_1201


 19 20  0  0  0  0  0  0  0  0999 V2000
   31.5522  -13.7883    4.5817 C   0  0  0  0  0  0  0  0  0  0  0  0
   30.5472  -14.3310    3.8767 N   0  0  0  0  0  0  0  0  0  0  0  0
   31.6700  -13.9637    5.7947 O   0  0  0  0  0  0  0  0  0  0  0  0
   30.5081  -14.0804    2.9255 H   0  0  0  0  0  0  0  0  0  0  0  0
   32.5324  -12.9306    3.7906 C   0  0  0  0  0  0  0  0  0  0  0  0
   33.5613  -13.5278    3.0793 C   0  0  0  0  0  0  0  0  0  0  0  0
   34.4728  -12.7693    2.3372 C   0  0  0  0  0  0  0  0  0  0  0  0
   32.4507  -11.5535    3.7227 C   0  0  0  0  0  0  0  0  0  0  0  0
   31.1623  -10.7812    4.6247 Cl  0  0  0  0  0  0  0  0  0  0  0  0
   33.3397  -10.7601    3.0019 C   0  0  0  0  0  0  0  0  0  0  0  0
   33.7295  -15.3027    3.1246 Cl  0  0  0  0  0  0  0  0  0  0  0  0
   34.3667  -11.3808    2.2932 C   0  0  0  0  0  0  0  0  0  0  0  0
   27.4144  -15.7700    5.3057 C   0  0  0  0  0  0  0  0  0  0  0  0
   29.5378  -15.2148    4.3207 C   0  0  0  0  0  0  0  0  0  0  0  0
   29.8168  -16.5885    4.2894 C   0  0  0  0  0  0  0  0  0  0  0  0
   28.8775  -17.5181    4.7539 C   0  0  0  0  0  0  0  0  0  0  0  0
   28.3152  -14.8038    4.8518 C   0  0  0  0  0  0  0  0  0  0  0  0
   27.7156  -17.0937    5.2589 N   0  0  0  0  0  0  0  0  0  0  0  0
   26.3130  -15.4152    5.7698 O   0  0  0  0  0  0  0  0  0  0  0  0
 16 18  2  0  0  0
 16 15  1  0  0  0
 11  6  1  0  0  0
 18 13  1  0  0  0
 15 14  1  0  0  0
 13 19  2  0  0  0
 13 17  1  0  0  0
 14 17  2  0  0  0
 14  2  1  0  0  0
  6  7  2  0  0  0
  6  5  1  0  0  0
  2  1  1  0  0  0
  7 12  1  0  0  0
  1  3  2  0  0  0
  1  5  1  0  0  0
  5  8  2  0  0  0
 12 10  2  0  0  0
  8 10  1  0  0  0
  8  9  1  0  0  0
  2  4  1  0  0  0
M  END
> <minimizedAffinity>
-7.59304

$$$$
4GFM_0X2_A_1201


 19 20  0  0  0  0  0  0  0  0999 V2000
   31.2424  -14.1293    4.7741 C   0  0  0  0  0  0  0  0  0  0  0  0
   31.6628  -13.8362    3.5336 N   0  0  0  0  0  0  0  0  0  0  0  0
   31.8126  -13.6990    5.7770 O   0  0  0  0  0  0  0  0  0  0  0  0
   31.1759  -14.2789    2.8014 H   0  0  0  0  0  0  0  0  0  0  0  0
   30.0226  -15.0380    4.8659 C   0  0  0  0  0  0  0  0  0  0  0  0
   30.1791  -16.4152    4.8511 C   0  0  0  0  0  0  0  0  0  0  0  0
   29.0806  -17.2764    4.9413 C   0  0  0  0  0  0  0  0  0  0  0  0
   28.7307  -14.5630    4.9810 C   0  0  0  0  0  0  0  0  0  0  0  0
   28.5135  -12.8244    4.9906 Cl  0  0  0  0  0  0  0  0  0  0  0  0
   27.6091  -15.3839    5.0671 C   0  0  0  0  0  0  0  0  0  0  0  0
   31.8194  -17.0990    4.7010 Cl  0  0  0  0  0  0  0  0  0  0  0  0
   27.7889  -16.7658    5.0510 C   0  0  0  0  0  0  0  0  0  0  0  0
   33.7212  -10.8350    2.7073 C   0  0  0  0  0  0  0  0  0  0  0  0
   32.7126  -12.9757    3.1406 C   0  0  0  0  0  0  0  0  0  0  0  0
   33.8757  -13.5633    2.6231 C   0  0  0  0  0  0  0  0  0  0  0  0
   34.9385  -12.7680    2.1757 C   0  0  0  0  0  0  0  0  0  0  0  0
   32.6359  -11.5831    3.1692 C   0  0  0  0  0  0  0  0  0  0  0  0
   34.8346  -11.4366    2.2139 N   0  0  0  0  0  0  0  0  0  0  0  0
   33.6694   -9.5898    2.7406 O   0  0  0  0  0  0  0  0  0  0  0  0
 16 18  2  0  0  0
 16 15  1  0  0  0
 11  6  1  0  0  0
 18 13  1  0  0  0
 15 14  1  0  0  0
 13 19  2  0  0  0
 13 17  1  0  0  0
 14 17  2  0  0  0
 14  2  1  0  0  0
  6  7  2  0  0  0
  6  5  1  0  0  0
  2  1  1  0  0  0
  7 12  1  0  0  0
  1  3  2  0  0  0
  1  5  1  0  0  0
  5  8  2  0  0  0
 12 10  2  0  0  0
  8 10  1  0  0  0
  8  9  1  0  0  0
  2  4  1  0  0  0
M  END
> <minimizedAffinity>
-7.04824

$$$$
4GFM_0X2_A_1201


 19 20  0  0  0  0  0  0  0  0999 V2000
   31.2561  -14.1788    4.7954 C   0  0  0  0  0  0  0  0  0  0  0  0
   31.6665  -13.8682    3.5558 N   0  0  0  0  0  0  0  0  0  0  0  0
   31.8181  -13.7413    5.7997 O   0  0  0  0  0  0  0  0  0  0  0  0
   31.1887  -14.3178    2.8219 H   0  0  0  0  0  0  0  0  0  0  0  0
   30.0586  -15.1171    4.8840 C   0  0  0  0  0  0  0  0  0  0  0  0
   28.7805  -14.6009    5.0297 C   0  0  0  0  0  0  0  0  0  0  0  0
   27.6601  -15.4349    5.1064 C   0  0  0  0  0  0  0  0  0  0  0  0
   30.1664  -16.4922    4.8118 C   0  0  0  0  0  0  0  0  0  0  0  0
   31.7761  -17.1624    4.6384 Cl  0  0  0  0  0  0  0  0  0  0  0  0
   29.0792  -17.3589    4.8901 C   0  0  0  0  0  0  0  0  0  0  0  0
   28.5666  -12.8334    5.1335 Cl  0  0  0  0  0  0  0  0  0  0  0  0
   27.8027  -16.8190    5.0359 C   0  0  0  0  0  0  0  0  0  0  0  0
   33.6446  -10.8144    2.7258 C   0  0  0  0  0  0  0  0  0  0  0  0
   32.6945  -12.9803    3.1660 C   0  0  0  0  0  0  0  0  0  0  0  0
   33.8790  -13.5375    2.6635 C   0  0  0  0  0  0  0  0  0  0  0  0
   34.9223  -12.7149    2.2198 C   0  0  0  0  0  0  0  0  0  0  0  0
   32.5772  -11.5904    3.1834 C   0  0  0  0  0  0  0  0  0  0  0  0
   34.7795  -11.3868    2.2471 N   0  0  0  0  0  0  0  0  0  0  0  0
   33.5563   -9.5710    2.7493 O   0  0  0  0  0  0  0  0  0  0  0  0
 16 18  2  0  0  0
 16 15  1  0  0  0
 11  6  1  0  0  0
 18 13  1  0  0  0
 15 14  1  0  0  0
 13 19  2  0  0  0
 13 17  1  0  0  0
 14 17  2  0  0  0
 14  2  1  0  0  0
  6  7  2  0  0  0
  6  5  1  0  0  0
  2  1  1  0  0  0
  7 12  1  0  0  0
  1  3  2  0  0  0
  1  5  1  0  0  0
  5  8  2  0  0  0
 12 10  2  0  0  0
  8 10  1  0  0  0
  8  9  1  0  0  0
  2  4  1  0  0  0
M  END
> <minimizedAffinity>
-7.02269

$$$$
4GFM_0X2_A_1201


 19 20  0  0  0  0  0  0  0  0999 V2000
   30.8928  -13.2337    3.7983 C   0  0  0  0  0  0  0  0  0  0  0  0
   30.6746  -13.2694    5.1222 N   0  0  0  0  0  0  0  0  0  0  0  0
   30.0344  -13.5749    2.9841 O   0  0  0  0  0  0  0  0  0  0  0  0
   31.4446  -13.0347    5.6890 H   0  0  0  0  0  0  0  0  0  0  0  0
   32.2734  -12.7564    3.3643 C   0  0  0  0  0  0  0  0  0  0  0  0
   33.2355  -13.6748    2.9744 C   0  0  0  0  0  0  0  0  0  0  0  0
   34.5094  -13.2685    2.5634 C   0  0  0  0  0  0  0  0  0  0  0  0
   32.6349  -11.4241    3.3190 C   0  0  0  0  0  0  0  0  0  0  0  0
   31.4342  -10.2499    3.8188 Cl  0  0  0  0  0  0  0  0  0  0  0  0
   33.8927  -10.9765    2.9227 C   0  0  0  0  0  0  0  0  0  0  0  0
   32.8390  -15.4132    3.0112 Cl  0  0  0  0  0  0  0  0  0  0  0  0
   34.8452  -11.9167    2.5340 C   0  0  0  0  0  0  0  0  0  0  0  0
   27.3034  -13.1490    6.7182 C   0  0  0  0  0  0  0  0  0  0  0  0
   29.4846  -13.5997    5.8092 C   0  0  0  0  0  0  0  0  0  0  0  0
   29.4160  -14.8588    6.4222 C   0  0  0  0  0  0  0  0  0  0  0  0
   28.2828  -15.2348    7.1549 C   0  0  0  0  0  0  0  0  0  0  0  0
   28.4083  -12.7279    5.9747 C   0  0  0  0  0  0  0  0  0  0  0  0
   27.2684  -14.3771    7.2973 N   0  0  0  0  0  0  0  0  0  0  0  0
   26.3297  -12.3834    6.8614 O   0  0  0  0  0  0  0  0  0  0  0  0
 16 18  2  0  0  0
 16 15  1  0  0  0
 11  6  1  0  0  0
 18 13  1  0  0  0
 15 14  1  0  0  0
 13 19  2  0  0  0
 13 17  1  0  0  0
 14 17  2  0  0  0
 14  2  1  0  0  0
  6  7  2  0  0  0
  6  5  1  0  0  0
  2  1  1  0  0  0
  7 12  1  0  0  0
  1  3  2  0  0  0
  1  5  1  0  0  0
  5  8  2  0  0  0
 12 10  2  0  0  0
  8 10  1  0  0  0
  8  9  1  0  0  0
  2  4  1  0  0  0
M  END
> <minimizedAffinity>
-6.99359

$$$$
4GFM_0X2_A_1201


 19 20  0  0  0  0  0  0  0  0999 V2000
   30.8464  -13.2549    3.7886 C   0  0  0  0  0  0  0  0  0  0  0  0
   30.6486  -13.3066    5.1151 N   0  0  0  0  0  0  0  0  0  0  0  0
   29.9665  -13.5602    2.9833 O   0  0  0  0  0  0  0  0  0  0  0  0
   31.4335  -13.1014    5.6729 H   0  0  0  0  0  0  0  0  0  0  0  0
   32.2320  -12.8067    3.3396 C   0  0  0  0  0  0  0  0  0  0  0  0
   32.5628  -11.4606    3.3453 C   0  0  0  0  0  0  0  0  0  0  0  0
   33.8283  -11.0176    2.9465 C   0  0  0  0  0  0  0  0  0  0  0  0
   33.2159  -13.6843    2.9279 C   0  0  0  0  0  0  0  0  0  0  0  0
   32.8112  -15.3890    2.9044 Cl  0  0  0  0  0  0  0  0  0  0  0  0
   34.4856  -13.2862    2.5172 C   0  0  0  0  0  0  0  0  0  0  0  0
   31.3396  -10.2701    3.8619 Cl  0  0  0  0  0  0  0  0  0  0  0  0
   34.7977  -11.9280    2.5311 C   0  0  0  0  0  0  0  0  0  0  0  0
   27.2851  -13.1394    6.7233 C   0  0  0  0  0  0  0  0  0  0  0  0
   29.4615  -13.6169    5.8163 C   0  0  0  0  0  0  0  0  0  0  0  0
   29.3942  -14.8593    6.4627 C   0  0  0  0  0  0  0  0  0  0  0  0
   28.2641  -15.2143    7.2104 C   0  0  0  0  0  0  0  0  0  0  0  0
   28.3870  -12.7397    5.9637 C   0  0  0  0  0  0  0  0  0  0  0  0
   27.2514  -14.3518    7.3349 N   0  0  0  0  0  0  0  0  0  0  0  0
   26.3132  -12.3690    6.8508 O   0  0  0  0  0  0  0  0  0  0  0  0
 16 18  2  0  0  0
 16 15  1  0  0  0
 11  6  1  0  0  0
 18 13  1  0  0  0
 15 14  1  0  0  0
 13 19  2  0  0  0
 13 17  1  0  0  0
 14 17  2  0  0  0
 14  2  1  0  0  0
  6  7  2  0  0  0
  6  5  1  0  0  0
  2  1  1  0  0  0
  7 12  1  0  0  0
  1  3  2  0  0  0
  1  5  1  0  0  0
  5  8  2  0  0  0
 12 10  2  0  0  0
  8 10  1  0  0  0
  8  9  1  0  0  0
  2  4  1  0  0  0
M  END
> <minimizedAffinity>
-6.98036

$$$$
