4QER_STL_A_202


 20 21  0  0  0  0  0  0  0  0999 V2000
   -6.1609   24.3267    4.1703 C   0  0  0  0  0  0  0  0  0  0  0  0
   -7.4541   24.5605    4.6163 C   0  0  0  0  0  0  0  0  0  0  0  0
   -8.1953   23.5132    5.2111 C   0  0  0  0  0  0  0  0  0  0  0  0
   -7.6353   22.1972    5.3515 C   0  0  0  0  0  0  0  0  0  0  0  0
   -6.3100   21.9763    4.9133 C   0  0  0  0  0  0  0  0  0  0  0  0
   -5.5584   23.0368    4.3320 C   0  0  0  0  0  0  0  0  0  0  0  0
   -9.4848   23.8002    5.6074 O   0  0  0  0  0  0  0  0  0  0  0  0
   -5.5354   25.3959    3.6173 O   0  0  0  0  0  0  0  0  0  0  0  0
   -9.8246   24.6672    5.5042 H   0  0  0  0  0  0  0  0  0  0  0  0
   -5.9858   26.2139    3.5402 H   0  0  0  0  0  0  0  0  0  0  0  0
   -5.6638   20.6686    5.0920 C   0  0  0  0  0  0  0  0  0  0  0  0
   -5.5866   19.8613    6.1325 C   0  0  0  0  0  0  0  0  0  0  0  0
   -4.8951   18.5568    5.9053 C   0  0  0  0  0  0  0  0  0  0  0  0
   -4.0808   18.4167    4.7597 C   0  0  0  0  0  0  0  0  0  0  0  0
   -3.4024   17.1617    4.5782 C   0  0  0  0  0  0  0  0  0  0  0  0
   -3.6084   16.0698    5.4670 C   0  0  0  0  0  0  0  0  0  0  0  0
   -4.4495   16.2025    6.5897 C   0  0  0  0  0  0  0  0  0  0  0  0
   -5.0513   17.4748    6.8007 C   0  0  0  0  0  0  0  0  0  0  0  0
   -2.9125   14.9123    5.2325 O   0  0  0  0  0  0  0  0  0  0  0  0
   -2.3580   14.8431    4.4803 H   0  0  0  0  0  0  0  0  0  0  0  0
  1  2  2  0  0  0
  1  6  1  0  0  0
  1  8  1  0  0  0
  2  3  1  0  0  0
  3  4  2  0  0  0
  3  7  1  0  0  0
  4  5  1  0  0  0
  5  6  2  0  0  0
  5 11  1  0  0  0
 11 12  2  0  0  0
 12 13  1  0  0  0
 13 14  2  0  0  0
 13 18  1  0  0  0
 14 15  1  0  0  0
 15 16  2  0  0  0
 16 17  1  0  0  0
 16 19  1  0  0  0
 17 18  2  0  0  0
 19 20  1  0  0  0
  7  9  1  0  0  0
  8 10  1  0  0  0
M  END
> <minimizedAffinity>
-7.45075

$$$$
4QER_STL_A_202


 20 21  0  0  0  0  0  0  0  0999 V2000
   -8.1083   23.4609    5.1834 C   0  0  0  0  0  0  0  0  0  0  0  0
   -7.4163   24.4945    4.5681 C   0  0  0  0  0  0  0  0  0  0  0  0
   -6.0819   24.2958    4.1442 C   0  0  0  0  0  0  0  0  0  0  0  0
   -5.4188   23.0379    4.3520 C   0  0  0  0  0  0  0  0  0  0  0  0
   -6.1404   21.9858    4.9602 C   0  0  0  0  0  0  0  0  0  0  0  0
   -7.4900   22.1818    5.3693 C   0  0  0  0  0  0  0  0  0  0  0  0
   -5.4380   25.3696    3.5659 O   0  0  0  0  0  0  0  0  0  0  0  0
   -9.3814   23.7524    5.5503 O   0  0  0  0  0  0  0  0  0  0  0  0
   -5.8945   26.1785    3.4422 H   0  0  0  0  0  0  0  0  0  0  0  0
   -9.7273   24.6102    5.4008 H   0  0  0  0  0  0  0  0  0  0  0  0
   -5.5345   20.6588    5.1379 C   0  0  0  0  0  0  0  0  0  0  0  0
   -5.6929   19.7379    6.0691 C   0  0  0  0  0  0  0  0  0  0  0  0
   -4.9470   18.4596    5.8661 C   0  0  0  0  0  0  0  0  0  0  0  0
   -4.1025   18.3441    4.7398 C   0  0  0  0  0  0  0  0  0  0  0  0
   -3.3726   17.1151    4.5819 C   0  0  0  0  0  0  0  0  0  0  0  0
   -3.5566   16.0213    5.4733 C   0  0  0  0  0  0  0  0  0  0  0  0
   -4.4272   16.1282    6.5761 C   0  0  0  0  0  0  0  0  0  0  0  0
   -5.0818   17.3777    6.7651 C   0  0  0  0  0  0  0  0  0  0  0  0
   -2.8118   14.8900    5.2622 O   0  0  0  0  0  0  0  0  0  0  0  0
   -2.2384   14.8377    4.5230 H   0  0  0  0  0  0  0  0  0  0  0  0
  1  2  2  0  0  0
  1  6  1  0  0  0
  1  8  1  0  0  0
  2  3  1  0  0  0
  3  4  2  0  0  0
  3  7  1  0  0  0
  4  5  1  0  0  0
  5  6  2  0  0  0
  5 11  1  0  0  0
 11 12  2  0  0  0
 12 13  1  0  0  0
 13 14  2  0  0  0
 13 18  1  0  0  0
 14 15  1  0  0  0
 15 16  2  0  0  0
 16 17  1  0  0  0
 16 19  1  0  0  0
 17 18  2  0  0  0
 19 20  1  0  0  0
  7  9  1  0  0  0
  8 10  1  0  0  0
M  END
> <minimizedAffinity>
-7.41036

$$$$
4QER_STL_A_202


 20 21  0  0  0  0  0  0  0  0999 V2000
   -4.3617   19.2520    8.1007 C   0  0  0  0  0  0  0  0  0  0  0  0
   -4.3076   18.1063    7.3195 C   0  0  0  0  0  0  0  0  0  0  0  0
   -4.7755   18.1396    5.9853 C   0  0  0  0  0  0  0  0  0  0  0  0
   -5.3227   19.3434    5.4227 C   0  0  0  0  0  0  0  0  0  0  0  0
   -5.3530   20.5095    6.2206 C   0  0  0  0  0  0  0  0  0  0  0  0
   -4.8639   20.4791    7.5575 C   0  0  0  0  0  0  0  0  0  0  0  0
   -4.7224   16.9619    5.2695 O   0  0  0  0  0  0  0  0  0  0  0  0
   -3.8869   19.1159    9.3642 O   0  0  0  0  0  0  0  0  0  0  0  0
   -4.3602   16.1915    5.6612 H   0  0  0  0  0  0  0  0  0  0  0  0
   -3.5719   18.2843    9.6593 H   0  0  0  0  0  0  0  0  0  0  0  0
   -5.8404   21.7844    5.6761 C   0  0  0  0  0  0  0  0  0  0  0  0
   -5.3547   22.5870    4.7486 C   0  0  0  0  0  0  0  0  0  0  0  0
   -6.1876   23.7788    4.4056 C   0  0  0  0  0  0  0  0  0  0  0  0
   -5.9881   24.4022    3.1540 C   0  0  0  0  0  0  0  0  0  0  0  0
   -6.8220   25.5295    2.8346 C   0  0  0  0  0  0  0  0  0  0  0  0
   -7.7524   26.0558    3.7738 C   0  0  0  0  0  0  0  0  0  0  0  0
   -7.9234   25.4521    5.0354 C   0  0  0  0  0  0  0  0  0  0  0  0
   -7.1488   24.2895    5.3069 C   0  0  0  0  0  0  0  0  0  0  0  0
   -8.5202   27.1232    3.3862 O   0  0  0  0  0  0  0  0  0  0  0  0
   -8.3916   27.5113    2.5430 H   0  0  0  0  0  0  0  0  0  0  0  0
  1  2  2  0  0  0
  1  6  1  0  0  0
  1  8  1  0  0  0
  2  3  1  0  0  0
  3  4  2  0  0  0
  3  7  1  0  0  0
  4  5  1  0  0  0
  5  6  2  0  0  0
  5 11  1  0  0  0
 11 12  2  0  0  0
 12 13  1  0  0  0
 13 14  2  0  0  0
 13 18  1  0  0  0
 14 15  1  0  0  0
 15 16  2  0  0  0
 16 17  1  0  0  0
 16 19  1  0  0  0
 17 18  2  0  0  0
 19 20  1  0  0  0
  7  9  1  0  0  0
  8 10  1  0  0  0
M  END
> <minimizedAffinity>
-7.34743

$$$$
4QER_STL_A_202


 20 21  0  0  0  0  0  0  0  0999 V2000
   -4.7081   18.0851    5.6961 C   0  0  0  0  0  0  0  0  0  0  0  0
   -4.3304   17.9529    7.0249 C   0  0  0  0  0  0  0  0  0  0  0  0
   -4.3835   19.0720    7.8879 C   0  0  0  0  0  0  0  0  0  0  0  0
   -4.8119   20.3570    7.4081 C   0  0  0  0  0  0  0  0  0  0  0  0
   -5.2145   20.4748    6.0585 C   0  0  0  0  0  0  0  0  0  0  0  0
   -5.1784   19.3427    5.1958 C   0  0  0  0  0  0  0  0  0  0  0  0
   -3.9677   18.8841    9.1894 O   0  0  0  0  0  0  0  0  0  0  0  0
   -4.6227   16.9533    4.9531 O   0  0  0  0  0  0  0  0  0  0  0  0
   -3.6935   18.0351    9.4757 H   0  0  0  0  0  0  0  0  0  0  0  0
   -4.3059   16.1612    5.3406 H   0  0  0  0  0  0  0  0  0  0  0  0
   -5.7238   21.7483    5.5310 C   0  0  0  0  0  0  0  0  0  0  0  0
   -5.3146   22.5150    4.5385 C   0  0  0  0  0  0  0  0  0  0  0  0
   -6.1492   23.7194    4.2480 C   0  0  0  0  0  0  0  0  0  0  0  0
   -5.9070   24.4347    3.0544 C   0  0  0  0  0  0  0  0  0  0  0  0
   -6.7427   25.5731    2.7828 C   0  0  0  0  0  0  0  0  0  0  0  0
   -7.7184   26.0191    3.7175 C   0  0  0  0  0  0  0  0  0  0  0  0
   -7.9328   25.3231    4.9237 C   0  0  0  0  0  0  0  0  0  0  0  0
   -7.1538   24.1523    5.1426 C   0  0  0  0  0  0  0  0  0  0  0  0
   -8.4845   27.1035    3.3763 O   0  0  0  0  0  0  0  0  0  0  0  0
   -8.3266   27.5535    2.5697 H   0  0  0  0  0  0  0  0  0  0  0  0
  1  2  2  0  0  0
  1  6  1  0  0  0
  1  8  1  0  0  0
  2  3  1  0  0  0
  3  4  2  0  0  0
  3  7  1  0  0  0
  4  5  1  0  0  0
  5  6  2  0  0  0
  5 11  1  0  0  0
 11 12  2  0  0  0
 12 13  1  0  0  0
 13 14  2  0  0  0
 13 18  1  0  0  0
 14 15  1  0  0  0
 15 16  2  0  0  0
 16 17  1  0  0  0
 16 19  1  0  0  0
 17 18  2  0  0  0
 19 20  1  0  0  0
  7  9  1  0  0  0
  8 10  1  0  0  0
M  END
> <minimizedAffinity>
-7.31827

$$$$
4QER_STL_A_202


 20 21  0  0  0  0  0  0  0  0999 V2000
   -3.3966   16.6450    4.7984 C   0  0  0  0  0  0  0  0  0  0  0  0
   -3.9682   16.0256    5.9009 C   0  0  0  0  0  0  0  0  0  0  0  0
   -4.8553   16.7462    6.7338 C   0  0  0  0  0  0  0  0  0  0  0  0
   -5.1684   18.1229    6.4658 C   0  0  0  0  0  0  0  0  0  0  0  0
   -4.5973   18.7369    5.3281 C   0  0  0  0  0  0  0  0  0  0  0  0
   -3.7192   18.0042    4.4800 C   0  0  0  0  0  0  0  0  0  0  0  0
   -5.3678   16.0847    7.8301 O   0  0  0  0  0  0  0  0  0  0  0  0
   -2.5623   15.8676    4.0637 O   0  0  0  0  0  0  0  0  0  0  0  0
   -5.1470   15.1867    7.9808 H   0  0  0  0  0  0  0  0  0  0  0  0
   -2.3921   14.9844    4.3263 H   0  0  0  0  0  0  0  0  0  0  0  0
   -4.9336   20.1216    4.9687 C   0  0  0  0  0  0  0  0  0  0  0  0
   -4.8938   20.7653    3.8180 C   0  0  0  0  0  0  0  0  0  0  0  0
   -5.3945   22.1727    3.8318 C   0  0  0  0  0  0  0  0  0  0  0  0
   -4.9726   23.0477    2.8064 C   0  0  0  0  0  0  0  0  0  0  0  0
   -5.4912   24.3889    2.8246 C   0  0  0  0  0  0  0  0  0  0  0  0
   -6.3271   24.8486    3.8804 C   0  0  0  0  0  0  0  0  0  0  0  0
   -6.7173   23.9821    4.9207 C   0  0  0  0  0  0  0  0  0  0  0  0
   -6.2614   22.6359    4.8471 C   0  0  0  0  0  0  0  0  0  0  0  0
   -6.7916   26.1367    3.8158 O   0  0  0  0  0  0  0  0  0  0  0  0
   -6.5206   26.6980    3.1161 H   0  0  0  0  0  0  0  0  0  0  0  0
  1  2  2  0  0  0
  1  6  1  0  0  0
  1  8  1  0  0  0
  2  3  1  0  0  0
  3  4  2  0  0  0
  3  7  1  0  0  0
  4  5  1  0  0  0
  5  6  2  0  0  0
  5 11  1  0  0  0
 11 12  2  0  0  0
 12 13  1  0  0  0
 13 14  2  0  0  0
 13 18  1  0  0  0
 14 15  1  0  0  0
 15 16  2  0  0  0
 16 17  1  0  0  0
 16 19  1  0  0  0
 17 18  2  0  0  0
 19 20  1  0  0  0
  7  9  1  0  0  0
  8 10  1  0  0  0
M  END
> <minimizedAffinity>
-7.28033

$$$$
4QER_STL_A_202


 20 21  0  0  0  0  0  0  0  0999 V2000
   -4.7942   16.6273    6.8259 C   0  0  0  0  0  0  0  0  0  0  0  0
   -3.9517   15.8885    6.0073 C   0  0  0  0  0  0  0  0  0  0  0  0
   -3.4349   16.4644    4.8236 C   0  0  0  0  0  0  0  0  0  0  0  0
   -3.7791   17.8065    4.4420 C   0  0  0  0  0  0  0  0  0  0  0  0
   -4.6206   18.5567    5.2943 C   0  0  0  0  0  0  0  0  0  0  0  0
   -5.1247   17.9818    6.4954 C   0  0  0  0  0  0  0  0  0  0  0  0
   -2.6269   15.6701    4.0372 O   0  0  0  0  0  0  0  0  0  0  0  0
   -5.2336   15.9852    7.9372 O   0  0  0  0  0  0  0  0  0  0  0  0
   -2.4185   14.7984    4.3103 H   0  0  0  0  0  0  0  0  0  0  0  0
   -4.9807   15.0971    8.0960 H   0  0  0  0  0  0  0  0  0  0  0  0
   -4.9521   19.9552    4.9877 C   0  0  0  0  0  0  0  0  0  0  0  0
   -4.8549   20.6580    3.8756 C   0  0  0  0  0  0  0  0  0  0  0  0
   -5.3719   22.0584    3.9330 C   0  0  0  0  0  0  0  0  0  0  0  0
   -4.9866   22.9607    2.9169 C   0  0  0  0  0  0  0  0  0  0  0  0
   -5.5205   24.2946    2.9777 C   0  0  0  0  0  0  0  0  0  0  0  0
   -6.3348   24.7208    4.0640 C   0  0  0  0  0  0  0  0  0  0  0  0
   -6.6882   23.8270    5.0944 C   0  0  0  0  0  0  0  0  0  0  0  0
   -6.2183   22.4885    4.9796 C   0  0  0  0  0  0  0  0  0  0  0  0
   -6.8162   26.0041    4.0395 O   0  0  0  0  0  0  0  0  0  0  0  0
   -6.5697   26.5837    3.3458 H   0  0  0  0  0  0  0  0  0  0  0  0
  1  2  2  0  0  0
  1  6  1  0  0  0
  1  8  1  0  0  0
  2  3  1  0  0  0
  3  4  2  0  0  0
  3  7  1  0  0  0
  4  5  1  0  0  0
  5  6  2  0  0  0
  5 11  1  0  0  0
 11 12  2  0  0  0
 12 13  1  0  0  0
 13 14  2  0  0  0
 13 18  1  0  0  0
 14 15  1  0  0  0
 15 16  2  0  0  0
 16 17  1  0  0  0
 16 19  1  0  0  0
 17 18  2  0  0  0
 19 20  1  0  0  0
  7  9  1  0  0  0
  8 10  1  0  0  0
M  END
> <minimizedAffinity>
-7.11665

$$$$
4QER_STL_A_202


 20 21  0  0  0  0  0  0  0  0999 V2000
   -4.0588   21.4228    4.2253 C   0  0  0  0  0  0  0  0  0  0  0  0
   -4.0837   20.0408    4.3482 C   0  0  0  0  0  0  0  0  0  0  0  0
   -5.1777   19.4087    4.9835 C   0  0  0  0  0  0  0  0  0  0  0  0
   -6.2667   20.1774    5.5205 C   0  0  0  0  0  0  0  0  0  0  0  0
   -6.2409   21.5824    5.3705 C   0  0  0  0  0  0  0  0  0  0  0  0
   -5.1477   22.2157    4.7137 C   0  0  0  0  0  0  0  0  0  0  0  0
   -5.1305   18.0353    5.1008 O   0  0  0  0  0  0  0  0  0  0  0  0
   -2.9676   21.9303    3.5991 O   0  0  0  0  0  0  0  0  0  0  0  0
   -4.4082   17.5590    4.7412 H   0  0  0  0  0  0  0  0  0  0  0  0
   -2.2885   21.3568    3.3028 H   0  0  0  0  0  0  0  0  0  0  0  0
   -7.3583   22.4126    5.8413 C   0  0  0  0  0  0  0  0  0  0  0  0
   -8.2599   23.1233    5.1916 C   0  0  0  0  0  0  0  0  0  0  0  0
   -9.3055   23.7858    6.0280 C   0  0  0  0  0  0  0  0  0  0  0  0
   -9.8645   23.0628    7.1048 C   0  0  0  0  0  0  0  0  0  0  0  0
  -10.8478   23.7320    7.9131 C   0  0  0  0  0  0  0  0  0  0  0  0
  -11.3083   25.0397    7.5930 C   0  0  0  0  0  0  0  0  0  0  0  0
  -10.7732   25.7444    6.4963 C   0  0  0  0  0  0  0  0  0  0  0  0
   -9.7440   25.1008    5.7534 C   0  0  0  0  0  0  0  0  0  0  0  0
  -12.2365   25.6136    8.4226 O   0  0  0  0  0  0  0  0  0  0  0  0
  -12.5807   25.1288    9.1469 H   0  0  0  0  0  0  0  0  0  0  0  0
  1  2  2  0  0  0
  1  6  1  0  0  0
  1  8  1  0  0  0
  2  3  1  0  0  0
  3  4  2  0  0  0
  3  7  1  0  0  0
  4  5  1  0  0  0
  5  6  2  0  0  0
  5 11  1  0  0  0
 11 12  2  0  0  0
 12 13  1  0  0  0
 13 14  2  0  0  0
 13 18  1  0  0  0
 14 15  1  0  0  0
 15 16  2  0  0  0
 16 17  1  0  0  0
 16 19  1  0  0  0
 17 18  2  0  0  0
 19 20  1  0  0  0
  7  9  1  0  0  0
  8 10  1  0  0  0
M  END
> <minimizedAffinity>
-7.05823

$$$$
4QER_STL_A_202


 20 21  0  0  0  0  0  0  0  0999 V2000
   -5.2330   19.4579    4.9702 C   0  0  0  0  0  0  0  0  0  0  0  0
   -4.1413   20.0531    4.3540 C   0  0  0  0  0  0  0  0  0  0  0  0
   -4.1100   21.4557    4.1757 C   0  0  0  0  0  0  0  0  0  0  0  0
   -5.2019   22.2818    4.6121 C   0  0  0  0  0  0  0  0  0  0  0  0
   -6.2986   21.6671    5.2576 C   0  0  0  0  0  0  0  0  0  0  0  0
   -6.3199   20.2569    5.4532 C   0  0  0  0  0  0  0  0  0  0  0  0
   -3.0116   21.9844    3.5305 O   0  0  0  0  0  0  0  0  0  0  0  0
   -5.1650   18.1088    5.0947 O   0  0  0  0  0  0  0  0  0  0  0  0
   -2.3137   21.4224    3.2568 H   0  0  0  0  0  0  0  0  0  0  0  0
   -4.4251   17.6438    4.7565 H   0  0  0  0  0  0  0  0  0  0  0  0
   -7.4120   22.4695    5.7830 C   0  0  0  0  0  0  0  0  0  0  0  0
   -8.2093   23.3492    5.2080 C   0  0  0  0  0  0  0  0  0  0  0  0
   -9.2950   23.9142    6.0646 C   0  0  0  0  0  0  0  0  0  0  0  0
   -9.8395   23.1026    7.0843 C   0  0  0  0  0  0  0  0  0  0  0  0
  -10.8628   23.6787    7.9145 C   0  0  0  0  0  0  0  0  0  0  0  0
  -11.3733   24.9837    7.6676 C   0  0  0  0  0  0  0  0  0  0  0  0
  -10.8516   25.7772    6.6266 C   0  0  0  0  0  0  0  0  0  0  0  0
   -9.7845   25.2246    5.8640 C   0  0  0  0  0  0  0  0  0  0  0  0
  -12.3379   25.4655    8.5141 O   0  0  0  0  0  0  0  0  0  0  0  0
  -12.6724   24.9226    9.2006 H   0  0  0  0  0  0  0  0  0  0  0  0
  1  2  2  0  0  0
  1  6  1  0  0  0
  1  8  1  0  0  0
  2  3  1  0  0  0
  3  4  2  0  0  0
  3  7  1  0  0  0
  4  5  1  0  0  0
  5  6  2  0  0  0
  5 11  1  0  0  0
 11 12  2  0  0  0
 12 13  1  0  0  0
 13 14  2  0  0  0
 13 18  1  0  0  0
 14 15  1  0  0  0
 15 16  2  0  0  0
 16 17  1  0  0  0
 16 19  1  0  0  0
 17 18  2  0  0  0
 19 20  1  0  0  0
  7  9  1  0  0  0
  8 10  1  0  0  0
M  END
> <minimizedAffinity>
-7.04475

$$$$
4QER_STL_A_202


 20 21  0  0  0  0  0  0  0  0999 V2000
   -8.1268   25.6784    5.8670 C   0  0  0  0  0  0  0  0  0  0  0  0
   -9.3378   25.6347    6.5434 C   0  0  0  0  0  0  0  0  0  0  0  0
   -9.8279   24.4019    7.0332 C   0  0  0  0  0  0  0  0  0  0  0  0
   -9.0966   23.1815    6.8306 C   0  0  0  0  0  0  0  0  0  0  0  0
   -7.8544   23.2414    6.1592 C   0  0  0  0  0  0  0  0  0  0  0  0
   -7.3534   24.4864    5.6834 C   0  0  0  0  0  0  0  0  0  0  0  0
  -11.0506   24.4188    7.6712 O   0  0  0  0  0  0  0  0  0  0  0  0
   -7.7448   26.9080    5.4397 O   0  0  0  0  0  0  0  0  0  0  0  0
  -11.5059   25.2290    7.7899 H   0  0  0  0  0  0  0  0  0  0  0  0
   -8.2974   27.6493    5.5914 H   0  0  0  0  0  0  0  0  0  0  0  0
   -7.0331   22.0358    5.9820 C   0  0  0  0  0  0  0  0  0  0  0  0
   -5.7370   21.8748    5.7968 C   0  0  0  0  0  0  0  0  0  0  0  0
   -5.2501   20.4639    5.7332 C   0  0  0  0  0  0  0  0  0  0  0  0
   -5.0091   19.8911    4.4648 C   0  0  0  0  0  0  0  0  0  0  0  0
   -4.5130   18.5417    4.4304 C   0  0  0  0  0  0  0  0  0  0  0  0
   -4.3527   17.7779    5.6201 C   0  0  0  0  0  0  0  0  0  0  0  0
   -4.6279   18.3418    6.8817 C   0  0  0  0  0  0  0  0  0  0  0  0
   -5.0417   19.7033    6.9058 C   0  0  0  0  0  0  0  0  0  0  0  0
   -3.8603   16.5039    5.5026 O   0  0  0  0  0  0  0  0  0  0  0  0
   -3.6835   16.1464    4.6547 H   0  0  0  0  0  0  0  0  0  0  0  0
  1  2  2  0  0  0
  1  6  1  0  0  0
  1  8  1  0  0  0
  2  3  1  0  0  0
  3  4  2  0  0  0
  3  7  1  0  0  0
  4  5  1  0  0  0
  5  6  2  0  0  0
  5 11  1  0  0  0
 11 12  2  0  0  0
 12 13  1  0  0  0
 13 14  2  0  0  0
 13 18  1  0  0  0
 14 15  1  0  0  0
 15 16  2  0  0  0
 16 17  1  0  0  0
 16 19  1  0  0  0
 17 18  2  0  0  0
 19 20  1  0  0  0
  7  9  1  0  0  0
  8 10  1  0  0  0
M  END
> <minimizedAffinity>
-7.00597

$$$$
4QER_STL_A_202


 20 21  0  0  0  0  0  0  0  0999 V2000
   -8.1387   25.6657    5.8333 C   0  0  0  0  0  0  0  0  0  0  0  0
   -8.2168   26.2462    4.5752 C   0  0  0  0  0  0  0  0  0  0  0  0
   -7.6379   25.5955    3.4610 C   0  0  0  0  0  0  0  0  0  0  0  0
   -6.9531   24.3410    3.6100 C   0  0  0  0  0  0  0  0  0  0  0  0
   -6.8984   23.7488    4.8921 C   0  0  0  0  0  0  0  0  0  0  0  0
   -7.4983   24.3961    6.0095 C   0  0  0  0  0  0  0  0  0  0  0  0
   -7.7231   26.2365    2.2428 O   0  0  0  0  0  0  0  0  0  0  0  0
   -8.7265   26.3680    6.8341 O   0  0  0  0  0  0  0  0  0  0  0  0
   -8.1760   27.0540    2.1742 H   0  0  0  0  0  0  0  0  0  0  0  0
   -9.1292   27.1944    6.6528 H   0  0  0  0  0  0  0  0  0  0  0  0
   -6.2689   22.4360    5.0911 C   0  0  0  0  0  0  0  0  0  0  0  0
   -6.2945   21.5939    6.1062 C   0  0  0  0  0  0  0  0  0  0  0  0
   -5.5786   20.2979    5.9063 C   0  0  0  0  0  0  0  0  0  0  0  0
   -5.3389   19.8577    4.5859 C   0  0  0  0  0  0  0  0  0  0  0  0
   -4.6224   18.6220    4.4190 C   0  0  0  0  0  0  0  0  0  0  0  0
   -4.2444   17.8251    5.5356 C   0  0  0  0  0  0  0  0  0  0  0  0
   -4.5168   18.2510    6.8508 C   0  0  0  0  0  0  0  0  0  0  0  0
   -5.1553   19.5138    7.0031 C   0  0  0  0  0  0  0  0  0  0  0  0
   -3.5508   16.6681    5.2920 O   0  0  0  0  0  0  0  0  0  0  0  0
   -3.3794   16.4014    4.4103 H   0  0  0  0  0  0  0  0  0  0  0  0
  1  2  2  0  0  0
  1  6  1  0  0  0
  1  8  1  0  0  0
  2  3  1  0  0  0
  3  4  2  0  0  0
  3  7  1  0  0  0
  4  5  1  0  0  0
  5  6  2  0  0  0
  5 11  1  0  0  0
 11 12  2  0  0  0
 12 13  1  0  0  0
 13 14  2  0  0  0
 13 18  1  0  0  0
 14 15  1  0  0  0
 15 16  2  0  0  0
 16 17  1  0  0  0
 16 19  1  0  0  0
 17 18  2  0  0  0
 19 20  1  0  0  0
  7  9  1  0  0  0
  8 10  1  0  0  0
M  END
> <minimizedAffinity>
-6.98645

$$$$
