4QER_STL_A_202
  RCSB PDB12061714243D
Coordinates from PDB:4QER:A:202 Model:1 without hydrogens
 17 18  0  0  0  0            999 V2000
   -4.5980   18.2780    5.4820   C 0  0  0  0  0  0  0  0  0  0  0  0
   -4.3900   18.0560    6.8360   C 0  0  0  0  0  0  0  0  0  0  0  0
   -4.6300   19.0940    7.7660   C 0  0  0  0  0  0  0  0  0  0  0  0
   -5.0760   20.3890    7.3310   C 0  0  0  0  0  0  0  0  0  0  0  0
   -5.3050   20.5970    5.9520   C 0  0  0  0  0  0  0  0  0  0  0  0
   -5.0810   19.5450    5.0190   C 0  0  0  0  0  0  0  0  0  0  0  0
   -5.8240   21.8800    5.4580   C 0  0  0  0  0  0  0  0  0  0  0  0
   -5.2640   22.8390    4.7460   C 0  0  0  0  0  0  0  0  0  0  0  0
   -6.1490   23.9810    4.3660   C 0  0  0  0  0  0  0  0  0  0  0  0
   -6.2180   24.3560    3.0060   C 0  0  0  0  0  0  0  0  0  0  0  0
   -7.0990   25.4390    2.6610   C 0  0  0  0  0  0  0  0  0  0  0  0
   -7.8090   26.1660    3.6570   C 0  0  0  0  0  0  0  0  0  0  0  0
   -7.7100   25.8110    5.0170   C 0  0  0  0  0  0  0  0  0  0  0  0
   -6.8970   24.6870    5.3350   C 0  0  0  0  0  0  0  0  0  0  0  0
   -8.6400   27.1750    3.2440   O 0  0  0  0  0  0  0  0  0  0  0  0
   -4.3770   18.8210    9.0940   O 0  0  0  0  0  0  0  0  0  0  0  0
   -4.3410   17.2190    4.6740   O 0  0  0  0  0  0  0  0  0  0  0  0
  1  2  2  0  0  0  0
  1  6  1  0  0  0  0
  1 17  1  0  0  0  0
  2  3  1  0  0  0  0
  3  4  2  0  0  0  0
  3 16  1  0  0  0  0
  4  5  1  0  0  0  0
  5  6  2  0  0  0  0
  5  7  1  0  0  0  0
  7  8  2  0  0  0  0
  8  9  1  0  0  0  0
  9 10  2  0  0  0  0
  9 14  1  0  0  0  0
 10 11  1  0  0  0  0
 11 12  2  0  0  0  0
 12 13  1  0  0  0  0
 12 15  1  0  0  0  0
 13 14  2  0  0  0  0
A    1
C1
A    2
C2
A    3
C3
A    4
C4
A    5
C5
A    6
C6
A    7
C7
A    8
C8
A    9
C9
A   10
C10
A   11
C11
A   12
C12
A   13
C13
A   14
C14
A   15
O1
A   16
O2
A   17
O3
M  END
>  <InstanceId>
4QER_STL_A_202

>  <ChemCompId>
STL

>  <PdbId>
4QER

>  <ChainId>
A

>  <ResidueNumber>
202

>  <InsertionCode>


>  <Model>
1

>  <AltIds>


>  <MissingHeavyAtoms>
0

>  <ObservedFormula>
C14 O3

>  <Name>
RESVERATROL

>  <SystematicName>
5-[(E)-2-(4-hydroxyphenyl)ethenyl]benzene-1,3-diol

>  <Synonyms>


>  <Type>
NON-POLYMER

>  <Formula>
C14 H12 O3

>  <MolecularWeight>
228.243

>  <ModifiedDate>
2011-06-04

>  <Parent>


>  <OneLetterCode>


>  <SubcomponentList>


>  <AmbiguousFlag>
N

>  <InChI>
InChI=1S/C14H12O3/c15-12-5-3-10(4-6-12)1-2-11-7-13(16)9-14(17)8-11/h1-9,15-17H/b2-1+

>  <InChIKey>
LUKBXSAWLPMMSZ-OWOJBTEDSA-N

>  <SMILES>
c1cc(ccc1\C=C\c2cc(cc(c2)O)O)O

$$$$
