3FUR_Z12_A_1


 32 35  0  0  0  0  0  0  0  0999 V2000
    5.1105    7.5743   25.2249 C   0  0  0  0  0  0  0  0  0  0  0  0
    4.4896    8.5937   24.5097 C   0  0  0  0  0  0  0  0  0  0  0  0
    5.1085    9.8164   24.3725 C   0  0  0  0  0  0  0  0  0  0  0  0
    4.2790   11.0857   23.4322 Cl  0  0  0  0  0  0  0  0  0  0  0  0
    6.3423   10.0456   24.9667 C   0  0  0  0  0  0  0  0  0  0  0  0
    6.9563    9.0382   25.6751 C   0  0  0  0  0  0  0  0  0  0  0  0
    8.5400    9.3902   26.4132 Cl  0  0  0  0  0  0  0  0  0  0  0  0
    6.3513    7.7905   25.8079 C   0  0  0  0  0  0  0  0  0  0  0  0
    4.4438    6.3996   25.3053 N   0  0  0  0  0  0  0  0  0  0  0  0
    3.5229    6.3989   24.9572 H   0  0  0  0  0  0  0  0  0  0  0  0
    4.9724    5.0164   25.8969 S   0  0  0  0  0  0  0  0  0  0  0  0
    4.0925    4.0001   25.3673 O   0  0  0  0  0  0  0  0  0  0  0  0
    6.3274    4.7832   25.4782 O   0  0  0  0  0  0  0  0  0  0  0  0
    2.0671    4.9330   27.5018 Cl  0  0  0  0  0  0  0  0  0  0  0  0
    3.6921    4.9061   28.2560 C   0  0  0  0  0  0  0  0  0  0  0  0
    3.6811    4.8315   29.6515 C   0  0  0  0  0  0  0  0  0  0  0  0
    4.8713    4.7812   30.3699 C   0  0  0  0  0  0  0  0  0  0  0  0
    4.7652    4.6841   32.1622 Cl  0  0  0  0  0  0  0  0  0  0  0  0
    6.0891    4.8310   29.6778 C   0  0  0  0  0  0  0  0  0  0  0  0
    6.0960    4.9227   28.2741 C   0  0  0  0  0  0  0  0  0  0  0  0
    4.9013    4.9588   27.5311 C   0  0  0  0  0  0  0  0  0  0  0  0
    6.9863   11.2503   24.8584 O   0  0  0  0  0  0  0  0  0  0  0  0
    6.7616   12.3276   25.7030 C   0  0  0  0  0  0  0  0  0  0  0  0
    6.3274   12.1835   27.0291 C   0  0  0  0  0  0  0  0  0  0  0  0
    6.1473   13.3463   27.8055 C   0  0  0  0  0  0  0  0  0  0  0  0
    5.7241   13.2547   29.1274 C   0  0  0  0  0  0  0  0  0  0  0  0
    7.0022   13.6107   25.2124 C   0  0  0  0  0  0  0  0  0  0  0  0
    6.8176   14.7005   25.9683 N   0  0  0  0  0  0  0  0  0  0  0  0
    6.3974   14.6046   27.2455 C   0  0  0  0  0  0  0  0  0  0  0  0
    6.2241   15.7685   27.9933 C   0  0  0  0  0  0  0  0  0  0  0  0
    5.7936   15.6666   29.3071 C   0  0  0  0  0  0  0  0  0  0  0  0
    5.5484   14.4121   29.8777 C   0  0  0  0  0  0  0  0  0  0  0  0
 14 15  1  0  0  0
 15 16  2  0  0  0
 15 21  1  0  0  0
 16 17  1  0  0  0
 17 18  1  0  0  0
 17 19  2  0  0  0
 19 20  1  0  0  0
 20 21  2  0  0  0
 21 11  1  0  0  0
 11 12  2  0  0  0
 11 13  2  0  0  0
 11  9  1  0  0  0
  9  1  1  0  0  0
  1  2  2  0  0  0
  1  8  1  0  0  0
  2  3  1  0  0  0
  3  4  1  0  0  0
  3  5  2  0  0  0
  5  6  1  0  0  0
  5 22  1  0  0  0
  6  7  1  0  0  0
  6  8  2  0  0  0
 22 23  1  0  0  0
 23 24  2  0  0  0
 23 27  1  0  0  0
 24 25  1  0  0  0
 25 26  2  0  0  0
 25 29  1  0  0  0
 26 32  1  0  0  0
 27 28  2  0  0  0
 28 29  1  0  0  0
 29 30  2  0  0  0
 30 31  1  0  0  0
 31 32  2  0  0  0
  9 10  1  0  0  0
M  END
> <minimizedAffinity>
-11.67728

$$$$
3FUR_Z12_A_1


 32 35  0  0  0  0  0  0  0  0999 V2000
    5.4391    7.1712   25.3725 C   0  0  0  0  0  0  0  0  0  0  0  0
    4.4577    8.0630   24.9504 C   0  0  0  0  0  0  0  0  0  0  0  0
    4.7194    9.4148   24.9231 C   0  0  0  0  0  0  0  0  0  0  0  0
    3.4341   10.5159   24.3582 Cl  0  0  0  0  0  0  0  0  0  0  0  0
    5.9536    9.8962   25.3392 C   0  0  0  0  0  0  0  0  0  0  0  0
    6.9240    9.0149   25.7579 C   0  0  0  0  0  0  0  0  0  0  0  0
    8.4890    9.6909   26.2779 Cl  0  0  0  0  0  0  0  0  0  0  0  0
    6.6807    7.6434   25.7743 C   0  0  0  0  0  0  0  0  0  0  0  0
    5.1089    5.8591   25.3604 N   0  0  0  0  0  0  0  0  0  0  0  0
    5.6920    5.2699   24.8293 H   0  0  0  0  0  0  0  0  0  0  0  0
    3.8874    5.1536   26.1041 S   0  0  0  0  0  0  0  0  0  0  0  0
    2.7456    6.0118   25.8864 O   0  0  0  0  0  0  0  0  0  0  0  0
    3.6549    3.8487   25.5483 O   0  0  0  0  0  0  0  0  0  0  0  0
    6.9085    4.6049   27.3670 Cl  0  0  0  0  0  0  0  0  0  0  0  0
    5.3913    4.7948   28.3009 C   0  0  0  0  0  0  0  0  0  0  0  0
    5.5500    4.7065   29.6866 C   0  0  0  0  0  0  0  0  0  0  0  0
    4.4599    4.8566   30.5378 C   0  0  0  0  0  0  0  0  0  0  0  0
    4.7542    4.7303   32.3070 Cl  0  0  0  0  0  0  0  0  0  0  0  0
    3.1893    5.0742   29.9878 C   0  0  0  0  0  0  0  0  0  0  0  0
    3.0309    5.1461   28.5919 C   0  0  0  0  0  0  0  0  0  0  0  0
    4.1254    5.0120   27.7172 C   0  0  0  0  0  0  0  0  0  0  0  0
    6.2492   11.2342   25.3330 O   0  0  0  0  0  0  0  0  0  0  0  0
    6.1159   12.0622   26.4380 C   0  0  0  0  0  0  0  0  0  0  0  0
    6.2967   13.4521   26.3796 C   0  0  0  0  0  0  0  0  0  0  0  0
    6.1193   14.2013   27.5605 C   0  0  0  0  0  0  0  0  0  0  0  0
    6.2814   15.5828   27.5519 C   0  0  0  0  0  0  0  0  0  0  0  0
    5.7632   11.4830   27.6566 C   0  0  0  0  0  0  0  0  0  0  0  0
    5.6067   12.2160   28.7663 N   0  0  0  0  0  0  0  0  0  0  0  0
    5.7754   13.5532   28.7527 C   0  0  0  0  0  0  0  0  0  0  0  0
    5.5970   14.2729   29.9334 C   0  0  0  0  0  0  0  0  0  0  0  0
    5.7695   15.6483   29.9159 C   0  0  0  0  0  0  0  0  0  0  0  0
    6.1059   16.3057   28.7266 C   0  0  0  0  0  0  0  0  0  0  0  0
 14 15  1  0  0  0
 15 16  2  0  0  0
 15 21  1  0  0  0
 16 17  1  0  0  0
 17 18  1  0  0  0
 17 19  2  0  0  0
 19 20  1  0  0  0
 20 21  2  0  0  0
 21 11  1  0  0  0
 11 12  2  0  0  0
 11 13  2  0  0  0
 11  9  1  0  0  0
  9  1  1  0  0  0
  1  2  2  0  0  0
  1  8  1  0  0  0
  2  3  1  0  0  0
  3  4  1  0  0  0
  3  5  2  0  0  0
  5  6  1  0  0  0
  5 22  1  0  0  0
  6  7  1  0  0  0
  6  8  2  0  0  0
 22 23  1  0  0  0
 23 24  2  0  0  0
 23 27  1  0  0  0
 24 25  1  0  0  0
 25 26  2  0  0  0
 25 29  1  0  0  0
 26 32  1  0  0  0
 27 28  2  0  0  0
 28 29  1  0  0  0
 29 30  2  0  0  0
 30 31  1  0  0  0
 31 32  2  0  0  0
  9 10  1  0  0  0
M  END
> <minimizedAffinity>
-9.70688

$$$$
