2WE3_DUT_A_1257


 34 35  0  0  0  0  0  0  0  0999 V2000
   28.3469   17.5926    7.9287 C   0  0  0  0  0  0  0  0  0  0  0  0
   25.5774   17.4184    5.5959 C   0  0  0  0  0  0  0  0  0  0  0  0
   25.4546   15.9943    6.1466 C   0  0  0  0  0  0  0  0  0  0  0  0
   26.6318   15.8445    7.1148 C   0  0  0  0  0  0  0  0  0  0  0  0
   26.8827   17.2815    7.5754 C   0  0  0  0  0  0  0  0  0  0  0  0
   26.4683   18.1222    6.4906 O   0  0  0  0  0  0  0  0  0  0  0  0
   26.3314   14.9351    8.1976 O   0  0  0  0  0  0  0  0  0  0  0  0
   25.5461   15.2473    8.6736 H   0  0  0  0  0  0  0  0  0  0  0  0
   26.0880   17.4631    4.2001 N   0  0  0  0  0  0  0  0  0  0  0  0
   25.8096   18.5382    3.3213 C   0  0  0  0  0  0  0  0  0  0  0  0
   26.3083   18.5559    2.0522 N   0  0  0  0  0  0  0  0  0  0  0  0
   27.0493   17.5200    1.6044 C   0  0  0  0  0  0  0  0  0  0  0  0
   27.3556   16.4511    2.4519 C   0  0  0  0  0  0  0  0  0  0  0  0
   26.8535   16.4600    3.7394 C   0  0  0  0  0  0  0  0  0  0  0  0
   25.1198   19.4855    3.6956 O   0  0  0  0  0  0  0  0  0  0  0  0
   27.5666   17.5405    0.3613 O   0  0  0  0  0  0  0  0  0  0  0  0
   26.1281   19.3236    1.4628 H   0  0  0  0  0  0  0  0  0  0  0  0
   29.0578   17.7330    6.6967 O   0  0  0  0  0  0  0  0  0  0  0  0
   30.6460   17.7179    6.6881 P   0  0  0  0  0  0  0  0  0  0  0  0
   31.1143   17.0829    5.4090 O   0  0  0  0  0  0  0  0  0  0  0  0
   31.0602   17.1952    8.0150 O   0  0  0  0  0  0  0  0  0  0  0  0
   30.9249   16.2351    8.0409 H   0  0  0  0  0  0  0  0  0  0  0  0
   30.8761   19.3407    6.6477 O   0  0  0  0  0  0  0  0  0  0  0  0
   31.6550   20.2581    7.7771 P   0  0  0  0  0  0  0  0  0  0  0  0
   32.1730   21.4719    7.1019 O   0  0  0  0  0  0  0  0  0  0  0  0
   32.6260   19.4042    8.5172 O   0  0  0  0  0  0  0  0  0  0  0  0
   33.3688   19.1800    7.9350 H   0  0  0  0  0  0  0  0  0  0  0  0
   30.4012   20.6585    8.7010 O   0  0  0  0  0  0  0  0  0  0  0  0
   30.3299   20.3737   10.2895 P   0  0  0  0  0  0  0  0  0  0  0  0
   31.5740   21.0468   10.8035 O   0  0  0  0  0  0  0  0  0  0  0  0
   30.2763   18.8603   10.5229 O   0  0  0  0  0  0  0  0  0  0  0  0
   29.0565   20.9822   10.7812 O   0  0  0  0  0  0  0  0  0  0  0  0
   31.0990   18.4551   10.2070 H   0  0  0  0  0  0  0  0  0  0  0  0
   29.0801   21.9413   10.6379 H   0  0  0  0  0  0  0  0  0  0  0  0
  9 10  1  0  0  0
  9 14  1  0  0  0
  9  2  1  0  0  0
 10 11  1  0  0  0
 10 15  2  0  0  0
 11 12  1  0  0  0
 12 13  1  0  0  0
 12 16  2  0  0  0
 13 14  2  0  0  0
  2  3  1  0  0  0
  2  6  1  0  0  0
  3  4  1  0  0  0
  4  5  1  0  0  0
  4  7  1  0  0  0
  5  6  1  0  0  0
  5  1  1  0  0  0
  1 18  1  0  0  0
 18 19  1  0  0  0
 19 20  2  0  0  0
 19 21  1  0  0  0
 19 23  1  0  0  0
 23 24  1  0  0  0
 24 25  2  0  0  0
 24 26  1  0  0  0
 24 28  1  0  0  0
 28 29  1  0  0  0
 29 30  2  0  0  0
 29 31  1  0  0  0
 29 32  1  0  0  0
 11 17  1  0  0  0
  7  8  1  0  0  0
 21 22  1  0  0  0
 26 27  1  0  0  0
 31 33  1  0  0  0
 32 34  1  0  0  0
M  END
> <minimizedAffinity>
-7.98146

$$$$
2WE3_DUT_A_1257


 34 35  0  0  0  0  0  0  0  0999 V2000
   25.3126   16.5576    5.5965 C   0  0  0  0  0  0  0  0  0  0  0  0
   24.4265   19.5296    3.7192 C   0  0  0  0  0  0  0  0  0  0  0  0
   25.7508   19.2398    3.0062 C   0  0  0  0  0  0  0  0  0  0  0  0
   26.3367   18.0309    3.7417 C   0  0  0  0  0  0  0  0  0  0  0  0
   25.0933   17.3199    4.2788 C   0  0  0  0  0  0  0  0  0  0  0  0
   24.1097   18.3430    4.4814 O   0  0  0  0  0  0  0  0  0  0  0  0
   27.1436   17.2053    2.8716 O   0  0  0  0  0  0  0  0  0  0  0  0
   26.6085   16.9098    2.1185 H   0  0  0  0  0  0  0  0  0  0  0  0
   24.4880   20.7235    4.6034 N   0  0  0  0  0  0  0  0  0  0  0  0
   24.1899   22.0290    4.1422 C   0  0  0  0  0  0  0  0  0  0  0  0
   24.2393   23.1004    4.9845 N   0  0  0  0  0  0  0  0  0  0  0  0
   24.6129   22.9303    6.2706 C   0  0  0  0  0  0  0  0  0  0  0  0
   24.8981   21.6525    6.7612 C   0  0  0  0  0  0  0  0  0  0  0  0
   24.8268   20.5780    5.8951 C   0  0  0  0  0  0  0  0  0  0  0  0
   23.8669   22.2165    2.9701 O   0  0  0  0  0  0  0  0  0  0  0  0
   24.6403   23.9784    7.1156 O   0  0  0  0  0  0  0  0  0  0  0  0
   24.0027   23.9973    4.6549 H   0  0  0  0  0  0  0  0  0  0  0  0
   26.6198   16.8940    6.0663 O   0  0  0  0  0  0  0  0  0  0  0  0
   27.0468   16.5379    7.5542 P   0  0  0  0  0  0  0  0  0  0  0  0
   26.7058   15.0988    7.8213 O   0  0  0  0  0  0  0  0  0  0  0  0
   26.5219   17.6345    8.4071 O   0  0  0  0  0  0  0  0  0  0  0  0
   25.5648   17.5258    8.5208 H   0  0  0  0  0  0  0  0  0  0  0  0
   28.6645   16.7246    7.3640 O   0  0  0  0  0  0  0  0  0  0  0  0
   29.4848   18.1483    7.2092 P   0  0  0  0  0  0  0  0  0  0  0  0
   30.0040   18.5246    8.5457 O   0  0  0  0  0  0  0  0  0  0  0  0
   28.6266   19.1330    6.4924 O   0  0  0  0  0  0  0  0  0  0  0  0
   27.9021   19.4136    7.0732 H   0  0  0  0  0  0  0  0  0  0  0  0
   30.7042   17.6504    6.2867 O   0  0  0  0  0  0  0  0  0  0  0  0
   30.5820   16.4565    5.2053 P   0  0  0  0  0  0  0  0  0  0  0  0
   31.5089   16.9063    4.1083 O   0  0  0  0  0  0  0  0  0  0  0  0
   29.1154   16.3111    4.7866 O   0  0  0  0  0  0  0  0  0  0  0  0
   31.0125   15.2026    5.8952 O   0  0  0  0  0  0  0  0  0  0  0  0
   28.8256   17.1205    4.3373 H   0  0  0  0  0  0  0  0  0  0  0  0
   31.9407   15.2843    6.1648 H   0  0  0  0  0  0  0  0  0  0  0  0
  9 10  1  0  0  0
  9 14  1  0  0  0
  9  2  1  0  0  0
 10 11  1  0  0  0
 10 15  2  0  0  0
 11 12  1  0  0  0
 12 13  1  0  0  0
 12 16  2  0  0  0
 13 14  2  0  0  0
  2  3  1  0  0  0
  2  6  1  0  0  0
  3  4  1  0  0  0
  4  5  1  0  0  0
  4  7  1  0  0  0
  5  6  1  0  0  0
  5  1  1  0  0  0
  1 18  1  0  0  0
 18 19  1  0  0  0
 19 20  2  0  0  0
 19 21  1  0  0  0
 19 23  1  0  0  0
 23 24  1  0  0  0
 24 25  2  0  0  0
 24 26  1  0  0  0
 24 28  1  0  0  0
 28 29  1  0  0  0
 29 30  2  0  0  0
 29 31  1  0  0  0
 29 32  1  0  0  0
 11 17  1  0  0  0
  7  8  1  0  0  0
 21 22  1  0  0  0
 26 27  1  0  0  0
 31 33  1  0  0  0
 32 34  1  0  0  0
M  END
> <minimizedAffinity>
-7.75256

$$$$
2WE3_DUT_A_1257


 34 35  0  0  0  0  0  0  0  0999 V2000
   28.4706   17.4220    7.9774 C   0  0  0  0  0  0  0  0  0  0  0  0
   25.6633   17.4438    5.6838 C   0  0  0  0  0  0  0  0  0  0  0  0
   25.4768   16.0145    6.2020 C   0  0  0  0  0  0  0  0  0  0  0  0
   26.6585   15.7823    7.1482 C   0  0  0  0  0  0  0  0  0  0  0  0
   26.9878   17.1931    7.6392 C   0  0  0  0  0  0  0  0  0  0  0  0
   26.6008   18.0800    6.5814 O   0  0  0  0  0  0  0  0  0  0  0  0
   26.3281   14.8625    8.2133 O   0  0  0  0  0  0  0  0  0  0  0  0
   25.5662   15.2016    8.7087 H   0  0  0  0  0  0  0  0  0  0  0  0
   26.1558   17.4975    4.2818 N   0  0  0  0  0  0  0  0  0  0  0  0
   25.9741   18.6319    3.4536 C   0  0  0  0  0  0  0  0  0  0  0  0
   26.4539   18.6544    2.1773 N   0  0  0  0  0  0  0  0  0  0  0  0
   27.0807   17.5700    1.6733 C   0  0  0  0  0  0  0  0  0  0  0  0
   27.2902   16.4404    2.4700 C   0  0  0  0  0  0  0  0  0  0  0  0
   26.8100   16.4439    3.7658 C   0  0  0  0  0  0  0  0  0  0  0  0
   25.3883   19.6262    3.8796 O   0  0  0  0  0  0  0  0  0  0  0  0
   27.5796   17.5924    0.4227 O   0  0  0  0  0  0  0  0  0  0  0  0
   26.3432   19.4609    1.6237 H   0  0  0  0  0  0  0  0  0  0  0  0
   29.1346   17.7596    6.7576 O   0  0  0  0  0  0  0  0  0  0  0  0
   30.7054   17.5646    6.6262 P   0  0  0  0  0  0  0  0  0  0  0  0
   31.0056   16.9713    5.2785 O   0  0  0  0  0  0  0  0  0  0  0  0
   31.1454   16.9069    7.8829 O   0  0  0  0  0  0  0  0  0  0  0  0
   30.8993   15.9690    7.8603 H   0  0  0  0  0  0  0  0  0  0  0  0
   31.1228   19.1496    6.6678 O   0  0  0  0  0  0  0  0  0  0  0  0
   30.6340   20.2729    7.7736 P   0  0  0  0  0  0  0  0  0  0  0  0
   30.7973   19.6854    9.1249 O   0  0  0  0  0  0  0  0  0  0  0  0
   29.2862   20.7813    7.3930 O   0  0  0  0  0  0  0  0  0  0  0  0
   28.6244   20.0890    7.5462 H   0  0  0  0  0  0  0  0  0  0  0  0
   31.7702   21.3861    7.5378 O   0  0  0  0  0  0  0  0  0  0  0  0
   31.8212   22.7968    8.3235 P   0  0  0  0  0  0  0  0  0  0  0  0
   30.6686   23.5540    7.7209 O   0  0  0  0  0  0  0  0  0  0  0  0
   33.1949   23.4394    8.1059 O   0  0  0  0  0  0  0  0  0  0  0  0
   31.6585   22.4883    9.7767 O   0  0  0  0  0  0  0  0  0  0  0  0
   33.3109   23.6439    7.1648 H   0  0  0  0  0  0  0  0  0  0  0  0
   30.7910   22.0806    9.9256 H   0  0  0  0  0  0  0  0  0  0  0  0
  9 10  1  0  0  0
  9 14  1  0  0  0
  9  2  1  0  0  0
 10 11  1  0  0  0
 10 15  2  0  0  0
 11 12  1  0  0  0
 12 13  1  0  0  0
 12 16  2  0  0  0
 13 14  2  0  0  0
  2  3  1  0  0  0
  2  6  1  0  0  0
  3  4  1  0  0  0
  4  5  1  0  0  0
  4  7  1  0  0  0
  5  6  1  0  0  0
  5  1  1  0  0  0
  1 18  1  0  0  0
 18 19  1  0  0  0
 19 20  2  0  0  0
 19 21  1  0  0  0
 19 23  1  0  0  0
 23 24  1  0  0  0
 24 25  2  0  0  0
 24 26  1  0  0  0
 24 28  1  0  0  0
 28 29  1  0  0  0
 29 30  2  0  0  0
 29 31  1  0  0  0
 29 32  1  0  0  0
 11 17  1  0  0  0
  7  8  1  0  0  0
 21 22  1  0  0  0
 26 27  1  0  0  0
 31 33  1  0  0  0
 32 34  1  0  0  0
M  END
> <minimizedAffinity>
-7.66147

$$$$
2WE3_DUT_A_1257


 34 35  0  0  0  0  0  0  0  0999 V2000
   27.2019   19.6042    7.3949 C   0  0  0  0  0  0  0  0  0  0  0  0
   25.3877   16.9166    5.7740 C   0  0  0  0  0  0  0  0  0  0  0  0
   26.1176   16.0574    6.8110 C   0  0  0  0  0  0  0  0  0  0  0  0
   27.0297   17.0345    7.5588 C   0  0  0  0  0  0  0  0  0  0  0  0
   26.2895   18.3665    7.4249 C   0  0  0  0  0  0  0  0  0  0  0  0
   25.5558   18.2890    6.1956 O   0  0  0  0  0  0  0  0  0  0  0  0
   27.2492   16.6310    8.9295 O   0  0  0  0  0  0  0  0  0  0  0  0
   26.3962   16.5563    9.3851 H   0  0  0  0  0  0  0  0  0  0  0  0
   25.8986   16.7233    4.3911 N   0  0  0  0  0  0  0  0  0  0  0  0
   25.0836   16.8995    3.2464 C   0  0  0  0  0  0  0  0  0  0  0  0
   25.5889   16.7309    1.9910 N   0  0  0  0  0  0  0  0  0  0  0  0
   26.8749   16.3541    1.8268 C   0  0  0  0  0  0  0  0  0  0  0  0
   27.7101   16.1875    2.9355 C   0  0  0  0  0  0  0  0  0  0  0  0
   27.1826   16.3785    4.1984 C   0  0  0  0  0  0  0  0  0  0  0  0
   23.9027   17.2223    3.3668 O   0  0  0  0  0  0  0  0  0  0  0  0
   27.3892   16.2096    0.5906 O   0  0  0  0  0  0  0  0  0  0  0  0
   25.0163   16.8838    1.2049 H   0  0  0  0  0  0  0  0  0  0  0  0
   28.0415   19.5378    8.5497 O   0  0  0  0  0  0  0  0  0  0  0  0
   28.8206   20.8312    9.0427 P   0  0  0  0  0  0  0  0  0  0  0  0
   28.3455   21.1814   10.4248 O   0  0  0  0  0  0  0  0  0  0  0  0
   28.7506   21.8056    7.9242 O   0  0  0  0  0  0  0  0  0  0  0  0
   27.8637   22.1971    7.8914 H   0  0  0  0  0  0  0  0  0  0  0  0
   30.3206   20.1715    9.0952 O   0  0  0  0  0  0  0  0  0  0  0  0
   31.4727   20.2380    7.9154 P   0  0  0  0  0  0  0  0  0  0  0  0
   32.7256   19.6693    8.4671 O   0  0  0  0  0  0  0  0  0  0  0  0
   31.5212   21.6176    7.3549 O   0  0  0  0  0  0  0  0  0  0  0  0
   31.9096   22.2191    8.0094 H   0  0  0  0  0  0  0  0  0  0  0  0
   30.8351   19.1996    6.8661 O   0  0  0  0  0  0  0  0  0  0  0  0
   30.8718   17.5957    7.0559 P   0  0  0  0  0  0  0  0  0  0  0  0
   30.1848   17.0986    5.8126 O   0  0  0  0  0  0  0  0  0  0  0  0
   30.1672   17.2324    8.3670 O   0  0  0  0  0  0  0  0  0  0  0  0
   32.3108   17.2053    7.1583 O   0  0  0  0  0  0  0  0  0  0  0  0
   29.2315   17.4818    8.3112 H   0  0  0  0  0  0  0  0  0  0  0  0
   32.7666   17.4313    6.3324 H   0  0  0  0  0  0  0  0  0  0  0  0
  9 10  1  0  0  0
  9 14  1  0  0  0
  9  2  1  0  0  0
 10 11  1  0  0  0
 10 15  2  0  0  0
 11 12  1  0  0  0
 12 13  1  0  0  0
 12 16  2  0  0  0
 13 14  2  0  0  0
  2  3  1  0  0  0
  2  6  1  0  0  0
  3  4  1  0  0  0
  4  5  1  0  0  0
  4  7  1  0  0  0
  5  6  1  0  0  0
  5  1  1  0  0  0
  1 18  1  0  0  0
 18 19  1  0  0  0
 19 20  2  0  0  0
 19 21  1  0  0  0
 19 23  1  0  0  0
 23 24  1  0  0  0
 24 25  2  0  0  0
 24 26  1  0  0  0
 24 28  1  0  0  0
 28 29  1  0  0  0
 29 30  2  0  0  0
 29 31  1  0  0  0
 29 32  1  0  0  0
 11 17  1  0  0  0
  7  8  1  0  0  0
 21 22  1  0  0  0
 26 27  1  0  0  0
 31 33  1  0  0  0
 32 34  1  0  0  0
M  END
> <minimizedAffinity>
-7.59138

$$$$
2WE3_DUT_A_1257


 34 35  0  0  0  0  0  0  0  0999 V2000
   26.1292   19.4705    2.8135 C   0  0  0  0  0  0  0  0  0  0  0  0
   26.2849   16.6554    5.0923 C   0  0  0  0  0  0  0  0  0  0  0  0
   24.7673   16.8577    5.1404 C   0  0  0  0  0  0  0  0  0  0  0  0
   24.5088   18.0982    4.2802 C   0  0  0  0  0  0  0  0  0  0  0  0
   25.6768   18.0808    3.2925 C   0  0  0  0  0  0  0  0  0  0  0  0
   26.7618   17.4386    3.9749 O   0  0  0  0  0  0  0  0  0  0  0  0
   23.2123   18.0556    3.6422 O   0  0  0  0  0  0  0  0  0  0  0  0
   23.1450   17.2541    3.1000 H   0  0  0  0  0  0  0  0  0  0  0  0
   26.9684   17.0594    6.3495 N   0  0  0  0  0  0  0  0  0  0  0  0
   26.9443   16.2621    7.5197 C   0  0  0  0  0  0  0  0  0  0  0  0
   27.5966   16.6544    8.6512 N   0  0  0  0  0  0  0  0  0  0  0  0
   28.2475   17.8369    8.6786 C   0  0  0  0  0  0  0  0  0  0  0  0
   28.3037   18.6398    7.5355 C   0  0  0  0  0  0  0  0  0  0  0  0
   27.6492   18.2166    6.3943 C   0  0  0  0  0  0  0  0  0  0  0  0
   26.3414   15.1898    7.5300 O   0  0  0  0  0  0  0  0  0  0  0  0
   28.9153   18.2207    9.7832 O   0  0  0  0  0  0  0  0  0  0  0  0
   27.5929   16.0757    9.4476 H   0  0  0  0  0  0  0  0  0  0  0  0
   24.9888   20.3300    2.8748 O   0  0  0  0  0  0  0  0  0  0  0  0
   25.1602   21.8955    2.6684 P   0  0  0  0  0  0  0  0  0  0  0  0
   25.1297   22.1929    1.1956 O   0  0  0  0  0  0  0  0  0  0  0  0
   26.3061   22.3006    3.5218 O   0  0  0  0  0  0  0  0  0  0  0  0
   27.1357   22.0261    3.1008 H   0  0  0  0  0  0  0  0  0  0  0  0
   23.7598   22.3610    3.3828 O   0  0  0  0  0  0  0  0  0  0  0  0
   23.4564   22.4472    5.0028 P   0  0  0  0  0  0  0  0  0  0  0  0
   24.1825   23.6218    5.5420 O   0  0  0  0  0  0  0  0  0  0  0  0
   23.7223   21.1188    5.6227 O   0  0  0  0  0  0  0  0  0  0  0  0
   24.6780   20.9530    5.6347 H   0  0  0  0  0  0  0  0  0  0  0  0
   21.8818   22.7706    4.9587 O   0  0  0  0  0  0  0  0  0  0  0  0
   20.7713   21.7474    4.3847 P   0  0  0  0  0  0  0  0  0  0  0  0
   20.0065   22.6008    3.4092 O   0  0  0  0  0  0  0  0  0  0  0  0
   19.9403   21.2065    5.5528 O   0  0  0  0  0  0  0  0  0  0  0  0
   21.5132   20.6128    3.7554 O   0  0  0  0  0  0  0  0  0  0  0  0
   19.4543   21.9357    5.9687 H   0  0  0  0  0  0  0  0  0  0  0  0
   22.0431   20.9447    3.0139 H   0  0  0  0  0  0  0  0  0  0  0  0
  9 10  1  0  0  0
  9 14  1  0  0  0
  9  2  1  0  0  0
 10 11  1  0  0  0
 10 15  2  0  0  0
 11 12  1  0  0  0
 12 13  1  0  0  0
 12 16  2  0  0  0
 13 14  2  0  0  0
  2  3  1  0  0  0
  2  6  1  0  0  0
  3  4  1  0  0  0
  4  5  1  0  0  0
  4  7  1  0  0  0
  5  6  1  0  0  0
  5  1  1  0  0  0
  1 18  1  0  0  0
 18 19  1  0  0  0
 19 20  2  0  0  0
 19 21  1  0  0  0
 19 23  1  0  0  0
 23 24  1  0  0  0
 24 25  2  0  0  0
 24 26  1  0  0  0
 24 28  1  0  0  0
 28 29  1  0  0  0
 29 30  2  0  0  0
 29 31  1  0  0  0
 29 32  1  0  0  0
 11 17  1  0  0  0
  7  8  1  0  0  0
 21 22  1  0  0  0
 26 27  1  0  0  0
 31 33  1  0  0  0
 32 34  1  0  0  0
M  END
> <minimizedAffinity>
-7.51179

$$$$
2WE3_DUT_A_1257


 34 35  0  0  0  0  0  0  0  0999 V2000
   28.9491   22.2727    7.0012 C   0  0  0  0  0  0  0  0  0  0  0  0
   25.8219   21.6280    5.2845 C   0  0  0  0  0  0  0  0  0  0  0  0
   25.2924   21.4714    6.7133 C   0  0  0  0  0  0  0  0  0  0  0  0
   26.5253   21.6271    7.6085 C   0  0  0  0  0  0  0  0  0  0  0  0
   27.4478   22.5150    6.7713 C   0  0  0  0  0  0  0  0  0  0  0  0
   27.1274   22.2372    5.4018 O   0  0  0  0  0  0  0  0  0  0  0  0
   26.1927   22.1924    8.8967 O   0  0  0  0  0  0  0  0  0  0  0  0
   25.7615   23.0521    8.7709 H   0  0  0  0  0  0  0  0  0  0  0  0
   25.9054   20.3391    4.5478 N   0  0  0  0  0  0  0  0  0  0  0  0
   25.8641   20.2657    3.1342 C   0  0  0  0  0  0  0  0  0  0  0  0
   25.9607   19.0679    2.4894 N   0  0  0  0  0  0  0  0  0  0  0  0
   26.0603   17.9251    3.2011 C   0  0  0  0  0  0  0  0  0  0  0  0
   26.1199   17.9645    4.5974 C   0  0  0  0  0  0  0  0  0  0  0  0
   26.0363   19.1898    5.2309 C   0  0  0  0  0  0  0  0  0  0  0  0
   25.7528   21.2891    2.4607 O   0  0  0  0  0  0  0  0  0  0  0  0
   26.1814   16.7403    2.5726 O   0  0  0  0  0  0  0  0  0  0  0  0
   25.9577   19.0366    1.5054 H   0  0  0  0  0  0  0  0  0  0  0  0
   29.0673   21.3766    8.1085 O   0  0  0  0  0  0  0  0  0  0  0  0
   30.0143   20.1056    8.0060 P   0  0  0  0  0  0  0  0  0  0  0  0
   30.5110   19.7634    9.3825 O   0  0  0  0  0  0  0  0  0  0  0  0
   30.9497   20.3780    6.8852 O   0  0  0  0  0  0  0  0  0  0  0  0
   31.6229   21.0143    7.1733 H   0  0  0  0  0  0  0  0  0  0  0  0
   28.8781   19.0300    7.5158 O   0  0  0  0  0  0  0  0  0  0  0  0
   29.0285   17.3874    7.4618 P   0  0  0  0  0  0  0  0  0  0  0  0
   27.6662   16.8029    7.4716 O   0  0  0  0  0  0  0  0  0  0  0  0
   29.9831   16.9476    8.5179 O   0  0  0  0  0  0  0  0  0  0  0  0
   29.5722   17.0547    9.3900 H   0  0  0  0  0  0  0  0  0  0  0  0
   29.6636   17.2295    5.9929 O   0  0  0  0  0  0  0  0  0  0  0  0
   31.1481   16.6567    5.7139 P   0  0  0  0  0  0  0  0  0  0  0  0
   32.0157   17.5666    6.5411 O   0  0  0  0  0  0  0  0  0  0  0  0
   31.4248   16.7010    4.2076 O   0  0  0  0  0  0  0  0  0  0  0  0
   31.1528   15.2311    6.1627 O   0  0  0  0  0  0  0  0  0  0  0  0
   31.4240   17.6229    3.9057 H   0  0  0  0  0  0  0  0  0  0  0  0
   30.9783   15.1917    7.1161 H   0  0  0  0  0  0  0  0  0  0  0  0
  9 10  1  0  0  0
  9 14  1  0  0  0
  9  2  1  0  0  0
 10 11  1  0  0  0
 10 15  2  0  0  0
 11 12  1  0  0  0
 12 13  1  0  0  0
 12 16  2  0  0  0
 13 14  2  0  0  0
  2  3  1  0  0  0
  2  6  1  0  0  0
  3  4  1  0  0  0
  4  5  1  0  0  0
  4  7  1  0  0  0
  5  6  1  0  0  0
  5  1  1  0  0  0
  1 18  1  0  0  0
 18 19  1  0  0  0
 19 20  2  0  0  0
 19 21  1  0  0  0
 19 23  1  0  0  0
 23 24  1  0  0  0
 24 25  2  0  0  0
 24 26  1  0  0  0
 24 28  1  0  0  0
 28 29  1  0  0  0
 29 30  2  0  0  0
 29 31  1  0  0  0
 29 32  1  0  0  0
 11 17  1  0  0  0
  7  8  1  0  0  0
 21 22  1  0  0  0
 26 27  1  0  0  0
 31 33  1  0  0  0
 32 34  1  0  0  0
M  END
> <minimizedAffinity>
-7.35834

$$$$
2WE3_DUT_A_1257


 34 35  0  0  0  0  0  0  0  0999 V2000
   24.8656   17.2432    4.7464 C   0  0  0  0  0  0  0  0  0  0  0  0
   24.0584   20.5481    3.4943 C   0  0  0  0  0  0  0  0  0  0  0  0
   25.3573   20.3559    2.7055 C   0  0  0  0  0  0  0  0  0  0  0  0
   25.9104   19.0094    3.1815 C   0  0  0  0  0  0  0  0  0  0  0  0
   24.6511   18.2509    3.6045 C   0  0  0  0  0  0  0  0  0  0  0  0
   23.7109   19.2488    4.0236 O   0  0  0  0  0  0  0  0  0  0  0  0
   26.6691   18.3391    2.1496 O   0  0  0  0  0  0  0  0  0  0  0  0
   26.1093   18.2117    1.3677 H   0  0  0  0  0  0  0  0  0  0  0  0
   24.1816   21.5477    4.5882 N   0  0  0  0  0  0  0  0  0  0  0  0
   23.9711   22.9328    4.3816 C   0  0  0  0  0  0  0  0  0  0  0  0
   24.0753   23.8209    5.4113 N   0  0  0  0  0  0  0  0  0  0  0  0
   24.4201   23.3881    6.6427 C   0  0  0  0  0  0  0  0  0  0  0  0
   24.6190   22.0253    6.8834 C   0  0  0  0  0  0  0  0  0  0  0  0
   24.4932   21.1401    5.8297 C   0  0  0  0  0  0  0  0  0  0  0  0
   23.6763   23.3580    3.2655 O   0  0  0  0  0  0  0  0  0  0  0  0
   24.5008   24.2543    7.6706 O   0  0  0  0  0  0  0  0  0  0  0  0
   23.8991   24.7771    5.2567 H   0  0  0  0  0  0  0  0  0  0  0  0
   26.0507   17.6382    5.4409 O   0  0  0  0  0  0  0  0  0  0  0  0
   27.2719   16.6306    5.5680 P   0  0  0  0  0  0  0  0  0  0  0  0
   27.7433   16.2693    4.1875 O   0  0  0  0  0  0  0  0  0  0  0  0
   26.8505   15.5936    6.5440 O   0  0  0  0  0  0  0  0  0  0  0  0
   26.2273   14.9838    6.1189 H   0  0  0  0  0  0  0  0  0  0  0  0
   28.3251   17.6594    6.2895 O   0  0  0  0  0  0  0  0  0  0  0  0
   29.8007   17.2805    6.9241 P   0  0  0  0  0  0  0  0  0  0  0  0
   30.8364   17.6719    5.9384 O   0  0  0  0  0  0  0  0  0  0  0  0
   29.7841   15.8665    7.3933 O   0  0  0  0  0  0  0  0  0  0  0  0
   29.7680   15.2718    6.6272 H   0  0  0  0  0  0  0  0  0  0  0  0
   29.8278   18.3094    8.1596 O   0  0  0  0  0  0  0  0  0  0  0  0
   28.7879   18.2561    9.3947 P   0  0  0  0  0  0  0  0  0  0  0  0
   29.6851   17.9862   10.5725 O   0  0  0  0  0  0  0  0  0  0  0  0
   27.7438   17.1686    9.1210 O   0  0  0  0  0  0  0  0  0  0  0  0
   28.1012   19.5828    9.4392 O   0  0  0  0  0  0  0  0  0  0  0  0
   28.1795   16.3025    9.0901 H   0  0  0  0  0  0  0  0  0  0  0  0
   28.7539   20.2791    9.6122 H   0  0  0  0  0  0  0  0  0  0  0  0
  9 10  1  0  0  0
  9 14  1  0  0  0
  9  2  1  0  0  0
 10 11  1  0  0  0
 10 15  2  0  0  0
 11 12  1  0  0  0
 12 13  1  0  0  0
 12 16  2  0  0  0
 13 14  2  0  0  0
  2  3  1  0  0  0
  2  6  1  0  0  0
  3  4  1  0  0  0
  4  5  1  0  0  0
  4  7  1  0  0  0
  5  6  1  0  0  0
  5  1  1  0  0  0
  1 18  1  0  0  0
 18 19  1  0  0  0
 19 20  2  0  0  0
 19 21  1  0  0  0
 19 23  1  0  0  0
 23 24  1  0  0  0
 24 25  2  0  0  0
 24 26  1  0  0  0
 24 28  1  0  0  0
 28 29  1  0  0  0
 29 30  2  0  0  0
 29 31  1  0  0  0
 29 32  1  0  0  0
 11 17  1  0  0  0
  7  8  1  0  0  0
 21 22  1  0  0  0
 26 27  1  0  0  0
 31 33  1  0  0  0
 32 34  1  0  0  0
M  END
> <minimizedAffinity>
-7.27876

$$$$
2WE3_DUT_A_1257


 34 35  0  0  0  0  0  0  0  0999 V2000
   26.9902   18.0219    6.7542 C   0  0  0  0  0  0  0  0  0  0  0  0
   24.6307   18.7795    4.1083 C   0  0  0  0  0  0  0  0  0  0  0  0
   25.5425   17.8565    3.2940 C   0  0  0  0  0  0  0  0  0  0  0  0
   26.6846   17.4920    4.2470 C   0  0  0  0  0  0  0  0  0  0  0  0
   26.0315   17.6064    5.6256 C   0  0  0  0  0  0  0  0  0  0  0  0
   24.9997   18.5929    5.4933 O   0  0  0  0  0  0  0  0  0  0  0  0
   27.2241   16.1796    3.9706 O   0  0  0  0  0  0  0  0  0  0  0  0
   26.5159   15.5196    4.0314 H   0  0  0  0  0  0  0  0  0  0  0  0
   24.7491   20.2096    3.7189 N   0  0  0  0  0  0  0  0  0  0  0  0
   23.6929   21.1366    3.8939 C   0  0  0  0  0  0  0  0  0  0  0  0
   23.8410   22.4457    3.5417 N   0  0  0  0  0  0  0  0  0  0  0  0
   24.9953   22.8671    2.9826 C   0  0  0  0  0  0  0  0  0  0  0  0
   26.0629   21.9808    2.8110 C   0  0  0  0  0  0  0  0  0  0  0  0
   25.8977   20.6619    3.1890 C   0  0  0  0  0  0  0  0  0  0  0  0
   22.6226   20.7760    4.3815 O   0  0  0  0  0  0  0  0  0  0  0  0
   25.1595   24.1629    2.6548 O   0  0  0  0  0  0  0  0  0  0  0  0
   23.1066   23.0832    3.6951 H   0  0  0  0  0  0  0  0  0  0  0  0
   28.2107   17.3048    6.5567 O   0  0  0  0  0  0  0  0  0  0  0  0
   29.5368   17.7720    7.2957 P   0  0  0  0  0  0  0  0  0  0  0  0
   30.6148   17.9732    6.2681 O   0  0  0  0  0  0  0  0  0  0  0  0
   29.7167   16.8468    8.4433 O   0  0  0  0  0  0  0  0  0  0  0  0
   30.0455   15.9928    8.1216 H   0  0  0  0  0  0  0  0  0  0  0  0
   28.9810   19.2143    7.8428 O   0  0  0  0  0  0  0  0  0  0  0  0
   29.2045   19.8544    9.3474 P   0  0  0  0  0  0  0  0  0  0  0  0
   30.0614   18.9221   10.1183 O   0  0  0  0  0  0  0  0  0  0  0  0
   27.8815   20.2237    9.9245 O   0  0  0  0  0  0  0  0  0  0  0  0
   27.3912   19.4179   10.1509 H   0  0  0  0  0  0  0  0  0  0  0  0
   30.0588   21.1588    8.9542 O   0  0  0  0  0  0  0  0  0  0  0  0
   31.5310   21.1011    8.2916 P   0  0  0  0  0  0  0  0  0  0  0  0
   32.0882   22.4642    8.6019 O   0  0  0  0  0  0  0  0  0  0  0  0
   31.3938   20.7889    6.7979 O   0  0  0  0  0  0  0  0  0  0  0  0
   32.2593   19.9765    8.9538 O   0  0  0  0  0  0  0  0  0  0  0  0
   30.9220   21.5134    6.3582 H   0  0  0  0  0  0  0  0  0  0  0  0
   32.3517   20.1643    9.9009 H   0  0  0  0  0  0  0  0  0  0  0  0
  9 10  1  0  0  0
  9 14  1  0  0  0
  9  2  1  0  0  0
 10 11  1  0  0  0
 10 15  2  0  0  0
 11 12  1  0  0  0
 12 13  1  0  0  0
 12 16  2  0  0  0
 13 14  2  0  0  0
  2  3  1  0  0  0
  2  6  1  0  0  0
  3  4  1  0  0  0
  4  5  1  0  0  0
  4  7  1  0  0  0
  5  6  1  0  0  0
  5  1  1  0  0  0
  1 18  1  0  0  0
 18 19  1  0  0  0
 19 20  2  0  0  0
 19 21  1  0  0  0
 19 23  1  0  0  0
 23 24  1  0  0  0
 24 25  2  0  0  0
 24 26  1  0  0  0
 24 28  1  0  0  0
 28 29  1  0  0  0
 29 30  2  0  0  0
 29 31  1  0  0  0
 29 32  1  0  0  0
 11 17  1  0  0  0
  7  8  1  0  0  0
 21 22  1  0  0  0
 26 27  1  0  0  0
 31 33  1  0  0  0
 32 34  1  0  0  0
M  END
> <minimizedAffinity>
-7.11452

$$$$
2WE3_DUT_A_1257


 34 35  0  0  0  0  0  0  0  0999 V2000
   25.5074   17.8727    5.6048 C   0  0  0  0  0  0  0  0  0  0  0  0
   24.7023   20.7994    3.6228 C   0  0  0  0  0  0  0  0  0  0  0  0
   25.3542   19.9825    2.5029 C   0  0  0  0  0  0  0  0  0  0  0  0
   25.8529   18.7061    3.1869 C   0  0  0  0  0  0  0  0  0  0  0  0
   24.8943   18.5529    4.3691 C   0  0  0  0  0  0  0  0  0  0  0  0
   24.4795   19.8806    4.7162 O   0  0  0  0  0  0  0  0  0  0  0  0
   25.8491   17.5727    2.2896 O   0  0  0  0  0  0  0  0  0  0  0  0
   24.9531   17.4371    1.9438 H   0  0  0  0  0  0  0  0  0  0  0  0
   25.5313   21.9525    4.0634 N   0  0  0  0  0  0  0  0  0  0  0  0
   25.5096   23.2037    3.4002 C   0  0  0  0  0  0  0  0  0  0  0  0
   26.2700   24.2463    3.8413 N   0  0  0  0  0  0  0  0  0  0  0  0
   27.0874   24.0828    4.9033 C   0  0  0  0  0  0  0  0  0  0  0  0
   27.1201   22.8653    5.5897 C   0  0  0  0  0  0  0  0  0  0  0  0
   26.3300   21.8262    5.1361 C   0  0  0  0  0  0  0  0  0  0  0  0
   24.7901   23.3747    2.4172 O   0  0  0  0  0  0  0  0  0  0  0  0
   27.8228   25.1138    5.3610 O   0  0  0  0  0  0  0  0  0  0  0  0
   26.2229   25.1176    3.3855 H   0  0  0  0  0  0  0  0  0  0  0  0
   26.9222   18.0624    5.5326 O   0  0  0  0  0  0  0  0  0  0  0  0
   27.9012   16.8240    5.7077 P   0  0  0  0  0  0  0  0  0  0  0  0
   28.3614   16.3783    4.3482 O   0  0  0  0  0  0  0  0  0  0  0  0
   27.2237   15.8926    6.6453 O   0  0  0  0  0  0  0  0  0  0  0  0
   26.5119   15.4262    6.1797 H   0  0  0  0  0  0  0  0  0  0  0  0
   29.1035   17.6105    6.4976 O   0  0  0  0  0  0  0  0  0  0  0  0
   29.3726   17.6265    8.1258 P   0  0  0  0  0  0  0  0  0  0  0  0
   30.4888   16.6945    8.4139 O   0  0  0  0  0  0  0  0  0  0  0  0
   28.0821   17.4097    8.8381 O   0  0  0  0  0  0  0  0  0  0  0  0
   27.7978   16.4899    8.7193 H   0  0  0  0  0  0  0  0  0  0  0  0
   29.8886   19.1405    8.2923 O   0  0  0  0  0  0  0  0  0  0  0  0
   31.2783   19.6877    7.6767 P   0  0  0  0  0  0  0  0  0  0  0  0
   30.8413   20.8970    6.8946 O   0  0  0  0  0  0  0  0  0  0  0  0
   31.9227   18.5795    6.8377 O   0  0  0  0  0  0  0  0  0  0  0  0
   32.1718   19.9968    8.8342 O   0  0  0  0  0  0  0  0  0  0  0  0
   31.3502   18.3710    6.0829 H   0  0  0  0  0  0  0  0  0  0  0  0
   31.7726   20.6981    9.3725 H   0  0  0  0  0  0  0  0  0  0  0  0
  9 10  1  0  0  0
  9 14  1  0  0  0
  9  2  1  0  0  0
 10 11  1  0  0  0
 10 15  2  0  0  0
 11 12  1  0  0  0
 12 13  1  0  0  0
 12 16  2  0  0  0
 13 14  2  0  0  0
  2  3  1  0  0  0
  2  6  1  0  0  0
  3  4  1  0  0  0
  4  5  1  0  0  0
  4  7  1  0  0  0
  5  6  1  0  0  0
  5  1  1  0  0  0
  1 18  1  0  0  0
 18 19  1  0  0  0
 19 20  2  0  0  0
 19 21  1  0  0  0
 19 23  1  0  0  0
 23 24  1  0  0  0
 24 25  2  0  0  0
 24 26  1  0  0  0
 24 28  1  0  0  0
 28 29  1  0  0  0
 29 30  2  0  0  0
 29 31  1  0  0  0
 29 32  1  0  0  0
 11 17  1  0  0  0
  7  8  1  0  0  0
 21 22  1  0  0  0
 26 27  1  0  0  0
 31 33  1  0  0  0
 32 34  1  0  0  0
M  END
> <minimizedAffinity>
-7.11404

$$$$
2WE3_DUT_A_1257


 34 35  0  0  0  0  0  0  0  0999 V2000
   29.5988   18.9779   11.9074 C   0  0  0  0  0  0  0  0  0  0  0  0
   26.7885   19.5091    9.6798 C   0  0  0  0  0  0  0  0  0  0  0  0
   26.0366   18.7135   10.7512 C   0  0  0  0  0  0  0  0  0  0  0  0
   27.1096   18.3114   11.7674 C   0  0  0  0  0  0  0  0  0  0  0  0
   28.1538   19.4198   11.6212 C   0  0  0  0  0  0  0  0  0  0  0  0
   28.0578   19.8767   10.2656 O   0  0  0  0  0  0  0  0  0  0  0  0
   26.5739   18.1955   13.1050 O   0  0  0  0  0  0  0  0  0  0  0  0
   26.1677   19.0372   13.3647 H   0  0  0  0  0  0  0  0  0  0  0  0
   26.9905   18.7461    8.4196 N   0  0  0  0  0  0  0  0  0  0  0  0
   27.2497   19.3787    7.1794 C   0  0  0  0  0  0  0  0  0  0  0  0
   27.4473   18.6478    6.0452 N   0  0  0  0  0  0  0  0  0  0  0  0
   27.3601   17.3012    6.0871 C   0  0  0  0  0  0  0  0  0  0  0  0
   27.1216   16.6453    7.2985 C   0  0  0  0  0  0  0  0  0  0  0  0
   26.9397   17.4039    8.4393 C   0  0  0  0  0  0  0  0  0  0  0  0
   27.3138   20.6051    7.1075 O   0  0  0  0  0  0  0  0  0  0  0  0
   27.5786   16.5702    4.9774 O   0  0  0  0  0  0  0  0  0  0  0  0
   27.6534   19.1018    5.1963 H   0  0  0  0  0  0  0  0  0  0  0  0
   30.3655   19.2553   10.7334 O   0  0  0  0  0  0  0  0  0  0  0  0
   31.7081   20.0971   10.8402 P   0  0  0  0  0  0  0  0  0  0  0  0
   32.6763   19.3500   11.7137 O   0  0  0  0  0  0  0  0  0  0  0  0
   31.2972   21.4909   11.1467 O   0  0  0  0  0  0  0  0  0  0  0  0
   31.0346   21.5530   12.0784 H   0  0  0  0  0  0  0  0  0  0  0  0
   32.1513   19.9955    9.2649 O   0  0  0  0  0  0  0  0  0  0  0  0
   31.4346   20.7513    7.9848 P   0  0  0  0  0  0  0  0  0  0  0  0
   32.2567   21.9337    7.6332 O   0  0  0  0  0  0  0  0  0  0  0  0
   29.9928   20.9707    8.2895 O   0  0  0  0  0  0  0  0  0  0  0  0
   29.9067   21.6596    8.9669 H   0  0  0  0  0  0  0  0  0  0  0  0
   31.6321   19.6151    6.8641 O   0  0  0  0  0  0  0  0  0  0  0  0
   31.3375   18.0466    7.1148 P   0  0  0  0  0  0  0  0  0  0  0  0
   30.8577   17.5795    5.7671 O   0  0  0  0  0  0  0  0  0  0  0  0
   30.3124   17.9061    8.2449 O   0  0  0  0  0  0  0  0  0  0  0  0
   32.6259   17.4295    7.5539 O   0  0  0  0  0  0  0  0  0  0  0  0
   29.4715   18.3039    7.9699 H   0  0  0  0  0  0  0  0  0  0  0  0
   33.2826   17.5131    6.8449 H   0  0  0  0  0  0  0  0  0  0  0  0
  9 10  1  0  0  0
  9 14  1  0  0  0
  9  2  1  0  0  0
 10 11  1  0  0  0
 10 15  2  0  0  0
 11 12  1  0  0  0
 12 13  1  0  0  0
 12 16  2  0  0  0
 13 14  2  0  0  0
  2  3  1  0  0  0
  2  6  1  0  0  0
  3  4  1  0  0  0
  4  5  1  0  0  0
  4  7  1  0  0  0
  5  6  1  0  0  0
  5  1  1  0  0  0
  1 18  1  0  0  0
 18 19  1  0  0  0
 19 20  2  0  0  0
 19 21  1  0  0  0
 19 23  1  0  0  0
 23 24  1  0  0  0
 24 25  2  0  0  0
 24 26  1  0  0  0
 24 28  1  0  0  0
 28 29  1  0  0  0
 29 30  2  0  0  0
 29 31  1  0  0  0
 29 32  1  0  0  0
 11 17  1  0  0  0
  7  8  1  0  0  0
 21 22  1  0  0  0
 26 27  1  0  0  0
 31 33  1  0  0  0
 32 34  1  0  0  0
M  END
> <minimizedAffinity>
-7.09151

$$$$
