2WE3_DUT_A_1257
  RCSB PDB12061707143D
Coordinates from PDB:2WE3:A:1257 Model:1 without hydrogens
 28 29  0  0  0  0            999 V2000
   26.0370   16.9220    4.4070   N 0  0  0  0  0  0  0  0  0  0  0  0
   25.2210   17.1540    3.2730   C 0  0  0  0  0  0  0  0  0  0  0  0
   25.7370   17.0960    2.0120   N 0  0  0  0  0  0  0  0  0  0  0  0
   27.0360   16.7770    1.8290   C 0  0  0  0  0  0  0  0  0  0  0  0
   27.8720   16.5580    2.9280   C 0  0  0  0  0  0  0  0  0  0  0  0
   27.3330   16.6370    4.1980   C 0  0  0  0  0  0  0  0  0  0  0  0
   24.0290   17.4260    3.4090   O 0  0  0  0  0  0  0  0  0  0  0  0
   27.5600   16.7420    0.5890   O 0  0  0  0  0  0  0  0  0  0  0  0
   25.5140   16.9950    5.7970   C 0  0  0  0  0  0  0  0  0  0  0  0
   25.6350   15.6700    6.5560   C 0  0  0  0  0  0  0  0  0  0  0  0
   26.8000   15.8790    7.5280   C 0  0  0  0  0  0  0  0  0  0  0  0
   26.7820   17.3900    7.7660   C 0  0  0  0  0  0  0  0  0  0  0  0
   26.2470   17.9720    6.5700   O 0  0  0  0  0  0  0  0  0  0  0  0
   26.6440   15.1020    8.7370   O 0  0  0  0  0  0  0  0  0  0  0  0
   28.1600   18.0070    8.0590   C 0  0  0  0  0  0  0  0  0  0  0  0
   28.9830   17.7640    6.9160   O 0  0  0  0  0  0  0  0  0  0  0  0
   30.5570   17.9530    7.0140   P 0  0  0  0  0  0  0  0  0  0  0  0
   31.1600   17.6740    5.6660   O 0  0  0  0  0  0  0  0  0  0  0  0
   30.9860   17.2130    8.2280   O 0  0  0  0  0  0  0  0  0  0  0  0
   30.5610   19.5620    7.3290   O 0  0  0  0  0  0  0  0  0  0  0  0
   31.7000   20.4010    8.1790   P 0  0  0  0  0  0  0  0  0  0  0  0
   32.1940   21.5020    7.3180   O 0  0  0  0  0  0  0  0  0  0  0  0
   32.7010   19.4460    8.7320   O 0  0  0  0  0  0  0  0  0  0  0  0
   30.7670   21.0110    9.3380   O 0  0  0  0  0  0  0  0  0  0  0  0
   30.5960   20.3410   10.7980   P 0  0  0  0  0  0  0  0  0  0  0  0
   31.7480   20.9270   11.5690   O 0  0  0  0  0  0  0  0  0  0  0  0
   30.6300   18.8160   10.6540   O 0  0  0  0  0  0  0  0  0  0  0  0
   29.2500   20.7470   11.3050   O 0  0  0  0  0  0  0  0  0  0  0  0
  1  2  1  0  0  0  0
  1  6  1  0  0  0  0
  1  9  1  0  0  0  0
  2  3  1  0  0  0  0
  2  7  2  0  0  0  0
  3  4  1  0  0  0  0
  4  5  1  0  0  0  0
  4  8  2  0  0  0  0
  5  6  2  0  0  0  0
  9 10  1  0  0  0  0
  9 13  1  0  0  0  0
 10 11  1  0  0  0  0
 11 12  1  0  0  0  0
 11 14  1  0  0  0  0
 12 13  1  0  0  0  0
 12 15  1  0  0  0  0
 15 16  1  0  0  0  0
 16 17  1  0  0  0  0
 17 18  2  0  0  0  0
 17 19  1  0  0  0  0
 17 20  1  0  0  0  0
 20 21  1  0  0  0  0
 21 22  2  0  0  0  0
 21 23  1  0  0  0  0
 21 24  1  0  0  0  0
 24 25  1  0  0  0  0
 25 26  2  0  0  0  0
 25 27  1  0  0  0  0
 25 28  1  0  0  0  0
A    1
N1
A    2
C2
A    3
N3
A    4
C4
A    5
C5
A    6
C6
A    7
O2
A    8
O4
A    9
C1'
A   10
C2'
A   11
C3'
A   12
C4'
A   13
O4'
A   14
O3'
A   15
C5'
A   16
O5'
A   17
PA
A   18
O1A
A   19
O2A
A   20
O3A
A   21
PB
A   22
O1B
A   23
O2B
A   24
O3B
A   25
PG
A   26
O1G
A   27
O2G
A   28
O3G
M  END
>  <InstanceId>
2WE3_DUT_A_1257

>  <ChemCompId>
DUT

>  <PdbId>
2WE3

>  <ChainId>
A

>  <ResidueNumber>
1257

>  <InsertionCode>


>  <Model>
1

>  <AltIds>


>  <MissingHeavyAtoms>
0

>  <ObservedFormula>
C9 N2 O14 P3

>  <Name>
DEOXYURIDINE-5'-TRIPHOSPHATE

>  <SystematicName>
[(2R,3S,5R)-5-(2,4-dioxopyrimidin-1-yl)-3-hydroxy-oxolan-2-yl]methyl (hydroxy-phosphonooxy-phosphoryl) hydrogen phosphate

>  <Synonyms>


>  <Type>
NON-POLYMER

>  <Formula>
C9 H15 N2 O14 P3

>  <MolecularWeight>
468.142

>  <ModifiedDate>
2011-06-04

>  <Parent>


>  <OneLetterCode>


>  <SubcomponentList>


>  <AmbiguousFlag>
N

>  <InChI>
InChI=1S/C9H15N2O14P3/c12-5-3-8(11-2-1-7(13)10-9(11)14)23-6(5)4-22-27(18,19)25-28(20,21)24-26(15,16)17/h1-2,5-6,8,12H,3-4H2,(H,18,19)(H,20,21)(H,10,13,14)(H2,15,16,17)/t5-,6+,8+/m0/s1

>  <InChIKey>
AHCYMLUZIRLXAA-SHYZEUOFSA-N

>  <SMILES>
C1[C@@H]([C@H](O[C@H]1N2C=CC(=O)NC2=O)CO[P@@](=O)(O)O[P@](=O)(O)OP(=O)(O)O)O

$$$$
