5CC2_CKA_A_301


 17 18  0  0  0  0  0  0  0  0999 V2000
   13.3605    4.0557   23.8087 C   0  0  0  0  0  0  0  0  0  0  0  0
   14.7131    3.8780   23.5564 C   0  0  0  0  0  0  0  0  0  0  0  0
   15.4817    4.9980   23.1773 C   0  0  0  0  0  0  0  0  0  0  0  0
   14.9377    6.2652   23.0471 C   0  0  0  0  0  0  0  0  0  0  0  0
   13.5589    6.4343   23.3065 C   0  0  0  0  0  0  0  0  0  0  0  0
   11.6494    7.8842   23.4272 C   0  0  0  0  0  0  0  0  0  0  0  0
   12.9676    7.6666   23.1928 N   0  0  0  0  0  0  0  0  0  0  0  0
   12.7573    5.3258   23.6913 C   0  0  0  0  0  0  0  0  0  0  0  0
   10.8189    6.8563   23.8033 C   0  0  0  0  0  0  0  0  0  0  0  0
   11.3063    5.4999   23.9632 C   0  0  0  0  0  0  0  0  0  0  0  0
   10.5867    4.5425   24.2987 O   0  0  0  0  0  0  0  0  0  0  0  0
   17.1905    4.7764   22.8589 Cl  0  0  0  0  0  0  0  0  0  0  0  0
   13.5279    8.4315   22.9278 H   0  0  0  0  0  0  0  0  0  0  0  0
   11.2055    9.3550   23.2398 C   0  0  0  0  0  0  0  0  0  0  0  0
   12.1529   10.1774   23.1938 O   0  0  0  0  0  0  0  0  0  0  0  0
    9.9775    9.5636   23.1643 O   0  0  0  0  0  0  0  0  0  0  0  0
    9.3765    8.8464   23.2142 H   0  0  0  0  0  0  0  0  0  0  0  0
 12  3  1  0  0  0
  4  3  2  0  0  0
  4  5  1  0  0  0
  3  2  1  0  0  0
 15 14  2  0  0  0
  7  5  1  0  0  0
  7  6  1  0  0  0
  5  8  2  0  0  0
  2  1  2  0  0  0
 14  6  1  0  0  0
 14 16  1  0  0  0
  6  9  2  0  0  0
  8  1  1  0  0  0
  8 10  1  0  0  0
  9 10  1  0  0  0
 10 11  2  0  0  0
  7 13  1  0  0  0
 16 17  1  0  0  0
M  END
> <minimizedAffinity>
-8.89349

$$$$
5CC2_CKA_A_301


 17 18  0  0  0  0  0  0  0  0999 V2000
   13.1625    7.4944   22.8557 C   0  0  0  0  0  0  0  0  0  0  0  0
   13.9598    6.3595   22.8919 C   0  0  0  0  0  0  0  0  0  0  0  0
   13.4372    5.1861   23.4737 C   0  0  0  0  0  0  0  0  0  0  0  0
   12.1613    5.1247   24.0095 C   0  0  0  0  0  0  0  0  0  0  0  0
   11.3582    6.2866   23.9671 C   0  0  0  0  0  0  0  0  0  0  0  0
    9.2758    7.3697   24.4710 C   0  0  0  0  0  0  0  0  0  0  0  0
   10.0874    6.2828   24.4831 N   0  0  0  0  0  0  0  0  0  0  0  0
   11.8553    7.4848   23.3869 C   0  0  0  0  0  0  0  0  0  0  0  0
    9.6943    8.5587   23.9245 C   0  0  0  0  0  0  0  0  0  0  0  0
   11.0139    8.7094   23.3423 C   0  0  0  0  0  0  0  0  0  0  0  0
   11.4309    9.7687   22.8412 O   0  0  0  0  0  0  0  0  0  0  0  0
   14.4418    3.7511   23.5199 Cl  0  0  0  0  0  0  0  0  0  0  0  0
    9.7472    5.4496   24.8821 H   0  0  0  0  0  0  0  0  0  0  0  0
    7.8848    7.1303   25.1059 C   0  0  0  0  0  0  0  0  0  0  0  0
    6.9377    7.1166   24.2820 O   0  0  0  0  0  0  0  0  0  0  0  0
    7.8524    6.9877   26.3452 O   0  0  0  0  0  0  0  0  0  0  0  0
    8.6465    7.0210   26.8415 H   0  0  0  0  0  0  0  0  0  0  0  0
 12  3  1  0  0  0
  4  3  2  0  0  0
  4  5  1  0  0  0
  3  2  1  0  0  0
 15 14  2  0  0  0
  7  5  1  0  0  0
  7  6  1  0  0  0
  5  8  2  0  0  0
  2  1  2  0  0  0
 14  6  1  0  0  0
 14 16  1  0  0  0
  6  9  2  0  0  0
  8  1  1  0  0  0
  8 10  1  0  0  0
  9 10  1  0  0  0
 10 11  2  0  0  0
  7 13  1  0  0  0
 16 17  1  0  0  0
M  END
> <minimizedAffinity>
-7.49448

$$$$
5CC2_CKA_A_301


 17 18  0  0  0  0  0  0  0  0999 V2000
   10.3113    6.6161   24.2430 C   0  0  0  0  0  0  0  0  0  0  0  0
    9.5986    6.1638   25.3440 C   0  0  0  0  0  0  0  0  0  0  0  0
   10.1856    5.1850   26.1722 C   0  0  0  0  0  0  0  0  0  0  0  0
   11.4436    4.6592   25.9275 C   0  0  0  0  0  0  0  0  0  0  0  0
   12.1603    5.1272   24.8032 C   0  0  0  0  0  0  0  0  0  0  0  0
   14.1393    5.0532   23.4463 C   0  0  0  0  0  0  0  0  0  0  0  0
   13.4096    4.6413   24.5130 N   0  0  0  0  0  0  0  0  0  0  0  0
   11.5968    6.1137   23.9495 C   0  0  0  0  0  0  0  0  0  0  0  0
   13.6537    6.0046   22.5822 C   0  0  0  0  0  0  0  0  0  0  0  0
   12.3472    6.6068   22.7650 C   0  0  0  0  0  0  0  0  0  0  0  0
   11.8710    7.4679   22.0040 O   0  0  0  0  0  0  0  0  0  0  0  0
    9.2880    4.6128   27.5640 Cl  0  0  0  0  0  0  0  0  0  0  0  0
   13.7961    3.9594   25.1088 H   0  0  0  0  0  0  0  0  0  0  0  0
   15.5217    4.3686   23.3202 C   0  0  0  0  0  0  0  0  0  0  0  0
   16.3470    4.9998   22.6156 O   0  0  0  0  0  0  0  0  0  0  0  0
   15.6632    3.2800   23.9137 O   0  0  0  0  0  0  0  0  0  0  0  0
   14.9538    2.9211   24.4097 H   0  0  0  0  0  0  0  0  0  0  0  0
 12  3  1  0  0  0
  4  3  2  0  0  0
  4  5  1  0  0  0
  3  2  1  0  0  0
 15 14  2  0  0  0
  7  5  1  0  0  0
  7  6  1  0  0  0
  5  8  2  0  0  0
  2  1  2  0  0  0
 14  6  1  0  0  0
 14 16  1  0  0  0
  6  9  2  0  0  0
  8  1  1  0  0  0
  8 10  1  0  0  0
  9 10  1  0  0  0
 10 11  2  0  0  0
  7 13  1  0  0  0
 16 17  1  0  0  0
M  END
> <minimizedAffinity>
-7.32383

$$$$
5CC2_CKA_A_301


 17 18  0  0  0  0  0  0  0  0999 V2000
   11.6388    3.4362   23.0506 C   0  0  0  0  0  0  0  0  0  0  0  0
   12.2053    2.8512   21.9274 C   0  0  0  0  0  0  0  0  0  0  0  0
   12.7080    3.6894   20.9109 C   0  0  0  0  0  0  0  0  0  0  0  0
   12.6567    5.0713   20.9916 C   0  0  0  0  0  0  0  0  0  0  0  0
   12.0774    5.6562   22.1401 C   0  0  0  0  0  0  0  0  0  0  0  0
   11.4521    7.6321   23.3516 C   0  0  0  0  0  0  0  0  0  0  0  0
   11.9999    7.0191   22.2727 N   0  0  0  0  0  0  0  0  0  0  0  0
   11.5625    4.8390   23.1825 C   0  0  0  0  0  0  0  0  0  0  0  0
   10.9372    6.9010   24.3947 C   0  0  0  0  0  0  0  0  0  0  0  0
   10.9508    5.4509   24.3912 C   0  0  0  0  0  0  0  0  0  0  0  0
   10.4923    4.7537   25.3136 O   0  0  0  0  0  0  0  0  0  0  0  0
   13.4249    2.9531   19.4916 Cl  0  0  0  0  0  0  0  0  0  0  0  0
   12.3598    7.5806   21.5485 H   0  0  0  0  0  0  0  0  0  0  0  0
   11.4773    9.1782   23.2842 C   0  0  0  0  0  0  0  0  0  0  0  0
   10.3463    9.7163   23.3693 O   0  0  0  0  0  0  0  0  0  0  0  0
   12.5959    9.7141   23.1467 O   0  0  0  0  0  0  0  0  0  0  0  0
   13.3666    9.1835   23.0969 H   0  0  0  0  0  0  0  0  0  0  0  0
 12  3  1  0  0  0
  4  3  2  0  0  0
  4  5  1  0  0  0
  3  2  1  0  0  0
 15 14  2  0  0  0
  7  5  1  0  0  0
  7  6  1  0  0  0
  5  8  2  0  0  0
  2  1  2  0  0  0
 14  6  1  0  0  0
 14 16  1  0  0  0
  6  9  2  0  0  0
  8  1  1  0  0  0
  8 10  1  0  0  0
  9 10  1  0  0  0
 10 11  2  0  0  0
  7 13  1  0  0  0
 16 17  1  0  0  0
M  END
> <minimizedAffinity>
-7.31198

$$$$
5CC2_CKA_A_301


 17 18  0  0  0  0  0  0  0  0999 V2000
   12.5059    4.5632   24.6519 C   0  0  0  0  0  0  0  0  0  0  0  0
   13.8254    4.4480   24.2392 C   0  0  0  0  0  0  0  0  0  0  0  0
   14.3750    5.4730   23.4417 C   0  0  0  0  0  0  0  0  0  0  0  0
   13.6481    6.5871   23.0555 C   0  0  0  0  0  0  0  0  0  0  0  0
   12.3050    6.6939   23.4816 C   0  0  0  0  0  0  0  0  0  0  0  0
   10.2450    7.9262   23.5074 C   0  0  0  0  0  0  0  0  0  0  0  0
   11.5387    7.7752   23.1285 N   0  0  0  0  0  0  0  0  0  0  0  0
   11.7221    5.6783   24.2868 C   0  0  0  0  0  0  0  0  0  0  0  0
    9.6215    6.9820   24.2868 C   0  0  0  0  0  0  0  0  0  0  0  0
   10.3091    5.7866   24.7352 C   0  0  0  0  0  0  0  0  0  0  0  0
    9.7793    4.9078   25.4383 O   0  0  0  0  0  0  0  0  0  0  0  0
   16.0417    5.3303   22.9199 Cl  0  0  0  0  0  0  0  0  0  0  0  0
   11.9480    8.4767   22.5722 H   0  0  0  0  0  0  0  0  0  0  0  0
    9.5807    9.2264   22.9938 C   0  0  0  0  0  0  0  0  0  0  0  0
    8.4103    9.4064   23.4105 O   0  0  0  0  0  0  0  0  0  0  0  0
   10.2626    9.9388   22.2291 O   0  0  0  0  0  0  0  0  0  0  0  0
   11.1332    9.6794   21.9993 H   0  0  0  0  0  0  0  0  0  0  0  0
 12  3  1  0  0  0
  4  3  2  0  0  0
  4  5  1  0  0  0
  3  2  1  0  0  0
 15 14  2  0  0  0
  7  5  1  0  0  0
  7  6  1  0  0  0
  5  8  2  0  0  0
  2  1  2  0  0  0
 14  6  1  0  0  0
 14 16  1  0  0  0
  6  9  2  0  0  0
  8  1  1  0  0  0
  8 10  1  0  0  0
  9 10  1  0  0  0
 10 11  2  0  0  0
  7 13  1  0  0  0
 16 17  1  0  0  0
M  END
> <minimizedAffinity>
-7.06736

$$$$
5CC2_CKA_A_301


 17 18  0  0  0  0  0  0  0  0999 V2000
    9.9280    8.8026   24.1135 C   0  0  0  0  0  0  0  0  0  0  0  0
    8.7631    8.4224   24.7641 C   0  0  0  0  0  0  0  0  0  0  0  0
    8.6202    7.0768   25.1609 C   0  0  0  0  0  0  0  0  0  0  0  0
    9.5966    6.1229   24.9251 C   0  0  0  0  0  0  0  0  0  0  0  0
   10.7788    6.5215   24.2615 C   0  0  0  0  0  0  0  0  0  0  0  0
   12.9310    5.9469   23.3663 C   0  0  0  0  0  0  0  0  0  0  0  0
   11.7783    5.6188   24.0017 N   0  0  0  0  0  0  0  0  0  0  0  0
   10.9537    7.8703   23.8497 C   0  0  0  0  0  0  0  0  0  0  0  0
   13.1637    7.2331   22.9430 C   0  0  0  0  0  0  0  0  0  0  0  0
   12.1952    8.2925   23.1498 C   0  0  0  0  0  0  0  0  0  0  0  0
   12.3670    9.4673   22.7790 O   0  0  0  0  0  0  0  0  0  0  0  0
    7.1503    6.5942   25.9837 Cl  0  0  0  0  0  0  0  0  0  0  0  0
   11.6529    4.6862   24.2909 H   0  0  0  0  0  0  0  0  0  0  0  0
   13.9149    4.7659   23.1860 C   0  0  0  0  0  0  0  0  0  0  0  0
   14.2833    4.5785   22.0006 O   0  0  0  0  0  0  0  0  0  0  0  0
   14.2244    4.1332   24.2161 O   0  0  0  0  0  0  0  0  0  0  0  0
   13.8699    4.3864   25.0457 H   0  0  0  0  0  0  0  0  0  0  0  0
 12  3  1  0  0  0
  4  3  2  0  0  0
  4  5  1  0  0  0
  3  2  1  0  0  0
 15 14  2  0  0  0
  7  5  1  0  0  0
  7  6  1  0  0  0
  5  8  2  0  0  0
  2  1  2  0  0  0
 14  6  1  0  0  0
 14 16  1  0  0  0
  6  9  2  0  0  0
  8  1  1  0  0  0
  8 10  1  0  0  0
  9 10  1  0  0  0
 10 11  2  0  0  0
  7 13  1  0  0  0
 16 17  1  0  0  0
M  END
> <minimizedAffinity>
-7.06014

$$$$
5CC2_CKA_A_301


 17 18  0  0  0  0  0  0  0  0999 V2000
   10.8151    4.9494   24.9029 C   0  0  0  0  0  0  0  0  0  0  0  0
   11.5984    5.0753   23.7648 C   0  0  0  0  0  0  0  0  0  0  0  0
   11.6070    6.3107   23.0848 C   0  0  0  0  0  0  0  0  0  0  0  0
   10.8638    7.3999   23.5094 C   0  0  0  0  0  0  0  0  0  0  0  0
   10.0695    7.2601   24.6697 C   0  0  0  0  0  0  0  0  0  0  0  0
    8.5320    8.2248   26.2408 C   0  0  0  0  0  0  0  0  0  0  0  0
    9.3134    8.3055   25.1349 N   0  0  0  0  0  0  0  0  0  0  0  0
   10.0399    6.0284   25.3780 C   0  0  0  0  0  0  0  0  0  0  0  0
    8.4587    7.0639   26.9718 C   0  0  0  0  0  0  0  0  0  0  0  0
    9.2040    5.8774   26.5978 C   0  0  0  0  0  0  0  0  0  0  0  0
    9.1621    4.8074   27.2308 O   0  0  0  0  0  0  0  0  0  0  0  0
   12.5963    6.4727   21.6476 Cl  0  0  0  0  0  0  0  0  0  0  0  0
    9.3391    9.1571   24.6416 H   0  0  0  0  0  0  0  0  0  0  0  0
    7.7716    9.5302   26.5774 C   0  0  0  0  0  0  0  0  0  0  0  0
    7.8149    9.8538   27.7896 O   0  0  0  0  0  0  0  0  0  0  0  0
    7.2011   10.1060   25.6287 O   0  0  0  0  0  0  0  0  0  0  0  0
    7.2526    9.7481   24.7643 H   0  0  0  0  0  0  0  0  0  0  0  0
 12  3  1  0  0  0
  4  3  2  0  0  0
  4  5  1  0  0  0
  3  2  1  0  0  0
 15 14  2  0  0  0
  7  5  1  0  0  0
  7  6  1  0  0  0
  5  8  2  0  0  0
  2  1  2  0  0  0
 14  6  1  0  0  0
 14 16  1  0  0  0
  6  9  2  0  0  0
  8  1  1  0  0  0
  8 10  1  0  0  0
  9 10  1  0  0  0
 10 11  2  0  0  0
  7 13  1  0  0  0
 16 17  1  0  0  0
M  END
> <minimizedAffinity>
-6.88848

$$$$
5CC2_CKA_A_301


 17 18  0  0  0  0  0  0  0  0999 V2000
    9.4825    6.7356   24.7022 C   0  0  0  0  0  0  0  0  0  0  0  0
    9.0184    7.8120   23.9599 C   0  0  0  0  0  0  0  0  0  0  0  0
    9.8454    8.3399   22.9471 C   0  0  0  0  0  0  0  0  0  0  0  0
   11.1008    7.8258   22.6670 C   0  0  0  0  0  0  0  0  0  0  0  0
   11.5632    6.7295   23.4294 C   0  0  0  0  0  0  0  0  0  0  0  0
   13.2917    5.1310   23.8985 C   0  0  0  0  0  0  0  0  0  0  0  0
   12.7982    6.1808   23.1953 N   0  0  0  0  0  0  0  0  0  0  0  0
   10.7534    6.1741   24.4566 C   0  0  0  0  0  0  0  0  0  0  0  0
   12.5600    4.5467   24.9039 C   0  0  0  0  0  0  0  0  0  0  0  0
   11.2375    5.0221   25.2616 C   0  0  0  0  0  0  0  0  0  0  0  0
   10.5455    4.5228   26.1666 O   0  0  0  0  0  0  0  0  0  0  0  0
    9.2612    9.6988   22.0076 Cl  0  0  0  0  0  0  0  0  0  0  0  0
   13.3544    6.5682   22.4813 H   0  0  0  0  0  0  0  0  0  0  0  0
   14.7047    4.6792   23.4570 C   0  0  0  0  0  0  0  0  0  0  0  0
   15.3071    5.5073   22.7308 O   0  0  0  0  0  0  0  0  0  0  0  0
   15.0837    3.5589   23.8552 O   0  0  0  0  0  0  0  0  0  0  0  0
   14.5237    3.0408   24.3991 H   0  0  0  0  0  0  0  0  0  0  0  0
 12  3  1  0  0  0
  4  3  2  0  0  0
  4  5  1  0  0  0
  3  2  1  0  0  0
 15 14  2  0  0  0
  7  5  1  0  0  0
  7  6  1  0  0  0
  5  8  2  0  0  0
  2  1  2  0  0  0
 14  6  1  0  0  0
 14 16  1  0  0  0
  6  9  2  0  0  0
  8  1  1  0  0  0
  8 10  1  0  0  0
  9 10  1  0  0  0
 10 11  2  0  0  0
  7 13  1  0  0  0
 16 17  1  0  0  0
M  END
> <minimizedAffinity>
-6.69400

$$$$
5CC2_CKA_A_301


 17 18  0  0  0  0  0  0  0  0999 V2000
    9.0885    8.4813   24.9241 C   0  0  0  0  0  0  0  0  0  0  0  0
    8.4007    7.8460   25.9479 C   0  0  0  0  0  0  0  0  0  0  0  0
    8.7236    6.5066   26.2482 C   0  0  0  0  0  0  0  0  0  0  0  0
    9.6988    5.8033   25.5604 C   0  0  0  0  0  0  0  0  0  0  0  0
   10.3929    6.4603   24.5196 C   0  0  0  0  0  0  0  0  0  0  0  0
   12.0624    6.3939   22.7958 C   0  0  0  0  0  0  0  0  0  0  0  0
   11.3680    5.8120   23.8054 N   0  0  0  0  0  0  0  0  0  0  0  0
   10.0916    7.8101   24.1931 C   0  0  0  0  0  0  0  0  0  0  0  0
   11.8212    7.6961   22.4302 C   0  0  0  0  0  0  0  0  0  0  0  0
   10.8185    8.5037   23.0977 C   0  0  0  0  0  0  0  0  0  0  0  0
   10.5684    9.6838   22.7945 O   0  0  0  0  0  0  0  0  0  0  0  0
    7.8569    5.7022   27.5414 Cl  0  0  0  0  0  0  0  0  0  0  0  0
   11.5741    4.8776   24.0370 H   0  0  0  0  0  0  0  0  0  0  0  0
   13.1156    5.4716   22.1357 C   0  0  0  0  0  0  0  0  0  0  0  0
   12.6292    4.5762   21.4024 O   0  0  0  0  0  0  0  0  0  0  0  0
   14.3115    5.7063   22.4038 O   0  0  0  0  0  0  0  0  0  0  0  0
   14.5333    6.4163   22.9737 H   0  0  0  0  0  0  0  0  0  0  0  0
 12  3  1  0  0  0
  4  3  2  0  0  0
  4  5  1  0  0  0
  3  2  1  0  0  0
 15 14  2  0  0  0
  7  5  1  0  0  0
  7  6  1  0  0  0
  5  8  2  0  0  0
  2  1  2  0  0  0
 14  6  1  0  0  0
 14 16  1  0  0  0
  6  9  2  0  0  0
  8  1  1  0  0  0
  8 10  1  0  0  0
  9 10  1  0  0  0
 10 11  2  0  0  0
  7 13  1  0  0  0
 16 17  1  0  0  0
M  END
> <minimizedAffinity>
-6.64599

$$$$
5CC2_CKA_A_301


 17 18  0  0  0  0  0  0  0  0999 V2000
    8.0259    7.9289   24.0859 C   0  0  0  0  0  0  0  0  0  0  0  0
    7.4130    8.9684   23.4014 C   0  0  0  0  0  0  0  0  0  0  0  0
    8.1333    9.6209   22.3796 C   0  0  0  0  0  0  0  0  0  0  0  0
    9.4267    9.2639   22.0353 C   0  0  0  0  0  0  0  0  0  0  0  0
   10.0410    8.2038   22.7393 C   0  0  0  0  0  0  0  0  0  0  0  0
   11.9574    6.8001   23.0859 C   0  0  0  0  0  0  0  0  0  0  0  0
   11.3199    7.8087   22.4405 N   0  0  0  0  0  0  0  0  0  0  0  0
    9.3415    7.5256   23.7738 C   0  0  0  0  0  0  0  0  0  0  0  0
   11.3379    6.1030   24.0947 C   0  0  0  0  0  0  0  0  0  0  0  0
    9.9854    6.4112   24.5175 C   0  0  0  0  0  0  0  0  0  0  0  0
    9.3915    5.8062   25.4278 O   0  0  0  0  0  0  0  0  0  0  0  0
    7.3611   10.9336   21.5129 Cl  0  0  0  0  0  0  0  0  0  0  0  0
   11.7993    8.2806   21.7216 H   0  0  0  0  0  0  0  0  0  0  0  0
   13.3937    6.5285   22.5771 C   0  0  0  0  0  0  0  0  0  0  0  0
   13.4511    5.7801   21.5708 O   0  0  0  0  0  0  0  0  0  0  0  0
   14.3235    7.0649   23.2135 O   0  0  0  0  0  0  0  0  0  0  0  0
   14.1330    7.6062   23.9543 H   0  0  0  0  0  0  0  0  0  0  0  0
 12  3  1  0  0  0
  4  3  2  0  0  0
  4  5  1  0  0  0
  3  2  1  0  0  0
 15 14  2  0  0  0
  7  5  1  0  0  0
  7  6  1  0  0  0
  5  8  2  0  0  0
  2  1  2  0  0  0
 14  6  1  0  0  0
 14 16  1  0  0  0
  6  9  2  0  0  0
  8  1  1  0  0  0
  8 10  1  0  0  0
  9 10  1  0  0  0
 10 11  2  0  0  0
  7 13  1  0  0  0
 16 17  1  0  0  0
M  END
> <minimizedAffinity>
-6.56486

$$$$
