4ABE_913_A_1254
  RCSB PDB12061711383D
Coordinates from PDB:4ABE:A:1254 Model:1 without hydrogens
 13 14  0  0  0  0            999 V2000
   -1.8170   16.0610   18.2590   C 0  0  0  0  0  0  0  0  0  0  0  0
   -3.0940   15.9260   19.0130   N 0  0  0  0  0  0  0  0  0  0  0  0
   -1.7230   15.1360   17.0450   C 0  0  0  0  0  0  0  0  0  0  0  0
   -3.0610   11.9550   15.3360   N 0  0  0  0  0  0  0  0  0  0  0  0
   -0.9570   15.5620   15.9930   C 0  0  0  0  0  0  0  0  0  0  0  0
   -0.8960   14.8470   14.8230   C 0  0  0  0  0  0  0  0  0  0  0  0
   -1.5620   13.6560   14.6280   C 0  0  0  0  0  0  0  0  0  0  0  0
   -2.3440   13.2010   15.6380   C 0  0  0  0  0  0  0  0  0  0  0  0
   -2.6060   10.9080   14.5570   C 0  0  0  0  0  0  0  0  0  0  0  0
   -3.5600    9.9270   14.6450   C 0  0  0  0  0  0  0  0  0  0  0  0
   -4.5490   10.5020   15.4970   C 0  0  0  0  0  0  0  0  0  0  0  0
   -2.4120   13.9490   16.7980   C 0  0  0  0  0  0  0  0  0  0  0  0
   -4.2930   11.7620   15.8630   N 0  0  0  0  0  0  0  0  0  0  0  0
  1  2  1  0  0  0  0
  1  3  1  0  0  0  0
  3  5  1  0  0  0  0
  3 12  2  0  0  0  0
  4  8  1  0  0  0  0
  4  9  1  0  0  0  0
  4 13  1  0  0  0  0
  5  6  2  0  0  0  0
  6  7  1  0  0  0  0
  7  8  2  0  0  0  0
  8 12  1  0  0  0  0
  9 10  2  0  0  0  0
 10 11  1  0  0  0  0
 11 13  2  0  0  0  0
A    1
C1
A    2
N1
A    3
C2
A    4
N2
A    5
C3
A    6
C4
A    7
C5
A    8
C6
A    9
C7
A   10
C8
A   11
C9
A   12
C11
A   13
N8
M  END
>  <InstanceId>
4ABE_913_A_1254

>  <ChemCompId>
913

>  <PdbId>
4ABE

>  <ChainId>
A

>  <ResidueNumber>
1254

>  <InsertionCode>


>  <Model>
1

>  <AltIds>


>  <MissingHeavyAtoms>
0

>  <ObservedFormula>
C10 N3

>  <Name>
(3-PYRAZOL-1-YLPHENYL)METHANAMINE

>  <SystematicName>
(3-pyrazol-1-ylphenyl)methanamine

>  <Synonyms>
FRAGMENT CC32913

>  <Type>
NON-POLYMER

>  <Formula>
C10 H11 N3

>  <MolecularWeight>
173.214

>  <ModifiedDate>
2014-09-05

>  <Parent>


>  <OneLetterCode>


>  <SubcomponentList>


>  <AmbiguousFlag>
N

>  <InChI>
InChI=1S/C10H11N3/c11-8-9-3-1-4-10(7-9)13-6-2-5-12-13/h1-7H,8,11H2

>  <InChIKey>
YWZKZHCZKIKAAC-UHFFFAOYSA-N

>  <SMILES>
c1cc(cc(c1)n2cccn2)CN

$$$$
