1UA4_AMP_A_1456
  RCSB PDB12061704123D
Coordinates from PDB:1UA4:A:1456 Model:1 without hydrogens
 23 25  0  0  0  0            999 V2000
   19.3020   18.8000    8.2670   P 0  0  0  0  0  0  0  0  0  0  0  0
   20.5460   19.0390    8.9920   O 0  0  0  0  0  0  0  0  0  0  0  0
   19.2500   19.5300    6.9750   O 0  0  0  0  0  0  0  0  0  0  0  0
   18.0840   19.0870    9.1180   O 0  0  0  0  0  0  0  0  0  0  0  0
   19.3570   17.1880    7.9180   O 0  0  0  0  0  0  0  0  0  0  0  0
   18.2480   16.5440    7.2100   C 0  0  0  0  0  0  0  0  0  0  0  0
   18.2510   15.1230    7.8030   C 0  0  0  0  0  0  0  0  0  0  0  0
   17.1430   14.2550    7.3520   O 0  0  0  0  0  0  0  0  0  0  0  0
   19.6810   14.2410    7.5470   C 0  0  0  0  0  0  0  0  0  0  0  0
   20.6300   14.5090    8.6710   O 0  0  0  0  0  0  0  0  0  0  0  0
   19.0940   12.7580    7.4710   C 0  0  0  0  0  0  0  0  0  0  0  0
   19.1060   12.1380    8.7400   O 0  0  0  0  0  0  0  0  0  0  0  0
   17.5580   12.9210    7.0420   C 0  0  0  0  0  0  0  0  0  0  0  0
   17.3040   12.5400    5.6290   N 0  0  0  0  0  0  0  0  0  0  0  0
   17.6880   13.1670    4.4320   C 0  0  0  0  0  0  0  0  0  0  0  0
   17.3030   12.5620    3.2790   N 0  0  0  0  0  0  0  0  0  0  0  0
   16.6210   11.4610    3.8160   C 0  0  0  0  0  0  0  0  0  0  0  0
   15.9440   10.3760    3.1840   C 0  0  0  0  0  0  0  0  0  0  0  0
   15.9110   10.3180    1.8050   N 0  0  0  0  0  0  0  0  0  0  0  0
   15.3610    9.4360    4.0430   N 0  0  0  0  0  0  0  0  0  0  0  0
   15.4160    9.5250    5.3900   C 0  0  0  0  0  0  0  0  0  0  0  0
   16.0350   10.5120    6.0700   N 0  0  0  0  0  0  0  0  0  0  0  0
   16.6080   11.4370    5.2350   C 0  0  0  0  0  0  0  0  0  0  0  0
  1  2  2  0  0  0  0
  1  3  1  0  0  0  0
  1  4  1  0  0  0  0
  1  5  1  0  0  0  0
  5  6  1  0  0  0  0
  6  7  1  0  0  0  0
  7  8  1  0  0  0  0
  7  9  1  0  0  0  0
  8 13  1  0  0  0  0
  9 10  1  0  0  0  0
  9 11  1  0  0  0  0
 11 12  1  0  0  0  0
 11 13  1  0  0  0  0
 13 14  1  0  0  0  0
 14 15  1  0  0  0  0
 14 23  1  0  0  0  0
 15 16  2  0  0  0  0
 16 17  1  0  0  0  0
 17 18  1  0  0  0  0
 17 23  2  0  0  0  0
 18 19  1  0  0  0  0
 18 20  2  0  0  0  0
 20 21  1  0  0  0  0
 21 22  2  0  0  0  0
 22 23  1  0  0  0  0
A    1
P
A    2
O1P
A    3
O2P
A    4
O3P
A    5
O5'
A    6
C5'
A    7
C4'
A    8
O4'
A    9
C3'
A   10
O3'
A   11
C2'
A   12
O2'
A   13
C1'
A   14
N9
A   15
C8
A   16
N7
A   17
C5
A   18
C6
A   19
N6
A   20
N1
A   21
C2
A   22
N3
A   23
C4
M  END
>  <InstanceId>
1UA4_AMP_A_1456

>  <ChemCompId>
AMP

>  <PdbId>
1UA4

>  <ChainId>
A

>  <ResidueNumber>
1456

>  <InsertionCode>


>  <Model>
1

>  <AltIds>


>  <MissingHeavyAtoms>
0

>  <ObservedFormula>
C10 N5 O7 P

>  <Name>
ADENOSINE MONOPHOSPHATE

>  <SystematicName>
[(2R,3S,4R,5R)-5-(6-aminopurin-9-yl)-3,4-bis(oxidanyl)oxolan-2-yl]methyl dihydrogen phosphate

>  <Synonyms>


>  <Type>
NON-POLYMER

>  <Formula>
C10 H14 N5 O7 P

>  <MolecularWeight>
347.221

>  <ModifiedDate>
2011-12-08

>  <Parent>


>  <OneLetterCode>


>  <SubcomponentList>


>  <AmbiguousFlag>
N

>  <InChI>
InChI=1S/C10H14N5O7P/c11-8-5-9(13-2-12-8)15(3-14-5)10-7(17)6(16)4(22-10)1-21-23(18,19)20/h2-4,6-7,10,16-17H,1H2,(H2,11,12,13)(H2,18,19,20)/t4-,6-,7-,10-/m1/s1

>  <InChIKey>
UDMBCSSLTHHNCD-KQYNXXCUSA-N

>  <SMILES>
c1nc(c2c(n1)n(cn2)[C@H]3[C@@H]([C@@H]([C@H](O3)COP(=O)(O)O)O)O)N

$$$$
