2I0A_MUI_A_200


 47 50  0  0  0  0  0  0  0  0999 V2000
   18.0636   30.9120   15.5802 C   0  0  0  0  0  0  0  0  0  0  0  0
   16.1628   32.3602   16.2160 C   0  0  0  0  0  0  0  0  0  0  0  0
   15.3196   31.4706   16.1655 O   0  0  0  0  0  0  0  0  0  0  0  0
   17.4697   32.1820   16.0105 N   0  0  0  0  0  0  0  0  0  0  0  0
   18.0703   32.9483   16.1565 H   0  0  0  0  0  0  0  0  0  0  0  0
   16.7789   35.5303   17.5698 N   0  0  0  0  0  0  0  0  0  0  0  0
   15.8020   35.1479   18.3662 C   0  0  0  0  0  0  0  0  0  0  0  0
   15.4015   35.6644   19.3969 O   0  0  0  0  0  0  0  0  0  0  0  0
   15.1778   33.9721   17.8130 O   0  0  0  0  0  0  0  0  0  0  0  0
   16.9871   34.6246   16.4556 C   0  0  0  0  0  0  0  0  0  0  0  0
   15.7158   33.7622   16.5031 C   0  0  0  0  0  0  0  0  0  0  0  0
   19.0445   39.0642   17.8215 C   0  0  0  0  0  0  0  0  0  0  0  0
   19.5265   37.8602   18.3328 C   0  0  0  0  0  0  0  0  0  0  0  0
   18.7730   36.7044   18.2547 C   0  0  0  0  0  0  0  0  0  0  0  0
   17.7942   39.0965   17.2199 C   0  0  0  0  0  0  0  0  0  0  0  0
   17.0321   37.9353   17.1317 C   0  0  0  0  0  0  0  0  0  0  0  0
   17.5045   36.7301   17.6692 C   0  0  0  0  0  0  0  0  0  0  0  0
   20.0948   40.8479   18.9848 O   0  0  0  0  0  0  0  0  0  0  0  0
   19.8779   40.3104   17.9003 C   0  0  0  0  0  0  0  0  0  0  0  0
   20.4081   40.8843   16.6274 C   0  0  0  0  0  0  0  0  0  0  0  0
   19.4888   30.6795   16.0812 C   0  0  0  0  0  0  0  0  0  0  0  0
   19.4994   29.8511   17.2500 O   0  0  0  0  0  0  0  0  0  0  0  0
   19.0160   30.2942   17.9648 H   0  0  0  0  0  0  0  0  0  0  0  0
   20.1801   32.0154   16.3921 C   0  0  0  0  0  0  0  0  0  0  0  0
   21.6336   31.9026   16.1088 N   0  0  0  0  0  0  0  0  0  0  0  0
   22.0528   31.9805   14.5276 S   0  0  0  0  0  0  0  0  0  0  0  0
   23.4393   32.3043   14.4409 O   0  0  0  0  0  0  0  0  0  0  0  0
   21.2509   33.0625   14.0046 O   0  0  0  0  0  0  0  0  0  0  0  0
   21.7452   30.6001   13.7351 C   0  0  0  0  0  0  0  0  0  0  0  0
   21.2691   30.6010   12.4180 C   0  0  0  0  0  0  0  0  0  0  0  0
   21.0329   29.3973   11.7348 C   0  0  0  0  0  0  0  0  0  0  0  0
   21.2616   28.1732   12.3606 C   0  0  0  0  0  0  0  0  0  0  0  0
   21.7259   28.1684   13.6829 C   0  0  0  0  0  0  0  0  0  0  0  0
   21.9621   29.3719   14.3547 C   0  0  0  0  0  0  0  0  0  0  0  0
   21.0234   27.0032   11.6754 O   0  0  0  0  0  0  0  0  0  0  0  0
   21.9452   25.9097   11.6838 C   0  0  0  0  0  0  0  0  0  0  0  0
   22.4508   32.8126   16.9415 C   0  0  0  0  0  0  0  0  0  0  0  0
   21.6144   33.9836   17.4700 C   0  0  0  0  0  0  0  0  0  0  0  0
   21.7286   35.1738   16.5247 C   0  0  0  0  0  0  0  0  0  0  0  0
   21.9973   34.3919   18.8948 C   0  0  0  0  0  0  0  0  0  0  0  0
   17.9305   31.0023   14.0477 C   0  0  0  0  0  0  0  0  0  0  0  0
   17.8040   29.5987   13.4667 C   0  0  0  0  0  0  0  0  0  0  0  0
   17.5272   29.4146   12.1176 C   0  0  0  0  0  0  0  0  0  0  0  0
   17.4451   28.1260   11.5919 C   0  0  0  0  0  0  0  0  0  0  0  0
   17.6194   27.0134   12.4018 C   0  0  0  0  0  0  0  0  0  0  0  0
   17.9011   27.1887   13.7518 C   0  0  0  0  0  0  0  0  0  0  0  0
   17.9877   28.4715   14.2793 C   0  0  0  0  0  0  0  0  0  0  0  0
 18 19  2  0  0  0
 19 20  1  0  0  0
 19 12  1  0  0  0
 12 13  2  0  0  0
 12 15  1  0  0  0
 13 14  1  0  0  0
 14 17  2  0  0  0
 15 16  2  0  0  0
 16 17  1  0  0  0
 17  6  1  0  0  0
  6 10  1  0  0  0
  6  7  1  0  0  0
  7  8  2  0  0  0
  7  9  1  0  0  0
  9 11  1  0  0  0
 10 11  1  0  0  0
 11  2  1  0  0  0
  2  3  2  0  0  0
  2  4  1  0  0  0
  4  1  1  0  0  0
  1 41  1  0  0  0
  1 21  1  0  0  0
 41 42  1  0  0  0
 42 43  2  0  0  0
 42 47  1  0  0  0
 43 44  1  0  0  0
 44 45  2  0  0  0
 45 46  1  0  0  0
 46 47  2  0  0  0
 21 24  1  0  0  0
 21 22  1  0  0  0
 24 25  1  0  0  0
 25 26  1  0  0  0
 25 37  1  0  0  0
 37 38  1  0  0  0
 38 40  1  0  0  0
 38 39  1  0  0  0
 26 28  2  0  0  0
 26 27  2  0  0  0
 26 29  1  0  0  0
 29 34  2  0  0  0
 29 30  1  0  0  0
 30 31  2  0  0  0
 31 32  1  0  0  0
 32 33  2  0  0  0
 32 35  1  0  0  0
 35 36  1  0  0  0
 33 34  1  0  0  0
  4  5  1  0  0  0
 22 23  1  0  0  0
M  END
> <minimizedAffinity>
-9.58303

$$$$
2I0A_MUI_A_200


 47 50  0  0  0  0  0  0  0  0999 V2000
   21.7904   29.5349   12.9004 C   0  0  0  0  0  0  0  0  0  0  0  0
   19.8201   31.0100   12.6618 C   0  0  0  0  0  0  0  0  0  0  0  0
   20.2976   31.6936   11.7621 O   0  0  0  0  0  0  0  0  0  0  0  0
   20.4208   29.9540   13.2152 N   0  0  0  0  0  0  0  0  0  0  0  0
   19.9144   29.4254   13.8735 H   0  0  0  0  0  0  0  0  0  0  0  0
   17.8635   32.4696   15.1724 N   0  0  0  0  0  0  0  0  0  0  0  0
   17.4759   31.2178   15.3050 C   0  0  0  0  0  0  0  0  0  0  0  0
   16.8062   30.7082   16.1889 O   0  0  0  0  0  0  0  0  0  0  0  0
   17.9366   30.4603   14.1682 O   0  0  0  0  0  0  0  0  0  0  0  0
   18.6937   32.6832   14.0018 C   0  0  0  0  0  0  0  0  0  0  0  0
   18.4768   31.3812   13.2145 C   0  0  0  0  0  0  0  0  0  0  0  0
   16.7744   35.7275   17.5982 C   0  0  0  0  0  0  0  0  0  0  0  0
   17.7282   34.8018   18.0188 C   0  0  0  0  0  0  0  0  0  0  0  0
   18.0750   33.7285   17.2203 C   0  0  0  0  0  0  0  0  0  0  0  0
   16.1732   35.5696   16.3572 C   0  0  0  0  0  0  0  0  0  0  0  0
   16.5220   34.4948   15.5447 C   0  0  0  0  0  0  0  0  0  0  0  0
   17.4612   33.5490   15.9780 C   0  0  0  0  0  0  0  0  0  0  0  0
   17.2948   37.5576   19.0187 O   0  0  0  0  0  0  0  0  0  0  0  0
   16.4156   36.8968   18.4686 C   0  0  0  0  0  0  0  0  0  0  0  0
   14.9687   37.2120   18.6630 C   0  0  0  0  0  0  0  0  0  0  0  0
   21.8846   28.2468   12.0829 C   0  0  0  0  0  0  0  0  0  0  0  0
   21.6895   28.5027   10.6868 O   0  0  0  0  0  0  0  0  0  0  0  0
   20.8005   28.8642   10.5455 H   0  0  0  0  0  0  0  0  0  0  0  0
   20.8501   27.2197   12.5665 C   0  0  0  0  0  0  0  0  0  0  0  0
   20.0446   26.7424   11.4136 N   0  0  0  0  0  0  0  0  0  0  0  0
   20.3580   25.2133   10.9182 S   0  0  0  0  0  0  0  0  0  0  0  0
   19.1177   24.5422   10.7042 O   0  0  0  0  0  0  0  0  0  0  0  0
   21.0636   24.6213   12.0313 O   0  0  0  0  0  0  0  0  0  0  0  0
   21.2625   25.1694    9.5736 C   0  0  0  0  0  0  0  0  0  0  0  0
   22.6547   25.0283    9.6305 C   0  0  0  0  0  0  0  0  0  0  0  0
   23.4226   24.9647    8.4567 C   0  0  0  0  0  0  0  0  0  0  0  0
   22.8111   25.0489    7.2071 C   0  0  0  0  0  0  0  0  0  0  0  0
   21.4195   25.2029    7.1465 C   0  0  0  0  0  0  0  0  0  0  0  0
   20.6620   25.2617    8.3205 C   0  0  0  0  0  0  0  0  0  0  0  0
   23.5803   24.9856    6.0671 O   0  0  0  0  0  0  0  0  0  0  0  0
   24.6909   24.0933    5.9414 C   0  0  0  0  0  0  0  0  0  0  0  0
   18.5948   26.9782   11.5923 C   0  0  0  0  0  0  0  0  0  0  0  0
   18.0884   28.0707   10.6436 C   0  0  0  0  0  0  0  0  0  0  0  0
   16.8411   28.7272   11.2237 C   0  0  0  0  0  0  0  0  0  0  0  0
   17.8125   27.5498    9.2309 C   0  0  0  0  0  0  0  0  0  0  0  0
   22.4271   29.4521   14.3012 C   0  0  0  0  0  0  0  0  0  0  0  0
   22.3671   30.8223   14.9666 C   0  0  0  0  0  0  0  0  0  0  0  0
   21.4356   31.0833   15.9640 C   0  0  0  0  0  0  0  0  0  0  0  0
   21.4115   32.3303   16.5868 C   0  0  0  0  0  0  0  0  0  0  0  0
   22.2974   33.3304   16.2138 C   0  0  0  0  0  0  0  0  0  0  0  0
   23.2354   33.0763   15.2199 C   0  0  0  0  0  0  0  0  0  0  0  0
   23.2656   31.8333   14.5990 C   0  0  0  0  0  0  0  0  0  0  0  0
 18 19  2  0  0  0
 19 20  1  0  0  0
 19 12  1  0  0  0
 12 13  2  0  0  0
 12 15  1  0  0  0
 13 14  1  0  0  0
 14 17  2  0  0  0
 15 16  2  0  0  0
 16 17  1  0  0  0
 17  6  1  0  0  0
  6 10  1  0  0  0
  6  7  1  0  0  0
  7  8  2  0  0  0
  7  9  1  0  0  0
  9 11  1  0  0  0
 10 11  1  0  0  0
 11  2  1  0  0  0
  2  3  2  0  0  0
  2  4  1  0  0  0
  4  1  1  0  0  0
  1 41  1  0  0  0
  1 21  1  0  0  0
 41 42  1  0  0  0
 42 43  2  0  0  0
 42 47  1  0  0  0
 43 44  1  0  0  0
 44 45  2  0  0  0
 45 46  1  0  0  0
 46 47  2  0  0  0
 21 24  1  0  0  0
 21 22  1  0  0  0
 24 25  1  0  0  0
 25 26  1  0  0  0
 25 37  1  0  0  0
 37 38  1  0  0  0
 38 40  1  0  0  0
 38 39  1  0  0  0
 26 28  2  0  0  0
 26 27  2  0  0  0
 26 29  1  0  0  0
 29 34  2  0  0  0
 29 30  1  0  0  0
 30 31  2  0  0  0
 31 32  1  0  0  0
 32 33  2  0  0  0
 32 35  1  0  0  0
 35 36  1  0  0  0
 33 34  1  0  0  0
  4  5  1  0  0  0
 22 23  1  0  0  0
M  END
> <minimizedAffinity>
-9.07958

$$$$
2I0A_MUI_A_200


 47 50  0  0  0  0  0  0  0  0999 V2000
   19.5848   28.7158   14.0397 C   0  0  0  0  0  0  0  0  0  0  0  0
   21.5633   27.8853   12.8107 C   0  0  0  0  0  0  0  0  0  0  0  0
   22.0176   28.9971   12.5610 O   0  0  0  0  0  0  0  0  0  0  0  0
   20.4662   27.6573   13.5362 N   0  0  0  0  0  0  0  0  0  0  0  0
   20.2352   26.7235   13.7458 H   0  0  0  0  0  0  0  0  0  0  0  0
   22.1429   25.6647   10.1658 N   0  0  0  0  0  0  0  0  0  0  0  0
   21.5737   24.8351   11.0159 C   0  0  0  0  0  0  0  0  0  0  0  0
   21.1754   23.6963   10.8314 O   0  0  0  0  0  0  0  0  0  0  0  0
   21.5063   25.4631   12.3117 O   0  0  0  0  0  0  0  0  0  0  0  0
   22.4375   26.9593   10.7509 C   0  0  0  0  0  0  0  0  0  0  0  0
   22.2580   26.6800   12.2515 C   0  0  0  0  0  0  0  0  0  0  0  0
   23.4159   24.6471    6.2892 C   0  0  0  0  0  0  0  0  0  0  0  0
   24.3219   24.7416    7.3446 C   0  0  0  0  0  0  0  0  0  0  0  0
   23.8980   25.0852    8.6143 C   0  0  0  0  0  0  0  0  0  0  0  0
   22.0703   24.8945    6.5227 C   0  0  0  0  0  0  0  0  0  0  0  0
   21.6349   25.2347    7.8000 C   0  0  0  0  0  0  0  0  0  0  0  0
   22.5487   25.3561    8.8559 C   0  0  0  0  0  0  0  0  0  0  0  0
   23.6847   25.0009    3.9567 O   0  0  0  0  0  0  0  0  0  0  0  0
   23.8863   24.2599    4.9171 C   0  0  0  0  0  0  0  0  0  0  0  0
   24.5778   22.9461    4.7547 C   0  0  0  0  0  0  0  0  0  0  0  0
   19.9658   29.2519   15.4194 C   0  0  0  0  0  0  0  0  0  0  0  0
   20.0889   28.1899   16.3731 O   0  0  0  0  0  0  0  0  0  0  0  0
   19.2344   27.7409   16.4691 H   0  0  0  0  0  0  0  0  0  0  0  0
   18.9254   30.2681   15.9135 C   0  0  0  0  0  0  0  0  0  0  0  0
   19.2294   31.6077   15.3490 N   0  0  0  0  0  0  0  0  0  0  0  0
   17.9978   32.3330   14.5497 S   0  0  0  0  0  0  0  0  0  0  0  0
   17.2094   31.3250   13.9195 O   0  0  0  0  0  0  0  0  0  0  0  0
   18.6563   33.1495   13.5563 O   0  0  0  0  0  0  0  0  0  0  0  0
   17.0757   33.2429   15.5244 C   0  0  0  0  0  0  0  0  0  0  0  0
   17.0713   34.6406   15.4352 C   0  0  0  0  0  0  0  0  0  0  0  0
   16.2472   35.4147   16.2679 C   0  0  0  0  0  0  0  0  0  0  0  0
   15.4200   34.8035   17.2084 C   0  0  0  0  0  0  0  0  0  0  0  0
   15.4312   33.4058   17.3092 C   0  0  0  0  0  0  0  0  0  0  0  0
   16.2524   32.6423   16.4734 C   0  0  0  0  0  0  0  0  0  0  0  0
   14.6195   35.5787   18.0169 O   0  0  0  0  0  0  0  0  0  0  0  0
   15.1331   36.6754   18.7778 C   0  0  0  0  0  0  0  0  0  0  0  0
   19.8572   32.5148   16.3351 C   0  0  0  0  0  0  0  0  0  0  0  0
   21.3848   32.5021   16.2081 C   0  0  0  0  0  0  0  0  0  0  0  0
   21.9755   33.7237   16.9024 C   0  0  0  0  0  0  0  0  0  0  0  0
   21.8597   32.4295   14.7547 C   0  0  0  0  0  0  0  0  0  0  0  0
   18.2035   28.0357   13.9762 C   0  0  0  0  0  0  0  0  0  0  0  0
   17.9031   27.6325   12.5371 C   0  0  0  0  0  0  0  0  0  0  0  0
   17.5326   28.5875   11.5984 C   0  0  0  0  0  0  0  0  0  0  0  0
   17.2911   28.2107   10.2780 C   0  0  0  0  0  0  0  0  0  0  0  0
   17.3981   26.8849    9.8843 C   0  0  0  0  0  0  0  0  0  0  0  0
   17.7725   25.9238   10.8161 C   0  0  0  0  0  0  0  0  0  0  0  0
   18.0180   26.2954   12.1326 C   0  0  0  0  0  0  0  0  0  0  0  0
 18 19  2  0  0  0
 19 20  1  0  0  0
 19 12  1  0  0  0
 12 13  2  0  0  0
 12 15  1  0  0  0
 13 14  1  0  0  0
 14 17  2  0  0  0
 15 16  2  0  0  0
 16 17  1  0  0  0
 17  6  1  0  0  0
  6 10  1  0  0  0
  6  7  1  0  0  0
  7  8  2  0  0  0
  7  9  1  0  0  0
  9 11  1  0  0  0
 10 11  1  0  0  0
 11  2  1  0  0  0
  2  3  2  0  0  0
  2  4  1  0  0  0
  4  1  1  0  0  0
  1 41  1  0  0  0
  1 21  1  0  0  0
 41 42  1  0  0  0
 42 43  2  0  0  0
 42 47  1  0  0  0
 43 44  1  0  0  0
 44 45  2  0  0  0
 45 46  1  0  0  0
 46 47  2  0  0  0
 21 24  1  0  0  0
 21 22  1  0  0  0
 24 25  1  0  0  0
 25 26  1  0  0  0
 25 37  1  0  0  0
 37 38  1  0  0  0
 38 40  1  0  0  0
 38 39  1  0  0  0
 26 28  2  0  0  0
 26 27  2  0  0  0
 26 29  1  0  0  0
 29 34  2  0  0  0
 29 30  1  0  0  0
 30 31  2  0  0  0
 31 32  1  0  0  0
 32 33  2  0  0  0
 32 35  1  0  0  0
 35 36  1  0  0  0
 33 34  1  0  0  0
  4  5  1  0  0  0
 22 23  1  0  0  0
M  END
> <minimizedAffinity>
-8.83463

$$$$
2I0A_MUI_A_200


 47 50  0  0  0  0  0  0  0  0999 V2000
   20.1665   35.7106   18.5393 C   0  0  0  0  0  0  0  0  0  0  0  0
   21.5126   34.2000   17.1177 C   0  0  0  0  0  0  0  0  0  0  0  0
   22.0584   33.6209   18.0513 O   0  0  0  0  0  0  0  0  0  0  0  0
   20.5820   35.1478   17.2503 N   0  0  0  0  0  0  0  0  0  0  0  0
   20.1490   35.4891   16.4347 H   0  0  0  0  0  0  0  0  0  0  0  0
   22.2522   31.8075   14.6701 N   0  0  0  0  0  0  0  0  0  0  0  0
   23.4405   32.3636   14.7862 C   0  0  0  0  0  0  0  0  0  0  0  0
   24.5117   31.9937   14.3333 O   0  0  0  0  0  0  0  0  0  0  0  0
   23.3152   33.5869   15.5387 O   0  0  0  0  0  0  0  0  0  0  0  0
   21.2193   32.5249   15.3937 C   0  0  0  0  0  0  0  0  0  0  0  0
   21.9202   33.8539   15.7170 C   0  0  0  0  0  0  0  0  0  0  0  0
   21.2352   28.4598   12.3370 C   0  0  0  0  0  0  0  0  0  0  0  0
   21.8203   28.3125   13.5938 C   0  0  0  0  0  0  0  0  0  0  0  0
   22.1602   29.4171   14.3515 C   0  0  0  0  0  0  0  0  0  0  0  0
   20.9853   29.7342   11.8474 C   0  0  0  0  0  0  0  0  0  0  0  0
   21.3189   30.8514   12.6074 C   0  0  0  0  0  0  0  0  0  0  0  0
   21.9315   30.7048   13.8595 C   0  0  0  0  0  0  0  0  0  0  0  0
   19.8482   27.2617   10.8275 O   0  0  0  0  0  0  0  0  0  0  0  0
   20.8582   27.2521   11.5288 C   0  0  0  0  0  0  0  0  0  0  0  0
   21.7281   26.0418   11.6241 C   0  0  0  0  0  0  0  0  0  0  0  0
   18.8771   35.1139   19.1028 C   0  0  0  0  0  0  0  0  0  0  0  0
   19.1447   34.2699   20.2292 O   0  0  0  0  0  0  0  0  0  0  0  0
   19.7034   33.5273   19.9512 H   0  0  0  0  0  0  0  0  0  0  0  0
   18.1334   34.3115   18.0248 C   0  0  0  0  0  0  0  0  0  0  0  0
   17.0686   35.1534   17.4221 N   0  0  0  0  0  0  0  0  0  0  0  0
   16.2846   34.4929   16.1450 S   0  0  0  0  0  0  0  0  0  0  0  0
   16.3143   35.4229   15.0637 O   0  0  0  0  0  0  0  0  0  0  0  0
   14.9309   34.3155   16.6175 O   0  0  0  0  0  0  0  0  0  0  0  0
   16.9260   33.0759   15.6881 C   0  0  0  0  0  0  0  0  0  0  0  0
   16.7405   31.9100   16.4416 C   0  0  0  0  0  0  0  0  0  0  0  0
   17.2793   30.6841   16.0193 C   0  0  0  0  0  0  0  0  0  0  0  0
   18.0189   30.6061   14.8405 C   0  0  0  0  0  0  0  0  0  0  0  0
   18.2172   31.7732   14.0906 C   0  0  0  0  0  0  0  0  0  0  0  0
   17.6739   32.9893   14.5166 C   0  0  0  0  0  0  0  0  0  0  0  0
   18.5403   29.3956   14.4428 O   0  0  0  0  0  0  0  0  0  0  0  0
   17.8368   28.5091   13.5684 C   0  0  0  0  0  0  0  0  0  0  0  0
   16.1274   35.6923   18.4286 C   0  0  0  0  0  0  0  0  0  0  0  0
   15.8237   37.1723   18.1691 C   0  0  0  0  0  0  0  0  0  0  0  0
   16.8959   37.7740   17.2681 C   0  0  0  0  0  0  0  0  0  0  0  0
   15.6884   37.9861   19.4586 C   0  0  0  0  0  0  0  0  0  0  0  0
   20.0885   37.2158   18.2183 C   0  0  0  0  0  0  0  0  0  0  0  0
   21.4961   37.8000   18.1842 C   0  0  0  0  0  0  0  0  0  0  0  0
   21.8337   38.7762   17.2549 C   0  0  0  0  0  0  0  0  0  0  0  0
   23.1152   39.3252   17.2544 C   0  0  0  0  0  0  0  0  0  0  0  0
   24.0737   38.8986   18.1618 C   0  0  0  0  0  0  0  0  0  0  0  0
   23.7429   37.9255   19.0978 C   0  0  0  0  0  0  0  0  0  0  0  0
   22.4655   37.3782   19.1045 C   0  0  0  0  0  0  0  0  0  0  0  0
 18 19  2  0  0  0
 19 20  1  0  0  0
 19 12  1  0  0  0
 12 13  2  0  0  0
 12 15  1  0  0  0
 13 14  1  0  0  0
 14 17  2  0  0  0
 15 16  2  0  0  0
 16 17  1  0  0  0
 17  6  1  0  0  0
  6 10  1  0  0  0
  6  7  1  0  0  0
  7  8  2  0  0  0
  7  9  1  0  0  0
  9 11  1  0  0  0
 10 11  1  0  0  0
 11  2  1  0  0  0
  2  3  2  0  0  0
  2  4  1  0  0  0
  4  1  1  0  0  0
  1 41  1  0  0  0
  1 21  1  0  0  0
 41 42  1  0  0  0
 42 43  2  0  0  0
 42 47  1  0  0  0
 43 44  1  0  0  0
 44 45  2  0  0  0
 45 46  1  0  0  0
 46 47  2  0  0  0
 21 24  1  0  0  0
 21 22  1  0  0  0
 24 25  1  0  0  0
 25 26  1  0  0  0
 25 37  1  0  0  0
 37 38  1  0  0  0
 38 40  1  0  0  0
 38 39  1  0  0  0
 26 28  2  0  0  0
 26 27  2  0  0  0
 26 29  1  0  0  0
 29 34  2  0  0  0
 29 30  1  0  0  0
 30 31  2  0  0  0
 31 32  1  0  0  0
 32 33  2  0  0  0
 32 35  1  0  0  0
 35 36  1  0  0  0
 33 34  1  0  0  0
  4  5  1  0  0  0
 22 23  1  0  0  0
M  END
> <minimizedAffinity>
-8.59223

$$$$
2I0A_MUI_A_200


 47 50  0  0  0  0  0  0  0  0999 V2000
   17.9102   30.0336   14.3470 C   0  0  0  0  0  0  0  0  0  0  0  0
   16.7709   31.5306   15.9520 C   0  0  0  0  0  0  0  0  0  0  0  0
   16.7853   30.7318   16.8830 O   0  0  0  0  0  0  0  0  0  0  0  0
   17.3165   31.3115   14.7535 N   0  0  0  0  0  0  0  0  0  0  0  0
   17.3207   32.0516   14.1042 H   0  0  0  0  0  0  0  0  0  0  0  0
   16.6794   34.7540   17.3169 N   0  0  0  0  0  0  0  0  0  0  0  0
   15.6643   34.2220   17.9661 C   0  0  0  0  0  0  0  0  0  0  0  0
   15.0381   34.6668   18.9145 O   0  0  0  0  0  0  0  0  0  0  0  0
   15.3196   32.9650   17.3502 O   0  0  0  0  0  0  0  0  0  0  0  0
   17.1905   33.8948   16.2653 C   0  0  0  0  0  0  0  0  0  0  0  0
   16.0749   32.8451   16.1400 C   0  0  0  0  0  0  0  0  0  0  0  0
   18.0892   38.6776   17.8666 C   0  0  0  0  0  0  0  0  0  0  0  0
   17.1357   38.3833   16.8930 C   0  0  0  0  0  0  0  0  0  0  0  0
   16.6833   37.0901   16.7118 C   0  0  0  0  0  0  0  0  0  0  0  0
   18.5822   37.6569   18.6674 C   0  0  0  0  0  0  0  0  0  0  0  0
   18.1266   36.3531   18.4951 C   0  0  0  0  0  0  0  0  0  0  0  0
   17.1879   36.0517   17.4989 C   0  0  0  0  0  0  0  0  0  0  0  0
   18.4744   40.6284   19.1643 O   0  0  0  0  0  0  0  0  0  0  0  0
   18.5631   40.0885   18.0630 C   0  0  0  0  0  0  0  0  0  0  0  0
   19.1168   40.8160   16.8820 C   0  0  0  0  0  0  0  0  0  0  0  0
   19.3258   29.7990   14.8734 C   0  0  0  0  0  0  0  0  0  0  0  0
   19.3032   29.1810   16.1657 O   0  0  0  0  0  0  0  0  0  0  0  0
   18.8592   29.7684   16.7973 H   0  0  0  0  0  0  0  0  0  0  0  0
   20.1031   31.1215   14.9499 C   0  0  0  0  0  0  0  0  0  0  0  0
   21.3728   30.9985   14.1894 N   0  0  0  0  0  0  0  0  0  0  0  0
   22.5021   32.1399   14.5117 S   0  0  0  0  0  0  0  0  0  0  0  0
   22.6594   32.9618   13.3565 O   0  0  0  0  0  0  0  0  0  0  0  0
   23.7075   31.3820   14.7564 O   0  0  0  0  0  0  0  0  0  0  0  0
   22.1191   33.0456   15.8005 C   0  0  0  0  0  0  0  0  0  0  0  0
   22.5648   32.7164   17.0867 C   0  0  0  0  0  0  0  0  0  0  0  0
   22.2478   33.5252   18.1898 C   0  0  0  0  0  0  0  0  0  0  0  0
   21.4733   34.6722   18.0253 C   0  0  0  0  0  0  0  0  0  0  0  0
   21.0149   34.9978   16.7417 C   0  0  0  0  0  0  0  0  0  0  0  0
   21.3385   34.1886   15.6480 C   0  0  0  0  0  0  0  0  0  0  0  0
   21.1717   35.4526   19.1186 O   0  0  0  0  0  0  0  0  0  0  0  0
   21.2180   34.9477   20.4559 C   0  0  0  0  0  0  0  0  0  0  0  0
   21.9392   29.6325   14.2394 C   0  0  0  0  0  0  0  0  0  0  0  0
   22.0268   29.0157   12.8387 C   0  0  0  0  0  0  0  0  0  0  0  0
   21.2879   29.8937   11.8356 C   0  0  0  0  0  0  0  0  0  0  0  0
   21.4970   27.5804   12.7874 C   0  0  0  0  0  0  0  0  0  0  0  0
   17.8021   30.1074   12.8116 C   0  0  0  0  0  0  0  0  0  0  0  0
   17.8296   28.6971   12.2335 C   0  0  0  0  0  0  0  0  0  0  0  0
   17.9340   28.4973   10.8625 C   0  0  0  0  0  0  0  0  0  0  0  0
   17.9898   27.2026   10.3486 C   0  0  0  0  0  0  0  0  0  0  0  0
   17.9254   26.0995   11.1872 C   0  0  0  0  0  0  0  0  0  0  0  0
   17.8254   26.2906   12.5605 C   0  0  0  0  0  0  0  0  0  0  0  0
   17.7732   27.5795   13.0775 C   0  0  0  0  0  0  0  0  0  0  0  0
 18 19  2  0  0  0
 19 20  1  0  0  0
 19 12  1  0  0  0
 12 13  2  0  0  0
 12 15  1  0  0  0
 13 14  1  0  0  0
 14 17  2  0  0  0
 15 16  2  0  0  0
 16 17  1  0  0  0
 17  6  1  0  0  0
  6 10  1  0  0  0
  6  7  1  0  0  0
  7  8  2  0  0  0
  7  9  1  0  0  0
  9 11  1  0  0  0
 10 11  1  0  0  0
 11  2  1  0  0  0
  2  3  2  0  0  0
  2  4  1  0  0  0
  4  1  1  0  0  0
  1 41  1  0  0  0
  1 21  1  0  0  0
 41 42  1  0  0  0
 42 43  2  0  0  0
 42 47  1  0  0  0
 43 44  1  0  0  0
 44 45  2  0  0  0
 45 46  1  0  0  0
 46 47  2  0  0  0
 21 24  1  0  0  0
 21 22  1  0  0  0
 24 25  1  0  0  0
 25 26  1  0  0  0
 25 37  1  0  0  0
 37 38  1  0  0  0
 38 40  1  0  0  0
 38 39  1  0  0  0
 26 28  2  0  0  0
 26 27  2  0  0  0
 26 29  1  0  0  0
 29 34  2  0  0  0
 29 30  1  0  0  0
 30 31  2  0  0  0
 31 32  1  0  0  0
 32 33  2  0  0  0
 32 35  1  0  0  0
 35 36  1  0  0  0
 33 34  1  0  0  0
  4  5  1  0  0  0
 22 23  1  0  0  0
M  END
> <minimizedAffinity>
-8.52072

$$$$
2I0A_MUI_A_200


 47 50  0  0  0  0  0  0  0  0999 V2000
   18.9223   30.7677   14.2323 C   0  0  0  0  0  0  0  0  0  0  0  0
   17.1746   31.8164   15.6325 C   0  0  0  0  0  0  0  0  0  0  0  0
   16.7725   30.7648   16.1197 O   0  0  0  0  0  0  0  0  0  0  0  0
   18.2026   31.9188   14.7871 N   0  0  0  0  0  0  0  0  0  0  0  0
   18.4948   32.8202   14.5202 H   0  0  0  0  0  0  0  0  0  0  0  0
   17.0372   34.8463   17.3825 N   0  0  0  0  0  0  0  0  0  0  0  0
   16.0255   34.2269   17.9550 C   0  0  0  0  0  0  0  0  0  0  0  0
   15.3893   34.5446   18.9469 O   0  0  0  0  0  0  0  0  0  0  0  0
   15.6992   33.0512   17.1872 O   0  0  0  0  0  0  0  0  0  0  0  0
   17.5638   34.1289   16.2366 C   0  0  0  0  0  0  0  0  0  0  0  0
   16.4617   33.0897   15.9763 C   0  0  0  0  0  0  0  0  0  0  0  0
   18.6165   38.6156   18.3741 C   0  0  0  0  0  0  0  0  0  0  0  0
   19.2146   37.4407   18.8274 C   0  0  0  0  0  0  0  0  0  0  0  0
   18.6852   36.2055   18.5051 C   0  0  0  0  0  0  0  0  0  0  0  0
   17.4791   38.5390   17.5824 C   0  0  0  0  0  0  0  0  0  0  0  0
   16.9438   37.2985   17.2484 C   0  0  0  0  0  0  0  0  0  0  0  0
   17.5288   36.1177   17.7257 C   0  0  0  0  0  0  0  0  0  0  0  0
   19.3926   40.2666   19.8938 O   0  0  0  0  0  0  0  0  0  0  0  0
   19.2085   39.9512   18.7196 C   0  0  0  0  0  0  0  0  0  0  0  0
   19.5393   40.8849   17.6019 C   0  0  0  0  0  0  0  0  0  0  0  0
   18.0196   29.6623   13.6851 C   0  0  0  0  0  0  0  0  0  0  0  0
   18.2037   28.4377   14.4055 O   0  0  0  0  0  0  0  0  0  0  0  0
   19.1191   28.1349   14.2998 H   0  0  0  0  0  0  0  0  0  0  0  0
   18.2936   29.4263   12.1924 C   0  0  0  0  0  0  0  0  0  0  0  0
   19.2608   28.3106   12.0331 N   0  0  0  0  0  0  0  0  0  0  0  0
   18.6572   26.9433   11.3637 S   0  0  0  0  0  0  0  0  0  0  0  0
   17.6179   27.3030   10.4554 O   0  0  0  0  0  0  0  0  0  0  0  0
   18.1131   26.2136   12.4857 O   0  0  0  0  0  0  0  0  0  0  0  0
   19.7927   26.0702   10.6045 C   0  0  0  0  0  0  0  0  0  0  0  0
   20.0454   26.2273    9.2359 C   0  0  0  0  0  0  0  0  0  0  0  0
   21.0506   25.4834    8.5973 C   0  0  0  0  0  0  0  0  0  0  0  0
   21.8140   24.5648    9.3156 C   0  0  0  0  0  0  0  0  0  0  0  0
   21.5554   24.3958   10.6825 C   0  0  0  0  0  0  0  0  0  0  0  0
   20.5548   25.1435   11.3114 C   0  0  0  0  0  0  0  0  0  0  0  0
   22.7946   23.8438    8.6723 O   0  0  0  0  0  0  0  0  0  0  0  0
   23.0445   23.9728    7.2701 C   0  0  0  0  0  0  0  0  0  0  0  0
   20.5202   28.7341   11.3820 C   0  0  0  0  0  0  0  0  0  0  0  0
   21.7140   28.5860   12.3322 C   0  0  0  0  0  0  0  0  0  0  0  0
   22.8559   27.8648   11.6257 C   0  0  0  0  0  0  0  0  0  0  0  0
   21.3512   27.8687   13.6350 C   0  0  0  0  0  0  0  0  0  0  0  0
   19.8061   30.3428   15.4209 C   0  0  0  0  0  0  0  0  0  0  0  0
   21.0324   31.2458   15.4886 C   0  0  0  0  0  0  0  0  0  0  0  0
   21.3871   31.8677   16.6793 C   0  0  0  0  0  0  0  0  0  0  0  0
   22.5286   32.6660   16.7361 C   0  0  0  0  0  0  0  0  0  0  0  0
   23.3148   32.8666   15.6110 C   0  0  0  0  0  0  0  0  0  0  0  0
   22.9695   32.2445   14.4168 C   0  0  0  0  0  0  0  0  0  0  0  0
   21.8346   31.4448   14.3565 C   0  0  0  0  0  0  0  0  0  0  0  0
 18 19  2  0  0  0
 19 20  1  0  0  0
 19 12  1  0  0  0
 12 13  2  0  0  0
 12 15  1  0  0  0
 13 14  1  0  0  0
 14 17  2  0  0  0
 15 16  2  0  0  0
 16 17  1  0  0  0
 17  6  1  0  0  0
  6 10  1  0  0  0
  6  7  1  0  0  0
  7  8  2  0  0  0
  7  9  1  0  0  0
  9 11  1  0  0  0
 10 11  1  0  0  0
 11  2  1  0  0  0
  2  3  2  0  0  0
  2  4  1  0  0  0
  4  1  1  0  0  0
  1 41  1  0  0  0
  1 21  1  0  0  0
 41 42  1  0  0  0
 42 43  2  0  0  0
 42 47  1  0  0  0
 43 44  1  0  0  0
 44 45  2  0  0  0
 45 46  1  0  0  0
 46 47  2  0  0  0
 21 24  1  0  0  0
 21 22  1  0  0  0
 24 25  1  0  0  0
 25 26  1  0  0  0
 25 37  1  0  0  0
 37 38  1  0  0  0
 38 40  1  0  0  0
 38 39  1  0  0  0
 26 28  2  0  0  0
 26 27  2  0  0  0
 26 29  1  0  0  0
 29 34  2  0  0  0
 29 30  1  0  0  0
 30 31  2  0  0  0
 31 32  1  0  0  0
 32 33  2  0  0  0
 32 35  1  0  0  0
 35 36  1  0  0  0
 33 34  1  0  0  0
  4  5  1  0  0  0
 22 23  1  0  0  0
M  END
> <minimizedAffinity>
-8.40625

$$$$
2I0A_MUI_A_200


 47 50  0  0  0  0  0  0  0  0999 V2000
   20.2216   26.4335   10.9540 C   0  0  0  0  0  0  0  0  0  0  0  0
   19.0733   28.1426   12.3233 C   0  0  0  0  0  0  0  0  0  0  0  0
   19.0024   28.9778   11.4276 O   0  0  0  0  0  0  0  0  0  0  0  0
   19.5761   26.9143   12.1799 N   0  0  0  0  0  0  0  0  0  0  0  0
   19.5096   26.2947   12.9420 H   0  0  0  0  0  0  0  0  0  0  0  0
   18.4062   30.5661   14.7613 N   0  0  0  0  0  0  0  0  0  0  0  0
   19.3732   29.9135   15.3727 C   0  0  0  0  0  0  0  0  0  0  0  0
   19.9874   30.2156   16.3831 O   0  0  0  0  0  0  0  0  0  0  0  0
   19.6170   28.6746   14.6771 O   0  0  0  0  0  0  0  0  0  0  0  0
   17.9542   29.9038   13.5520 C   0  0  0  0  0  0  0  0  0  0  0  0
   18.5896   28.5116   13.6936 C   0  0  0  0  0  0  0  0  0  0  0  0
   16.4748   33.9770   16.2844 C   0  0  0  0  0  0  0  0  0  0  0  0
   15.9679   32.6985   16.5127 C   0  0  0  0  0  0  0  0  0  0  0  0
   16.6028   31.5824   16.0017 C   0  0  0  0  0  0  0  0  0  0  0  0
   17.6369   34.1259   15.5403 C   0  0  0  0  0  0  0  0  0  0  0  0
   18.2854   33.0062   15.0278 C   0  0  0  0  0  0  0  0  0  0  0  0
   17.7620   31.7225   15.2341 C   0  0  0  0  0  0  0  0  0  0  0  0
   16.1946   36.3127   16.6064 O   0  0  0  0  0  0  0  0  0  0  0  0
   15.7837   35.1809   16.8560 C   0  0  0  0  0  0  0  0  0  0  0  0
   14.6078   34.9594   17.7497 C   0  0  0  0  0  0  0  0  0  0  0  0
   19.2507   25.9534    9.8755 C   0  0  0  0  0  0  0  0  0  0  0  0
   18.6208   24.7237   10.2543 O   0  0  0  0  0  0  0  0  0  0  0  0
   19.2946   24.0336   10.3572 H   0  0  0  0  0  0  0  0  0  0  0  0
   19.9769   25.7670    8.5349 C   0  0  0  0  0  0  0  0  0  0  0  0
   19.8924   24.3447    8.1156 N   0  0  0  0  0  0  0  0  0  0  0  0
   18.6000   23.9581    7.1870 S   0  0  0  0  0  0  0  0  0  0  0  0
   17.5037   23.6430    8.0435 O   0  0  0  0  0  0  0  0  0  0  0  0
   19.0263   22.7823    6.4640 O   0  0  0  0  0  0  0  0  0  0  0  0
   18.1927   25.1477    6.1638 C   0  0  0  0  0  0  0  0  0  0  0  0
   17.7694   26.4001    6.6264 C   0  0  0  0  0  0  0  0  0  0  0  0
   17.4457   27.4298    5.7284 C   0  0  0  0  0  0  0  0  0  0  0  0
   17.5326   27.2210    4.3531 C   0  0  0  0  0  0  0  0  0  0  0  0
   17.9435   25.9651    3.8865 C   0  0  0  0  0  0  0  0  0  0  0  0
   18.2676   24.9463    4.7879 C   0  0  0  0  0  0  0  0  0  0  0  0
   17.2102   28.2421    3.4878 O   0  0  0  0  0  0  0  0  0  0  0  0
   16.9945   29.5839    3.9333 C   0  0  0  0  0  0  0  0  0  0  0  0
   21.1580   23.8434    7.5356 C   0  0  0  0  0  0  0  0  0  0  0  0
   21.8990   24.9508    6.7775 C   0  0  0  0  0  0  0  0  0  0  0  0
   21.7743   24.7268    5.2750 C   0  0  0  0  0  0  0  0  0  0  0  0
   23.3708   25.0657    7.1823 C   0  0  0  0  0  0  0  0  0  0  0  0
   21.1642   25.3427   11.4982 C   0  0  0  0  0  0  0  0  0  0  0  0
   22.6089   25.8118   11.3704 C   0  0  0  0  0  0  0  0  0  0  0  0
   23.0413   26.9560   12.0293 C   0  0  0  0  0  0  0  0  0  0  0  0
   24.3727   27.3572   11.9298 C   0  0  0  0  0  0  0  0  0  0  0  0
   25.2785   26.6379   11.1641 C   0  0  0  0  0  0  0  0  0  0  0  0
   24.8553   25.4894   10.5051 C   0  0  0  0  0  0  0  0  0  0  0  0
   23.5298   25.0836   10.6046 C   0  0  0  0  0  0  0  0  0  0  0  0
 18 19  2  0  0  0
 19 20  1  0  0  0
 19 12  1  0  0  0
 12 13  2  0  0  0
 12 15  1  0  0  0
 13 14  1  0  0  0
 14 17  2  0  0  0
 15 16  2  0  0  0
 16 17  1  0  0  0
 17  6  1  0  0  0
  6 10  1  0  0  0
  6  7  1  0  0  0
  7  8  2  0  0  0
  7  9  1  0  0  0
  9 11  1  0  0  0
 10 11  1  0  0  0
 11  2  1  0  0  0
  2  3  2  0  0  0
  2  4  1  0  0  0
  4  1  1  0  0  0
  1 41  1  0  0  0
  1 21  1  0  0  0
 41 42  1  0  0  0
 42 43  2  0  0  0
 42 47  1  0  0  0
 43 44  1  0  0  0
 44 45  2  0  0  0
 45 46  1  0  0  0
 46 47  2  0  0  0
 21 24  1  0  0  0
 21 22  1  0  0  0
 24 25  1  0  0  0
 25 26  1  0  0  0
 25 37  1  0  0  0
 37 38  1  0  0  0
 38 40  1  0  0  0
 38 39  1  0  0  0
 26 28  2  0  0  0
 26 27  2  0  0  0
 26 29  1  0  0  0
 29 34  2  0  0  0
 29 30  1  0  0  0
 30 31  2  0  0  0
 31 32  1  0  0  0
 32 33  2  0  0  0
 32 35  1  0  0  0
 35 36  1  0  0  0
 33 34  1  0  0  0
  4  5  1  0  0  0
 22 23  1  0  0  0
M  END
> <minimizedAffinity>
-8.35616

$$$$
2I0A_MUI_A_200


 47 50  0  0  0  0  0  0  0  0999 V2000
   20.5483   26.9443   10.7367 C   0  0  0  0  0  0  0  0  0  0  0  0
   19.8102   28.4633   12.5429 C   0  0  0  0  0  0  0  0  0  0  0  0
   20.3511   29.4624   12.0799 O   0  0  0  0  0  0  0  0  0  0  0  0
   19.8051   27.2623   11.9603 N   0  0  0  0  0  0  0  0  0  0  0  0
   19.2710   26.5477   12.3767 H   0  0  0  0  0  0  0  0  0  0  0  0
   18.7780   30.3696   15.2929 N   0  0  0  0  0  0  0  0  0  0  0  0
   19.6352   29.5740   15.8986 C   0  0  0  0  0  0  0  0  0  0  0  0
   20.0848   29.6452   17.0310 O   0  0  0  0  0  0  0  0  0  0  0  0
   19.9807   28.4923   15.0105 O   0  0  0  0  0  0  0  0  0  0  0  0
   18.5186   29.9801   13.9195 C   0  0  0  0  0  0  0  0  0  0  0  0
   19.1193   28.5664   13.8695 C   0  0  0  0  0  0  0  0  0  0  0  0
   16.5979   33.4607   17.1307 C   0  0  0  0  0  0  0  0  0  0  0  0
   15.9520   32.4077   16.4843 C   0  0  0  0  0  0  0  0  0  0  0  0
   16.6747   31.3998   15.8747 C   0  0  0  0  0  0  0  0  0  0  0  0
   17.9851   33.4890   17.1668 C   0  0  0  0  0  0  0  0  0  0  0  0
   18.7197   32.4741   16.5607 C   0  0  0  0  0  0  0  0  0  0  0  0
   18.0716   31.4294   15.8877 C   0  0  0  0  0  0  0  0  0  0  0  0
   15.2537   34.3352   18.8817 O   0  0  0  0  0  0  0  0  0  0  0  0
   15.8019   34.5428   17.8008 C   0  0  0  0  0  0  0  0  0  0  0  0
   15.6781   35.8588   17.1054 C   0  0  0  0  0  0  0  0  0  0  0  0
   19.6712   26.7222    9.5048 C   0  0  0  0  0  0  0  0  0  0  0  0
   18.5082   27.5582    9.5381 O   0  0  0  0  0  0  0  0  0  0  0  0
   17.9706   27.3335   10.3136 H   0  0  0  0  0  0  0  0  0  0  0  0
   19.2433   25.2508    9.4007 C   0  0  0  0  0  0  0  0  0  0  0  0
   19.3525   24.7981    7.9904 N   0  0  0  0  0  0  0  0  0  0  0  0
   17.9311   24.5200    7.2262 S   0  0  0  0  0  0  0  0  0  0  0  0
   17.0841   25.6519    7.4167 O   0  0  0  0  0  0  0  0  0  0  0  0
   17.3874   23.3662    7.9048 O   0  0  0  0  0  0  0  0  0  0  0  0
   18.1248   24.2203    5.6448 C   0  0  0  0  0  0  0  0  0  0  0  0
   18.5537   22.9698    5.1826 C   0  0  0  0  0  0  0  0  0  0  0  0
   18.6910   22.7162    3.8084 C   0  0  0  0  0  0  0  0  0  0  0  0
   18.4090   23.7118    2.8747 C   0  0  0  0  0  0  0  0  0  0  0  0
   17.9917   24.9683    3.3341 C   0  0  0  0  0  0  0  0  0  0  0  0
   17.8541   25.2111    4.7044 C   0  0  0  0  0  0  0  0  0  0  0  0
   18.5502   23.4451    1.5315 O   0  0  0  0  0  0  0  0  0  0  0  0
   19.2347   24.3322    0.6426 C   0  0  0  0  0  0  0  0  0  0  0  0
   20.2546   25.6503    7.1846 C   0  0  0  0  0  0  0  0  0  0  0  0
   21.5338   24.8979    6.8005 C   0  0  0  0  0  0  0  0  0  0  0  0
   21.6794   24.8582    5.2837 C   0  0  0  0  0  0  0  0  0  0  0  0
   21.5879   23.4827    7.3815 C   0  0  0  0  0  0  0  0  0  0  0  0
   21.3645   25.7118   11.1720 C   0  0  0  0  0  0  0  0  0  0  0  0
   22.8504   25.9972   10.9868 C   0  0  0  0  0  0  0  0  0  0  0  0
   23.5208   25.5474    9.8560 C   0  0  0  0  0  0  0  0  0  0  0  0
   24.8724   25.8419    9.6831 C   0  0  0  0  0  0  0  0  0  0  0  0
   25.5713   26.5678   10.6364 C   0  0  0  0  0  0  0  0  0  0  0  0
   24.9072   27.0253   11.7687 C   0  0  0  0  0  0  0  0  0  0  0  0
   23.5588   26.7374   11.9433 C   0  0  0  0  0  0  0  0  0  0  0  0
 18 19  2  0  0  0
 19 20  1  0  0  0
 19 12  1  0  0  0
 12 13  2  0  0  0
 12 15  1  0  0  0
 13 14  1  0  0  0
 14 17  2  0  0  0
 15 16  2  0  0  0
 16 17  1  0  0  0
 17  6  1  0  0  0
  6 10  1  0  0  0
  6  7  1  0  0  0
  7  8  2  0  0  0
  7  9  1  0  0  0
  9 11  1  0  0  0
 10 11  1  0  0  0
 11  2  1  0  0  0
  2  3  2  0  0  0
  2  4  1  0  0  0
  4  1  1  0  0  0
  1 41  1  0  0  0
  1 21  1  0  0  0
 41 42  1  0  0  0
 42 43  2  0  0  0
 42 47  1  0  0  0
 43 44  1  0  0  0
 44 45  2  0  0  0
 45 46  1  0  0  0
 46 47  2  0  0  0
 21 24  1  0  0  0
 21 22  1  0  0  0
 24 25  1  0  0  0
 25 26  1  0  0  0
 25 37  1  0  0  0
 37 38  1  0  0  0
 38 40  1  0  0  0
 38 39  1  0  0  0
 26 28  2  0  0  0
 26 27  2  0  0  0
 26 29  1  0  0  0
 29 34  2  0  0  0
 29 30  1  0  0  0
 30 31  2  0  0  0
 31 32  1  0  0  0
 32 33  2  0  0  0
 32 35  1  0  0  0
 35 36  1  0  0  0
 33 34  1  0  0  0
  4  5  1  0  0  0
 22 23  1  0  0  0
M  END
> <minimizedAffinity>
-8.33364

$$$$
2I0A_MUI_A_200


 47 50  0  0  0  0  0  0  0  0999 V2000
   18.4453   30.8548   14.3494 C   0  0  0  0  0  0  0  0  0  0  0  0
   17.3323   33.0111   14.8254 C   0  0  0  0  0  0  0  0  0  0  0  0
   18.1509   33.6976   14.2224 O   0  0  0  0  0  0  0  0  0  0  0  0
   17.3603   31.6782   14.8932 N   0  0  0  0  0  0  0  0  0  0  0  0
   16.6083   31.2210   15.3343 H   0  0  0  0  0  0  0  0  0  0  0  0
   16.2570   35.2257   17.3156 N   0  0  0  0  0  0  0  0  0  0  0  0
   15.7798   34.1031   17.8124 C   0  0  0  0  0  0  0  0  0  0  0  0
   15.3062   33.8893   18.9167 O   0  0  0  0  0  0  0  0  0  0  0  0
   15.8476   33.0762   16.8028 O   0  0  0  0  0  0  0  0  0  0  0  0
   16.7786   35.0718   15.9704 C   0  0  0  0  0  0  0  0  0  0  0  0
   16.2246   33.6957   15.5685 C   0  0  0  0  0  0  0  0  0  0  0  0
   16.0046   38.9649   19.2234 C   0  0  0  0  0  0  0  0  0  0  0  0
   14.8587   38.2313   18.9189 C   0  0  0  0  0  0  0  0  0  0  0  0
   14.9484   37.0072   18.2839 C   0  0  0  0  0  0  0  0  0  0  0  0
   17.2502   38.4517   18.8896 C   0  0  0  0  0  0  0  0  0  0  0  0
   17.3489   37.2166   18.2556 C   0  0  0  0  0  0  0  0  0  0  0  0
   16.1963   36.4908   17.9252 C   0  0  0  0  0  0  0  0  0  0  0  0
   14.8123   40.8647   20.0023 O   0  0  0  0  0  0  0  0  0  0  0  0
   15.8952   40.2873   19.9254 C   0  0  0  0  0  0  0  0  0  0  0  0
   17.1381   40.8845   20.4993 C   0  0  0  0  0  0  0  0  0  0  0  0
   17.9777   29.5955   13.6201 C   0  0  0  0  0  0  0  0  0  0  0  0
   18.3137   28.4139   14.3573 O   0  0  0  0  0  0  0  0  0  0  0  0
   19.2777   28.3502   14.4442 H   0  0  0  0  0  0  0  0  0  0  0  0
   18.5972   29.5190   12.2167 C   0  0  0  0  0  0  0  0  0  0  0  0
   19.2217   28.1860   12.0193 N   0  0  0  0  0  0  0  0  0  0  0  0
   18.3280   27.1062   11.1725 S   0  0  0  0  0  0  0  0  0  0  0  0
   17.0884   27.7187   10.8217 O   0  0  0  0  0  0  0  0  0  0  0  0
   18.1075   26.0249   12.1049 O   0  0  0  0  0  0  0  0  0  0  0  0
   19.0906   26.5752    9.8442 C   0  0  0  0  0  0  0  0  0  0  0  0
   20.0757   25.5819    9.9118 C   0  0  0  0  0  0  0  0  0  0  0  0
   20.7087   25.1125    8.7496 C   0  0  0  0  0  0  0  0  0  0  0  0
   20.3722   25.6346    7.5019 C   0  0  0  0  0  0  0  0  0  0  0  0
   19.3959   26.6376    7.4318 C   0  0  0  0  0  0  0  0  0  0  0  0
   18.7679   27.0967    8.5939 C   0  0  0  0  0  0  0  0  0  0  0  0
   21.0041   25.1627    6.3736 O   0  0  0  0  0  0  0  0  0  0  0  0
   20.4522   24.1186    5.5670 C   0  0  0  0  0  0  0  0  0  0  0  0
   20.6083   28.2739   11.5105 C   0  0  0  0  0  0  0  0  0  0  0  0
   21.5851   27.5294   12.4279 C   0  0  0  0  0  0  0  0  0  0  0  0
   21.7514   28.2897   13.7384 C   0  0  0  0  0  0  0  0  0  0  0  0
   22.9470   27.2855   11.7728 C   0  0  0  0  0  0  0  0  0  0  0  0
   19.3006   30.5882   15.6031 C   0  0  0  0  0  0  0  0  0  0  0  0
   20.6204   31.3419   15.4854 C   0  0  0  0  0  0  0  0  0  0  0  0
   21.3259   31.7134   16.6233 C   0  0  0  0  0  0  0  0  0  0  0  0
   22.5473   32.3745   16.5019 C   0  0  0  0  0  0  0  0  0  0  0  0
   23.0679   32.6866   15.2546 C   0  0  0  0  0  0  0  0  0  0  0  0
   22.3706   32.3147   14.1110 C   0  0  0  0  0  0  0  0  0  0  0  0
   21.1546   31.6520   14.2272 C   0  0  0  0  0  0  0  0  0  0  0  0
 18 19  2  0  0  0
 19 20  1  0  0  0
 19 12  1  0  0  0
 12 13  2  0  0  0
 12 15  1  0  0  0
 13 14  1  0  0  0
 14 17  2  0  0  0
 15 16  2  0  0  0
 16 17  1  0  0  0
 17  6  1  0  0  0
  6 10  1  0  0  0
  6  7  1  0  0  0
  7  8  2  0  0  0
  7  9  1  0  0  0
  9 11  1  0  0  0
 10 11  1  0  0  0
 11  2  1  0  0  0
  2  3  2  0  0  0
  2  4  1  0  0  0
  4  1  1  0  0  0
  1 41  1  0  0  0
  1 21  1  0  0  0
 41 42  1  0  0  0
 42 43  2  0  0  0
 42 47  1  0  0  0
 43 44  1  0  0  0
 44 45  2  0  0  0
 45 46  1  0  0  0
 46 47  2  0  0  0
 21 24  1  0  0  0
 21 22  1  0  0  0
 24 25  1  0  0  0
 25 26  1  0  0  0
 25 37  1  0  0  0
 37 38  1  0  0  0
 38 40  1  0  0  0
 38 39  1  0  0  0
 26 28  2  0  0  0
 26 27  2  0  0  0
 26 29  1  0  0  0
 29 34  2  0  0  0
 29 30  1  0  0  0
 30 31  2  0  0  0
 31 32  1  0  0  0
 32 33  2  0  0  0
 32 35  1  0  0  0
 35 36  1  0  0  0
 33 34  1  0  0  0
  4  5  1  0  0  0
 22 23  1  0  0  0
M  END
> <minimizedAffinity>
-8.29753

$$$$
2I0A_MUI_A_200


 47 50  0  0  0  0  0  0  0  0999 V2000
   19.6227   36.2433   17.6893 C   0  0  0  0  0  0  0  0  0  0  0  0
   20.3118   34.3043   16.3182 C   0  0  0  0  0  0  0  0  0  0  0  0
   19.7802   33.4628   17.0352 O   0  0  0  0  0  0  0  0  0  0  0  0
   20.2463   35.6229   16.5159 N   0  0  0  0  0  0  0  0  0  0  0  0
   20.6398   36.2137   15.8337 H   0  0  0  0  0  0  0  0  0  0  0  0
   21.7242   31.7184   14.4260 N   0  0  0  0  0  0  0  0  0  0  0  0
   22.8292   32.2973   14.8486 C   0  0  0  0  0  0  0  0  0  0  0  0
   23.9819   31.9029   14.7757 O   0  0  0  0  0  0  0  0  0  0  0  0
   22.4994   33.5794   15.4193 O   0  0  0  0  0  0  0  0  0  0  0  0
   20.5310   32.4828   14.7376 C   0  0  0  0  0  0  0  0  0  0  0  0
   21.1199   33.8435   15.1424 C   0  0  0  0  0  0  0  0  0  0  0  0
   21.4374   28.1582   12.2062 C   0  0  0  0  0  0  0  0  0  0  0  0
   21.8926   28.1522   13.5239 C   0  0  0  0  0  0  0  0  0  0  0  0
   21.9928   29.3271   14.2448 C   0  0  0  0  0  0  0  0  0  0  0  0
   21.0737   29.3611   11.6169 C   0  0  0  0  0  0  0  0  0  0  0  0
   21.1657   30.5475   12.3387 C   0  0  0  0  0  0  0  0  0  0  0  0
   21.6485   30.5458   13.6545 C   0  0  0  0  0  0  0  0  0  0  0  0
   21.8780   25.8542   11.8387 O   0  0  0  0  0  0  0  0  0  0  0  0
   21.3202   26.8740   11.4376 C   0  0  0  0  0  0  0  0  0  0  0  0
   20.5327   26.8825   10.1686 C   0  0  0  0  0  0  0  0  0  0  0  0
   18.3538   37.0387   17.3837 C   0  0  0  0  0  0  0  0  0  0  0  0
   18.6427   38.4315   17.2127 O   0  0  0  0  0  0  0  0  0  0  0  0
   19.0104   38.7889   18.0361 H   0  0  0  0  0  0  0  0  0  0  0  0
   17.3191   36.8626   18.5052 C   0  0  0  0  0  0  0  0  0  0  0  0
   15.9557   36.7963   17.9199 N   0  0  0  0  0  0  0  0  0  0  0  0
   15.2712   35.3089   17.8917 S   0  0  0  0  0  0  0  0  0  0  0  0
   13.8727   35.4571   17.6527 O   0  0  0  0  0  0  0  0  0  0  0  0
   15.5012   34.7912   19.2208 O   0  0  0  0  0  0  0  0  0  0  0  0
   15.9351   34.3411   16.7734 C   0  0  0  0  0  0  0  0  0  0  0  0
   15.9972   32.9529   16.9485 C   0  0  0  0  0  0  0  0  0  0  0  0
   16.5508   32.1244   15.9592 C   0  0  0  0  0  0  0  0  0  0  0  0
   17.0582   32.6718   14.7821 C   0  0  0  0  0  0  0  0  0  0  0  0
   17.0093   34.0616   14.6091 C   0  0  0  0  0  0  0  0  0  0  0  0
   16.4529   34.8790   15.5979 C   0  0  0  0  0  0  0  0  0  0  0  0
   17.5981   31.8439   13.8238 O   0  0  0  0  0  0  0  0  0  0  0  0
   17.7297   30.4330   14.0169 C   0  0  0  0  0  0  0  0  0  0  0  0
   15.0413   37.8138   18.4838 C   0  0  0  0  0  0  0  0  0  0  0  0
   15.8112   39.0528   18.9548 C   0  0  0  0  0  0  0  0  0  0  0  0
   15.3619   39.4432   20.3581 C   0  0  0  0  0  0  0  0  0  0  0  0
   15.6709   40.2391   17.9975 C   0  0  0  0  0  0  0  0  0  0  0  0
   20.7827   37.0827   18.2589 C   0  0  0  0  0  0  0  0  0  0  0  0
   21.5059   36.2822   19.3359 C   0  0  0  0  0  0  0  0  0  0  0  0
   22.8637   36.4697   19.5636 C   0  0  0  0  0  0  0  0  0  0  0  0
   23.5070   35.7543   20.5726 C   0  0  0  0  0  0  0  0  0  0  0  0
   22.8138   34.8378   21.3495 C   0  0  0  0  0  0  0  0  0  0  0  0
   21.4542   34.6474   21.1312 C   0  0  0  0  0  0  0  0  0  0  0  0
   20.8080   35.3612   20.1290 C   0  0  0  0  0  0  0  0  0  0  0  0
 18 19  2  0  0  0
 19 20  1  0  0  0
 19 12  1  0  0  0
 12 13  2  0  0  0
 12 15  1  0  0  0
 13 14  1  0  0  0
 14 17  2  0  0  0
 15 16  2  0  0  0
 16 17  1  0  0  0
 17  6  1  0  0  0
  6 10  1  0  0  0
  6  7  1  0  0  0
  7  8  2  0  0  0
  7  9  1  0  0  0
  9 11  1  0  0  0
 10 11  1  0  0  0
 11  2  1  0  0  0
  2  3  2  0  0  0
  2  4  1  0  0  0
  4  1  1  0  0  0
  1 41  1  0  0  0
  1 21  1  0  0  0
 41 42  1  0  0  0
 42 43  2  0  0  0
 42 47  1  0  0  0
 43 44  1  0  0  0
 44 45  2  0  0  0
 45 46  1  0  0  0
 46 47  2  0  0  0
 21 24  1  0  0  0
 21 22  1  0  0  0
 24 25  1  0  0  0
 25 26  1  0  0  0
 25 37  1  0  0  0
 37 38  1  0  0  0
 38 40  1  0  0  0
 38 39  1  0  0  0
 26 28  2  0  0  0
 26 27  2  0  0  0
 26 29  1  0  0  0
 29 34  2  0  0  0
 29 30  1  0  0  0
 30 31  2  0  0  0
 31 32  1  0  0  0
 32 33  2  0  0  0
 32 35  1  0  0  0
 35 36  1  0  0  0
 33 34  1  0  0  0
  4  5  1  0  0  0
 22 23  1  0  0  0
M  END
> <minimizedAffinity>
-8.28823

$$$$
