2I0A_MUI_A_200
  RCSB PDB12061705513D
Coordinates from PDB:2I0A:A:200 Model:1 without hydrogens
 45 48  0  0  0  0            999 V2000
   20.8850   22.5110    4.6420   O 0  0  0  0  0  0  0  0  0  0  0  0
   20.4790   23.6320    4.9430   C 0  0  0  0  0  0  0  0  0  0  0  0
   19.8080   24.5120    3.9400   C 0  0  0  0  0  0  0  0  0  0  0  0
   20.6710   24.1630    6.3340   C 0  0  0  0  0  0  0  0  0  0  0  0
   20.1340   25.3970    6.6980   C 0  0  0  0  0  0  0  0  0  0  0  0
   20.3150   25.9010    7.9720   C 0  0  0  0  0  0  0  0  0  0  0  0
   21.4030   23.4380    7.2640   C 0  0  0  0  0  0  0  0  0  0  0  0
   21.5950   23.9420    8.5470   C 0  0  0  0  0  0  0  0  0  0  0  0
   21.0330   25.1700    8.9220   C 0  0  0  0  0  0  0  0  0  0  0  0
   21.2330   25.7270   10.1970   N 0  0  0  0  0  0  0  0  0  0  0  0
   21.5610   25.0660   11.2880   C 0  0  0  0  0  0  0  0  0  0  0  0
   21.6440   23.8610   11.4630   O 0  0  0  0  0  0  0  0  0  0  0  0
   21.8790   26.0090   12.3310   O 0  0  0  0  0  0  0  0  0  0  0  0
   21.2010   27.1640   10.3950   C 0  0  0  0  0  0  0  0  0  0  0  0
   21.9140   27.3160   11.7480   C 0  0  0  0  0  0  0  0  0  0  0  0
   21.1500   28.3670   12.4960   C 0  0  0  0  0  0  0  0  0  0  0  0
   21.2200   29.5310   12.1150   O 0  0  0  0  0  0  0  0  0  0  0  0
   20.4170   27.9480   13.5300   N 0  0  0  0  0  0  0  0  0  0  0  0
   19.5000   28.8090   14.2840   C 0  0  0  0  0  0  0  0  0  0  0  0
   18.1890   28.0010   14.2300   C 0  0  0  0  0  0  0  0  0  0  0  0
   17.8880   27.6200   12.7850   C 0  0  0  0  0  0  0  0  0  0  0  0
   17.5020   28.5870   11.8650   C 0  0  0  0  0  0  0  0  0  0  0  0
   17.2600   28.2310   10.5390   C 0  0  0  0  0  0  0  0  0  0  0  0
   17.3820   26.9140   10.1210   C 0  0  0  0  0  0  0  0  0  0  0  0
   17.7720   25.9410   11.0340   C 0  0  0  0  0  0  0  0  0  0  0  0
   18.0180   26.2920   12.3560   C 0  0  0  0  0  0  0  0  0  0  0  0
   19.9750   29.1550   15.6950   C 0  0  0  0  0  0  0  0  0  0  0  0
   19.9060   28.0150   16.5600   O 0  0  0  0  0  0  0  0  0  0  0  0
   19.1370   30.2990   16.2850   C 0  0  0  0  0  0  0  0  0  0  0  0
   19.3880   31.5470   15.5200   N 0  0  0  0  0  0  0  0  0  0  0  0
   20.1700   32.5410   16.2880   C 0  0  0  0  0  0  0  0  0  0  0  0
   21.6620   32.1890   16.2950   C 0  0  0  0  0  0  0  0  0  0  0  0
   22.4280   33.1840   17.1590   C 0  0  0  0  0  0  0  0  0  0  0  0
   22.2640   32.1250   14.8890   C 0  0  0  0  0  0  0  0  0  0  0  0
   18.0720   32.2190   14.8140   S 0  0  0  0  0  0  0  0  0  0  0  0
   17.2770   31.1770   14.2510   O 0  0  0  0  0  0  0  0  0  0  0  0
   18.6210   33.0520   13.7690   O 0  0  0  0  0  0  0  0  0  0  0  0
   17.1930   33.1010   15.8520   C 0  0  0  0  0  0  0  0  0  0  0  0
   16.2110   32.5170   16.6620   C 0  0  0  0  0  0  0  0  0  0  0  0
   15.4760   33.2890   17.5760   C 0  0  0  0  0  0  0  0  0  0  0  0
   15.7060   34.6590   17.6890   C 0  0  0  0  0  0  0  0  0  0  0  0
   14.9750   35.4000   18.5900   O 0  0  0  0  0  0  0  0  0  0  0  0
   15.2940   36.7590   18.9010   C 0  0  0  0  0  0  0  0  0  0  0  0
   16.6790   35.2490   16.8710   C 0  0  0  0  0  0  0  0  0  0  0  0
   17.4090   34.4720   15.9660   C 0  0  0  0  0  0  0  0  0  0  0  0
  1  2  2  0  0  0  0
  2  3  1  0  0  0  0
  2  4  1  0  0  0  0
  4  5  2  0  0  0  0
  4  7  1  0  0  0  0
  5  6  1  0  0  0  0
  6  9  2  0  0  0  0
  7  8  2  0  0  0  0
  8  9  1  0  0  0  0
  9 10  1  0  0  0  0
 10 14  1  0  0  0  0
 10 11  1  0  0  0  0
 11 12  2  0  0  0  0
 11 13  1  0  0  0  0
 13 15  1  0  0  0  0
 14 15  1  0  0  0  0
 15 16  1  0  0  0  0
 16 17  2  0  0  0  0
 16 18  1  0  0  0  0
 18 19  1  0  0  0  0
 19 20  1  0  0  0  0
 19 27  1  0  0  0  0
 20 21  1  0  0  0  0
 21 22  2  0  0  0  0
 21 26  1  0  0  0  0
 22 23  1  0  0  0  0
 23 24  2  0  0  0  0
 24 25  1  0  0  0  0
 25 26  2  0  0  0  0
 27 29  1  0  0  0  0
 27 28  1  0  0  0  0
 29 30  1  0  0  0  0
 30 35  1  0  0  0  0
 30 31  1  0  0  0  0
 31 32  1  0  0  0  0
 32 34  1  0  0  0  0
 32 33  1  0  0  0  0
 35 37  2  0  0  0  0
 35 36  2  0  0  0  0
 35 38  1  0  0  0  0
 38 45  2  0  0  0  0
 38 39  1  0  0  0  0
 39 40  2  0  0  0  0
 40 41  1  0  0  0  0
 41 44  2  0  0  0  0
 41 42  1  0  0  0  0
 42 43  1  0  0  0  0
 44 45  1  0  0  0  0
A    1
O45
A    2
C46
A    3
C47
A    4
C40
A    5
C41
A    6
C42
A    7
C45
A    8
C44
A    9
C43
A   10
N24
A   11
C26
A   12
O27
A   13
O28
A   14
C25
A   15
C29
A   16
C21
A   17
O22
A   18
N20
A   19
C19
A   20
C32
A   21
C38
A   22
C37
A   23
C36
A   24
C35
A   25
C34
A   26
C33
A   27
C17
A   28
O18
A   29
C16
A   30
N11
A   31
C12
A   32
C13
A   33
C15
A   34
C14
A   35
S8
A   36
O10
A   37
O9
A   38
C5
A   39
C6
A   40
C7
A   41
C2
A   42
O19
A   43
C18
A   44
C3
A   45
C4
M  END
>  <InstanceId>
2I0A_MUI_A_200

>  <ChemCompId>
MUI

>  <PdbId>
2I0A

>  <ChainId>
A

>  <ResidueNumber>
200

>  <InsertionCode>


>  <Model>
1

>  <AltIds>


>  <MissingHeavyAtoms>
0

>  <ObservedFormula>
C33 N3 O8 S

>  <Name>
(5S)-3-(4-ACETYLPHENYL)-N-[(1S,2R)-1-BENZYL-2-HYDROXY-3-{ISOBUTYL[(4-METHOXYPHENYL)SULFONYL]AMINO}PROPYL]-2-OXO-1,3-OXAZOLIDINE-5-CARBOXAMIDE

>  <SystematicName>
(5S)-3-(4-ethanoylphenyl)-N-[(2S,3R)-3-hydroxy-4-[(4-methoxyphenyl)sulfonyl-(2-methylpropyl)amino]-1-phenyl-butan-2-yl]-2-oxo-1,3-oxazolidine-5-carboxamide

>  <Synonyms>


>  <Type>
NON-POLYMER

>  <Formula>
C33 H39 N3 O8 S

>  <MolecularWeight>
637.743

>  <ModifiedDate>
2011-06-04

>  <Parent>


>  <OneLetterCode>


>  <SubcomponentList>


>  <AmbiguousFlag>


>  <InChI>
InChI=1S/C33H39N3O8S/c1-22(2)19-35(45(41,42)28-16-14-27(43-4)15-17-28)20-30(38)29(18-24-8-6-5-7-9-24)34-32(39)31-21-36(33(40)44-31)26-12-10-25(11-13-26)23(3)37/h5-17,22,29-31,38H,18-21H2,1-4H3,(H,34,39)/t29-,30+,31-/m0/s1

>  <InChIKey>
BUJKGFQFFGUYEM-YPKYBTACSA-N

>  <SMILES>
CC(C)C[N@@](C[C@H]([C@H](Cc1ccccc1)NC(=O)[C@@H]2CN(C(=O)O2)c3ccc(cc3)C(=O)C)O)S(=O)(=O)c4ccc(cc4)OC

$$$$
