3CCT_3HI_B_1


 47 50  0  0  0  0  0  0  0  0999 V2000
   33.0941   -7.3029  -12.0085 N   0  0  0  0  0  0  0  0  0  0  0  0
   33.2420   -6.0659  -12.4878 C   0  0  0  0  0  0  0  0  0  0  0  0
   34.1169   -8.0878  -12.4631 C   0  0  0  0  0  0  0  0  0  0  0  0
   34.9716   -7.3188  -13.2728 C   0  0  0  0  0  0  0  0  0  0  0  0
   34.4593   -6.0501  -13.2887 C   0  0  0  0  0  0  0  0  0  0  0  0
   31.8769   -2.8058  -11.1167 C   0  0  0  0  0  0  0  0  0  0  0  0
   31.6622   -4.4094  -13.3700 C   0  0  0  0  0  0  0  0  0  0  0  0
   30.9389   -3.2284  -13.2967 C   0  0  0  0  0  0  0  0  0  0  0  0
   32.4916   -4.7937  -12.3245 C   0  0  0  0  0  0  0  0  0  0  0  0
   31.0494   -2.4328  -12.1691 C   0  0  0  0  0  0  0  0  0  0  0  0
   30.3472   -1.2984  -12.1062 F   0  0  0  0  0  0  0  0  0  0  0  0
   32.6028   -3.9934  -11.1937 C   0  0  0  0  0  0  0  0  0  0  0  0
   35.8855   -2.6373  -14.0116 C   0  0  0  0  0  0  0  0  0  0  0  0
   35.8502   -2.6222  -15.3996 C   0  0  0  0  0  0  0  0  0  0  0  0
   34.9589   -4.8512  -14.0087 C   0  0  0  0  0  0  0  0  0  0  0  0
   35.4349   -3.7496  -13.3138 C   0  0  0  0  0  0  0  0  0  0  0  0
   35.3715   -3.7267  -16.1037 C   0  0  0  0  0  0  0  0  0  0  0  0
   34.9110   -4.8375  -15.4000 C   0  0  0  0  0  0  0  0  0  0  0  0
   36.2145   -7.8067  -13.9424 C   0  0  0  0  0  0  0  0  0  0  0  0
   37.2256   -7.9223  -13.2548 O   0  0  0  0  0  0  0  0  0  0  0  0
   36.1755   -8.1921  -15.2148 N   0  0  0  0  0  0  0  0  0  0  0  0
   35.2935   -8.3141  -15.6348 H   0  0  0  0  0  0  0  0  0  0  0  0
   38.1218   -7.3945  -16.4871 C   0  0  0  0  0  0  0  0  0  0  0  0
   39.2488   -7.6620  -17.2555 C   0  0  0  0  0  0  0  0  0  0  0  0
   37.6916   -9.7601  -16.2909 C   0  0  0  0  0  0  0  0  0  0  0  0
   37.3278   -8.4375  -16.0016 C   0  0  0  0  0  0  0  0  0  0  0  0
   36.9626  -10.7848  -15.8383 O   0  0  0  0  0  0  0  0  0  0  0  0
   38.8273  -10.0340  -17.0594 C   0  0  0  0  0  0  0  0  0  0  0  0
   39.6031   -8.9814  -17.5407 C   0  0  0  0  0  0  0  0  0  0  0  0
   36.1978  -10.6235  -15.3216 H   0  0  0  0  0  0  0  0  0  0  0  0
   34.3436   -9.5323  -12.1889 C   0  0  0  0  0  0  0  0  0  0  0  0
   33.0597  -10.3521  -12.3029 C   0  0  0  0  0  0  0  0  0  0  0  0
   35.0374   -9.6966  -10.8436 C   0  0  0  0  0  0  0  0  0  0  0  0
   31.9603   -7.6610  -11.1466 C   0  0  0  0  0  0  0  0  0  0  0  0
   32.3814   -7.5804   -9.6830 C   0  0  0  0  0  0  0  0  0  0  0  0
   31.1863   -7.4108   -8.7469 C   0  0  0  0  0  0  0  0  0  0  0  0
   30.4060   -8.5975   -8.7006 O   0  0  0  0  0  0  0  0  0  0  0  0
   30.9502   -9.3297   -8.3711 H   0  0  0  0  0  0  0  0  0  0  0  0
   31.6956   -7.1365   -7.3434 C   0  0  0  0  0  0  0  0  0  0  0  0
   31.1568   -5.8489   -6.7393 C   0  0  0  0  0  0  0  0  0  0  0  0
   31.1487   -5.9671   -5.3200 O   0  0  0  0  0  0  0  0  0  0  0  0
   32.0484   -6.1477   -5.0055 H   0  0  0  0  0  0  0  0  0  0  0  0
   32.0605   -4.7096   -7.2164 C   0  0  0  0  0  0  0  0  0  0  0  0
   31.4169   -2.9985   -5.7263 O   0  0  0  0  0  0  0  0  0  0  0  0
   32.3530   -3.7281   -6.1166 C   0  0  0  0  0  0  0  0  0  0  0  0
   33.5049   -3.6677   -5.6214 O   0  0  0  0  0  0  0  0  0  0  0  0
   34.1821   -4.2313   -5.9403 H   0  0  0  0  0  0  0  0  0  0  0  0
  3  1  1  0  0  0
  2  1  1  0  0  0
  1 34  1  0  0  0
  5  2  2  0  0  0
  2  9  1  0  0  0
 32 31  1  0  0  0
  3 31  1  0  0  0
 31 33  1  0  0  0
 35 34  1  0  0  0
 35 36  1  0  0  0
 40 39  1  0  0  0
 39 36  1  0  0  0
 10  6  2  0  0  0
 12  6  1  0  0  0
 24 23  2  0  0  0
 23 26  1  0  0  0
 24 29  1  0  0  0
  7  8  2  0  0  0
  7  9  1  0  0  0
 13 16  2  0  0  0
 13 14  1  0  0  0
  8 10  1  0  0  0
 26 25  2  0  0  0
 28 25  1  0  0  0
 25 27  1  0  0  0
 14 17  2  0  0  0
 44 45  2  0  0  0
 45 46  1  0  0  0
 45 43  1  0  0  0
 43 40  1  0  0  0
 40 41  1  0  0  0
 36 37  1  0  0  0
  9 12  2  0  0  0
 10 11  1  0  0  0
  4  3  2  0  0  0
 19  4  1  0  0  0
  4  5  1  0  0  0
 15  5  1  0  0  0
 16 15  1  0  0  0
 15 18  2  0  0  0
 17 18  1  0  0  0
 20 19  2  0  0  0
 19 21  1  0  0  0
 26 21  1  0  0  0
 29 28  2  0  0  0
 46 47  1  0  0  0
 41 42  1  0  0  0
 37 38  1  0  0  0
 21 22  1  0  0  0
 27 30  1  0  0  0
M  END
> <minimizedAffinity>
-10.41722

$$$$
3CCT_3HI_B_1


 47 50  0  0  0  0  0  0  0  0999 V2000
   32.8131   -7.6106  -13.3611 N   0  0  0  0  0  0  0  0  0  0  0  0
   32.9258   -6.6624  -14.2940 C   0  0  0  0  0  0  0  0  0  0  0  0
   33.9378   -8.3876  -13.3700 C   0  0  0  0  0  0  0  0  0  0  0  0
   34.8241   -7.9155  -14.3544 C   0  0  0  0  0  0  0  0  0  0  0  0
   34.2255   -6.8288  -14.9316 C   0  0  0  0  0  0  0  0  0  0  0  0
   31.4175   -3.2124  -14.7346 C   0  0  0  0  0  0  0  0  0  0  0  0
   31.0613   -5.8097  -15.6411 C   0  0  0  0  0  0  0  0  0  0  0  0
   30.2292   -4.8013  -16.1036 C   0  0  0  0  0  0  0  0  0  0  0  0
   32.0698   -5.5282  -14.7287 C   0  0  0  0  0  0  0  0  0  0  0  0
   30.4112   -3.5071  -15.6466 C   0  0  0  0  0  0  0  0  0  0  0  0
   29.6035   -2.5428  -16.0955 F   0  0  0  0  0  0  0  0  0  0  0  0
   32.2524   -4.2284  -14.2719 C   0  0  0  0  0  0  0  0  0  0  0  0
   34.8585   -5.4301  -18.3735 C   0  0  0  0  0  0  0  0  0  0  0  0
   35.6910   -4.3591  -18.0771 C   0  0  0  0  0  0  0  0  0  0  0  0
   34.7180   -5.9713  -16.0396 C   0  0  0  0  0  0  0  0  0  0  0  0
   34.3751   -6.2412  -17.3558 C   0  0  0  0  0  0  0  0  0  0  0  0
   36.0402   -4.0837  -16.7553 C   0  0  0  0  0  0  0  0  0  0  0  0
   35.5611   -4.9055  -15.7373 C   0  0  0  0  0  0  0  0  0  0  0  0
   36.1706   -8.4837  -14.6634 C   0  0  0  0  0  0  0  0  0  0  0  0
   37.0477   -8.3694  -13.8113 O   0  0  0  0  0  0  0  0  0  0  0  0
   36.3586   -9.1731  -15.7852 N   0  0  0  0  0  0  0  0  0  0  0  0
   35.5648   -9.4439  -16.3008 H   0  0  0  0  0  0  0  0  0  0  0  0
   38.5971   -8.5837  -16.6127 C   0  0  0  0  0  0  0  0  0  0  0  0
   39.8414   -8.9705  -17.0968 C   0  0  0  0  0  0  0  0  0  0  0  0
   37.9440  -10.8992  -16.4349 C   0  0  0  0  0  0  0  0  0  0  0  0
   37.6333   -9.5407  -16.2823 C   0  0  0  0  0  0  0  0  0  0  0  0
   37.0522  -11.8443  -16.1225 O   0  0  0  0  0  0  0  0  0  0  0  0
   39.1963  -11.2930  -16.9168 C   0  0  0  0  0  0  0  0  0  0  0  0
   40.1423  -10.3249  -17.2476 C   0  0  0  0  0  0  0  0  0  0  0  0
   36.2073  -11.6021  -15.7978 H   0  0  0  0  0  0  0  0  0  0  0  0
   34.2357   -9.5632  -12.5085 C   0  0  0  0  0  0  0  0  0  0  0  0
   33.0306  -10.4893  -12.3549 C   0  0  0  0  0  0  0  0  0  0  0  0
   34.7985   -9.0923  -11.1744 C   0  0  0  0  0  0  0  0  0  0  0  0
   31.6140   -7.7208  -12.5206 C   0  0  0  0  0  0  0  0  0  0  0  0
   31.5402   -6.5296  -11.5712 C   0  0  0  0  0  0  0  0  0  0  0  0
   31.3772   -6.9613  -10.1150 C   0  0  0  0  0  0  0  0  0  0  0  0
   31.5502   -8.3653   -9.9798 O   0  0  0  0  0  0  0  0  0  0  0  0
   32.4416   -8.6109  -10.2731 H   0  0  0  0  0  0  0  0  0  0  0  0
   32.4447   -6.2805   -9.2775 C   0  0  0  0  0  0  0  0  0  0  0  0
   31.8844   -5.3468   -8.2158 C   0  0  0  0  0  0  0  0  0  0  0  0
   30.7722   -4.6400   -8.7559 O   0  0  0  0  0  0  0  0  0  0  0  0
   30.0991   -5.2731   -9.0510 H   0  0  0  0  0  0  0  0  0  0  0  0
   31.4895   -6.2090   -7.0145 C   0  0  0  0  0  0  0  0  0  0  0  0
   31.2205   -4.1552   -5.8866 O   0  0  0  0  0  0  0  0  0  0  0  0
   31.3451   -5.3920   -5.7614 C   0  0  0  0  0  0  0  0  0  0  0  0
   31.3474   -5.9583   -4.6411 O   0  0  0  0  0  0  0  0  0  0  0  0
   31.4432   -6.8888   -4.5868 H   0  0  0  0  0  0  0  0  0  0  0  0
  3  1  1  0  0  0
  2  1  1  0  0  0
  1 34  1  0  0  0
  5  2  2  0  0  0
  2  9  1  0  0  0
 32 31  1  0  0  0
  3 31  1  0  0  0
 31 33  1  0  0  0
 35 34  1  0  0  0
 35 36  1  0  0  0
 40 39  1  0  0  0
 39 36  1  0  0  0
 10  6  2  0  0  0
 12  6  1  0  0  0
 24 23  2  0  0  0
 23 26  1  0  0  0
 24 29  1  0  0  0
  7  8  2  0  0  0
  7  9  1  0  0  0
 13 16  2  0  0  0
 13 14  1  0  0  0
  8 10  1  0  0  0
 26 25  2  0  0  0
 28 25  1  0  0  0
 25 27  1  0  0  0
 14 17  2  0  0  0
 44 45  2  0  0  0
 45 46  1  0  0  0
 45 43  1  0  0  0
 43 40  1  0  0  0
 40 41  1  0  0  0
 36 37  1  0  0  0
  9 12  2  0  0  0
 10 11  1  0  0  0
  4  3  2  0  0  0
 19  4  1  0  0  0
  4  5  1  0  0  0
 15  5  1  0  0  0
 16 15  1  0  0  0
 15 18  2  0  0  0
 17 18  1  0  0  0
 20 19  2  0  0  0
 19 21  1  0  0  0
 26 21  1  0  0  0
 29 28  2  0  0  0
 46 47  1  0  0  0
 41 42  1  0  0  0
 37 38  1  0  0  0
 21 22  1  0  0  0
 27 30  1  0  0  0
M  END
> <minimizedAffinity>
-8.39488

$$$$
3CCT_3HI_B_1


 47 50  0  0  0  0  0  0  0  0999 V2000
   33.6446   -4.5859  -12.8476 N   0  0  0  0  0  0  0  0  0  0  0  0
   33.2529   -5.7038  -12.2324 C   0  0  0  0  0  0  0  0  0  0  0  0
   34.5687   -4.8985  -13.8053 C   0  0  0  0  0  0  0  0  0  0  0  0
   34.7816   -6.2885  -13.8131 C   0  0  0  0  0  0  0  0  0  0  0  0
   33.9591   -6.8160  -12.8552 C   0  0  0  0  0  0  0  0  0  0  0  0
   30.0990   -6.6714  -10.3645 C   0  0  0  0  0  0  0  0  0  0  0  0
   32.7156   -5.9089   -9.8475 C   0  0  0  0  0  0  0  0  0  0  0  0
   31.8610   -6.1888   -8.7918 C   0  0  0  0  0  0  0  0  0  0  0  0
   32.2707   -6.0076  -11.1594 C   0  0  0  0  0  0  0  0  0  0  0  0
   30.5559   -6.5678   -9.0561 C   0  0  0  0  0  0  0  0  0  0  0  0
   29.7393   -6.8329   -8.0330 F   0  0  0  0  0  0  0  0  0  0  0  0
   30.9607   -6.3896  -11.4235 C   0  0  0  0  0  0  0  0  0  0  0  0
   32.7286  -10.3697  -12.6076 C   0  0  0  0  0  0  0  0  0  0  0  0
   33.5344  -10.8604  -11.5889 C   0  0  0  0  0  0  0  0  0  0  0  0
   33.8054   -8.2319  -12.4341 C   0  0  0  0  0  0  0  0  0  0  0  0
   32.8590   -9.0531  -13.0281 C   0  0  0  0  0  0  0  0  0  0  0  0
   34.4871  -10.0387  -10.9871 C   0  0  0  0  0  0  0  0  0  0  0  0
   34.6086   -8.7152  -11.4049 C   0  0  0  0  0  0  0  0  0  0  0  0
   35.7035   -7.0266  -14.7277 C   0  0  0  0  0  0  0  0  0  0  0  0
   35.6086   -6.8076  -15.9325 O   0  0  0  0  0  0  0  0  0  0  0  0
   36.6522   -7.8105  -14.2230 N   0  0  0  0  0  0  0  0  0  0  0  0
   36.8388   -7.7491  -13.2583 H   0  0  0  0  0  0  0  0  0  0  0  0
   36.8066   -9.5906  -15.9113 C   0  0  0  0  0  0  0  0  0  0  0  0
   37.5729  -10.4809  -16.6544 C   0  0  0  0  0  0  0  0  0  0  0  0
   38.8029   -8.7660  -14.8367 C   0  0  0  0  0  0  0  0  0  0  0  0
   37.4100   -8.7285  -14.9911 C   0  0  0  0  0  0  0  0  0  0  0  0
   39.4176   -7.9522  -13.9730 O   0  0  0  0  0  0  0  0  0  0  0  0
   39.5782   -9.6566  -15.5858 C   0  0  0  0  0  0  0  0  0  0  0  0
   38.9588  -10.5135  -16.4934 C   0  0  0  0  0  0  0  0  0  0  0  0
   38.9169   -7.3478  -13.4612 H   0  0  0  0  0  0  0  0  0  0  0  0
   35.2787   -3.9652  -14.7207 C   0  0  0  0  0  0  0  0  0  0  0  0
   35.8159   -2.7351  -13.9914 C   0  0  0  0  0  0  0  0  0  0  0  0
   34.3768   -3.6139  -15.8960 C   0  0  0  0  0  0  0  0  0  0  0  0
   33.1120   -3.2723  -12.4638 C   0  0  0  0  0  0  0  0  0  0  0  0
   31.9579   -2.8956  -13.3868 C   0  0  0  0  0  0  0  0  0  0  0  0
   30.6008   -3.0303  -12.6987 C   0  0  0  0  0  0  0  0  0  0  0  0
   30.0632   -1.7532  -12.3833 O   0  0  0  0  0  0  0  0  0  0  0  0
   29.9425   -1.2427  -13.1992 H   0  0  0  0  0  0  0  0  0  0  0  0
   29.6347   -3.7181  -13.6463 C   0  0  0  0  0  0  0  0  0  0  0  0
   30.3008   -4.2904  -14.8880 C   0  0  0  0  0  0  0  0  0  0  0  0
   30.1926   -5.7103  -14.8631 O   0  0  0  0  0  0  0  0  0  0  0  0
   29.2569   -5.9626  -14.8241 H   0  0  0  0  0  0  0  0  0  0  0  0
   29.5975   -3.6813  -16.1032 C   0  0  0  0  0  0  0  0  0  0  0  0
   31.2429   -3.4746  -17.7803 O   0  0  0  0  0  0  0  0  0  0  0  0
   30.5386   -2.8673  -16.9460 C   0  0  0  0  0  0  0  0  0  0  0  0
   30.5915   -1.6217  -16.8001 O   0  0  0  0  0  0  0  0  0  0  0  0
   30.0476   -1.2010  -16.1635 H   0  0  0  0  0  0  0  0  0  0  0  0
  3  1  1  0  0  0
  2  1  1  0  0  0
  1 34  1  0  0  0
  5  2  2  0  0  0
  2  9  1  0  0  0
 32 31  1  0  0  0
  3 31  1  0  0  0
 31 33  1  0  0  0
 35 34  1  0  0  0
 35 36  1  0  0  0
 40 39  1  0  0  0
 39 36  1  0  0  0
 10  6  2  0  0  0
 12  6  1  0  0  0
 24 23  2  0  0  0
 23 26  1  0  0  0
 24 29  1  0  0  0
  7  8  2  0  0  0
  7  9  1  0  0  0
 13 16  2  0  0  0
 13 14  1  0  0  0
  8 10  1  0  0  0
 26 25  2  0  0  0
 28 25  1  0  0  0
 25 27  1  0  0  0
 14 17  2  0  0  0
 44 45  2  0  0  0
 45 46  1  0  0  0
 45 43  1  0  0  0
 43 40  1  0  0  0
 40 41  1  0  0  0
 36 37  1  0  0  0
  9 12  2  0  0  0
 10 11  1  0  0  0
  4  3  2  0  0  0
 19  4  1  0  0  0
  4  5  1  0  0  0
 15  5  1  0  0  0
 16 15  1  0  0  0
 15 18  2  0  0  0
 17 18  1  0  0  0
 20 19  2  0  0  0
 19 21  1  0  0  0
 26 21  1  0  0  0
 29 28  2  0  0  0
 46 47  1  0  0  0
 41 42  1  0  0  0
 37 38  1  0  0  0
 21 22  1  0  0  0
 27 30  1  0  0  0
M  END
> <minimizedAffinity>
-8.33634

$$$$
3CCT_3HI_B_1


 47 50  0  0  0  0  0  0  0  0999 V2000
   32.8065   -7.0026  -12.0915 N   0  0  0  0  0  0  0  0  0  0  0  0
   33.0236   -5.7879  -12.6005 C   0  0  0  0  0  0  0  0  0  0  0  0
   33.8344   -7.8307  -12.4475 C   0  0  0  0  0  0  0  0  0  0  0  0
   34.7650   -7.1145  -13.2211 C   0  0  0  0  0  0  0  0  0  0  0  0
   34.2929   -5.8337  -13.3149 C   0  0  0  0  0  0  0  0  0  0  0  0
   31.7077   -2.4203  -11.4606 C   0  0  0  0  0  0  0  0  0  0  0  0
   31.5089   -4.1496  -13.6204 C   0  0  0  0  0  0  0  0  0  0  0  0
   30.8142   -2.9495  -13.6360 C   0  0  0  0  0  0  0  0  0  0  0  0
   32.3018   -4.4907  -12.5324 C   0  0  0  0  0  0  0  0  0  0  0  0
   30.9165   -2.0910  -12.5546 C   0  0  0  0  0  0  0  0  0  0  0  0
   30.2420   -0.9385  -12.5773 F   0  0  0  0  0  0  0  0  0  0  0  0
   32.4050   -3.6273  -11.4482 C   0  0  0  0  0  0  0  0  0  0  0  0
   35.9260   -2.5170  -14.0475 C   0  0  0  0  0  0  0  0  0  0  0  0
   35.9238   -2.5197  -15.4360 C   0  0  0  0  0  0  0  0  0  0  0  0
   34.8760   -4.6751  -14.0382 C   0  0  0  0  0  0  0  0  0  0  0  0
   35.3972   -3.5922  -13.3464 C   0  0  0  0  0  0  0  0  0  0  0  0
   35.3999   -3.6055  -16.1370 C   0  0  0  0  0  0  0  0  0  0  0  0
   34.8611   -4.6785  -15.4304 C   0  0  0  0  0  0  0  0  0  0  0  0
   36.0358   -7.6595  -13.7860 C   0  0  0  0  0  0  0  0  0  0  0  0
   36.9895   -7.7908  -13.0233 O   0  0  0  0  0  0  0  0  0  0  0  0
   36.0764   -8.0754  -15.0487 N   0  0  0  0  0  0  0  0  0  0  0  0
   35.2236   -8.1791  -15.5297 H   0  0  0  0  0  0  0  0  0  0  0  0
   38.1437   -7.3749  -16.1794 C   0  0  0  0  0  0  0  0  0  0  0  0
   39.3137   -7.6984  -16.8567 C   0  0  0  0  0  0  0  0  0  0  0  0
   37.6045   -9.7184  -15.9871 C   0  0  0  0  0  0  0  0  0  0  0  0
   37.2738   -8.3782  -15.7427 C   0  0  0  0  0  0  0  0  0  0  0  0
   36.8026  -10.7064  -15.5784 O   0  0  0  0  0  0  0  0  0  0  0  0
   38.7830  -10.0486  -16.6637 C   0  0  0  0  0  0  0  0  0  0  0  0
   39.6348   -9.0350  -17.0978 C   0  0  0  0  0  0  0  0  0  0  0  0
   36.0082  -10.5072  -15.1233 H   0  0  0  0  0  0  0  0  0  0  0  0
   33.9987   -9.2702  -12.1101 C   0  0  0  0  0  0  0  0  0  0  0  0
   32.8210  -10.1162  -12.5907 C   0  0  0  0  0  0  0  0  0  0  0  0
   34.2703   -9.4202  -10.6194 C   0  0  0  0  0  0  0  0  0  0  0  0
   31.6063   -7.2989  -11.2991 C   0  0  0  0  0  0  0  0  0  0  0  0
   30.3943   -7.3995  -12.2193 C   0  0  0  0  0  0  0  0  0  0  0  0
   29.1264   -6.8528  -11.5660 C   0  0  0  0  0  0  0  0  0  0  0  0
   29.3068   -5.5032  -11.1594 O   0  0  0  0  0  0  0  0  0  0  0  0
   29.5109   -4.9566  -11.9343 H   0  0  0  0  0  0  0  0  0  0  0  0
   27.9975   -6.8838  -12.5804 C   0  0  0  0  0  0  0  0  0  0  0  0
   27.2829   -8.2241  -12.6578 C   0  0  0  0  0  0  0  0  0  0  0  0
   25.9443   -8.0145  -13.0968 O   0  0  0  0  0  0  0  0  0  0  0  0
   25.9526   -7.5755  -13.9617 H   0  0  0  0  0  0  0  0  0  0  0  0
   28.0742   -9.1061  -13.6264 C   0  0  0  0  0  0  0  0  0  0  0  0
   26.8438  -11.1183  -13.6318 O   0  0  0  0  0  0  0  0  0  0  0  0
   27.1983  -10.1243  -14.3006 C   0  0  0  0  0  0  0  0  0  0  0  0
   26.8453   -9.9549  -15.4933 O   0  0  0  0  0  0  0  0  0  0  0  0
   27.1313   -9.1964  -15.9633 H   0  0  0  0  0  0  0  0  0  0  0  0
  3  1  1  0  0  0
  2  1  1  0  0  0
  1 34  1  0  0  0
  5  2  2  0  0  0
  2  9  1  0  0  0
 32 31  1  0  0  0
  3 31  1  0  0  0
 31 33  1  0  0  0
 35 34  1  0  0  0
 35 36  1  0  0  0
 40 39  1  0  0  0
 39 36  1  0  0  0
 10  6  2  0  0  0
 12  6  1  0  0  0
 24 23  2  0  0  0
 23 26  1  0  0  0
 24 29  1  0  0  0
  7  8  2  0  0  0
  7  9  1  0  0  0
 13 16  2  0  0  0
 13 14  1  0  0  0
  8 10  1  0  0  0
 26 25  2  0  0  0
 28 25  1  0  0  0
 25 27  1  0  0  0
 14 17  2  0  0  0
 44 45  2  0  0  0
 45 46  1  0  0  0
 45 43  1  0  0  0
 43 40  1  0  0  0
 40 41  1  0  0  0
 36 37  1  0  0  0
  9 12  2  0  0  0
 10 11  1  0  0  0
  4  3  2  0  0  0
 19  4  1  0  0  0
  4  5  1  0  0  0
 15  5  1  0  0  0
 16 15  1  0  0  0
 15 18  2  0  0  0
 17 18  1  0  0  0
 20 19  2  0  0  0
 19 21  1  0  0  0
 26 21  1  0  0  0
 29 28  2  0  0  0
 46 47  1  0  0  0
 41 42  1  0  0  0
 37 38  1  0  0  0
 21 22  1  0  0  0
 27 30  1  0  0  0
M  END
> <minimizedAffinity>
-8.26787

$$$$
3CCT_3HI_B_1


 47 50  0  0  0  0  0  0  0  0999 V2000
   34.2312   -5.7272  -15.0429 N   0  0  0  0  0  0  0  0  0  0  0  0
   33.8962   -6.4546  -13.9750 C   0  0  0  0  0  0  0  0  0  0  0  0
   35.3709   -6.2393  -15.5977 C   0  0  0  0  0  0  0  0  0  0  0  0
   35.7912   -7.3565  -14.8543 C   0  0  0  0  0  0  0  0  0  0  0  0
   34.8784   -7.5237  -13.8487 C   0  0  0  0  0  0  0  0  0  0  0  0
   30.6005   -7.0837  -12.2102 C   0  0  0  0  0  0  0  0  0  0  0  0
   32.9228   -5.6003  -11.8915 C   0  0  0  0  0  0  0  0  0  0  0  0
   31.9212   -5.5211  -10.9356 C   0  0  0  0  0  0  0  0  0  0  0  0
   32.7709   -6.4159  -13.0053 C   0  0  0  0  0  0  0  0  0  0  0  0
   30.7640   -6.2629  -11.1008 C   0  0  0  0  0  0  0  0  0  0  0  0
   29.8037   -6.1784  -10.1763 F   0  0  0  0  0  0  0  0  0  0  0  0
   31.6094   -7.1613  -13.1691 C   0  0  0  0  0  0  0  0  0  0  0  0
   35.5857   -9.3373  -10.6215 C   0  0  0  0  0  0  0  0  0  0  0  0
   34.8159  -10.4814  -10.7845 C   0  0  0  0  0  0  0  0  0  0  0  0
   34.8594   -8.5392  -12.7652 C   0  0  0  0  0  0  0  0  0  0  0  0
   35.6129   -8.3670  -11.6140 C   0  0  0  0  0  0  0  0  0  0  0  0
   34.0570  -10.6605  -11.9407 C   0  0  0  0  0  0  0  0  0  0  0  0
   34.0942   -9.6893  -12.9389 C   0  0  0  0  0  0  0  0  0  0  0  0
   36.9850   -8.2043  -15.1496 C   0  0  0  0  0  0  0  0  0  0  0  0
   37.8820   -8.2390  -14.3113 O   0  0  0  0  0  0  0  0  0  0  0  0
   37.0060   -8.9641  -16.2411 N   0  0  0  0  0  0  0  0  0  0  0  0
   36.1642   -9.0856  -16.7369 H   0  0  0  0  0  0  0  0  0  0  0  0
   39.2425   -8.8860  -17.2587 C   0  0  0  0  0  0  0  0  0  0  0  0
   40.3722   -9.5425  -17.7328 C   0  0  0  0  0  0  0  0  0  0  0  0
   38.2506  -11.0073  -16.6787 C   0  0  0  0  0  0  0  0  0  0  0  0
   38.1678   -9.6088  -16.7326 C   0  0  0  0  0  0  0  0  0  0  0  0
   37.2475  -11.7331  -16.1758 O   0  0  0  0  0  0  0  0  0  0  0  0
   39.3874  -11.6716  -17.1500 C   0  0  0  0  0  0  0  0  0  0  0  0
   40.4461  -10.9351  -17.6774 C   0  0  0  0  0  0  0  0  0  0  0  0
   36.4767  -11.3080  -15.8545 H   0  0  0  0  0  0  0  0  0  0  0  0
   36.1040   -5.7382  -16.7911 C   0  0  0  0  0  0  0  0  0  0  0  0
   36.5662   -4.2920  -16.6222 C   0  0  0  0  0  0  0  0  0  0  0  0
   35.2587   -5.9510  -18.0395 C   0  0  0  0  0  0  0  0  0  0  0  0
   33.4356   -4.5655  -15.4598 C   0  0  0  0  0  0  0  0  0  0  0  0
   33.7362   -3.3818  -14.5463 C   0  0  0  0  0  0  0  0  0  0  0  0
   32.5076   -2.5039  -14.3158 C   0  0  0  0  0  0  0  0  0  0  0  0
   32.5728   -1.3234  -15.1042 O   0  0  0  0  0  0  0  0  0  0  0  0
   32.6047   -1.5632  -16.0435 H   0  0  0  0  0  0  0  0  0  0  0  0
   31.2677   -3.2727  -14.7351 C   0  0  0  0  0  0  0  0  0  0  0  0
   30.3372   -3.6076  -13.5796 C   0  0  0  0  0  0  0  0  0  0  0  0
   30.0748   -2.4232  -12.8335 O   0  0  0  0  0  0  0  0  0  0  0  0
   29.6787   -1.7557  -13.4153 H   0  0  0  0  0  0  0  0  0  0  0  0
   29.0619   -4.2032  -14.1806 C   0  0  0  0  0  0  0  0  0  0  0  0
   27.8165   -3.8802  -12.2039 O   0  0  0  0  0  0  0  0  0  0  0  0
   28.1108   -4.6787  -13.1185 C   0  0  0  0  0  0  0  0  0  0  0  0
   27.6392   -5.8406  -13.1753 O   0  0  0  0  0  0  0  0  0  0  0  0
   27.8833   -6.4116  -13.8770 H   0  0  0  0  0  0  0  0  0  0  0  0
  3  1  1  0  0  0
  2  1  1  0  0  0
  1 34  1  0  0  0
  5  2  2  0  0  0
  2  9  1  0  0  0
 32 31  1  0  0  0
  3 31  1  0  0  0
 31 33  1  0  0  0
 35 34  1  0  0  0
 35 36  1  0  0  0
 40 39  1  0  0  0
 39 36  1  0  0  0
 10  6  2  0  0  0
 12  6  1  0  0  0
 24 23  2  0  0  0
 23 26  1  0  0  0
 24 29  1  0  0  0
  7  8  2  0  0  0
  7  9  1  0  0  0
 13 16  2  0  0  0
 13 14  1  0  0  0
  8 10  1  0  0  0
 26 25  2  0  0  0
 28 25  1  0  0  0
 25 27  1  0  0  0
 14 17  2  0  0  0
 44 45  2  0  0  0
 45 46  1  0  0  0
 45 43  1  0  0  0
 43 40  1  0  0  0
 40 41  1  0  0  0
 36 37  1  0  0  0
  9 12  2  0  0  0
 10 11  1  0  0  0
  4  3  2  0  0  0
 19  4  1  0  0  0
  4  5  1  0  0  0
 15  5  1  0  0  0
 16 15  1  0  0  0
 15 18  2  0  0  0
 17 18  1  0  0  0
 20 19  2  0  0  0
 19 21  1  0  0  0
 26 21  1  0  0  0
 29 28  2  0  0  0
 46 47  1  0  0  0
 41 42  1  0  0  0
 37 38  1  0  0  0
 21 22  1  0  0  0
 27 30  1  0  0  0
M  END
> <minimizedAffinity>
-8.17270

$$$$
3CCT_3HI_B_1


 47 50  0  0  0  0  0  0  0  0999 V2000
   33.6830   -5.6643  -13.7640 N   0  0  0  0  0  0  0  0  0  0  0  0
   32.7805   -6.5407  -13.3178 C   0  0  0  0  0  0  0  0  0  0  0  0
   33.0505   -4.7013  -14.4999 C   0  0  0  0  0  0  0  0  0  0  0  0
   31.6696   -4.9655  -14.5269 C   0  0  0  0  0  0  0  0  0  0  0  0
   31.4725   -6.0958  -13.7813 C   0  0  0  0  0  0  0  0  0  0  0  0
   32.8897   -8.8750  -10.3326 C   0  0  0  0  0  0  0  0  0  0  0  0
   32.9085   -8.9813  -13.1044 C   0  0  0  0  0  0  0  0  0  0  0  0
   32.9605  -10.1579  -12.3722 C   0  0  0  0  0  0  0  0  0  0  0  0
   32.8473   -7.7525  -12.4602 C   0  0  0  0  0  0  0  0  0  0  0  0
   32.9519  -10.0983  -10.9890 C   0  0  0  0  0  0  0  0  0  0  0  0
   33.0048  -11.2364  -10.2920 F   0  0  0  0  0  0  0  0  0  0  0  0
   32.8372   -7.6941  -11.0716 C   0  0  0  0  0  0  0  0  0  0  0  0
   28.5979   -8.5193  -14.0401 C   0  0  0  0  0  0  0  0  0  0  0  0
   27.8175   -8.1233  -12.9621 C   0  0  0  0  0  0  0  0  0  0  0  0
   30.2069   -6.8213  -13.5035 C   0  0  0  0  0  0  0  0  0  0  0  0
   29.7911   -7.8654  -14.3158 C   0  0  0  0  0  0  0  0  0  0  0  0
   28.2301   -7.0731  -12.1425 C   0  0  0  0  0  0  0  0  0  0  0  0
   29.4232   -6.4127  -12.4278 C   0  0  0  0  0  0  0  0  0  0  0  0
   30.6338   -4.1348  -15.2112 C   0  0  0  0  0  0  0  0  0  0  0  0
   29.9288   -3.4116  -14.5123 O   0  0  0  0  0  0  0  0  0  0  0  0
   30.5658   -4.1201  -16.5394 N   0  0  0  0  0  0  0  0  0  0  0  0
   31.3108   -4.5177  -17.0456 H   0  0  0  0  0  0  0  0  0  0  0  0
   28.4396   -4.3600  -17.7498 C   0  0  0  0  0  0  0  0  0  0  0  0
   27.3895   -3.7918  -18.4614 C   0  0  0  0  0  0  0  0  0  0  0  0
   29.4534   -2.1847  -17.5048 C   0  0  0  0  0  0  0  0  0  0  0  0
   29.4851   -3.5663  -17.2691 C   0  0  0  0  0  0  0  0  0  0  0  0
   30.4302   -1.3913  -17.0547 O   0  0  0  0  0  0  0  0  0  0  0  0
   28.3964   -1.6081  -18.2160 C   0  0  0  0  0  0  0  0  0  0  0  0
   27.3663   -2.4158  -18.6936 C   0  0  0  0  0  0  0  0  0  0  0  0
   31.1477   -1.7571  -16.5759 H   0  0  0  0  0  0  0  0  0  0  0  0
   33.6664   -3.5384  -15.1937 C   0  0  0  0  0  0  0  0  0  0  0  0
   34.5240   -3.9619  -16.3848 C   0  0  0  0  0  0  0  0  0  0  0  0
   34.4253   -2.6836  -14.1878 C   0  0  0  0  0  0  0  0  0  0  0  0
   35.1126   -5.8158  -13.4646 C   0  0  0  0  0  0  0  0  0  0  0  0
   35.7438   -6.7931  -14.4506 C   0  0  0  0  0  0  0  0  0  0  0  0
   36.8349   -7.6432  -13.8025 C   0  0  0  0  0  0  0  0  0  0  0  0
   36.2984   -8.4510  -12.7637 O   0  0  0  0  0  0  0  0  0  0  0  0
   35.6260   -9.0458  -13.1311 H   0  0  0  0  0  0  0  0  0  0  0  0
   37.4253   -8.5689  -14.8508 C   0  0  0  0  0  0  0  0  0  0  0  0
   38.9243   -8.3971  -15.0422 C   0  0  0  0  0  0  0  0  0  0  0  0
   39.5254   -8.1093  -13.7835 O   0  0  0  0  0  0  0  0  0  0  0  0
   39.3355   -8.8297  -13.1623 H   0  0  0  0  0  0  0  0  0  0  0  0
   39.4570   -9.6966  -15.6503 C   0  0  0  0  0  0  0  0  0  0  0  0
   40.1745   -8.3361  -17.4382 O   0  0  0  0  0  0  0  0  0  0  0  0
   39.9273   -9.5023  -17.0643 C   0  0  0  0  0  0  0  0  0  0  0  0
   40.0636  -10.4948  -17.8207 O   0  0  0  0  0  0  0  0  0  0  0  0
   39.8683  -11.3550  -17.5046 H   0  0  0  0  0  0  0  0  0  0  0  0
  3  1  1  0  0  0
  2  1  1  0  0  0
  1 34  1  0  0  0
  5  2  2  0  0  0
  2  9  1  0  0  0
 32 31  1  0  0  0
  3 31  1  0  0  0
 31 33  1  0  0  0
 35 34  1  0  0  0
 35 36  1  0  0  0
 40 39  1  0  0  0
 39 36  1  0  0  0
 10  6  2  0  0  0
 12  6  1  0  0  0
 24 23  2  0  0  0
 23 26  1  0  0  0
 24 29  1  0  0  0
  7  8  2  0  0  0
  7  9  1  0  0  0
 13 16  2  0  0  0
 13 14  1  0  0  0
  8 10  1  0  0  0
 26 25  2  0  0  0
 28 25  1  0  0  0
 25 27  1  0  0  0
 14 17  2  0  0  0
 44 45  2  0  0  0
 45 46  1  0  0  0
 45 43  1  0  0  0
 43 40  1  0  0  0
 40 41  1  0  0  0
 36 37  1  0  0  0
  9 12  2  0  0  0
 10 11  1  0  0  0
  4  3  2  0  0  0
 19  4  1  0  0  0
  4  5  1  0  0  0
 15  5  1  0  0  0
 16 15  1  0  0  0
 15 18  2  0  0  0
 17 18  1  0  0  0
 20 19  2  0  0  0
 19 21  1  0  0  0
 26 21  1  0  0  0
 29 28  2  0  0  0
 46 47  1  0  0  0
 41 42  1  0  0  0
 37 38  1  0  0  0
 21 22  1  0  0  0
 27 30  1  0  0  0
M  END
> <minimizedAffinity>
-8.14198

$$$$
3CCT_3HI_B_1


 47 50  0  0  0  0  0  0  0  0999 V2000
   33.4390   -4.6423  -13.9931 N   0  0  0  0  0  0  0  0  0  0  0  0
   33.8566   -5.9101  -13.9960 C   0  0  0  0  0  0  0  0  0  0  0  0
   32.7288   -4.4042  -12.8495 C   0  0  0  0  0  0  0  0  0  0  0  0
   32.6893   -5.5751  -12.0717 C   0  0  0  0  0  0  0  0  0  0  0  0
   33.4014   -6.5231  -12.7548 C   0  0  0  0  0  0  0  0  0  0  0  0
   34.9631   -8.2312  -16.7817 C   0  0  0  0  0  0  0  0  0  0  0  0
   36.0565   -6.6925  -14.7490 C   0  0  0  0  0  0  0  0  0  0  0  0
   36.8913   -7.4203  -15.5836 C   0  0  0  0  0  0  0  0  0  0  0  0
   34.6792   -6.7290  -14.9238 C   0  0  0  0  0  0  0  0  0  0  0  0
   36.3396   -8.1873  -16.5956 C   0  0  0  0  0  0  0  0  0  0  0  0
   37.1512   -8.8868  -17.3929 F   0  0  0  0  0  0  0  0  0  0  0  0
   34.1267   -7.4981  -15.9412 C   0  0  0  0  0  0  0  0  0  0  0  0
   34.9975   -9.6364  -11.3534 C   0  0  0  0  0  0  0  0  0  0  0  0
   34.0973  -10.6081  -11.7699 C   0  0  0  0  0  0  0  0  0  0  0  0
   33.6537   -7.9411  -12.3927 C   0  0  0  0  0  0  0  0  0  0  0  0
   34.7800   -8.3021  -11.6688 C   0  0  0  0  0  0  0  0  0  0  0  0
   32.9635  -10.2510  -12.4992 C   0  0  0  0  0  0  0  0  0  0  0  0
   32.7533   -8.9122  -12.8223 C   0  0  0  0  0  0  0  0  0  0  0  0
   32.0255   -5.7190  -10.7414 C   0  0  0  0  0  0  0  0  0  0  0  0
   30.7996   -5.7905  -10.7199 O   0  0  0  0  0  0  0  0  0  0  0  0
   32.7627   -5.8645   -9.6439 N   0  0  0  0  0  0  0  0  0  0  0  0
   33.7232   -6.0512   -9.7528 H   0  0  0  0  0  0  0  0  0  0  0  0
   32.1496   -4.5393   -7.6663 C   0  0  0  0  0  0  0  0  0  0  0  0
   31.6388   -4.4701   -6.3754 C   0  0  0  0  0  0  0  0  0  0  0  0
   31.8121   -6.9280   -7.6740 C   0  0  0  0  0  0  0  0  0  0  0  0
   32.2479   -5.7669   -8.3277 C   0  0  0  0  0  0  0  0  0  0  0  0
   31.8825   -8.1192   -8.2758 O   0  0  0  0  0  0  0  0  0  0  0  0
   31.2930   -6.8623   -6.3772 C   0  0  0  0  0  0  0  0  0  0  0  0
   31.2089   -5.6309   -5.7308 C   0  0  0  0  0  0  0  0  0  0  0  0
   32.2269   -8.1856   -9.1447 H   0  0  0  0  0  0  0  0  0  0  0  0
   32.0710   -3.1353  -12.4370 C   0  0  0  0  0  0  0  0  0  0  0  0
   32.3456   -2.7889  -10.9748 C   0  0  0  0  0  0  0  0  0  0  0  0
   30.5855   -3.1971  -12.7653 C   0  0  0  0  0  0  0  0  0  0  0  0
   33.7391   -3.7334  -15.1068 C   0  0  0  0  0  0  0  0  0  0  0  0
   33.0131   -4.2024  -16.3633 C   0  0  0  0  0  0  0  0  0  0  0  0
   31.5544   -3.7499  -16.3900 C   0  0  0  0  0  0  0  0  0  0  0  0
   31.4619   -2.3330  -16.3338 O   0  0  0  0  0  0  0  0  0  0  0  0
   31.9148   -1.9487  -17.1007 H   0  0  0  0  0  0  0  0  0  0  0  0
   30.9222   -4.2038  -17.6934 C   0  0  0  0  0  0  0  0  0  0  0  0
   29.4100   -4.3481  -17.6206 C   0  0  0  0  0  0  0  0  0  0  0  0
   28.9714   -4.0079  -16.3090 O   0  0  0  0  0  0  0  0  0  0  0  0
   29.2434   -3.1001  -16.1024 H   0  0  0  0  0  0  0  0  0  0  0  0
   28.8131   -3.4237  -18.6843 C   0  0  0  0  0  0  0  0  0  0  0  0
   29.5278   -1.2092  -18.3003 O   0  0  0  0  0  0  0  0  0  0  0  0
   28.5978   -2.0317  -18.1604 C   0  0  0  0  0  0  0  0  0  0  0  0
   27.5103   -1.7310  -17.6105 O   0  0  0  0  0  0  0  0  0  0  0  0
   26.8354   -2.3752  -17.5235 H   0  0  0  0  0  0  0  0  0  0  0  0
  3  1  1  0  0  0
  2  1  1  0  0  0
  1 34  1  0  0  0
  5  2  2  0  0  0
  2  9  1  0  0  0
 32 31  1  0  0  0
  3 31  1  0  0  0
 31 33  1  0  0  0
 35 34  1  0  0  0
 35 36  1  0  0  0
 40 39  1  0  0  0
 39 36  1  0  0  0
 10  6  2  0  0  0
 12  6  1  0  0  0
 24 23  2  0  0  0
 23 26  1  0  0  0
 24 29  1  0  0  0
  7  8  2  0  0  0
  7  9  1  0  0  0
 13 16  2  0  0  0
 13 14  1  0  0  0
  8 10  1  0  0  0
 26 25  2  0  0  0
 28 25  1  0  0  0
 25 27  1  0  0  0
 14 17  2  0  0  0
 44 45  2  0  0  0
 45 46  1  0  0  0
 45 43  1  0  0  0
 43 40  1  0  0  0
 40 41  1  0  0  0
 36 37  1  0  0  0
  9 12  2  0  0  0
 10 11  1  0  0  0
  4  3  2  0  0  0
 19  4  1  0  0  0
  4  5  1  0  0  0
 15  5  1  0  0  0
 16 15  1  0  0  0
 15 18  2  0  0  0
 17 18  1  0  0  0
 20 19  2  0  0  0
 19 21  1  0  0  0
 26 21  1  0  0  0
 29 28  2  0  0  0
 46 47  1  0  0  0
 41 42  1  0  0  0
 37 38  1  0  0  0
 21 22  1  0  0  0
 27 30  1  0  0  0
M  END
> <minimizedAffinity>
-8.09071

$$$$
3CCT_3HI_B_1


 47 50  0  0  0  0  0  0  0  0999 V2000
   33.4517   -7.9527  -13.3343 N   0  0  0  0  0  0  0  0  0  0  0  0
   33.0697   -6.7637  -13.8056 C   0  0  0  0  0  0  0  0  0  0  0  0
   33.0833   -8.0569  -12.0220 C   0  0  0  0  0  0  0  0  0  0  0  0
   32.4259   -6.8785  -11.6261 C   0  0  0  0  0  0  0  0  0  0  0  0
   32.3870   -6.0639  -12.7249 C   0  0  0  0  0  0  0  0  0  0  0  0
   34.1485   -4.5827  -16.7127 C   0  0  0  0  0  0  0  0  0  0  0  0
   32.2108   -6.4655  -16.0842 C   0  0  0  0  0  0  0  0  0  0  0  0
   32.2311   -5.8977  -17.3492 C   0  0  0  0  0  0  0  0  0  0  0  0
   33.1525   -6.0983  -15.1317 C   0  0  0  0  0  0  0  0  0  0  0  0
   33.2000   -4.9576  -17.6566 C   0  0  0  0  0  0  0  0  0  0  0  0
   33.2102   -4.4142  -18.8766 F   0  0  0  0  0  0  0  0  0  0  0  0
   34.1256   -5.1556  -15.4421 C   0  0  0  0  0  0  0  0  0  0  0  0
   30.0932   -3.1899  -13.5509 C   0  0  0  0  0  0  0  0  0  0  0  0
   30.8407   -2.1125  -13.0945 C   0  0  0  0  0  0  0  0  0  0  0  0
   31.8275   -4.6940  -12.8513 C   0  0  0  0  0  0  0  0  0  0  0  0
   30.5877   -4.4819  -13.4350 C   0  0  0  0  0  0  0  0  0  0  0  0
   32.0888   -2.3198  -12.5077 C   0  0  0  0  0  0  0  0  0  0  0  0
   32.5863   -3.6168  -12.4018 C   0  0  0  0  0  0  0  0  0  0  0  0
   31.8542   -6.6088  -10.2728 C   0  0  0  0  0  0  0  0  0  0  0  0
   30.6397   -6.7252  -10.1326 O   0  0  0  0  0  0  0  0  0  0  0  0
   32.6640   -6.3530   -9.2491 N   0  0  0  0  0  0  0  0  0  0  0  0
   33.6269   -6.5210   -9.3671 H   0  0  0  0  0  0  0  0  0  0  0  0
   32.3816   -4.5095   -7.6476 C   0  0  0  0  0  0  0  0  0  0  0  0
   31.9386   -4.0434   -6.4153 C   0  0  0  0  0  0  0  0  0  0  0  0
   31.5992   -6.7233   -7.0940 C   0  0  0  0  0  0  0  0  0  0  0  0
   32.2233   -5.8532   -7.9989 C   0  0  0  0  0  0  0  0  0  0  0  0
   31.4224   -8.0131   -7.3963 O   0  0  0  0  0  0  0  0  0  0  0  0
   31.1476   -6.2577   -5.8552 C   0  0  0  0  0  0  0  0  0  0  0  0
   31.3201   -4.9165   -5.5192 C   0  0  0  0  0  0  0  0  0  0  0  0
   31.7175   -8.3457   -8.2211 H   0  0  0  0  0  0  0  0  0  0  0  0
   33.3169   -9.2023  -11.1018 C   0  0  0  0  0  0  0  0  0  0  0  0
   34.7681   -9.2809  -10.6313 C   0  0  0  0  0  0  0  0  0  0  0  0
   32.8313  -10.4905  -11.7523 C   0  0  0  0  0  0  0  0  0  0  0  0
   34.1665   -8.9186  -14.1784 C   0  0  0  0  0  0  0  0  0  0  0  0
   35.6703   -8.6993  -14.0505 C   0  0  0  0  0  0  0  0  0  0  0  0
   36.3559   -8.5914  -15.4112 C   0  0  0  0  0  0  0  0  0  0  0  0
   35.4270   -8.2152  -16.4187 O   0  0  0  0  0  0  0  0  0  0  0  0
   35.0451   -7.3508  -16.1999 H   0  0  0  0  0  0  0  0  0  0  0  0
   37.4235   -7.5146  -15.3404 C   0  0  0  0  0  0  0  0  0  0  0  0
   38.8427   -8.0564  -15.4128 C   0  0  0  0  0  0  0  0  0  0  0  0
   39.3371   -8.2478  -14.0910 O   0  0  0  0  0  0  0  0  0  0  0  0
   38.7560   -8.8608  -13.6140 H   0  0  0  0  0  0  0  0  0  0  0  0
   38.7898   -9.3664  -16.2024 C   0  0  0  0  0  0  0  0  0  0  0  0
   40.7822   -9.9015  -17.3454 O   0  0  0  0  0  0  0  0  0  0  0  0
   40.1371  -10.0273  -16.2829 C   0  0  0  0  0  0  0  0  0  0  0  0
   40.5775  -10.6727  -15.3004 O   0  0  0  0  0  0  0  0  0  0  0  0
   40.0646  -10.7453  -14.5196 H   0  0  0  0  0  0  0  0  0  0  0  0
  3  1  1  0  0  0
  2  1  1  0  0  0
  1 34  1  0  0  0
  5  2  2  0  0  0
  2  9  1  0  0  0
 32 31  1  0  0  0
  3 31  1  0  0  0
 31 33  1  0  0  0
 35 34  1  0  0  0
 35 36  1  0  0  0
 40 39  1  0  0  0
 39 36  1  0  0  0
 10  6  2  0  0  0
 12  6  1  0  0  0
 24 23  2  0  0  0
 23 26  1  0  0  0
 24 29  1  0  0  0
  7  8  2  0  0  0
  7  9  1  0  0  0
 13 16  2  0  0  0
 13 14  1  0  0  0
  8 10  1  0  0  0
 26 25  2  0  0  0
 28 25  1  0  0  0
 25 27  1  0  0  0
 14 17  2  0  0  0
 44 45  2  0  0  0
 45 46  1  0  0  0
 45 43  1  0  0  0
 43 40  1  0  0  0
 40 41  1  0  0  0
 36 37  1  0  0  0
  9 12  2  0  0  0
 10 11  1  0  0  0
  4  3  2  0  0  0
 19  4  1  0  0  0
  4  5  1  0  0  0
 15  5  1  0  0  0
 16 15  1  0  0  0
 15 18  2  0  0  0
 17 18  1  0  0  0
 20 19  2  0  0  0
 19 21  1  0  0  0
 26 21  1  0  0  0
 29 28  2  0  0  0
 46 47  1  0  0  0
 41 42  1  0  0  0
 37 38  1  0  0  0
 21 22  1  0  0  0
 27 30  1  0  0  0
M  END
> <minimizedAffinity>
-8.06591

$$$$
3CCT_3HI_B_1


 47 50  0  0  0  0  0  0  0  0999 V2000
   33.5476   -8.0493  -13.4978 N   0  0  0  0  0  0  0  0  0  0  0  0
   33.1904   -6.8496  -13.9615 C   0  0  0  0  0  0  0  0  0  0  0  0
   33.1378   -8.1709  -12.1992 C   0  0  0  0  0  0  0  0  0  0  0  0
   32.4784   -6.9931  -11.8051 C   0  0  0  0  0  0  0  0  0  0  0  0
   32.4805   -6.1609  -12.8913 C   0  0  0  0  0  0  0  0  0  0  0  0
   32.5787   -5.6381  -17.5012 C   0  0  0  0  0  0  0  0  0  0  0  0
   34.4129   -5.3245  -15.4440 C   0  0  0  0  0  0  0  0  0  0  0  0
   34.5953   -4.6403  -16.6363 C   0  0  0  0  0  0  0  0  0  0  0  0
   33.3199   -6.1642  -15.2736 C   0  0  0  0  0  0  0  0  0  0  0  0
   33.6771   -4.8017  -17.6599 C   0  0  0  0  0  0  0  0  0  0  0  0
   33.8623   -4.1407  -18.8055 F   0  0  0  0  0  0  0  0  0  0  0  0
   32.3980   -6.3243  -16.3013 C   0  0  0  0  0  0  0  0  0  0  0  0
   32.1399   -2.4117  -12.7140 C   0  0  0  0  0  0  0  0  0  0  0  0
   30.8631   -2.2353  -13.2303 C   0  0  0  0  0  0  0  0  0  0  0  0
   31.9368   -4.7843  -13.0130 C   0  0  0  0  0  0  0  0  0  0  0  0
   32.6766   -3.6868  -12.5994 C   0  0  0  0  0  0  0  0  0  0  0  0
   30.1139   -3.3355  -13.6467 C   0  0  0  0  0  0  0  0  0  0  0  0
   30.6518   -4.6145  -13.5213 C   0  0  0  0  0  0  0  0  0  0  0  0
   31.8674   -6.7396  -10.4659 C   0  0  0  0  0  0  0  0  0  0  0  0
   30.6420   -6.7571  -10.3850 O   0  0  0  0  0  0  0  0  0  0  0  0
   32.6459   -6.6037   -9.3960 N   0  0  0  0  0  0  0  0  0  0  0  0
   33.5957   -6.8485   -9.4804 H   0  0  0  0  0  0  0  0  0  0  0  0
   31.6319   -6.9851   -7.1892 C   0  0  0  0  0  0  0  0  0  0  0  0
   31.1933   -6.4933   -5.9654 C   0  0  0  0  0  0  0  0  0  0  0  0
   32.3113   -4.7639   -7.8409 C   0  0  0  0  0  0  0  0  0  0  0  0
   32.1894   -6.1276   -8.1422 C   0  0  0  0  0  0  0  0  0  0  0  0
   32.8460   -3.9136   -8.7225 O   0  0  0  0  0  0  0  0  0  0  0  0
   31.8758   -4.2656   -6.6089 C   0  0  0  0  0  0  0  0  0  0  0  0
   31.3164   -5.1340   -5.6739 C   0  0  0  0  0  0  0  0  0  0  0  0
   33.1441   -4.2267   -9.5538 H   0  0  0  0  0  0  0  0  0  0  0  0
   33.3331   -9.3326  -11.2908 C   0  0  0  0  0  0  0  0  0  0  0  0
   34.7623   -9.4181  -10.7584 C   0  0  0  0  0  0  0  0  0  0  0  0
   32.8792  -10.6093  -11.9854 C   0  0  0  0  0  0  0  0  0  0  0  0
   34.2801   -9.0081  -14.3348 C   0  0  0  0  0  0  0  0  0  0  0  0
   35.7072   -9.1567  -13.8179 C   0  0  0  0  0  0  0  0  0  0  0  0
   36.5768   -7.9509  -14.1687 C   0  0  0  0  0  0  0  0  0  0  0  0
   37.5515   -7.7183  -13.1611 O   0  0  0  0  0  0  0  0  0  0  0  0
   38.1259   -8.4959  -13.0813 H   0  0  0  0  0  0  0  0  0  0  0  0
   37.3111   -8.2346  -15.4666 C   0  0  0  0  0  0  0  0  0  0  0  0
   38.8173   -8.0472  -15.3694 C   0  0  0  0  0  0  0  0  0  0  0  0
   39.3895   -9.1881  -14.7374 O   0  0  0  0  0  0  0  0  0  0  0  0
   39.1713   -9.9838  -15.2475 H   0  0  0  0  0  0  0  0  0  0  0  0
   39.3443   -7.8537  -16.7931 C   0  0  0  0  0  0  0  0  0  0  0  0
   38.7700   -5.8633  -17.9207 O   0  0  0  0  0  0  0  0  0  0  0  0
   39.5613   -6.4025  -17.1181 C   0  0  0  0  0  0  0  0  0  0  0  0
   40.5089   -5.7762  -16.5838 O   0  0  0  0  0  0  0  0  0  0  0  0
   41.0823   -6.2146  -15.9862 H   0  0  0  0  0  0  0  0  0  0  0  0
  3  1  1  0  0  0
  2  1  1  0  0  0
  1 34  1  0  0  0
  5  2  2  0  0  0
  2  9  1  0  0  0
 32 31  1  0  0  0
  3 31  1  0  0  0
 31 33  1  0  0  0
 35 34  1  0  0  0
 35 36  1  0  0  0
 40 39  1  0  0  0
 39 36  1  0  0  0
 10  6  2  0  0  0
 12  6  1  0  0  0
 24 23  2  0  0  0
 23 26  1  0  0  0
 24 29  1  0  0  0
  7  8  2  0  0  0
  7  9  1  0  0  0
 13 16  2  0  0  0
 13 14  1  0  0  0
  8 10  1  0  0  0
 26 25  2  0  0  0
 28 25  1  0  0  0
 25 27  1  0  0  0
 14 17  2  0  0  0
 44 45  2  0  0  0
 45 46  1  0  0  0
 45 43  1  0  0  0
 43 40  1  0  0  0
 40 41  1  0  0  0
 36 37  1  0  0  0
  9 12  2  0  0  0
 10 11  1  0  0  0
  4  3  2  0  0  0
 19  4  1  0  0  0
  4  5  1  0  0  0
 15  5  1  0  0  0
 16 15  1  0  0  0
 15 18  2  0  0  0
 17 18  1  0  0  0
 20 19  2  0  0  0
 19 21  1  0  0  0
 26 21  1  0  0  0
 29 28  2  0  0  0
 46 47  1  0  0  0
 41 42  1  0  0  0
 37 38  1  0  0  0
 21 22  1  0  0  0
 27 30  1  0  0  0
M  END
> <minimizedAffinity>
-7.72179

$$$$
3CCT_3HI_B_1


 47 50  0  0  0  0  0  0  0  0999 V2000
   34.0754   -5.5750  -15.3348 N   0  0  0  0  0  0  0  0  0  0  0  0
   33.6079   -6.3126  -14.3253 C   0  0  0  0  0  0  0  0  0  0  0  0
   35.2614   -6.1009  -15.7658 C   0  0  0  0  0  0  0  0  0  0  0  0
   35.5741   -7.2381  -15.0000 C   0  0  0  0  0  0  0  0  0  0  0  0
   34.5498   -7.4032  -14.1078 C   0  0  0  0  0  0  0  0  0  0  0  0
   31.1586   -5.6742  -11.5031 C   0  0  0  0  0  0  0  0  0  0  0  0
   31.2262   -6.8202  -14.0283 C   0  0  0  0  0  0  0  0  0  0  0  0
   30.0380   -6.8045  -13.3134 C   0  0  0  0  0  0  0  0  0  0  0  0
   32.3803   -6.2671  -13.4891 C   0  0  0  0  0  0  0  0  0  0  0  0
   30.0107   -6.2321  -12.0531 C   0  0  0  0  0  0  0  0  0  0  0  0
   28.8626   -6.2238  -11.3709 F   0  0  0  0  0  0  0  0  0  0  0  0
   32.3513   -5.6913  -12.2244 C   0  0  0  0  0  0  0  0  0  0  0  0
   34.9981   -9.3866  -10.9347 C   0  0  0  0  0  0  0  0  0  0  0  0
   34.0747  -10.4061  -11.1249 C   0  0  0  0  0  0  0  0  0  0  0  0
   34.3891   -8.4354  -13.0523 C   0  0  0  0  0  0  0  0  0  0  0  0
   35.1606   -8.4028  -11.9005 C   0  0  0  0  0  0  0  0  0  0  0  0
   33.2969  -10.4446  -12.2818 C   0  0  0  0  0  0  0  0  0  0  0  0
   33.4695   -9.4611  -13.2534 C   0  0  0  0  0  0  0  0  0  0  0  0
   36.7783   -8.1048  -15.1732 C   0  0  0  0  0  0  0  0  0  0  0  0
   37.5852   -8.1523  -14.2486 O   0  0  0  0  0  0  0  0  0  0  0  0
   36.8976   -8.8663  -16.2572 N   0  0  0  0  0  0  0  0  0  0  0  0
   36.1085   -8.9754  -16.8356 H   0  0  0  0  0  0  0  0  0  0  0  0
   39.2127   -8.8269  -17.0831 C   0  0  0  0  0  0  0  0  0  0  0  0
   40.3746   -9.5014  -17.4398 C   0  0  0  0  0  0  0  0  0  0  0  0
   38.1624  -10.9262  -16.5264 C   0  0  0  0  0  0  0  0  0  0  0  0
   38.0930   -9.5297  -16.6289 C   0  0  0  0  0  0  0  0  0  0  0  0
   37.1158  -11.6329  -16.0890 O   0  0  0  0  0  0  0  0  0  0  0  0
   39.3309  -11.6084  -16.8794 C   0  0  0  0  0  0  0  0  0  0  0  0
   40.4350  -10.8920  -17.3367 C   0  0  0  0  0  0  0  0  0  0  0  0
   36.3233  -11.1955  -15.8472 H   0  0  0  0  0  0  0  0  0  0  0  0
   36.1347   -5.5954  -16.8589 C   0  0  0  0  0  0  0  0  0  0  0  0
   36.5321   -4.1346  -16.6544 C   0  0  0  0  0  0  0  0  0  0  0  0
   35.4703   -5.8486  -18.2052 C   0  0  0  0  0  0  0  0  0  0  0  0
   33.3537   -4.3910  -15.8181 C   0  0  0  0  0  0  0  0  0  0  0  0
   33.4261   -3.2826  -14.7731 C   0  0  0  0  0  0  0  0  0  0  0  0
   32.0675   -2.6275  -14.5312 C   0  0  0  0  0  0  0  0  0  0  0  0
   32.0203   -1.3298  -15.1084 O   0  0  0  0  0  0  0  0  0  0  0  0
   32.1609   -1.3965  -16.0659 H   0  0  0  0  0  0  0  0  0  0  0  0
   30.9909   -3.4681  -15.1934 C   0  0  0  0  0  0  0  0  0  0  0  0
   30.0876   -2.6778  -16.1274 C   0  0  0  0  0  0  0  0  0  0  0  0
   30.8651   -2.1637  -17.2042 O   0  0  0  0  0  0  0  0  0  0  0  0
   31.2924   -2.8973  -17.6735 H   0  0  0  0  0  0  0  0  0  0  0  0
   28.9913   -3.6291  -16.6127 C   0  0  0  0  0  0  0  0  0  0  0  0
   27.2435   -3.6296  -18.1963 O   0  0  0  0  0  0  0  0  0  0  0  0
   27.9783   -2.9256  -17.4714 C   0  0  0  0  0  0  0  0  0  0  0  0
   27.8908   -1.6738  -17.4382 O   0  0  0  0  0  0  0  0  0  0  0  0
   28.4594   -1.1790  -16.8816 H   0  0  0  0  0  0  0  0  0  0  0  0
  3  1  1  0  0  0
  2  1  1  0  0  0
  1 34  1  0  0  0
  5  2  2  0  0  0
  2  9  1  0  0  0
 32 31  1  0  0  0
  3 31  1  0  0  0
 31 33  1  0  0  0
 35 34  1  0  0  0
 35 36  1  0  0  0
 40 39  1  0  0  0
 39 36  1  0  0  0
 10  6  2  0  0  0
 12  6  1  0  0  0
 24 23  2  0  0  0
 23 26  1  0  0  0
 24 29  1  0  0  0
  7  8  2  0  0  0
  7  9  1  0  0  0
 13 16  2  0  0  0
 13 14  1  0  0  0
  8 10  1  0  0  0
 26 25  2  0  0  0
 28 25  1  0  0  0
 25 27  1  0  0  0
 14 17  2  0  0  0
 44 45  2  0  0  0
 45 46  1  0  0  0
 45 43  1  0  0  0
 43 40  1  0  0  0
 40 41  1  0  0  0
 36 37  1  0  0  0
  9 12  2  0  0  0
 10 11  1  0  0  0
  4  3  2  0  0  0
 19  4  1  0  0  0
  4  5  1  0  0  0
 15  5  1  0  0  0
 16 15  1  0  0  0
 15 18  2  0  0  0
 17 18  1  0  0  0
 20 19  2  0  0  0
 19 21  1  0  0  0
 26 21  1  0  0  0
 29 28  2  0  0  0
 46 47  1  0  0  0
 41 42  1  0  0  0
 37 38  1  0  0  0
 21 22  1  0  0  0
 27 30  1  0  0  0
M  END
> <minimizedAffinity>
-7.56429

$$$$
