5C2H_4XU_B_803
  RCSB PDB12061717023D
Coordinates from PDB:5C2H:B:803 Model:1 without hydrogens
 31 34  0  0  0  0            999 V2000
    9.0710   38.3270   60.3690   C 0  0  0  0  0  0  0  0  0  0  0  0
   10.5280   39.7400   59.0730   C 0  0  0  0  0  0  0  0  0  0  0  0
    8.3210   42.9120   58.5880   C 0  0  0  0  0  0  0  0  0  0  0  0
   10.0830   41.9070   57.7320   C 0  0  0  0  0  0  0  0  0  0  0  0
   11.1720   41.8030   56.7370   C 0  0  0  0  0  0  0  0  0  0  0  0
    7.2450   43.8960   58.8150   C 0  0  0  0  0  0  0  0  0  0  0  0
    4.7570   36.6770   56.8450   C 0  0  0  0  0  0  0  0  0  0  0  0
    3.3980   34.8030   54.1400   C 0  0  0  0  0  0  0  0  0  0  0  0
    1.1210   35.2960   53.7410   C 0  0  0  0  0  0  0  0  0  0  0  0
    1.0230   35.7910   55.0340   C 0  0  0  0  0  0  0  0  0  0  0  0
    7.4700   37.0910   61.5220   C 0  0  0  0  0  0  0  0  0  0  0  0
    6.6850   36.8940   60.4580   N 0  0  0  0  0  0  0  0  0  0  0  0
    6.5830   37.3570   58.1300   O 0  0  0  0  0  0  0  0  0  0  0  0
    8.4460   41.5540   59.6200   S 0  0  0  0  0  0  0  0  0  0  0  0
    6.8760   36.4220   62.9700  Cl 0  0  0  0  0  0  0  0  0  0  0  0
    7.2050   37.4490   59.3620   C 0  0  0  0  0  0  0  0  0  0  0  0
    8.3400   38.1370   59.2670   N 0  0  0  0  0  0  0  0  0  0  0  0
    8.6530   37.7920   61.5600   C 0  0  0  0  0  0  0  0  0  0  0  0
   10.2720   39.0830   60.3440   N 0  0  0  0  0  0  0  0  0  0  0  0
    9.4190   37.9580   62.8270   C 0  0  0  0  0  0  0  0  0  0  0  0
    9.8170   41.0080   58.7430   C 0  0  0  0  0  0  0  0  0  0  0  0
    9.2360   42.9780   57.6480   N 0  0  0  0  0  0  0  0  0  0  0  0
    5.4350   36.5230   58.1950   C 0  0  0  0  0  0  0  0  0  0  0  0
    4.4230   35.2990   56.3170   C 0  0  0  0  0  0  0  0  0  0  0  0
    3.2330   35.3180   55.4110   C 0  0  0  0  0  0  0  0  0  0  0  0
    2.3210   34.7960   53.2850   C 0  0  0  0  0  0  0  0  0  0  0  0
    2.0710   35.8120   55.8720   N 0  0  0  0  0  0  0  0  0  0  0  0
    0.0410   35.2700   52.8950   C 0  0  0  0  0  0  0  0  0  0  0  0
   -1.1680   35.7760   53.3280   C 0  0  0  0  0  0  0  0  0  0  0  0
   -1.2780   36.3110   54.5900   C 0  0  0  0  0  0  0  0  0  0  0  0
   -0.1920   36.3010   55.4350   C 0  0  0  0  0  0  0  0  0  0  0  0
 28 29  2  0  0  0  0
 28  9  1  0  0  0  0
 26  9  2  0  0  0  0
 26  8  1  0  0  0  0
 29 30  1  0  0  0  0
  9 10  1  0  0  0  0
  8 25  2  0  0  0  0
 30 31  2  0  0  0  0
 10 31  1  0  0  0  0
 10 27  2  0  0  0  0
 25 27  1  0  0  0  0
 25 24  1  0  0  0  0
 24  7  1  0  0  0  0
  5  4  1  0  0  0  0
  7 23  1  0  0  0  0
 22  4  1  0  0  0  0
 22  3  2  0  0  0  0
  4 21  2  0  0  0  0
 13 23  1  0  0  0  0
 13 16  1  0  0  0  0
  3  6  1  0  0  0  0
  3 14  1  0  0  0  0
 21  2  1  0  0  0  0
 21 14  1  0  0  0  0
  2 19  1  0  0  0  0
 17 16  2  0  0  0  0
 17  1  1  0  0  0  0
 16 12  1  0  0  0  0
 19  1  1  0  0  0  0
  1 18  2  0  0  0  0
 12 11  2  0  0  0  0
 11 18  1  0  0  0  0
 11 15  1  0  0  0  0
 18 20  1  0  0  0  0
A    1
C3
A    2
C7
A    3
C9
A    4
C11
A    5
C12
A    6
C13
A    7
C15
A    8
C18
A    9
C20
A   10
C21
A   11
C
A   12
N
A   13
O
A   14
S
A   15
CL
A   16
C1
A   17
N2
A   18
C4
A   19
N5
A   20
C6
A   21
C8
A   22
N10
A   23
C14
A   24
C16
A   25
C17
A   26
C19
A   27
N22
A   28
C23
A   29
C24
A   30
C25
A   31
C26
M  END
>  <InstanceId>
5C2H_4XU_B_803

>  <ChemCompId>
4XU

>  <PdbId>
5C2H

>  <ChainId>
B

>  <ResidueNumber>
803

>  <InsertionCode>


>  <Model>
1

>  <AltIds>


>  <MissingHeavyAtoms>
0

>  <ObservedFormula>
C23 N5 O S Cl

>  <Name>
6-chloro-N-[(2,4-dimethyl-1,3-thiazol-5-yl)methyl]-5-methyl-2-[3-(quinolin-2-yl)propoxy]pyrimidin-4-amine

>  <SystematicName>
6-chloranyl-N-[(2,4-dimethyl-1,3-thiazol-5-yl)methyl]-5-methyl-2-(3-quinolin-2-ylpropoxy)pyrimidin-4-amine

>  <Synonyms>


>  <Type>
NON-POLYMER

>  <Formula>
C23 H24 Cl N5 O S

>  <MolecularWeight>
453.988

>  <ModifiedDate>
2015-10-02

>  <Parent>


>  <OneLetterCode>


>  <SubcomponentList>


>  <AmbiguousFlag>
N

>  <InChI>
InChI=1S/C23H24ClN5OS/c1-14-21(24)28-23(29-22(14)25-13-20-15(2)26-16(3)31-20)30-12-6-8-18-11-10-17-7-4-5-9-19(17)27-18/h4-5,7,9-11H,6,8,12-13H2,1-3H3,(H,25,28,29)

>  <InChIKey>
DWLPNEAIQATTGD-UHFFFAOYSA-N

>  <SMILES>
Cc1c(nc(nc1Cl)OCCCc2ccc3ccccc3n2)NCc4c(nc(s4)C)C

$$$$
