5C2H_4XU_B_803


 32 35  0  0  0  0  0  0  0  0999 V2000
    8.3918   38.1876   59.7670 C   0  0  0  0  0  0  0  0  0  0  0  0
    7.0681   36.8788   61.1652 C   0  0  0  0  0  0  0  0  0  0  0  0
    6.2115   36.5121   60.2066 N   0  0  0  0  0  0  0  0  0  0  0  0
    6.7015   36.2662   62.7104 Cl  0  0  0  0  0  0  0  0  0  0  0  0
    6.5528   37.0317   59.0263 C   0  0  0  0  0  0  0  0  0  0  0  0
    7.5840   37.8308   58.7645 N   0  0  0  0  0  0  0  0  0  0  0  0
    8.1582   37.7067   61.0294 C   0  0  0  0  0  0  0  0  0  0  0  0
    9.0195   38.0568   62.1935 C   0  0  0  0  0  0  0  0  0  0  0  0
    9.4871   39.0670   59.5630 N   0  0  0  0  0  0  0  0  0  0  0  0
   10.4063   38.8537   59.8436 H   0  0  0  0  0  0  0  0  0  0  0  0
    9.1285   40.3110   58.9022 C   0  0  0  0  0  0  0  0  0  0  0  0
   11.6763   42.6953   57.1727 C   0  0  0  0  0  0  0  0  0  0  0  0
   11.3528   41.6215   59.0673 C   0  0  0  0  0  0  0  0  0  0  0  0
   11.7694   41.2194   60.4280 C   0  0  0  0  0  0  0  0  0  0  0  0
   12.2838   43.5546   56.1382 C   0  0  0  0  0  0  0  0  0  0  0  0
   10.1746   41.9397   56.8584 S   0  0  0  0  0  0  0  0  0  0  0  0
   10.2028   41.2243   58.4186 C   0  0  0  0  0  0  0  0  0  0  0  0
   12.1808   42.4497   58.3603 N   0  0  0  0  0  0  0  0  0  0  0  0
    5.8285   36.7735   57.8765 O   0  0  0  0  0  0  0  0  0  0  0  0
    6.6409   36.9002   56.7182 C   0  0  0  0  0  0  0  0  0  0  0  0
    6.0679   35.9072   55.7224 C   0  0  0  0  0  0  0  0  0  0  0  0
    4.8397   35.2698   56.3346 C   0  0  0  0  0  0  0  0  0  0  0  0
    3.9122   34.7704   54.1151 C   0  0  0  0  0  0  0  0  0  0  0  0
    1.6326   35.1796   53.6429 C   0  0  0  0  0  0  0  0  0  0  0  0
    1.4697   35.6486   54.9391 C   0  0  0  0  0  0  0  0  0  0  0  0
    3.6823   35.2570   55.3872 C   0  0  0  0  0  0  0  0  0  0  0  0
    2.8669   34.7352   53.2223 C   0  0  0  0  0  0  0  0  0  0  0  0
    2.4861   35.6969   55.8141 N   0  0  0  0  0  0  0  0  0  0  0  0
    0.5847   35.1252   52.7587 C   0  0  0  0  0  0  0  0  0  0  0  0
   -0.6580   35.5757   53.1561 C   0  0  0  0  0  0  0  0  0  0  0  0
   -0.8334   36.0846   54.4215 C   0  0  0  0  0  0  0  0  0  0  0  0
    0.2219   36.1034   55.3044 C   0  0  0  0  0  0  0  0  0  0  0  0
 29 30  2  0  0  0
 29 24  1  0  0  0
 27 24  2  0  0  0
 27 23  1  0  0  0
 30 31  1  0  0  0
 24 25  1  0  0  0
 23 26  2  0  0  0
 31 32  2  0  0  0
 25 32  1  0  0  0
 25 28  2  0  0  0
 26 28  1  0  0  0
 26 22  1  0  0  0
 22 21  1  0  0  0
 14 13  1  0  0  0
 21 20  1  0  0  0
 18 13  1  0  0  0
 18 12  2  0  0  0
 13 17  2  0  0  0
 19 20  1  0  0  0
 19  5  1  0  0  0
 12 15  1  0  0  0
 12 16  1  0  0  0
 17 11  1  0  0  0
 17 16  1  0  0  0
 11  9  1  0  0  0
  6  5  2  0  0  0
  6  1  1  0  0  0
  5  3  1  0  0  0
  9  1  1  0  0  0
  1  7  2  0  0  0
  3  2  2  0  0  0
  2  7  1  0  0  0
  2  4  1  0  0  0
  7  8  1  0  0  0
  9 10  1  0  0  0
M  END
> <minimizedAffinity>
-9.86545

$$$$
5C2H_4XU_B_803


 32 35  0  0  0  0  0  0  0  0999 V2000
   12.0015   43.2849   54.0735 C   0  0  0  0  0  0  0  0  0  0  0  0
   13.8897   43.0549   52.7311 C   0  0  0  0  0  0  0  0  0  0  0  0
   14.7636   43.2680   53.7201 N   0  0  0  0  0  0  0  0  0  0  0  0
   14.5997   42.8049   51.2045 Cl  0  0  0  0  0  0  0  0  0  0  0  0
   14.1412   43.4632   54.8838 C   0  0  0  0  0  0  0  0  0  0  0  0
   12.8291   43.4759   55.1047 N   0  0  0  0  0  0  0  0  0  0  0  0
   12.5172   43.0564   52.8240 C   0  0  0  0  0  0  0  0  0  0  0  0
   11.6560   42.8296   51.6297 C   0  0  0  0  0  0  0  0  0  0  0  0
   10.5917   43.3236   54.2339 N   0  0  0  0  0  0  0  0  0  0  0  0
    9.9888   42.6472   53.8489 H   0  0  0  0  0  0  0  0  0  0  0  0
   10.1189   44.4524   55.0181 C   0  0  0  0  0  0  0  0  0  0  0  0
    8.3193   43.3709   58.2982 C   0  0  0  0  0  0  0  0  0  0  0  0
    8.2374   44.9160   56.7319 C   0  0  0  0  0  0  0  0  0  0  0  0
    7.6307   46.1109   56.1068 C   0  0  0  0  0  0  0  0  0  0  0  0
    8.0063   42.5914   59.5115 C   0  0  0  0  0  0  0  0  0  0  0  0
    9.6351   42.8969   57.3140 S   0  0  0  0  0  0  0  0  0  0  0  0
    9.3192   44.2084   56.2523 C   0  0  0  0  0  0  0  0  0  0  0  0
    7.6764   44.4391   57.8849 N   0  0  0  0  0  0  0  0  0  0  0  0
   14.8382   43.6809   56.0585 O   0  0  0  0  0  0  0  0  0  0  0  0
   13.9537   43.8493   57.1571 C   0  0  0  0  0  0  0  0  0  0  0  0
   14.4832   42.9224   58.2372 C   0  0  0  0  0  0  0  0  0  0  0  0
   13.9929   41.5206   57.9476 C   0  0  0  0  0  0  0  0  0  0  0  0
   12.8304   41.7272   60.1021 C   0  0  0  0  0  0  0  0  0  0  0  0
   10.8996   40.4416   60.5566 C   0  0  0  0  0  0  0  0  0  0  0  0
   11.0101   39.8685   59.2972 C   0  0  0  0  0  0  0  0  0  0  0  0
   12.8859   41.1118   58.8668 C   0  0  0  0  0  0  0  0  0  0  0  0
   11.8190   41.3817   60.9675 C   0  0  0  0  0  0  0  0  0  0  0  0
   11.9996   40.1912   58.4500 N   0  0  0  0  0  0  0  0  0  0  0  0
    9.8785   40.1120   61.4118 C   0  0  0  0  0  0  0  0  0  0  0  0
    8.9527   39.1644   61.0243 C   0  0  0  0  0  0  0  0  0  0  0  0
    9.0666   38.5517   59.7985 C   0  0  0  0  0  0  0  0  0  0  0  0
   10.0798   38.9169   58.9420 C   0  0  0  0  0  0  0  0  0  0  0  0
 29 30  2  0  0  0
 29 24  1  0  0  0
 27 24  2  0  0  0
 27 23  1  0  0  0
 30 31  1  0  0  0
 24 25  1  0  0  0
 23 26  2  0  0  0
 31 32  2  0  0  0
 25 32  1  0  0  0
 25 28  2  0  0  0
 26 28  1  0  0  0
 26 22  1  0  0  0
 22 21  1  0  0  0
 14 13  1  0  0  0
 21 20  1  0  0  0
 18 13  1  0  0  0
 18 12  2  0  0  0
 13 17  2  0  0  0
 19 20  1  0  0  0
 19  5  1  0  0  0
 12 15  1  0  0  0
 12 16  1  0  0  0
 17 11  1  0  0  0
 17 16  1  0  0  0
 11  9  1  0  0  0
  6  5  2  0  0  0
  6  1  1  0  0  0
  5  3  1  0  0  0
  9  1  1  0  0  0
  1  7  2  0  0  0
  3  2  2  0  0  0
  2  7  1  0  0  0
  2  4  1  0  0  0
  7  8  1  0  0  0
  9 10  1  0  0  0
M  END
> <minimizedAffinity>
-9.36408

$$$$
5C2H_4XU_B_803


 32 35  0  0  0  0  0  0  0  0999 V2000
   14.2512   42.6692   54.8505 C   0  0  0  0  0  0  0  0  0  0  0  0
   12.9589   44.0984   56.1572 C   0  0  0  0  0  0  0  0  0  0  0  0
   13.1102   43.3959   57.2845 N   0  0  0  0  0  0  0  0  0  0  0  0
   11.9692   45.4746   56.3115 Cl  0  0  0  0  0  0  0  0  0  0  0  0
   13.8888   42.3301   57.0911 C   0  0  0  0  0  0  0  0  0  0  0  0
   14.4598   41.9439   55.9529 N   0  0  0  0  0  0  0  0  0  0  0  0
   13.4805   43.8008   54.9196 C   0  0  0  0  0  0  0  0  0  0  0  0
   13.2098   44.6610   53.7336 C   0  0  0  0  0  0  0  0  0  0  0  0
   14.7998   42.2920   53.5969 N   0  0  0  0  0  0  0  0  0  0  0  0
   15.5188   42.7962   53.1520 H   0  0  0  0  0  0  0  0  0  0  0  0
   14.2036   41.0939   53.0297 C   0  0  0  0  0  0  0  0  0  0  0  0
   10.3841   40.3830   53.3012 C   0  0  0  0  0  0  0  0  0  0  0  0
   11.8288   41.5338   52.1029 C   0  0  0  0  0  0  0  0  0  0  0  0
   12.1698   42.4408   50.9859 C   0  0  0  0  0  0  0  0  0  0  0  0
    9.1140   39.8218   53.8006 C   0  0  0  0  0  0  0  0  0  0  0  0
   11.8470   39.9751   54.0876 S   0  0  0  0  0  0  0  0  0  0  0  0
   12.7196   40.9599   52.9851 C   0  0  0  0  0  0  0  0  0  0  0  0
   10.5135   41.2044   52.2845 N   0  0  0  0  0  0  0  0  0  0  0  0
   14.2098   41.4625   58.1195 O   0  0  0  0  0  0  0  0  0  0  0  0
   13.2217   41.4869   59.1396 C   0  0  0  0  0  0  0  0  0  0  0  0
   12.5987   40.1022   59.1203 C   0  0  0  0  0  0  0  0  0  0  0  0
   11.5027   40.0848   58.0774 C   0  0  0  0  0  0  0  0  0  0  0  0
    9.6499   40.6032   59.6052 C   0  0  0  0  0  0  0  0  0  0  0  0
    8.2710   42.4861   59.2302 C   0  0  0  0  0  0  0  0  0  0  0  0
    9.0184   42.7822   58.0988 C   0  0  0  0  0  0  0  0  0  0  0  0
   10.3459   40.9507   58.4639 C   0  0  0  0  0  0  0  0  0  0  0  0
    8.5870   41.3842   59.9944 C   0  0  0  0  0  0  0  0  0  0  0  0
   10.0505   42.0201   57.7050 N   0  0  0  0  0  0  0  0  0  0  0  0
    7.2235   43.2772   59.6300 C   0  0  0  0  0  0  0  0  0  0  0  0
    6.8831   44.3799   58.8728 C   0  0  0  0  0  0  0  0  0  0  0  0
    7.5820   44.6686   57.7242 C   0  0  0  0  0  0  0  0  0  0  0  0
    8.6485   43.8812   57.3554 C   0  0  0  0  0  0  0  0  0  0  0  0
 29 30  2  0  0  0
 29 24  1  0  0  0
 27 24  2  0  0  0
 27 23  1  0  0  0
 30 31  1  0  0  0
 24 25  1  0  0  0
 23 26  2  0  0  0
 31 32  2  0  0  0
 25 32  1  0  0  0
 25 28  2  0  0  0
 26 28  1  0  0  0
 26 22  1  0  0  0
 22 21  1  0  0  0
 14 13  1  0  0  0
 21 20  1  0  0  0
 18 13  1  0  0  0
 18 12  2  0  0  0
 13 17  2  0  0  0
 19 20  1  0  0  0
 19  5  1  0  0  0
 12 15  1  0  0  0
 12 16  1  0  0  0
 17 11  1  0  0  0
 17 16  1  0  0  0
 11  9  1  0  0  0
  6  5  2  0  0  0
  6  1  1  0  0  0
  5  3  1  0  0  0
  9  1  1  0  0  0
  1  7  2  0  0  0
  3  2  2  0  0  0
  2  7  1  0  0  0
  2  4  1  0  0  0
  7  8  1  0  0  0
  9 10  1  0  0  0
M  END
> <minimizedAffinity>
-9.32160

$$$$
5C2H_4XU_B_803


 32 35  0  0  0  0  0  0  0  0999 V2000
   12.9015   42.4886   55.6798 C   0  0  0  0  0  0  0  0  0  0  0  0
   13.7596   44.4861   56.5130 C   0  0  0  0  0  0  0  0  0  0  0  0
   14.0077   44.0063   57.7358 N   0  0  0  0  0  0  0  0  0  0  0  0
   14.1411   46.1325   56.3107 Cl  0  0  0  0  0  0  0  0  0  0  0  0
   13.6796   42.7164   57.8268 C   0  0  0  0  0  0  0  0  0  0  0  0
   13.1546   41.9486   56.8753 N   0  0  0  0  0  0  0  0  0  0  0  0
   13.2089   43.8051   55.4522 C   0  0  0  0  0  0  0  0  0  0  0  0
   12.9603   44.4724   54.1435 C   0  0  0  0  0  0  0  0  0  0  0  0
   12.3078   41.7352   54.6337 N   0  0  0  0  0  0  0  0  0  0  0  0
   12.8267   41.3350   53.8989 H   0  0  0  0  0  0  0  0  0  0  0  0
   10.8642   41.6079   54.7455 C   0  0  0  0  0  0  0  0  0  0  0  0
    9.1065   42.4391   58.1200 C   0  0  0  0  0  0  0  0  0  0  0  0
    9.6062   43.3542   56.1808 C   0  0  0  0  0  0  0  0  0  0  0  0
    9.5752   44.4785   55.2208 C   0  0  0  0  0  0  0  0  0  0  0  0
    8.5866   42.2600   59.4894 C   0  0  0  0  0  0  0  0  0  0  0  0
    9.9373   41.1497   57.3638 S   0  0  0  0  0  0  0  0  0  0  0  0
   10.1723   42.1157   55.9644 C   0  0  0  0  0  0  0  0  0  0  0  0
    9.0054   43.5311   57.3971 N   0  0  0  0  0  0  0  0  0  0  0  0
   13.8680   41.9941   58.9912 O   0  0  0  0  0  0  0  0  0  0  0  0
   12.6969   42.0007   59.7950 C   0  0  0  0  0  0  0  0  0  0  0  0
   12.4903   40.5532   60.2051 C   0  0  0  0  0  0  0  0  0  0  0  0
   11.7503   40.5304   61.5247 C   0  0  0  0  0  0  0  0  0  0  0  0
   10.3106   38.9186   62.6931 C   0  0  0  0  0  0  0  0  0  0  0  0
    8.5381   37.8434   61.5577 C   0  0  0  0  0  0  0  0  0  0  0  0
    8.8842   38.5352   60.4053 C   0  0  0  0  0  0  0  0  0  0  0  0
   10.6057   39.5676   61.5101 C   0  0  0  0  0  0  0  0  0  0  0  0
    9.2578   38.0343   62.7168 C   0  0  0  0  0  0  0  0  0  0  0  0
    9.9165   39.3921   60.3695 N   0  0  0  0  0  0  0  0  0  0  0  0
    7.4747   36.9767   61.5866 C   0  0  0  0  0  0  0  0  0  0  0  0
    6.7469   36.7626   60.4335 C   0  0  0  0  0  0  0  0  0  0  0  0
    7.0978   37.4041   59.2689 C   0  0  0  0  0  0  0  0  0  0  0  0
    8.1486   38.2926   59.2664 C   0  0  0  0  0  0  0  0  0  0  0  0
 29 30  2  0  0  0
 29 24  1  0  0  0
 27 24  2  0  0  0
 27 23  1  0  0  0
 30 31  1  0  0  0
 24 25  1  0  0  0
 23 26  2  0  0  0
 31 32  2  0  0  0
 25 32  1  0  0  0
 25 28  2  0  0  0
 26 28  1  0  0  0
 26 22  1  0  0  0
 22 21  1  0  0  0
 14 13  1  0  0  0
 21 20  1  0  0  0
 18 13  1  0  0  0
 18 12  2  0  0  0
 13 17  2  0  0  0
 19 20  1  0  0  0
 19  5  1  0  0  0
 12 15  1  0  0  0
 12 16  1  0  0  0
 17 11  1  0  0  0
 17 16  1  0  0  0
 11  9  1  0  0  0
  6  5  2  0  0  0
  6  1  1  0  0  0
  5  3  1  0  0  0
  9  1  1  0  0  0
  1  7  2  0  0  0
  3  2  2  0  0  0
  2  7  1  0  0  0
  2  4  1  0  0  0
  7  8  1  0  0  0
  9 10  1  0  0  0
M  END
> <minimizedAffinity>
-9.29134

$$$$
5C2H_4XU_B_803


 32 35  0  0  0  0  0  0  0  0999 V2000
   14.2775   42.6734   54.8599 C   0  0  0  0  0  0  0  0  0  0  0  0
   12.9031   44.0493   56.1399 C   0  0  0  0  0  0  0  0  0  0  0  0
   13.0882   43.3738   57.2785 N   0  0  0  0  0  0  0  0  0  0  0  0
   11.8386   45.3711   56.2693 Cl  0  0  0  0  0  0  0  0  0  0  0  0
   13.9250   42.3495   57.1044 C   0  0  0  0  0  0  0  0  0  0  0  0
   14.5210   41.9779   55.9743 N   0  0  0  0  0  0  0  0  0  0  0  0
   13.4454   43.7618   54.9088 C   0  0  0  0  0  0  0  0  0  0  0  0
   13.1328   44.5873   53.7086 C   0  0  0  0  0  0  0  0  0  0  0  0
   14.8511   42.3077   53.6143 N   0  0  0  0  0  0  0  0  0  0  0  0
   15.6423   42.7548   53.2356 H   0  0  0  0  0  0  0  0  0  0  0  0
   14.1646   41.2131   52.9484 C   0  0  0  0  0  0  0  0  0  0  0  0
   11.0036   41.8018   50.7508 C   0  0  0  0  0  0  0  0  0  0  0  0
   13.1989   41.9445   50.6626 C   0  0  0  0  0  0  0  0  0  0  0  0
   14.4616   42.2245   49.9456 C   0  0  0  0  0  0  0  0  0  0  0  0
    9.5813   41.8651   50.3629 C   0  0  0  0  0  0  0  0  0  0  0  0
   11.4188   41.3116   52.3358 S   0  0  0  0  0  0  0  0  0  0  0  0
   13.0833   41.5108   51.9663 C   0  0  0  0  0  0  0  0  0  0  0  0
   12.0237   42.1058   49.9813 N   0  0  0  0  0  0  0  0  0  0  0  0
   14.2890   41.5170   58.1473 O   0  0  0  0  0  0  0  0  0  0  0  0
   13.3709   40.4428   58.2916 C   0  0  0  0  0  0  0  0  0  0  0  0
   12.9715   40.4576   59.7566 C   0  0  0  0  0  0  0  0  0  0  0  0
   11.6079   41.1026   59.8747 C   0  0  0  0  0  0  0  0  0  0  0  0
   10.3725   39.6828   61.4539 C   0  0  0  0  0  0  0  0  0  0  0  0
    8.5965   38.3136   60.7067 C   0  0  0  0  0  0  0  0  0  0  0  0
    8.8075   38.7797   59.4164 C   0  0  0  0  0  0  0  0  0  0  0  0
   10.5333   40.0983   60.1464 C   0  0  0  0  0  0  0  0  0  0  0  0
    9.3867   38.7677   61.7398 C   0  0  0  0  0  0  0  0  0  0  0  0
    9.7738   39.6645   59.1258 N   0  0  0  0  0  0  0  0  0  0  0  0
    7.5994   37.4163   60.9952 C   0  0  0  0  0  0  0  0  0  0  0  0
    6.8032   36.9402   59.9731 C   0  0  0  0  0  0  0  0  0  0  0  0
    7.0215   37.3548   58.6803 C   0  0  0  0  0  0  0  0  0  0  0  0
    8.0065   38.2781   58.4144 C   0  0  0  0  0  0  0  0  0  0  0  0
 29 30  2  0  0  0
 29 24  1  0  0  0
 27 24  2  0  0  0
 27 23  1  0  0  0
 30 31  1  0  0  0
 24 25  1  0  0  0
 23 26  2  0  0  0
 31 32  2  0  0  0
 25 32  1  0  0  0
 25 28  2  0  0  0
 26 28  1  0  0  0
 26 22  1  0  0  0
 22 21  1  0  0  0
 14 13  1  0  0  0
 21 20  1  0  0  0
 18 13  1  0  0  0
 18 12  2  0  0  0
 13 17  2  0  0  0
 19 20  1  0  0  0
 19  5  1  0  0  0
 12 15  1  0  0  0
 12 16  1  0  0  0
 17 11  1  0  0  0
 17 16  1  0  0  0
 11  9  1  0  0  0
  6  5  2  0  0  0
  6  1  1  0  0  0
  5  3  1  0  0  0
  9  1  1  0  0  0
  1  7  2  0  0  0
  3  2  2  0  0  0
  2  7  1  0  0  0
  2  4  1  0  0  0
  7  8  1  0  0  0
  9 10  1  0  0  0
M  END
> <minimizedAffinity>
-9.24113

$$$$
5C2H_4XU_B_803


 32 35  0  0  0  0  0  0  0  0999 V2000
   13.8436   42.2603   54.6106 C   0  0  0  0  0  0  0  0  0  0  0  0
   13.7780   44.4958   55.2575 C   0  0  0  0  0  0  0  0  0  0  0  0
   14.0210   44.2516   56.5491 N   0  0  0  0  0  0  0  0  0  0  0  0
   13.5433   46.1395   54.8827 Cl  0  0  0  0  0  0  0  0  0  0  0  0
   14.1871   42.9470   56.7733 C   0  0  0  0  0  0  0  0  0  0  0  0
   14.1174   41.9603   55.8833 N   0  0  0  0  0  0  0  0  0  0  0  0
   13.6669   43.5700   54.2461 C   0  0  0  0  0  0  0  0  0  0  0  0
   13.3652   43.9795   52.8458 C   0  0  0  0  0  0  0  0  0  0  0  0
   13.7180   41.2526   53.6190 N   0  0  0  0  0  0  0  0  0  0  0  0
   14.3774   41.1220   52.8997 H   0  0  0  0  0  0  0  0  0  0  0  0
   12.5276   40.4309   53.7618 C   0  0  0  0  0  0  0  0  0  0  0  0
    9.2390   41.7878   52.1771 C   0  0  0  0  0  0  0  0  0  0  0  0
   10.2000   41.4958   54.1364 C   0  0  0  0  0  0  0  0  0  0  0  0
   10.2249   41.6184   55.6098 C   0  0  0  0  0  0  0  0  0  0  0  0
    8.2493   42.1535   51.1454 C   0  0  0  0  0  0  0  0  0  0  0  0
   10.7149   41.0650   51.7036 S   0  0  0  0  0  0  0  0  0  0  0  0
   11.2032   40.9748   53.3469 C   0  0  0  0  0  0  0  0  0  0  0  0
    9.0953   41.9540   53.4721 N   0  0  0  0  0  0  0  0  0  0  0  0
   14.4733   42.4519   58.0327 O   0  0  0  0  0  0  0  0  0  0  0  0
   13.3283   42.4908   58.8725 C   0  0  0  0  0  0  0  0  0  0  0  0
   13.0264   41.0385   59.1976 C   0  0  0  0  0  0  0  0  0  0  0  0
   12.3014   40.9857   60.5245 C   0  0  0  0  0  0  0  0  0  0  0  0
   10.5604   39.6834   61.6686 C   0  0  0  0  0  0  0  0  0  0  0  0
    8.8834   38.5675   60.4318 C   0  0  0  0  0  0  0  0  0  0  0  0
    9.4596   39.0422   59.2617 C   0  0  0  0  0  0  0  0  0  0  0  0
   11.0869   40.1145   60.4666 C   0  0  0  0  0  0  0  0  0  0  0  0
    9.4378   38.8893   61.6513 C   0  0  0  0  0  0  0  0  0  0  0  0
   10.5611   39.8087   59.2679 N   0  0  0  0  0  0  0  0  0  0  0  0
    7.7513   37.7924   60.4153 C   0  0  0  0  0  0  0  0  0  0  0  0
    7.1858   37.4491   59.2039 C   0  0  0  0  0  0  0  0  0  0  0  0
    7.7639   37.8719   58.0300 C   0  0  0  0  0  0  0  0  0  0  0  0
    8.8816   38.6737   58.0670 C   0  0  0  0  0  0  0  0  0  0  0  0
 29 30  2  0  0  0
 29 24  1  0  0  0
 27 24  2  0  0  0
 27 23  1  0  0  0
 30 31  1  0  0  0
 24 25  1  0  0  0
 23 26  2  0  0  0
 31 32  2  0  0  0
 25 32  1  0  0  0
 25 28  2  0  0  0
 26 28  1  0  0  0
 26 22  1  0  0  0
 22 21  1  0  0  0
 14 13  1  0  0  0
 21 20  1  0  0  0
 18 13  1  0  0  0
 18 12  2  0  0  0
 13 17  2  0  0  0
 19 20  1  0  0  0
 19  5  1  0  0  0
 12 15  1  0  0  0
 12 16  1  0  0  0
 17 11  1  0  0  0
 17 16  1  0  0  0
 11  9  1  0  0  0
  6  5  2  0  0  0
  6  1  1  0  0  0
  5  3  1  0  0  0
  9  1  1  0  0  0
  1  7  2  0  0  0
  3  2  2  0  0  0
  2  7  1  0  0  0
  2  4  1  0  0  0
  7  8  1  0  0  0
  9 10  1  0  0  0
M  END
> <minimizedAffinity>
-9.10177

$$$$
5C2H_4XU_B_803


 32 35  0  0  0  0  0  0  0  0999 V2000
   13.8062   42.6138   56.4619 C   0  0  0  0  0  0  0  0  0  0  0  0
   13.8123   44.2143   54.7711 C   0  0  0  0  0  0  0  0  0  0  0  0
   14.2489   43.3806   53.8217 N   0  0  0  0  0  0  0  0  0  0  0  0
   13.5778   45.8171   54.2486 Cl  0  0  0  0  0  0  0  0  0  0  0  0
   14.4180   42.1467   54.2998 C   0  0  0  0  0  0  0  0  0  0  0  0
   14.2161   41.7303   55.5474 N   0  0  0  0  0  0  0  0  0  0  0  0
   13.5794   43.9146   56.0934 C   0  0  0  0  0  0  0  0  0  0  0  0
   13.1162   44.9524   57.0567 C   0  0  0  0  0  0  0  0  0  0  0  0
   13.6082   42.2436   57.8177 N   0  0  0  0  0  0  0  0  0  0  0  0
   13.6481   42.8875   58.5614 H   0  0  0  0  0  0  0  0  0  0  0  0
   13.3411   40.8277   58.0087 C   0  0  0  0  0  0  0  0  0  0  0  0
   10.4189   39.3658   60.1280 C   0  0  0  0  0  0  0  0  0  0  0  0
   11.9471   40.9498   60.1845 C   0  0  0  0  0  0  0  0  0  0  0  0
   12.6031   42.1091   60.8267 C   0  0  0  0  0  0  0  0  0  0  0  0
    9.2926   38.4947   60.5154 C   0  0  0  0  0  0  0  0  0  0  0  0
   11.2215   39.0875   58.6436 S   0  0  0  0  0  0  0  0  0  0  0  0
   12.2795   40.4008   58.9642 C   0  0  0  0  0  0  0  0  0  0  0  0
   10.8967   40.3636   60.8360 N   0  0  0  0  0  0  0  0  0  0  0  0
   14.8419   41.1030   53.4973 O   0  0  0  0  0  0  0  0  0  0  0  0
   14.2687   41.1865   52.2003 C   0  0  0  0  0  0  0  0  0  0  0  0
   13.3187   40.0051   52.1107 C   0  0  0  0  0  0  0  0  0  0  0  0
   11.9099   40.5344   51.9550 C   0  0  0  0  0  0  0  0  0  0  0  0
   11.2380   40.0375   54.2653 C   0  0  0  0  0  0  0  0  0  0  0  0
   10.3224   41.7262   55.6426 C   0  0  0  0  0  0  0  0  0  0  0  0
   10.4509   42.6240   54.5919 C   0  0  0  0  0  0  0  0  0  0  0  0
   11.3300   40.9800   53.2598 C   0  0  0  0  0  0  0  0  0  0  0  0
   10.7189   40.4168   55.4809 C   0  0  0  0  0  0  0  0  0  0  0  0
   10.9461   42.2607   53.3987 N   0  0  0  0  0  0  0  0  0  0  0  0
    9.8238   42.1099   56.8620 C   0  0  0  0  0  0  0  0  0  0  0  0
    9.4105   43.4145   57.0421 C   0  0  0  0  0  0  0  0  0  0  0  0
    9.4881   44.3110   56.0023 C   0  0  0  0  0  0  0  0  0  0  0  0
   10.0189   43.9159   54.7958 C   0  0  0  0  0  0  0  0  0  0  0  0
 29 30  2  0  0  0
 29 24  1  0  0  0
 27 24  2  0  0  0
 27 23  1  0  0  0
 30 31  1  0  0  0
 24 25  1  0  0  0
 23 26  2  0  0  0
 31 32  2  0  0  0
 25 32  1  0  0  0
 25 28  2  0  0  0
 26 28  1  0  0  0
 26 22  1  0  0  0
 22 21  1  0  0  0
 14 13  1  0  0  0
 21 20  1  0  0  0
 18 13  1  0  0  0
 18 12  2  0  0  0
 13 17  2  0  0  0
 19 20  1  0  0  0
 19  5  1  0  0  0
 12 15  1  0  0  0
 12 16  1  0  0  0
 17 11  1  0  0  0
 17 16  1  0  0  0
 11  9  1  0  0  0
  6  5  2  0  0  0
  6  1  1  0  0  0
  5  3  1  0  0  0
  9  1  1  0  0  0
  1  7  2  0  0  0
  3  2  2  0  0  0
  2  7  1  0  0  0
  2  4  1  0  0  0
  7  8  1  0  0  0
  9 10  1  0  0  0
M  END
> <minimizedAffinity>
-9.06141

$$$$
5C2H_4XU_B_803


 32 35  0  0  0  0  0  0  0  0999 V2000
   11.1343   42.9308   55.6524 C   0  0  0  0  0  0  0  0  0  0  0  0
    9.5690   43.0787   57.3695 C   0  0  0  0  0  0  0  0  0  0  0  0
   10.1955   42.2143   58.1743 N   0  0  0  0  0  0  0  0  0  0  0  0
    8.1094   43.6926   57.9938 Cl  0  0  0  0  0  0  0  0  0  0  0  0
   11.3247   41.7680   57.6219 C   0  0  0  0  0  0  0  0  0  0  0  0
   11.8173   42.0827   56.4265 N   0  0  0  0  0  0  0  0  0  0  0  0
    9.9628   43.4744   56.1123 C   0  0  0  0  0  0  0  0  0  0  0  0
    9.1517   44.4306   55.3076 C   0  0  0  0  0  0  0  0  0  0  0  0
   11.5847   43.2789   54.3522 N   0  0  0  0  0  0  0  0  0  0  0  0
   11.5190   44.1911   53.9876 H   0  0  0  0  0  0  0  0  0  0  0  0
   12.1516   42.1667   53.6079 C   0  0  0  0  0  0  0  0  0  0  0  0
   13.2573   42.6583   49.9060 C   0  0  0  0  0  0  0  0  0  0  0  0
   11.4698   42.2156   51.1129 C   0  0  0  0  0  0  0  0  0  0  0  0
   10.0223   41.9475   51.2530 C   0  0  0  0  0  0  0  0  0  0  0  0
   14.1340   42.9137   48.7469 C   0  0  0  0  0  0  0  0  0  0  0  0
   13.9294   42.6465   51.4786 S   0  0  0  0  0  0  0  0  0  0  0  0
   12.3835   42.3037   52.1417 C   0  0  0  0  0  0  0  0  0  0  0  0
   11.9671   42.4176   49.8545 N   0  0  0  0  0  0  0  0  0  0  0  0
   12.1583   40.8797   58.2771 O   0  0  0  0  0  0  0  0  0  0  0  0
   12.8399   41.5116   59.3512 C   0  0  0  0  0  0  0  0  0  0  0  0
   12.7752   40.5196   60.4991 C   0  0  0  0  0  0  0  0  0  0  0  0
   11.6261   40.9081   61.4035 C   0  0  0  0  0  0  0  0  0  0  0  0
   10.4882   39.0825   62.5902 C   0  0  0  0  0  0  0  0  0  0  0  0
    8.6578   37.9604   61.6014 C   0  0  0  0  0  0  0  0  0  0  0  0
    8.7863   38.7769   60.4864 C   0  0  0  0  0  0  0  0  0  0  0  0
   10.5652   39.8547   61.4475 C   0  0  0  0  0  0  0  0  0  0  0  0
    9.5174   38.1116   62.6674 C   0  0  0  0  0  0  0  0  0  0  0  0
    9.7371   39.7197   60.3973 N   0  0  0  0  0  0  0  0  0  0  0  0
    7.6760   37.0057   61.6869 C   0  0  0  0  0  0  0  0  0  0  0  0
    6.8110   36.8301   60.6257 C   0  0  0  0  0  0  0  0  0  0  0  0
    6.9462   37.5981   59.4931 C   0  0  0  0  0  0  0  0  0  0  0  0
    7.9176   38.5711   59.4375 C   0  0  0  0  0  0  0  0  0  0  0  0
 29 30  2  0  0  0
 29 24  1  0  0  0
 27 24  2  0  0  0
 27 23  1  0  0  0
 30 31  1  0  0  0
 24 25  1  0  0  0
 23 26  2  0  0  0
 31 32  2  0  0  0
 25 32  1  0  0  0
 25 28  2  0  0  0
 26 28  1  0  0  0
 26 22  1  0  0  0
 22 21  1  0  0  0
 14 13  1  0  0  0
 21 20  1  0  0  0
 18 13  1  0  0  0
 18 12  2  0  0  0
 13 17  2  0  0  0
 19 20  1  0  0  0
 19  5  1  0  0  0
 12 15  1  0  0  0
 12 16  1  0  0  0
 17 11  1  0  0  0
 17 16  1  0  0  0
 11  9  1  0  0  0
  6  5  2  0  0  0
  6  1  1  0  0  0
  5  3  1  0  0  0
  9  1  1  0  0  0
  1  7  2  0  0  0
  3  2  2  0  0  0
  2  7  1  0  0  0
  2  4  1  0  0  0
  7  8  1  0  0  0
  9 10  1  0  0  0
M  END
> <minimizedAffinity>
-8.87834

$$$$
5C2H_4XU_B_803


 32 35  0  0  0  0  0  0  0  0999 V2000
    4.9920   35.1680   54.0986 C   0  0  0  0  0  0  0  0  0  0  0  0
    7.1655   35.6200   54.8000 C   0  0  0  0  0  0  0  0  0  0  0  0
    6.8122   36.0241   56.0243 N   0  0  0  0  0  0  0  0  0  0  0  0
    8.8360   35.7034   54.4846 Cl  0  0  0  0  0  0  0  0  0  0  0  0
    5.4926   35.9400   56.2010 C   0  0  0  0  0  0  0  0  0  0  0  0
    4.5845   35.5342   55.3171 N   0  0  0  0  0  0  0  0  0  0  0  0
    6.3286   35.1936   53.7949 C   0  0  0  0  0  0  0  0  0  0  0  0
    6.8559   34.7942   52.4600 C   0  0  0  0  0  0  0  0  0  0  0  0
    4.0719   34.7610   53.0975 N   0  0  0  0  0  0  0  0  0  0  0  0
    4.2261   34.9052   52.1359 H   0  0  0  0  0  0  0  0  0  0  0  0
    2.8813   34.1119   53.6207 C   0  0  0  0  0  0  0  0  0  0  0  0
   -0.4000   36.1513   54.1125 C   0  0  0  0  0  0  0  0  0  0  0  0
    0.6135   34.8718   52.6349 C   0  0  0  0  0  0  0  0  0  0  0  0
    0.6682   34.1698   51.3345 C   0  0  0  0  0  0  0  0  0  0  0  0
   -1.4048   37.0208   54.7542 C   0  0  0  0  0  0  0  0  0  0  0  0
    1.0530   35.7963   54.9416 S   0  0  0  0  0  0  0  0  0  0  0  0
    1.5818   34.8424   53.6160 C   0  0  0  0  0  0  0  0  0  0  0  0
   -0.5024   35.6100   52.9201 N   0  0  0  0  0  0  0  0  0  0  0  0
    4.8918   36.2817   57.3992 O   0  0  0  0  0  0  0  0  0  0  0  0
    5.8003   36.1556   58.4838 C   0  0  0  0  0  0  0  0  0  0  0  0
    6.0334   37.5746   58.9718 C   0  0  0  0  0  0  0  0  0  0  0  0
    7.0058   37.5289   60.1300 C   0  0  0  0  0  0  0  0  0  0  0  0
    8.6421   38.3664   58.5000 C   0  0  0  0  0  0  0  0  0  0  0  0
   10.5329   39.5924   59.2133 C   0  0  0  0  0  0  0  0  0  0  0  0
   10.1008   39.4558   60.5252 C   0  0  0  0  0  0  0  0  0  0  0  0
    8.2746   38.2609   59.8273 C   0  0  0  0  0  0  0  0  0  0  0  0
    9.7980   39.0421   58.1862 C   0  0  0  0  0  0  0  0  0  0  0  0
    8.9801   38.7891   60.8422 N   0  0  0  0  0  0  0  0  0  0  0  0
   11.6752   40.2845   58.8987 C   0  0  0  0  0  0  0  0  0  0  0  0
   12.4323   40.8345   59.9133 C   0  0  0  0  0  0  0  0  0  0  0  0
   12.0470   40.6752   61.2237 C   0  0  0  0  0  0  0  0  0  0  0  0
   10.8824   40.0039   61.5181 C   0  0  0  0  0  0  0  0  0  0  0  0
 29 30  2  0  0  0
 29 24  1  0  0  0
 27 24  2  0  0  0
 27 23  1  0  0  0
 30 31  1  0  0  0
 24 25  1  0  0  0
 23 26  2  0  0  0
 31 32  2  0  0  0
 25 32  1  0  0  0
 25 28  2  0  0  0
 26 28  1  0  0  0
 26 22  1  0  0  0
 22 21  1  0  0  0
 14 13  1  0  0  0
 21 20  1  0  0  0
 18 13  1  0  0  0
 18 12  2  0  0  0
 13 17  2  0  0  0
 19 20  1  0  0  0
 19  5  1  0  0  0
 12 15  1  0  0  0
 12 16  1  0  0  0
 17 11  1  0  0  0
 17 16  1  0  0  0
 11  9  1  0  0  0
  6  5  2  0  0  0
  6  1  1  0  0  0
  5  3  1  0  0  0
  9  1  1  0  0  0
  1  7  2  0  0  0
  3  2  2  0  0  0
  2  7  1  0  0  0
  2  4  1  0  0  0
  7  8  1  0  0  0
  9 10  1  0  0  0
M  END
> <minimizedAffinity>
-8.77736

$$$$
5C2H_4XU_B_803


 32 35  0  0  0  0  0  0  0  0999 V2000
   12.8576   42.3030   54.6866 C   0  0  0  0  0  0  0  0  0  0  0  0
   12.7467   44.5809   55.1545 C   0  0  0  0  0  0  0  0  0  0  0  0
   12.3219   44.4220   56.4120 N   0  0  0  0  0  0  0  0  0  0  0  0
   12.9036   46.2029   54.6629 Cl  0  0  0  0  0  0  0  0  0  0  0  0
   12.2144   43.1305   56.7283 C   0  0  0  0  0  0  0  0  0  0  0  0
   12.4624   42.0846   55.9440 N   0  0  0  0  0  0  0  0  0  0  0  0
   13.0227   43.5892   54.2420 C   0  0  0  0  0  0  0  0  0  0  0  0
   13.4661   43.9084   52.8559 C   0  0  0  0  0  0  0  0  0  0  0  0
   13.1024   41.2327   53.7871 N   0  0  0  0  0  0  0  0  0  0  0  0
   13.9929   40.8334   53.6573 H   0  0  0  0  0  0  0  0  0  0  0  0
   11.9191   40.7796   53.0749 C   0  0  0  0  0  0  0  0  0  0  0  0
   10.7140   37.1080   53.5588 C   0  0  0  0  0  0  0  0  0  0  0  0
   10.2594   39.1585   54.2192 C   0  0  0  0  0  0  0  0  0  0  0  0
    9.4547   40.1363   54.9828 C   0  0  0  0  0  0  0  0  0  0  0  0
   10.6537   35.6412   53.4091 C   0  0  0  0  0  0  0  0  0  0  0  0
   11.9197   37.9867   52.7228 S   0  0  0  0  0  0  0  0  0  0  0  0
   11.3287   39.4497   53.3988 C   0  0  0  0  0  0  0  0  0  0  0  0
    9.9160   37.8371   54.3050 N   0  0  0  0  0  0  0  0  0  0  0  0
   11.8143   42.7162   57.9858 O   0  0  0  0  0  0  0  0  0  0  0  0
   11.3427   41.3766   57.9596 C   0  0  0  0  0  0  0  0  0  0  0  0
   10.5622   41.2065   59.2511 C   0  0  0  0  0  0  0  0  0  0  0  0
   10.7642   39.7924   59.7498 C   0  0  0  0  0  0  0  0  0  0  0  0
    8.8904   38.5225   60.7049 C   0  0  0  0  0  0  0  0  0  0  0  0
    7.3160   37.4587   59.2990 C   0  0  0  0  0  0  0  0  0  0  0  0
    8.0141   37.9297   58.1956 C   0  0  0  0  0  0  0  0  0  0  0  0
    9.5412   38.9514   59.5646 C   0  0  0  0  0  0  0  0  0  0  0  0
    7.7567   37.7560   60.5699 C   0  0  0  0  0  0  0  0  0  0  0  0
    9.1274   38.6692   58.3172 N   0  0  0  0  0  0  0  0  0  0  0  0
    6.1732   36.7114   59.1640 C   0  0  0  0  0  0  0  0  0  0  0  0
    5.7203   36.3929   57.8997 C   0  0  0  0  0  0  0  0  0  0  0  0
    6.4193   36.8121   56.7922 C   0  0  0  0  0  0  0  0  0  0  0  0
    7.5465   37.5861   56.9464 C   0  0  0  0  0  0  0  0  0  0  0  0
 29 30  2  0  0  0
 29 24  1  0  0  0
 27 24  2  0  0  0
 27 23  1  0  0  0
 30 31  1  0  0  0
 24 25  1  0  0  0
 23 26  2  0  0  0
 31 32  2  0  0  0
 25 32  1  0  0  0
 25 28  2  0  0  0
 26 28  1  0  0  0
 26 22  1  0  0  0
 22 21  1  0  0  0
 14 13  1  0  0  0
 21 20  1  0  0  0
 18 13  1  0  0  0
 18 12  2  0  0  0
 13 17  2  0  0  0
 19 20  1  0  0  0
 19  5  1  0  0  0
 12 15  1  0  0  0
 12 16  1  0  0  0
 17 11  1  0  0  0
 17 16  1  0  0  0
 11  9  1  0  0  0
  6  5  2  0  0  0
  6  1  1  0  0  0
  5  3  1  0  0  0
  9  1  1  0  0  0
  1  7  2  0  0  0
  3  2  2  0  0  0
  2  7  1  0  0  0
  2  4  1  0  0  0
  7  8  1  0  0  0
  9 10  1  0  0  0
M  END
> <minimizedAffinity>
-8.61314

$$$$
