5NY3_9E8_A_302
  RCSB PDB01131817373D
Coordinates from PDB:5NY3:A:302 Model:1 without hydrogens
 23 24  0  0  0  0            999 V2000
   -5.4280    1.2880   16.1000   N 0  0  0  0  0  0  0  0  0  0  0  0
   -5.4710    3.9580   15.9490   C 0  0  0  0  0  0  0  0  0  0  0  0
   -4.1130    4.1220   15.5980   C 0  0  0  0  0  0  0  0  0  0  0  0
   -3.6220    5.2530   14.9250   C 0  0  0  0  0  0  0  0  0  0  0  0
   -4.5230    6.2640   14.6060   C 0  0  0  0  0  0  0  0  0  0  0  0
   -5.8590    6.1710   14.9710   C 0  0  0  0  0  0  0  0  0  0  0  0
   -6.3150    5.0470   15.6410   C 0  0  0  0  0  0  0  0  0  0  0  0
   -2.9010    7.5550   13.0000   C 0  0  0  0  0  0  0  0  0  0  0  0
   -4.1330    7.5200   13.9040   C 0  0  0  0  0  0  0  0  0  0  0  0
   -1.8120    9.7490   13.4600   C 0  0  0  0  0  0  0  0  0  0  0  0
    0.2190   14.2630   13.7020   C 0  0  0  0  0  0  0  0  0  0  0  0
   -0.8190   13.3860   13.3620   C 0  0  0  0  0  0  0  0  0  0  0  0
   -0.7890   12.0350   13.8130   C 0  0  0  0  0  0  0  0  0  0  0  0
    1.3130   13.8100   14.4820   C 0  0  0  0  0  0  0  0  0  0  0  0
    0.3340   11.6140   14.5850   C 0  0  0  0  0  0  0  0  0  0  0  0
    1.3650   12.4830   14.9220   C 0  0  0  0  0  0  0  0  0  0  0  0
   -0.9210    9.1620   14.1520   O 0  0  0  0  0  0  0  0  0  0  0  0
   -1.8430   11.1640   13.4060   N 0  0  0  0  0  0  0  0  0  0  0  0
    2.6020   14.8470   14.9150  Cl 0  0  0  0  0  0  0  0  0  0  0  0
   -2.7220    8.9840   12.7550   N 0  0  0  0  0  0  0  0  0  0  0  0
   -6.0400    2.6250   16.8220   S 0  0  0  0  0  0  0  0  0  0  0  0
   -5.4870    2.7110   18.1460   O 0  0  0  0  0  0  0  0  0  0  0  0
   -7.4720    2.6450   16.7050   O 0  0  0  0  0  0  0  0  0  0  0  0
 20  8  1  0  0  0  0
 20 10  1  0  0  0  0
  8  9  1  0  0  0  0
 12 11  2  0  0  0  0
 12 13  1  0  0  0  0
 18 10  1  0  0  0  0
 18 13  1  0  0  0  0
 10 17  2  0  0  0  0
 11 14  1  0  0  0  0
 13 15  2  0  0  0  0
  9  5  1  0  0  0  0
 14 19  1  0  0  0  0
 14 16  2  0  0  0  0
 15 16  1  0  0  0  0
  5  4  2  0  0  0  0
  5  6  1  0  0  0  0
  4  3  1  0  0  0  0
  6  7  2  0  0  0  0
  3  2  2  0  0  0  0
  7  2  1  0  0  0  0
  2 21  1  0  0  0  0
  1 21  1  0  0  0  0
 23 21  2  0  0  0  0
 21 22  2  0  0  0  0
A    1
N1
A    2
C1
A    3
C2
A    4
C3
A    5
C4
A    6
C5
A    7
C6
A    8
C7
A    9
C
A   10
C8
A   11
C10
A   12
C11
A   13
C12
A   14
C13
A   15
C14
A   16
C15
A   17
O8
A   18
N8
A   19
CL1
A   20
N7
A   21
S
A   22
O1
A   23
O2
M  END
>  <InstanceId>
5NY3_9E8_A_302

>  <ChemCompId>
9E8

>  <PdbId>
5NY3

>  <ChainId>
A

>  <ResidueNumber>
302

>  <InsertionCode>


>  <Model>
1

>  <AltIds>


>  <MissingHeavyAtoms>
0

>  <ObservedFormula>
C15 N3 O3 S Cl

>  <Name>
1-(4-chlorophenyl)-3-[2-(4-sulfamoylphenyl)ethyl]urea

>  <SystematicName>
1-(4-chlorophenyl)-3-[2-(4-sulfamoylphenyl)ethyl]urea

>  <Synonyms>


>  <Type>
NON-POLYMER

>  <Formula>
C15 H16 Cl N3 O3 S

>  <MolecularWeight>
353.824

>  <ModifiedDate>
2018-01-12

>  <Parent>


>  <OneLetterCode>


>  <SubcomponentList>


>  <AmbiguousFlag>
N

>  <InChI>
InChI=1S/C15H16ClN3O3S/c16-12-3-5-13(6-4-12)19-15(20)18-10-9-11-1-7-14(8-2-11)23(17,21)22/h1-8H,9-10H2,(H2,17,21,22)(H2,18,19,20)

>  <InChIKey>
VPDAMEWDQFFXRN-UHFFFAOYSA-N

>  <SMILES>
c1cc(ccc1CCNC(=O)Nc2ccc(cc2)Cl)S(=O)(=O)N

$$$$
