5NY3_9E8_A_302


 27 28  0  0  0  0  0  0  0  0999 V2000
   -3.2173    7.5003   12.7783 C   0  0  0  0  0  0  0  0  0  0  0  0
   -3.3586    5.1474   11.9691 C   0  0  0  0  0  0  0  0  0  0  0  0
   -2.3246    4.8516   12.6479 O   0  0  0  0  0  0  0  0  0  0  0  0
   -3.9272    4.1868   11.0973 N   0  0  0  0  0  0  0  0  0  0  0  0
   -3.9184    6.4024   12.1171 N   0  0  0  0  0  0  0  0  0  0  0  0
   -4.5736    4.5123   10.4299 H   0  0  0  0  0  0  0  0  0  0  0  0
   -4.8232    6.5624   11.7637 H   0  0  0  0  0  0  0  0  0  0  0  0
   -4.3815    0.5263   11.6786 C   0  0  0  0  0  0  0  0  0  0  0  0
   -4.6356    1.9024   11.6145 C   0  0  0  0  0  0  0  0  0  0  0  0
   -3.6445    2.7885   11.1026 C   0  0  0  0  0  0  0  0  0  0  0  0
   -3.1331    0.0076   11.2509 C   0  0  0  0  0  0  0  0  0  0  0  0
   -2.3973    2.2302   10.6937 C   0  0  0  0  0  0  0  0  0  0  0  0
   -2.1437    0.8652   10.7579 C   0  0  0  0  0  0  0  0  0  0  0  0
   -2.7816   -1.6646   11.3166 Cl  0  0  0  0  0  0  0  0  0  0  0  0
   -4.0693    7.7423   14.0240 C   0  0  0  0  0  0  0  0  0  0  0  0
   -5.5872    4.3384   16.2078 C   0  0  0  0  0  0  0  0  0  0  0  0
   -6.4647    5.3263   15.7096 C   0  0  0  0  0  0  0  0  0  0  0  0
   -6.0286    6.4583   15.0013 C   0  0  0  0  0  0  0  0  0  0  0  0
   -4.6636    6.5969   14.7704 C   0  0  0  0  0  0  0  0  0  0  0  0
   -3.7652    5.6294   15.1989 C   0  0  0  0  0  0  0  0  0  0  0  0
   -4.2238    4.5188   15.8891 C   0  0  0  0  0  0  0  0  0  0  0  0
   -5.3818    1.6727   16.2813 N   0  0  0  0  0  0  0  0  0  0  0  0
   -6.1277    2.9431   16.9977 S   0  0  0  0  0  0  0  0  0  0  0  0
   -5.6744    3.0178   18.3597 O   0  0  0  0  0  0  0  0  0  0  0  0
   -7.5464    2.8775   16.7796 O   0  0  0  0  0  0  0  0  0  0  0  0
   -5.6895    1.6006   15.3115 H   0  0  0  0  0  0  0  0  0  0  0  0
   -5.6199    0.8143   16.7783 H   0  0  0  0  0  0  0  0  0  0  0  0
  5  1  1  0  0  0
  5  2  1  0  0  0
  1 15  1  0  0  0
  9  8  2  0  0  0
  9 10  1  0  0  0
  4  2  1  0  0  0
  4 10  1  0  0  0
  2  3  2  0  0  0
  8 11  1  0  0  0
 10 12  2  0  0  0
 15 19  1  0  0  0
 11 14  1  0  0  0
 11 13  2  0  0  0
 12 13  1  0  0  0
 19 18  2  0  0  0
 19 20  1  0  0  0
 18 17  1  0  0  0
 20 21  2  0  0  0
 17 16  2  0  0  0
 21 16  1  0  0  0
 16 23  1  0  0  0
 22 23  1  0  0  0
 25 23  2  0  0  0
 23 24  2  0  0  0
 22 26  1  0  0  0
 22 27  1  0  0  0
  4  6  1  0  0  0
  5  7  1  0  0  0
M  END
> <minimizedAffinity>
-8.99950

$$$$
5NY3_9E8_A_302


 27 28  0  0  0  0  0  0  0  0999 V2000
   -2.9317    7.4815   13.2320 C   0  0  0  0  0  0  0  0  0  0  0  0
   -1.8653    9.6218   13.9344 C   0  0  0  0  0  0  0  0  0  0  0  0
   -1.8144    9.9954   12.7198 O   0  0  0  0  0  0  0  0  0  0  0  0
   -1.2560   10.4113   14.9401 N   0  0  0  0  0  0  0  0  0  0  0  0
   -2.5382    8.4557   14.2471 N   0  0  0  0  0  0  0  0  0  0  0  0
   -1.1162    9.9903   15.8191 H   0  0  0  0  0  0  0  0  0  0  0  0
   -2.7607    8.2749   15.1889 H   0  0  0  0  0  0  0  0  0  0  0  0
    0.8834   13.4577   15.2324 C   0  0  0  0  0  0  0  0  0  0  0  0
    0.4432   12.1308   15.3194 C   0  0  0  0  0  0  0  0  0  0  0  0
   -0.8274   11.7637   14.7899 C   0  0  0  0  0  0  0  0  0  0  0  0
    0.0631   14.4468   14.6330 C   0  0  0  0  0  0  0  0  0  0  0  0
   -1.6283   12.7891   14.2057 C   0  0  0  0  0  0  0  0  0  0  0  0
   -1.1931   14.1062   14.1199 C   0  0  0  0  0  0  0  0  0  0  0  0
    0.5612   16.0781   14.5109 Cl  0  0  0  0  0  0  0  0  0  0  0  0
   -4.4139    7.2612   13.5332 C   0  0  0  0  0  0  0  0  0  0  0  0
   -5.8586    4.2190   16.2383 C   0  0  0  0  0  0  0  0  0  0  0  0
   -4.5688    4.1270   15.6707 C   0  0  0  0  0  0  0  0  0  0  0  0
   -4.0494    5.0798   14.7788 C   0  0  0  0  0  0  0  0  0  0  0  0
   -4.8466    6.1735   14.4563 C   0  0  0  0  0  0  0  0  0  0  0  0
   -6.1030    6.3334   15.0243 C   0  0  0  0  0  0  0  0  0  0  0  0
   -6.5878    5.3816   15.9070 C   0  0  0  0  0  0  0  0  0  0  0  0
   -5.5033    1.7704   17.2539 N   0  0  0  0  0  0  0  0  0  0  0  0
   -6.4480    3.1039   17.3662 S   0  0  0  0  0  0  0  0  0  0  0  0
   -6.2621    3.6750   18.6721 O   0  0  0  0  0  0  0  0  0  0  0  0
   -7.7943    2.7977   16.9681 O   0  0  0  0  0  0  0  0  0  0  0  0
   -5.6197    1.3478   16.3329 H   0  0  0  0  0  0  0  0  0  0  0  0
   -5.7754    1.0996   17.9726 H   0  0  0  0  0  0  0  0  0  0  0  0
  5  1  1  0  0  0
  5  2  1  0  0  0
  1 15  1  0  0  0
  9  8  2  0  0  0
  9 10  1  0  0  0
  4  2  1  0  0  0
  4 10  1  0  0  0
  2  3  2  0  0  0
  8 11  1  0  0  0
 10 12  2  0  0  0
 15 19  1  0  0  0
 11 14  1  0  0  0
 11 13  2  0  0  0
 12 13  1  0  0  0
 19 18  2  0  0  0
 19 20  1  0  0  0
 18 17  1  0  0  0
 20 21  2  0  0  0
 17 16  2  0  0  0
 21 16  1  0  0  0
 16 23  1  0  0  0
 22 23  1  0  0  0
 25 23  2  0  0  0
 23 24  2  0  0  0
 22 26  1  0  0  0
 22 27  1  0  0  0
  4  6  1  0  0  0
  5  7  1  0  0  0
M  END
> <minimizedAffinity>
-7.71190

$$$$
5NY3_9E8_A_302


 27 28  0  0  0  0  0  0  0  0999 V2000
   -3.2521    8.3944   14.1328 C   0  0  0  0  0  0  0  0  0  0  0  0
   -1.4082    7.9702   12.5107 C   0  0  0  0  0  0  0  0  0  0  0  0
   -1.0852    6.9205   13.1520 O   0  0  0  0  0  0  0  0  0  0  0  0
   -0.6038    8.4118   11.4318 N   0  0  0  0  0  0  0  0  0  0  0  0
   -2.5577    8.6469   12.8726 N   0  0  0  0  0  0  0  0  0  0  0  0
   -0.7480    9.3311   11.1104 H   0  0  0  0  0  0  0  0  0  0  0  0
   -2.9222    9.3243   12.2581 H   0  0  0  0  0  0  0  0  0  0  0  0
    0.9377    5.6935    9.3878 C   0  0  0  0  0  0  0  0  0  0  0  0
   -0.0162    6.5040   10.0165 C   0  0  0  0  0  0  0  0  0  0  0  0
    0.3972    7.6399   10.7705 C   0  0  0  0  0  0  0  0  0  0  0  0
    2.3195    5.9869    9.5100 C   0  0  0  0  0  0  0  0  0  0  0  0
    1.7962    7.8949   10.8801 C   0  0  0  0  0  0  0  0  0  0  0  0
    2.7436    7.0907   10.2577 C   0  0  0  0  0  0  0  0  0  0  0  0
    3.5158    5.0205    8.7621 Cl  0  0  0  0  0  0  0  0  0  0  0  0
   -4.3962    7.4740   13.7085 C   0  0  0  0  0  0  0  0  0  0  0  0
   -5.8039    4.2623   16.2312 C   0  0  0  0  0  0  0  0  0  0  0  0
   -4.4680    4.2889   15.7741 C   0  0  0  0  0  0  0  0  0  0  0  0
   -3.9569    5.3013   14.9453 C   0  0  0  0  0  0  0  0  0  0  0  0
   -4.8125    6.3335   14.5737 C   0  0  0  0  0  0  0  0  0  0  0  0
   -6.1210    6.3773   15.0351 C   0  0  0  0  0  0  0  0  0  0  0  0
   -6.5970    5.3690   15.8579 C   0  0  0  0  0  0  0  0  0  0  0  0
   -5.4550    1.7490   17.0768 N   0  0  0  0  0  0  0  0  0  0  0  0
   -6.3906    3.0771   17.2866 S   0  0  0  0  0  0  0  0  0  0  0  0
   -6.1905    3.5580   18.6263 O   0  0  0  0  0  0  0  0  0  0  0  0
   -7.7419    2.8057   16.8804 O   0  0  0  0  0  0  0  0  0  0  0  0
   -5.5814    1.3901   16.1305 H   0  0  0  0  0  0  0  0  0  0  0  0
   -5.7251    1.0329   17.7511 H   0  0  0  0  0  0  0  0  0  0  0  0
  5  1  1  0  0  0
  5  2  1  0  0  0
  1 15  1  0  0  0
  9  8  2  0  0  0
  9 10  1  0  0  0
  4  2  1  0  0  0
  4 10  1  0  0  0
  2  3  2  0  0  0
  8 11  1  0  0  0
 10 12  2  0  0  0
 15 19  1  0  0  0
 11 14  1  0  0  0
 11 13  2  0  0  0
 12 13  1  0  0  0
 19 18  2  0  0  0
 19 20  1  0  0  0
 18 17  1  0  0  0
 20 21  2  0  0  0
 17 16  2  0  0  0
 21 16  1  0  0  0
 16 23  1  0  0  0
 22 23  1  0  0  0
 25 23  2  0  0  0
 23 24  2  0  0  0
 22 26  1  0  0  0
 22 27  1  0  0  0
  4  6  1  0  0  0
  5  7  1  0  0  0
M  END
> <minimizedAffinity>
-7.54231

$$$$
5NY3_9E8_A_302


 27 28  0  0  0  0  0  0  0  0999 V2000
   -2.5502    4.7222   11.8985 C   0  0  0  0  0  0  0  0  0  0  0  0
   -1.9332    7.0099   12.6710 C   0  0  0  0  0  0  0  0  0  0  0  0
   -1.4941    6.5238   13.7610 O   0  0  0  0  0  0  0  0  0  0  0  0
   -1.9885    8.4146   12.4981 N   0  0  0  0  0  0  0  0  0  0  0  0
   -2.3284    6.1473   11.6660 N   0  0  0  0  0  0  0  0  0  0  0  0
   -2.5340    8.7547   11.7524 H   0  0  0  0  0  0  0  0  0  0  0  0
   -2.4656    6.5066   10.7597 H   0  0  0  0  0  0  0  0  0  0  0  0
   -1.3766   10.8098   15.2967 C   0  0  0  0  0  0  0  0  0  0  0  0
   -1.9758    9.8310   14.4935 C   0  0  0  0  0  0  0  0  0  0  0  0
   -1.3223    9.3794   13.3109 C   0  0  0  0  0  0  0  0  0  0  0  0
   -0.1259   11.3691   14.9315 C   0  0  0  0  0  0  0  0  0  0  0  0
   -0.0715    9.9747   12.9709 C   0  0  0  0  0  0  0  0  0  0  0  0
    0.5234   10.9467   13.7665 C   0  0  0  0  0  0  0  0  0  0  0  0
    0.6371   12.5687   15.8818 Cl  0  0  0  0  0  0  0  0  0  0  0  0
   -4.0666    4.6413   12.0725 C   0  0  0  0  0  0  0  0  0  0  0  0
   -5.6872    3.4494   15.8951 C   0  0  0  0  0  0  0  0  0  0  0  0
   -6.0132    4.7026   15.3318 C   0  0  0  0  0  0  0  0  0  0  0  0
   -5.5099    5.1475   14.0981 C   0  0  0  0  0  0  0  0  0  0  0  0
   -4.6608    4.2981   13.3959 C   0  0  0  0  0  0  0  0  0  0  0  0
   -4.3477    3.0374   13.8851 C   0  0  0  0  0  0  0  0  0  0  0  0
   -4.8643    2.6210   15.1016 C   0  0  0  0  0  0  0  0  0  0  0  0
   -6.2265    4.1172   18.4283 N   0  0  0  0  0  0  0  0  0  0  0  0
   -6.3542    2.8931   17.3472 S   0  0  0  0  0  0  0  0  0  0  0  0
   -7.7509    2.6481   17.1122 O   0  0  0  0  0  0  0  0  0  0  0  0
   -5.5510    1.7756   17.7604 O   0  0  0  0  0  0  0  0  0  0  0  0
   -5.2413    4.3085   18.6104 H   0  0  0  0  0  0  0  0  0  0  0  0
   -6.6878    3.8518   19.2984 H   0  0  0  0  0  0  0  0  0  0  0  0
  5  1  1  0  0  0
  5  2  1  0  0  0
  1 15  1  0  0  0
  9  8  2  0  0  0
  9 10  1  0  0  0
  4  2  1  0  0  0
  4 10  1  0  0  0
  2  3  2  0  0  0
  8 11  1  0  0  0
 10 12  2  0  0  0
 15 19  1  0  0  0
 11 14  1  0  0  0
 11 13  2  0  0  0
 12 13  1  0  0  0
 19 18  2  0  0  0
 19 20  1  0  0  0
 18 17  1  0  0  0
 20 21  2  0  0  0
 17 16  2  0  0  0
 21 16  1  0  0  0
 16 23  1  0  0  0
 22 23  1  0  0  0
 25 23  2  0  0  0
 23 24  2  0  0  0
 22 26  1  0  0  0
 22 27  1  0  0  0
  4  6  1  0  0  0
  5  7  1  0  0  0
M  END
> <minimizedAffinity>
-7.50245

$$$$
5NY3_9E8_A_302


 27 28  0  0  0  0  0  0  0  0999 V2000
   -3.6549    9.0729   11.4810 C   0  0  0  0  0  0  0  0  0  0  0  0
   -4.3964    7.6368   13.3781 C   0  0  0  0  0  0  0  0  0  0  0  0
   -5.3697    7.2135   12.6777 O   0  0  0  0  0  0  0  0  0  0  0  0
   -4.2931    7.2616   14.7400 N   0  0  0  0  0  0  0  0  0  0  0  0
   -3.4443    8.4418   12.7816 N   0  0  0  0  0  0  0  0  0  0  0  0
   -3.6714    7.7775   15.3026 H   0  0  0  0  0  0  0  0  0  0  0  0
   -2.5924    8.5956   13.2506 H   0  0  0  0  0  0  0  0  0  0  0  0
   -5.1356    3.8169   15.9096 C   0  0  0  0  0  0  0  0  0  0  0  0
   -4.4426    4.8951   15.3443 C   0  0  0  0  0  0  0  0  0  0  0  0
   -5.0119    6.2008   15.3671 C   0  0  0  0  0  0  0  0  0  0  0  0
   -6.4129    4.0131   16.4930 C   0  0  0  0  0  0  0  0  0  0  0  0
   -6.3036    6.3554   15.9519 C   0  0  0  0  0  0  0  0  0  0  0  0
   -6.9925    5.2862   16.5121 C   0  0  0  0  0  0  0  0  0  0  0  0
   -7.2934    2.7232   17.1897 Cl  0  0  0  0  0  0  0  0  0  0  0  0
   -2.7585    8.2485   10.5574 C   0  0  0  0  0  0  0  0  0  0  0  0
   -2.6450    3.9475   10.9434 C   0  0  0  0  0  0  0  0  0  0  0  0
   -1.6051    4.7471   11.4665 C   0  0  0  0  0  0  0  0  0  0  0  0
   -1.5834    6.1478   11.3631 C   0  0  0  0  0  0  0  0  0  0  0  0
   -2.6513    6.7711   10.7253 C   0  0  0  0  0  0  0  0  0  0  0  0
   -3.7200    6.0328   10.2359 C   0  0  0  0  0  0  0  0  0  0  0  0
   -3.7191    4.6525   10.3581 C   0  0  0  0  0  0  0  0  0  0  0  0
   -3.5100    1.6672    9.8455 N   0  0  0  0  0  0  0  0  0  0  0  0
   -2.6975    2.2673   11.1351 S   0  0  0  0  0  0  0  0  0  0  0  0
   -1.3445    1.7857   11.0748 O   0  0  0  0  0  0  0  0  0  0  0  0
   -3.4299    2.0201   12.3464 O   0  0  0  0  0  0  0  0  0  0  0  0
   -4.4749    1.9969    9.8681 H   0  0  0  0  0  0  0  0  0  0  0  0
   -3.4981    0.6479    9.8805 H   0  0  0  0  0  0  0  0  0  0  0  0
  5  1  1  0  0  0
  5  2  1  0  0  0
  1 15  1  0  0  0
  9  8  2  0  0  0
  9 10  1  0  0  0
  4  2  1  0  0  0
  4 10  1  0  0  0
  2  3  2  0  0  0
  8 11  1  0  0  0
 10 12  2  0  0  0
 15 19  1  0  0  0
 11 14  1  0  0  0
 11 13  2  0  0  0
 12 13  1  0  0  0
 19 18  2  0  0  0
 19 20  1  0  0  0
 18 17  1  0  0  0
 20 21  2  0  0  0
 17 16  2  0  0  0
 21 16  1  0  0  0
 16 23  1  0  0  0
 22 23  1  0  0  0
 25 23  2  0  0  0
 23 24  2  0  0  0
 22 26  1  0  0  0
 22 27  1  0  0  0
  4  6  1  0  0  0
  5  7  1  0  0  0
M  END
> <minimizedAffinity>
-7.34074

$$$$
5NY3_9E8_A_302


 27 28  0  0  0  0  0  0  0  0999 V2000
   -1.9211    9.2519   13.3442 C   0  0  0  0  0  0  0  0  0  0  0  0
   -3.5655    7.5287   14.0774 C   0  0  0  0  0  0  0  0  0  0  0  0
   -2.6154    6.8133   14.5277 O   0  0  0  0  0  0  0  0  0  0  0  0
   -4.8883    7.0223   14.0749 N   0  0  0  0  0  0  0  0  0  0  0  0
   -3.2836    8.8013   13.6176 N   0  0  0  0  0  0  0  0  0  0  0  0
   -5.5504    7.4971   13.5223 H   0  0  0  0  0  0  0  0  0  0  0  0
   -4.0287    9.4273   13.4689 H   0  0  0  0  0  0  0  0  0  0  0  0
   -6.8060    4.9910   16.5527 C   0  0  0  0  0  0  0  0  0  0  0  0
   -6.3607    6.0739   15.7838 C   0  0  0  0  0  0  0  0  0  0  0  0
   -5.3442    5.8839   14.8039 C   0  0  0  0  0  0  0  0  0  0  0  0
   -6.2388    3.7039   16.3735 C   0  0  0  0  0  0  0  0  0  0  0  0
   -4.7901    4.5774   14.6619 C   0  0  0  0  0  0  0  0  0  0  0  0
   -5.2304    3.5024   15.4250 C   0  0  0  0  0  0  0  0  0  0  0  0
   -6.7509    2.3570   17.2944 Cl  0  0  0  0  0  0  0  0  0  0  0  0
   -1.5472    9.9922   14.6281 C   0  0  0  0  0  0  0  0  0  0  0  0
   -0.2909   14.1252   14.6439 C   0  0  0  0  0  0  0  0  0  0  0  0
   -1.4805   13.7346   13.9908 C   0  0  0  0  0  0  0  0  0  0  0  0
   -1.9339   12.4059   13.9446 C   0  0  0  0  0  0  0  0  0  0  0  0
   -1.1747   11.4352   14.5903 C   0  0  0  0  0  0  0  0  0  0  0  0
   -0.0227   11.7756   15.2858 C   0  0  0  0  0  0  0  0  0  0  0  0
    0.3977   13.0956   15.3213 C   0  0  0  0  0  0  0  0  0  0  0  0
    0.0357   16.1823   16.3217 N   0  0  0  0  0  0  0  0  0  0  0  0
    0.2098   15.7376   14.7548 S   0  0  0  0  0  0  0  0  0  0  0  0
    1.6100   15.7756   14.4321 O   0  0  0  0  0  0  0  0  0  0  0  0
   -0.6785   16.4964   13.9182 O   0  0  0  0  0  0  0  0  0  0  0  0
   -0.9527   16.1624   16.5730 H   0  0  0  0  0  0  0  0  0  0  0  0
    0.4001   17.1264   16.4497 H   0  0  0  0  0  0  0  0  0  0  0  0
  5  1  1  0  0  0
  5  2  1  0  0  0
  1 15  1  0  0  0
  9  8  2  0  0  0
  9 10  1  0  0  0
  4  2  1  0  0  0
  4 10  1  0  0  0
  2  3  2  0  0  0
  8 11  1  0  0  0
 10 12  2  0  0  0
 15 19  1  0  0  0
 11 14  1  0  0  0
 11 13  2  0  0  0
 12 13  1  0  0  0
 19 18  2  0  0  0
 19 20  1  0  0  0
 18 17  1  0  0  0
 20 21  2  0  0  0
 17 16  2  0  0  0
 21 16  1  0  0  0
 16 23  1  0  0  0
 22 23  1  0  0  0
 25 23  2  0  0  0
 23 24  2  0  0  0
 22 26  1  0  0  0
 22 27  1  0  0  0
  4  6  1  0  0  0
  5  7  1  0  0  0
M  END
> <minimizedAffinity>
-7.24828

$$$$
5NY3_9E8_A_302


 27 28  0  0  0  0  0  0  0  0999 V2000
   -1.7503    8.0438   13.4734 C   0  0  0  0  0  0  0  0  0  0  0  0
   -2.4698    5.8209   12.6060 C   0  0  0  0  0  0  0  0  0  0  0  0
   -1.3120    5.3524   12.8456 O   0  0  0  0  0  0  0  0  0  0  0  0
   -3.4264    5.0235   11.9316 N   0  0  0  0  0  0  0  0  0  0  0  0
   -2.7744    7.0997   13.0328 N   0  0  0  0  0  0  0  0  0  0  0  0
   -4.2166    5.4826   11.5654 H   0  0  0  0  0  0  0  0  0  0  0  0
   -3.7166    7.3850   13.0402 H   0  0  0  0  0  0  0  0  0  0  0  0
   -4.2045    1.3893   12.2928 C   0  0  0  0  0  0  0  0  0  0  0  0
   -4.2777    2.7822   12.4214 C   0  0  0  0  0  0  0  0  0  0  0  0
   -3.3442    3.6126   11.7368 C   0  0  0  0  0  0  0  0  0  0  0  0
   -3.1934    0.7956   11.4954 C   0  0  0  0  0  0  0  0  0  0  0  0
   -2.3348    2.9777   10.9544 C   0  0  0  0  0  0  0  0  0  0  0  0
   -2.2605    1.5957   10.8270 C   0  0  0  0  0  0  0  0  0  0  0  0
   -3.0667   -0.9003   11.3158 Cl  0  0  0  0  0  0  0  0  0  0  0  0
   -2.5038    9.3736   13.4921 C   0  0  0  0  0  0  0  0  0  0  0  0
   -0.5291   13.1500   14.1986 C   0  0  0  0  0  0  0  0  0  0  0  0
   -0.2911   12.0420   15.0412 C   0  0  0  0  0  0  0  0  0  0  0  0
   -0.9106   10.7935   14.8663 C   0  0  0  0  0  0  0  0  0  0  0  0
   -1.7893   10.6458   13.7977 C   0  0  0  0  0  0  0  0  0  0  0  0
   -2.0206   11.6908   12.9138 C   0  0  0  0  0  0  0  0  0  0  0  0
   -1.3902   12.9098   13.1059 C   0  0  0  0  0  0  0  0  0  0  0  0
   -0.4314   15.4067   15.6310 N   0  0  0  0  0  0  0  0  0  0  0  0
    0.2753   14.6281   14.3748 S   0  0  0  0  0  0  0  0  0  0  0  0
    1.6352   14.3362   14.7376 O   0  0  0  0  0  0  0  0  0  0  0  0
    0.0620   15.3539   13.1532 O   0  0  0  0  0  0  0  0  0  0  0  0
   -1.3996   15.6241   15.3949 H   0  0  0  0  0  0  0  0  0  0  0  0
    0.0743   16.2715   15.8227 H   0  0  0  0  0  0  0  0  0  0  0  0
  5  1  1  0  0  0
  5  2  1  0  0  0
  1 15  1  0  0  0
  9  8  2  0  0  0
  9 10  1  0  0  0
  4  2  1  0  0  0
  4 10  1  0  0  0
  2  3  2  0  0  0
  8 11  1  0  0  0
 10 12  2  0  0  0
 15 19  1  0  0  0
 11 14  1  0  0  0
 11 13  2  0  0  0
 12 13  1  0  0  0
 19 18  2  0  0  0
 19 20  1  0  0  0
 18 17  1  0  0  0
 20 21  2  0  0  0
 17 16  2  0  0  0
 21 16  1  0  0  0
 16 23  1  0  0  0
 22 23  1  0  0  0
 25 23  2  0  0  0
 23 24  2  0  0  0
 22 26  1  0  0  0
 22 27  1  0  0  0
  4  6  1  0  0  0
  5  7  1  0  0  0
M  END
> <minimizedAffinity>
-6.81351

$$$$
5NY3_9E8_A_302


 27 28  0  0  0  0  0  0  0  0999 V2000
   -1.9627    9.3915   12.5995 C   0  0  0  0  0  0  0  0  0  0  0  0
   -3.5286    7.7017   13.5499 C   0  0  0  0  0  0  0  0  0  0  0  0
   -2.6861    7.4348   14.4643 O   0  0  0  0  0  0  0  0  0  0  0  0
   -4.7118    6.9314   13.4357 N   0  0  0  0  0  0  0  0  0  0  0  0
   -3.2761    8.7594   12.6968 N   0  0  0  0  0  0  0  0  0  0  0  0
   -5.2215    7.0119   12.5973 H   0  0  0  0  0  0  0  0  0  0  0  0
   -4.0086    9.0996   12.1338 H   0  0  0  0  0  0  0  0  0  0  0  0
   -5.3115    3.7819   15.3499 C   0  0  0  0  0  0  0  0  0  0  0  0
   -4.7954    4.6920   14.4186 C   0  0  0  0  0  0  0  0  0  0  0  0
   -5.2288    6.0491   14.4304 C   0  0  0  0  0  0  0  0  0  0  0  0
   -6.2790    4.1991   16.2988 C   0  0  0  0  0  0  0  0  0  0  0  0
   -6.2120    6.4272   15.3920 C   0  0  0  0  0  0  0  0  0  0  0  0
   -6.7256    5.5248   16.3158 C   0  0  0  0  0  0  0  0  0  0  0  0
   -6.9372    3.1188   17.4496 Cl  0  0  0  0  0  0  0  0  0  0  0  0
   -2.2885   10.8743   12.7770 C   0  0  0  0  0  0  0  0  0  0  0  0
    0.1016   13.5597   15.1720 C   0  0  0  0  0  0  0  0  0  0  0  0
    0.1924   12.1614   15.3470 C   0  0  0  0  0  0  0  0  0  0  0  0
   -0.5658   11.2408   14.6048 C   0  0  0  0  0  0  0  0  0  0  0  0
   -1.4356   11.7400   13.6405 C   0  0  0  0  0  0  0  0  0  0  0  0
   -1.5263   13.1038   13.3982 C   0  0  0  0  0  0  0  0  0  0  0  0
   -0.7612   13.9892   14.1404 C   0  0  0  0  0  0  0  0  0  0  0  0
    0.0721   15.8138   16.6114 N   0  0  0  0  0  0  0  0  0  0  0  0
    1.0703   14.6569   16.0209 S   0  0  0  0  0  0  0  0  0  0  0  0
    1.6444   13.9512   17.1338 O   0  0  0  0  0  0  0  0  0  0  0  0
    1.9785   15.2225   15.0617 O   0  0  0  0  0  0  0  0  0  0  0  0
   -0.3475   16.3284   15.8371 H   0  0  0  0  0  0  0  0  0  0  0  0
    0.6053   16.4562   17.1973 H   0  0  0  0  0  0  0  0  0  0  0  0
  5  1  1  0  0  0
  5  2  1  0  0  0
  1 15  1  0  0  0
  9  8  2  0  0  0
  9 10  1  0  0  0
  4  2  1  0  0  0
  4 10  1  0  0  0
  2  3  2  0  0  0
  8 11  1  0  0  0
 10 12  2  0  0  0
 15 19  1  0  0  0
 11 14  1  0  0  0
 11 13  2  0  0  0
 12 13  1  0  0  0
 19 18  2  0  0  0
 19 20  1  0  0  0
 18 17  1  0  0  0
 20 21  2  0  0  0
 17 16  2  0  0  0
 21 16  1  0  0  0
 16 23  1  0  0  0
 22 23  1  0  0  0
 25 23  2  0  0  0
 23 24  2  0  0  0
 22 26  1  0  0  0
 22 27  1  0  0  0
  4  6  1  0  0  0
  5  7  1  0  0  0
M  END
> <minimizedAffinity>
-6.71700

$$$$
5NY3_9E8_A_302


 27 28  0  0  0  0  0  0  0  0999 V2000
   -3.2190    7.6641   10.4877 C   0  0  0  0  0  0  0  0  0  0  0  0
   -4.0260    6.7954   12.6799 C   0  0  0  0  0  0  0  0  0  0  0  0
   -4.9067    6.1007   12.0807 O   0  0  0  0  0  0  0  0  0  0  0  0
   -4.0156    6.8508   14.0951 N   0  0  0  0  0  0  0  0  0  0  0  0
   -3.0801    7.4672   11.9286 N   0  0  0  0  0  0  0  0  0  0  0  0
   -3.4787    7.5622   14.5133 H   0  0  0  0  0  0  0  0  0  0  0  0
   -2.2831    7.8265   12.3814 H   0  0  0  0  0  0  0  0  0  0  0  0
   -4.7221    3.8584   16.2140 C   0  0  0  0  0  0  0  0  0  0  0  0
   -4.0551    4.7769   15.3932 C   0  0  0  0  0  0  0  0  0  0  0  0
   -4.7157    5.9650   14.9671 C   0  0  0  0  0  0  0  0  0  0  0  0
   -6.0619    4.0954   16.6130 C   0  0  0  0  0  0  0  0  0  0  0  0
   -6.0669    6.1616   15.3792 C   0  0  0  0  0  0  0  0  0  0  0  0
   -6.7301    5.2505   16.1927 C   0  0  0  0  0  0  0  0  0  0  0  0
   -6.9130    2.9977   17.6105 Cl  0  0  0  0  0  0  0  0  0  0  0  0
   -2.0406    8.5800   10.1578 C   0  0  0  0  0  0  0  0  0  0  0  0
    2.0586    7.3750   10.7938 C   0  0  0  0  0  0  0  0  0  0  0  0
    1.2149    6.6390    9.9331 C   0  0  0  0  0  0  0  0  0  0  0  0
   -0.1275    6.9773    9.6951 C   0  0  0  0  0  0  0  0  0  0  0  0
   -0.6386    8.1041   10.3314 C   0  0  0  0  0  0  0  0  0  0  0  0
    0.1636    8.8872   11.1499 C   0  0  0  0  0  0  0  0  0  0  0  0
    1.4869    8.5343   11.3614 C   0  0  0  0  0  0  0  0  0  0  0  0
    3.8301    6.3505   12.5159 N   0  0  0  0  0  0  0  0  0  0  0  0
    3.6933    7.0012   11.0188 S   0  0  0  0  0  0  0  0  0  0  0  0
    4.0386    5.9892   10.0582 O   0  0  0  0  0  0  0  0  0  0  0  0
    4.4074    8.2461   10.9478 O   0  0  0  0  0  0  0  0  0  0  0  0
    3.5892    7.0529   13.2152 H   0  0  0  0  0  0  0  0  0  0  0  0
    4.7897    6.0380   12.6644 H   0  0  0  0  0  0  0  0  0  0  0  0
  5  1  1  0  0  0
  5  2  1  0  0  0
  1 15  1  0  0  0
  9  8  2  0  0  0
  9 10  1  0  0  0
  4  2  1  0  0  0
  4 10  1  0  0  0
  2  3  2  0  0  0
  8 11  1  0  0  0
 10 12  2  0  0  0
 15 19  1  0  0  0
 11 14  1  0  0  0
 11 13  2  0  0  0
 12 13  1  0  0  0
 19 18  2  0  0  0
 19 20  1  0  0  0
 18 17  1  0  0  0
 20 21  2  0  0  0
 17 16  2  0  0  0
 21 16  1  0  0  0
 16 23  1  0  0  0
 22 23  1  0  0  0
 25 23  2  0  0  0
 23 24  2  0  0  0
 22 26  1  0  0  0
 22 27  1  0  0  0
  4  6  1  0  0  0
  5  7  1  0  0  0
M  END
> <minimizedAffinity>
-6.55297

$$$$
5NY3_9E8_A_302


 27 28  0  0  0  0  0  0  0  0999 V2000
   -0.8296    7.8518   12.7945 C   0  0  0  0  0  0  0  0  0  0  0  0
   -2.7960    6.5633   13.6218 C   0  0  0  0  0  0  0  0  0  0  0  0
   -2.0568    5.9861   14.4807 O   0  0  0  0  0  0  0  0  0  0  0  0
   -4.1447    6.1590   13.4682 N   0  0  0  0  0  0  0  0  0  0  0  0
   -2.2656    7.5936   12.8685 N   0  0  0  0  0  0  0  0  0  0  0  0
   -4.6146    6.4596   12.6570 H   0  0  0  0  0  0  0  0  0  0  0  0
   -2.8784    8.1753   12.3631 H   0  0  0  0  0  0  0  0  0  0  0  0
   -6.5943    5.2390   16.1321 C   0  0  0  0  0  0  0  0  0  0  0  0
   -5.8784    5.9839   15.1861 C   0  0  0  0  0  0  0  0  0  0  0  0
   -4.8813    5.3539   14.3871 C   0  0  0  0  0  0  0  0  0  0  0  0
   -6.3216    3.8594   16.3129 C   0  0  0  0  0  0  0  0  0  0  0  0
   -4.6276    3.9677   14.6070 C   0  0  0  0  0  0  0  0  0  0  0  0
   -5.3365    3.2279   15.5461 C   0  0  0  0  0  0  0  0  0  0  0  0
   -7.1695    2.9156   17.4595 Cl  0  0  0  0  0  0  0  0  0  0  0  0
   -0.7719    9.3472   12.4834 C   0  0  0  0  0  0  0  0  0  0  0  0
    1.2356   12.0627   15.1772 C   0  0  0  0  0  0  0  0  0  0  0  0
    1.8993   11.5509   14.0406 C   0  0  0  0  0  0  0  0  0  0  0  0
    1.3013   10.6585   13.1355 C   0  0  0  0  0  0  0  0  0  0  0  0
   -0.0161   10.2774   13.3699 C   0  0  0  0  0  0  0  0  0  0  0  0
   -0.7265   10.7893   14.4469 C   0  0  0  0  0  0  0  0  0  0  0  0
   -0.1141   11.6740   15.3202 C   0  0  0  0  0  0  0  0  0  0  0  0
    2.7606   14.2572   15.2867 N   0  0  0  0  0  0  0  0  0  0  0  0
    1.9401   13.1917   16.2220 S   0  0  0  0  0  0  0  0  0  0  0  0
    0.8717   13.8990   16.8736 O   0  0  0  0  0  0  0  0  0  0  0  0
    2.8491   12.4579   17.0587 O   0  0  0  0  0  0  0  0  0  0  0  0
    3.5253   13.7757   14.8136 H   0  0  0  0  0  0  0  0  0  0  0  0
    3.1382   15.0026   15.8716 H   0  0  0  0  0  0  0  0  0  0  0  0
  5  1  1  0  0  0
  5  2  1  0  0  0
  1 15  1  0  0  0
  9  8  2  0  0  0
  9 10  1  0  0  0
  4  2  1  0  0  0
  4 10  1  0  0  0
  2  3  2  0  0  0
  8 11  1  0  0  0
 10 12  2  0  0  0
 15 19  1  0  0  0
 11 14  1  0  0  0
 11 13  2  0  0  0
 12 13  1  0  0  0
 19 18  2  0  0  0
 19 20  1  0  0  0
 18 17  1  0  0  0
 20 21  2  0  0  0
 17 16  2  0  0  0
 21 16  1  0  0  0
 16 23  1  0  0  0
 22 23  1  0  0  0
 25 23  2  0  0  0
 23 24  2  0  0  0
 22 26  1  0  0  0
 22 27  1  0  0  0
  4  6  1  0  0  0
  5  7  1  0  0  0
M  END
> <minimizedAffinity>
-6.46009

$$$$
