2E2P_ADP_A_600
  RCSB PDB12061705243D
Coordinates from PDB:2E2P:A:600 Model:1 without hydrogens
 27 29  0  0  0  0            999 V2000
    6.6670   -5.0820   28.7580   P 0  0  0  0  0  0  0  0  0  0  0  0
    6.8300   -4.5560   27.3790   O 0  0  0  0  0  0  0  0  0  0  0  0
    7.3750   -4.2660   29.7990   O 0  0  0  0  0  0  0  0  0  0  0  0
    5.1520   -5.3240   29.1150   O 0  0  0  0  0  0  0  0  0  0  0  0
    8.3280   -7.2220   27.7080   P 0  0  0  0  0  0  0  0  0  0  0  0
    9.2910   -6.2070   27.1310   O 0  0  0  0  0  0  0  0  0  0  0  0
    8.9700   -8.4390   28.3270   O 0  0  0  0  0  0  0  0  0  0  0  0
    7.3980   -6.5140   28.7590   O 0  0  0  0  0  0  0  0  0  0  0  0
    7.3590   -7.5360   26.4880   O 0  0  0  0  0  0  0  0  0  0  0  0
    6.6750   -8.8270   26.3900   C 0  0  0  0  0  0  0  0  0  0  0  0
    5.7130   -8.8750   25.2120   C 0  0  0  0  0  0  0  0  0  0  0  0
    6.3840   -9.3200   24.0110   O 0  0  0  0  0  0  0  0  0  0  0  0
    4.4580   -9.7750   25.3390   C 0  0  0  0  0  0  0  0  0  0  0  0
    3.3240   -8.9820   24.9460   O 0  0  0  0  0  0  0  0  0  0  0  0
    4.7480  -10.9770   24.4310   C 0  0  0  0  0  0  0  0  0  0  0  0
    3.6140  -11.4300   23.6680   O 0  0  0  0  0  0  0  0  0  0  0  0
    5.8340  -10.5090   23.4760   C 0  0  0  0  0  0  0  0  0  0  0  0
    6.8770  -11.5650   23.2290   N 0  0  0  0  0  0  0  0  0  0  0  0
    7.7410  -12.1380   24.1060   C 0  0  0  0  0  0  0  0  0  0  0  0
    8.5360  -13.0580   23.5230   N 0  0  0  0  0  0  0  0  0  0  0  0
    8.1390  -13.0560   22.2210   C 0  0  0  0  0  0  0  0  0  0  0  0
    8.5990  -13.8130   21.0660   C 0  0  0  0  0  0  0  0  0  0  0  0
    9.5290  -14.7100   21.0600   N 0  0  0  0  0  0  0  0  0  0  0  0
    7.9260  -13.5100   19.8890   N 0  0  0  0  0  0  0  0  0  0  0  0
    6.9100  -12.5620   19.8030   C 0  0  0  0  0  0  0  0  0  0  0  0
    6.4810  -11.8590   20.8550   N 0  0  0  0  0  0  0  0  0  0  0  0
    7.1200  -12.1290   22.0220   C 0  0  0  0  0  0  0  0  0  0  0  0
  1  2  2  0  0  0  0
  1  3  1  0  0  0  0
  1  4  1  0  0  0  0
  1  8  1  0  0  0  0
  5  6  2  0  0  0  0
  5  7  1  0  0  0  0
  5  8  1  0  0  0  0
  5  9  1  0  0  0  0
  9 10  1  0  0  0  0
 10 11  1  0  0  0  0
 11 12  1  0  0  0  0
 11 13  1  0  0  0  0
 12 17  1  0  0  0  0
 13 14  1  0  0  0  0
 13 15  1  0  0  0  0
 15 16  1  0  0  0  0
 15 17  1  0  0  0  0
 17 18  1  0  0  0  0
 18 19  1  0  0  0  0
 18 27  1  0  0  0  0
 19 20  2  0  0  0  0
 20 21  1  0  0  0  0
 21 22  1  0  0  0  0
 21 27  2  0  0  0  0
 22 23  1  0  0  0  0
 22 24  2  0  0  0  0
 24 25  1  0  0  0  0
 25 26  2  0  0  0  0
 26 27  1  0  0  0  0
A    1
PB
A    2
O1B
A    3
O2B
A    4
O3B
A    5
PA
A    6
O1A
A    7
O2A
A    8
O3A
A    9
O5'
A   10
C5'
A   11
C4'
A   12
O4'
A   13
C3'
A   14
O3'
A   15
C2'
A   16
O2'
A   17
C1'
A   18
N9
A   19
C8
A   20
N7
A   21
C5
A   22
C6
A   23
N6
A   24
N1
A   25
C2
A   26
N3
A   27
C4
M  END
>  <InstanceId>
2E2P_ADP_A_600

>  <ChemCompId>
ADP

>  <PdbId>
2E2P

>  <ChainId>
A

>  <ResidueNumber>
600

>  <InsertionCode>


>  <Model>
1

>  <AltIds>


>  <MissingHeavyAtoms>
0

>  <ObservedFormula>
C10 N5 O10 P2

>  <Name>
ADENOSINE-5'-DIPHOSPHATE

>  <SystematicName>
[(2R,3S,4R,5R)-5-(6-aminopurin-9-yl)-3,4-dihydroxy-oxolan-2-yl]methyl phosphono hydrogen phosphate

>  <Synonyms>


>  <Type>
NON-POLYMER

>  <Formula>
C10 H15 N5 O10 P2

>  <MolecularWeight>
427.201

>  <ModifiedDate>
2011-06-04

>  <Parent>
A

>  <OneLetterCode>


>  <SubcomponentList>


>  <AmbiguousFlag>
N

>  <InChI>
InChI=1S/C10H15N5O10P2/c11-8-5-9(13-2-12-8)15(3-14-5)10-7(17)6(16)4(24-10)1-23-27(21,22)25-26(18,19)20/h2-4,6-7,10,16-17H,1H2,(H,21,22)(H2,11,12,13)(H2,18,19,20)/t4-,6-,7-,10-/m1/s1

>  <InChIKey>
XTWYTFMLZFPYCI-KQYNXXCUSA-N

>  <SMILES>
c1nc(c2c(n1)n(cn2)[C@H]3[C@@H]([C@@H]([C@H](O3)CO[P@](=O)(O)OP(=O)(O)O)O)O)N

$$$$
