5ZKC_3C0_A_501
  RCSB PDB11171803133D
Coordinates from PDB:5ZKC:A:501 Model:1 without hydrogens
 23 26  0  0  0  0            999 V2000
  186.1620   24.4620  525.6110   C 0  0  0  0  0  0  0  0  0  0  0  0
  181.9930   26.8730  524.8220   C 0  0  0  0  0  0  0  0  0  0  0  0
  181.4450   29.3020  524.1570   C 0  0  0  0  0  0  0  0  0  0  0  0
  182.9440   29.3990  526.0350   C 0  0  0  0  0  0  0  0  0  0  0  0
  180.3730   30.9610  525.6400   C 0  0  0  0  0  0  0  0  0  0  0  0
  179.2940   28.9530  525.2640   C 0  0  0  0  0  0  0  0  0  0  0  0
  181.5200   28.8810  526.3590   C 0  0  0  0  0  0  0  0  0  0  0  0
  180.6430   29.5350  525.3670   N 0  3  0  0  0  0  0  0  0  0  0  0
  181.4080   27.8110  523.7470   C 0  0  0  0  0  0  0  0  0  0  0  0
  182.8910   29.7010  524.5610   C 0  0  0  0  0  0  0  0  0  0  0  0
  183.1500   30.7590  525.5430   O 0  0  0  0  0  0  0  0  0  0  0  0
  181.5170   27.3460  526.2150   C 0  0  0  0  0  0  0  0  0  0  0  0
  183.4350   26.7790  524.6850   O 0  0  0  0  0  0  0  0  0  0  0  0
  184.0310   25.7740  525.3780   C 0  0  0  0  0  0  0  0  0  0  0  0
  183.4350   24.8590  525.9450   O 0  0  0  0  0  0  0  0  0  0  0  0
  185.5630   25.8500  525.3730   C 0  0  0  0  0  0  0  0  0  0  0  0
  185.7660   23.5920  524.5440   O 0  0  0  0  0  0  0  0  0  0  0  0
  185.9970   26.7490  526.3460   C 0  0  0  0  0  0  0  0  0  0  0  0
  186.5020   27.9840  525.9590   C 0  0  0  0  0  0  0  0  0  0  0  0
  186.9350   28.8910  526.9180   C 0  0  0  0  0  0  0  0  0  0  0  0
  186.8620   28.5640  528.2670   C 0  0  0  0  0  0  0  0  0  0  0  0
  186.3560   27.3280  528.6560   C 0  0  0  0  0  0  0  0  0  0  0  0
  185.9220   26.4210  527.6950   C 0  0  0  0  0  0  0  0  0  0  0  0
 21 20  2  0  0  0  0
 21 22  1  0  0  0  0
 20 19  1  0  0  0  0
 11 10  1  0  0  0  0
 11  4  1  0  0  0  0
 22 23  2  0  0  0  0
 19 18  2  0  0  0  0
 10  4  1  0  0  0  0
 10  3  1  0  0  0  0
  4  7  1  0  0  0  0
  5  8  1  0  0  0  0
 23 18  1  0  0  0  0
 18 16  1  0  0  0  0
  3  8  1  0  0  0  0
  3  9  1  0  0  0  0
  8  7  1  0  0  0  0
  8  6  1  0  0  0  0
  7 12  1  0  0  0  0
 16  1  1  0  0  0  0
 16 14  1  0  0  0  0
 13  2  1  0  0  0  0
 13 14  1  0  0  0  0
  9  2  1  0  0  0  0
 12  2  1  0  0  0  0
  1 17  1  0  0  0  0
 14 15  2  0  0  0  0
M  CHG  1   8   1
A    1
C10
A    2
C13
A    3
C15
A    4
C17
A    5
C20
A    6
C21
A    7
C22
A    8
N19
A    9
C14
A   10
C16
A   11
O18
A   12
C23
A   13
O12
A   14
C02
A   15
O01
A   16
C03
A   17
O11
A   18
C04
A   19
C05
A   20
C06
A   21
C07
A   22
C08
A   23
C09
M  END
>  <InstanceId>
5ZKC_3C0_A_501

>  <ChemCompId>
3C0

>  <PdbId>
5ZKC

>  <ChainId>
A

>  <ResidueNumber>
501

>  <InsertionCode>


>  <Model>
1

>  <AltIds>


>  <MissingHeavyAtoms>
0

>  <ObservedFormula>
C18 N O4

>  <Name>
N-methyl scopolamine

>  <SystematicName>


>  <Synonyms>
(1R,2R,4S,5S,7s)-7-{[(2S)-3-hydroxy-2-phenylpropanoyl]oxy}-9,9-dimethyl-3-oxa-9-azoniatricyclo[3.3.1.0~2,4~]nonane

>  <Type>
NON-POLYMER

>  <Formula>
C18 H24 N O4

>  <MolecularWeight>
318.387

>  <ModifiedDate>
2014-11-21

>  <Parent>


>  <OneLetterCode>


>  <SubcomponentList>


>  <AmbiguousFlag>
N

>  <InChI>
InChI=1S/C18H24NO4/c1-19(2)14-8-12(9-15(19)17-16(14)23-17)22-18(21)13(10-20)11-6-4-3-5-7-11/h3-7,12-17,20H,8-10H2,1-2H3/q+1/t12-,13-,14-,15+,16-,17+/m1/s1

>  <InChIKey>
LZCOQTDXKCNBEE-IKIFYQGPSA-N

>  <SMILES>
C[N+]1([C@@H]2CC(C[C@H]1[C@H]3[C@@H]2O3)OC(=O)[C@H](CO)c4ccccc4)C

$$$$
