5ZKC_3C0_A_501


 24 27  0  0  0  0  0  0  0  0999 V2000
  183.5154   26.8550  524.6897 O   0  0  0  0  0  0  0  0  0  0  0  0
  182.0761   26.8777  524.8765 C   0  0  0  0  0  0  0  0  0  0  0  0
  181.3941   29.2936  524.2926 C   0  0  0  0  0  0  0  0  0  0  0  0
  182.9502   29.4157  526.1221 C   0  0  0  0  0  0  0  0  0  0  0  0
  180.2978   30.8641  525.8523 C   0  0  0  0  0  0  0  0  0  0  0  0
  179.3006   28.8172  525.4606 C   0  0  0  0  0  0  0  0  0  0  0  0
  181.5636   28.8236  526.4794 C   0  0  0  0  0  0  0  0  0  0  0  0
  180.6240   29.4593  525.5340 N   0  0  0  0  0  0  0  0  0  0  0  0
  181.4120   27.8129  523.8459 C   0  0  0  0  0  0  0  0  0  0  0  0
  182.8331   29.7503  524.6589 C   0  0  0  0  0  0  0  0  0  0  0  0
  183.0763   30.7953  525.6587 O   0  0  0  0  0  0  0  0  0  0  0  0
  181.6266   27.2941  526.2962 C   0  0  0  0  0  0  0  0  0  0  0  0
  184.1707   25.8142  525.2666 C   0  0  0  0  0  0  0  0  0  0  0  0
  183.6358   24.7843  525.6754 O   0  0  0  0  0  0  0  0  0  0  0  0
  185.6897   26.0128  525.3437 C   0  0  0  0  0  0  0  0  0  0  0  0
  186.0230   26.6724  526.5257 C   0  0  0  0  0  0  0  0  0  0  0  0
  186.3582   28.0200  526.4853 C   0  0  0  0  0  0  0  0  0  0  0  0
  186.6892   28.6908  527.6559 C   0  0  0  0  0  0  0  0  0  0  0  0
  186.6840   28.0140  528.8700 C   0  0  0  0  0  0  0  0  0  0  0  0
  186.3480   26.6648  528.9120 C   0  0  0  0  0  0  0  0  0  0  0  0
  186.0160   25.9944  527.7395 C   0  0  0  0  0  0  0  0  0  0  0  0
  186.4045   24.6625  525.2558 C   0  0  0  0  0  0  0  0  0  0  0  0
  185.9094   23.9437  524.1199 O   0  0  0  0  0  0  0  0  0  0  0  0
  184.9543   23.8045  524.2165 H   0  0  0  0  0  0  0  0  0  0  0  0
 19 18  2  0  0  0
 19 20  1  0  0  0
 18 17  1  0  0  0
 11 10  1  0  0  0
 11  4  1  0  0  0
 20 21  2  0  0  0
 17 16  2  0  0  0
 10  4  1  0  0  0
 10  3  1  0  0  0
  4  7  1  0  0  0
  5  8  1  0  0  0
 21 16  1  0  0  0
 16 15  1  0  0  0
  3  8  1  0  0  0
  3  9  1  0  0  0
  8  7  1  0  0  0
  8  6  1  0  0  0
  7 12  1  0  0  0
 15 22  1  0  0  0
 15 13  1  0  0  0
  1  2  1  0  0  0
  1 13  1  0  0  0
  9  2  1  0  0  0
 12  2  1  0  0  0
 22 23  1  0  0  0
 13 14  2  0  0  0
 23 24  1  0  0  0
M  CHG 1   8   1
M  END
> <minimizedAffinity>
-9.67008

$$$$
5ZKC_3C0_A_501


 24 27  0  0  0  0  0  0  0  0999 V2000
  183.7489   26.8286  524.9336 O   0  0  0  0  0  0  0  0  0  0  0  0
  183.5730   28.1217  524.2980 C   0  0  0  0  0  0  0  0  0  0  0  0
  182.4075   29.5613  526.0902 C   0  0  0  0  0  0  0  0  0  0  0  0
  180.9750   27.6817  525.6447 C   0  0  0  0  0  0  0  0  0  0  0  0
  180.1838   30.6049  525.8318 C   0  0  0  0  0  0  0  0  0  0  0  0
  181.8146   31.0735  524.2638 C   0  0  0  0  0  0  0  0  0  0  0  0
  181.0775   28.7150  524.4945 C   0  0  0  0  0  0  0  0  0  0  0  0
  181.3546   30.0020  525.1635 N   0  0  0  0  0  0  0  0  0  0  0  0
  183.7206   29.2565  525.3315 C   0  0  0  0  0  0  0  0  0  0  0  0
  181.8517   28.2570  526.7251 C   0  0  0  0  0  0  0  0  0  0  0  0
  180.4145   28.0591  526.9399 O   0  0  0  0  0  0  0  0  0  0  0  0
  182.2254   28.2875  523.5582 C   0  0  0  0  0  0  0  0  0  0  0  0
  184.9098   26.1827  524.6495 C   0  0  0  0  0  0  0  0  0  0  0  0
  185.3881   26.0558  523.5230 O   0  0  0  0  0  0  0  0  0  0  0  0
  185.6237   25.6302  525.8897 C   0  0  0  0  0  0  0  0  0  0  0  0
  186.1274   26.6808  526.6550 C   0  0  0  0  0  0  0  0  0  0  0  0
  185.8941   26.7022  528.0243 C   0  0  0  0  0  0  0  0  0  0  0  0
  186.3930   27.7412  528.7998 C   0  0  0  0  0  0  0  0  0  0  0  0
  187.1279   28.7607  528.2060 C   0  0  0  0  0  0  0  0  0  0  0  0
  187.3628   28.7403  526.8351 C   0  0  0  0  0  0  0  0  0  0  0  0
  186.8636   27.6991  526.0598 C   0  0  0  0  0  0  0  0  0  0  0  0
  184.6625   24.7708  526.7140 C   0  0  0  0  0  0  0  0  0  0  0  0
  183.5719   24.3584  525.8816 O   0  0  0  0  0  0  0  0  0  0  0  0
  183.1077   25.1411  525.5458 H   0  0  0  0  0  0  0  0  0  0  0  0
 19 18  2  0  0  0
 19 20  1  0  0  0
 18 17  1  0  0  0
 11 10  1  0  0  0
 11  4  1  0  0  0
 20 21  2  0  0  0
 17 16  2  0  0  0
 10  4  1  0  0  0
 10  3  1  0  0  0
  4  7  1  0  0  0
  5  8  1  0  0  0
 21 16  1  0  0  0
 16 15  1  0  0  0
  3  8  1  0  0  0
  3  9  1  0  0  0
  8  7  1  0  0  0
  8  6  1  0  0  0
  7 12  1  0  0  0
 15 22  1  0  0  0
 15 13  1  0  0  0
  1  2  1  0  0  0
  1 13  1  0  0  0
  9  2  1  0  0  0
 12  2  1  0  0  0
 22 23  1  0  0  0
 13 14  2  0  0  0
 23 24  1  0  0  0
M  CHG 1   8   1
M  END
> <minimizedAffinity>
-9.40704

$$$$
5ZKC_3C0_A_501


 24 27  0  0  0  0  0  0  0  0999 V2000
  183.3987   26.5764  525.3926 O   0  0  0  0  0  0  0  0  0  0  0  0
  181.9570   26.6855  525.2629 C   0  0  0  0  0  0  0  0  0  0  0  0
  181.5869   28.9865  524.1626 C   0  0  0  0  0  0  0  0  0  0  0  0
  182.7437   29.3669  526.2363 C   0  0  0  0  0  0  0  0  0  0  0  0
  180.3149   30.8450  525.1770 C   0  0  0  0  0  0  0  0  0  0  0  0
  179.2706   28.8002  524.9203 C   0  0  0  0  0  0  0  0  0  0  0  0
  181.2738   28.8989  526.3820 C   0  0  0  0  0  0  0  0  0  0  0  0
  180.5950   29.3950  525.1680 N   0  0  0  0  0  0  0  0  0  0  0  0
  181.5865   27.4510  523.9767 C   0  0  0  0  0  0  0  0  0  0  0  0
  182.9510   29.4456  524.7472 C   0  0  0  0  0  0  0  0  0  0  0  0
  183.0621   30.6390  525.5923 O   0  0  0  0  0  0  0  0  0  0  0  0
  181.2604   27.3595  526.4675 C   0  0  0  0  0  0  0  0  0  0  0  0
  183.8648   25.3755  525.8241 C   0  0  0  0  0  0  0  0  0  0  0  0
  183.1766   24.4982  526.3444 O   0  0  0  0  0  0  0  0  0  0  0  0
  185.3648   25.1743  525.5749 C   0  0  0  0  0  0  0  0  0  0  0  0
  185.6336   25.2503  524.2091 C   0  0  0  0  0  0  0  0  0  0  0  0
  185.6792   24.0841  523.4555 C   0  0  0  0  0  0  0  0  0  0  0  0
  185.9426   24.1451  522.0929 C   0  0  0  0  0  0  0  0  0  0  0  0
  186.1597   25.3743  521.4814 C   0  0  0  0  0  0  0  0  0  0  0  0
  186.1138   26.5429  522.2346 C   0  0  0  0  0  0  0  0  0  0  0  0
  185.8491   26.4807  523.5986 C   0  0  0  0  0  0  0  0  0  0  0  0
  186.1738   26.2198  526.3459 C   0  0  0  0  0  0  0  0  0  0  0  0
  185.3391   26.8114  527.3487 O   0  0  0  0  0  0  0  0  0  0  0  0
  184.5750   27.2333  526.9256 H   0  0  0  0  0  0  0  0  0  0  0  0
 19 18  2  0  0  0
 19 20  1  0  0  0
 18 17  1  0  0  0
 11 10  1  0  0  0
 11  4  1  0  0  0
 20 21  2  0  0  0
 17 16  2  0  0  0
 10  4  1  0  0  0
 10  3  1  0  0  0
  4  7  1  0  0  0
  5  8  1  0  0  0
 21 16  1  0  0  0
 16 15  1  0  0  0
  3  8  1  0  0  0
  3  9  1  0  0  0
  8  7  1  0  0  0
  8  6  1  0  0  0
  7 12  1  0  0  0
 15 22  1  0  0  0
 15 13  1  0  0  0
  1  2  1  0  0  0
  1 13  1  0  0  0
  9  2  1  0  0  0
 12  2  1  0  0  0
 22 23  1  0  0  0
 13 14  2  0  0  0
 23 24  1  0  0  0
M  CHG 1   8   1
M  END
> <minimizedAffinity>
-9.35440

$$$$
5ZKC_3C0_A_501


 24 27  0  0  0  0  0  0  0  0999 V2000
  183.8436   27.0970  524.6340 O   0  0  0  0  0  0  0  0  0  0  0  0
  183.4736   28.3274  525.3094 C   0  0  0  0  0  0  0  0  0  0  0  0
  181.0354   27.9414  526.0501 C   0  0  0  0  0  0  0  0  0  0  0  0
  181.0932   27.7334  523.6550 C   0  0  0  0  0  0  0  0  0  0  0  0
  179.1098   29.3083  525.3259 C   0  0  0  0  0  0  0  0  0  0  0  0
  180.9023   30.3660  526.3287 C   0  0  0  0  0  0  0  0  0  0  0  0
  181.3139   29.1694  524.1938 C   0  0  0  0  0  0  0  0  0  0  0  0
  180.5762   29.2130  525.4724 N   0  0  0  0  0  0  0  0  0  0  0  0
  182.5175   28.0333  526.4829 C   0  0  0  0  0  0  0  0  0  0  0  0
  180.8864   26.9098  524.8982 C   0  0  0  0  0  0  0  0  0  0  0  0
  179.8316   27.0344  523.8870 O   0  0  0  0  0  0  0  0  0  0  0  0
  182.8276   29.3880  524.3883 C   0  0  0  0  0  0  0  0  0  0  0  0
  184.4224   26.1458  525.4121 C   0  0  0  0  0  0  0  0  0  0  0  0
  183.8146   25.2585  526.0098 O   0  0  0  0  0  0  0  0  0  0  0  0
  185.9522   26.2445  525.4656 C   0  0  0  0  0  0  0  0  0  0  0  0
  186.3452   26.9004  526.6312 C   0  0  0  0  0  0  0  0  0  0  0  0
  186.9602   28.1430  526.5421 C   0  0  0  0  0  0  0  0  0  0  0  0
  187.3540   28.8095  527.6956 C   0  0  0  0  0  0  0  0  0  0  0  0
  187.1317   28.2339  528.9411 C   0  0  0  0  0  0  0  0  0  0  0  0
  186.5155   26.9901  529.0318 C   0  0  0  0  0  0  0  0  0  0  0  0
  186.1209   26.3241  527.8763 C   0  0  0  0  0  0  0  0  0  0  0  0
  186.5750   24.8485  525.3923 C   0  0  0  0  0  0  0  0  0  0  0  0
  185.9166   24.0954  524.3668 O   0  0  0  0  0  0  0  0  0  0  0  0
  184.9718   24.0235  524.5746 H   0  0  0  0  0  0  0  0  0  0  0  0
 19 18  2  0  0  0
 19 20  1  0  0  0
 18 17  1  0  0  0
 11 10  1  0  0  0
 11  4  1  0  0  0
 20 21  2  0  0  0
 17 16  2  0  0  0
 10  4  1  0  0  0
 10  3  1  0  0  0
  4  7  1  0  0  0
  5  8  1  0  0  0
 21 16  1  0  0  0
 16 15  1  0  0  0
  3  8  1  0  0  0
  3  9  1  0  0  0
  8  7  1  0  0  0
  8  6  1  0  0  0
  7 12  1  0  0  0
 15 22  1  0  0  0
 15 13  1  0  0  0
  1  2  1  0  0  0
  1 13  1  0  0  0
  9  2  1  0  0  0
 12  2  1  0  0  0
 22 23  1  0  0  0
 13 14  2  0  0  0
 23 24  1  0  0  0
M  CHG 1   8   1
M  END
> <minimizedAffinity>
-9.03410

$$$$
5ZKC_3C0_A_501


 24 27  0  0  0  0  0  0  0  0999 V2000
  184.0666   27.9833  525.0480 O   0  0  0  0  0  0  0  0  0  0  0  0
  183.3468   29.0629  525.6985 C   0  0  0  0  0  0  0  0  0  0  0  0
  180.9907   28.1028  526.1104 C   0  0  0  0  0  0  0  0  0  0  0  0
  181.3815   28.0372  523.7384 C   0  0  0  0  0  0  0  0  0  0  0  0
  178.9047   29.0391  525.1763 C   0  0  0  0  0  0  0  0  0  0  0  0
  180.2741   30.4182  526.4255 C   0  0  0  0  0  0  0  0  0  0  0  0
  181.2016   29.4563  524.3341 C   0  0  0  0  0  0  0  0  0  0  0  0
  180.3256   29.2673  525.5079 N   0  0  0  0  0  0  0  0  0  0  0  0
  182.3496   28.5018  526.7322 C   0  0  0  0  0  0  0  0  0  0  0  0
  181.2210   27.1250  524.9254 C   0  0  0  0  0  0  0  0  0  0  0  0
  180.2947   27.0623  523.7901 O   0  0  0  0  0  0  0  0  0  0  0  0
  182.5906   29.9980  524.7266 C   0  0  0  0  0  0  0  0  0  0  0  0
  185.1194   27.4734  525.7387 C   0  0  0  0  0  0  0  0  0  0  0  0
  185.8879   28.1314  526.4391 O   0  0  0  0  0  0  0  0  0  0  0  0
  185.2645   25.9526  525.6013 C   0  0  0  0  0  0  0  0  0  0  0  0
  185.5555   25.6210  524.2789 C   0  0  0  0  0  0  0  0  0  0  0  0
  185.5799   24.2850  523.8987 C   0  0  0  0  0  0  0  0  0  0  0  0
  185.8652   23.9402  522.5836 C   0  0  0  0  0  0  0  0  0  0  0  0
  186.1253   24.9325  521.6457 C   0  0  0  0  0  0  0  0  0  0  0  0
  186.1006   26.2706  522.0248 C   0  0  0  0  0  0  0  0  0  0  0  0
  185.8141   26.6148  523.3416 C   0  0  0  0  0  0  0  0  0  0  0  0
  186.3563   25.4384  526.5424 C   0  0  0  0  0  0  0  0  0  0  0  0
  185.8747   25.4902  527.8906 O   0  0  0  0  0  0  0  0  0  0  0  0
  185.6486   26.4056  528.1182 H   0  0  0  0  0  0  0  0  0  0  0  0
 19 18  2  0  0  0
 19 20  1  0  0  0
 18 17  1  0  0  0
 11 10  1  0  0  0
 11  4  1  0  0  0
 20 21  2  0  0  0
 17 16  2  0  0  0
 10  4  1  0  0  0
 10  3  1  0  0  0
  4  7  1  0  0  0
  5  8  1  0  0  0
 21 16  1  0  0  0
 16 15  1  0  0  0
  3  8  1  0  0  0
  3  9  1  0  0  0
  8  7  1  0  0  0
  8  6  1  0  0  0
  7 12  1  0  0  0
 15 22  1  0  0  0
 15 13  1  0  0  0
  1  2  1  0  0  0
  1 13  1  0  0  0
  9  2  1  0  0  0
 12  2  1  0  0  0
 22 23  1  0  0  0
 13 14  2  0  0  0
 23 24  1  0  0  0
M  CHG 1   8   1
M  END
> <minimizedAffinity>
-8.71059

$$$$
5ZKC_3C0_A_501


 24 27  0  0  0  0  0  0  0  0999 V2000
  183.2857   26.3356  525.4507 O   0  0  0  0  0  0  0  0  0  0  0  0
  183.6858   27.6580  525.0055 C   0  0  0  0  0  0  0  0  0  0  0  0
  182.1284   29.2621  526.2877 C   0  0  0  0  0  0  0  0  0  0  0  0
  180.7307   27.8102  524.9757 C   0  0  0  0  0  0  0  0  0  0  0  0
  180.5378   30.8275  525.2293 C   0  0  0  0  0  0  0  0  0  0  0  0
  182.7681   30.9489  524.6385 C   0  0  0  0  0  0  0  0  0  0  0  0
  181.5597   28.8345  524.1604 C   0  0  0  0  0  0  0  0  0  0  0  0
  181.7402   29.9854  525.0680 N   0  0  0  0  0  0  0  0  0  0  0  0
  183.5544   28.6778  526.1546 C   0  0  0  0  0  0  0  0  0  0  0  0
  181.0955   28.1078  526.4057 C   0  0  0  0  0  0  0  0  0  0  0  0
  179.7173   28.2583  525.9277 O   0  0  0  0  0  0  0  0  0  0  0  0
  182.9020   28.1791  523.7787 C   0  0  0  0  0  0  0  0  0  0  0  0
  184.2891   25.5276  525.8816 C   0  0  0  0  0  0  0  0  0  0  0  0
  184.1297   24.4548  526.4627 O   0  0  0  0  0  0  0  0  0  0  0  0
  185.6894   26.0573  525.5477 C   0  0  0  0  0  0  0  0  0  0  0  0
  186.2256   26.7129  526.6549 C   0  0  0  0  0  0  0  0  0  0  0  0
  185.9863   26.2115  527.9283 C   0  0  0  0  0  0  0  0  0  0  0  0
  186.5172   26.8527  529.0404 C   0  0  0  0  0  0  0  0  0  0  0  0
  187.2901   27.9968  528.8800 C   0  0  0  0  0  0  0  0  0  0  0  0
  187.5311   28.4996  527.6056 C   0  0  0  0  0  0  0  0  0  0  0  0
  186.9998   27.8563  526.4927 C   0  0  0  0  0  0  0  0  0  0  0  0
  186.5979   24.9079  525.1053 C   0  0  0  0  0  0  0  0  0  0  0  0
  185.8464   24.0072  524.2830 O   0  0  0  0  0  0  0  0  0  0  0  0
  185.0960   23.6574  524.7885 H   0  0  0  0  0  0  0  0  0  0  0  0
 19 18  2  0  0  0
 19 20  1  0  0  0
 18 17  1  0  0  0
 11 10  1  0  0  0
 11  4  1  0  0  0
 20 21  2  0  0  0
 17 16  2  0  0  0
 10  4  1  0  0  0
 10  3  1  0  0  0
  4  7  1  0  0  0
  5  8  1  0  0  0
 21 16  1  0  0  0
 16 15  1  0  0  0
  3  8  1  0  0  0
  3  9  1  0  0  0
  8  7  1  0  0  0
  8  6  1  0  0  0
  7 12  1  0  0  0
 15 22  1  0  0  0
 15 13  1  0  0  0
  1  2  1  0  0  0
  1 13  1  0  0  0
  9  2  1  0  0  0
 12  2  1  0  0  0
 22 23  1  0  0  0
 13 14  2  0  0  0
 23 24  1  0  0  0
M  CHG 1   8   1
M  END
> <minimizedAffinity>
-8.24263

$$$$
5ZKC_3C0_A_501


 24 27  0  0  0  0  0  0  0  0999 V2000
  184.5635   28.7255  525.7146 O   0  0  0  0  0  0  0  0  0  0  0  0
  185.1096   27.5374  526.3448 C   0  0  0  0  0  0  0  0  0  0  0  0
  186.6385   26.5050  524.5451 C   0  0  0  0  0  0  0  0  0  0  0  0
  184.4174   26.5924  523.6274 C   0  0  0  0  0  0  0  0  0  0  0  0
  186.3485   24.2529  523.5732 C   0  0  0  0  0  0  0  0  0  0  0  0
  186.5425   24.4512  525.8668 C   0  0  0  0  0  0  0  0  0  0  0  0
  184.6145   25.5644  524.7699 C   0  0  0  0  0  0  0  0  0  0  0  0
  186.0356   25.1715  524.6864 N   0  0  0  0  0  0  0  0  0  0  0  0
  186.5573   27.2927  525.8738 C   0  0  0  0  0  0  0  0  0  0  0  0
  185.7794   27.2119  523.4608 C   0  0  0  0  0  0  0  0  0  0  0  0
  185.1493   26.4610  522.3700 O   0  0  0  0  0  0  0  0  0  0  0  0
  184.2799   26.2544  526.1074 C   0  0  0  0  0  0  0  0  0  0  0  0
  183.2370   28.9429  525.9110 C   0  0  0  0  0  0  0  0  0  0  0  0
  182.6484   28.7894  526.9805 O   0  0  0  0  0  0  0  0  0  0  0  0
  182.5059   29.4449  524.6594 C   0  0  0  0  0  0  0  0  0  0  0  0
  181.2298   28.8870  524.5991 C   0  0  0  0  0  0  0  0  0  0  0  0
  180.1399   29.6238  525.0454 C   0  0  0  0  0  0  0  0  0  0  0  0
  178.8621   29.0816  524.9881 C   0  0  0  0  0  0  0  0  0  0  0  0
  178.6726   27.8008  524.4824 C   0  0  0  0  0  0  0  0  0  0  0  0
  179.7629   27.0622  524.0346 C   0  0  0  0  0  0  0  0  0  0  0  0
  181.0417   27.6063  524.0917 C   0  0  0  0  0  0  0  0  0  0  0  0
  182.4299   30.9733  524.6688 C   0  0  0  0  0  0  0  0  0  0  0  0
  183.0031   31.4630  525.8869 O   0  0  0  0  0  0  0  0  0  0  0  0
  182.5116   31.1046  526.6425 H   0  0  0  0  0  0  0  0  0  0  0  0
 19 18  2  0  0  0
 19 20  1  0  0  0
 18 17  1  0  0  0
 11 10  1  0  0  0
 11  4  1  0  0  0
 20 21  2  0  0  0
 17 16  2  0  0  0
 10  4  1  0  0  0
 10  3  1  0  0  0
  4  7  1  0  0  0
  5  8  1  0  0  0
 21 16  1  0  0  0
 16 15  1  0  0  0
  3  8  1  0  0  0
  3  9  1  0  0  0
  8  7  1  0  0  0
  8  6  1  0  0  0
  7 12  1  0  0  0
 15 22  1  0  0  0
 15 13  1  0  0  0
  1  2  1  0  0  0
  1 13  1  0  0  0
  9  2  1  0  0  0
 12  2  1  0  0  0
 22 23  1  0  0  0
 13 14  2  0  0  0
 23 24  1  0  0  0
M  CHG 1   8   1
M  END
> <minimizedAffinity>
-8.06576

$$$$
5ZKC_3C0_A_501


 24 27  0  0  0  0  0  0  0  0999 V2000
  184.5059   28.6139  525.7708 O   0  0  0  0  0  0  0  0  0  0  0  0
  184.8522   27.6645  524.7288 C   0  0  0  0  0  0  0  0  0  0  0  0
  184.8714   25.3817  525.9250 C   0  0  0  0  0  0  0  0  0  0  0  0
  186.5006   26.7720  527.0184 C   0  0  0  0  0  0  0  0  0  0  0  0
  186.8396   23.8999  526.1010 C   0  0  0  0  0  0  0  0  0  0  0  0
  186.1377   24.5621  524.0018 C   0  0  0  0  0  0  0  0  0  0  0  0
  186.8768   26.3266  525.5828 C   0  0  0  0  0  0  0  0  0  0  0  0
  186.1975   25.0285  525.3975 N   0  0  0  0  0  0  0  0  0  0  0  0
  184.1227   26.3248  524.9541 C   0  0  0  0  0  0  0  0  0  0  0  0
  185.1634   26.1231  527.2585 C   0  0  0  0  0  0  0  0  0  0  0  0
  186.3281   25.7882  528.0845 O   0  0  0  0  0  0  0  0  0  0  0  0
  186.3687   27.3948  524.5939 C   0  0  0  0  0  0  0  0  0  0  0  0
  183.1775   28.8258  525.9606 C   0  0  0  0  0  0  0  0  0  0  0  0
  182.5738   28.6171  527.0122 O   0  0  0  0  0  0  0  0  0  0  0  0
  182.4654   29.3976  524.7282 C   0  0  0  0  0  0  0  0  0  0  0  0
  181.1785   28.8697  524.6358 C   0  0  0  0  0  0  0  0  0  0  0  0
  180.0987   29.6178  525.0879 C   0  0  0  0  0  0  0  0  0  0  0  0
  178.8105   29.1056  524.9990 C   0  0  0  0  0  0  0  0  0  0  0  0
  178.6003   27.8436  524.4558 C   0  0  0  0  0  0  0  0  0  0  0  0
  179.6805   27.0936  524.0022 C   0  0  0  0  0  0  0  0  0  0  0  0
  180.9698   27.6077  524.0910 C   0  0  0  0  0  0  0  0  0  0  0  0
  182.4208   30.9254  524.8048 C   0  0  0  0  0  0  0  0  0  0  0  0
  183.1933   31.3604  525.9300 O   0  0  0  0  0  0  0  0  0  0  0  0
  182.8243   30.9796  526.7422 H   0  0  0  0  0  0  0  0  0  0  0  0
 19 18  2  0  0  0
 19 20  1  0  0  0
 18 17  1  0  0  0
 11 10  1  0  0  0
 11  4  1  0  0  0
 20 21  2  0  0  0
 17 16  2  0  0  0
 10  4  1  0  0  0
 10  3  1  0  0  0
  4  7  1  0  0  0
  5  8  1  0  0  0
 21 16  1  0  0  0
 16 15  1  0  0  0
  3  8  1  0  0  0
  3  9  1  0  0  0
  8  7  1  0  0  0
  8  6  1  0  0  0
  7 12  1  0  0  0
 15 22  1  0  0  0
 15 13  1  0  0  0
  1  2  1  0  0  0
  1 13  1  0  0  0
  9  2  1  0  0  0
 12  2  1  0  0  0
 22 23  1  0  0  0
 13 14  2  0  0  0
 23 24  1  0  0  0
M  CHG 1   8   1
M  END
> <minimizedAffinity>
-8.03324

$$$$
5ZKC_3C0_A_501


 24 27  0  0  0  0  0  0  0  0999 V2000
  184.2870   28.8112  525.1283 O   0  0  0  0  0  0  0  0  0  0  0  0
  184.5552   28.1221  526.3774 C   0  0  0  0  0  0  0  0  0  0  0  0
  186.6687   26.7276  525.8969 C   0  0  0  0  0  0  0  0  0  0  0  0
  184.9751   26.0103  524.3476 C   0  0  0  0  0  0  0  0  0  0  0  0
  186.7934   24.2648  526.0367 C   0  0  0  0  0  0  0  0  0  0  0  0
  186.0834   25.4435  527.8925 C   0  0  0  0  0  0  0  0  0  0  0  0
  184.7222   25.6152  525.8245 C   0  0  0  0  0  0  0  0  0  0  0  0
  186.0677   25.4923  526.4206 N   0  0  0  0  0  0  0  0  0  0  0  0
  186.0741   27.9723  526.5967 C   0  0  0  0  0  0  0  0  0  0  0  0
  186.2911   26.7404  524.3901 C   0  0  0  0  0  0  0  0  0  0  0  0
  186.1375   25.4980  523.6261 O   0  0  0  0  0  0  0  0  0  0  0  0
  183.8912   26.7303  526.4901 C   0  0  0  0  0  0  0  0  0  0  0  0
  183.0297   29.3044  524.9826 C   0  0  0  0  0  0  0  0  0  0  0  0
  182.7472   30.4986  524.8923 O   0  0  0  0  0  0  0  0  0  0  0  0
  181.9499   28.2178  524.9033 C   0  0  0  0  0  0  0  0  0  0  0  0
  180.7974   28.6448  525.5610 C   0  0  0  0  0  0  0  0  0  0  0  0
  180.8207   28.8161  526.9395 C   0  0  0  0  0  0  0  0  0  0  0  0
  179.6805   29.2443  527.6076 C   0  0  0  0  0  0  0  0  0  0  0  0
  178.5145   29.5034  526.8967 C   0  0  0  0  0  0  0  0  0  0  0  0
  178.4898   29.3329  525.5164 C   0  0  0  0  0  0  0  0  0  0  0  0
  179.6323   28.9049  524.8484 C   0  0  0  0  0  0  0  0  0  0  0  0
  181.6467   27.8794  523.4420 C   0  0  0  0  0  0  0  0  0  0  0  0
  182.7510   28.2909  522.6273 O   0  0  0  0  0  0  0  0  0  0  0  0
  182.8845   29.2469  522.7226 H   0  0  0  0  0  0  0  0  0  0  0  0
 19 18  2  0  0  0
 19 20  1  0  0  0
 18 17  1  0  0  0
 11 10  1  0  0  0
 11  4  1  0  0  0
 20 21  2  0  0  0
 17 16  2  0  0  0
 10  4  1  0  0  0
 10  3  1  0  0  0
  4  7  1  0  0  0
  5  8  1  0  0  0
 21 16  1  0  0  0
 16 15  1  0  0  0
  3  8  1  0  0  0
  3  9  1  0  0  0
  8  7  1  0  0  0
  8  6  1  0  0  0
  7 12  1  0  0  0
 15 22  1  0  0  0
 15 13  1  0  0  0
  1  2  1  0  0  0
  1 13  1  0  0  0
  9  2  1  0  0  0
 12  2  1  0  0  0
 22 23  1  0  0  0
 13 14  2  0  0  0
 23 24  1  0  0  0
M  CHG 1   8   1
M  END
> <minimizedAffinity>
-7.74558

$$$$
5ZKC_3C0_A_501


 24 27  0  0  0  0  0  0  0  0999 V2000
  183.5422   26.8073  525.2757 O   0  0  0  0  0  0  0  0  0  0  0  0
  183.4847   28.0575  524.5404 C   0  0  0  0  0  0  0  0  0  0  0  0
  182.2223   29.6648  526.1106 C   0  0  0  0  0  0  0  0  0  0  0  0
  180.7550   27.8144  525.6565 C   0  0  0  0  0  0  0  0  0  0  0  0
  180.0816   30.7715  525.5690 C   0  0  0  0  0  0  0  0  0  0  0  0
  181.8714   31.0644  524.1378 C   0  0  0  0  0  0  0  0  0  0  0  0
  181.0109   28.7582  524.4546 C   0  0  0  0  0  0  0  0  0  0  0  0
  181.2816   30.0782  525.0590 N   0  0  0  0  0  0  0  0  0  0  0  0
  183.5856   29.2567  525.5045 C   0  0  0  0  0  0  0  0  0  0  0  0
  181.5514   28.4313  526.7753 C   0  0  0  0  0  0  0  0  0  0  0  0
  180.0930   28.3043  526.8631 O   0  0  0  0  0  0  0  0  0  0  0  0
  182.2211   28.2215  523.6645 C   0  0  0  0  0  0  0  0  0  0  0  0
  184.7200   26.5404  525.8979 C   0  0  0  0  0  0  0  0  0  0  0  0
  185.2512   27.2625  526.7406 O   0  0  0  0  0  0  0  0  0  0  0  0
  185.3457   25.2040  525.4792 C   0  0  0  0  0  0  0  0  0  0  0  0
  185.6675   25.2345  524.1232 C   0  0  0  0  0  0  0  0  0  0  0  0
  185.6175   24.0604  523.3822 C   0  0  0  0  0  0  0  0  0  0  0  0
  185.9323   24.0767  522.0293 C   0  0  0  0  0  0  0  0  0  0  0  0
  186.2965   25.2690  521.4147 C   0  0  0  0  0  0  0  0  0  0  0  0
  186.3464   26.4455  522.1553 C   0  0  0  0  0  0  0  0  0  0  0  0
  186.0302   26.4282  523.5096 C   0  0  0  0  0  0  0  0  0  0  0  0
  186.5876   24.9137  526.3251 C   0  0  0  0  0  0  0  0  0  0  0  0
  186.2221   24.9176  527.7102 O   0  0  0  0  0  0  0  0  0  0  0  0
  185.8589   25.7856  527.9462 H   0  0  0  0  0  0  0  0  0  0  0  0
 19 18  2  0  0  0
 19 20  1  0  0  0
 18 17  1  0  0  0
 11 10  1  0  0  0
 11  4  1  0  0  0
 20 21  2  0  0  0
 17 16  2  0  0  0
 10  4  1  0  0  0
 10  3  1  0  0  0
  4  7  1  0  0  0
  5  8  1  0  0  0
 21 16  1  0  0  0
 16 15  1  0  0  0
  3  8  1  0  0  0
  3  9  1  0  0  0
  8  7  1  0  0  0
  8  6  1  0  0  0
  7 12  1  0  0  0
 15 22  1  0  0  0
 15 13  1  0  0  0
  1  2  1  0  0  0
  1 13  1  0  0  0
  9  2  1  0  0  0
 12  2  1  0  0  0
 22 23  1  0  0  0
 13 14  2  0  0  0
 23 24  1  0  0  0
M  CHG 1   8   1
M  END
> <minimizedAffinity>
-7.69766

$$$$
