5ALB_TIQ_L_1210


 40 44  0  0  0  0  0  0  0  0999 V2000
    5.3714    5.9976    0.2263 C   0  0  0  0  0  0  0  0  0  0  0  0
    6.6437    6.4076    0.2087 N   0  0  0  0  0  0  0  0  0  0  0  0
    7.5804    5.6758   -0.4172 C   0  0  0  0  0  0  0  0  0  0  0  0
    7.1701    4.5026   -1.0239 C   0  0  0  0  0  0  0  0  0  0  0  0
    7.8281    3.5399   -1.7428 N   0  0  0  0  0  0  0  0  0  0  0  0
    6.9506    2.6137   -2.1014 N   0  0  0  0  0  0  0  0  0  0  0  0
    5.7510    2.9967   -1.6282 N   0  0  0  0  0  0  0  0  0  0  0  0
    5.8455    4.1761   -0.9370 C   0  0  0  0  0  0  0  0  0  0  0  0
    4.8908    4.8814   -0.3259 N   0  0  0  0  0  0  0  0  0  0  0  0
    4.6381    2.0705   -1.6644 C   0  0  0  0  0  0  0  0  0  0  0  0
    3.3459    2.6260   -2.2223 C   0  0  0  0  0  0  0  0  0  0  0  0
    2.2501    1.8467   -1.5157 C   0  0  0  0  0  0  0  0  0  0  0  0
    2.9082    0.9973   -0.4539 C   0  0  0  0  0  0  0  0  0  0  0  0
    3.0012   -0.3487   -0.9398 O   0  0  0  0  0  0  0  0  0  0  0  0
    4.2869    1.5774   -0.2686 C   0  0  0  0  0  0  0  0  0  0  0  0
    5.1804    0.5959    0.2837 O   0  0  0  0  0  0  0  0  0  0  0  0
    3.4936   -0.3574   -1.7755 H   0  0  0  0  0  0  0  0  0  0  0  0
    5.1954   -0.1865   -0.2894 H   0  0  0  0  0  0  0  0  0  0  0  0
    1.2666    2.6601   -0.8555 O   0  0  0  0  0  0  0  0  0  0  0  0
   -0.0338    2.0492   -0.9242 C   0  0  0  0  0  0  0  0  0  0  0  0
   -0.5291    1.8353   -2.3433 C   0  0  0  0  0  0  0  0  0  0  0  0
   -0.5862    3.0880   -2.9952 O   0  0  0  0  0  0  0  0  0  0  0  0
   -1.1902    3.6754   -2.5145 H   0  0  0  0  0  0  0  0  0  0  0  0
    8.9221    6.0429   -0.4980 N   0  0  0  0  0  0  0  0  0  0  0  0
    9.4758    5.7831   -1.2695 H   0  0  0  0  0  0  0  0  0  0  0  0
    9.4797    6.8290    0.6051 C   0  0  0  0  0  0  0  0  0  0  0  0
   10.0336    8.1873    0.2827 C   0  0  0  0  0  0  0  0  0  0  0  0
   10.9500    7.0900    0.7149 C   0  0  0  0  0  0  0  0  0  0  0  0
   11.6400    7.2760    2.0146 C   0  0  0  0  0  0  0  0  0  0  0  0
   12.9499    6.8404    2.1173 C   0  0  0  0  0  0  0  0  0  0  0  0
   13.6771    6.9731    3.2837 C   0  0  0  0  0  0  0  0  0  0  0  0
   13.0768    7.5524    4.3789 C   0  0  0  0  0  0  0  0  0  0  0  0
   13.7497    7.6812    5.5307 F   0  0  0  0  0  0  0  0  0  0  0  0
   11.7826    8.0085    4.2929 C   0  0  0  0  0  0  0  0  0  0  0  0
   11.2204    8.5784    5.3629 F   0  0  0  0  0  0  0  0  0  0  0  0
   11.0690    7.8818    3.1240 C   0  0  0  0  0  0  0  0  0  0  0  0
    4.2265    7.0317    1.0860 S   0  0  0  0  0  0  0  0  0  0  0  0
    2.6068    6.2883    0.7484 C   0  0  0  0  0  0  0  0  0  0  0  0
    2.5356    4.1544    2.0593 C   0  0  0  0  0  0  0  0  0  0  0  0
    2.0848    5.5959    1.9931 C   0  0  0  0  0  0  0  0  0  0  0  0
 39 40  1  0  0  0
 40 38  1  0  0  0
 38 37  1  0  0  0
 37  1  1  0  0  0
  1  2  1  0  0  0
  1  9  2  0  0  0
  2  3  2  0  0  0
  3 24  1  0  0  0
  3  4  1  0  0  0
 24 26  1  0  0  0
 26 27  1  0  0  0
 26 28  1  0  0  0
 27 28  1  0  0  0
 28 29  1  0  0  0
 29 30  1  0  0  0
 29 36  2  0  0  0
 30 31  2  0  0  0
 31 32  1  0  0  0
 32 33  1  0  0  0
 32 34  2  0  0  0
 34 35  1  0  0  0
 34 36  1  0  0  0
  4  5  1  0  0  0
  4  8  2  0  0  0
  5  6  2  0  0  0
  6  7  1  0  0  0
  7 10  1  0  0  0
  7  8  1  0  0  0
 10 11  1  0  0  0
 10 15  1  0  0  0
 11 12  1  0  0  0
 12 19  1  0  0  0
 12 13  1  0  0  0
 19 20  1  0  0  0
 20 21  1  0  0  0
 21 22  1  0  0  0
 13 14  1  0  0  0
 13 15  1  0  0  0
 15 16  1  0  0  0
  8  9  1  0  0  0
 24 25  1  0  0  0
 22 23  1  0  0  0
 14 17  1  0  0  0
 16 18  1  0  0  0
M  END
> <minimizedAffinity>
-11.78557

$$$$
5ALB_TIQ_L_1210


 40 44  0  0  0  0  0  0  0  0999 V2000
    4.8284    5.9420    0.2598 C   0  0  0  0  0  0  0  0  0  0  0  0
    6.0736    6.3897    0.0696 N   0  0  0  0  0  0  0  0  0  0  0  0
    7.0062    5.5847   -0.4661 C   0  0  0  0  0  0  0  0  0  0  0  0
    6.6209    4.2987   -0.7983 C   0  0  0  0  0  0  0  0  0  0  0  0
    7.2820    3.2380   -1.3593 N   0  0  0  0  0  0  0  0  0  0  0  0
    6.4338    2.2251   -1.4637 N   0  0  0  0  0  0  0  0  0  0  0  0
    5.2479    2.6478   -0.9896 N   0  0  0  0  0  0  0  0  0  0  0  0
    5.3235    3.9445   -0.5530 C   0  0  0  0  0  0  0  0  0  0  0  0
    4.3735    4.7199   -0.0253 N   0  0  0  0  0  0  0  0  0  0  0  0
    4.1854    1.6902   -0.7617 C   0  0  0  0  0  0  0  0  0  0  0  0
    4.6167    0.2413   -0.6976 C   0  0  0  0  0  0  0  0  0  0  0  0
    3.4155   -0.5446   -1.1941 C   0  0  0  0  0  0  0  0  0  0  0  0
    2.3958    0.4511   -1.6950 C   0  0  0  0  0  0  0  0  0  0  0  0
    1.3794    0.6047   -0.6952 O   0  0  0  0  0  0  0  0  0  0  0  0
    3.1474    1.7453   -1.8726 C   0  0  0  0  0  0  0  0  0  0  0  0
    2.2475    2.8655   -1.8234 O   0  0  0  0  0  0  0  0  0  0  0  0
    1.7868    0.8836    0.1398 H   0  0  0  0  0  0  0  0  0  0  0  0
    1.7560    2.8488   -0.9874 H   0  0  0  0  0  0  0  0  0  0  0  0
    3.6949   -1.4443   -2.2791 O   0  0  0  0  0  0  0  0  0  0  0  0
    3.2447   -2.7751   -1.9706 C   0  0  0  0  0  0  0  0  0  0  0  0
    3.2029   -3.0713   -0.4822 C   0  0  0  0  0  0  0  0  0  0  0  0
    4.3536   -3.8161   -0.1376 O   0  0  0  0  0  0  0  0  0  0  0  0
    4.3666   -4.6436   -0.6435 H   0  0  0  0  0  0  0  0  0  0  0  0
    8.3188    5.9805   -0.7148 N   0  0  0  0  0  0  0  0  0  0  0  0
    8.7694    5.7493   -1.5590 H   0  0  0  0  0  0  0  0  0  0  0  0
    9.0047    6.7526    0.3240 C   0  0  0  0  0  0  0  0  0  0  0  0
    9.6294    8.0585   -0.0763 C   0  0  0  0  0  0  0  0  0  0  0  0
   10.4937    6.9094    0.3276 C   0  0  0  0  0  0  0  0  0  0  0  0
   11.2826    7.0788    1.5723 C   0  0  0  0  0  0  0  0  0  0  0  0
   12.5740    6.5807    1.5899 C   0  0  0  0  0  0  0  0  0  0  0  0
   13.3879    6.6932    2.6997 C   0  0  0  0  0  0  0  0  0  0  0  0
   12.8956    7.3161    3.8245 C   0  0  0  0  0  0  0  0  0  0  0  0
   13.6541    7.4273    4.9237 F   0  0  0  0  0  0  0  0  0  0  0  0
   11.6220    7.8342    3.8221 C   0  0  0  0  0  0  0  0  0  0  0  0
   11.1654    8.4455    4.9191 F   0  0  0  0  0  0  0  0  0  0  0  0
   10.8218    7.7270    2.7085 C   0  0  0  0  0  0  0  0  0  0  0  0
    3.6872    7.0817    0.9797 S   0  0  0  0  0  0  0  0  0  0  0  0
    2.8426    6.1214    2.2659 C   0  0  0  0  0  0  0  0  0  0  0  0
    1.4558    4.0528    1.9920 C   0  0  0  0  0  0  0  0  0  0  0  0
    1.5563    5.5356    1.7148 C   0  0  0  0  0  0  0  0  0  0  0  0
 39 40  1  0  0  0
 40 38  1  0  0  0
 38 37  1  0  0  0
 37  1  1  0  0  0
  1  2  1  0  0  0
  1  9  2  0  0  0
  2  3  2  0  0  0
  3 24  1  0  0  0
  3  4  1  0  0  0
 24 26  1  0  0  0
 26 27  1  0  0  0
 26 28  1  0  0  0
 27 28  1  0  0  0
 28 29  1  0  0  0
 29 30  1  0  0  0
 29 36  2  0  0  0
 30 31  2  0  0  0
 31 32  1  0  0  0
 32 33  1  0  0  0
 32 34  2  0  0  0
 34 35  1  0  0  0
 34 36  1  0  0  0
  4  5  1  0  0  0
  4  8  2  0  0  0
  5  6  2  0  0  0
  6  7  1  0  0  0
  7 10  1  0  0  0
  7  8  1  0  0  0
 10 11  1  0  0  0
 10 15  1  0  0  0
 11 12  1  0  0  0
 12 19  1  0  0  0
 12 13  1  0  0  0
 19 20  1  0  0  0
 20 21  1  0  0  0
 21 22  1  0  0  0
 13 14  1  0  0  0
 13 15  1  0  0  0
 15 16  1  0  0  0
  8  9  1  0  0  0
 24 25  1  0  0  0
 22 23  1  0  0  0
 14 17  1  0  0  0
 16 18  1  0  0  0
M  END
> <minimizedAffinity>
-10.00563

$$$$
5ALB_TIQ_L_1210


 40 44  0  0  0  0  0  0  0  0999 V2000
   11.2045    3.2598   -1.5306 C   0  0  0  0  0  0  0  0  0  0  0  0
   10.0137    2.8815   -2.0061 N   0  0  0  0  0  0  0  0  0  0  0  0
    8.9287    3.6449   -1.7947 C   0  0  0  0  0  0  0  0  0  0  0  0
    9.1033    4.8119   -1.0733 C   0  0  0  0  0  0  0  0  0  0  0  0
    8.2497    5.8116   -0.6879 N   0  0  0  0  0  0  0  0  0  0  0  0
    8.9421    6.7118   -0.0048 N   0  0  0  0  0  0  0  0  0  0  0  0
   10.2200    6.2926    0.0255 N   0  0  0  0  0  0  0  0  0  0  0  0
   10.3640    5.0969   -0.6281 C   0  0  0  0  0  0  0  0  0  0  0  0
   11.4615    4.3621   -0.8230 N   0  0  0  0  0  0  0  0  0  0  0  0
   11.1697    6.9528    0.8974 C   0  0  0  0  0  0  0  0  0  0  0  0
   11.3724    6.3048    2.2496 C   0  0  0  0  0  0  0  0  0  0  0  0
   11.7423    7.4489    3.1778 C   0  0  0  0  0  0  0  0  0  0  0  0
   11.5760    8.7352    2.4031 C   0  0  0  0  0  0  0  0  0  0  0  0
   12.8713    9.1849    1.9830 O   0  0  0  0  0  0  0  0  0  0  0  0
   10.7370    8.3790    1.2028 C   0  0  0  0  0  0  0  0  0  0  0  0
   10.9405    9.3278    0.1420 O   0  0  0  0  0  0  0  0  0  0  0  0
   13.2995    8.4913    1.4572 H   0  0  0  0  0  0  0  0  0  0  0  0
   11.8840    9.3674   -0.0798 H   0  0  0  0  0  0  0  0  0  0  0  0
   10.9230    7.5557    4.3534 O   0  0  0  0  0  0  0  0  0  0  0  0
   11.7288    7.8012    5.5193 C   0  0  0  0  0  0  0  0  0  0  0  0
   13.2093    7.5486    5.2974 C   0  0  0  0  0  0  0  0  0  0  0  0
   13.6971    6.7583    6.3628 O   0  0  0  0  0  0  0  0  0  0  0  0
   13.5591    7.2256    7.2015 H   0  0  0  0  0  0  0  0  0  0  0  0
    7.6579    3.3318   -2.2728 N   0  0  0  0  0  0  0  0  0  0  0  0
    7.4980    3.1785   -3.2321 H   0  0  0  0  0  0  0  0  0  0  0  0
    6.5684    3.2389   -1.2981 C   0  0  0  0  0  0  0  0  0  0  0  0
    5.3661    2.4204   -1.6727 C   0  0  0  0  0  0  0  0  0  0  0  0
    5.2475    3.9029   -1.5354 C   0  0  0  0  0  0  0  0  0  0  0  0
    4.3867    4.3999   -0.4344 C   0  0  0  0  0  0  0  0  0  0  0  0
    3.3787    3.5680    0.0216 C   0  0  0  0  0  0  0  0  0  0  0  0
    2.5287    3.9392    1.0446 C   0  0  0  0  0  0  0  0  0  0  0  0
    2.6873    5.1780    1.6240 C   0  0  0  0  0  0  0  0  0  0  0  0
    1.8687    5.5751    2.6079 F   0  0  0  0  0  0  0  0  0  0  0  0
    3.6938    6.0125    1.1985 C   0  0  0  0  0  0  0  0  0  0  0  0
    3.8397    7.2065    1.7806 F   0  0  0  0  0  0  0  0  0  0  0  0
    4.5427    5.6304    0.1861 C   0  0  0  0  0  0  0  0  0  0  0  0
   12.5598    2.1758   -1.8588 S   0  0  0  0  0  0  0  0  0  0  0  0
   12.2828    0.7621   -0.7567 C   0  0  0  0  0  0  0  0  0  0  0  0
   13.4956   -1.1136   -1.8915 C   0  0  0  0  0  0  0  0  0  0  0  0
   12.1468   -0.5107   -1.5707 C   0  0  0  0  0  0  0  0  0  0  0  0
 39 40  1  0  0  0
 40 38  1  0  0  0
 38 37  1  0  0  0
 37  1  1  0  0  0
  1  2  1  0  0  0
  1  9  2  0  0  0
  2  3  2  0  0  0
  3 24  1  0  0  0
  3  4  1  0  0  0
 24 26  1  0  0  0
 26 27  1  0  0  0
 26 28  1  0  0  0
 27 28  1  0  0  0
 28 29  1  0  0  0
 29 30  1  0  0  0
 29 36  2  0  0  0
 30 31  2  0  0  0
 31 32  1  0  0  0
 32 33  1  0  0  0
 32 34  2  0  0  0
 34 35  1  0  0  0
 34 36  1  0  0  0
  4  5  1  0  0  0
  4  8  2  0  0  0
  5  6  2  0  0  0
  6  7  1  0  0  0
  7 10  1  0  0  0
  7  8  1  0  0  0
 10 11  1  0  0  0
 10 15  1  0  0  0
 11 12  1  0  0  0
 12 19  1  0  0  0
 12 13  1  0  0  0
 19 20  1  0  0  0
 20 21  1  0  0  0
 21 22  1  0  0  0
 13 14  1  0  0  0
 13 15  1  0  0  0
 15 16  1  0  0  0
  8  9  1  0  0  0
 24 25  1  0  0  0
 22 23  1  0  0  0
 14 17  1  0  0  0
 16 18  1  0  0  0
M  END
> <minimizedAffinity>
-9.19745

$$$$
5ALB_TIQ_L_1210


 40 44  0  0  0  0  0  0  0  0999 V2000
    9.5249    3.1049   -1.6870 C   0  0  0  0  0  0  0  0  0  0  0  0
   10.2873    4.1625   -1.3913 N   0  0  0  0  0  0  0  0  0  0  0  0
    9.7271    5.2863   -0.9138 C   0  0  0  0  0  0  0  0  0  0  0  0
    8.3536    5.2929   -0.7522 C   0  0  0  0  0  0  0  0  0  0  0  0
    7.4689    6.2320   -0.2915 N   0  0  0  0  0  0  0  0  0  0  0  0
    6.2487    5.7175   -0.3440 N   0  0  0  0  0  0  0  0  0  0  0  0
    6.3649    4.4633   -0.8164 N   0  0  0  0  0  0  0  0  0  0  0  0
    7.6717    4.1583   -1.0938 C   0  0  0  0  0  0  0  0  0  0  0  0
    8.1977    3.0265   -1.5676 N   0  0  0  0  0  0  0  0  0  0  0  0
    5.1766    3.7302   -1.2014 C   0  0  0  0  0  0  0  0  0  0  0  0
    3.8685    4.4695   -1.0231 C   0  0  0  0  0  0  0  0  0  0  0  0
    2.8406    3.3833   -0.7577 C   0  0  0  0  0  0  0  0  0  0  0  0
    3.5859    2.0773   -0.6125 C   0  0  0  0  0  0  0  0  0  0  0  0
    3.4596    1.3418   -1.8371 O   0  0  0  0  0  0  0  0  0  0  0  0
    5.0262    2.4568   -0.3825 C   0  0  0  0  0  0  0  0  0  0  0  0
    5.9006    1.3770   -0.7518 O   0  0  0  0  0  0  0  0  0  0  0  0
    3.7960    1.8778   -2.5723 H   0  0  0  0  0  0  0  0  0  0  0  0
    5.7384    1.1312   -1.6760 H   0  0  0  0  0  0  0  0  0  0  0  0
    2.0719    3.5659    0.4425 O   0  0  0  0  0  0  0  0  0  0  0  0
    2.7675    4.4141    1.3729 C   0  0  0  0  0  0  0  0  0  0  0  0
    1.9412    5.5939    1.8526 C   0  0  0  0  0  0  0  0  0  0  0  0
    1.5623    6.3657    0.7309 O   0  0  0  0  0  0  0  0  0  0  0  0
    2.3567    6.6783    0.2703 H   0  0  0  0  0  0  0  0  0  0  0  0
   10.4524    6.4232   -0.5633 N   0  0  0  0  0  0  0  0  0  0  0  0
   10.8894    6.9799   -1.2476 H   0  0  0  0  0  0  0  0  0  0  0  0
   10.5418    6.7610    0.8593 C   0  0  0  0  0  0  0  0  0  0  0  0
   10.1517    8.1516    1.2713 C   0  0  0  0  0  0  0  0  0  0  0  0
   11.5759    7.7138    1.3738 C   0  0  0  0  0  0  0  0  0  0  0  0
   12.1450    7.6237    2.7406 C   0  0  0  0  0  0  0  0  0  0  0  0
   13.5233    7.6375    2.8673 C   0  0  0  0  0  0  0  0  0  0  0  0
   14.1471    7.5624    4.0970 C   0  0  0  0  0  0  0  0  0  0  0  0
   13.3719    7.4656    5.2306 C   0  0  0  0  0  0  0  0  0  0  0  0
   13.9464    7.3747    6.4379 F   0  0  0  0  0  0  0  0  0  0  0  0
   12.0007    7.4686    5.1286 C   0  0  0  0  0  0  0  0  0  0  0  0
   11.2646    7.3856    6.2407 F   0  0  0  0  0  0  0  0  0  0  0  0
   11.3876    7.5544    3.9004 C   0  0  0  0  0  0  0  0  0  0  0  0
   10.3650    1.6847   -2.3169 S   0  0  0  0  0  0  0  0  0  0  0  0
   11.1832    0.9654   -0.8667 C   0  0  0  0  0  0  0  0  0  0  0  0
   13.2921    2.2965   -0.6260 C   0  0  0  0  0  0  0  0  0  0  0  0
   12.6877    0.9804   -1.0599 C   0  0  0  0  0  0  0  0  0  0  0  0
 39 40  1  0  0  0
 40 38  1  0  0  0
 38 37  1  0  0  0
 37  1  1  0  0  0
  1  2  1  0  0  0
  1  9  2  0  0  0
  2  3  2  0  0  0
  3 24  1  0  0  0
  3  4  1  0  0  0
 24 26  1  0  0  0
 26 27  1  0  0  0
 26 28  1  0  0  0
 27 28  1  0  0  0
 28 29  1  0  0  0
 29 30  1  0  0  0
 29 36  2  0  0  0
 30 31  2  0  0  0
 31 32  1  0  0  0
 32 33  1  0  0  0
 32 34  2  0  0  0
 34 35  1  0  0  0
 34 36  1  0  0  0
  4  5  1  0  0  0
  4  8  2  0  0  0
  5  6  2  0  0  0
  6  7  1  0  0  0
  7 10  1  0  0  0
  7  8  1  0  0  0
 10 11  1  0  0  0
 10 15  1  0  0  0
 11 12  1  0  0  0
 12 19  1  0  0  0
 12 13  1  0  0  0
 19 20  1  0  0  0
 20 21  1  0  0  0
 21 22  1  0  0  0
 13 14  1  0  0  0
 13 15  1  0  0  0
 15 16  1  0  0  0
  8  9  1  0  0  0
 24 25  1  0  0  0
 22 23  1  0  0  0
 14 17  1  0  0  0
 16 18  1  0  0  0
M  END
> <minimizedAffinity>
-9.06337

$$$$
