2XEI_ARK_A_1770


 54 55  0  0  0  0  0  0  0  0999 V2000
   23.0938   46.7150   44.4444 N   0  0  0  0  0  0  0  0  0  0  0  0
   22.5283   47.7569   43.8097 C   0  0  0  0  0  0  0  0  0  0  0  0
   23.4425   47.0269   45.6000 N   0  0  0  0  0  0  0  0  0  0  0  0
   23.1614   48.2138   45.8284 N   0  0  0  0  0  0  0  0  0  0  0  0
   22.5769   48.7162   44.7260 C   0  0  0  0  0  0  0  0  0  0  0  0
   22.0987   50.0239   44.5427 C   0  0  0  0  0  0  0  0  0  0  0  0
   22.9212   51.1330   44.9750 O   0  0  0  0  0  0  0  0  0  0  0  0
   23.8293   51.5211   43.9174 C   0  0  0  0  0  0  0  0  0  0  0  0
   25.1693   50.7329   43.9549 C   0  0  0  0  0  0  0  0  0  0  0  0
   25.7728   50.7008   42.6362 O   0  0  0  0  0  0  0  0  0  0  0  0
   25.2402   49.5921   41.8748 C   0  0  0  0  0  0  0  0  0  0  0  0
   25.7642   48.2148   42.3140 C   0  0  0  0  0  0  0  0  0  0  0  0
   26.3097   47.5154   41.1379 N   0  0  0  0  0  0  0  0  0  0  0  0
   27.2816   47.5633   40.9882 H   0  0  0  0  0  0  0  0  0  0  0  0
   25.5767   46.8165   40.2544 C   0  0  0  0  0  0  0  0  0  0  0  0
   25.0481   45.5641   40.5722 C   0  0  0  0  0  0  0  0  0  0  0  0
   24.3112   44.8742   39.6224 C   0  0  0  0  0  0  0  0  0  0  0  0
   24.1116   45.4129   38.3496 C   0  0  0  0  0  0  0  0  0  0  0  0
   24.6513   46.6428   38.0341 C   0  0  0  0  0  0  0  0  0  0  0  0
   25.3831   47.3434   38.9726 C   0  0  0  0  0  0  0  0  0  0  0  0
   25.8551   48.5345   38.6149 N   0  0  0  0  0  0  0  0  0  0  0  0
   24.9484   49.5757   38.2866 O   0  0  0  0  0  0  0  0  0  0  0  0
   27.2514   48.8034   38.6677 O   0  0  0  0  0  0  0  0  0  0  0  0
   24.0283   49.4018   38.2510 H   0  0  0  0  0  0  0  0  0  0  0  0
   23.3966   44.8020   37.3967 N   0  0  0  0  0  0  0  0  0  0  0  0
   24.0652   44.1792   36.3112 O   0  0  0  0  0  0  0  0  0  0  0  0
   21.9629   44.8541   37.3451 O   0  0  0  0  0  0  0  0  0  0  0  0
   25.0005   44.1245   36.3064 H   0  0  0  0  0  0  0  0  0  0  0  0
   23.2821   45.3812   43.8150 C   0  0  0  0  0  0  0  0  0  0  0  0
   23.0344   44.3351   44.8947 C   0  0  0  0  0  0  0  0  0  0  0  0
   21.6689   43.6819   44.7649 C   0  0  0  0  0  0  0  0  0  0  0  0
   20.7973   44.5127   43.8183 C   0  0  0  0  0  0  0  0  0  0  0  0
   19.4312   44.8792   44.5013 C   0  0  0  0  0  0  0  0  0  0  0  0
   16.8621   45.0112   41.9345 N   0  0  0  0  0  0  0  0  0  0  0  0
   17.5235   44.5162   42.9842 C   0  0  0  0  0  0  0  0  0  0  0  0
   17.1043   43.4992   43.5644 O   0  0  0  0  0  0  0  0  0  0  0  0
   18.5967   45.2108   43.3622 N   0  0  0  0  0  0  0  0  0  0  0  0
   17.0526   45.9291   41.6339 H   0  0  0  0  0  0  0  0  0  0  0  0
   18.8396   46.0036   42.8315 H   0  0  0  0  0  0  0  0  0  0  0  0
   15.8554   44.2132   41.2185 C   0  0  0  0  0  0  0  0  0  0  0  0
   16.4123   44.0802   39.7581 C   0  0  0  0  0  0  0  0  0  0  0  0
   17.6246   44.4226   39.5498 O   0  0  0  0  0  0  0  0  0  0  0  0
   15.6400   43.6512   38.8465 O   0  0  0  0  0  0  0  0  0  0  0  0
   18.1522   44.7332   40.2591 H   0  0  0  0  0  0  0  0  0  0  0  0
   14.4750   44.9728   41.1055 C   0  0  0  0  0  0  0  0  0  0  0  0
   14.6494   46.5234   41.0680 C   0  0  0  0  0  0  0  0  0  0  0  0
   13.4255   46.8490   38.9647 O   0  0  0  0  0  0  0  0  0  0  0  0
   14.2594   47.3487   39.7761 C   0  0  0  0  0  0  0  0  0  0  0  0
   14.7977   48.4666   39.6297 O   0  0  0  0  0  0  0  0  0  0  0  0
   13.0572   46.0039   39.1325 H   0  0  0  0  0  0  0  0  0  0  0  0
   19.6251   46.1407   45.3400 C   0  0  0  0  0  0  0  0  0  0  0  0
   19.1654   47.2107   44.8582 O   0  0  0  0  0  0  0  0  0  0  0  0
   20.2936   45.9962   46.4136 O   0  0  0  0  0  0  0  0  0  0  0  0
   18.6846   47.1940   44.0542 H   0  0  0  0  0  0  0  0  0  0  0  0
 47 48  1  0  0  0
 48 49  2  0  0  0
 48 46  1  0  0  0
 46 45  1  0  0  0
 45 40  1  0  0  0
 40 41  1  0  0  0
 40 34  1  0  0  0
 41 42  1  0  0  0
 41 43  2  0  0  0
 34 35  1  0  0  0
 35 36  2  0  0  0
 35 37  1  0  0  0
 37 33  1  0  0  0
 33 51  1  0  0  0
 33 32  1  0  0  0
 51 52  1  0  0  0
 51 53  2  0  0  0
 32 31  1  0  0  0
 31 30  1  0  0  0
 30 29  1  0  0  0
 29  1  1  0  0  0
  1  2  1  0  0  0
  1  3  1  0  0  0
  2  5  2  0  0  0
  3  4  2  0  0  0
  4  5  1  0  0  0
  5  6  1  0  0  0
  6  7  1  0  0  0
  7  8  1  0  0  0
  8  9  1  0  0  0
  9 10  1  0  0  0
 10 11  1  0  0  0
 11 12  1  0  0  0
 12 13  1  0  0  0
 13 15  1  0  0  0
 15 16  1  0  0  0
 15 20  2  0  0  0
 16 17  2  0  0  0
 17 18  1  0  0  0
 18 25  1  0  0  0
 18 19  2  0  0  0
 25 26  1  0  0  0
 25 27  2  0  0  0
 19 20  1  0  0  0
 20 21  1  0  0  0
 21 22  1  0  0  0
 21 23  2  0  0  0
 47 50  1  0  0  0
 42 44  1  0  0  0
 34 38  1  0  0  0
 37 39  1  0  0  0
 52 54  1  0  0  0
 13 14  1  0  0  0
 26 28  1  0  0  0
 22 24  1  0  0  0
M  CHG 1  21   1
M  CHG 1  25   1
M  END
> <minimizedAffinity>
-10.67188

$$$$
2XEI_ARK_A_1770


 54 55  0  0  0  0  0  0  0  0999 V2000
   24.6900   44.5191   40.5029 N   0  0  0  0  0  0  0  0  0  0  0  0
   24.0012   45.3154   39.6665 C   0  0  0  0  0  0  0  0  0  0  0  0
   25.7071   44.0571   39.9495 N   0  0  0  0  0  0  0  0  0  0  0  0
   25.7880   44.4721   38.7829 N   0  0  0  0  0  0  0  0  0  0  0  0
   24.7327   45.2758   38.5595 C   0  0  0  0  0  0  0  0  0  0  0  0
   24.4266   45.9605   37.3722 C   0  0  0  0  0  0  0  0  0  0  0  0
   24.7320   47.3721   37.2838 O   0  0  0  0  0  0  0  0  0  0  0  0
   25.8301   47.7001   38.1674 C   0  0  0  0  0  0  0  0  0  0  0  0
   25.4108   48.6567   39.3195 C   0  0  0  0  0  0  0  0  0  0  0  0
   26.4252   49.6729   39.5258 O   0  0  0  0  0  0  0  0  0  0  0  0
   25.8599   50.8001   40.2346 C   0  0  0  0  0  0  0  0  0  0  0  0
   26.7293   51.3185   41.3921 C   0  0  0  0  0  0  0  0  0  0  0  0
   26.5834   50.4090   42.5418 N   0  0  0  0  0  0  0  0  0  0  0  0
   27.3967   49.9740   42.8861 H   0  0  0  0  0  0  0  0  0  0  0  0
   25.4203   50.1301   43.1548 C   0  0  0  0  0  0  0  0  0  0  0  0
   24.3930   51.0719   43.2359 C   0  0  0  0  0  0  0  0  0  0  0  0
   23.2170   50.7433   43.8918 C   0  0  0  0  0  0  0  0  0  0  0  0
   23.0617   49.4889   44.4856 C   0  0  0  0  0  0  0  0  0  0  0  0
   24.0868   48.5679   44.4186 C   0  0  0  0  0  0  0  0  0  0  0  0
   25.2618   48.8803   43.7637 C   0  0  0  0  0  0  0  0  0  0  0  0
   26.2015   47.9403   43.7123 N   0  0  0  0  0  0  0  0  0  0  0  0
   26.5147   47.2004   44.8822 O   0  0  0  0  0  0  0  0  0  0  0  0
   26.8119   47.5964   42.4738 O   0  0  0  0  0  0  0  0  0  0  0  0
   26.1144   47.4243   45.6993 H   0  0  0  0  0  0  0  0  0  0  0  0
   21.9449   49.1084   45.1182 N   0  0  0  0  0  0  0  0  0  0  0  0
   22.0374   48.2619   46.2531 O   0  0  0  0  0  0  0  0  0  0  0  0
   20.6303   49.4103   44.6268 O   0  0  0  0  0  0  0  0  0  0  0  0
   22.8770   48.0404   46.6052 H   0  0  0  0  0  0  0  0  0  0  0  0
   24.2576   44.2311   41.8960 C   0  0  0  0  0  0  0  0  0  0  0  0
   23.4031   45.4064   42.3540 C   0  0  0  0  0  0  0  0  0  0  0  0
   22.3446   44.9937   43.3627 C   0  0  0  0  0  0  0  0  0  0  0  0
   21.0930   45.8544   43.1652 C   0  0  0  0  0  0  0  0  0  0  0  0
   19.8913   45.2849   44.0008 C   0  0  0  0  0  0  0  0  0  0  0  0
   16.8724   45.1219   41.9844 N   0  0  0  0  0  0  0  0  0  0  0  0
   17.8710   44.6544   42.7384 C   0  0  0  0  0  0  0  0  0  0  0  0
   17.9057   43.4522   43.0547 O   0  0  0  0  0  0  0  0  0  0  0  0
   18.7577   45.5650   43.1403 N   0  0  0  0  0  0  0  0  0  0  0  0
   16.7178   46.0931   41.9374 H   0  0  0  0  0  0  0  0  0  0  0  0
   18.6347   46.4918   42.8317 H   0  0  0  0  0  0  0  0  0  0  0  0
   15.9992   44.2160   41.2232 C   0  0  0  0  0  0  0  0  0  0  0  0
   16.4830   44.3463   39.7367 C   0  0  0  0  0  0  0  0  0  0  0  0
   15.6912   43.9517   38.8161 O   0  0  0  0  0  0  0  0  0  0  0  0
   17.6368   44.8247   39.5095 O   0  0  0  0  0  0  0  0  0  0  0  0
   14.8492   43.6060   39.0387 H   0  0  0  0  0  0  0  0  0  0  0  0
   14.4932   44.6918   41.2488 C   0  0  0  0  0  0  0  0  0  0  0  0
   14.3597   46.2397   41.3986 C   0  0  0  0  0  0  0  0  0  0  0  0
   14.0511   46.6334   38.9950 O   0  0  0  0  0  0  0  0  0  0  0  0
   13.9927   47.1427   40.1529 C   0  0  0  0  0  0  0  0  0  0  0  0
   13.6535   48.3227   40.3843 O   0  0  0  0  0  0  0  0  0  0  0  0
   14.3135   45.7402   38.8887 H   0  0  0  0  0  0  0  0  0  0  0  0
   19.7446   46.1127   45.2758 C   0  0  0  0  0  0  0  0  0  0  0  0
   19.1104   47.1968   45.1708 O   0  0  0  0  0  0  0  0  0  0  0  0
   20.3380   45.6563   46.3054 O   0  0  0  0  0  0  0  0  0  0  0  0
   18.7118   47.4294   44.3553 H   0  0  0  0  0  0  0  0  0  0  0  0
 47 48  1  0  0  0
 48 49  2  0  0  0
 48 46  1  0  0  0
 46 45  1  0  0  0
 45 40  1  0  0  0
 40 41  1  0  0  0
 40 34  1  0  0  0
 41 42  1  0  0  0
 41 43  2  0  0  0
 34 35  1  0  0  0
 35 36  2  0  0  0
 35 37  1  0  0  0
 37 33  1  0  0  0
 33 51  1  0  0  0
 33 32  1  0  0  0
 51 52  1  0  0  0
 51 53  2  0  0  0
 32 31  1  0  0  0
 31 30  1  0  0  0
 30 29  1  0  0  0
 29  1  1  0  0  0
  1  2  1  0  0  0
  1  3  1  0  0  0
  2  5  2  0  0  0
  3  4  2  0  0  0
  4  5  1  0  0  0
  5  6  1  0  0  0
  6  7  1  0  0  0
  7  8  1  0  0  0
  8  9  1  0  0  0
  9 10  1  0  0  0
 10 11  1  0  0  0
 11 12  1  0  0  0
 12 13  1  0  0  0
 13 15  1  0  0  0
 15 16  1  0  0  0
 15 20  2  0  0  0
 16 17  2  0  0  0
 17 18  1  0  0  0
 18 25  1  0  0  0
 18 19  2  0  0  0
 25 26  1  0  0  0
 25 27  2  0  0  0
 19 20  1  0  0  0
 20 21  1  0  0  0
 21 22  1  0  0  0
 21 23  2  0  0  0
 47 50  1  0  0  0
 42 44  1  0  0  0
 34 38  1  0  0  0
 37 39  1  0  0  0
 52 54  1  0  0  0
 13 14  1  0  0  0
 26 28  1  0  0  0
 22 24  1  0  0  0
M  CHG 1  21   1
M  CHG 1  25   1
M  END
> <minimizedAffinity>
-10.63369

$$$$
2XEI_ARK_A_1770


 54 55  0  0  0  0  0  0  0  0999 V2000
   22.7369   48.6857   44.3767 N   0  0  0  0  0  0  0  0  0  0  0  0
   23.6343   49.5699   43.9065 C   0  0  0  0  0  0  0  0  0  0  0  0
   21.9216   49.2356   45.1429 N   0  0  0  0  0  0  0  0  0  0  0  0
   22.1767   50.4456   45.2457 N   0  0  0  0  0  0  0  0  0  0  0  0
   23.2499   50.7050   44.4774 C   0  0  0  0  0  0  0  0  0  0  0  0
   23.8813   51.9464   44.2965 C   0  0  0  0  0  0  0  0  0  0  0  0
   24.0811   52.8002   45.4474 O   0  0  0  0  0  0  0  0  0  0  0  0
   23.7843   54.1746   45.1051 C   0  0  0  0  0  0  0  0  0  0  0  0
   24.9126   54.8444   44.2706 C   0  0  0  0  0  0  0  0  0  0  0  0
   26.2109   54.5392   44.8410 O   0  0  0  0  0  0  0  0  0  0  0  0
   27.2259   55.3742   44.2367 C   0  0  0  0  0  0  0  0  0  0  0  0
   28.5803   55.3482   44.9642 C   0  0  0  0  0  0  0  0  0  0  0  0
   28.9527   53.9474   45.2279 N   0  0  0  0  0  0  0  0  0  0  0  0
   28.6490   53.2656   44.5859 H   0  0  0  0  0  0  0  0  0  0  0  0
   29.6769   53.5330   46.2814 C   0  0  0  0  0  0  0  0  0  0  0  0
   31.0629   53.6942   46.3241 C   0  0  0  0  0  0  0  0  0  0  0  0
   31.7689   53.2366   47.4256 C   0  0  0  0  0  0  0  0  0  0  0  0
   31.1079   52.6013   48.4790 C   0  0  0  0  0  0  0  0  0  0  0  0
   29.7403   52.4279   48.4241 C   0  0  0  0  0  0  0  0  0  0  0  0
   29.0238   52.8837   47.3350 C   0  0  0  0  0  0  0  0  0  0  0  0
   27.7053   52.7088   47.3540 N   0  0  0  0  0  0  0  0  0  0  0  0
   27.0590   52.1428   46.2243 O   0  0  0  0  0  0  0  0  0  0  0  0
   26.9580   52.9792   48.5343 O   0  0  0  0  0  0  0  0  0  0  0  0
   27.5484   51.9636   45.4456 H   0  0  0  0  0  0  0  0  0  0  0  0
   31.7325   52.1528   49.5749 N   0  0  0  0  0  0  0  0  0  0  0  0
   32.9463   52.7612   49.9868 O   0  0  0  0  0  0  0  0  0  0  0  0
   31.3018   50.9880   50.2949 O   0  0  0  0  0  0  0  0  0  0  0  0
   33.2625   53.5234   49.5431 H   0  0  0  0  0  0  0  0  0  0  0  0
   22.7535   47.2413   44.0245 C   0  0  0  0  0  0  0  0  0  0  0  0
   22.0560   47.0985   42.6775 C   0  0  0  0  0  0  0  0  0  0  0  0
   21.4732   45.7106   42.4720 C   0  0  0  0  0  0  0  0  0  0  0  0
   21.5752   44.9191   43.7794 C   0  0  0  0  0  0  0  0  0  0  0  0
   20.1504   44.4822   44.2753 C   0  0  0  0  0  0  0  0  0  0  0  0
   17.4617   44.9314   41.8723 N   0  0  0  0  0  0  0  0  0  0  0  0
   18.1106   44.3721   42.8972 C   0  0  0  0  0  0  0  0  0  0  0  0
   17.5828   43.4495   43.5427 O   0  0  0  0  0  0  0  0  0  0  0  0
   19.2999   44.9042   43.1787 N   0  0  0  0  0  0  0  0  0  0  0  0
   17.7681   45.7997   41.5238 H   0  0  0  0  0  0  0  0  0  0  0  0
   19.6234   45.6340   42.6026 H   0  0  0  0  0  0  0  0  0  0  0  0
   16.2990   44.2769   41.2536 C   0  0  0  0  0  0  0  0  0  0  0  0
   16.6027   44.2892   39.7146 C   0  0  0  0  0  0  0  0  0  0  0  0
   17.8051   44.5113   39.3468 O   0  0  0  0  0  0  0  0  0  0  0  0
   15.6480   44.0901   38.9019 O   0  0  0  0  0  0  0  0  0  0  0  0
   18.4730   44.6521   39.9887 H   0  0  0  0  0  0  0  0  0  0  0  0
   14.9756   45.1147   41.4570 C   0  0  0  0  0  0  0  0  0  0  0  0
   15.1369   46.6016   41.0105 C   0  0  0  0  0  0  0  0  0  0  0  0
   13.8691   46.7113   38.9108 O   0  0  0  0  0  0  0  0  0  0  0  0
   14.0921   47.2669   40.0266 C   0  0  0  0  0  0  0  0  0  0  0  0
   13.5316   48.3143   40.4136 O   0  0  0  0  0  0  0  0  0  0  0  0
   14.3237   45.9253   38.6797 H   0  0  0  0  0  0  0  0  0  0  0  0
   19.7876   45.3042   45.5103 C   0  0  0  0  0  0  0  0  0  0  0  0
   19.7927   44.6929   46.6124 O   0  0  0  0  0  0  0  0  0  0  0  0
   19.4492   46.5121   45.2934 O   0  0  0  0  0  0  0  0  0  0  0  0
   20.0645   43.7969   46.6499 H   0  0  0  0  0  0  0  0  0  0  0  0
 47 48  1  0  0  0
 48 49  2  0  0  0
 48 46  1  0  0  0
 46 45  1  0  0  0
 45 40  1  0  0  0
 40 41  1  0  0  0
 40 34  1  0  0  0
 41 42  1  0  0  0
 41 43  2  0  0  0
 34 35  1  0  0  0
 35 36  2  0  0  0
 35 37  1  0  0  0
 37 33  1  0  0  0
 33 51  1  0  0  0
 33 32  1  0  0  0
 51 52  1  0  0  0
 51 53  2  0  0  0
 32 31  1  0  0  0
 31 30  1  0  0  0
 30 29  1  0  0  0
 29  1  1  0  0  0
  1  2  1  0  0  0
  1  3  1  0  0  0
  2  5  2  0  0  0
  3  4  2  0  0  0
  4  5  1  0  0  0
  5  6  1  0  0  0
  6  7  1  0  0  0
  7  8  1  0  0  0
  8  9  1  0  0  0
  9 10  1  0  0  0
 10 11  1  0  0  0
 11 12  1  0  0  0
 12 13  1  0  0  0
 13 15  1  0  0  0
 15 16  1  0  0  0
 15 20  2  0  0  0
 16 17  2  0  0  0
 17 18  1  0  0  0
 18 25  1  0  0  0
 18 19  2  0  0  0
 25 26  1  0  0  0
 25 27  2  0  0  0
 19 20  1  0  0  0
 20 21  1  0  0  0
 21 22  1  0  0  0
 21 23  2  0  0  0
 47 50  1  0  0  0
 42 44  1  0  0  0
 34 38  1  0  0  0
 37 39  1  0  0  0
 52 54  1  0  0  0
 13 14  1  0  0  0
 26 28  1  0  0  0
 22 24  1  0  0  0
M  CHG 1  21   1
M  CHG 1  25   1
M  END
> <minimizedAffinity>
-10.18670

$$$$
2XEI_ARK_A_1770


 54 55  0  0  0  0  0  0  0  0999 V2000
   23.2759   46.6853   44.4342 N   0  0  0  0  0  0  0  0  0  0  0  0
   22.8865   47.7202   43.6691 C   0  0  0  0  0  0  0  0  0  0  0  0
   23.4129   47.0311   45.6241 N   0  0  0  0  0  0  0  0  0  0  0  0
   23.1454   48.2357   45.7553 N   0  0  0  0  0  0  0  0  0  0  0  0
   22.8023   48.7136   44.5456 C   0  0  0  0  0  0  0  0  0  0  0  0
   22.4246   50.0293   44.2313 C   0  0  0  0  0  0  0  0  0  0  0  0
   23.1958   51.1246   44.7782 O   0  0  0  0  0  0  0  0  0  0  0  0
   24.3694   51.3616   43.9655 C   0  0  0  0  0  0  0  0  0  0  0  0
   25.1929   52.5920   44.4412 C   0  0  0  0  0  0  0  0  0  0  0  0
   24.8767   52.9075   45.8213 O   0  0  0  0  0  0  0  0  0  0  0  0
   26.0105   53.5429   46.4563 C   0  0  0  0  0  0  0  0  0  0  0  0
   27.2312   52.6248   46.6337 C   0  0  0  0  0  0  0  0  0  0  0  0
   28.3967   53.4476   47.0011 N   0  0  0  0  0  0  0  0  0  0  0  0
   28.4215   54.3760   46.6746 H   0  0  0  0  0  0  0  0  0  0  0  0
   29.4286   53.0224   47.7499 C   0  0  0  0  0  0  0  0  0  0  0  0
   29.2363   52.1889   48.8531 C   0  0  0  0  0  0  0  0  0  0  0  0
   30.3302   51.7888   49.6044 C   0  0  0  0  0  0  0  0  0  0  0  0
   31.6150   52.2280   49.2776 C   0  0  0  0  0  0  0  0  0  0  0  0
   31.7980   53.0665   48.1973 C   0  0  0  0  0  0  0  0  0  0  0  0
   30.7175   53.4685   47.4371 C   0  0  0  0  0  0  0  0  0  0  0  0
   30.9633   54.2563   46.3939 N   0  0  0  0  0  0  0  0  0  0  0  0
   30.2572   55.4802   46.2606 O   0  0  0  0  0  0  0  0  0  0  0  0
   32.0029   53.9364   45.4765 O   0  0  0  0  0  0  0  0  0  0  0  0
   29.5721   55.6938   46.8631 H   0  0  0  0  0  0  0  0  0  0  0  0
   32.7108   51.8636   49.9549 N   0  0  0  0  0  0  0  0  0  0  0  0
   33.9912   52.2174   49.4567 O   0  0  0  0  0  0  0  0  0  0  0  0
   32.6652   51.0103   51.1084 O   0  0  0  0  0  0  0  0  0  0  0  0
   34.0646   52.7726   48.7055 H   0  0  0  0  0  0  0  0  0  0  0  0
   23.5219   45.3209   43.8967 C   0  0  0  0  0  0  0  0  0  0  0  0
   23.0442   44.3294   44.9502 C   0  0  0  0  0  0  0  0  0  0  0  0
   21.7695   43.6141   44.5357 C   0  0  0  0  0  0  0  0  0  0  0  0
   20.9149   44.5554   43.6814 C   0  0  0  0  0  0  0  0  0  0  0  0
   19.6002   44.9543   44.4426 C   0  0  0  0  0  0  0  0  0  0  0  0
   16.9622   45.0421   41.9448 N   0  0  0  0  0  0  0  0  0  0  0  0
   17.6993   44.5285   42.9334 C   0  0  0  0  0  0  0  0  0  0  0  0
   17.4029   43.4260   43.4265 O   0  0  0  0  0  0  0  0  0  0  0  0
   18.7053   45.2957   43.3533 N   0  0  0  0  0  0  0  0  0  0  0  0
   17.0491   45.9978   41.7251 H   0  0  0  0  0  0  0  0  0  0  0  0
   18.8510   46.1533   42.8923 H   0  0  0  0  0  0  0  0  0  0  0  0
   16.0237   44.2093   41.1777 C   0  0  0  0  0  0  0  0  0  0  0  0
   16.5174   44.3115   39.6922 C   0  0  0  0  0  0  0  0  0  0  0  0
   15.6515   44.1639   38.7656 O   0  0  0  0  0  0  0  0  0  0  0  0
   17.7492   44.5245   39.4711 O   0  0  0  0  0  0  0  0  0  0  0  0
   14.7536   44.0086   38.9838 H   0  0  0  0  0  0  0  0  0  0  0  0
   14.5580   44.7974   41.2054 C   0  0  0  0  0  0  0  0  0  0  0  0
   14.5425   46.3578   41.2395 C   0  0  0  0  0  0  0  0  0  0  0  0
   13.2346   48.2663   40.4181 O   0  0  0  0  0  0  0  0  0  0  0  0
   13.8105   47.1828   40.1056 C   0  0  0  0  0  0  0  0  0  0  0  0
   13.8481   46.7168   38.9470 O   0  0  0  0  0  0  0  0  0  0  0  0
   13.2425   48.5616   41.3074 H   0  0  0  0  0  0  0  0  0  0  0  0
   19.8698   46.2169   45.2585 C   0  0  0  0  0  0  0  0  0  0  0  0
   20.3599   46.0483   46.4073 O   0  0  0  0  0  0  0  0  0  0  0  0
   19.5081   47.3128   44.7212 O   0  0  0  0  0  0  0  0  0  0  0  0
   20.5901   45.1874   46.6968 H   0  0  0  0  0  0  0  0  0  0  0  0
 47 48  1  0  0  0
 48 49  2  0  0  0
 48 46  1  0  0  0
 46 45  1  0  0  0
 45 40  1  0  0  0
 40 41  1  0  0  0
 40 34  1  0  0  0
 41 42  1  0  0  0
 41 43  2  0  0  0
 34 35  1  0  0  0
 35 36  2  0  0  0
 35 37  1  0  0  0
 37 33  1  0  0  0
 33 51  1  0  0  0
 33 32  1  0  0  0
 51 52  1  0  0  0
 51 53  2  0  0  0
 32 31  1  0  0  0
 31 30  1  0  0  0
 30 29  1  0  0  0
 29  1  1  0  0  0
  1  2  1  0  0  0
  1  3  1  0  0  0
  2  5  2  0  0  0
  3  4  2  0  0  0
  4  5  1  0  0  0
  5  6  1  0  0  0
  6  7  1  0  0  0
  7  8  1  0  0  0
  8  9  1  0  0  0
  9 10  1  0  0  0
 10 11  1  0  0  0
 11 12  1  0  0  0
 12 13  1  0  0  0
 13 15  1  0  0  0
 15 16  1  0  0  0
 15 20  2  0  0  0
 16 17  2  0  0  0
 17 18  1  0  0  0
 18 25  1  0  0  0
 18 19  2  0  0  0
 25 26  1  0  0  0
 25 27  2  0  0  0
 19 20  1  0  0  0
 20 21  1  0  0  0
 21 22  1  0  0  0
 21 23  2  0  0  0
 47 50  1  0  0  0
 42 44  1  0  0  0
 34 38  1  0  0  0
 37 39  1  0  0  0
 52 54  1  0  0  0
 13 14  1  0  0  0
 26 28  1  0  0  0
 22 24  1  0  0  0
M  CHG 1  21   1
M  CHG 1  25   1
M  END
> <minimizedAffinity>
-10.03698

$$$$
2XEI_ARK_A_1770


 54 55  0  0  0  0  0  0  0  0999 V2000
   23.2121   45.0421   42.8253 N   0  0  0  0  0  0  0  0  0  0  0  0
   24.2277   44.7954   41.9793 C   0  0  0  0  0  0  0  0  0  0  0  0
   22.2072   45.4557   42.2144 N   0  0  0  0  0  0  0  0  0  0  0  0
   22.4389   45.5162   40.9968 N   0  0  0  0  0  0  0  0  0  0  0  0
   23.7038   45.1036   40.7992 C   0  0  0  0  0  0  0  0  0  0  0  0
   24.3823   45.0117   39.5730 C   0  0  0  0  0  0  0  0  0  0  0  0
   23.6906   45.4019   38.3635 O   0  0  0  0  0  0  0  0  0  0  0  0
   24.6384   45.8812   37.3806 C   0  0  0  0  0  0  0  0  0  0  0  0
   25.6747   46.8750   37.9780 C   0  0  0  0  0  0  0  0  0  0  0  0
   25.3051   48.2411   37.6599 O   0  0  0  0  0  0  0  0  0  0  0  0
   25.2954   49.0444   38.8628 C   0  0  0  0  0  0  0  0  0  0  0  0
   25.9493   48.3679   40.0791 C   0  0  0  0  0  0  0  0  0  0  0  0
   25.9626   49.3197   41.2036 N   0  0  0  0  0  0  0  0  0  0  0  0
   26.7913   49.8267   41.3628 H   0  0  0  0  0  0  0  0  0  0  0  0
   24.9253   49.5458   42.0276 C   0  0  0  0  0  0  0  0  0  0  0  0
   23.9896   48.5502   42.3147 C   0  0  0  0  0  0  0  0  0  0  0  0
   22.9278   48.8354   43.1586 C   0  0  0  0  0  0  0  0  0  0  0  0
   22.7782   50.1116   43.7055 C   0  0  0  0  0  0  0  0  0  0  0  0
   23.6953   51.0975   43.4044 C   0  0  0  0  0  0  0  0  0  0  0  0
   24.7610   50.8255   42.5693 C   0  0  0  0  0  0  0  0  0  0  0  0
   25.6239   51.8111   42.3386 N   0  0  0  0  0  0  0  0  0  0  0  0
   25.6203   52.4624   41.0776 O   0  0  0  0  0  0  0  0  0  0  0  0
   26.4689   52.2893   43.3788 O   0  0  0  0  0  0  0  0  0  0  0  0
   25.0651   52.1500   40.3905 H   0  0  0  0  0  0  0  0  0  0  0  0
   21.7838   50.4424   44.5385 N   0  0  0  0  0  0  0  0  0  0  0  0
   21.8881   51.6227   45.3189 O   0  0  0  0  0  0  0  0  0  0  0  0
   20.6570   49.5875   44.7842 O   0  0  0  0  0  0  0  0  0  0  0  0
   22.6086   52.2076   45.1896 H   0  0  0  0  0  0  0  0  0  0  0  0
   23.3126   44.8544   44.2969 C   0  0  0  0  0  0  0  0  0  0  0  0
   22.7757   43.4635   44.6108 C   0  0  0  0  0  0  0  0  0  0  0  0
   21.4368   43.5084   45.3273 C   0  0  0  0  0  0  0  0  0  0  0  0
   20.3150   43.6654   44.2963 C   0  0  0  0  0  0  0  0  0  0  0  0
   19.2672   44.7328   44.7755 C   0  0  0  0  0  0  0  0  0  0  0  0
   16.9711   44.8274   41.9605 N   0  0  0  0  0  0  0  0  0  0  0  0
   17.5125   44.3559   43.0869 C   0  0  0  0  0  0  0  0  0  0  0  0
   17.0138   43.3683   43.6547 O   0  0  0  0  0  0  0  0  0  0  0  0
   18.5586   45.0414   43.5481 N   0  0  0  0  0  0  0  0  0  0  0  0
   17.2121   45.7303   41.6509 H   0  0  0  0  0  0  0  0  0  0  0  0
   18.8719   45.8103   43.0191 H   0  0  0  0  0  0  0  0  0  0  0  0
   16.0224   44.0255   41.1732 C   0  0  0  0  0  0  0  0  0  0  0  0
   16.5250   44.1478   39.6923 C   0  0  0  0  0  0  0  0  0  0  0  0
   17.5739   44.8427   39.4750 O   0  0  0  0  0  0  0  0  0  0  0  0
   15.8692   43.5653   38.7745 O   0  0  0  0  0  0  0  0  0  0  0  0
   18.0208   45.2523   40.1895 H   0  0  0  0  0  0  0  0  0  0  0  0
   14.5667   44.6378   41.2056 C   0  0  0  0  0  0  0  0  0  0  0  0
   14.5687   46.1623   41.5403 C   0  0  0  0  0  0  0  0  0  0  0  0
   13.5138   48.0677   40.4069 O   0  0  0  0  0  0  0  0  0  0  0  0
   14.4736   47.2419   40.3881 C   0  0  0  0  0  0  0  0  0  0  0  0
   15.3674   47.2245   39.5153 O   0  0  0  0  0  0  0  0  0  0  0  0
   12.8746   48.0276   41.0909 H   0  0  0  0  0  0  0  0  0  0  0  0
   20.0151   45.9852   45.2281 C   0  0  0  0  0  0  0  0  0  0  0  0
   20.3554   46.7932   44.3227 O   0  0  0  0  0  0  0  0  0  0  0  0
   20.2804   46.0545   46.4712 O   0  0  0  0  0  0  0  0  0  0  0  0
   20.0996   46.6369   43.4349 H   0  0  0  0  0  0  0  0  0  0  0  0
 47 48  1  0  0  0
 48 49  2  0  0  0
 48 46  1  0  0  0
 46 45  1  0  0  0
 45 40  1  0  0  0
 40 41  1  0  0  0
 40 34  1  0  0  0
 41 42  1  0  0  0
 41 43  2  0  0  0
 34 35  1  0  0  0
 35 36  2  0  0  0
 35 37  1  0  0  0
 37 33  1  0  0  0
 33 51  1  0  0  0
 33 32  1  0  0  0
 51 52  1  0  0  0
 51 53  2  0  0  0
 32 31  1  0  0  0
 31 30  1  0  0  0
 30 29  1  0  0  0
 29  1  1  0  0  0
  1  2  1  0  0  0
  1  3  1  0  0  0
  2  5  2  0  0  0
  3  4  2  0  0  0
  4  5  1  0  0  0
  5  6  1  0  0  0
  6  7  1  0  0  0
  7  8  1  0  0  0
  8  9  1  0  0  0
  9 10  1  0  0  0
 10 11  1  0  0  0
 11 12  1  0  0  0
 12 13  1  0  0  0
 13 15  1  0  0  0
 15 16  1  0  0  0
 15 20  2  0  0  0
 16 17  2  0  0  0
 17 18  1  0  0  0
 18 25  1  0  0  0
 18 19  2  0  0  0
 25 26  1  0  0  0
 25 27  2  0  0  0
 19 20  1  0  0  0
 20 21  1  0  0  0
 21 22  1  0  0  0
 21 23  2  0  0  0
 47 50  1  0  0  0
 42 44  1  0  0  0
 34 38  1  0  0  0
 37 39  1  0  0  0
 52 54  1  0  0  0
 13 14  1  0  0  0
 26 28  1  0  0  0
 22 24  1  0  0  0
M  CHG 1  21   1
M  CHG 1  25   1
M  END
> <minimizedAffinity>
-9.99581

$$$$
2XEI_ARK_A_1770


 54 55  0  0  0  0  0  0  0  0999 V2000
   23.4728   48.1641   44.2084 N   0  0  0  0  0  0  0  0  0  0  0  0
   22.8118   49.2655   43.8108 C   0  0  0  0  0  0  0  0  0  0  0  0
   24.5764   48.4570   44.7089 N   0  0  0  0  0  0  0  0  0  0  0  0
   24.7414   49.6868   44.6962 N   0  0  0  0  0  0  0  0  0  0  0  0
   23.6488   50.2415   44.1413 C   0  0  0  0  0  0  0  0  0  0  0  0
   23.4093   51.6087   43.9277 C   0  0  0  0  0  0  0  0  0  0  0  0
   23.8821   52.5602   44.9098 O   0  0  0  0  0  0  0  0  0  0  0  0
   25.1131   53.1720   44.4578 C   0  0  0  0  0  0  0  0  0  0  0  0
   25.1664   53.3481   42.9136 C   0  0  0  0  0  0  0  0  0  0  0  0
   26.4888   53.0227   42.4141 O   0  0  0  0  0  0  0  0  0  0  0  0
   27.0496   51.9274   43.1745 C   0  0  0  0  0  0  0  0  0  0  0  0
   27.4155   50.6951   42.3307 C   0  0  0  0  0  0  0  0  0  0  0  0
   26.2272   49.8333   42.2059 N   0  0  0  0  0  0  0  0  0  0  0  0
   25.5766   49.8428   42.9448 H   0  0  0  0  0  0  0  0  0  0  0  0
   25.9669   49.0351   41.1564 C   0  0  0  0  0  0  0  0  0  0  0  0
   25.7450   47.6662   41.3170 C   0  0  0  0  0  0  0  0  0  0  0  0
   25.4955   46.8806   40.2027 C   0  0  0  0  0  0  0  0  0  0  0  0
   25.4839   47.4439   38.9249 C   0  0  0  0  0  0  0  0  0  0  0  0
   25.7218   48.7940   38.7694 C   0  0  0  0  0  0  0  0  0  0  0  0
   25.9665   49.5893   39.8716 C   0  0  0  0  0  0  0  0  0  0  0  0
   26.1631   50.8873   39.6573 N   0  0  0  0  0  0  0  0  0  0  0  0
   25.0839   51.7941   39.8216 O   0  0  0  0  0  0  0  0  0  0  0  0
   27.4668   51.3833   39.3759 O   0  0  0  0  0  0  0  0  0  0  0  0
   24.2242   51.4707   40.0070 H   0  0  0  0  0  0  0  0  0  0  0  0
   25.2336   46.7403   37.8137 N   0  0  0  0  0  0  0  0  0  0  0  0
   24.8189   47.4154   36.6367 O   0  0  0  0  0  0  0  0  0  0  0  0
   25.2379   45.3051   37.7834 O   0  0  0  0  0  0  0  0  0  0  0  0
   24.8017   48.3519   36.6152 H   0  0  0  0  0  0  0  0  0  0  0  0
   22.9378   46.7870   44.0409 C   0  0  0  0  0  0  0  0  0  0  0  0
   22.4081   46.6801   42.6163 C   0  0  0  0  0  0  0  0  0  0  0  0
   21.3105   45.6381   42.4838 C   0  0  0  0  0  0  0  0  0  0  0  0
   21.3083   44.7431   43.7268 C   0  0  0  0  0  0  0  0  0  0  0  0
   19.8510   44.5796   44.2893 C   0  0  0  0  0  0  0  0  0  0  0  0
   17.2159   44.9629   41.8164 N   0  0  0  0  0  0  0  0  0  0  0  0
   17.8217   44.4618   42.8964 C   0  0  0  0  0  0  0  0  0  0  0  0
   17.2356   43.6317   43.6133 O   0  0  0  0  0  0  0  0  0  0  0  0
   19.0368   44.9491   43.1472 N   0  0  0  0  0  0  0  0  0  0  0  0
   17.5750   45.7780   41.3970 H   0  0  0  0  0  0  0  0  0  0  0  0
   19.4072   45.6051   42.5135 H   0  0  0  0  0  0  0  0  0  0  0  0
   16.0237   44.3222   41.2411 C   0  0  0  0  0  0  0  0  0  0  0  0
   16.4092   44.0209   39.7507 C   0  0  0  0  0  0  0  0  0  0  0  0
   17.5463   44.4274   39.3359 O   0  0  0  0  0  0  0  0  0  0  0  0
   15.5787   43.3996   39.0185 O   0  0  0  0  0  0  0  0  0  0  0  0
   18.1224   44.8819   39.9186 H   0  0  0  0  0  0  0  0  0  0  0  0
   14.7906   45.3083   41.1957 C   0  0  0  0  0  0  0  0  0  0  0  0
   15.1029   46.6170   40.4046 C   0  0  0  0  0  0  0  0  0  0  0  0
   13.4043   47.2717   38.7571 O   0  0  0  0  0  0  0  0  0  0  0  0
   13.9319   47.5400   39.8765 C   0  0  0  0  0  0  0  0  0  0  0  0
   13.5824   48.4916   40.6069 O   0  0  0  0  0  0  0  0  0  0  0  0
   13.7130   46.5421   38.2566 H   0  0  0  0  0  0  0  0  0  0  0  0
   19.6321   45.6136   45.3918 C   0  0  0  0  0  0  0  0  0  0  0  0
   19.1957   46.7383   45.0273 O   0  0  0  0  0  0  0  0  0  0  0  0
   19.9779   45.2570   46.5639 O   0  0  0  0  0  0  0  0  0  0  0  0
   18.9717   46.8854   44.1294 H   0  0  0  0  0  0  0  0  0  0  0  0
 47 48  1  0  0  0
 48 49  2  0  0  0
 48 46  1  0  0  0
 46 45  1  0  0  0
 45 40  1  0  0  0
 40 41  1  0  0  0
 40 34  1  0  0  0
 41 42  1  0  0  0
 41 43  2  0  0  0
 34 35  1  0  0  0
 35 36  2  0  0  0
 35 37  1  0  0  0
 37 33  1  0  0  0
 33 51  1  0  0  0
 33 32  1  0  0  0
 51 52  1  0  0  0
 51 53  2  0  0  0
 32 31  1  0  0  0
 31 30  1  0  0  0
 30 29  1  0  0  0
 29  1  1  0  0  0
  1  2  1  0  0  0
  1  3  1  0  0  0
  2  5  2  0  0  0
  3  4  2  0  0  0
  4  5  1  0  0  0
  5  6  1  0  0  0
  6  7  1  0  0  0
  7  8  1  0  0  0
  8  9  1  0  0  0
  9 10  1  0  0  0
 10 11  1  0  0  0
 11 12  1  0  0  0
 12 13  1  0  0  0
 13 15  1  0  0  0
 15 16  1  0  0  0
 15 20  2  0  0  0
 16 17  2  0  0  0
 17 18  1  0  0  0
 18 25  1  0  0  0
 18 19  2  0  0  0
 25 26  1  0  0  0
 25 27  2  0  0  0
 19 20  1  0  0  0
 20 21  1  0  0  0
 21 22  1  0  0  0
 21 23  2  0  0  0
 47 50  1  0  0  0
 42 44  1  0  0  0
 34 38  1  0  0  0
 37 39  1  0  0  0
 52 54  1  0  0  0
 13 14  1  0  0  0
 26 28  1  0  0  0
 22 24  1  0  0  0
M  CHG 1  21   1
M  CHG 1  25   1
M  END
> <minimizedAffinity>
-9.84455

$$$$
2XEI_ARK_A_1770


 54 55  0  0  0  0  0  0  0  0999 V2000
   25.0512   46.3311   41.5545 N   0  0  0  0  0  0  0  0  0  0  0  0
   24.9881   46.7791   40.2883 C   0  0  0  0  0  0  0  0  0  0  0  0
   26.0314   46.8139   42.1549 N   0  0  0  0  0  0  0  0  0  0  0  0
   26.6639   47.5733   41.4044 N   0  0  0  0  0  0  0  0  0  0  0  0
   26.0388   47.5870   40.2134 C   0  0  0  0  0  0  0  0  0  0  0  0
   26.4120   48.3117   39.0699 C   0  0  0  0  0  0  0  0  0  0  0  0
   26.8254   49.6899   39.2231 O   0  0  0  0  0  0  0  0  0  0  0  0
   28.2596   49.7999   39.0651 C   0  0  0  0  0  0  0  0  0  0  0  0
   28.8221   51.1491   39.5956 C   0  0  0  0  0  0  0  0  0  0  0  0
   28.8114   51.1646   41.0461 O   0  0  0  0  0  0  0  0  0  0  0  0
   27.9203   52.1991   41.5237 C   0  0  0  0  0  0  0  0  0  0  0  0
   27.0232   51.7680   42.6958 C   0  0  0  0  0  0  0  0  0  0  0  0
   25.6261   51.7137   42.2315 N   0  0  0  0  0  0  0  0  0  0  0  0
   25.3984   52.2063   41.4100 H   0  0  0  0  0  0  0  0  0  0  0  0
   24.6398   51.0405   42.8482 C   0  0  0  0  0  0  0  0  0  0  0  0
   24.2241   49.7841   42.4039 C   0  0  0  0  0  0  0  0  0  0  0  0
   23.1921   49.1349   43.0632 C   0  0  0  0  0  0  0  0  0  0  0  0
   22.5560   49.7354   44.1517 C   0  0  0  0  0  0  0  0  0  0  0  0
   22.9582   50.9851   44.5759 C   0  0  0  0  0  0  0  0  0  0  0  0
   23.9886   51.6408   43.9315 C   0  0  0  0  0  0  0  0  0  0  0  0
   24.3460   52.8316   44.4045 N   0  0  0  0  0  0  0  0  0  0  0  0
   24.8512   52.9355   45.7267 O   0  0  0  0  0  0  0  0  0  0  0  0
   24.3311   53.9777   43.5613 O   0  0  0  0  0  0  0  0  0  0  0  0
   24.8624   52.1826   46.2845 H   0  0  0  0  0  0  0  0  0  0  0  0
   21.5654   49.1519   44.8377 N   0  0  0  0  0  0  0  0  0  0  0  0
   20.2176   49.4166   44.4822 O   0  0  0  0  0  0  0  0  0  0  0  0
   21.7935   48.3609   46.0138 O   0  0  0  0  0  0  0  0  0  0  0  0
   20.0257   49.9290   43.7216 H   0  0  0  0  0  0  0  0  0  0  0  0
   24.0738   45.3691   42.1290 C   0  0  0  0  0  0  0  0  0  0  0  0
   22.7628   45.5556   41.3754 C   0  0  0  0  0  0  0  0  0  0  0  0
   21.5997   45.8596   42.3044 C   0  0  0  0  0  0  0  0  0  0  0  0
   21.6895   44.9596   43.5405 C   0  0  0  0  0  0  0  0  0  0  0  0
   20.2621   44.7011   44.1427 C   0  0  0  0  0  0  0  0  0  0  0  0
   17.5131   45.0969   41.7992 N   0  0  0  0  0  0  0  0  0  0  0  0
   18.1744   44.5815   42.8391 C   0  0  0  0  0  0  0  0  0  0  0  0
   17.6339   43.7258   43.5618 O   0  0  0  0  0  0  0  0  0  0  0  0
   19.3919   45.0829   43.0469 N   0  0  0  0  0  0  0  0  0  0  0  0
   17.8404   45.9271   41.3833 H   0  0  0  0  0  0  0  0  0  0  0  0
   19.7234   45.7591   42.4128 H   0  0  0  0  0  0  0  0  0  0  0  0
   16.3063   44.4499   41.2626 C   0  0  0  0  0  0  0  0  0  0  0  0
   16.6446   44.1513   39.7603 C   0  0  0  0  0  0  0  0  0  0  0  0
   15.7746   43.5242   39.0674 O   0  0  0  0  0  0  0  0  0  0  0  0
   17.7643   44.5321   39.2988 O   0  0  0  0  0  0  0  0  0  0  0  0
   14.9628   43.2656   39.4574 H   0  0  0  0  0  0  0  0  0  0  0  0
   15.0670   45.4292   41.2581 C   0  0  0  0  0  0  0  0  0  0  0  0
   15.2540   46.6226   40.2696 C   0  0  0  0  0  0  0  0  0  0  0  0
   13.4462   47.3149   38.7596 O   0  0  0  0  0  0  0  0  0  0  0  0
   14.0269   47.5342   39.8632 C   0  0  0  0  0  0  0  0  0  0  0  0
   13.6893   48.4279   40.6685 O   0  0  0  0  0  0  0  0  0  0  0  0
   13.7490   46.6276   38.1993 H   0  0  0  0  0  0  0  0  0  0  0  0
   20.0347   45.6720   45.2994 C   0  0  0  0  0  0  0  0  0  0  0  0
   20.6283   45.4071   46.3791 O   0  0  0  0  0  0  0  0  0  0  0  0
   19.2118   46.6174   45.0769 O   0  0  0  0  0  0  0  0  0  0  0  0
   21.2167   44.6793   46.4239 H   0  0  0  0  0  0  0  0  0  0  0  0
 47 48  1  0  0  0
 48 49  2  0  0  0
 48 46  1  0  0  0
 46 45  1  0  0  0
 45 40  1  0  0  0
 40 41  1  0  0  0
 40 34  1  0  0  0
 41 42  1  0  0  0
 41 43  2  0  0  0
 34 35  1  0  0  0
 35 36  2  0  0  0
 35 37  1  0  0  0
 37 33  1  0  0  0
 33 51  1  0  0  0
 33 32  1  0  0  0
 51 52  1  0  0  0
 51 53  2  0  0  0
 32 31  1  0  0  0
 31 30  1  0  0  0
 30 29  1  0  0  0
 29  1  1  0  0  0
  1  2  1  0  0  0
  1  3  1  0  0  0
  2  5  2  0  0  0
  3  4  2  0  0  0
  4  5  1  0  0  0
  5  6  1  0  0  0
  6  7  1  0  0  0
  7  8  1  0  0  0
  8  9  1  0  0  0
  9 10  1  0  0  0
 10 11  1  0  0  0
 11 12  1  0  0  0
 12 13  1  0  0  0
 13 15  1  0  0  0
 15 16  1  0  0  0
 15 20  2  0  0  0
 16 17  2  0  0  0
 17 18  1  0  0  0
 18 25  1  0  0  0
 18 19  2  0  0  0
 25 26  1  0  0  0
 25 27  2  0  0  0
 19 20  1  0  0  0
 20 21  1  0  0  0
 21 22  1  0  0  0
 21 23  2  0  0  0
 47 50  1  0  0  0
 42 44  1  0  0  0
 34 38  1  0  0  0
 37 39  1  0  0  0
 52 54  1  0  0  0
 13 14  1  0  0  0
 26 28  1  0  0  0
 22 24  1  0  0  0
M  CHG 1  21   1
M  CHG 1  25   1
M  END
> <minimizedAffinity>
-9.80006

$$$$
2XEI_ARK_A_1770


 54 55  0  0  0  0  0  0  0  0999 V2000
   22.8637   47.5308   44.4258 N   0  0  0  0  0  0  0  0  0  0  0  0
   22.5316   48.6705   43.7942 C   0  0  0  0  0  0  0  0  0  0  0  0
   22.6586   47.6193   45.6524 N   0  0  0  0  0  0  0  0  0  0  0  0
   22.2026   48.7388   45.9324 N   0  0  0  0  0  0  0  0  0  0  0  0
   22.1002   49.4379   44.7877 C   0  0  0  0  0  0  0  0  0  0  0  0
   21.6310   50.7531   44.6383 C   0  0  0  0  0  0  0  0  0  0  0  0
   22.2565   51.8072   45.4072 O   0  0  0  0  0  0  0  0  0  0  0  0
   23.4747   52.2411   44.7578 C   0  0  0  0  0  0  0  0  0  0  0  0
   23.9847   53.6112   45.2881 C   0  0  0  0  0  0  0  0  0  0  0  0
   25.2336   53.9687   44.6428 O   0  0  0  0  0  0  0  0  0  0  0  0
   26.0432   52.7868   44.4418 C   0  0  0  0  0  0  0  0  0  0  0  0
   26.5915   52.6326   43.0135 C   0  0  0  0  0  0  0  0  0  0  0  0
   27.0195   51.2369   42.8157 N   0  0  0  0  0  0  0  0  0  0  0  0
   27.6787   50.8676   43.4468 H   0  0  0  0  0  0  0  0  0  0  0  0
   26.5751   50.4312   41.8360 C   0  0  0  0  0  0  0  0  0  0  0  0
   26.4092   50.8931   40.5291 C   0  0  0  0  0  0  0  0  0  0  0  0
   25.9333   50.0287   39.5557 C   0  0  0  0  0  0  0  0  0  0  0  0
   25.6021   48.7107   39.8769 C   0  0  0  0  0  0  0  0  0  0  0  0
   25.7504   48.2639   41.1738 C   0  0  0  0  0  0  0  0  0  0  0  0
   26.2286   49.1129   42.1524 C   0  0  0  0  0  0  0  0  0  0  0  0
   26.3727   48.6145   43.3772 N   0  0  0  0  0  0  0  0  0  0  0  0
   25.8265   49.3136   44.4850 O   0  0  0  0  0  0  0  0  0  0  0  0
   26.9688   47.3371   43.5714 O   0  0  0  0  0  0  0  0  0  0  0  0
   25.4333   50.1549   44.3604 H   0  0  0  0  0  0  0  0  0  0  0  0
   25.1535   47.8256   38.9782 N   0  0  0  0  0  0  0  0  0  0  0  0
   24.9639   46.4731   39.3625 O   0  0  0  0  0  0  0  0  0  0  0  0
   24.9730   48.1480   37.5910 O   0  0  0  0  0  0  0  0  0  0  0  0
   25.0721   46.2210   40.2584 H   0  0  0  0  0  0  0  0  0  0  0  0
   23.4198   46.3427   43.7259 C   0  0  0  0  0  0  0  0  0  0  0  0
   22.6773   46.2120   42.4019 C   0  0  0  0  0  0  0  0  0  0  0  0
   21.2806   45.6400   42.5760 C   0  0  0  0  0  0  0  0  0  0  0  0
   21.2960   44.5968   43.6974 C   0  0  0  0  0  0  0  0  0  0  0  0
   19.8603   44.4195   44.3091 C   0  0  0  0  0  0  0  0  0  0  0  0
   17.1570   45.0259   41.9574 N   0  0  0  0  0  0  0  0  0  0  0  0
   17.8036   44.4114   42.9517 C   0  0  0  0  0  0  0  0  0  0  0  0
   17.2613   43.4762   43.5664 O   0  0  0  0  0  0  0  0  0  0  0  0
   19.0081   44.9043   43.2401 N   0  0  0  0  0  0  0  0  0  0  0  0
   17.4799   45.9001   41.6401 H   0  0  0  0  0  0  0  0  0  0  0  0
   19.3424   45.6488   42.6895 H   0  0  0  0  0  0  0  0  0  0  0  0
   15.9726   44.4236   41.3270 C   0  0  0  0  0  0  0  0  0  0  0  0
   16.4206   44.0974   39.8595 C   0  0  0  0  0  0  0  0  0  0  0  0
   15.5643   43.5569   39.0819 O   0  0  0  0  0  0  0  0  0  0  0  0
   17.6095   44.3714   39.5085 O   0  0  0  0  0  0  0  0  0  0  0  0
   14.6988   43.3755   39.3917 H   0  0  0  0  0  0  0  0  0  0  0  0
   14.7794   45.4524   41.2144 C   0  0  0  0  0  0  0  0  0  0  0  0
   14.9753   46.4664   40.0440 C   0  0  0  0  0  0  0  0  0  0  0  0
   13.2500   47.2743   38.4953 O   0  0  0  0  0  0  0  0  0  0  0  0
   13.8071   47.4448   39.6196 C   0  0  0  0  0  0  0  0  0  0  0  0
   13.4896   48.3396   40.4317 O   0  0  0  0  0  0  0  0  0  0  0  0
   13.5356   46.5830   37.9310 H   0  0  0  0  0  0  0  0  0  0  0  0
   19.7167   45.3600   45.5038 C   0  0  0  0  0  0  0  0  0  0  0  0
   19.8079   44.8343   46.6456 O   0  0  0  0  0  0  0  0  0  0  0  0
   19.4506   46.5735   45.2262 O   0  0  0  0  0  0  0  0  0  0  0  0
   20.0107   43.9231   46.7271 H   0  0  0  0  0  0  0  0  0  0  0  0
 47 48  1  0  0  0
 48 49  2  0  0  0
 48 46  1  0  0  0
 46 45  1  0  0  0
 45 40  1  0  0  0
 40 41  1  0  0  0
 40 34  1  0  0  0
 41 42  1  0  0  0
 41 43  2  0  0  0
 34 35  1  0  0  0
 35 36  2  0  0  0
 35 37  1  0  0  0
 37 33  1  0  0  0
 33 51  1  0  0  0
 33 32  1  0  0  0
 51 52  1  0  0  0
 51 53  2  0  0  0
 32 31  1  0  0  0
 31 30  1  0  0  0
 30 29  1  0  0  0
 29  1  1  0  0  0
  1  2  1  0  0  0
  1  3  1  0  0  0
  2  5  2  0  0  0
  3  4  2  0  0  0
  4  5  1  0  0  0
  5  6  1  0  0  0
  6  7  1  0  0  0
  7  8  1  0  0  0
  8  9  1  0  0  0
  9 10  1  0  0  0
 10 11  1  0  0  0
 11 12  1  0  0  0
 12 13  1  0  0  0
 13 15  1  0  0  0
 15 16  1  0  0  0
 15 20  2  0  0  0
 16 17  2  0  0  0
 17 18  1  0  0  0
 18 25  1  0  0  0
 18 19  2  0  0  0
 25 26  1  0  0  0
 25 27  2  0  0  0
 19 20  1  0  0  0
 20 21  1  0  0  0
 21 22  1  0  0  0
 21 23  2  0  0  0
 47 50  1  0  0  0
 42 44  1  0  0  0
 34 38  1  0  0  0
 37 39  1  0  0  0
 52 54  1  0  0  0
 13 14  1  0  0  0
 26 28  1  0  0  0
 22 24  1  0  0  0
M  CHG 1  21   1
M  CHG 1  25   1
M  END
> <minimizedAffinity>
-9.69843

$$$$
2XEI_ARK_A_1770


 54 55  0  0  0  0  0  0  0  0999 V2000
   24.5580   46.9445   43.6289 N   0  0  0  0  0  0  0  0  0  0  0  0
   24.4114   48.2555   43.3683 C   0  0  0  0  0  0  0  0  0  0  0  0
   25.5903   46.7301   44.2941 N   0  0  0  0  0  0  0  0  0  0  0  0
   26.1823   47.7960   44.5248 N   0  0  0  0  0  0  0  0  0  0  0  0
   25.4714   48.7898   43.9625 C   0  0  0  0  0  0  0  0  0  0  0  0
   25.7752   50.1609   43.9770 C   0  0  0  0  0  0  0  0  0  0  0  0
   24.8842   51.0787   43.3008 O   0  0  0  0  0  0  0  0  0  0  0  0
   25.4959   52.3867   43.2050 C   0  0  0  0  0  0  0  0  0  0  0  0
   25.6060   53.1022   44.5813 C   0  0  0  0  0  0  0  0  0  0  0  0
   26.7503   53.9935   44.5965 O   0  0  0  0  0  0  0  0  0  0  0  0
   27.9479   53.2561   44.9350 C   0  0  0  0  0  0  0  0  0  0  0  0
   28.7906   53.8978   46.0496 C   0  0  0  0  0  0  0  0  0  0  0  0
   29.5402   52.8399   46.7491 N   0  0  0  0  0  0  0  0  0  0  0  0
   29.1248   51.9493   46.8091 H   0  0  0  0  0  0  0  0  0  0  0  0
   30.7501   53.0025   47.3112 C   0  0  0  0  0  0  0  0  0  0  0  0
   31.8061   53.5926   46.6145 C   0  0  0  0  0  0  0  0  0  0  0  0
   33.0404   53.7249   47.2311 C   0  0  0  0  0  0  0  0  0  0  0  0
   33.2383   53.2563   48.5316 C   0  0  0  0  0  0  0  0  0  0  0  0
   32.1967   52.6573   49.2097 C   0  0  0  0  0  0  0  0  0  0  0  0
   30.9603   52.5239   48.6092 C   0  0  0  0  0  0  0  0  0  0  0  0
   29.9907   51.9607   49.3248 N   0  0  0  0  0  0  0  0  0  0  0  0
   30.1479   50.6286   49.7885 O   0  0  0  0  0  0  0  0  0  0  0  0
   28.8531   52.7178   49.7216 O   0  0  0  0  0  0  0  0  0  0  0  0
   30.8958   50.1274   49.5290 H   0  0  0  0  0  0  0  0  0  0  0  0
   34.4014   53.3698   49.1847 N   0  0  0  0  0  0  0  0  0  0  0  0
   35.4332   52.4257   48.9456 O   0  0  0  0  0  0  0  0  0  0  0  0
   34.6192   54.3345   50.2253 O   0  0  0  0  0  0  0  0  0  0  0  0
   35.3304   51.7791   48.2752 H   0  0  0  0  0  0  0  0  0  0  0  0
   23.6045   45.9070   43.1541 C   0  0  0  0  0  0  0  0  0  0  0  0
   22.5849   46.6065   42.2639 C   0  0  0  0  0  0  0  0  0  0  0  0
   21.1770   46.0729   42.4671 C   0  0  0  0  0  0  0  0  0  0  0  0
   21.1912   45.0128   43.5725 C   0  0  0  0  0  0  0  0  0  0  0  0
   19.8180   44.9885   44.3346 C   0  0  0  0  0  0  0  0  0  0  0  0
   17.1030   45.0454   41.9198 N   0  0  0  0  0  0  0  0  0  0  0  0
   17.8906   44.5319   42.8687 C   0  0  0  0  0  0  0  0  0  0  0  0
   17.6550   43.4027   43.3334 O   0  0  0  0  0  0  0  0  0  0  0  0
   18.8768   45.3268   43.2841 N   0  0  0  0  0  0  0  0  0  0  0  0
   17.1438   46.0105   41.7296 H   0  0  0  0  0  0  0  0  0  0  0  0
   18.9729   46.2040   42.8478 H   0  0  0  0  0  0  0  0  0  0  0  0
   16.1763   44.1989   41.1534 C   0  0  0  0  0  0  0  0  0  0  0  0
   16.6186   44.3701   39.6582 C   0  0  0  0  0  0  0  0  0  0  0  0
   15.7046   44.4063   38.7673 O   0  0  0  0  0  0  0  0  0  0  0  0
   17.8573   44.4547   39.3934 O   0  0  0  0  0  0  0  0  0  0  0  0
   14.8040   44.3396   39.0171 H   0  0  0  0  0  0  0  0  0  0  0  0
   14.6891   44.7231   41.2448 C   0  0  0  0  0  0  0  0  0  0  0  0
   14.6128   46.2729   41.4141 C   0  0  0  0  0  0  0  0  0  0  0  0
   13.9296   46.6680   39.0892 O   0  0  0  0  0  0  0  0  0  0  0  0
   14.1080   47.1906   40.2287 C   0  0  0  0  0  0  0  0  0  0  0  0
   13.9032   48.3956   40.4880 O   0  0  0  0  0  0  0  0  0  0  0  0
   14.1020   45.7561   38.9598 H   0  0  0  0  0  0  0  0  0  0  0  0
   19.8109   46.1128   45.3682 C   0  0  0  0  0  0  0  0  0  0  0  0
   19.0806   47.1071   45.1105 O   0  0  0  0  0  0  0  0  0  0  0  0
   20.5984   45.9627   46.3572 O   0  0  0  0  0  0  0  0  0  0  0  0
   18.5378   47.1043   44.3468 H   0  0  0  0  0  0  0  0  0  0  0  0
 47 48  1  0  0  0
 48 49  2  0  0  0
 48 46  1  0  0  0
 46 45  1  0  0  0
 45 40  1  0  0  0
 40 41  1  0  0  0
 40 34  1  0  0  0
 41 42  1  0  0  0
 41 43  2  0  0  0
 34 35  1  0  0  0
 35 36  2  0  0  0
 35 37  1  0  0  0
 37 33  1  0  0  0
 33 51  1  0  0  0
 33 32  1  0  0  0
 51 52  1  0  0  0
 51 53  2  0  0  0
 32 31  1  0  0  0
 31 30  1  0  0  0
 30 29  1  0  0  0
 29  1  1  0  0  0
  1  2  1  0  0  0
  1  3  1  0  0  0
  2  5  2  0  0  0
  3  4  2  0  0  0
  4  5  1  0  0  0
  5  6  1  0  0  0
  6  7  1  0  0  0
  7  8  1  0  0  0
  8  9  1  0  0  0
  9 10  1  0  0  0
 10 11  1  0  0  0
 11 12  1  0  0  0
 12 13  1  0  0  0
 13 15  1  0  0  0
 15 16  1  0  0  0
 15 20  2  0  0  0
 16 17  2  0  0  0
 17 18  1  0  0  0
 18 25  1  0  0  0
 18 19  2  0  0  0
 25 26  1  0  0  0
 25 27  2  0  0  0
 19 20  1  0  0  0
 20 21  1  0  0  0
 21 22  1  0  0  0
 21 23  2  0  0  0
 47 50  1  0  0  0
 42 44  1  0  0  0
 34 38  1  0  0  0
 37 39  1  0  0  0
 52 54  1  0  0  0
 13 14  1  0  0  0
 26 28  1  0  0  0
 22 24  1  0  0  0
M  CHG 1  21   1
M  CHG 1  25   1
M  END
> <minimizedAffinity>
-9.63591

$$$$
2XEI_ARK_A_1770


 54 55  0  0  0  0  0  0  0  0999 V2000
   23.7836   44.7677   44.0761 N   0  0  0  0  0  0  0  0  0  0  0  0
   24.0081   44.2238   42.8671 C   0  0  0  0  0  0  0  0  0  0  0  0
   23.8374   46.0123   44.0272 N   0  0  0  0  0  0  0  0  0  0  0  0
   24.0809   46.3870   42.8696 N   0  0  0  0  0  0  0  0  0  0  0  0
   24.1927   45.2903   42.0987 C   0  0  0  0  0  0  0  0  0  0  0  0
   24.4646   45.2479   40.7215 C   0  0  0  0  0  0  0  0  0  0  0  0
   23.9798   46.3226   39.8826 O   0  0  0  0  0  0  0  0  0  0  0  0
   24.9035   46.5599   38.7943 C   0  0  0  0  0  0  0  0  0  0  0  0
   26.1148   47.4403   39.2136 C   0  0  0  0  0  0  0  0  0  0  0  0
   25.7436   48.8425   39.2128 O   0  0  0  0  0  0  0  0  0  0  0  0
   26.0273   49.4306   40.5036 C   0  0  0  0  0  0  0  0  0  0  0  0
   24.8088   49.5230   41.4370 C   0  0  0  0  0  0  0  0  0  0  0  0
   25.2488   50.0376   42.7454 N   0  0  0  0  0  0  0  0  0  0  0  0
   25.9330   49.5232   43.2318 H   0  0  0  0  0  0  0  0  0  0  0  0
   24.7839   51.1585   43.3230 C   0  0  0  0  0  0  0  0  0  0  0  0
   25.4361   52.3834   43.1709 C   0  0  0  0  0  0  0  0  0  0  0  0
   24.9272   53.5095   43.7987 C   0  0  0  0  0  0  0  0  0  0  0  0
   23.7826   53.4228   44.5941 C   0  0  0  0  0  0  0  0  0  0  0  0
   23.1518   52.2065   44.7562 C   0  0  0  0  0  0  0  0  0  0  0  0
   23.6452   51.0777   44.1321 C   0  0  0  0  0  0  0  0  0  0  0  0
   22.9771   49.9408   44.3075 N   0  0  0  0  0  0  0  0  0  0  0  0
   23.6099   48.8522   44.9623 O   0  0  0  0  0  0  0  0  0  0  0  0
   21.6041   49.8471   43.9462 O   0  0  0  0  0  0  0  0  0  0  0  0
   24.5140   48.9109   45.2016 H   0  0  0  0  0  0  0  0  0  0  0  0
   23.2353   54.4768   45.2120 N   0  0  0  0  0  0  0  0  0  0  0  0
   22.3423   54.2674   46.2944 O   0  0  0  0  0  0  0  0  0  0  0  0
   23.4054   55.8252   44.7495 O   0  0  0  0  0  0  0  0  0  0  0  0
   22.2031   53.4022   46.6262 H   0  0  0  0  0  0  0  0  0  0  0  0
   23.5267   43.9610   45.2985 C   0  0  0  0  0  0  0  0  0  0  0  0
   22.3475   43.0456   44.9938 C   0  0  0  0  0  0  0  0  0  0  0  0
   21.0136   43.6865   45.3375 C   0  0  0  0  0  0  0  0  0  0  0  0
   20.4724   44.4216   44.1076 C   0  0  0  0  0  0  0  0  0  0  0  0
   19.3636   45.4538   44.5223 C   0  0  0  0  0  0  0  0  0  0  0  0
   16.9287   45.0272   41.8587 N   0  0  0  0  0  0  0  0  0  0  0  0
   17.5651   44.7387   42.9971 C   0  0  0  0  0  0  0  0  0  0  0  0
   17.1829   43.7894   43.7037 O   0  0  0  0  0  0  0  0  0  0  0  0
   18.5700   45.5558   43.3125 N   0  0  0  0  0  0  0  0  0  0  0  0
   17.0748   45.9030   41.4333 H   0  0  0  0  0  0  0  0  0  0  0  0
   18.7885   46.2785   42.6807 H   0  0  0  0  0  0  0  0  0  0  0  0
   16.0143   44.0638   41.2274 C   0  0  0  0  0  0  0  0  0  0  0  0
   16.5409   43.9136   39.7575 C   0  0  0  0  0  0  0  0  0  0  0  0
   16.0313   42.9936   39.0335 O   0  0  0  0  0  0  0  0  0  0  0  0
   17.4525   44.6987   39.3519 O   0  0  0  0  0  0  0  0  0  0  0  0
   15.3600   42.4408   39.3824 H   0  0  0  0  0  0  0  0  0  0  0  0
   14.5439   44.6310   41.1221 C   0  0  0  0  0  0  0  0  0  0  0  0
   14.4864   46.1782   41.3196 C   0  0  0  0  0  0  0  0  0  0  0  0
   16.0543   47.4382   39.9118 O   0  0  0  0  0  0  0  0  0  0  0  0
   14.8387   47.1577   40.1286 C   0  0  0  0  0  0  0  0  0  0  0  0
   13.8851   47.6006   39.4536 O   0  0  0  0  0  0  0  0  0  0  0  0
   16.7238   47.0722   40.4558 H   0  0  0  0  0  0  0  0  0  0  0  0
   20.0245   46.8062   44.7804 C   0  0  0  0  0  0  0  0  0  0  0  0
   21.1673   46.9772   44.2772 O   0  0  0  0  0  0  0  0  0  0  0  0
   19.3819   47.6027   45.5375 O   0  0  0  0  0  0  0  0  0  0  0  0
   21.5424   46.3151   43.7305 H   0  0  0  0  0  0  0  0  0  0  0  0
 47 48  1  0  0  0
 48 49  2  0  0  0
 48 46  1  0  0  0
 46 45  1  0  0  0
 45 40  1  0  0  0
 40 41  1  0  0  0
 40 34  1  0  0  0
 41 42  1  0  0  0
 41 43  2  0  0  0
 34 35  1  0  0  0
 35 36  2  0  0  0
 35 37  1  0  0  0
 37 33  1  0  0  0
 33 51  1  0  0  0
 33 32  1  0  0  0
 51 52  1  0  0  0
 51 53  2  0  0  0
 32 31  1  0  0  0
 31 30  1  0  0  0
 30 29  1  0  0  0
 29  1  1  0  0  0
  1  2  1  0  0  0
  1  3  1  0  0  0
  2  5  2  0  0  0
  3  4  2  0  0  0
  4  5  1  0  0  0
  5  6  1  0  0  0
  6  7  1  0  0  0
  7  8  1  0  0  0
  8  9  1  0  0  0
  9 10  1  0  0  0
 10 11  1  0  0  0
 11 12  1  0  0  0
 12 13  1  0  0  0
 13 15  1  0  0  0
 15 16  1  0  0  0
 15 20  2  0  0  0
 16 17  2  0  0  0
 17 18  1  0  0  0
 18 25  1  0  0  0
 18 19  2  0  0  0
 25 26  1  0  0  0
 25 27  2  0  0  0
 19 20  1  0  0  0
 20 21  1  0  0  0
 21 22  1  0  0  0
 21 23  2  0  0  0
 47 50  1  0  0  0
 42 44  1  0  0  0
 34 38  1  0  0  0
 37 39  1  0  0  0
 52 54  1  0  0  0
 13 14  1  0  0  0
 26 28  1  0  0  0
 22 24  1  0  0  0
M  CHG 1  21   1
M  CHG 1  25   1
M  END
> <minimizedAffinity>
-9.54926

$$$$
