1SYI_CPW_A_381


 21 22  0  0  0  0  0  0  0  0999 V2000
   20.8245   12.9994   57.3969 N   0  0  0  0  0  0  0  0  0  0  0  0
   22.1526   12.3326   57.3530 C   0  0  0  0  0  0  0  0  0  0  0  0
   22.1874   10.9787   57.3386 N   0  0  0  0  0  0  0  0  0  0  0  0
   19.6714   12.2022   57.4910 C   0  0  0  0  0  0  0  0  0  0  0  0
   23.1527   13.0769   57.3345 O   0  0  0  0  0  0  0  0  0  0  0  0
   19.7396   10.8423   57.4981 C   0  0  0  0  0  0  0  0  0  0  0  0
   21.0658   10.1789   57.3882 C   0  0  0  0  0  0  0  0  0  0  0  0
   21.1359    8.9365   57.3302 O   0  0  0  0  0  0  0  0  0  0  0  0
   18.2365   12.7059   57.5211 C   0  0  0  0  0  0  0  0  0  0  0  0
   17.3895   11.4104   57.6096 C   0  0  0  0  0  0  0  0  0  0  0  0
   18.3762   10.2081   57.5231 C   0  0  0  0  0  0  0  0  0  0  0  0
   23.0671   10.5393   57.2898 H   0  0  0  0  0  0  0  0  0  0  0  0
   20.7670   14.4559   57.4573 C   0  0  0  0  0  0  0  0  0  0  0  0
   21.1951   14.9889   58.8574 C   0  0  0  0  0  0  0  0  0  0  0  0
   20.1613   14.6575   59.9038 N   0  0  0  0  0  0  0  0  0  0  0  0
   19.2674   15.0732   59.6422 H   0  0  0  0  0  0  0  0  0  0  0  0
   20.4587   15.0302   60.8055 H   0  0  0  0  0  0  0  0  0  0  0  0
   21.5529   16.4966   58.6756 C   0  0  0  0  0  0  0  0  0  0  0  0
   22.5010   16.8042   57.9065 O   0  0  0  0  0  0  0  0  0  0  0  0
   20.8626   17.3138   59.3653 O   0  0  0  0  0  0  0  0  0  0  0  0
   22.9573   16.1355   57.4346 H   0  0  0  0  0  0  0  0  0  0  0  0
 13  1  1  0  0  0
 13 14  1  0  0  0
  1  2  1  0  0  0
  1  4  1  0  0  0
  2  3  1  0  0  0
  2  5  2  0  0  0
  3  7  1  0  0  0
  4  6  2  0  0  0
  4  9  1  0  0  0
  6  7  1  0  0  0
  6 11  1  0  0  0
  7  8  2  0  0  0
  9 10  1  0  0  0
 10 11  1  0  0  0
 14 18  1  0  0  0
 14 15  1  0  0  0
 18 19  1  0  0  0
 18 20  2  0  0  0
  3 12  1  0  0  0
 19 21  1  0  0  0
 15 16  1  0  0  0
 15 17  1  0  0  0
M  END
> <minimizedAffinity>
-9.32067

$$$$
1SYI_CPW_A_381


 21 22  0  0  0  0  0  0  0  0999 V2000
   20.1667   12.8133   57.6356 N   0  0  0  0  0  0  0  0  0  0  0  0
   18.8235   12.3224   58.0422 C   0  0  0  0  0  0  0  0  0  0  0  0
   18.6212   10.9842   58.0941 N   0  0  0  0  0  0  0  0  0  0  0  0
   21.1425   11.8756   57.2581 C   0  0  0  0  0  0  0  0  0  0  0  0
   17.9672   13.1890   58.3076 O   0  0  0  0  0  0  0  0  0  0  0  0
   20.9019   10.5360   57.2982 C   0  0  0  0  0  0  0  0  0  0  0  0
   19.5784   10.0474   57.7678 C   0  0  0  0  0  0  0  0  0  0  0  0
   19.3681    8.8237   57.8687 O   0  0  0  0  0  0  0  0  0  0  0  0
   22.5706   12.1908   56.8402 C   0  0  0  0  0  0  0  0  0  0  0  0
   23.1917   10.7983   56.5594 C   0  0  0  0  0  0  0  0  0  0  0  0
   22.1178    9.7320   56.9284 C   0  0  0  0  0  0  0  0  0  0  0  0
   17.7371   10.6610   58.3823 H   0  0  0  0  0  0  0  0  0  0  0  0
   20.3916   14.2509   57.5311 C   0  0  0  0  0  0  0  0  0  0  0  0
   21.0501   14.8234   58.8219 C   0  0  0  0  0  0  0  0  0  0  0  0
   20.1504   14.6392   60.0179 N   0  0  0  0  0  0  0  0  0  0  0  0
   19.2628   15.1134   59.8518 H   0  0  0  0  0  0  0  0  0  0  0  0
   20.5981   15.0353   60.8443 H   0  0  0  0  0  0  0  0  0  0  0  0
   21.4921   16.2831   58.4931 C   0  0  0  0  0  0  0  0  0  0  0  0
   22.3462   16.4662   57.5865 O   0  0  0  0  0  0  0  0  0  0  0  0
   20.9663   17.1930   59.2112 O   0  0  0  0  0  0  0  0  0  0  0  0
   22.6818   15.7360   57.1047 H   0  0  0  0  0  0  0  0  0  0  0  0
 13  1  1  0  0  0
 13 14  1  0  0  0
  1  2  1  0  0  0
  1  4  1  0  0  0
  2  3  1  0  0  0
  2  5  2  0  0  0
  3  7  1  0  0  0
  4  6  2  0  0  0
  4  9  1  0  0  0
  6  7  1  0  0  0
  6 11  1  0  0  0
  7  8  2  0  0  0
  9 10  1  0  0  0
 10 11  1  0  0  0
 14 18  1  0  0  0
 14 15  1  0  0  0
 18 19  1  0  0  0
 18 20  2  0  0  0
  3 12  1  0  0  0
 19 21  1  0  0  0
 15 16  1  0  0  0
 15 17  1  0  0  0
M  END
> <minimizedAffinity>
-7.23958

$$$$
1SYI_CPW_A_381


 21 22  0  0  0  0  0  0  0  0999 V2000
   20.7942   12.5602   57.1597 N   0  0  0  0  0  0  0  0  0  0  0  0
   21.8928   11.5714   56.9991 C   0  0  0  0  0  0  0  0  0  0  0  0
   21.6195   10.2676   57.2433 N   0  0  0  0  0  0  0  0  0  0  0  0
   19.5452   12.1126   57.6218 C   0  0  0  0  0  0  0  0  0  0  0  0
   23.0025   12.0191   56.6487 O   0  0  0  0  0  0  0  0  0  0  0  0
   19.3070   10.7974   57.8816 C   0  0  0  0  0  0  0  0  0  0  0  0
   20.3894    9.8030   57.6572 C   0  0  0  0  0  0  0  0  0  0  0  0
   20.1644    8.5901   57.8310 O   0  0  0  0  0  0  0  0  0  0  0  0
   18.3057   12.9714   57.8209 C   0  0  0  0  0  0  0  0  0  0  0  0
   17.2337   11.9676   58.3177 C   0  0  0  0  0  0  0  0  0  0  0  0
   17.8794   10.5504   58.2847 C   0  0  0  0  0  0  0  0  0  0  0  0
   22.3431    9.6119   57.1176 H   0  0  0  0  0  0  0  0  0  0  0  0
   21.0796   13.9745   56.9440 C   0  0  0  0  0  0  0  0  0  0  0  0
   21.9781   14.5570   58.0758 C   0  0  0  0  0  0  0  0  0  0  0  0
   22.8046   13.4751   58.7238 N   0  0  0  0  0  0  0  0  0  0  0  0
   22.1871   12.7634   59.1144 H   0  0  0  0  0  0  0  0  0  0  0  0
   23.3707   13.8803   59.4693 H   0  0  0  0  0  0  0  0  0  0  0  0
   21.0437   15.3839   59.0125 C   0  0  0  0  0  0  0  0  0  0  0  0
   20.2931   14.7680   59.8138 O   0  0  0  0  0  0  0  0  0  0  0  0
   21.0906   16.6469   58.8622 O   0  0  0  0  0  0  0  0  0  0  0  0
   20.3238   13.8326   59.8597 H   0  0  0  0  0  0  0  0  0  0  0  0
 13  1  1  0  0  0
 13 14  1  0  0  0
  1  2  1  0  0  0
  1  4  1  0  0  0
  2  3  1  0  0  0
  2  5  2  0  0  0
  3  7  1  0  0  0
  4  6  2  0  0  0
  4  9  1  0  0  0
  6  7  1  0  0  0
  6 11  1  0  0  0
  7  8  2  0  0  0
  9 10  1  0  0  0
 10 11  1  0  0  0
 14 18  1  0  0  0
 14 15  1  0  0  0
 18 19  1  0  0  0
 18 20  2  0  0  0
  3 12  1  0  0  0
 19 21  1  0  0  0
 15 16  1  0  0  0
 15 17  1  0  0  0
M  END
> <minimizedAffinity>
-7.07220

$$$$
1SYI_CPW_A_381


 21 22  0  0  0  0  0  0  0  0999 V2000
   21.1548   11.7972   57.3459 N   0  0  0  0  0  0  0  0  0  0  0  0
   21.8023   10.5538   56.8509 C   0  0  0  0  0  0  0  0  0  0  0  0
   21.0119    9.4906   56.5689 N   0  0  0  0  0  0  0  0  0  0  0  0
   19.7669   11.7947   57.5647 C   0  0  0  0  0  0  0  0  0  0  0  0
   23.0432   10.5778   56.7313 O   0  0  0  0  0  0  0  0  0  0  0  0
   19.0011   10.7019   57.2938 C   0  0  0  0  0  0  0  0  0  0  0  0
   19.6438    9.4820   56.7373 C   0  0  0  0  0  0  0  0  0  0  0  0
   18.9450    8.4986   56.4266 O   0  0  0  0  0  0  0  0  0  0  0  0
   18.9351   12.9756   58.0414 C   0  0  0  0  0  0  0  0  0  0  0  0
   17.4890   12.4184   58.0842 C   0  0  0  0  0  0  0  0  0  0  0  0
   17.5391   10.9636   57.5297 C   0  0  0  0  0  0  0  0  0  0  0  0
   21.4405    8.6747   56.2228 H   0  0  0  0  0  0  0  0  0  0  0  0
   21.9928   12.9385   57.6969 C   0  0  0  0  0  0  0  0  0  0  0  0
   21.3941   14.2747   57.1641 C   0  0  0  0  0  0  0  0  0  0  0  0
   21.8786   14.5675   55.7665 N   0  0  0  0  0  0  0  0  0  0  0  0
   22.8967   14.6285   55.7654 H   0  0  0  0  0  0  0  0  0  0  0  0
   21.4845   15.4530   55.4487 H   0  0  0  0  0  0  0  0  0  0  0  0
   21.6784   15.3600   58.2483 C   0  0  0  0  0  0  0  0  0  0  0  0
   22.1722   16.4602   57.8871 O   0  0  0  0  0  0  0  0  0  0  0  0
   21.4146   15.0235   59.4472 O   0  0  0  0  0  0  0  0  0  0  0  0
   22.3347   16.6252   56.9792 H   0  0  0  0  0  0  0  0  0  0  0  0
 13  1  1  0  0  0
 13 14  1  0  0  0
  1  2  1  0  0  0
  1  4  1  0  0  0
  2  3  1  0  0  0
  2  5  2  0  0  0
  3  7  1  0  0  0
  4  6  2  0  0  0
  4  9  1  0  0  0
  6  7  1  0  0  0
  6 11  1  0  0  0
  7  8  2  0  0  0
  9 10  1  0  0  0
 10 11  1  0  0  0
 14 18  1  0  0  0
 14 15  1  0  0  0
 18 19  1  0  0  0
 18 20  2  0  0  0
  3 12  1  0  0  0
 19 21  1  0  0  0
 15 16  1  0  0  0
 15 17  1  0  0  0
M  END
> <minimizedAffinity>
-6.66733

$$$$
1SYI_CPW_A_381


 21 22  0  0  0  0  0  0  0  0999 V2000
   20.3370   12.5941   57.8159 N   0  0  0  0  0  0  0  0  0  0  0  0
   18.9145   13.0262   57.8224 C   0  0  0  0  0  0  0  0  0  0  0  0
   17.9811   12.1581   57.3648 N   0  0  0  0  0  0  0  0  0  0  0  0
   20.6587   11.3381   57.2747 C   0  0  0  0  0  0  0  0  0  0  0  0
   18.6794   14.1729   58.2521 O   0  0  0  0  0  0  0  0  0  0  0  0
   19.6998   10.4959   56.8000 C   0  0  0  0  0  0  0  0  0  0  0  0
   18.2721   10.9054   56.8684 C   0  0  0  0  0  0  0  0  0  0  0  0
   17.3815   10.1180   56.4956 O   0  0  0  0  0  0  0  0  0  0  0  0
   22.0483   10.7231   57.2075 C   0  0  0  0  0  0  0  0  0  0  0  0
   21.8121    9.3427   56.5423 C   0  0  0  0  0  0  0  0  0  0  0  0
   20.2749    9.1818   56.3483 C   0  0  0  0  0  0  0  0  0  0  0  0
   17.0377   12.4387   57.3880 H   0  0  0  0  0  0  0  0  0  0  0  0
   21.3619   13.5308   58.2636 C   0  0  0  0  0  0  0  0  0  0  0  0
   21.2178   14.9156   57.5643 C   0  0  0  0  0  0  0  0  0  0  0  0
   22.1238   15.0141   56.3631 N   0  0  0  0  0  0  0  0  0  0  0  0
   23.0920   14.8818   56.6557 H   0  0  0  0  0  0  0  0  0  0  0  0
   22.0210   15.9338   55.9341 H   0  0  0  0  0  0  0  0  0  0  0  0
   21.3976   16.0004   58.6712 C   0  0  0  0  0  0  0  0  0  0  0  0
   20.5217   16.0973   59.5702 O   0  0  0  0  0  0  0  0  0  0  0  0
   22.4241   16.7436   58.5527 O   0  0  0  0  0  0  0  0  0  0  0  0
   19.7953   15.5057   59.5823 H   0  0  0  0  0  0  0  0  0  0  0  0
 13  1  1  0  0  0
 13 14  1  0  0  0
  1  2  1  0  0  0
  1  4  1  0  0  0
  2  3  1  0  0  0
  2  5  2  0  0  0
  3  7  1  0  0  0
  4  6  2  0  0  0
  4  9  1  0  0  0
  6  7  1  0  0  0
  6 11  1  0  0  0
  7  8  2  0  0  0
  9 10  1  0  0  0
 10 11  1  0  0  0
 14 18  1  0  0  0
 14 15  1  0  0  0
 18 19  1  0  0  0
 18 20  2  0  0  0
  3 12  1  0  0  0
 19 21  1  0  0  0
 15 16  1  0  0  0
 15 17  1  0  0  0
M  END
> <minimizedAffinity>
-6.43406

$$$$
