1SYI_CPW_A_381
  RCSB PDB12061704033D
Coordinates from PDB:1SYI:A:381 Model:1 without hydrogens
 17 18  0  0  0  0            999 V2000
   20.8260   14.5010   57.5680   C 0  0  0  0  0  0  0  0  0  0  0  0
   20.8810   13.0440   57.5190   N 0  0  0  0  0  0  0  0  0  0  0  0
   22.2080   12.3740   57.4970   C 0  0  0  0  0  0  0  0  0  0  0  0
   22.2400   11.0200   57.4930   N 0  0  0  0  0  0  0  0  0  0  0  0
   19.7250   12.2500   57.6040   C 0  0  0  0  0  0  0  0  0  0  0  0
   23.2100   13.1160   57.4860   O 0  0  0  0  0  0  0  0  0  0  0  0
   19.7900   10.8900   57.6220   C 0  0  0  0  0  0  0  0  0  0  0  0
   21.1160   10.2230   57.5340   C 0  0  0  0  0  0  0  0  0  0  0  0
   21.1840    8.9800   57.4860   O 0  0  0  0  0  0  0  0  0  0  0  0
   18.2910   12.7570   57.6120   C 0  0  0  0  0  0  0  0  0  0  0  0
   17.4400   11.4640   57.6990   C 0  0  0  0  0  0  0  0  0  0  0  0
   18.4250   10.2590   57.6340   C 0  0  0  0  0  0  0  0  0  0  0  0
   21.1450   15.0390   58.9950   C 0  0  0  0  0  0  0  0  0  0  0  0
   21.5240   16.5440   58.8350   C 0  0  0  0  0  0  0  0  0  0  0  0
   22.4710   16.8500   58.0640   O 0  0  0  0  0  0  0  0  0  0  0  0
   20.8510   17.3600   59.5430   O 0  0  0  0  0  0  0  0  0  0  0  0
   20.0300   14.7180   59.9580   N 0  0  0  0  0  0  0  0  0  0  0  0
  1  2  1  0  0  0  0
  1 13  1  0  0  0  0
  2  3  1  0  0  0  0
  2  5  1  0  0  0  0
  3  4  1  0  0  0  0
  3  6  2  0  0  0  0
  4  8  1  0  0  0  0
  5  7  2  0  0  0  0
  5 10  1  0  0  0  0
  7  8  1  0  0  0  0
  7 12  1  0  0  0  0
  8  9  2  0  0  0  0
 10 11  1  0  0  0  0
 11 12  1  0  0  0  0
 13 14  1  0  0  0  0
 13 17  1  0  0  0  0
 14 15  1  0  0  0  0
 14 16  2  0  0  0  0
A    1
C1
A    2
N1
A    3
C2
A    4
N2
A    5
C3
A    6
O1
A    7
C4
A    8
C5
A    9
O2
A   10
C6
A   11
C7
A   12
C8
A   13
C9
A   14
C10
A   15
O3
A   16
O4
A   17
N3
M  END
>  <InstanceId>
1SYI_CPW_A_381

>  <ChemCompId>
CPW

>  <PdbId>
1SYI

>  <ChainId>
A

>  <ResidueNumber>
381

>  <InsertionCode>


>  <Model>
1

>  <AltIds>


>  <MissingHeavyAtoms>
0

>  <ObservedFormula>
C10 N3 O4

>  <Name>
(S)-2-AMINO-3-(1,3,5,7-PENTAHYDRO-2,4-DIOXO-CYCLOPENTA[E]PYRIMIDIN-1-YL) PROIONIC ACID

>  <SystematicName>
(2S)-2-amino-3-(2,4-dioxo-6,7-dihydro-5H-cyclopenta[e]pyrimidin-1-yl)propanoic acid

>  <Synonyms>


>  <Type>
NON-POLYMER

>  <Formula>
C10 H13 N3 O4

>  <MolecularWeight>
239.228

>  <ModifiedDate>
2011-06-04

>  <Parent>


>  <OneLetterCode>


>  <SubcomponentList>


>  <AmbiguousFlag>
N

>  <InChI>
InChI=1S/C10H13N3O4/c11-6(9(15)16)4-13-7-3-1-2-5(7)8(14)12-10(13)17/h6H,1-4,11H2,(H,15,16)(H,12,14,17)/t6-/m0/s1

>  <InChIKey>
VSGUEKZRMJVQOH-LURJTMIESA-N

>  <SMILES>
C1CC2=C(C1)N(C(=O)NC2=O)C[C@@H](C(=O)O)N

$$$$
