1QYG_BCG_H_401
  RCSB PDB12061703493D
Coordinates from PDB:1QYG:H:401 Model:1 without hydrogens
 21 23  0  0  0  0            999 V2000
   22.4460   -1.2630   26.2590   C 0  0  0  0  0  0  0  0  0  0  0  0
   23.8230   -1.8700   25.8480   C 0  0  0  0  0  0  0  0  0  0  0  0
   23.7170   -2.3060   24.3540   C 0  0  0  0  0  0  0  0  0  0  0  0
   22.5100   -3.0750   23.9880   C 0  0  0  0  0  0  0  0  0  0  0  0
   21.2020   -2.3290   24.5660   C 0  0  0  0  0  0  0  0  0  0  0  0
   21.1570   -0.8370   24.1760   C 0  0  0  0  0  0  0  0  0  0  0  0
   22.0120   -0.0810   25.3480   C 0  0  0  0  0  0  0  0  0  0  0  0
   26.1290   -2.5320   24.0090   C 0  0  0  0  0  0  0  0  0  0  0  0
   27.1500   -3.5320   23.5930   C 0  0  0  0  0  0  0  0  0  0  0  0
   26.7740   -4.8540   23.1910   C 0  0  0  0  0  0  0  0  0  0  0  0
   27.8290   -5.7630   22.7520   C 0  0  0  0  0  0  0  0  0  0  0  0
   29.1740   -5.3220   22.7360   C 0  0  0  0  0  0  0  0  0  0  0  0
   29.5230   -3.9990   23.1720   C 0  0  0  0  0  0  0  0  0  0  0  0
   28.4870   -3.1350   23.5890   C 0  0  0  0  0  0  0  0  0  0  0  0
   24.2950   -3.0020   26.7720   C 0  0  0  0  0  0  0  0  0  0  0  0
   20.1090   -2.0540   26.8750   C 0  0  0  0  0  0  0  0  0  0  0  0
   21.3640   -2.3560   26.0570   N 0  0  0  0  0  0  0  0  0  0  0  0
   24.9230   -3.0250   23.9640   O 0  0  0  0  0  0  0  0  0  0  0  0
   26.4190   -1.3840   24.2890   O 0  0  0  0  0  0  0  0  0  0  0  0
   25.3480   -3.0990   27.3210   O 0  0  0  0  0  0  0  0  0  0  0  0
   23.3700   -3.9040   26.8580   O 0  0  0  0  0  0  0  0  0  0  0  0
  1  2  1  0  0  0  0
  1  7  1  0  0  0  0
  1 17  1  0  0  0  0
  2  3  1  0  0  0  0
  2 15  1  0  0  0  0
  3  4  1  0  0  0  0
  3 18  1  0  0  0  0
  4  5  1  0  0  0  0
  5  6  1  0  0  0  0
  5 17  1  0  0  0  0
  6  7  1  0  0  0  0
  8  9  1  0  0  0  0
  8 18  1  0  0  0  0
  8 19  2  0  0  0  0
  9 10  1  0  0  0  0
  9 14  2  0  0  0  0
 10 11  2  0  0  0  0
 11 12  1  0  0  0  0
 12 13  2  0  0  0  0
 13 14  1  0  0  0  0
 15 20  1  0  0  0  0
 15 21  2  0  0  0  0
 16 17  1  0  0  0  0
A    1
C1
A    2
C2
A    3
C3
A    4
C4
A    5
C5
A    6
C6
A    7
C7
A    8
C8
A    9
C9
A   10
C10
A   11
C11
A   12
C12
A   13
C13
A   14
C14
A   15
C15
A   16
C16
A   17
N1
A   18
O1
A   19
O2
A   20
O3
A   21
O4
M  END
>  <InstanceId>
1QYG_BCG_H_401

>  <ChemCompId>
BCG

>  <PdbId>
1QYG

>  <ChainId>
H

>  <ResidueNumber>
401

>  <InsertionCode>


>  <Model>
1

>  <AltIds>


>  <MissingHeavyAtoms>
0

>  <ObservedFormula>
C16 N O4

>  <Name>
3-(BENZOYLOXY)-8-METHYL-8-AZABICYCLO[3.2.1]OCTANE-2-CARBOXYLIC ACID

>  <SystematicName>
(1R,2R,3S,5S,8S)-8-methyl-3-(phenylcarbonyloxy)-8-azabicyclo[3.2.1]octane-2-carboxylic acid

>  <Synonyms>
BENZOYLECGONINE

>  <Type>
NON-POLYMER

>  <Formula>
C16 H19 N O4

>  <MolecularWeight>
289.326

>  <ModifiedDate>
2011-06-04

>  <Parent>


>  <OneLetterCode>


>  <SubcomponentList>


>  <AmbiguousFlag>
N

>  <InChI>
InChI=1S/C16H19NO4/c1-17-11-7-8-12(17)14(15(18)19)13(9-11)21-16(20)10-5-3-2-4-6-10/h2-6,11-14H,7-9H2,1H3,(H,18,19)/t11-,12+,13-,14+/m0/s1

>  <InChIKey>
GVGYEFKIHJTNQZ-RFQIPJPRSA-N

>  <SMILES>
C[N@]1[C@H]2CC[C@@H]1[C@H]([C@H](C2)OC(=O)c3ccccc3)C(=O)O

$$$$
