3B25_B2K_A_1
  RCSB PDB12061707583D
Coordinates from PDB:3B25:A:1 Model:1 without hydrogens
 18 19  0  0  0  0            999 V2000
   63.7690   13.5020   25.2690   C 0  0  0  0  0  0  0  0  0  0  0  0
   63.1950   14.7200   24.9000   C 0  0  0  0  0  0  0  0  0  0  0  0
   62.1550   14.7630   23.9570   C 0  0  0  0  0  0  0  0  0  0  0  0
   61.5710   16.1120   23.5430   C 0  0  0  0  0  0  0  0  0  0  0  0
   61.6720   13.5830   23.3850   C 0  0  0  0  0  0  0  0  0  0  0  0
   62.2190   12.3600   23.8020   C 0  0  0  0  0  0  0  0  0  0  0  0
   63.2840   12.3250   24.7120   C 0  0  0  0  0  0  0  0  0  0  0  0
   64.0120   10.7840   25.1820   S 0  0  0  0  0  0  0  0  0  0  0  0
   63.1540    9.6790   24.6380   O 0  0  0  0  0  0  0  0  0  0  0  0
   64.0950   10.7180   26.6780   O 0  0  0  0  0  0  0  0  0  0  0  0
   65.6530   10.7280   24.5230   C 0  0  0  0  0  0  0  0  0  0  0  0
   66.6820   11.2610   25.2270   N 0  0  0  0  0  0  0  0  0  0  0  0
   65.8780   10.2000   23.2470   C 0  0  0  0  0  0  0  0  0  0  0  0
   67.1860   10.1630   22.7690   C 0  0  0  0  0  0  0  0  0  0  0  0
   67.4740    9.5680   21.3810   C 0  0  0  0  0  0  0  0  0  0  0  0
   68.1910   10.7140   23.4910   N 0  0  0  0  0  0  0  0  0  0  0  0
   67.9480   11.2170   24.7230   C 0  0  0  0  0  0  0  0  0  0  0  0
   68.9740   11.6660   25.4190   N 0  0  0  0  0  0  0  0  0  0  0  0
  1  2  2  0  0  0  0
  1  7  1  0  0  0  0
  2  3  1  0  0  0  0
  3  4  1  0  0  0  0
  3  5  2  0  0  0  0
  5  6  1  0  0  0  0
  6  7  2  0  0  0  0
  7  8  1  0  0  0  0
  8  9  2  0  0  0  0
  8 10  2  0  0  0  0
  8 11  1  0  0  0  0
 11 12  2  0  0  0  0
 11 13  1  0  0  0  0
 12 17  1  0  0  0  0
 13 14  2  0  0  0  0
 14 15  1  0  0  0  0
 14 16  1  0  0  0  0
 16 17  2  0  0  0  0
 17 18  1  0  0  0  0
A    1
C1
A    2
C2
A    3
C3
A    4
C4
A    5
C5
A    6
C6
A    7
C7
A    8
S8
A    9
O9
A   10
O10
A   11
C11
A   12
N12
A   13
C13
A   14
C14
A   15
C15
A   16
N16
A   17
C17
A   18
N18
M  END
>  <InstanceId>
3B25_B2K_A_1

>  <ChemCompId>
B2K

>  <PdbId>
3B25

>  <ChainId>
A

>  <ResidueNumber>
1

>  <InsertionCode>


>  <Model>
1

>  <AltIds>


>  <MissingHeavyAtoms>
0

>  <ObservedFormula>
C12 N3 O2 S

>  <Name>
4-Methyl-6-(toluene-4-sulfonyl)-pyrimidin-2-ylamine

>  <SystematicName>
4-methyl-6-(4-methylphenyl)sulfonyl-pyrimidin-2-amine

>  <Synonyms>


>  <Type>
NON-POLYMER

>  <Formula>
C12 H13 N3 O2 S

>  <MolecularWeight>
263.316

>  <ModifiedDate>
2011-09-09

>  <Parent>


>  <OneLetterCode>


>  <SubcomponentList>


>  <AmbiguousFlag>
N

>  <InChI>
InChI=1S/C12H13N3O2S/c1-8-3-5-10(6-4-8)18(16,17)11-7-9(2)14-12(13)15-11/h3-7H,1-2H3,(H2,13,14,15)

>  <InChIKey>
XUOYIZBDMDPDEJ-UHFFFAOYSA-N

>  <SMILES>
Cc1ccc(cc1)S(=O)(=O)c2cc(nc(n2)N)C

$$$$
