186L_N4B_A_400
  RCSB PDB12061701563D
Coordinates from PDB:186L:A:400 Model:1 without hydrogens
 10 10  0  0  0  0            999 V2000
   27.5330    7.0610    3.9520   C 0  0  0  0  0  0  0  0  0  0  0  0
   26.9940    7.0690    5.2570   C 0  0  0  0  0  0  0  0  0  0  0  0
   26.1900    6.0370    5.6740   C 0  0  0  0  0  0  0  0  0  0  0  0
   25.8970    5.0000    4.8010   C 0  0  0  0  0  0  0  0  0  0  0  0
   26.4420    4.9870    3.5500   C 0  0  0  0  0  0  0  0  0  0  0  0
   27.2550    6.0160    3.1200   C 0  0  0  0  0  0  0  0  0  0  0  0
   28.3470    8.2100    3.4230   C 0  0  0  0  0  0  0  0  0  0  0  0
   27.4170    9.3750    3.0960   C 0  0  0  0  0  0  0  0  0  0  0  0
   26.6450    9.1420    1.8090   C 0  0  0  0  0  0  0  0  0  0  0  0
   27.5330    9.0850    0.6020   C 0  0  0  0  0  0  0  0  0  0  0  0
  1  2  2  0  0  0  0
  1  6  1  0  0  0  0
  1  7  1  0  0  0  0
  2  3  1  0  0  0  0
  3  4  2  0  0  0  0
  4  5  1  0  0  0  0
  5  6  2  0  0  0  0
  7  8  1  0  0  0  0
  8  9  1  0  0  0  0
  9 10  1  0  0  0  0
A    1
C1
A    2
C2
A    3
C3
A    4
C4
A    5
C5
A    6
C6
A    7
C1'
A    8
C2'
A    9
C3'
A   10
C4'
M  END
>  <InstanceId>
186L_N4B_A_400

>  <ChemCompId>
N4B

>  <PdbId>
186L

>  <ChainId>
A

>  <ResidueNumber>
400

>  <InsertionCode>


>  <Model>
1

>  <AltIds>


>  <MissingHeavyAtoms>
0

>  <ObservedFormula>
C10

>  <Name>
N-BUTYLBENZENE

>  <SystematicName>
butylbenzene

>  <Synonyms>


>  <Type>
NON-POLYMER

>  <Formula>
C10 H14

>  <MolecularWeight>
134.218

>  <ModifiedDate>
2011-06-04

>  <Parent>


>  <OneLetterCode>


>  <SubcomponentList>


>  <AmbiguousFlag>
N

>  <InChI>
InChI=1S/C10H14/c1-2-3-7-10-8-5-4-6-9-10/h4-6,8-9H,2-3,7H2,1H3

>  <InChIKey>
OCKPCBLVNKHBMX-UHFFFAOYSA-N

>  <SMILES>
CCCCc1ccccc1

$$$$
