6F90_MVL_A_802


 18 19  0  0  0  0  0  0  0  0999 V2000
   21.9835  125.1635   -9.5977 C   0  0  0  0  0  0  0  0  0  0  0  0
   21.0461  124.5468   -8.8542 N   0  0  0  0  0  0  0  0  0  0  0  0
   22.8373  122.9934  -10.5119 C   0  0  0  0  0  0  0  0  0  0  0  0
   22.0029  122.3754   -9.3856 C   0  0  0  0  0  0  0  0  0  0  0  0
   20.7187  123.1200   -9.0197 C   0  0  0  0  0  0  0  0  0  0  0  0
   21.1471  126.6386   -8.2293 C   0  0  0  0  0  0  0  0  0  0  0  0
   20.5174  125.4336   -7.9990 C   0  0  0  0  0  0  0  0  0  0  0  0
   22.0494  126.4442   -9.2233 N   0  0  0  0  0  0  0  0  0  0  0  0
   24.2050  122.6247  -10.2871 O   0  0  0  0  0  0  0  0  0  0  0  0
   24.1067  125.0655  -10.7771 O   0  0  0  0  0  0  0  0  0  0  0  0
   21.6336  121.0595   -9.8058 O   0  0  0  0  0  0  0  0  0  0  0  0
   22.7800  124.5181  -10.6791 C   0  0  0  0  0  0  0  0  0  0  0  0
   24.5114  123.0125   -9.4525 H   0  0  0  0  0  0  0  0  0  0  0  0
   24.0522  126.0282  -10.8822 H   0  0  0  0  0  0  0  0  0  0  0  0
   21.0813  121.1171  -10.6011 H   0  0  0  0  0  0  0  0  0  0  0  0
   20.0996  122.5568   -7.7536 C   0  0  0  0  0  0  0  0  0  0  0  0
   21.0635  121.8312   -6.9880 O   0  0  0  0  0  0  0  0  0  0  0  0
   21.4008  121.0886   -7.5130 H   0  0  0  0  0  0  0  0  0  0  0  0
  1  2  1  0  0  0
  1  8  2  0  0  0
  1 12  1  0  0  0
  2  5  1  0  0  0
  2  7  1  0  0  0
  3  4  1  0  0  0
  3  9  1  0  0  0
  3 12  1  0  0  0
  4  5  1  0  0  0
  4 11  1  0  0  0
  5 16  1  0  0  0
 16 17  1  0  0  0
  6  7  2  0  0  0
  6  8  1  0  0  0
 10 12  1  0  0  0
  9 13  1  0  0  0
 10 14  1  0  0  0
 11 15  1  0  0  0
 17 18  1  0  0  0
M  END
> <minimizedAffinity>
-7.98359

$$$$
6F90_MVL_A_802


 18 19  0  0  0  0  0  0  0  0999 V2000
   21.0996  124.9996   -8.3719 C   0  0  0  0  0  0  0  0  0  0  0  0
   20.8345  123.7560   -8.8134 N   0  0  0  0  0  0  0  0  0  0  0  0
   23.4037  124.9710   -9.3541 C   0  0  0  0  0  0  0  0  0  0  0  0
   23.1501  123.4670   -9.4968 C   0  0  0  0  0  0  0  0  0  0  0  0
   21.7038  123.0568   -9.7755 C   0  0  0  0  0  0  0  0  0  0  0  0
   19.2555  124.3375   -7.4188 C   0  0  0  0  0  0  0  0  0  0  0  0
   19.7041  123.3226   -8.2375 C   0  0  0  0  0  0  0  0  0  0  0  0
   20.1367  125.3636   -7.5204 N   0  0  0  0  0  0  0  0  0  0  0  0
   24.5380  125.1369   -8.4922 O   0  0  0  0  0  0  0  0  0  0  0  0
   22.7349  126.6853   -7.7450 O   0  0  0  0  0  0  0  0  0  0  0  0
   23.9476  123.0054  -10.5902 O   0  0  0  0  0  0  0  0  0  0  0  0
   22.2594  125.8313   -8.8004 C   0  0  0  0  0  0  0  0  0  0  0  0
   24.3268  124.7931   -7.6101 H   0  0  0  0  0  0  0  0  0  0  0  0
   22.0003  127.2211   -7.4070 H   0  0  0  0  0  0  0  0  0  0  0  0
   23.6616  123.4439  -11.4068 H   0  0  0  0  0  0  0  0  0  0  0  0
   21.5296  121.5529   -9.6680 C   0  0  0  0  0  0  0  0  0  0  0  0
   22.3825  121.0066   -8.6600 O   0  0  0  0  0  0  0  0  0  0  0  0
   23.3082  121.1858   -8.8877 H   0  0  0  0  0  0  0  0  0  0  0  0
  1  2  1  0  0  0
  1  8  2  0  0  0
  1 12  1  0  0  0
  2  5  1  0  0  0
  2  7  1  0  0  0
  3  4  1  0  0  0
  3  9  1  0  0  0
  3 12  1  0  0  0
  4  5  1  0  0  0
  4 11  1  0  0  0
  5 16  1  0  0  0
 16 17  1  0  0  0
  6  7  2  0  0  0
  6  8  1  0  0  0
 10 12  1  0  0  0
  9 13  1  0  0  0
 10 14  1  0  0  0
 11 15  1  0  0  0
 17 18  1  0  0  0
M  END
> <minimizedAffinity>
-7.39302

$$$$
6F90_MVL_A_802


 18 19  0  0  0  0  0  0  0  0999 V2000
   20.5997  123.7775   -7.9745 C   0  0  0  0  0  0  0  0  0  0  0  0
   21.4256  124.7603   -8.3794 N   0  0  0  0  0  0  0  0  0  0  0  0
   21.9388  122.0212   -9.1564 C   0  0  0  0  0  0  0  0  0  0  0  0
   22.5972  123.2181   -9.8497 C   0  0  0  0  0  0  0  0  0  0  0  0
   22.7296  124.4878   -9.0083 C   0  0  0  0  0  0  0  0  0  0  0  0
   19.6404  125.6795   -7.5167 C   0  0  0  0  0  0  0  0  0  0  0  0
   20.8557  125.9439   -8.1122 C   0  0  0  0  0  0  0  0  0  0  0  0
   19.5065  124.3317   -7.4432 N   0  0  0  0  0  0  0  0  0  0  0  0
   21.3138  121.2249  -10.1724 O   0  0  0  0  0  0  0  0  0  0  0  0
   19.6988  121.5438   -8.3023 O   0  0  0  0  0  0  0  0  0  0  0  0
   23.9147  122.8140  -10.2310 O   0  0  0  0  0  0  0  0  0  0  0  0
   20.8892  122.3193   -8.0769 C   0  0  0  0  0  0  0  0  0  0  0  0
   20.6088  121.7381  -10.5973 H   0  0  0  0  0  0  0  0  0  0  0  0
   19.0470  121.7440   -7.6124 H   0  0  0  0  0  0  0  0  0  0  0  0
   24.4289  122.5978   -9.4374 H   0  0  0  0  0  0  0  0  0  0  0  0
   23.1772  125.6640   -9.8567 C   0  0  0  0  0  0  0  0  0  0  0  0
   24.5875  125.6280  -10.0837 O   0  0  0  0  0  0  0  0  0  0  0  0
   25.0531  125.6766   -9.2341 H   0  0  0  0  0  0  0  0  0  0  0  0
  1  2  1  0  0  0
  1  8  2  0  0  0
  1 12  1  0  0  0
  2  5  1  0  0  0
  2  7  1  0  0  0
  3  4  1  0  0  0
  3  9  1  0  0  0
  3 12  1  0  0  0
  4  5  1  0  0  0
  4 11  1  0  0  0
  5 16  1  0  0  0
 16 17  1  0  0  0
  6  7  2  0  0  0
  6  8  1  0  0  0
 10 12  1  0  0  0
  9 13  1  0  0  0
 10 14  1  0  0  0
 11 15  1  0  0  0
 17 18  1  0  0  0
M  END
> <minimizedAffinity>
-7.28695

$$$$
6F90_MVL_A_802


 18 19  0  0  0  0  0  0  0  0999 V2000
   22.2138  122.8643   -8.5412 C   0  0  0  0  0  0  0  0  0  0  0  0
   21.1828  123.5201   -7.9767 N   0  0  0  0  0  0  0  0  0  0  0  0
   22.9137  124.8792   -9.8545 C   0  0  0  0  0  0  0  0  0  0  0  0
   21.5387  125.4208   -9.4509 C   0  0  0  0  0  0  0  0  0  0  0  0
   21.0235  124.9809   -8.0802 C   0  0  0  0  0  0  0  0  0  0  0  0
   20.9638  121.3912   -7.5336 C   0  0  0  0  0  0  0  0  0  0  0  0
   20.3942  122.6338   -7.3521 C   0  0  0  0  0  0  0  0  0  0  0  0
   22.0885  121.5617   -8.2724 N   0  0  0  0  0  0  0  0  0  0  0  0
   22.9458  124.8092  -11.2866 O   0  0  0  0  0  0  0  0  0  0  0  0
   23.8101  122.6627  -10.3633 O   0  0  0  0  0  0  0  0  0  0  0  0
   21.6330  126.8475   -9.4386 O   0  0  0  0  0  0  0  0  0  0  0  0
   23.3213  123.5053   -9.3048 C   0  0  0  0  0  0  0  0  0  0  0  0
   22.2814  124.1729  -11.5942 H   0  0  0  0  0  0  0  0  0  0  0  0
   24.0629  121.7999   -9.9991 H   0  0  0  0  0  0  0  0  0  0  0  0
   22.2799  127.1231   -8.7704 H   0  0  0  0  0  0  0  0  0  0  0  0
   19.5727  125.3820   -7.8849 C   0  0  0  0  0  0  0  0  0  0  0  0
   19.4722  126.6448   -7.2239 O   0  0  0  0  0  0  0  0  0  0  0  0
   19.8875  126.5859   -6.3492 H   0  0  0  0  0  0  0  0  0  0  0  0
  1  2  1  0  0  0
  1  8  2  0  0  0
  1 12  1  0  0  0
  2  5  1  0  0  0
  2  7  1  0  0  0
  3  4  1  0  0  0
  3  9  1  0  0  0
  3 12  1  0  0  0
  4  5  1  0  0  0
  4 11  1  0  0  0
  5 16  1  0  0  0
 16 17  1  0  0  0
  6  7  2  0  0  0
  6  8  1  0  0  0
 10 12  1  0  0  0
  9 13  1  0  0  0
 10 14  1  0  0  0
 11 15  1  0  0  0
 17 18  1  0  0  0
M  END
> <minimizedAffinity>
-7.08736

$$$$
6F90_MVL_A_802


 18 19  0  0  0  0  0  0  0  0999 V2000
   22.0664  122.8996   -9.6307 C   0  0  0  0  0  0  0  0  0  0  0  0
   21.9092  124.2363   -9.6137 N   0  0  0  0  0  0  0  0  0  0  0  0
   20.2710  122.5607   -7.9172 C   0  0  0  0  0  0  0  0  0  0  0  0
   20.4118  124.0712   -7.7050 C   0  0  0  0  0  0  0  0  0  0  0  0
   20.7704  124.8897   -8.9456 C   0  0  0  0  0  0  0  0  0  0  0  0
   23.7343  123.7766  -10.7247 C   0  0  0  0  0  0  0  0  0  0  0  0
   22.9271  124.8016  -10.2783 C   0  0  0  0  0  0  0  0  0  0  0  0
   23.1793  122.6102  -10.3108 N   0  0  0  0  0  0  0  0  0  0  0  0
   20.5949  121.9190   -6.6762 O   0  0  0  0  0  0  0  0  0  0  0  0
   21.8061  120.7551   -8.5162 O   0  0  0  0  0  0  0  0  0  0  0  0
   19.1540  124.5496   -7.2215 O   0  0  0  0  0  0  0  0  0  0  0  0
   21.1261  121.9189   -9.0186 C   0  0  0  0  0  0  0  0  0  0  0  0
   21.5223  122.0957   -6.4533 H   0  0  0  0  0  0  0  0  0  0  0  0
   22.3409  120.3626   -9.2238 H   0  0  0  0  0  0  0  0  0  0  0  0
   18.4703  124.3961   -7.8922 H   0  0  0  0  0  0  0  0  0  0  0  0
   21.1086  126.3230   -8.5785 C   0  0  0  0  0  0  0  0  0  0  0  0
   20.4781  127.2452   -9.4695 O   0  0  0  0  0  0  0  0  0  0  0  0
   20.7902  127.0856  -10.3740 H   0  0  0  0  0  0  0  0  0  0  0  0
  1  2  1  0  0  0
  1  8  2  0  0  0
  1 12  1  0  0  0
  2  5  1  0  0  0
  2  7  1  0  0  0
  3  4  1  0  0  0
  3  9  1  0  0  0
  3 12  1  0  0  0
  4  5  1  0  0  0
  4 11  1  0  0  0
  5 16  1  0  0  0
 16 17  1  0  0  0
  6  7  2  0  0  0
  6  8  1  0  0  0
 10 12  1  0  0  0
  9 13  1  0  0  0
 10 14  1  0  0  0
 11 15  1  0  0  0
 17 18  1  0  0  0
M  END
> <minimizedAffinity>
-6.85298

$$$$
6F90_MVL_A_802


 18 19  0  0  0  0  0  0  0  0999 V2000
   22.4740  124.8909   -9.4604 C   0  0  0  0  0  0  0  0  0  0  0  0
   22.4182  123.5607   -9.2626 N   0  0  0  0  0  0  0  0  0  0  0  0
   20.6534  125.3215   -7.7947 C   0  0  0  0  0  0  0  0  0  0  0  0
   20.4189  123.8114   -7.9015 C   0  0  0  0  0  0  0  0  0  0  0  0
   21.6628  122.9580   -8.1507 C   0  0  0  0  0  0  0  0  0  0  0  0
   23.6566  123.9387  -11.0232 C   0  0  0  0  0  0  0  0  0  0  0  0
   23.1363  122.9495  -10.2155 C   0  0  0  0  0  0  0  0  0  0  0  0
   23.2320  125.1304  -10.5341 N   0  0  0  0  0  0  0  0  0  0  0  0
   19.4504  125.9757   -8.2206 O   0  0  0  0  0  0  0  0  0  0  0  0
   21.3905  127.0637   -9.3427 O   0  0  0  0  0  0  0  0  0  0  0  0
   19.8434  123.3840   -6.6643 O   0  0  0  0  0  0  0  0  0  0  0  0
   21.8222  125.9135   -8.5944 C   0  0  0  0  0  0  0  0  0  0  0  0
   19.2854  125.7729   -9.1548 H   0  0  0  0  0  0  0  0  0  0  0  0
   22.1400  127.4248   -9.8414 H   0  0  0  0  0  0  0  0  0  0  0  0
   20.4707  123.5471   -5.9425 H   0  0  0  0  0  0  0  0  0  0  0  0
   21.2883  121.5216   -8.4671 C   0  0  0  0  0  0  0  0  0  0  0  0
   22.2363  120.6081   -7.9116 O   0  0  0  0  0  0  0  0  0  0  0  0
   23.1122  120.7803   -8.2913 H   0  0  0  0  0  0  0  0  0  0  0  0
  1  2  1  0  0  0
  1  8  2  0  0  0
  1 12  1  0  0  0
  2  5  1  0  0  0
  2  7  1  0  0  0
  3  4  1  0  0  0
  3  9  1  0  0  0
  3 12  1  0  0  0
  4  5  1  0  0  0
  4 11  1  0  0  0
  5 16  1  0  0  0
 16 17  1  0  0  0
  6  7  2  0  0  0
  6  8  1  0  0  0
 10 12  1  0  0  0
  9 13  1  0  0  0
 10 14  1  0  0  0
 11 15  1  0  0  0
 17 18  1  0  0  0
M  END
> <minimizedAffinity>
-6.74055

$$$$
6F90_MVL_A_802


 18 19  0  0  0  0  0  0  0  0999 V2000
   21.0946  123.2200   -8.2586 C   0  0  0  0  0  0  0  0  0  0  0  0
   21.0950  124.5657   -8.2314 N   0  0  0  0  0  0  0  0  0  0  0  0
   23.0688  123.1453   -9.7987 C   0  0  0  0  0  0  0  0  0  0  0  0
   22.7722  124.6359   -9.9906 C   0  0  0  0  0  0  0  0  0  0  0  0
   22.2066  125.3668   -8.7726 C   0  0  0  0  0  0  0  0  0  0  0  0
   19.2412  123.8638   -7.3111 C   0  0  0  0  0  0  0  0  0  0  0  0
   19.9607  124.9886   -7.6555 C   0  0  0  0  0  0  0  0  0  0  0  0
   19.9651  122.7828   -7.6950 N   0  0  0  0  0  0  0  0  0  0  0  0
   22.9389  122.5118  -11.0788 O   0  0  0  0  0  0  0  0  0  0  0  0
   21.7069  121.1571   -9.3894 O   0  0  0  0  0  0  0  0  0  0  0  0
   24.0047  125.2708  -10.3406 O   0  0  0  0  0  0  0  0  0  0  0  0
   22.1962  122.3741   -8.7988 C   0  0  0  0  0  0  0  0  0  0  0  0
   22.0219  122.5882  -11.3858 H   0  0  0  0  0  0  0  0  0  0  0  0
   21.1583  120.6829   -8.7451 H   0  0  0  0  0  0  0  0  0  0  0  0
   24.6365  125.1748   -9.6108 H   0  0  0  0  0  0  0  0  0  0  0  0
   21.7383  126.7632   -9.1393 C   0  0  0  0  0  0  0  0  0  0  0  0
   21.9589  127.6789   -8.0648 O   0  0  0  0  0  0  0  0  0  0  0  0
   21.4585  127.3898   -7.2857 H   0  0  0  0  0  0  0  0  0  0  0  0
  1  2  1  0  0  0
  1  8  2  0  0  0
  1 12  1  0  0  0
  2  5  1  0  0  0
  2  7  1  0  0  0
  3  4  1  0  0  0
  3  9  1  0  0  0
  3 12  1  0  0  0
  4  5  1  0  0  0
  4 11  1  0  0  0
  5 16  1  0  0  0
 16 17  1  0  0  0
  6  7  2  0  0  0
  6  8  1  0  0  0
 10 12  1  0  0  0
  9 13  1  0  0  0
 10 14  1  0  0  0
 11 15  1  0  0  0
 17 18  1  0  0  0
M  END
> <minimizedAffinity>
-6.50179

$$$$
6F90_MVL_A_802


 18 19  0  0  0  0  0  0  0  0999 V2000
   20.3976  123.5467   -8.1329 C   0  0  0  0  0  0  0  0  0  0  0  0
   21.6341  123.6010   -8.6617 N   0  0  0  0  0  0  0  0  0  0  0  0
   20.1003  126.0279   -8.3052 C   0  0  0  0  0  0  0  0  0  0  0  0
   21.6120  126.0301   -8.5533 C   0  0  0  0  0  0  0  0  0  0  0  0
   22.1684  124.8169   -9.2992 C   0  0  0  0  0  0  0  0  0  0  0  0
   21.3249  121.5952   -7.8509 C   0  0  0  0  0  0  0  0  0  0  0  0
   22.2293  122.4110   -8.4973 C   0  0  0  0  0  0  0  0  0  0  0  0
   20.1997  122.3220   -7.6372 N   0  0  0  0  0  0  0  0  0  0  0  0
   19.8577  126.7917   -7.1158 O   0  0  0  0  0  0  0  0  0  0  0  0
   18.5761  124.6602   -6.9706 O   0  0  0  0  0  0  0  0  0  0  0  0
   21.9109  127.1904   -9.3337 O   0  0  0  0  0  0  0  0  0  0  0  0
   19.4131  124.6653   -8.1405 C   0  0  0  0  0  0  0  0  0  0  0  0
   20.2768  126.3532   -6.3589 H   0  0  0  0  0  0  0  0  0  0  0  0
   18.1501  123.7932   -6.8816 H   0  0  0  0  0  0  0  0  0  0  0  0
   21.4592  127.1294  -10.1899 H   0  0  0  0  0  0  0  0  0  0  0  0
   23.6861  124.8128   -9.2849 C   0  0  0  0  0  0  0  0  0  0  0  0
   24.2135  125.4990  -10.4220 O   0  0  0  0  0  0  0  0  0  0  0  0
   23.9199  125.0545  -11.2327 H   0  0  0  0  0  0  0  0  0  0  0  0
  1  2  1  0  0  0
  1  8  2  0  0  0
  1 12  1  0  0  0
  2  5  1  0  0  0
  2  7  1  0  0  0
  3  4  1  0  0  0
  3  9  1  0  0  0
  3 12  1  0  0  0
  4  5  1  0  0  0
  4 11  1  0  0  0
  5 16  1  0  0  0
 16 17  1  0  0  0
  6  7  2  0  0  0
  6  8  1  0  0  0
 10 12  1  0  0  0
  9 13  1  0  0  0
 10 14  1  0  0  0
 11 15  1  0  0  0
 17 18  1  0  0  0
M  END
> <minimizedAffinity>
-6.35223

$$$$
6F90_MVL_A_802


 18 19  0  0  0  0  0  0  0  0999 V2000
   20.4363  124.1903   -7.8821 C   0  0  0  0  0  0  0  0  0  0  0  0
   21.2797  123.3400   -8.4965 N   0  0  0  0  0  0  0  0  0  0  0  0
   21.5489  126.1928   -8.8956 C   0  0  0  0  0  0  0  0  0  0  0  0
   22.6563  125.1964   -9.2528 C   0  0  0  0  0  0  0  0  0  0  0  0
   22.1979  123.7715   -9.5648 C   0  0  0  0  0  0  0  0  0  0  0  0
   20.1423  122.2171   -7.0060 C   0  0  0  0  0  0  0  0  0  0  0  0
   21.1214  122.1166   -7.9718 C   0  0  0  0  0  0  0  0  0  0  0  0
   19.7350  123.5104   -6.9708 N   0  0  0  0  0  0  0  0  0  0  0  0
   22.1245  127.1873   -8.0375 O   0  0  0  0  0  0  0  0  0  0  0  0
   19.9720  126.4236   -7.0421 O   0  0  0  0  0  0  0  0  0  0  0  0
   23.3198  125.7000  -10.4150 O   0  0  0  0  0  0  0  0  0  0  0  0
   20.2960  125.6387   -8.2032 C   0  0  0  0  0  0  0  0  0  0  0  0
   22.4181  126.7713   -7.2119 H   0  0  0  0  0  0  0  0  0  0  0  0
   19.1792  126.0604   -6.6173 H   0  0  0  0  0  0  0  0  0  0  0  0
   22.6925  125.7398  -11.1537 H   0  0  0  0  0  0  0  0  0  0  0  0
   23.3804  122.8266   -9.6758 C   0  0  0  0  0  0  0  0  0  0  0  0
   24.2021  123.1597  -10.7964 O   0  0  0  0  0  0  0  0  0  0  0  0
   23.6820  123.0864  -11.6119 H   0  0  0  0  0  0  0  0  0  0  0  0
  1  2  1  0  0  0
  1  8  2  0  0  0
  1 12  1  0  0  0
  2  5  1  0  0  0
  2  7  1  0  0  0
  3  4  1  0  0  0
  3  9  1  0  0  0
  3 12  1  0  0  0
  4  5  1  0  0  0
  4 11  1  0  0  0
  5 16  1  0  0  0
 16 17  1  0  0  0
  6  7  2  0  0  0
  6  8  1  0  0  0
 10 12  1  0  0  0
  9 13  1  0  0  0
 10 14  1  0  0  0
 11 15  1  0  0  0
 17 18  1  0  0  0
M  END
> <minimizedAffinity>
-6.30308

$$$$
6F90_MVL_A_802


 18 19  0  0  0  0  0  0  0  0999 V2000
   21.8825  124.1128   -8.9146 C   0  0  0  0  0  0  0  0  0  0  0  0
   20.7007  123.8257   -8.3377 N   0  0  0  0  0  0  0  0  0  0  0  0
   21.6849  126.5461   -8.3538 C   0  0  0  0  0  0  0  0  0  0  0  0
   20.2251  126.1931   -8.0517 C   0  0  0  0  0  0  0  0  0  0  0  0
   19.9787  124.7919   -7.4919 C   0  0  0  0  0  0  0  0  0  0  0  0
   21.3501  122.0753   -9.4739 C   0  0  0  0  0  0  0  0  0  0  0  0
   20.3476  122.5759   -8.6702 C   0  0  0  0  0  0  0  0  0  0  0  0
   22.2877  123.0461   -9.6093 N   0  0  0  0  0  0  0  0  0  0  0  0
   21.6841  127.5142   -9.4119 O   0  0  0  0  0  0  0  0  0  0  0  0
   23.3556  125.7464   -9.9489 O   0  0  0  0  0  0  0  0  0  0  0  0
   19.7542  127.1335   -7.0830 O   0  0  0  0  0  0  0  0  0  0  0  0
   22.6193  125.3992   -8.7629 C   0  0  0  0  0  0  0  0  0  0  0  0
   21.3097  127.1166  -10.2136 H   0  0  0  0  0  0  0  0  0  0  0  0
   23.9402  125.0119  -10.1932 H   0  0  0  0  0  0  0  0  0  0  0  0
   20.2681  127.0405   -6.2656 H   0  0  0  0  0  0  0  0  0  0  0  0
   18.4958  124.4710   -7.4494 C   0  0  0  0  0  0  0  0  0  0  0  0
   17.7179  125.5666   -7.9355 O   0  0  0  0  0  0  0  0  0  0  0  0
   17.8724  126.3453   -7.3781 H   0  0  0  0  0  0  0  0  0  0  0  0
  1  2  1  0  0  0
  1  8  2  0  0  0
  1 12  1  0  0  0
  2  5  1  0  0  0
  2  7  1  0  0  0
  3  4  1  0  0  0
  3  9  1  0  0  0
  3 12  1  0  0  0
  4  5  1  0  0  0
  4 11  1  0  0  0
  5 16  1  0  0  0
 16 17  1  0  0  0
  6  7  2  0  0  0
  6  8  1  0  0  0
 10 12  1  0  0  0
  9 13  1  0  0  0
 10 14  1  0  0  0
 11 15  1  0  0  0
 17 18  1  0  0  0
M  END
> <minimizedAffinity>
-5.94373

$$$$
