3MMF_D9H_A_263
  RCSB PDB12061709463D
Coordinates from PDB:3MMF:A:263 Model:1 without hydrogens
 22 23  0  0  0  0            999 V2000
   -5.3320    2.0580   15.7700   C 0  0  0  0  0  0  0  0  0  0  0  0
   -5.4280   -0.5910   16.0780   N 0  0  0  0  0  0  0  0  0  0  0  0
   -7.3950    0.8770   16.6480   O 0  0  0  0  0  0  0  0  0  0  0  0
   -5.9260    0.7330   16.7560   S 0  0  0  0  0  0  0  0  0  0  0  0
   -6.1360    3.0940   15.3830   C 0  0  0  0  0  0  0  0  0  0  0  0
   -5.3620    0.9630   18.0380   O 0  0  0  0  0  0  0  0  0  0  0  0
   -5.6090    4.2180   14.5900   C 0  0  0  0  0  0  0  0  0  0  0  0
   -4.2870    4.1770   14.2510   C 0  0  0  0  0  0  0  0  0  0  0  0
   -3.4210    3.0800   14.6580   C 0  0  0  0  0  0  0  0  0  0  0  0
   -3.9240    2.0480   15.3760   C 0  0  0  0  0  0  0  0  0  0  0  0
   -3.6130    5.1780   13.5450   N 0  0  0  0  0  0  0  0  0  0  0  0
   -4.1860    6.1400   12.7300   C 0  0  0  0  0  0  0  0  0  0  0  0
   -3.3100    6.9740   12.1470   N 0  0  0  0  0  0  0  0  0  0  0  0
   -3.7650    7.9520   11.3660   C 0  0  0  0  0  0  0  0  0  0  0  0
   -2.8540    8.8520   10.7410   N 0  0  0  0  0  0  0  0  0  0  0  0
   -5.0790    8.1110   11.2030   N 0  0  0  0  0  0  0  0  0  0  0  0
   -5.9240    7.2630   11.7920   C 0  0  0  0  0  0  0  0  0  0  0  0
   -7.5810    7.5300   11.6110  Cl 0  0  0  0  0  0  0  0  0  0  0  0
   -5.4980    6.2740   12.5730   N 0  0  0  0  0  0  0  0  0  0  0  0
   -1.4510    8.5490   10.7320   C 0  0  0  0  0  0  0  0  0  0  0  0
   -1.1510    7.7510    9.5020   C 0  0  0  0  0  0  0  0  0  0  0  0
    0.1540    7.2910    9.5320   O 0  0  0  0  0  0  0  0  0  0  0  0
 10  1  2  0  0  0  0
  5  1  1  0  0  0  0
  1  4  1  0  0  0  0
  2  4  1  0  0  0  0
  3  4  2  0  0  0  0
  4  6  2  0  0  0  0
  7  5  2  0  0  0  0
  8  7  1  0  0  0  0
 11  8  1  0  0  0  0
  8  9  2  0  0  0  0
  9 10  1  0  0  0  0
 12 11  1  0  0  0  0
 13 12  2  0  0  0  0
 19 12  1  0  0  0  0
 14 13  1  0  0  0  0
 15 14  1  0  0  0  0
 16 14  2  0  0  0  0
 20 15  1  0  0  0  0
 16 17  1  0  0  0  0
 18 17  1  0  0  0  0
 17 19  2  0  0  0  0
 21 20  1  0  0  0  0
 21 22  1  0  0  0  0
A    1
C1
A    2
N1
A    3
O1
A    4
S1
A    5
C2
A    6
O2
A    7
C3
A    8
C4
A    9
C5
A   10
C6
A   11
N7
A   12
C8
A   13
N9
A   14
C10
A   15
N11
A   16
N12
A   17
C13
A   18
CL13
A   19
N14
A   20
C15
A   21
C16
A   22
O17
M  END
>  <InstanceId>
3MMF_D9H_A_263

>  <ChemCompId>
D9H

>  <PdbId>
3MMF

>  <ChainId>
A

>  <ResidueNumber>
263

>  <InsertionCode>


>  <Model>
1

>  <AltIds>


>  <MissingHeavyAtoms>
0

>  <ObservedFormula>
C11 N6 O3 S Cl

>  <Name>
4-({4-chloro-6-[(2-hydroxyethyl)amino]-1,3,5-triazin-2-yl}amino)benzenesulfonamide

>  <SystematicName>
4-[[4-chloro-6-(2-hydroxyethylamino)-1,3,5-triazin-2-yl]amino]benzenesulfonamide

>  <Synonyms>


>  <Type>
NON-POLYMER

>  <Formula>
C11 H13 Cl N6 O3 S

>  <MolecularWeight>
344.777

>  <ModifiedDate>
2011-06-04

>  <Parent>


>  <OneLetterCode>


>  <SubcomponentList>


>  <AmbiguousFlag>
N

>  <InChI>
InChI=1S/C11H13ClN6O3S/c12-9-16-10(14-5-6-19)18-11(17-9)15-7-1-3-8(4-2-7)22(13,20)21/h1-4,19H,5-6H2,(H2,13,20,21)(H2,14,15,16,17,18)

>  <InChIKey>
QZIFPRRIFLBFHT-UHFFFAOYSA-N

>  <SMILES>
c1cc(ccc1Nc2nc(nc(n2)Cl)NCCO)S(=O)(=O)N

$$$$
