5NEB_8VE_B_309


 18 19  0  0  0  0  0  0  0  0999 V2000
    0.4207   -3.5465  -12.7462 N   0  0  0  0  0  0  0  0  0  0  0  0
    2.0415   -5.9679  -14.6484 N   0  0  0  0  0  0  0  0  0  0  0  0
    0.3346   -5.9303  -12.9051 C   0  0  0  0  0  0  0  0  0  0  0  0
    1.2962   -6.8913  -13.6688 C   0  0  0  0  0  0  0  0  0  0  0  0
    1.5152   -2.5348  -13.1114 C   0  0  0  0  0  0  0  0  0  0  0  0
    0.7229   -5.3700  -11.5177 C   0  0  0  0  0  0  0  0  0  0  0  0
    0.7703   -4.0843  -11.4368 N   0  0  0  0  0  0  0  0  0  0  0  0
    1.0978   -4.8087  -14.9859 C   0  0  0  0  0  0  0  0  0  0  0  0
    0.1634   -4.6810  -13.7541 C   0  0  0  0  0  0  0  0  0  0  0  0
    2.8921   -5.6107  -14.2134 H   0  0  0  0  0  0  0  0  0  0  0  0
    1.0110   -6.3273  -10.3757 C   0  0  0  0  0  0  0  0  0  0  0  0
    2.0483   -6.1353   -9.6993 O   0  0  0  0  0  0  0  0  0  0  0  0
    0.1989   -7.2612  -10.1734 O   0  0  0  0  0  0  0  0  0  0  0  0
    2.6143   -5.4170   -9.9032 H   0  0  0  0  0  0  0  0  0  0  0  0
    0.7293   -8.0944  -14.4911 C   0  0  0  0  0  0  0  0  0  0  0  0
    1.5153   -8.9474  -14.9702 O   0  0  0  0  0  0  0  0  0  0  0  0
   -0.5063   -8.1758  -14.6448 O   0  0  0  0  0  0  0  0  0  0  0  0
   -1.0684   -7.5235  -14.2752 H   0  0  0  0  0  0  0  0  0  0  0  0
  5  1  1  0  0  0
  7  1  1  0  0  0
  7  6  2  0  0  0
  1  9  1  0  0  0
 13 11  2  0  0  0
  8  2  1  0  0  0
  8  9  1  0  0  0
  6 11  1  0  0  0
  6  3  1  0  0  0
  2  4  1  0  0  0
 11 12  1  0  0  0
  9  3  1  0  0  0
  3  4  1  0  0  0
  4 15  1  0  0  0
 15 16  2  0  0  0
 15 17  1  0  0  0
  2 10  1  0  0  0
 12 14  1  0  0  0
 17 18  1  0  0  0
M  END
> <minimizedAffinity>
-0.00351

$$$$
5NEB_8VE_B_309


 18 19  0  0  0  0  0  0  0  0999 V2000
   -8.8559   -5.2290  -15.1198 N   0  0  0  0  0  0  0  0  0  0  0  0
  -11.0512   -7.1391  -13.2118 N   0  0  0  0  0  0  0  0  0  0  0  0
   -8.6359   -7.0017  -13.5310 C   0  0  0  0  0  0  0  0  0  0  0  0
   -9.7495   -7.9060  -12.9198 C   0  0  0  0  0  0  0  0  0  0  0  0
  -10.0208   -4.8018  -16.0226 C   0  0  0  0  0  0  0  0  0  0  0  0
   -8.0696   -7.2965  -14.9388 C   0  0  0  0  0  0  0  0  0  0  0  0
   -8.1920   -6.3389  -15.7932 N   0  0  0  0  0  0  0  0  0  0  0  0
  -10.6998   -5.6480  -13.2511 C   0  0  0  0  0  0  0  0  0  0  0  0
   -9.2061   -5.5991  -13.6675 C   0  0  0  0  0  0  0  0  0  0  0  0
  -11.4350   -7.4315  -14.1104 H   0  0  0  0  0  0  0  0  0  0  0  0
   -7.4246   -8.6409  -15.2217 C   0  0  0  0  0  0  0  0  0  0  0  0
   -7.9564   -9.3738  -16.0880 O   0  0  0  0  0  0  0  0  0  0  0  0
   -6.3979   -8.9483  -14.5706 O   0  0  0  0  0  0  0  0  0  0  0  0
   -8.7245   -9.0839  -16.5395 H   0  0  0  0  0  0  0  0  0  0  0  0
   -9.7397   -8.2586  -11.3964 C   0  0  0  0  0  0  0  0  0  0  0  0
   -8.9629   -7.6504  -10.6209 O   0  0  0  0  0  0  0  0  0  0  0  0
  -10.5195   -9.1436  -10.9893 O   0  0  0  0  0  0  0  0  0  0  0  0
  -11.0881   -9.5806  -11.5923 H   0  0  0  0  0  0  0  0  0  0  0  0
  5  1  1  0  0  0
  7  1  1  0  0  0
  7  6  2  0  0  0
  1  9  1  0  0  0
 13 11  2  0  0  0
  8  2  1  0  0  0
  8  9  1  0  0  0
  6 11  1  0  0  0
  6  3  1  0  0  0
  2  4  1  0  0  0
 11 12  1  0  0  0
  9  3  1  0  0  0
  3  4  1  0  0  0
  4 15  1  0  0  0
 15 16  2  0  0  0
 15 17  1  0  0  0
  2 10  1  0  0  0
 12 14  1  0  0  0
 17 18  1  0  0  0
M  END
> <minimizedAffinity>
-0.00141

$$$$
5NEB_8VE_B_309


 18 19  0  0  0  0  0  0  0  0999 V2000
   -8.4596   -4.0099  -11.5189 N   0  0  0  0  0  0  0  0  0  0  0  0
   -6.3989   -5.1057   -8.9379 N   0  0  0  0  0  0  0  0  0  0  0  0
   -6.6624   -3.0682  -10.2545 C   0  0  0  0  0  0  0  0  0  0  0  0
   -5.6902   -3.7794   -9.2645 C   0  0  0  0  0  0  0  0  0  0  0  0
   -8.8503   -5.4637  -11.8168 C   0  0  0  0  0  0  0  0  0  0  0  0
   -6.4295   -3.1519  -11.7803 C   0  0  0  0  0  0  0  0  0  0  0  0
   -7.3999   -3.6623  -12.4583 N   0  0  0  0  0  0  0  0  0  0  0  0
   -7.9060   -4.8566   -9.0604 C   0  0  0  0  0  0  0  0  0  0  0  0
   -8.0381   -3.6893  -10.0738 C   0  0  0  0  0  0  0  0  0  0  0  0
   -6.1094   -5.8281   -9.5973 H   0  0  0  0  0  0  0  0  0  0  0  0
   -5.1255   -2.6455  -12.3692 C   0  0  0  0  0  0  0  0  0  0  0  0
   -4.4847   -3.4169  -13.1206 O   0  0  0  0  0  0  0  0  0  0  0  0
   -4.7570   -1.4852  -12.0687 O   0  0  0  0  0  0  0  0  0  0  0  0
   -4.8163   -4.2736  -13.3054 H   0  0  0  0  0  0  0  0  0  0  0  0
   -5.3023   -3.1040   -7.9086 C   0  0  0  0  0  0  0  0  0  0  0  0
   -4.4175   -3.6219   -7.1849 O   0  0  0  0  0  0  0  0  0  0  0  0
   -5.8884   -2.0515   -7.5833 O   0  0  0  0  0  0  0  0  0  0  0  0
   -6.5450   -1.6882   -8.1444 H   0  0  0  0  0  0  0  0  0  0  0  0
  5  1  1  0  0  0
  7  1  1  0  0  0
  7  6  2  0  0  0
  1  9  1  0  0  0
 13 11  2  0  0  0
  8  2  1  0  0  0
  8  9  1  0  0  0
  6 11  1  0  0  0
  6  3  1  0  0  0
  2  4  1  0  0  0
 11 12  1  0  0  0
  9  3  1  0  0  0
  3  4  1  0  0  0
  4 15  1  0  0  0
 15 16  2  0  0  0
 15 17  1  0  0  0
  2 10  1  0  0  0
 12 14  1  0  0  0
 17 18  1  0  0  0
M  END
> <minimizedAffinity>
-0.00010

$$$$
5NEB_8VE_B_309


 18 19  0  0  0  0  0  0  0  0999 V2000
   -6.4138   -2.9951  -11.0924 N   0  0  0  0  0  0  0  0  0  0  0  0
   -9.8086   -3.1073  -10.3364 N   0  0  0  0  0  0  0  0  0  0  0  0
   -7.7130   -3.0678   -9.0869 C   0  0  0  0  0  0  0  0  0  0  0  0
   -9.2404   -3.3358   -8.9247 C   0  0  0  0  0  0  0  0  0  0  0  0
   -6.7253   -3.4304  -12.5306 C   0  0  0  0  0  0  0  0  0  0  0  0
   -6.7262   -4.2414   -9.2828 C   0  0  0  0  0  0  0  0  0  0  0  0
   -6.0291   -4.1996  -10.3664 N   0  0  0  0  0  0  0  0  0  0  0  0
   -8.9080   -2.0771  -11.0263 C   0  0  0  0  0  0  0  0  0  0  0  0
   -7.5234   -2.2348  -10.3444 C   0  0  0  0  0  0  0  0  0  0  0  0
   -9.8040   -3.9822  -10.8607 H   0  0  0  0  0  0  0  0  0  0  0  0
   -6.6358   -5.3296   -8.2287 C   0  0  0  0  0  0  0  0  0  0  0  0
   -6.7346   -6.5201   -8.6074 O   0  0  0  0  0  0  0  0  0  0  0  0
   -6.4723   -4.9794   -7.0357 O   0  0  0  0  0  0  0  0  0  0  0  0
   -6.8560   -6.7142   -9.5160 H   0  0  0  0  0  0  0  0  0  0  0  0
  -10.0947   -2.4865   -7.9277 C   0  0  0  0  0  0  0  0  0  0  0  0
  -11.2896   -2.8002   -7.7068 O   0  0  0  0  0  0  0  0  0  0  0  0
   -9.5544   -1.5106   -7.3686 O   0  0  0  0  0  0  0  0  0  0  0  0
   -8.6601   -1.3006   -7.5535 H   0  0  0  0  0  0  0  0  0  0  0  0
  5  1  1  0  0  0
  7  1  1  0  0  0
  7  6  2  0  0  0
  1  9  1  0  0  0
 13 11  2  0  0  0
  8  2  1  0  0  0
  8  9  1  0  0  0
  6 11  1  0  0  0
  6  3  1  0  0  0
  2  4  1  0  0  0
 11 12  1  0  0  0
  9  3  1  0  0  0
  3  4  1  0  0  0
  4 15  1  0  0  0
 15 16  2  0  0  0
 15 17  1  0  0  0
  2 10  1  0  0  0
 12 14  1  0  0  0
 17 18  1  0  0  0
M  END
> <minimizedAffinity>
-0.00010

$$$$
5NEB_8VE_B_309


 18 19  0  0  0  0  0  0  0  0999 V2000
   -3.0900   -5.5537  -11.0049 N   0  0  0  0  0  0  0  0  0  0  0  0
   -5.0859   -3.2658   -9.3048 N   0  0  0  0  0  0  0  0  0  0  0  0
   -3.6354   -5.1371   -8.7149 C   0  0  0  0  0  0  0  0  0  0  0  0
   -4.7309   -4.1942   -8.1301 C   0  0  0  0  0  0  0  0  0  0  0  0
   -3.8226   -5.2149  -12.3100 C   0  0  0  0  0  0  0  0  0  0  0  0
   -4.0079   -6.5416   -9.2422 C   0  0  0  0  0  0  0  0  0  0  0  0
   -3.7141   -6.7616  -10.4780 N   0  0  0  0  0  0  0  0  0  0  0  0
   -3.8324   -3.1389  -10.1772 C   0  0  0  0  0  0  0  0  0  0  0  0
   -3.0400   -4.4501   -9.9333 C   0  0  0  0  0  0  0  0  0  0  0  0
   -5.8506   -3.6664   -9.8481 H   0  0  0  0  0  0  0  0  0  0  0  0
   -4.6682   -7.5419   -8.3111 C   0  0  0  0  0  0  0  0  0  0  0  0
   -5.7272   -8.0895   -8.6972 O   0  0  0  0  0  0  0  0  0  0  0  0
   -4.1220   -7.7630   -7.2041 O   0  0  0  0  0  0  0  0  0  0  0  0
   -6.0836   -7.8796   -9.5380 H   0  0  0  0  0  0  0  0  0  0  0  0
   -4.4239   -3.2922   -6.8903 C   0  0  0  0  0  0  0  0  0  0  0  0
   -5.3500   -2.6417   -6.3482 O   0  0  0  0  0  0  0  0  0  0  0  0
   -3.2510   -3.2489   -6.4665 O   0  0  0  0  0  0  0  0  0  0  0  0
   -2.5804   -3.7458   -6.8922 H   0  0  0  0  0  0  0  0  0  0  0  0
  5  1  1  0  0  0
  7  1  1  0  0  0
  7  6  2  0  0  0
  1  9  1  0  0  0
 13 11  2  0  0  0
  8  2  1  0  0  0
  8  9  1  0  0  0
  6 11  1  0  0  0
  6  3  1  0  0  0
  2  4  1  0  0  0
 11 12  1  0  0  0
  9  3  1  0  0  0
  3  4  1  0  0  0
  4 15  1  0  0  0
 15 16  2  0  0  0
 15 17  1  0  0  0
  2 10  1  0  0  0
 12 14  1  0  0  0
 17 18  1  0  0  0
M  END
> <minimizedAffinity>
-0.00010

$$$$
5NEB_8VE_B_309


 18 19  0  0  0  0  0  0  0  0999 V2000
    0.8276   -2.0031   -6.6742 N   0  0  0  0  0  0  0  0  0  0  0  0
   -2.2434   -0.4183   -7.0814 N   0  0  0  0  0  0  0  0  0  0  0  0
   -0.8213   -1.0778   -5.2114 C   0  0  0  0  0  0  0  0  0  0  0  0
   -2.2624   -0.5896   -5.5522 C   0  0  0  0  0  0  0  0  0  0  0  0
    0.7402   -2.5302   -8.1127 C   0  0  0  0  0  0  0  0  0  0  0  0
   -0.5278   -2.5827   -5.0151 C   0  0  0  0  0  0  0  0  0  0  0  0
    0.3604   -3.0783   -5.8072 N   0  0  0  0  0  0  0  0  0  0  0  0
   -0.8062   -0.0670   -7.4804 C   0  0  0  0  0  0  0  0  0  0  0  0
    0.0815   -0.6913   -6.3718 C   0  0  0  0  0  0  0  0  0  0  0  0
   -2.5294   -1.2866   -7.5338 H   0  0  0  0  0  0  0  0  0  0  0  0
   -1.2696   -3.3581   -3.9418 C   0  0  0  0  0  0  0  0  0  0  0  0
   -1.8393   -4.4225   -4.2778 O   0  0  0  0  0  0  0  0  0  0  0  0
   -1.2769   -2.8901   -2.7784 O   0  0  0  0  0  0  0  0  0  0  0  0
   -1.7952   -4.7173   -5.1661 H   0  0  0  0  0  0  0  0  0  0  0  0
   -2.8198    0.7345   -4.9348 C   0  0  0  0  0  0  0  0  0  0  0  0
   -4.0229    1.0456   -5.1096 O   0  0  0  0  0  0  0  0  0  0  0  0
   -2.0424    1.4511   -4.2721 O   0  0  0  0  0  0  0  0  0  0  0  0
   -1.1489    1.1927   -4.1587 H   0  0  0  0  0  0  0  0  0  0  0  0
  5  1  1  0  0  0
  7  1  1  0  0  0
  7  6  2  0  0  0
  1  9  1  0  0  0
 13 11  2  0  0  0
  8  2  1  0  0  0
  8  9  1  0  0  0
  6 11  1  0  0  0
  6  3  1  0  0  0
  2  4  1  0  0  0
 11 12  1  0  0  0
  9  3  1  0  0  0
  3  4  1  0  0  0
  4 15  1  0  0  0
 15 16  2  0  0  0
 15 17  1  0  0  0
  2 10  1  0  0  0
 12 14  1  0  0  0
 17 18  1  0  0  0
M  END
> <minimizedAffinity>
0.00001

$$$$
5NEB_8VE_B_309


 18 19  0  0  0  0  0  0  0  0999 V2000
   -4.3408   -1.8964  -13.8672 N   0  0  0  0  0  0  0  0  0  0  0  0
   -7.3693   -3.3571  -12.9711 N   0  0  0  0  0  0  0  0  0  0  0  0
   -6.0923   -1.3812  -12.3238 C   0  0  0  0  0  0  0  0  0  0  0  0
   -7.2973   -2.2685  -11.8859 C   0  0  0  0  0  0  0  0  0  0  0  0
   -3.9015   -3.2169  -14.5140 C   0  0  0  0  0  0  0  0  0  0  0  0
   -4.6945   -1.5904  -11.6977 C   0  0  0  0  0  0  0  0  0  0  0  0
   -3.7533   -1.8702  -12.5330 N   0  0  0  0  0  0  0  0  0  0  0  0
   -6.8293   -2.7422  -14.2667 C   0  0  0  0  0  0  0  0  0  0  0  0
   -5.8548   -1.6268  -13.8052 C   0  0  0  0  0  0  0  0  0  0  0  0
   -6.7992   -4.1584  -12.7006 H   0  0  0  0  0  0  0  0  0  0  0  0
   -4.5172   -1.4563  -10.1963 C   0  0  0  0  0  0  0  0  0  0  0  0
   -3.9556   -2.3967   -9.5875 O   0  0  0  0  0  0  0  0  0  0  0  0
   -4.9461   -0.4147   -9.6452 O   0  0  0  0  0  0  0  0  0  0  0  0
   -3.6576   -3.1490  -10.0600 H   0  0  0  0  0  0  0  0  0  0  0  0
   -8.7266   -1.6514  -11.7394 C   0  0  0  0  0  0  0  0  0  0  0  0
   -9.6576   -2.3425  -11.2592 O   0  0  0  0  0  0  0  0  0  0  0  0
   -8.9014   -0.4710  -12.1043 O   0  0  0  0  0  0  0  0  0  0  0  0
   -8.1869    0.0203  -12.4593 H   0  0  0  0  0  0  0  0  0  0  0  0
  5  1  1  0  0  0
  7  1  1  0  0  0
  7  6  2  0  0  0
  1  9  1  0  0  0
 13 11  2  0  0  0
  8  2  1  0  0  0
  8  9  1  0  0  0
  6 11  1  0  0  0
  6  3  1  0  0  0
  2  4  1  0  0  0
 11 12  1  0  0  0
  9  3  1  0  0  0
  3  4  1  0  0  0
  4 15  1  0  0  0
 15 16  2  0  0  0
 15 17  1  0  0  0
  2 10  1  0  0  0
 12 14  1  0  0  0
 17 18  1  0  0  0
M  END
> <minimizedAffinity>
0.00002

$$$$
5NEB_8VE_B_309


 18 19  0  0  0  0  0  0  0  0999 V2000
   -2.5516   -0.7396   -8.5912 N   0  0  0  0  0  0  0  0  0  0  0  0
   -4.8134    1.8978   -8.7821 N   0  0  0  0  0  0  0  0  0  0  0  0
   -4.8510   -0.4200   -8.0203 C   0  0  0  0  0  0  0  0  0  0  0  0
   -5.7855    0.7768   -8.3744 C   0  0  0  0  0  0  0  0  0  0  0  0
   -1.6337   -0.0174   -9.5866 C   0  0  0  0  0  0  0  0  0  0  0  0
   -4.5717   -1.5319   -9.0572 C   0  0  0  0  0  0  0  0  0  0  0  0
   -3.3309   -1.6997   -9.3640 N   0  0  0  0  0  0  0  0  0  0  0  0
   -3.5099    1.6709   -8.0091 C   0  0  0  0  0  0  0  0  0  0  0  0
   -3.4700    0.1454   -7.7298 C   0  0  0  0  0  0  0  0  0  0  0  0
   -4.6359    1.8585   -9.7858 H   0  0  0  0  0  0  0  0  0  0  0  0
   -5.7276   -2.3324   -9.6287 C   0  0  0  0  0  0  0  0  0  0  0  0
   -5.8141   -2.4262  -10.8753 O   0  0  0  0  0  0  0  0  0  0  0  0
   -6.5364   -2.8526   -8.8237 O   0  0  0  0  0  0  0  0  0  0  0  0
   -5.1750   -2.0126  -11.4217 H   0  0  0  0  0  0  0  0  0  0  0  0
   -6.7638    1.3645   -7.3055 C   0  0  0  0  0  0  0  0  0  0  0  0
   -7.6034    2.2349   -7.6406 O   0  0  0  0  0  0  0  0  0  0  0  0
   -6.6838    0.9411   -6.1344 O   0  0  0  0  0  0  0  0  0  0  0  0
   -6.0465    0.2905   -5.9139 H   0  0  0  0  0  0  0  0  0  0  0  0
  5  1  1  0  0  0
  7  1  1  0  0  0
  7  6  2  0  0  0
  1  9  1  0  0  0
 13 11  2  0  0  0
  8  2  1  0  0  0
  8  9  1  0  0  0
  6 11  1  0  0  0
  6  3  1  0  0  0
  2  4  1  0  0  0
 11 12  1  0  0  0
  9  3  1  0  0  0
  3  4  1  0  0  0
  4 15  1  0  0  0
 15 16  2  0  0  0
 15 17  1  0  0  0
  2 10  1  0  0  0
 12 14  1  0  0  0
 17 18  1  0  0  0
M  END
> <minimizedAffinity>
0.00003

$$$$
5NEB_8VE_B_309


 18 19  0  0  0  0  0  0  0  0999 V2000
   -3.2660   -0.6769  -10.2409 N   0  0  0  0  0  0  0  0  0  0  0  0
   -2.0046   -3.7534   -9.2153 N   0  0  0  0  0  0  0  0  0  0  0  0
   -2.5652   -2.6833  -11.3354 C   0  0  0  0  0  0  0  0  0  0  0  0
   -2.2227   -4.0681  -10.7057 C   0  0  0  0  0  0  0  0  0  0  0  0
   -3.7561   -0.4076   -8.8118 C   0  0  0  0  0  0  0  0  0  0  0  0
   -4.0356   -2.2728  -11.5774 C   0  0  0  0  0  0  0  0  0  0  0  0
   -4.4103   -1.1915  -10.9838 N   0  0  0  0  0  0  0  0  0  0  0  0
   -1.4909   -2.3124   -9.1266 C   0  0  0  0  0  0  0  0  0  0  0  0
   -2.0505   -1.6089  -10.3910 C   0  0  0  0  0  0  0  0  0  0  0  0
   -2.8843   -3.8428   -8.7069 H   0  0  0  0  0  0  0  0  0  0  0  0
   -4.9173   -3.1299  -12.4672 C   0  0  0  0  0  0  0  0  0  0  0  0
   -6.0272   -3.4944  -12.0137 O   0  0  0  0  0  0  0  0  0  0  0  0
   -4.4862   -3.4313  -13.6056 O   0  0  0  0  0  0  0  0  0  0  0  0
   -6.2900   -3.2338  -11.1529 H   0  0  0  0  0  0  0  0  0  0  0  0
   -0.9843   -4.8829  -11.2033 C   0  0  0  0  0  0  0  0  0  0  0  0
   -0.7976   -6.0510  -10.7845 O   0  0  0  0  0  0  0  0  0  0  0  0
   -0.2094   -4.3422  -12.0183 O   0  0  0  0  0  0  0  0  0  0  0  0
   -0.3747   -3.4683  -12.3131 H   0  0  0  0  0  0  0  0  0  0  0  0
  5  1  1  0  0  0
  7  1  1  0  0  0
  7  6  2  0  0  0
  1  9  1  0  0  0
 13 11  2  0  0  0
  8  2  1  0  0  0
  8  9  1  0  0  0
  6 11  1  0  0  0
  6  3  1  0  0  0
  2  4  1  0  0  0
 11 12  1  0  0  0
  9  3  1  0  0  0
  3  4  1  0  0  0
  4 15  1  0  0  0
 15 16  2  0  0  0
 15 17  1  0  0  0
  2 10  1  0  0  0
 12 14  1  0  0  0
 17 18  1  0  0  0
M  END
> <minimizedAffinity>
0.00003

$$$$
5NEB_8VE_B_309


 18 19  0  0  0  0  0  0  0  0999 V2000
   -2.8342    1.6354  -11.0380 N   0  0  0  0  0  0  0  0  0  0  0  0
   -4.0829   -1.0463   -9.2055 N   0  0  0  0  0  0  0  0  0  0  0  0
   -3.7088    1.3361   -8.8333 C   0  0  0  0  0  0  0  0  0  0  0  0
   -4.0296    0.0065   -8.0845 C   0  0  0  0  0  0  0  0  0  0  0  0
   -2.1912    0.6535  -12.0265 C   0  0  0  0  0  0  0  0  0  0  0  0
   -2.2584    1.8657   -8.9070 C   0  0  0  0  0  0  0  0  0  0  0  0
   -1.7897    2.0237  -10.0974 N   0  0  0  0  0  0  0  0  0  0  0  0
   -4.5375   -0.3282  -10.4807 C   0  0  0  0  0  0  0  0  0  0  0  0
   -4.0884    1.1448  -10.2929 C   0  0  0  0  0  0  0  0  0  0  0  0
   -3.1589   -1.4550   -9.3452 H   0  0  0  0  0  0  0  0  0  0  0  0
   -1.5014    2.1607   -7.6251 C   0  0  0  0  0  0  0  0  0  0  0  0
   -0.3626    1.6556   -7.4890 O   0  0  0  0  0  0  0  0  0  0  0  0
   -2.0573    2.8896   -6.7693 O   0  0  0  0  0  0  0  0  0  0  0  0
   -0.0040    1.1189   -8.1682 H   0  0  0  0  0  0  0  0  0  0  0  0
   -5.3384   -0.1343   -7.2406 C   0  0  0  0  0  0  0  0  0  0  0  0
   -5.5191   -1.1575   -6.5368 O   0  0  0  0  0  0  0  0  0  0  0  0
   -6.1750    0.7903   -7.2879 O   0  0  0  0  0  0  0  0  0  0  0  0
   -6.0124    1.5423   -7.8227 H   0  0  0  0  0  0  0  0  0  0  0  0
  5  1  1  0  0  0
  7  1  1  0  0  0
  7  6  2  0  0  0
  1  9  1  0  0  0
 13 11  2  0  0  0
  8  2  1  0  0  0
  8  9  1  0  0  0
  6 11  1  0  0  0
  6  3  1  0  0  0
  2  4  1  0  0  0
 11 12  1  0  0  0
  9  3  1  0  0  0
  3  4  1  0  0  0
  4 15  1  0  0  0
 15 16  2  0  0  0
 15 17  1  0  0  0
  2 10  1  0  0  0
 12 14  1  0  0  0
 17 18  1  0  0  0
M  END
> <minimizedAffinity>
0.00004

$$$$
