3VW1_CVI_B_301
  RCSB PDB12061711173D
Coordinates from PDB:3VW1:B:301 Model:1 without hydrogens
 28 30  0  0  0  0            999 V2000
  -13.4020    2.7860  -18.6720   C 0  0  0  0  0  0  0  0  0  0  0  0
  -12.6860    3.3930  -17.5410   C 0  0  0  0  0  0  0  0  0  0  0  0
  -11.6340    2.7120  -16.9750   C 0  0  0  0  0  0  0  0  0  0  0  0
  -10.9790    3.2650  -15.8490   C 0  0  0  0  0  0  0  0  0  0  0  0
  -11.4240    4.5220  -15.3720   C 0  0  0  0  0  0  0  0  0  0  0  0
  -12.4950    5.1980  -15.9950   C 0  0  0  0  0  0  0  0  0  0  0  0
  -13.1250    4.6120  -17.0780   C 0  0  0  0  0  0  0  0  0  0  0  0
  -14.8730    3.0700  -18.8150   C 0  0  0  0  0  0  0  0  0  0  0  0
  -15.3830    3.5690  -20.0210   C 0  0  0  0  0  0  0  0  0  0  0  0
  -16.7790    3.8380  -20.1240   C 0  0  0  0  0  0  0  0  0  0  0  0
  -17.6380    3.6340  -19.0460   C 0  0  0  0  0  0  0  0  0  0  0  0
  -17.1200    3.1630  -17.8470   C 0  0  0  0  0  0  0  0  0  0  0  0
  -15.7410    2.8780  -17.7030   C 0  0  0  0  0  0  0  0  0  0  0  0
  -12.6310    2.0310  -19.6670   C 0  0  0  0  0  0  0  0  0  0  0  0
  -11.2440    2.1680  -19.7960   C 0  0  0  0  0  0  0  0  0  0  0  0
  -10.6130    1.4160  -20.8130   C 0  0  0  0  0  0  0  0  0  0  0  0
  -11.3340    0.5240  -21.6340   C 0  0  0  0  0  0  0  0  0  0  0  0
  -12.6950    0.4160  -21.4570   C 0  0  0  0  0  0  0  0  0  0  0  0
  -13.3330    1.1710  -20.4870   C 0  0  0  0  0  0  0  0  0  0  0  0
   -9.4710    4.6310  -13.8240   C 0  0  0  0  0  0  0  0  0  0  0  0
  -11.3910    6.1790  -13.4840   C 0  0  0  0  0  0  0  0  0  0  0  0
  -19.5190    4.6360  -20.2470   C 0  0  0  0  0  0  0  0  0  0  0  0
  -19.7550    3.4460  -17.9850   C 0  0  0  0  0  0  0  0  0  0  0  0
   -9.2330   -0.1860  -22.7330   C 0  0  0  0  0  0  0  0  0  0  0  0
  -11.3620   -0.8560  -23.8100   C 0  0  0  0  0  0  0  0  0  0  0  0
  -10.7970    5.0960  -14.2540   N 0  3  0  0  0  0  0  0  0  0  0  0
  -18.9750    3.9030  -19.1200   N 0  0  0  0  0  0  0  0  0  0  0  0
  -10.6850   -0.1980  -22.6840   N 0  0  0  0  0  0  0  0  0  0  0  0
  1  2  2  0  0  0  0
  1  8  1  0  0  0  0
  1 14  1  0  0  0  0
  2  3  1  0  0  0  0
  2  7  1  0  0  0  0
  3  4  2  0  0  0  0
  4  5  1  0  0  0  0
  5  6  1  0  0  0  0
  5 26  2  0  0  0  0
  6  7  2  0  0  0  0
  8  9  2  0  0  0  0
  8 13  1  0  0  0  0
  9 10  1  0  0  0  0
 10 11  2  0  0  0  0
 11 12  1  0  0  0  0
 11 27  1  0  0  0  0
 12 13  2  0  0  0  0
 14 15  2  0  0  0  0
 14 19  1  0  0  0  0
 15 16  1  0  0  0  0
 16 17  2  0  0  0  0
 17 18  1  0  0  0  0
 17 28  1  0  0  0  0
 18 19  2  0  0  0  0
 20 26  1  0  0  0  0
 21 26  1  0  0  0  0
 22 27  1  0  0  0  0
 23 27  1  0  0  0  0
 24 28  1  0  0  0  0
 25 28  1  0  0  0  0
M  CHG  1  26   1
A    1
C1
A    2
C2
A    3
C3
A    4
C4
A    5
C5
A    6
C6
A    7
C7
A    8
C8
A    9
C9
A   10
C10
A   11
C11
A   12
C12
A   13
C13
A   14
C14
A   15
C15
A   16
C16
A   17
C17
A   18
C18
A   19
C19
A   20
C20
A   21
C21
A   22
C22
A   23
C23
A   24
C24
A   25
C25
A   26
N1
A   27
N2
A   28
N3
M  END
>  <InstanceId>
3VW1_CVI_B_301

>  <ChemCompId>
CVI

>  <PdbId>
3VW1

>  <ChainId>
B

>  <ResidueNumber>
301

>  <InsertionCode>


>  <Model>
1

>  <AltIds>


>  <MissingHeavyAtoms>
0

>  <ObservedFormula>
C25 N3

>  <Name>
CRYSTAL VIOLET

>  <SystematicName>
[4-[bis(4-dimethylaminophenyl)methylidene]-1-cyclohexa-2,5-dienylidene]-dimethyl-azanium

>  <Synonyms>


>  <Type>
NON-POLYMER

>  <Formula>
C25 H30 N3

>  <MolecularWeight>
372.526

>  <ModifiedDate>
2011-06-04

>  <Parent>


>  <OneLetterCode>


>  <SubcomponentList>


>  <AmbiguousFlag>
N

>  <InChI>
InChI=1S/C25H30N3/c1-26(2)22-13-7-19(8-14-22)25(20-9-15-23(16-10-20)27(3)4)21-11-17-24(18-12-21)28(5)6/h7-18H,1-6H3/q+1

>  <InChIKey>
LGLFFNDHMLKUMI-UHFFFAOYSA-N

>  <SMILES>
CN(C)c1ccc(cc1)C(=C2C=CC(=[N+](C)C)C=C2)c3ccc(cc3)N(C)C

$$$$
