6ECZ_J4D_A_302
  RCSB PDB12081803543D
Coordinates from PDB:6ECZ:A:302 Model:1 without hydrogens
 29 30  0  0  0  0            999 V2000
   -0.9510    8.6300   13.6930   C 0  0  0  0  0  0  0  0  0  0  0  0
    1.1530    8.1840   12.5490   C 0  0  0  0  0  0  0  0  0  0  0  0
   -0.7810    6.7980   12.1400   C 0  0  0  0  0  0  0  0  0  0  0  0
   -4.9860    1.1610   13.8650   C 0  0  0  0  0  0  0  0  0  0  0  0
   -4.7250    1.7520   12.6450   C 0  0  0  0  0  0  0  0  0  0  0  0
   -4.6500    3.1380   12.5850   C 0  0  0  0  0  0  0  0  0  0  0  0
   -4.8460    3.9170   13.7360   C 0  0  0  0  0  0  0  0  0  0  0  0
   -5.1140    3.3090   14.9550   C 0  0  0  0  0  0  0  0  0  0  0  0
   -5.1830    1.9230   15.0030   C 0  0  0  0  0  0  0  0  0  0  0  0
   -4.3750    3.7430   11.3550   O 0  0  0  0  0  0  0  0  0  0  0  0
   -4.7350    5.3620   13.6280   N 0  0  0  0  0  0  0  0  0  0  0  0
   -3.3590    5.8010   13.4270   C 0  0  0  0  0  0  0  0  0  0  0  0
   -2.9520    7.1970   13.2720   N 0  0  0  0  0  0  0  0  0  0  0  0
   -2.5270    4.9530   13.3870   O 0  0  0  0  0  0  0  0  0  0  0  0
   -1.5460    7.5470   13.0470   C 0  0  0  0  0  0  0  0  0  0  0  0
    0.3900    8.9480   13.4490   C 0  0  0  0  0  0  0  0  0  0  0  0
    0.5580    7.1010   11.8950   C 0  0  0  0  0  0  0  0  0  0  0  0
   -1.3250    5.7270   11.4810   F 0  0  0  0  0  0  0  0  0  0  0  0
    1.2720    6.3280   11.0070   F 0  0  0  0  0  0  0  0  0  0  0  0
    2.4760    8.4890   12.3080   F 0  0  0  0  0  0  0  0  0  0  0  0
    0.9540   10.0170   14.1030   F 0  0  0  0  0  0  0  0  0  0  0  0
   -1.6700    9.3860   14.5740   F 0  0  0  0  0  0  0  0  0  0  0  0
   -4.5470    0.8810   11.4760   N 0  0  0  0  0  0  0  0  0  0  0  0
   -4.8720    1.2330   10.3960   O 0  0  0  0  0  0  0  0  0  0  0  0
   -4.0170   -0.4130   11.6500   O 0  0  0  0  0  0  0  0  0  0  0  0
   -5.5450    1.0110   16.5240   S 0  0  0  0  0  0  0  0  0  0  0  0
   -6.9170    1.2620   16.9390   O 0  0  0  0  0  0  0  0  0  0  0  0
   -4.7520    1.4500   17.6710   O 0  0  0  0  0  0  0  0  0  0  0  0
   -5.3390   -0.6570   16.2380   N 0  0  0  0  0  0  0  0  0  0  0  0
 24 23  2  0  0  0  0
 19 17  1  0  0  0  0
 10  6  1  0  0  0  0
 23 25  2  0  0  0  0
 23  5  1  0  0  0  0
 18  3  1  0  0  0  0
 17  3  2  0  0  0  0
 17  2  1  0  0  0  0
  3 15  1  0  0  0  0
 20  2  1  0  0  0  0
  2 16  2  0  0  0  0
  6  5  2  0  0  0  0
  6  7  1  0  0  0  0
  5  4  1  0  0  0  0
 15 13  1  0  0  0  0
 15  1  2  0  0  0  0
 13 12  1  0  0  0  0
 14 12  2  0  0  0  0
 12 11  1  0  0  0  0
 16  1  1  0  0  0  0
 16 21  1  0  0  0  0
 11  7  1  0  0  0  0
  1 22  1  0  0  0  0
  7  8  2  0  0  0  0
  4  9  2  0  0  0  0
  8  9  1  0  0  0  0
  9 26  1  0  0  0  0
 29 26  1  0  0  0  0
 26 27  2  0  0  0  0
 26 28  2  0  0  0  0
A    1
C13
A    2
C15
A    3
C17
A    4
C01
A    5
C02
A    6
C03
A    7
C04
A    8
C05
A    9
C06
A   10
O07
A   11
N08
A   12
C09
A   13
N10
A   14
O11
A   15
C12
A   16
C14
A   17
C16
A   18
F18
A   19
F19
A   20
F20
A   21
F21
A   22
F22
A   23
N23
A   24
O24
A   25
O25
A   26
S26
A   27
O27
A   28
O28
A   29
N29
M  END
>  <InstanceId>
6ECZ_J4D_A_302

>  <ChemCompId>
J4D

>  <PdbId>
6ECZ

>  <ChainId>
A

>  <ResidueNumber>
302

>  <InsertionCode>


>  <Model>
1

>  <AltIds>


>  <MissingHeavyAtoms>
31

>  <ObservedFormula>
C13 N4 O6 S F5

>  <Name>
1-[3-nitro-2-oxidanyl-5-[oxidanyl(oxidanylidene)-$l^{4}-azanyl]sulfonyl-phenyl]-3-[2,3,4,5,6-pentakis(fluoranyl)phenyl]urea

>  <SystematicName>
1-[3-nitro-2-oxidanyl-5-[oxidanyl(oxidanylidene)-$l^{4}-azanyl]sulfonyl-phenyl]-3-[2,3,4,5,6-pentakis(fluoranyl)phenyl]urea

>  <Synonyms>


>  <Type>
NON-POLYMER

>  <Formula>
C13 H6 F5 N4 O8 S

>  <MolecularWeight>
473.266

>  <ModifiedDate>
2018-11-23

>  <Parent>


>  <OneLetterCode>


>  <SubcomponentList>


>  <AmbiguousFlag>
N

>  <InChI>
InChI=1S/C13H6F5N4O8S/c14-6-7(15)9(17)11(10(18)8(6)16)20-13(24)19-4-1-3(31(29,30)22(27)28)2-5(12(4)23)21(25)26/h1-2,23H,(H,27,28)(H2,19,20,24)

>  <InChIKey>
OTJPTVGRVTVHBI-UHFFFAOYSA-N

>  <SMILES>
c1c(cc(c(c1NC(=O)Nc2c(c(c(c(c2F)F)F)F)F)O)N(=O)=O)S(=O)(=O)[N](=O)O

$$$$
