6ECZ_J4D_A_302


 34 35  0  0  0  0  0  0  0  0999 V2000
   -4.5995    0.9232   13.4122 C   0  0  0  0  0  0  0  0  0  0  0  0
   -4.6160    1.3237   12.0911 C   0  0  0  0  0  0  0  0  0  0  0  0
   -4.7263    2.6805   11.8135 C   0  0  0  0  0  0  0  0  0  0  0  0
   -4.8292    3.6187   12.8524 C   0  0  0  0  0  0  0  0  0  0  0  0
   -4.8176    3.2007   14.1763 C   0  0  0  0  0  0  0  0  0  0  0  0
   -4.7034    1.8425   14.4411 C   0  0  0  0  0  0  0  0  0  0  0  0
   -4.7325    3.0944   10.4782 O   0  0  0  0  0  0  0  0  0  0  0  0
   -4.6633    2.4611    9.7911 H   0  0  0  0  0  0  0  0  0  0  0  0
   -4.9194    5.0289   12.5129 N   0  0  0  0  0  0  0  0  0  0  0  0
   -3.8440    5.8143   13.1071 C   0  0  0  0  0  0  0  0  0  0  0  0
   -3.6763    7.2556   12.9249 N   0  0  0  0  0  0  0  0  0  0  0  0
   -3.0598    5.2259   13.7792 O   0  0  0  0  0  0  0  0  0  0  0  0
   -5.6273    5.4111   11.9453 H   0  0  0  0  0  0  0  0  0  0  0  0
   -4.3282    7.7569   12.3836 H   0  0  0  0  0  0  0  0  0  0  0  0
   -2.5164    8.2377   14.9060 C   0  0  0  0  0  0  0  0  0  0  0  0
   -0.3635    9.3494   14.6537 C   0  0  0  0  0  0  0  0  0  0  0  0
   -1.4840    8.4012   12.7370 C   0  0  0  0  0  0  0  0  0  0  0  0
   -2.5481    7.9622   13.5395 C   0  0  0  0  0  0  0  0  0  0  0  0
   -1.4318    8.9252   15.4628 C   0  0  0  0  0  0  0  0  0  0  0  0
   -0.3947    9.0801   13.2821 C   0  0  0  0  0  0  0  0  0  0  0  0
   -1.4742    8.1546   11.3892 F   0  0  0  0  0  0  0  0  0  0  0  0
    0.6327    9.4784   12.4565 F   0  0  0  0  0  0  0  0  0  0  0  0
    0.7103   10.0227   15.1969 F   0  0  0  0  0  0  0  0  0  0  0  0
   -1.4224    9.1791   16.8133 F   0  0  0  0  0  0  0  0  0  0  0  0
   -3.5405    7.8337   15.7138 F   0  0  0  0  0  0  0  0  0  0  0  0
   -4.6967    1.1678   16.1207 S   0  0  0  0  0  0  0  0  0  0  0  0
   -3.3621    1.2701   16.6917 O   0  0  0  0  0  0  0  0  0  0  0  0
   -4.9866   -0.2640   16.1761 O   0  0  0  0  0  0  0  0  0  0  0  0
   -5.7907    2.0530   17.0830 N   0  0  0  0  0  0  0  0  0  0  0  0
   -5.5664    3.0464   17.0264 H   0  0  0  0  0  0  0  0  0  0  0  0
   -5.7191    1.7429   18.0521 H   0  0  0  0  0  0  0  0  0  0  0  0
   -4.5220    0.2905   11.0517 N   0  0  0  0  0  0  0  0  0  0  0  0
   -4.9672    0.4674    9.9716 O   0  0  0  0  0  0  0  0  0  0  0  0
   -3.9269   -0.9494   11.3585 O   0  0  0  0  0  0  0  0  0  0  0  0
 33 32  2  0  0  0
 22 20  1  0  0  0
  7  3  1  0  0  0
 32 34  2  0  0  0
 32  2  1  0  0  0
 21 17  1  0  0  0
 20 17  2  0  0  0
 20 16  1  0  0  0
 17 18  1  0  0  0
 23 16  1  0  0  0
 16 19  2  0  0  0
  3  2  2  0  0  0
  3  4  1  0  0  0
  2  1  1  0  0  0
 18 11  1  0  0  0
 18 15  2  0  0  0
 11 10  1  0  0  0
 12 10  2  0  0  0
 10  9  1  0  0  0
 19 15  1  0  0  0
 19 24  1  0  0  0
  9  4  1  0  0  0
 15 25  1  0  0  0
  4  5  2  0  0  0
  1  6  2  0  0  0
  5  6  1  0  0  0
  6 26  1  0  0  0
 29 26  1  0  0  0
 26 27  2  0  0  0
 26 28  2  0  0  0
  7  8  1  0  0  0
  9 13  1  0  0  0
 11 14  1  0  0  0
 29 30  1  0  0  0
 29 31  1  0  0  0
M  END
> <minimizedAffinity>
-9.27538

$$$$
6ECZ_J4D_A_302


 34 35  0  0  0  0  0  0  0  0999 V2000
   -4.5722    0.9466   13.4229 C   0  0  0  0  0  0  0  0  0  0  0  0
   -4.6165    1.3571   12.1056 C   0  0  0  0  0  0  0  0  0  0  0  0
   -4.7460    2.7148   11.8408 C   0  0  0  0  0  0  0  0  0  0  0  0
   -4.8403    3.6438   12.8887 C   0  0  0  0  0  0  0  0  0  0  0  0
   -4.8006    3.2157   14.2088 C   0  0  0  0  0  0  0  0  0  0  0  0
   -4.6675    1.8567   14.4608 C   0  0  0  0  0  0  0  0  0  0  0  0
   -4.7804    3.1389   10.5090 O   0  0  0  0  0  0  0  0  0  0  0  0
   -4.7168    2.5117    9.8158 H   0  0  0  0  0  0  0  0  0  0  0  0
   -4.9514    5.0555   12.5620 N   0  0  0  0  0  0  0  0  0  0  0  0
   -3.8002    5.8249   13.0196 C   0  0  0  0  0  0  0  0  0  0  0  0
   -3.6356    7.2638   12.8174 N   0  0  0  0  0  0  0  0  0  0  0  0
   -2.9480    5.2246   13.5909 O   0  0  0  0  0  0  0  0  0  0  0  0
   -5.7179    5.4484   12.0853 H   0  0  0  0  0  0  0  0  0  0  0  0
   -4.3417    7.7750   12.3599 H   0  0  0  0  0  0  0  0  0  0  0  0
   -1.3871    8.2748   12.4215 C   0  0  0  0  0  0  0  0  0  0  0  0
   -0.1294    9.2546   14.2635 C   0  0  0  0  0  0  0  0  0  0  0  0
   -2.3029    8.2766   14.6483 C   0  0  0  0  0  0  0  0  0  0  0  0
   -2.4307    7.9537   13.2887 C   0  0  0  0  0  0  0  0  0  0  0  0
   -0.2433    8.9225   12.9023 C   0  0  0  0  0  0  0  0  0  0  0  0
   -1.1713    8.9288   15.1369 C   0  0  0  0  0  0  0  0  0  0  0  0
   -3.3023    7.9780   15.5367 F   0  0  0  0  0  0  0  0  0  0  0  0
   -1.0979    9.2379   16.4767 F   0  0  0  0  0  0  0  0  0  0  0  0
    0.9926    9.8972   14.7425 F   0  0  0  0  0  0  0  0  0  0  0  0
    0.7684    9.2329   12.0256 F   0  0  0  0  0  0  0  0  0  0  0  0
   -1.4748    7.9655   11.0944 F   0  0  0  0  0  0  0  0  0  0  0  0
   -4.6236    1.1691   16.1346 S   0  0  0  0  0  0  0  0  0  0  0  0
   -3.2817    1.2868   16.6849 O   0  0  0  0  0  0  0  0  0  0  0  0
   -4.8915   -0.2672   16.1831 O   0  0  0  0  0  0  0  0  0  0  0  0
   -5.7149    2.0305   17.1214 N   0  0  0  0  0  0  0  0  0  0  0  0
   -5.5062    3.0275   17.0692 H   0  0  0  0  0  0  0  0  0  0  0  0
   -5.6230    1.7139   18.0866 H   0  0  0  0  0  0  0  0  0  0  0  0
   -4.5302    0.3330   11.0564 N   0  0  0  0  0  0  0  0  0  0  0  0
   -4.9763    0.5224    9.9789 O   0  0  0  0  0  0  0  0  0  0  0  0
   -3.9416   -0.9130   11.3507 O   0  0  0  0  0  0  0  0  0  0  0  0
 33 32  2  0  0  0
 22 20  1  0  0  0
  7  3  1  0  0  0
 32 34  2  0  0  0
 32  2  1  0  0  0
 21 17  1  0  0  0
 20 17  2  0  0  0
 20 16  1  0  0  0
 17 18  1  0  0  0
 23 16  1  0  0  0
 16 19  2  0  0  0
  3  2  2  0  0  0
  3  4  1  0  0  0
  2  1  1  0  0  0
 18 11  1  0  0  0
 18 15  2  0  0  0
 11 10  1  0  0  0
 12 10  2  0  0  0
 10  9  1  0  0  0
 19 15  1  0  0  0
 19 24  1  0  0  0
  9  4  1  0  0  0
 15 25  1  0  0  0
  4  5  2  0  0  0
  1  6  2  0  0  0
  5  6  1  0  0  0
  6 26  1  0  0  0
 29 26  1  0  0  0
 26 27  2  0  0  0
 26 28  2  0  0  0
  7  8  1  0  0  0
  9 13  1  0  0  0
 11 14  1  0  0  0
 29 30  1  0  0  0
 29 31  1  0  0  0
M  END
> <minimizedAffinity>
-9.19285

$$$$
6ECZ_J4D_A_302


 34 35  0  0  0  0  0  0  0  0999 V2000
   -3.3196    3.0454   13.2046 C   0  0  0  0  0  0  0  0  0  0  0  0
   -3.9439    2.2381   12.2749 C   0  0  0  0  0  0  0  0  0  0  0  0
   -4.1970    2.7588   11.0119 C   0  0  0  0  0  0  0  0  0  0  0  0
   -3.8357    4.0774   10.6946 C   0  0  0  0  0  0  0  0  0  0  0  0
   -3.2141    4.8798   11.6419 C   0  0  0  0  0  0  0  0  0  0  0  0
   -2.9633    4.3470   12.8994 C   0  0  0  0  0  0  0  0  0  0  0  0
   -4.8189    1.9434   10.0617 O   0  0  0  0  0  0  0  0  0  0  0  0
   -5.0566    1.0643   10.2824 H   0  0  0  0  0  0  0  0  0  0  0  0
   -4.1003    4.5699    9.3532 N   0  0  0  0  0  0  0  0  0  0  0  0
   -5.0418    5.6834    9.3447 C   0  0  0  0  0  0  0  0  0  0  0  0
   -5.4810    6.3843    8.1387 N   0  0  0  0  0  0  0  0  0  0  0  0
   -5.4682    6.0319   10.3982 O   0  0  0  0  0  0  0  0  0  0  0  0
   -3.6898    4.1940    8.5411 H   0  0  0  0  0  0  0  0  0  0  0  0
   -5.1475    6.0948    7.2588 H   0  0  0  0  0  0  0  0  0  0  0  0
   -7.7871    7.3172    8.3536 C   0  0  0  0  0  0  0  0  0  0  0  0
   -8.1519    9.7258    8.3583 C   0  0  0  0  0  0  0  0  0  0  0  0
   -5.9216    8.8255    8.1496 C   0  0  0  0  0  0  0  0  0  0  0  0
   -6.4126    7.5132    8.2255 C   0  0  0  0  0  0  0  0  0  0  0  0
   -8.6536    8.4142    8.4215 C   0  0  0  0  0  0  0  0  0  0  0  0
   -6.7748    9.9260    8.2239 C   0  0  0  0  0  0  0  0  0  0  0  0
   -4.5787    9.0652    8.0212 F   0  0  0  0  0  0  0  0  0  0  0  0
   -6.2445   11.1951    8.1594 F   0  0  0  0  0  0  0  0  0  0  0  0
   -8.9998   10.8109    8.4297 F   0  0  0  0  0  0  0  0  0  0  0  0
  -10.0036    8.1936    8.5533 F   0  0  0  0  0  0  0  0  0  0  0  0
   -8.2991    6.0530    8.4200 F   0  0  0  0  0  0  0  0  0  0  0  0
   -2.1787    5.2943   14.2273 S   0  0  0  0  0  0  0  0  0  0  0  0
   -3.1673    6.1299   14.8922 O   0  0  0  0  0  0  0  0  0  0  0  0
   -1.1819    6.2519   13.7513 O   0  0  0  0  0  0  0  0  0  0  0  0
   -1.5008    4.2144   15.3590 N   0  0  0  0  0  0  0  0  0  0  0  0
   -2.2160    3.5589   15.6740 H   0  0  0  0  0  0  0  0  0  0  0  0
   -1.1445    4.7388   16.1580 H   0  0  0  0  0  0  0  0  0  0  0  0
   -4.3115    0.8739   12.6759 N   0  0  0  0  0  0  0  0  0  0  0  0
   -4.7007    0.0878   11.8845 O   0  0  0  0  0  0  0  0  0  0  0  0
   -4.2378    0.5072   14.0345 O   0  0  0  0  0  0  0  0  0  0  0  0
 33 32  2  0  0  0
 22 20  1  0  0  0
  7  3  1  0  0  0
 32 34  2  0  0  0
 32  2  1  0  0  0
 21 17  1  0  0  0
 20 17  2  0  0  0
 20 16  1  0  0  0
 17 18  1  0  0  0
 23 16  1  0  0  0
 16 19  2  0  0  0
  3  2  2  0  0  0
  3  4  1  0  0  0
  2  1  1  0  0  0
 18 11  1  0  0  0
 18 15  2  0  0  0
 11 10  1  0  0  0
 12 10  2  0  0  0
 10  9  1  0  0  0
 19 15  1  0  0  0
 19 24  1  0  0  0
  9  4  1  0  0  0
 15 25  1  0  0  0
  4  5  2  0  0  0
  1  6  2  0  0  0
  5  6  1  0  0  0
  6 26  1  0  0  0
 29 26  1  0  0  0
 26 27  2  0  0  0
 26 28  2  0  0  0
  7  8  1  0  0  0
  9 13  1  0  0  0
 11 14  1  0  0  0
 29 30  1  0  0  0
 29 31  1  0  0  0
M  END
> <minimizedAffinity>
-8.85770

$$$$
6ECZ_J4D_A_302


 34 35  0  0  0  0  0  0  0  0999 V2000
   -3.3439    3.0723   13.2327 C   0  0  0  0  0  0  0  0  0  0  0  0
   -3.9647    2.2558   12.3087 C   0  0  0  0  0  0  0  0  0  0  0  0
   -4.2137    2.7641   11.0399 C   0  0  0  0  0  0  0  0  0  0  0  0
   -3.8520    4.0798   10.7111 C   0  0  0  0  0  0  0  0  0  0  0  0
   -3.2340    4.8916   11.6527 C   0  0  0  0  0  0  0  0  0  0  0  0
   -2.9871    4.3711   12.9161 C   0  0  0  0  0  0  0  0  0  0  0  0
   -4.8321    1.9393   10.0955 O   0  0  0  0  0  0  0  0  0  0  0  0
   -5.0701    1.0623   10.3238 H   0  0  0  0  0  0  0  0  0  0  0  0
   -4.1123    4.5593    9.3641 N   0  0  0  0  0  0  0  0  0  0  0  0
   -5.0348    5.6885    9.3438 C   0  0  0  0  0  0  0  0  0  0  0  0
   -5.4657    6.3809    8.1300 N   0  0  0  0  0  0  0  0  0  0  0  0
   -5.4519    6.0578   10.3938 O   0  0  0  0  0  0  0  0  0  0  0  0
   -3.7107    4.1658    8.5559 H   0  0  0  0  0  0  0  0  0  0  0  0
   -5.1398    6.0744    7.2530 H   0  0  0  0  0  0  0  0  0  0  0  0
   -5.9076    8.8383    8.1519 C   0  0  0  0  0  0  0  0  0  0  0  0
   -8.1803    9.6847    8.3821 C   0  0  0  0  0  0  0  0  0  0  0  0
   -7.7547    7.3083    8.3621 C   0  0  0  0  0  0  0  0  0  0  0  0
   -6.3776    7.5266    8.2046 C   0  0  0  0  0  0  0  0  0  0  0  0
   -6.8007    9.9125    8.2381 C   0  0  0  0  0  0  0  0  0  0  0  0
   -8.6545    8.3708    8.4414 C   0  0  0  0  0  0  0  0  0  0  0  0
   -8.2607    6.0364    8.4212 F   0  0  0  0  0  0  0  0  0  0  0  0
   -9.9985    8.1064    8.5812 F   0  0  0  0  0  0  0  0  0  0  0  0
   -9.0659   10.7386    8.4626 F   0  0  0  0  0  0  0  0  0  0  0  0
   -6.3122   11.1956    8.1778 F   0  0  0  0  0  0  0  0  0  0  0  0
   -4.5723    9.0861    8.0094 F   0  0  0  0  0  0  0  0  0  0  0  0
   -2.2075    5.3315   14.2375 S   0  0  0  0  0  0  0  0  0  0  0  0
   -3.2021    6.1596   14.9028 O   0  0  0  0  0  0  0  0  0  0  0  0
   -1.2222    6.2974   13.7542 O   0  0  0  0  0  0  0  0  0  0  0  0
   -1.5145    4.2630   15.3708 N   0  0  0  0  0  0  0  0  0  0  0  0
   -2.2217    3.6015   15.6910 H   0  0  0  0  0  0  0  0  0  0  0  0
   -1.1606    4.7941   16.1665 H   0  0  0  0  0  0  0  0  0  0  0  0
   -4.3329    0.8953   12.7216 N   0  0  0  0  0  0  0  0  0  0  0  0
   -4.7028    0.0962   11.9338 O   0  0  0  0  0  0  0  0  0  0  0  0
   -4.2836    0.5479   14.0863 O   0  0  0  0  0  0  0  0  0  0  0  0
 33 32  2  0  0  0
 22 20  1  0  0  0
  7  3  1  0  0  0
 32 34  2  0  0  0
 32  2  1  0  0  0
 21 17  1  0  0  0
 20 17  2  0  0  0
 20 16  1  0  0  0
 17 18  1  0  0  0
 23 16  1  0  0  0
 16 19  2  0  0  0
  3  2  2  0  0  0
  3  4  1  0  0  0
  2  1  1  0  0  0
 18 11  1  0  0  0
 18 15  2  0  0  0
 11 10  1  0  0  0
 12 10  2  0  0  0
 10  9  1  0  0  0
 19 15  1  0  0  0
 19 24  1  0  0  0
  9  4  1  0  0  0
 15 25  1  0  0  0
  4  5  2  0  0  0
  1  6  2  0  0  0
  5  6  1  0  0  0
  6 26  1  0  0  0
 29 26  1  0  0  0
 26 27  2  0  0  0
 26 28  2  0  0  0
  7  8  1  0  0  0
  9 13  1  0  0  0
 11 14  1  0  0  0
 29 30  1  0  0  0
 29 31  1  0  0  0
M  END
> <minimizedAffinity>
-8.85102

$$$$
6ECZ_J4D_A_302


 34 35  0  0  0  0  0  0  0  0999 V2000
   -4.6133    0.7749   13.3842 C   0  0  0  0  0  0  0  0  0  0  0  0
   -4.5500    1.0815   12.0397 C   0  0  0  0  0  0  0  0  0  0  0  0
   -4.4698    2.4183   11.6701 C   0  0  0  0  0  0  0  0  0  0  0  0
   -4.4645    3.4316   12.6413 C   0  0  0  0  0  0  0  0  0  0  0  0
   -4.5351    3.1085   13.9897 C   0  0  0  0  0  0  0  0  0  0  0  0
   -4.6113    1.7688   14.3468 C   0  0  0  0  0  0  0  0  0  0  0  0
   -4.3942    2.7358   10.3106 O   0  0  0  0  0  0  0  0  0  0  0  0
   -4.3983    2.0529    9.6691 H   0  0  0  0  0  0  0  0  0  0  0  0
   -4.3561    4.8142   12.2070 N   0  0  0  0  0  0  0  0  0  0  0  0
   -2.9736    5.2759   12.1597 C   0  0  0  0  0  0  0  0  0  0  0  0
   -2.5650    6.6178   11.7465 N   0  0  0  0  0  0  0  0  0  0  0  0
   -2.1371    4.4945   12.4797 O   0  0  0  0  0  0  0  0  0  0  0  0
   -5.1293    5.3761   11.9712 H   0  0  0  0  0  0  0  0  0  0  0  0
   -3.2494    7.2791   11.4944 H   0  0  0  0  0  0  0  0  0  0  0  0
   -0.3148    6.5732   10.6651 C   0  0  0  0  0  0  0  0  0  0  0  0
    1.5755    7.7139   11.6946 C   0  0  0  0  0  0  0  0  0  0  0  0
   -0.5993    7.7573   12.7421 C   0  0  0  0  0  0  0  0  0  0  0  0
   -1.1472    6.9893   11.7034 C   0  0  0  0  0  0  0  0  0  0  0  0
    1.0378    6.9328   10.6570 C   0  0  0  0  0  0  0  0  0  0  0  0
    0.7451    8.1280   12.7404 C   0  0  0  0  0  0  0  0  0  0  0  0
   -1.3793    8.1862   13.7836 F   0  0  0  0  0  0  0  0  0  0  0  0
    1.2338    8.8946   13.7745 F   0  0  0  0  0  0  0  0  0  0  0  0
    2.9061    8.0758   11.6900 F   0  0  0  0  0  0  0  0  0  0  0  0
    1.8353    6.5144    9.6190 F   0  0  0  0  0  0  0  0  0  0  0  0
   -0.8137    5.8162    9.6440 F   0  0  0  0  0  0  0  0  0  0  0  0
   -4.7284    1.2173   16.0668 S   0  0  0  0  0  0  0  0  0  0  0  0
   -3.4624    1.4429   16.7480 O   0  0  0  0  0  0  0  0  0  0  0  0
   -4.9428   -0.2221   16.2053 O   0  0  0  0  0  0  0  0  0  0  0  0
   -5.9568    2.0992   16.8541 N   0  0  0  0  0  0  0  0  0  0  0  0
   -5.7833    3.0980   16.7422 H   0  0  0  0  0  0  0  0  0  0  0  0
   -5.9613    1.8640   17.8466 H   0  0  0  0  0  0  0  0  0  0  0  0
   -4.5770   -0.0245   11.0738 N   0  0  0  0  0  0  0  0  0  0  0  0
   -4.1778   -1.0984   11.3625 O   0  0  0  0  0  0  0  0  0  0  0  0
   -5.0496    0.2080    9.7668 O   0  0  0  0  0  0  0  0  0  0  0  0
 33 32  2  0  0  0
 22 20  1  0  0  0
  7  3  1  0  0  0
 32 34  2  0  0  0
 32  2  1  0  0  0
 21 17  1  0  0  0
 20 17  2  0  0  0
 20 16  1  0  0  0
 17 18  1  0  0  0
 23 16  1  0  0  0
 16 19  2  0  0  0
  3  2  2  0  0  0
  3  4  1  0  0  0
  2  1  1  0  0  0
 18 11  1  0  0  0
 18 15  2  0  0  0
 11 10  1  0  0  0
 12 10  2  0  0  0
 10  9  1  0  0  0
 19 15  1  0  0  0
 19 24  1  0  0  0
  9  4  1  0  0  0
 15 25  1  0  0  0
  4  5  2  0  0  0
  1  6  2  0  0  0
  5  6  1  0  0  0
  6 26  1  0  0  0
 29 26  1  0  0  0
 26 27  2  0  0  0
 26 28  2  0  0  0
  7  8  1  0  0  0
  9 13  1  0  0  0
 11 14  1  0  0  0
 29 30  1  0  0  0
 29 31  1  0  0  0
M  END
> <minimizedAffinity>
-8.69225

$$$$
6ECZ_J4D_A_302


 34 35  0  0  0  0  0  0  0  0999 V2000
   -5.5115    3.2793   14.9011 C   0  0  0  0  0  0  0  0  0  0  0  0
   -5.6096    4.3771   14.0698 C   0  0  0  0  0  0  0  0  0  0  0  0
   -4.9334    4.3495   12.8565 C   0  0  0  0  0  0  0  0  0  0  0  0
   -4.1609    3.2359   12.4916 C   0  0  0  0  0  0  0  0  0  0  0  0
   -4.0663    2.1415   13.3406 C   0  0  0  0  0  0  0  0  0  0  0  0
   -4.7495    2.1794   14.5488 C   0  0  0  0  0  0  0  0  0  0  0  0
   -5.0372    5.4531   12.0046 O   0  0  0  0  0  0  0  0  0  0  0  0
   -5.5551    6.1923   12.2564 H   0  0  0  0  0  0  0  0  0  0  0  0
   -3.4905    3.2438   11.2022 N   0  0  0  0  0  0  0  0  0  0  0  0
   -2.2660    4.0357   11.2164 C   0  0  0  0  0  0  0  0  0  0  0  0
   -1.3821    4.2100   10.0646 N   0  0  0  0  0  0  0  0  0  0  0  0
   -1.9830    4.5653   12.2423 O   0  0  0  0  0  0  0  0  0  0  0  0
   -3.8254    2.7679   10.4081 H   0  0  0  0  0  0  0  0  0  0  0  0
   -1.6138    3.7897    9.2051 H   0  0  0  0  0  0  0  0  0  0  0  0
    0.9432    4.5524   10.9076 C   0  0  0  0  0  0  0  0  0  0  0  0
    2.1652    6.5911   10.3737 C   0  0  0  0  0  0  0  0  0  0  0  0
   -0.0834    6.2621    9.5586 C   0  0  0  0  0  0  0  0  0  0  0  0
   -0.1544    5.0040   10.1757 C   0  0  0  0  0  0  0  0  0  0  0  0
    2.0975    5.3377   11.0065 C   0  0  0  0  0  0  0  0  0  0  0  0
    1.0644    7.0496    9.6440 C   0  0  0  0  0  0  0  0  0  0  0  0
   -1.1386    6.7469    8.8314 F   0  0  0  0  0  0  0  0  0  0  0  0
    1.0919    8.2712    9.0092 F   0  0  0  0  0  0  0  0  0  0  0  0
    3.3013    7.3674   10.4631 F   0  0  0  0  0  0  0  0  0  0  0  0
    3.1674    4.8669   11.7292 F   0  0  0  0  0  0  0  0  0  0  0  0
    0.9035    3.3372   11.5292 F   0  0  0  0  0  0  0  0  0  0  0  0
   -4.6915    0.8277   15.7513 S   0  0  0  0  0  0  0  0  0  0  0  0
   -3.5254    0.9759   16.6092 O   0  0  0  0  0  0  0  0  0  0  0  0
   -4.5065   -0.4883   15.1422 O   0  0  0  0  0  0  0  0  0  0  0  0
   -6.1029    0.8687   16.7067 N   0  0  0  0  0  0  0  0  0  0  0  0
   -6.2077    1.7958   17.1188 H   0  0  0  0  0  0  0  0  0  0  0  0
   -6.0313    0.1728   17.4490 H   0  0  0  0  0  0  0  0  0  0  0  0
   -6.4199    5.5169   14.5185 N   0  0  0  0  0  0  0  0  0  0  0  0
   -6.4107    5.8672   15.6468 O   0  0  0  0  0  0  0  0  0  0  0  0
   -7.2544    6.1797   13.5965 O   0  0  0  0  0  0  0  0  0  0  0  0
 33 32  2  0  0  0
 22 20  1  0  0  0
  7  3  1  0  0  0
 32 34  2  0  0  0
 32  2  1  0  0  0
 21 17  1  0  0  0
 20 17  2  0  0  0
 20 16  1  0  0  0
 17 18  1  0  0  0
 23 16  1  0  0  0
 16 19  2  0  0  0
  3  2  2  0  0  0
  3  4  1  0  0  0
  2  1  1  0  0  0
 18 11  1  0  0  0
 18 15  2  0  0  0
 11 10  1  0  0  0
 12 10  2  0  0  0
 10  9  1  0  0  0
 19 15  1  0  0  0
 19 24  1  0  0  0
  9  4  1  0  0  0
 15 25  1  0  0  0
  4  5  2  0  0  0
  1  6  2  0  0  0
  5  6  1  0  0  0
  6 26  1  0  0  0
 29 26  1  0  0  0
 26 27  2  0  0  0
 26 28  2  0  0  0
  7  8  1  0  0  0
  9 13  1  0  0  0
 11 14  1  0  0  0
 29 30  1  0  0  0
 29 31  1  0  0  0
M  END
> <minimizedAffinity>
-8.51996

$$$$
6ECZ_J4D_A_302


 34 35  0  0  0  0  0  0  0  0999 V2000
   -5.5145    3.3279   14.9295 C   0  0  0  0  0  0  0  0  0  0  0  0
   -5.6193    4.4085   14.0769 C   0  0  0  0  0  0  0  0  0  0  0  0
   -4.9402    4.3626   12.8657 C   0  0  0  0  0  0  0  0  0  0  0  0
   -4.1583    3.2481   12.5241 C   0  0  0  0  0  0  0  0  0  0  0  0
   -4.0571    2.1712   13.3944 C   0  0  0  0  0  0  0  0  0  0  0  0
   -4.7432    2.2273   14.6003 C   0  0  0  0  0  0  0  0  0  0  0  0
   -5.0507    5.4486   11.9923 O   0  0  0  0  0  0  0  0  0  0  0  0
   -5.5749    6.1885   12.2286 H   0  0  0  0  0  0  0  0  0  0  0  0
   -3.4852    3.2362   11.2361 N   0  0  0  0  0  0  0  0  0  0  0  0
   -2.2767    4.0523   11.2323 C   0  0  0  0  0  0  0  0  0  0  0  0
   -1.3936    4.2146   10.0780 N   0  0  0  0  0  0  0  0  0  0  0  0
   -2.0066    4.6137   12.2446 O   0  0  0  0  0  0  0  0  0  0  0  0
   -3.8088    2.7335   10.4539 H   0  0  0  0  0  0  0  0  0  0  0  0
   -1.6150    3.7677    9.2291 H   0  0  0  0  0  0  0  0  0  0  0  0
   -0.0854    6.2692    9.5287 C   0  0  0  0  0  0  0  0  0  0  0  0
    2.1850    6.5510   10.3656 C   0  0  0  0  0  0  0  0  0  0  0  0
    0.9219    4.5632   10.8969 C   0  0  0  0  0  0  0  0  0  0  0  0
   -0.1821    5.0353   10.1709 C   0  0  0  0  0  0  0  0  0  0  0  0
    1.0885    7.0253    9.6249 C   0  0  0  0  0  0  0  0  0  0  0  0
    2.0937    5.3115   11.0059 C   0  0  0  0  0  0  0  0  0  0  0  0
    0.8723    3.3555   11.5419 F   0  0  0  0  0  0  0  0  0  0  0  0
    3.1454    4.8127   11.7414 F   0  0  0  0  0  0  0  0  0  0  0  0
    3.3425    7.2932   10.4684 F   0  0  0  0  0  0  0  0  0  0  0  0
    1.1559    8.2407    8.9872 F   0  0  0  0  0  0  0  0  0  0  0  0
   -1.1376    6.7534    8.8055 F   0  0  0  0  0  0  0  0  0  0  0  0
   -4.6774    0.8998   15.8289 S   0  0  0  0  0  0  0  0  0  0  0  0
   -3.4634    1.0175   16.6227 O   0  0  0  0  0  0  0  0  0  0  0  0
   -4.5773   -0.4352   15.2416 O   0  0  0  0  0  0  0  0  0  0  0  0
   -6.0346    1.0189   16.8538 N   0  0  0  0  0  0  0  0  0  0  0  0
   -6.0805    1.9580   17.2493 H   0  0  0  0  0  0  0  0  0  0  0  0
   -5.9526    0.3363   17.6072 H   0  0  0  0  0  0  0  0  0  0  0  0
   -6.4393    5.5505   14.5016 N   0  0  0  0  0  0  0  0  0  0  0  0
   -6.4250    5.9313   15.6199 O   0  0  0  0  0  0  0  0  0  0  0  0
   -7.2893    6.1782   13.5694 O   0  0  0  0  0  0  0  0  0  0  0  0
 33 32  2  0  0  0
 22 20  1  0  0  0
  7  3  1  0  0  0
 32 34  2  0  0  0
 32  2  1  0  0  0
 21 17  1  0  0  0
 20 17  2  0  0  0
 20 16  1  0  0  0
 17 18  1  0  0  0
 23 16  1  0  0  0
 16 19  2  0  0  0
  3  2  2  0  0  0
  3  4  1  0  0  0
  2  1  1  0  0  0
 18 11  1  0  0  0
 18 15  2  0  0  0
 11 10  1  0  0  0
 12 10  2  0  0  0
 10  9  1  0  0  0
 19 15  1  0  0  0
 19 24  1  0  0  0
  9  4  1  0  0  0
 15 25  1  0  0  0
  4  5  2  0  0  0
  1  6  2  0  0  0
  5  6  1  0  0  0
  6 26  1  0  0  0
 29 26  1  0  0  0
 26 27  2  0  0  0
 26 28  2  0  0  0
  7  8  1  0  0  0
  9 13  1  0  0  0
 11 14  1  0  0  0
 29 30  1  0  0  0
 29 31  1  0  0  0
M  END
> <minimizedAffinity>
-8.45863

$$$$
6ECZ_J4D_A_302


 34 35  0  0  0  0  0  0  0  0999 V2000
    1.1366    6.6031   12.2171 C   0  0  0  0  0  0  0  0  0  0  0  0
    1.0105    5.3396   11.6753 C   0  0  0  0  0  0  0  0  0  0  0  0
   -0.2666    4.8261   11.4867 C   0  0  0  0  0  0  0  0  0  0  0  0
   -1.3995    5.5712   11.8492 C   0  0  0  0  0  0  0  0  0  0  0  0
   -1.2572    6.8381   12.3990 C   0  0  0  0  0  0  0  0  0  0  0  0
    0.0241    7.3419   12.5793 C   0  0  0  0  0  0  0  0  0  0  0  0
   -0.4022    3.5517   10.9281 O   0  0  0  0  0  0  0  0  0  0  0  0
    0.3597    3.0615   10.6891 H   0  0  0  0  0  0  0  0  0  0  0  0
   -2.7150    5.0012   11.6115 N   0  0  0  0  0  0  0  0  0  0  0  0
   -3.1987    4.2249   12.7472 C   0  0  0  0  0  0  0  0  0  0  0  0
   -4.4948    3.5492   12.7935 N   0  0  0  0  0  0  0  0  0  0  0  0
   -2.4784    4.1497   13.6898 O   0  0  0  0  0  0  0  0  0  0  0  0
   -3.2228    5.1253   10.7772 H   0  0  0  0  0  0  0  0  0  0  0  0
   -5.0935    3.5907   12.0132 H   0  0  0  0  0  0  0  0  0  0  0  0
   -5.7435    3.3862   14.9496 C   0  0  0  0  0  0  0  0  0  0  0  0
   -5.6551    1.3471   16.2795 C   0  0  0  0  0  0  0  0  0  0  0  0
   -4.4463    1.5032   14.1955 C   0  0  0  0  0  0  0  0  0  0  0  0
   -4.9124    2.8106   13.9894 C   0  0  0  0  0  0  0  0  0  0  0  0
   -6.1156    2.6612   16.0876 C   0  0  0  0  0  0  0  0  0  0  0  0
   -4.8168    0.7688   15.3216 C   0  0  0  0  0  0  0  0  0  0  0  0
   -3.6260    0.8988   13.2796 F   0  0  0  0  0  0  0  0  0  0  0  0
   -4.3455   -0.5160   15.4730 F   0  0  0  0  0  0  0  0  0  0  0  0
   -6.0221    0.6257   17.3959 F   0  0  0  0  0  0  0  0  0  0  0  0
   -6.9404    3.2497   17.0160 F   0  0  0  0  0  0  0  0  0  0  0  0
   -6.2065    4.6602   14.7850 F   0  0  0  0  0  0  0  0  0  0  0  0
    0.3453    8.9692   13.3037 S   0  0  0  0  0  0  0  0  0  0  0  0
    1.7458    9.0759   13.6840 O   0  0  0  0  0  0  0  0  0  0  0  0
   -0.3710    9.2025   14.5565 O   0  0  0  0  0  0  0  0  0  0  0  0
   -0.0199   10.1745   12.1545 N   0  0  0  0  0  0  0  0  0  0  0  0
    0.4918    9.9881   11.2921 H   0  0  0  0  0  0  0  0  0  0  0  0
    0.2518   11.0869   12.5207 H   0  0  0  0  0  0  0  0  0  0  0  0
    2.2360    4.6058   11.3336 N   0  0  0  0  0  0  0  0  0  0  0  0
    3.1750    4.6163   12.0506 O   0  0  0  0  0  0  0  0  0  0  0  0
    2.3090    3.9099   10.1105 O   0  0  0  0  0  0  0  0  0  0  0  0
 33 32  2  0  0  0
 22 20  1  0  0  0
  7  3  1  0  0  0
 32 34  2  0  0  0
 32  2  1  0  0  0
 21 17  1  0  0  0
 20 17  2  0  0  0
 20 16  1  0  0  0
 17 18  1  0  0  0
 23 16  1  0  0  0
 16 19  2  0  0  0
  3  2  2  0  0  0
  3  4  1  0  0  0
  2  1  1  0  0  0
 18 11  1  0  0  0
 18 15  2  0  0  0
 11 10  1  0  0  0
 12 10  2  0  0  0
 10  9  1  0  0  0
 19 15  1  0  0  0
 19 24  1  0  0  0
  9  4  1  0  0  0
 15 25  1  0  0  0
  4  5  2  0  0  0
  1  6  2  0  0  0
  5  6  1  0  0  0
  6 26  1  0  0  0
 29 26  1  0  0  0
 26 27  2  0  0  0
 26 28  2  0  0  0
  7  8  1  0  0  0
  9 13  1  0  0  0
 11 14  1  0  0  0
 29 30  1  0  0  0
 29 31  1  0  0  0
M  END
> <minimizedAffinity>
-8.37860

$$$$
6ECZ_J4D_A_302


 34 35  0  0  0  0  0  0  0  0999 V2000
    0.6519    6.9141   12.4081 C   0  0  0  0  0  0  0  0  0  0  0  0
   -0.3899    7.6011   12.9984 C   0  0  0  0  0  0  0  0  0  0  0  0
   -1.6757    7.0914   12.8671 C   0  0  0  0  0  0  0  0  0  0  0  0
   -1.9089    5.9124   12.1422 C   0  0  0  0  0  0  0  0  0  0  0  0
   -0.8521    5.2355   11.5486 C   0  0  0  0  0  0  0  0  0  0  0  0
    0.4288    5.7528   11.6897 C   0  0  0  0  0  0  0  0  0  0  0  0
   -2.7343    7.7758   13.4717 O   0  0  0  0  0  0  0  0  0  0  0  0
   -2.5694    8.5622   13.9537 H   0  0  0  0  0  0  0  0  0  0  0  0
   -3.2680    5.4058   12.0521 N   0  0  0  0  0  0  0  0  0  0  0  0
   -3.5691    4.4314   13.0944 C   0  0  0  0  0  0  0  0  0  0  0  0
   -4.8619    3.7671   13.2552 N   0  0  0  0  0  0  0  0  0  0  0  0
   -2.6935    4.1746   13.8562 O   0  0  0  0  0  0  0  0  0  0  0  0
   -3.9132    5.6887   11.3643 H   0  0  0  0  0  0  0  0  0  0  0  0
   -5.5901    3.9593   12.6211 H   0  0  0  0  0  0  0  0  0  0  0  0
   -4.5392    1.5354   14.3275 C   0  0  0  0  0  0  0  0  0  0  0  0
   -5.5771    1.0320   16.4731 C   0  0  0  0  0  0  0  0  0  0  0  0
   -5.8911    3.1900   15.4373 C   0  0  0  0  0  0  0  0  0  0  0  0
   -5.0856    2.8180   14.3502 C   0  0  0  0  0  0  0  0  0  0  0  0
   -4.7801    0.6464   15.3813 C   0  0  0  0  0  0  0  0  0  0  0  0
   -6.1315    2.3152   16.4964 C   0  0  0  0  0  0  0  0  0  0  0  0
   -6.4503    4.4392   15.5004 F   0  0  0  0  0  0  0  0  0  0  0  0
   -6.9169    2.7307   17.5482 F   0  0  0  0  0  0  0  0  0  0  0  0
   -5.8142    0.1626   17.5169 F   0  0  0  0  0  0  0  0  0  0  0  0
   -4.2251   -0.6100   15.3372 F   0  0  0  0  0  0  0  0  0  0  0  0
   -3.7591    1.1377   13.2796 F   0  0  0  0  0  0  0  0  0  0  0  0
    1.8868    4.9779   10.9483 S   0  0  0  0  0  0  0  0  0  0  0  0
    2.5355    5.9094   10.0377 O   0  0  0  0  0  0  0  0  0  0  0  0
    1.5705    3.8302   10.0998 O   0  0  0  0  0  0  0  0  0  0  0  0
    2.9789    4.5450   12.1838 N   0  0  0  0  0  0  0  0  0  0  0  0
    3.1821    5.3620   12.7596 H   0  0  0  0  0  0  0  0  0  0  0  0
    3.8434    4.1988   11.7676 H   0  0  0  0  0  0  0  0  0  0  0  0
   -0.0806    8.8376   13.7280 N   0  0  0  0  0  0  0  0  0  0  0  0
    0.6937    9.6217   13.3019 O   0  0  0  0  0  0  0  0  0  0  0  0
   -0.6865    9.0749   14.9779 O   0  0  0  0  0  0  0  0  0  0  0  0
 33 32  2  0  0  0
 22 20  1  0  0  0
  7  3  1  0  0  0
 32 34  2  0  0  0
 32  2  1  0  0  0
 21 17  1  0  0  0
 20 17  2  0  0  0
 20 16  1  0  0  0
 17 18  1  0  0  0
 23 16  1  0  0  0
 16 19  2  0  0  0
  3  2  2  0  0  0
  3  4  1  0  0  0
  2  1  1  0  0  0
 18 11  1  0  0  0
 18 15  2  0  0  0
 11 10  1  0  0  0
 12 10  2  0  0  0
 10  9  1  0  0  0
 19 15  1  0  0  0
 19 24  1  0  0  0
  9  4  1  0  0  0
 15 25  1  0  0  0
  4  5  2  0  0  0
  1  6  2  0  0  0
  5  6  1  0  0  0
  6 26  1  0  0  0
 29 26  1  0  0  0
 26 27  2  0  0  0
 26 28  2  0  0  0
  7  8  1  0  0  0
  9 13  1  0  0  0
 11 14  1  0  0  0
 29 30  1  0  0  0
 29 31  1  0  0  0
M  END
> <minimizedAffinity>
-8.35861

$$$$
6ECZ_J4D_A_302


 34 35  0  0  0  0  0  0  0  0999 V2000
    1.2486    6.6169   12.2215 C   0  0  0  0  0  0  0  0  0  0  0  0
    1.1118    5.3548   11.6790 C   0  0  0  0  0  0  0  0  0  0  0  0
   -0.1698    4.8544   11.4854 C   0  0  0  0  0  0  0  0  0  0  0  0
   -1.2964    5.6109   11.8436 C   0  0  0  0  0  0  0  0  0  0  0  0
   -1.1434    6.8762   12.3941 C   0  0  0  0  0  0  0  0  0  0  0  0
    0.1423    7.3669   12.5794 C   0  0  0  0  0  0  0  0  0  0  0  0
   -0.3162    3.5815   10.9261 O   0  0  0  0  0  0  0  0  0  0  0  0
    0.4416    3.0835   10.6900 H   0  0  0  0  0  0  0  0  0  0  0  0
   -2.6168    5.0544   11.6007 N   0  0  0  0  0  0  0  0  0  0  0  0
   -3.1017    4.2613   12.7242 C   0  0  0  0  0  0  0  0  0  0  0  0
   -4.4023    3.5938   12.7634 N   0  0  0  0  0  0  0  0  0  0  0  0
   -2.3786    4.1642   13.6626 O   0  0  0  0  0  0  0  0  0  0  0  0
   -3.1267    5.1969   10.7707 H   0  0  0  0  0  0  0  0  0  0  0  0
   -5.0036    3.6534   11.9861 H   0  0  0  0  0  0  0  0  0  0  0  0
   -4.4062    1.5222   14.1573 C   0  0  0  0  0  0  0  0  0  0  0  0
   -5.6837    1.4276   16.2294 C   0  0  0  0  0  0  0  0  0  0  0  0
   -5.6819    3.4311   14.8823 C   0  0  0  0  0  0  0  0  0  0  0  0
   -4.8207    2.8369   13.9474 C   0  0  0  0  0  0  0  0  0  0  0  0
   -4.8318    0.8200   15.2908 C   0  0  0  0  0  0  0  0  0  0  0  0
   -6.1061    2.7437   16.0191 C   0  0  0  0  0  0  0  0  0  0  0  0
   -6.1162    4.7198   14.7154 F   0  0  0  0  0  0  0  0  0  0  0  0
   -6.9398    3.3739   16.9155 F   0  0  0  0  0  0  0  0  0  0  0  0
   -6.1027    0.7430   17.3506 F   0  0  0  0  0  0  0  0  0  0  0  0
   -4.4042   -0.4727   15.4769 F   0  0  0  0  0  0  0  0  0  0  0  0
   -3.5764    0.9106   13.2618 F   0  0  0  0  0  0  0  0  0  0  0  0
    0.4772    8.9908   13.3053 S   0  0  0  0  0  0  0  0  0  0  0  0
   -0.2702    9.1447   14.5443 O   0  0  0  0  0  0  0  0  0  0  0  0
    0.0128   10.1058   12.4816 O   0  0  0  0  0  0  0  0  0  0  0  0
    2.1450    9.1233   13.6331 N   0  0  0  0  0  0  0  0  0  0  0  0
    2.4422    8.3348   14.2078 H   0  0  0  0  0  0  0  0  0  0  0  0
    2.3254    9.9946   14.1318 H   0  0  0  0  0  0  0  0  0  0  0  0
    2.3310    4.6085   11.3420 N   0  0  0  0  0  0  0  0  0  0  0  0
    3.2670    4.6089   12.0629 O   0  0  0  0  0  0  0  0  0  0  0  0
    2.4019    3.9127   10.1187 O   0  0  0  0  0  0  0  0  0  0  0  0
 33 32  2  0  0  0
 22 20  1  0  0  0
  7  3  1  0  0  0
 32 34  2  0  0  0
 32  2  1  0  0  0
 21 17  1  0  0  0
 20 17  2  0  0  0
 20 16  1  0  0  0
 17 18  1  0  0  0
 23 16  1  0  0  0
 16 19  2  0  0  0
  3  2  2  0  0  0
  3  4  1  0  0  0
  2  1  1  0  0  0
 18 11  1  0  0  0
 18 15  2  0  0  0
 11 10  1  0  0  0
 12 10  2  0  0  0
 10  9  1  0  0  0
 19 15  1  0  0  0
 19 24  1  0  0  0
  9  4  1  0  0  0
 15 25  1  0  0  0
  4  5  2  0  0  0
  1  6  2  0  0  0
  5  6  1  0  0  0
  6 26  1  0  0  0
 29 26  1  0  0  0
 26 27  2  0  0  0
 26 28  2  0  0  0
  7  8  1  0  0  0
  9 13  1  0  0  0
 11 14  1  0  0  0
 29 30  1  0  0  0
 29 31  1  0  0  0
M  END
> <minimizedAffinity>
-8.31606

$$$$
