5O4F_8VE_B_305
  RCSB PDB12061719163D
Coordinates from PDB:5O4F:B:305 Model:1 without hydrogens
 15 16  0  0  0  0            999 V2000
   15.6270   69.6050   23.5460   N 0  0  0  0  0  0  0  0  0  0  0  0
   17.6690   68.4090   21.3060   N 0  0  0  0  0  0  0  0  0  0  0  0
   16.4720   67.4820   23.1920   C 0  0  0  0  0  0  0  0  0  0  0  0
   17.5760   67.1280   22.1560   C 0  0  0  0  0  0  0  0  0  0  0  0
   15.2150   70.9820   23.3080   C 0  0  0  0  0  0  0  0  0  0  0  0
   17.7010   67.3430   25.5590   C 0  0  0  0  0  0  0  0  0  0  0  0
   17.3630   65.9130   21.2040   C 0  0  0  0  0  0  0  0  0  0  0  0
   16.8460   68.0990   24.5540   C 0  0  0  0  0  0  0  0  0  0  0  0
   16.3600   69.2820   24.6850   N 0  0  0  0  0  0  0  0  0  0  0  0
   16.2410   68.9480   21.2000   C 0  0  0  0  0  0  0  0  0  0  0  0
   15.6010   68.5570   22.5540   C 0  0  0  0  0  0  0  0  0  0  0  0
   18.0920   67.9560   26.5830   O 0  0  0  0  0  0  0  0  0  0  0  0
   17.5180   66.0460   19.9630   O 0  0  0  0  0  0  0  0  0  0  0  0
   17.9690   66.1400   25.3270   O 0  0  0  0  0  0  0  0  0  0  0  0
   17.0390   64.8190   21.7170   O 0  0  0  0  0  0  0  0  0  0  0  0
  5  1  1  0  0  0  0
  9  1  1  0  0  0  0
  9  8  2  0  0  0  0
  1 11  1  0  0  0  0
 14  6  2  0  0  0  0
 10  2  1  0  0  0  0
 10 11  1  0  0  0  0
  8  6  1  0  0  0  0
  8  3  1  0  0  0  0
  2  4  1  0  0  0  0
  6 12  1  0  0  0  0
 11  3  1  0  0  0  0
  3  4  1  0  0  0  0
  4  7  1  0  0  0  0
  7 13  2  0  0  0  0
  7 15  1  0  0  0  0
A    1
N1
A    2
N3
A    3
C4
A    4
C5
A    5
C6
A    6
C7
A    7
C8
A    8
C1
A    9
N2
A   10
C2
A   11
C3
A   12
O1
A   13
O2
A   14
O3
A   15
O4
M  END
>  <InstanceId>
5O4F_8VE_B_305

>  <ChemCompId>
8VE

>  <PdbId>
5O4F

>  <ChainId>
B

>  <ResidueNumber>
305

>  <InsertionCode>


>  <Model>
1

>  <AltIds>


>  <MissingHeavyAtoms>
0

>  <ObservedFormula>
C8 N3 O4

>  <Name>
(3~{a}~{R},4~{S},6~{a}~{R})-1-methyl-4,5,6,6~{a}-tetrahydro-3~{a}~{H}-pyrrolo[3,4-c]pyrazole-3,4-dicarboxylic acid

>  <SystematicName>
(3~{a}~{R},4~{S},6~{a}~{R})-1-methyl-4,5,6,6~{a}-tetrahydro-3~{a}~{H}-pyrrolo[3,4-c]pyrazole-3,4-dicarboxylic acid

>  <Synonyms>


>  <Type>
NON-POLYMER

>  <Formula>
C8 H11 N3 O4

>  <MolecularWeight>
213.191

>  <ModifiedDate>
2017-07-21

>  <Parent>


>  <OneLetterCode>


>  <SubcomponentList>


>  <AmbiguousFlag>
N

>  <InChI>
InChI=1S/C8H11N3O4/c1-11-3-2-9-5(7(12)13)4(3)6(10-11)8(14)15/h3-5,9H,2H2,1H3,(H,12,13)(H,14,15)/t3-,4-,5-/m0/s1

>  <InChIKey>
MUCHMWUQFYVYSF-YUPRTTJUSA-N

>  <SMILES>
CN1[C@H]2CN[C@@H]([C@H]2C(=N1)C(=O)O)C(=O)O

$$$$
