1JMG_UMP_A_317


 24 25  0  0  0  0  0  0  0  0999 V2000
   17.0544   46.3135  -52.6054 C   0  0  0  0  0  0  0  0  0  0  0  0
   15.6088   46.5509  -53.0588 C   0  0  0  0  0  0  0  0  0  0  0  0
   15.7178   46.4189  -54.5727 C   0  0  0  0  0  0  0  0  0  0  0  0
   16.9895   47.1921  -54.9847 C   0  0  0  0  0  0  0  0  0  0  0  0
   15.8889   44.9784  -54.8300 O   0  0  0  0  0  0  0  0  0  0  0  0
   17.7325   47.2018  -53.6252 O   0  0  0  0  0  0  0  0  0  0  0  0
   16.6570   44.6508  -54.3365 H   0  0  0  0  0  0  0  0  0  0  0  0
   17.2470   46.1941  -51.1103 N   0  0  0  0  0  0  0  0  0  0  0  0
   18.4590   45.6392  -50.7009 C   0  0  0  0  0  0  0  0  0  0  0  0
   18.6850   45.2594  -49.4190 N   0  0  0  0  0  0  0  0  0  0  0  0
   17.7669   45.4032  -48.4306 C   0  0  0  0  0  0  0  0  0  0  0  0
   16.4931   46.0237  -48.8805 C   0  0  0  0  0  0  0  0  0  0  0  0
   16.2794   46.4084  -50.2354 C   0  0  0  0  0  0  0  0  0  0  0  0
   19.4172   45.5087  -51.4240 O   0  0  0  0  0  0  0  0  0  0  0  0
   18.0690   44.9999  -47.3069 O   0  0  0  0  0  0  0  0  0  0  0  0
   19.5567   44.8603  -49.1949 H   0  0  0  0  0  0  0  0  0  0  0  0
   16.6453   48.6228  -55.4385 C   0  0  0  0  0  0  0  0  0  0  0  0
   16.9046   48.9349  -56.8850 O   0  0  0  0  0  0  0  0  0  0  0  0
   15.6411   49.3827  -57.8115 P   0  0  0  0  0  0  0  0  0  0  0  0
   15.7441   49.0840  -59.2521 O   0  0  0  0  0  0  0  0  0  0  0  0
   14.5297   48.6011  -57.2460 O   0  0  0  0  0  0  0  0  0  0  0  0
   15.4294   50.8286  -57.6314 O   0  0  0  0  0  0  0  0  0  0  0  0
   14.6984   47.6554  -57.3801 H   0  0  0  0  0  0  0  0  0  0  0  0
   16.1767   51.3148  -58.0135 H   0  0  0  0  0  0  0  0  0  0  0  0
  8  9  1  0  0  0
  8 13  1  0  0  0
  8  1  1  0  0  0
  9 10  1  0  0  0
  9 14  2  0  0  0
 10 11  1  0  0  0
 11 12  1  0  0  0
 11 15  2  0  0  0
 12 13  2  0  0  0
  1  2  1  0  0  0
  1  6  1  0  0  0
  2  3  1  0  0  0
  3  4  1  0  0  0
  3  5  1  0  0  0
  4  6  1  0  0  0
  4 17  1  0  0  0
 17 18  1  0  0  0
 18 19  1  0  0  0
 19 20  2  0  0  0
 19 21  1  0  0  0
 19 22  1  0  0  0
 10 16  1  0  0  0
  5  7  1  0  0  0
 21 23  1  0  0  0
 22 24  1  0  0  0
M  END
> <minimizedAffinity>
-7.28932

$$$$
1JMG_UMP_A_317


 24 25  0  0  0  0  0  0  0  0999 V2000
   16.0780   46.8073  -52.8599 C   0  0  0  0  0  0  0  0  0  0  0  0
   15.4536   46.4327  -54.2096 C   0  0  0  0  0  0  0  0  0  0  0  0
   16.6384   46.5535  -55.1599 C   0  0  0  0  0  0  0  0  0  0  0  0
   17.3729   47.8557  -54.7733 C   0  0  0  0  0  0  0  0  0  0  0  0
   17.4885   45.3837  -54.8783 O   0  0  0  0  0  0  0  0  0  0  0  0
   16.8468   48.0242  -53.3258 O   0  0  0  0  0  0  0  0  0  0  0  0
   17.7214   45.3724  -53.9367 H   0  0  0  0  0  0  0  0  0  0  0  0
   15.1831   46.5998  -51.6588 N   0  0  0  0  0  0  0  0  0  0  0  0
   15.7159   46.9996  -50.4338 C   0  0  0  0  0  0  0  0  0  0  0  0
   15.1372   46.6735  -49.2516 N   0  0  0  0  0  0  0  0  0  0  0  0
   13.9908   45.9536  -49.1613 C   0  0  0  0  0  0  0  0  0  0  0  0
   13.4226   45.5625  -50.4782 C   0  0  0  0  0  0  0  0  0  0  0  0
   14.0543   45.9133  -51.7058 C   0  0  0  0  0  0  0  0  0  0  0  0
   16.6855   47.7105  -50.3219 O   0  0  0  0  0  0  0  0  0  0  0  0
   13.5672   45.6925  -48.0348 O   0  0  0  0  0  0  0  0  0  0  0  0
   15.5694   46.9733  -48.4194 H   0  0  0  0  0  0  0  0  0  0  0  0
   16.9267   49.0291  -55.6653 C   0  0  0  0  0  0  0  0  0  0  0  0
   16.8913   48.7569  -57.1423 O   0  0  0  0  0  0  0  0  0  0  0  0
   15.6198   49.3150  -57.9951 P   0  0  0  0  0  0  0  0  0  0  0  0
   15.6487   49.0762  -59.4502 O   0  0  0  0  0  0  0  0  0  0  0  0
   14.4889   48.5712  -57.4174 O   0  0  0  0  0  0  0  0  0  0  0  0
   15.4981   50.7607  -57.7446 O   0  0  0  0  0  0  0  0  0  0  0  0
   14.5980   47.6246  -57.5988 H   0  0  0  0  0  0  0  0  0  0  0  0
   16.2562   51.2217  -58.1365 H   0  0  0  0  0  0  0  0  0  0  0  0
  8  9  1  0  0  0
  8 13  1  0  0  0
  8  1  1  0  0  0
  9 10  1  0  0  0
  9 14  2  0  0  0
 10 11  1  0  0  0
 11 12  1  0  0  0
 11 15  2  0  0  0
 12 13  2  0  0  0
  1  2  1  0  0  0
  1  6  1  0  0  0
  2  3  1  0  0  0
  3  4  1  0  0  0
  3  5  1  0  0  0
  4  6  1  0  0  0
  4 17  1  0  0  0
 17 18  1  0  0  0
 18 19  1  0  0  0
 19 20  2  0  0  0
 19 21  1  0  0  0
 19 22  1  0  0  0
 10 16  1  0  0  0
  5  7  1  0  0  0
 21 23  1  0  0  0
 22 24  1  0  0  0
M  END
> <minimizedAffinity>
-7.15731

$$$$
1JMG_UMP_A_317


 24 25  0  0  0  0  0  0  0  0999 V2000
   14.6235   46.6106  -49.7843 C   0  0  0  0  0  0  0  0  0  0  0  0
   14.0275   46.9190  -51.1632 C   0  0  0  0  0  0  0  0  0  0  0  0
   14.6418   45.8294  -52.0332 C   0  0  0  0  0  0  0  0  0  0  0  0
   16.1303   45.7420  -51.6315 C   0  0  0  0  0  0  0  0  0  0  0  0
   13.9384   44.5888  -51.6639 O   0  0  0  0  0  0  0  0  0  0  0  0
   16.0535   46.3940  -50.2281 O   0  0  0  0  0  0  0  0  0  0  0  0
   14.0215   44.4421  -50.7086 H   0  0  0  0  0  0  0  0  0  0  0  0
   14.0515   47.4197  -48.6421 N   0  0  0  0  0  0  0  0  0  0  0  0
   13.6839   46.6908  -47.5116 C   0  0  0  0  0  0  0  0  0  0  0  0
   12.9542   47.2337  -46.5057 N   0  0  0  0  0  0  0  0  0  0  0  0
   12.5399   48.5255  -46.5045 C   0  0  0  0  0  0  0  0  0  0  0  0
   12.9669   49.2937  -47.7034 C   0  0  0  0  0  0  0  0  0  0  0  0
   13.7285   48.6972  -48.7490 C   0  0  0  0  0  0  0  0  0  0  0  0
   14.0296   45.5527  -47.3035 O   0  0  0  0  0  0  0  0  0  0  0  0
   11.8599   48.9066  -45.5511 O   0  0  0  0  0  0  0  0  0  0  0  0
   12.7138   46.6633  -45.7401 H   0  0  0  0  0  0  0  0  0  0  0  0
   17.0105   46.5745  -52.5820 C   0  0  0  0  0  0  0  0  0  0  0  0
   16.3656   47.0047  -53.8689 O   0  0  0  0  0  0  0  0  0  0  0  0
   17.0017   46.4579  -55.2660 P   0  0  0  0  0  0  0  0  0  0  0  0
   18.1132   47.2434  -55.8339 O   0  0  0  0  0  0  0  0  0  0  0  0
   17.5066   45.1263  -54.8945 O   0  0  0  0  0  0  0  0  0  0  0  0
   15.9182   46.3656  -56.2586 O   0  0  0  0  0  0  0  0  0  0  0  0
   18.2173   45.2207  -54.2412 H   0  0  0  0  0  0  0  0  0  0  0  0
   15.6077   47.2569  -56.4822 H   0  0  0  0  0  0  0  0  0  0  0  0
  8  9  1  0  0  0
  8 13  1  0  0  0
  8  1  1  0  0  0
  9 10  1  0  0  0
  9 14  2  0  0  0
 10 11  1  0  0  0
 11 12  1  0  0  0
 11 15  2  0  0  0
 12 13  2  0  0  0
  1  2  1  0  0  0
  1  6  1  0  0  0
  2  3  1  0  0  0
  3  4  1  0  0  0
  3  5  1  0  0  0
  4  6  1  0  0  0
  4 17  1  0  0  0
 17 18  1  0  0  0
 18 19  1  0  0  0
 19 20  2  0  0  0
 19 21  1  0  0  0
 19 22  1  0  0  0
 10 16  1  0  0  0
  5  7  1  0  0  0
 21 23  1  0  0  0
 22 24  1  0  0  0
M  END
> <minimizedAffinity>
-6.85971

$$$$
1JMG_UMP_A_317


 24 25  0  0  0  0  0  0  0  0999 V2000
   16.6873   47.0609  -50.8604 C   0  0  0  0  0  0  0  0  0  0  0  0
   17.9221   46.1674  -51.0304 C   0  0  0  0  0  0  0  0  0  0  0  0
   18.9861   47.1648  -51.4712 C   0  0  0  0  0  0  0  0  0  0  0  0
   18.3149   48.0797  -52.5186 C   0  0  0  0  0  0  0  0  0  0  0  0
   19.3271   47.9351  -50.2625 O   0  0  0  0  0  0  0  0  0  0  0  0
   16.8294   47.8455  -52.1460 O   0  0  0  0  0  0  0  0  0  0  0  0
   18.5226   48.3337  -49.8955 H   0  0  0  0  0  0  0  0  0  0  0  0
   15.4860   46.3845  -50.2391 N   0  0  0  0  0  0  0  0  0  0  0  0
   14.7244   45.5969  -51.1017 C   0  0  0  0  0  0  0  0  0  0  0  0
   13.5047   45.1158  -50.7559 N   0  0  0  0  0  0  0  0  0  0  0  0
   12.9349   45.3416  -49.5455 C   0  0  0  0  0  0  0  0  0  0  0  0
   13.7748   46.1578  -48.6298 C   0  0  0  0  0  0  0  0  0  0  0  0
   15.0509   46.6559  -49.0206 C   0  0  0  0  0  0  0  0  0  0  0  0
   15.1036   45.2286  -52.1873 O   0  0  0  0  0  0  0  0  0  0  0  0
   11.8112   44.8782  -49.3475 O   0  0  0  0  0  0  0  0  0  0  0  0
   13.0091   44.5772  -51.4143 H   0  0  0  0  0  0  0  0  0  0  0  0
   18.6107   47.5936  -53.9496 C   0  0  0  0  0  0  0  0  0  0  0  0
   17.6567   48.0580  -55.0131 O   0  0  0  0  0  0  0  0  0  0  0  0
   16.5697   46.9891  -55.5885 P   0  0  0  0  0  0  0  0  0  0  0  0
   15.7149   47.4533  -56.6971 O   0  0  0  0  0  0  0  0  0  0  0  0
   17.4197   45.8911  -56.0761 O   0  0  0  0  0  0  0  0  0  0  0  0
   15.7170   46.5542  -54.4698 O   0  0  0  0  0  0  0  0  0  0  0  0
   17.9679   46.2084  -56.8107 H   0  0  0  0  0  0  0  0  0  0  0  0
   15.1704   47.2981  -54.1717 H   0  0  0  0  0  0  0  0  0  0  0  0
  8  9  1  0  0  0
  8 13  1  0  0  0
  8  1  1  0  0  0
  9 10  1  0  0  0
  9 14  2  0  0  0
 10 11  1  0  0  0
 11 12  1  0  0  0
 11 15  2  0  0  0
 12 13  2  0  0  0
  1  2  1  0  0  0
  1  6  1  0  0  0
  2  3  1  0  0  0
  3  4  1  0  0  0
  3  5  1  0  0  0
  4  6  1  0  0  0
  4 17  1  0  0  0
 17 18  1  0  0  0
 18 19  1  0  0  0
 19 20  2  0  0  0
 19 21  1  0  0  0
 19 22  1  0  0  0
 10 16  1  0  0  0
  5  7  1  0  0  0
 21 23  1  0  0  0
 22 24  1  0  0  0
M  END
> <minimizedAffinity>
-6.80777

$$$$
1JMG_UMP_A_317


 24 25  0  0  0  0  0  0  0  0999 V2000
   16.6315   46.5674  -52.0060 C   0  0  0  0  0  0  0  0  0  0  0  0
   17.6165   47.4150  -51.1916 C   0  0  0  0  0  0  0  0  0  0  0  0
   17.9972   46.4706  -50.0582 C   0  0  0  0  0  0  0  0  0  0  0  0
   16.6840   45.8101  -49.5851 C   0  0  0  0  0  0  0  0  0  0  0  0
   18.8855   45.4651  -50.6666 O   0  0  0  0  0  0  0  0  0  0  0  0
   15.8147   46.0405  -50.8466 O   0  0  0  0  0  0  0  0  0  0  0  0
   18.4326   45.0430  -51.4133 H   0  0  0  0  0  0  0  0  0  0  0  0
   16.2059   47.1689  -53.3264 N   0  0  0  0  0  0  0  0  0  0  0  0
   15.5719   46.2962  -54.2101 C   0  0  0  0  0  0  0  0  0  0  0  0
   15.3388   46.6208  -55.5059 N   0  0  0  0  0  0  0  0  0  0  0  0
   15.6820   47.8184  -56.0431 C   0  0  0  0  0  0  0  0  0  0  0  0
   16.3293   48.7455  -55.0781 C   0  0  0  0  0  0  0  0  0  0  0  0
   16.5678   48.3770  -53.7229 C   0  0  0  0  0  0  0  0  0  0  0  0
   15.1269   45.2204  -53.8896 O   0  0  0  0  0  0  0  0  0  0  0  0
   15.4463   47.9970  -57.2386 O   0  0  0  0  0  0  0  0  0  0  0  0
   14.8998   45.9559  -56.0842 H   0  0  0  0  0  0  0  0  0  0  0  0
   16.0998   46.5490  -48.3668 C   0  0  0  0  0  0  0  0  0  0  0  0
   15.0671   45.7986  -47.5748 O   0  0  0  0  0  0  0  0  0  0  0  0
   13.5043   46.2234  -47.7551 P   0  0  0  0  0  0  0  0  0  0  0  0
   13.1480   47.5999  -47.3631 O   0  0  0  0  0  0  0  0  0  0  0  0
   13.2919   46.0756  -49.2039 O   0  0  0  0  0  0  0  0  0  0  0  0
   12.6792   45.2738  -46.9901 O   0  0  0  0  0  0  0  0  0  0  0  0
   13.8478   46.7130  -49.6788 H   0  0  0  0  0  0  0  0  0  0  0  0
   12.8412   45.3959  -46.0415 H   0  0  0  0  0  0  0  0  0  0  0  0
  8  9  1  0  0  0
  8 13  1  0  0  0
  8  1  1  0  0  0
  9 10  1  0  0  0
  9 14  2  0  0  0
 10 11  1  0  0  0
 11 12  1  0  0  0
 11 15  2  0  0  0
 12 13  2  0  0  0
  1  2  1  0  0  0
  1  6  1  0  0  0
  2  3  1  0  0  0
  3  4  1  0  0  0
  3  5  1  0  0  0
  4  6  1  0  0  0
  4 17  1  0  0  0
 17 18  1  0  0  0
 18 19  1  0  0  0
 19 20  2  0  0  0
 19 21  1  0  0  0
 19 22  1  0  0  0
 10 16  1  0  0  0
  5  7  1  0  0  0
 21 23  1  0  0  0
 22 24  1  0  0  0
M  END
> <minimizedAffinity>
-6.79475

$$$$
1JMG_UMP_A_317


 24 25  0  0  0  0  0  0  0  0999 V2000
   16.2435   46.7476  -50.4063 C   0  0  0  0  0  0  0  0  0  0  0  0
   16.5389   45.6563  -51.4425 C   0  0  0  0  0  0  0  0  0  0  0  0
   17.9292   46.0418  -51.9322 C   0  0  0  0  0  0  0  0  0  0  0  0
   17.9087   47.5727  -52.1335 C   0  0  0  0  0  0  0  0  0  0  0  0
   18.8454   45.6820  -50.8361 O   0  0  0  0  0  0  0  0  0  0  0  0
   16.7057   47.9323  -51.2258 O   0  0  0  0  0  0  0  0  0  0  0  0
   18.5637   46.1253  -50.0206 H   0  0  0  0  0  0  0  0  0  0  0  0
   14.9881   46.5354  -49.5905 N   0  0  0  0  0  0  0  0  0  0  0  0
   15.1203   46.7368  -48.2171 C   0  0  0  0  0  0  0  0  0  0  0  0
   14.1578   46.3690  -47.3355 N   0  0  0  0  0  0  0  0  0  0  0  0
   12.9870   45.7967  -47.7126 C   0  0  0  0  0  0  0  0  0  0  0  0
   12.8525   45.6178  -49.1822 C   0  0  0  0  0  0  0  0  0  0  0  0
   13.8820   46.0078  -50.0863 C   0  0  0  0  0  0  0  0  0  0  0  0
   16.0575   47.3024  -47.7074 O   0  0  0  0  0  0  0  0  0  0  0  0
   12.1944   45.4788  -46.8252 O   0  0  0  0  0  0  0  0  0  0  0  0
   14.3162   46.5247  -46.3763 H   0  0  0  0  0  0  0  0  0  0  0  0
   17.6222   47.9346  -53.6027 C   0  0  0  0  0  0  0  0  0  0  0  0
   16.2447   47.6071  -54.1047 O   0  0  0  0  0  0  0  0  0  0  0  0
   16.1130   46.6247  -55.3982 P   0  0  0  0  0  0  0  0  0  0  0  0
   17.3365   45.9106  -55.8083 O   0  0  0  0  0  0  0  0  0  0  0  0
   15.1158   45.6367  -54.9562 O   0  0  0  0  0  0  0  0  0  0  0  0
   15.6156   47.4222  -56.5315 O   0  0  0  0  0  0  0  0  0  0  0  0
   15.4723   45.1288  -54.2106 H   0  0  0  0  0  0  0  0  0  0  0  0
   16.2936   48.0623  -56.7987 H   0  0  0  0  0  0  0  0  0  0  0  0
  8  9  1  0  0  0
  8 13  1  0  0  0
  8  1  1  0  0  0
  9 10  1  0  0  0
  9 14  2  0  0  0
 10 11  1  0  0  0
 11 12  1  0  0  0
 11 15  2  0  0  0
 12 13  2  0  0  0
  1  2  1  0  0  0
  1  6  1  0  0  0
  2  3  1  0  0  0
  3  4  1  0  0  0
  3  5  1  0  0  0
  4  6  1  0  0  0
  4 17  1  0  0  0
 17 18  1  0  0  0
 18 19  1  0  0  0
 19 20  2  0  0  0
 19 21  1  0  0  0
 19 22  1  0  0  0
 10 16  1  0  0  0
  5  7  1  0  0  0
 21 23  1  0  0  0
 22 24  1  0  0  0
M  END
> <minimizedAffinity>
-6.78159

$$$$
1JMG_UMP_A_317


 24 25  0  0  0  0  0  0  0  0999 V2000
   17.6260   45.8624  -50.8524 C   0  0  0  0  0  0  0  0  0  0  0  0
   18.2418   47.0021  -50.0316 C   0  0  0  0  0  0  0  0  0  0  0  0
   18.4041   46.3621  -48.6585 C   0  0  0  0  0  0  0  0  0  0  0  0
   17.0987   45.5833  -48.3864 C   0  0  0  0  0  0  0  0  0  0  0  0
   19.5376   45.4304  -48.7910 O   0  0  0  0  0  0  0  0  0  0  0  0
   16.5895   45.4247  -49.8410 O   0  0  0  0  0  0  0  0  0  0  0  0
   19.3608   44.8066  -49.5125 H   0  0  0  0  0  0  0  0  0  0  0  0
   17.5128   46.1285  -52.3366 N   0  0  0  0  0  0  0  0  0  0  0  0
   18.6564   45.8568  -53.0868 C   0  0  0  0  0  0  0  0  0  0  0  0
   18.7871   46.2538  -54.3769 N   0  0  0  0  0  0  0  0  0  0  0  0
   17.8179   46.9258  -55.0473 C   0  0  0  0  0  0  0  0  0  0  0  0
   16.5956   47.1795  -54.2401 C   0  0  0  0  0  0  0  0  0  0  0  0
   16.4865   46.7566  -52.8842 C   0  0  0  0  0  0  0  0  0  0  0  0
   19.5868   45.2025  -52.6817 O   0  0  0  0  0  0  0  0  0  0  0  0
   18.0535   47.2605  -56.2088 O   0  0  0  0  0  0  0  0  0  0  0  0
   19.6251   46.0443  -54.8493 H   0  0  0  0  0  0  0  0  0  0  0  0
   16.1189   46.4215  -47.5444 C   0  0  0  0  0  0  0  0  0  0  0  0
   14.9262   45.6887  -46.9990 O   0  0  0  0  0  0  0  0  0  0  0  0
   13.4516   46.1012  -47.5564 P   0  0  0  0  0  0  0  0  0  0  0  0
   13.0063   47.4797  -47.2794 O   0  0  0  0  0  0  0  0  0  0  0  0
   13.5957   45.9355  -49.0116 O   0  0  0  0  0  0  0  0  0  0  0  0
   12.4697   45.1550  -47.0010 O   0  0  0  0  0  0  0  0  0  0  0  0
   14.2474   46.5710  -49.3464 H   0  0  0  0  0  0  0  0  0  0  0  0
   12.3976   45.2890  -46.0430 H   0  0  0  0  0  0  0  0  0  0  0  0
  8  9  1  0  0  0
  8 13  1  0  0  0
  8  1  1  0  0  0
  9 10  1  0  0  0
  9 14  2  0  0  0
 10 11  1  0  0  0
 11 12  1  0  0  0
 11 15  2  0  0  0
 12 13  2  0  0  0
  1  2  1  0  0  0
  1  6  1  0  0  0
  2  3  1  0  0  0
  3  4  1  0  0  0
  3  5  1  0  0  0
  4  6  1  0  0  0
  4 17  1  0  0  0
 17 18  1  0  0  0
 18 19  1  0  0  0
 19 20  2  0  0  0
 19 21  1  0  0  0
 19 22  1  0  0  0
 10 16  1  0  0  0
  5  7  1  0  0  0
 21 23  1  0  0  0
 22 24  1  0  0  0
M  END
> <minimizedAffinity>
-6.66773

$$$$
1JMG_UMP_A_317


 24 25  0  0  0  0  0  0  0  0999 V2000
   15.0342   47.8251  -49.7245 C   0  0  0  0  0  0  0  0  0  0  0  0
   13.5719   47.8148  -50.1863 C   0  0  0  0  0  0  0  0  0  0  0  0
   13.3185   46.3320  -50.4280 C   0  0  0  0  0  0  0  0  0  0  0  0
   14.5611   45.7957  -51.1717 C   0  0  0  0  0  0  0  0  0  0  0  0
   13.2230   45.7264  -49.0884 O   0  0  0  0  0  0  0  0  0  0  0  0
   15.5842   46.8913  -50.7801 O   0  0  0  0  0  0  0  0  0  0  0  0
   14.0284   45.9250  -48.5856 H   0  0  0  0  0  0  0  0  0  0  0  0
   15.5388   49.1583  -49.2199 N   0  0  0  0  0  0  0  0  0  0  0  0
   16.6345   49.1018  -48.3593 C   0  0  0  0  0  0  0  0  0  0  0  0
   17.0548   50.1788  -47.6506 N   0  0  0  0  0  0  0  0  0  0  0  0
   16.4627   51.3967  -47.7324 C   0  0  0  0  0  0  0  0  0  0  0  0
   15.3158   51.4442  -48.6771 C   0  0  0  0  0  0  0  0  0  0  0  0
   14.8911   50.2958  -49.4052 C   0  0  0  0  0  0  0  0  0  0  0  0
   17.3303   48.1249  -48.2196 O   0  0  0  0  0  0  0  0  0  0  0  0
   16.9111   52.2989  -47.0240 O   0  0  0  0  0  0  0  0  0  0  0  0
   17.8262   50.0719  -47.0483 H   0  0  0  0  0  0  0  0  0  0  0  0
   14.3287   45.7729  -52.6939 C   0  0  0  0  0  0  0  0  0  0  0  0
   15.4183   45.1466  -53.5168 O   0  0  0  0  0  0  0  0  0  0  0  0
   16.2342   46.0962  -54.5598 P   0  0  0  0  0  0  0  0  0  0  0  0
   15.4746   46.6059  -55.7167 O   0  0  0  0  0  0  0  0  0  0  0  0
   16.6332   47.2359  -53.7184 O   0  0  0  0  0  0  0  0  0  0  0  0
   17.4059   45.3469  -55.0429 O   0  0  0  0  0  0  0  0  0  0  0  0
   15.8414   47.7079  -53.4168 H   0  0  0  0  0  0  0  0  0  0  0  0
   17.1106   44.6044  -55.5928 H   0  0  0  0  0  0  0  0  0  0  0  0
  8  9  1  0  0  0
  8 13  1  0  0  0
  8  1  1  0  0  0
  9 10  1  0  0  0
  9 14  2  0  0  0
 10 11  1  0  0  0
 11 12  1  0  0  0
 11 15  2  0  0  0
 12 13  2  0  0  0
  1  2  1  0  0  0
  1  6  1  0  0  0
  2  3  1  0  0  0
  3  4  1  0  0  0
  3  5  1  0  0  0
  4  6  1  0  0  0
  4 17  1  0  0  0
 17 18  1  0  0  0
 18 19  1  0  0  0
 19 20  2  0  0  0
 19 21  1  0  0  0
 19 22  1  0  0  0
 10 16  1  0  0  0
  5  7  1  0  0  0
 21 23  1  0  0  0
 22 24  1  0  0  0
M  END
> <minimizedAffinity>
-6.62410

$$$$
1JMG_UMP_A_317


 24 25  0  0  0  0  0  0  0  0999 V2000
   15.7226   46.9918  -52.0904 C   0  0  0  0  0  0  0  0  0  0  0  0
   15.3386   45.6911  -51.3745 C   0  0  0  0  0  0  0  0  0  0  0  0
   13.8420   45.8723  -51.1531 C   0  0  0  0  0  0  0  0  0  0  0  0
   13.6487   47.3253  -50.6674 C   0  0  0  0  0  0  0  0  0  0  0  0
   13.2240   45.6890  -52.4779 O   0  0  0  0  0  0  0  0  0  0  0  0
   14.9685   47.9458  -51.1903 O   0  0  0  0  0  0  0  0  0  0  0  0
   13.6204   46.3106  -53.1083 H   0  0  0  0  0  0  0  0  0  0  0  0
   17.1376   47.0388  -52.6214 N   0  0  0  0  0  0  0  0  0  0  0  0
   17.4269   48.1042  -53.4733 C   0  0  0  0  0  0  0  0  0  0  0  0
   18.5684   48.1583  -54.2031 N   0  0  0  0  0  0  0  0  0  0  0  0
   19.5264   47.1989  -54.1526 C   0  0  0  0  0  0  0  0  0  0  0  0
   19.2134   46.0870  -53.2169 C   0  0  0  0  0  0  0  0  0  0  0  0
   18.0033   46.0518  -52.4661 C   0  0  0  0  0  0  0  0  0  0  0  0
   16.7294   49.0834  -53.5862 O   0  0  0  0  0  0  0  0  0  0  0  0
   20.5120   47.3368  -54.8781 O   0  0  0  0  0  0  0  0  0  0  0  0
   18.7088   48.9303  -54.7977 H   0  0  0  0  0  0  0  0  0  0  0  0
   13.5762   47.3906  -49.1305 C   0  0  0  0  0  0  0  0  0  0  0  0
   13.2044   46.1125  -48.4341 O   0  0  0  0  0  0  0  0  0  0  0  0
   13.0993   46.1274  -46.8080 P   0  0  0  0  0  0  0  0  0  0  0  0
   12.7484   47.4168  -46.1839 O   0  0  0  0  0  0  0  0  0  0  0  0
   12.0177   45.1652  -46.5429 O   0  0  0  0  0  0  0  0  0  0  0  0
   14.3833   45.6588  -46.2607 O   0  0  0  0  0  0  0  0  0  0  0  0
   11.1874   45.5017  -46.9147 H   0  0  0  0  0  0  0  0  0  0  0  0
   15.0739   46.3128  -46.4512 H   0  0  0  0  0  0  0  0  0  0  0  0
  8  9  1  0  0  0
  8 13  1  0  0  0
  8  1  1  0  0  0
  9 10  1  0  0  0
  9 14  2  0  0  0
 10 11  1  0  0  0
 11 12  1  0  0  0
 11 15  2  0  0  0
 12 13  2  0  0  0
  1  2  1  0  0  0
  1  6  1  0  0  0
  2  3  1  0  0  0
  3  4  1  0  0  0
  3  5  1  0  0  0
  4  6  1  0  0  0
  4 17  1  0  0  0
 17 18  1  0  0  0
 18 19  1  0  0  0
 19 20  2  0  0  0
 19 21  1  0  0  0
 19 22  1  0  0  0
 10 16  1  0  0  0
  5  7  1  0  0  0
 21 23  1  0  0  0
 22 24  1  0  0  0
M  END
> <minimizedAffinity>
-6.61296

$$$$
1JMG_UMP_A_317


 24 25  0  0  0  0  0  0  0  0999 V2000
   15.0849   46.8535  -52.1207 C   0  0  0  0  0  0  0  0  0  0  0  0
   15.5937   45.7548  -51.1796 C   0  0  0  0  0  0  0  0  0  0  0  0
   14.3943   45.5276  -50.2678 C   0  0  0  0  0  0  0  0  0  0  0  0
   13.8567   46.9282  -49.9019 C   0  0  0  0  0  0  0  0  0  0  0  0
   13.4101   44.7998  -51.0875 O   0  0  0  0  0  0  0  0  0  0  0  0
   14.4641   47.7464  -51.0690 O   0  0  0  0  0  0  0  0  0  0  0  0
   13.2198   45.3081  -51.8914 H   0  0  0  0  0  0  0  0  0  0  0  0
   15.9967   47.1764  -53.2830 N   0  0  0  0  0  0  0  0  0  0  0  0
   15.7790   46.4354  -54.4441 C   0  0  0  0  0  0  0  0  0  0  0  0
   16.6497   46.4459  -55.4835 N   0  0  0  0  0  0  0  0  0  0  0  0
   17.7867   47.1861  -55.4904 C   0  0  0  0  0  0  0  0  0  0  0  0
   17.9858   47.9915  -54.2569 C   0  0  0  0  0  0  0  0  0  0  0  0
   17.0578   47.9576  -53.1766 C   0  0  0  0  0  0  0  0  0  0  0  0
   14.7846   45.7815  -54.6479 O   0  0  0  0  0  0  0  0  0  0  0  0
   18.5187   47.0999  -56.4770 O   0  0  0  0  0  0  0  0  0  0  0  0
   16.4472   45.8901  -56.2705 H   0  0  0  0  0  0  0  0  0  0  0  0
   14.4145   47.3988  -48.5458 C   0  0  0  0  0  0  0  0  0  0  0  0
   15.3276   46.4371  -47.8400 O   0  0  0  0  0  0  0  0  0  0  0  0
   14.8293   45.8057  -46.4228 P   0  0  0  0  0  0  0  0  0  0  0  0
   14.6965   46.7465  -45.2948 O   0  0  0  0  0  0  0  0  0  0  0  0
   13.4971   45.2748  -46.7536 O   0  0  0  0  0  0  0  0  0  0  0  0
   15.7604   44.7288  -46.0473 O   0  0  0  0  0  0  0  0  0  0  0  0
   12.9084   46.0066  -46.9961 H   0  0  0  0  0  0  0  0  0  0  0  0
   16.6270   45.1099  -45.8357 H   0  0  0  0  0  0  0  0  0  0  0  0
  8  9  1  0  0  0
  8 13  1  0  0  0
  8  1  1  0  0  0
  9 10  1  0  0  0
  9 14  2  0  0  0
 10 11  1  0  0  0
 11 12  1  0  0  0
 11 15  2  0  0  0
 12 13  2  0  0  0
  1  2  1  0  0  0
  1  6  1  0  0  0
  2  3  1  0  0  0
  3  4  1  0  0  0
  3  5  1  0  0  0
  4  6  1  0  0  0
  4 17  1  0  0  0
 17 18  1  0  0  0
 18 19  1  0  0  0
 19 20  2  0  0  0
 19 21  1  0  0  0
 19 22  1  0  0  0
 10 16  1  0  0  0
  5  7  1  0  0  0
 21 23  1  0  0  0
 22 24  1  0  0  0
M  END
> <minimizedAffinity>
-6.61244

$$$$
