1JMG_UMP_A_317
  RCSB PDB12061702583D
Coordinates from PDB:1JMG:A:317 Model:1 without hydrogens
 20 21  0  0  0  0            999 V2000
   14.5260   46.3470  -51.8600   N 0  0  0  0  0  0  0  0  0  0  0  0
   14.3340   45.0180  -51.4840   C 0  0  0  0  0  0  0  0  0  0  0  0
   13.3750   44.6470  -50.6000   N 0  0  0  0  0  0  0  0  0  0  0  0
   12.5410   45.5310  -49.9970   C 0  0  0  0  0  0  0  0  0  0  0  0
   12.7810   46.9450  -50.3880   C 0  0  0  0  0  0  0  0  0  0  0  0
   13.7920   47.3070  -51.3240   C 0  0  0  0  0  0  0  0  0  0  0  0
   15.0320   44.1060  -51.8570   O 0  0  0  0  0  0  0  0  0  0  0  0
   11.6890   45.0810  -49.2300   O 0  0  0  0  0  0  0  0  0  0  0  0
   15.4420   46.5660  -53.0430   C 0  0  0  0  0  0  0  0  0  0  0  0
   14.7730   46.4380  -54.4170   C 0  0  0  0  0  0  0  0  0  0  0  0
   15.9640   46.5030  -55.3650   C 0  0  0  0  0  0  0  0  0  0  0  0
   16.8710   47.6390  -54.8440   C 0  0  0  0  0  0  0  0  0  0  0  0
   16.6440   45.2030  -55.2310   O 0  0  0  0  0  0  0  0  0  0  0  0
   16.3720   47.7110  -53.3790   O 0  0  0  0  0  0  0  0  0  0  0  0
   16.5920   48.9570  -55.5900   C 0  0  0  0  0  0  0  0  0  0  0  0
   16.9690   48.9830  -57.0440   O 0  0  0  0  0  0  0  0  0  0  0  0
   15.8090   49.3410  -58.1310   P 0  0  0  0  0  0  0  0  0  0  0  0
   16.2060   49.3070  -59.5510   O 0  0  0  0  0  0  0  0  0  0  0  0
   14.8070   48.2890  -57.8960   O 0  0  0  0  0  0  0  0  0  0  0  0
   15.2750   50.6750  -57.8100   O 0  0  0  0  0  0  0  0  0  0  0  0
  1  2  1  0  0  0  0
  1  6  1  0  0  0  0
  1  9  1  0  0  0  0
  2  3  1  0  0  0  0
  2  7  2  0  0  0  0
  3  4  1  0  0  0  0
  4  5  1  0  0  0  0
  4  8  2  0  0  0  0
  5  6  2  0  0  0  0
  9 10  1  0  0  0  0
  9 14  1  0  0  0  0
 10 11  1  0  0  0  0
 11 12  1  0  0  0  0
 11 13  1  0  0  0  0
 12 14  1  0  0  0  0
 12 15  1  0  0  0  0
 15 16  1  0  0  0  0
 16 17  1  0  0  0  0
 17 18  2  0  0  0  0
 17 19  1  0  0  0  0
 17 20  1  0  0  0  0
A    1
N1
A    2
C2
A    3
N3
A    4
C4
A    5
C5
A    6
C6
A    7
O2
A    8
O4
A    9
C1'
A   10
C2'
A   11
C3'
A   12
C4'
A   13
O3'
A   14
O4'
A   15
C5'
A   16
O5'
A   17
P
A   18
OP1
A   19
OP2
A   20
OP3
M  END
>  <InstanceId>
1JMG_UMP_A_317

>  <ChemCompId>
UMP

>  <PdbId>
1JMG

>  <ChainId>
A

>  <ResidueNumber>
317

>  <InsertionCode>


>  <Model>
1

>  <AltIds>


>  <MissingHeavyAtoms>
0

>  <ObservedFormula>
C9 N2 O8 P

>  <Name>
2'-DEOXYURIDINE 5'-MONOPHOSPHATE

>  <SystematicName>
[(2R,3S,5R)-5-[2,4-bis(oxidanylidene)pyrimidin-1-yl]-3-oxidanyl-oxolan-2-yl]methyl dihydrogen phosphate

>  <Synonyms>
DUMP

>  <Type>
NON-POLYMER

>  <Formula>
C9 H13 N2 O8 P

>  <MolecularWeight>
308.182

>  <ModifiedDate>
2012-05-02

>  <Parent>


>  <OneLetterCode>
U

>  <SubcomponentList>


>  <AmbiguousFlag>
N

>  <InChI>
InChI=1S/C9H13N2O8P/c12-5-3-8(11-2-1-7(13)10-9(11)14)19-6(5)4-18-20(15,16)17/h1-2,5-6,8,12H,3-4H2,(H,10,13,14)(H2,15,16,17)/t5-,6+,8+/m0/s1

>  <InChIKey>
JSRLJPSBLDHEIO-SHYZEUOFSA-N

>  <SMILES>
C1[C@@H]([C@H](O[C@H]1N2C=CC(=O)NC2=O)COP(=O)(O)O)O

$$$$
