6ELO_BAW_A_301
  RCSB PDB05261800313D
Coordinates from PDB:6ELO:A:301 Model:1 without hydrogens
 23 25  0  0  0  0            999 V2000
   64.6630   32.3490   27.3720   C 0  0  0  0  0  0  0  0  0  0  0  0
   63.4360   32.8660   26.9730   C 0  0  0  0  0  0  0  0  0  0  0  0
   63.3540   33.6990   25.8680   C 0  0  0  0  0  0  0  0  0  0  0  0
   67.1640   32.0540   26.9330   C 0  0  0  0  0  0  0  0  0  0  0  0
   67.3100   30.7270   26.1510   C 0  0  0  0  0  0  0  0  0  0  0  0
   64.4110   34.9630   24.0150   C 0  0  0  0  0  0  0  0  0  0  0  0
   64.6980   36.7090   22.6170   C 0  0  0  0  0  0  0  0  0  0  0  0
   65.0490   36.2330   23.8650   C 0  0  0  0  0  0  0  0  0  0  0  0
   65.9750   36.8450   24.8660   C 0  0  0  0  0  0  0  0  0  0  0  0
   67.7630   37.9930   26.7150   C 0  0  0  0  0  0  0  0  0  0  0  0
   66.4180   37.8480   27.0410   C 0  0  0  0  0  0  0  0  0  0  0  0
   65.5240   37.2790   26.1230   C 0  0  0  0  0  0  0  0  0  0  0  0
   64.5090   34.0590   25.1720   C 0  0  0  0  0  0  0  0  0  0  0  0
   65.7490   33.5380   25.5580   C 0  0  0  0  0  0  0  0  0  0  0  0
   65.8160   32.6440   26.6370   C 0  0  0  0  0  0  0  0  0  0  0  0
   64.6760   31.5310   28.4570   O 0  0  0  0  0  0  0  0  0  0  0  0
   62.1370   34.1810   25.5060   O 0  0  0  0  0  0  0  0  0  0  0  0
   63.6340   34.7630   22.9810   N 0  0  0  0  0  0  0  0  0  0  0  0
   63.7840   35.8550   22.1010   N 0  0  0  0  0  0  0  0  0  0  0  0
   67.3270   37.0050   24.5390   C 0  0  0  0  0  0  0  0  0  0  0  0
   68.2090   37.5980   25.4550   C 0  0  0  0  0  0  0  0  0  0  0  0
   67.7260   36.6450   23.2960   F 0  0  0  0  0  0  0  0  0  0  0  0
   65.0800   38.0270   21.9790   C 0  0  0  0  0  0  0  0  0  0  0  0
 23  7  1  0  0  0  0
 19  7  2  0  0  0  0
 19 18  1  0  0  0  0
  7  8  1  0  0  0  0
 18  6  1  0  0  0  0
 22 20  1  0  0  0  0
  8  6  2  0  0  0  0
  8  9  1  0  0  0  0
  6 13  1  0  0  0  0
 20  9  2  0  0  0  0
 20 21  1  0  0  0  0
  9 12  1  0  0  0  0
 13 14  2  0  0  0  0
 13  3  1  0  0  0  0
 21 10  2  0  0  0  0
 17  3  1  0  0  0  0
 14 15  1  0  0  0  0
  3  2  2  0  0  0  0
 12 11  2  0  0  0  0
  5  4  1  0  0  0  0
 15  4  1  0  0  0  0
 15  1  2  0  0  0  0
 10 11  1  0  0  0  0
  2  1  1  0  0  0  0
  1 16  1  0  0  0  0
A    1
C1
A    2
C2
A    3
C3
A    4
C9
A    5
C10
A    6
C11
A    7
C14
A    8
C15
A    9
C16
A   10
C19
A   11
C20
A   12
C21
A   13
C4
A   14
C5
A   15
C6
A   16
O7
A   17
O8
A   18
N12
A   19
N13
A   20
C17
A   21
C18
A   22
F22
A   23
C23
M  END
>  <InstanceId>
6ELO_BAW_A_301

>  <ChemCompId>
BAW

>  <PdbId>
6ELO

>  <ChainId>
A

>  <ResidueNumber>
301

>  <InsertionCode>


>  <Model>
1

>  <AltIds>


>  <MissingHeavyAtoms>
0

>  <ObservedFormula>
C18 N2 O2 F

>  <Name>
4-ethyl-6-[4-(2-fluorophenyl)-3-methyl-1~{H}-pyrazol-5-yl]benzene-1,3-diol

>  <SystematicName>
4-ethyl-6-[4-(2-fluorophenyl)-3-methyl-1~{H}-pyrazol-5-yl]benzene-1,3-diol

>  <Synonyms>


>  <Type>
NON-POLYMER

>  <Formula>
C18 H17 F N2 O2

>  <MolecularWeight>
312.338

>  <ModifiedDate>
2018-05-25

>  <Parent>


>  <OneLetterCode>


>  <SubcomponentList>


>  <AmbiguousFlag>
N

>  <InChI>
InChI=1S/C18H17FN2O2/c1-3-11-8-13(16(23)9-15(11)22)18-17(10(2)20-21-18)12-6-4-5-7-14(12)19/h4-9,22-23H,3H2,1-2H3,(H,20,21)

>  <InChIKey>
LSNAMSAWSQUHGB-UHFFFAOYSA-N

>  <SMILES>
CCc1cc(c(cc1O)O)c2c(c(n[nH]2)C)c3ccccc3F

$$$$
