6ELO_BAW_A_301


 26 28  0  0  0  0  0  0  0  0999 V2000
   64.3924   34.5678   24.3772 C   0  0  0  0  0  0  0  0  0  0  0  0
   64.8513   36.2423   22.9383 C   0  0  0  0  0  0  0  0  0  0  0  0
   65.0747   35.8151   24.2325 C   0  0  0  0  0  0  0  0  0  0  0  0
   63.7076   34.3390   23.2856 N   0  0  0  0  0  0  0  0  0  0  0  0
   63.9658   35.3867   22.3774 N   0  0  0  0  0  0  0  0  0  0  0  0
   65.3244   37.5215   22.2825 C   0  0  0  0  0  0  0  0  0  0  0  0
   63.1151   33.5691   23.1261 H   0  0  0  0  0  0  0  0  0  0  0  0
   64.2723   32.1098   27.8571 C   0  0  0  0  0  0  0  0  0  0  0  0
   63.1901   32.9177   27.5284 C   0  0  0  0  0  0  0  0  0  0  0  0
   63.2234   33.7001   26.3845 C   0  0  0  0  0  0  0  0  0  0  0  0
   64.3609   33.7147   25.5759 C   0  0  0  0  0  0  0  0  0  0  0  0
   65.4533   32.8989   25.8909 C   0  0  0  0  0  0  0  0  0  0  0  0
   65.3873   32.0607   27.0139 C   0  0  0  0  0  0  0  0  0  0  0  0
   64.1747   31.3593   28.9858 O   0  0  0  0  0  0  0  0  0  0  0  0
   62.1452   34.4731   26.0939 O   0  0  0  0  0  0  0  0  0  0  0  0
   64.8835   30.8020   29.2406 H   0  0  0  0  0  0  0  0  0  0  0  0
   62.1468   35.0096   25.3257 H   0  0  0  0  0  0  0  0  0  0  0  0
   66.5569   31.1465   27.2348 C   0  0  0  0  0  0  0  0  0  0  0  0
   67.2375   30.8696   25.8732 C   0  0  0  0  0  0  0  0  0  0  0  0
   65.9217   36.4506   25.2874 C   0  0  0  0  0  0  0  0  0  0  0  0
   67.4781   37.6888   27.2819 C   0  0  0  0  0  0  0  0  0  0  0  0
   67.9222   36.5178   26.6754 C   0  0  0  0  0  0  0  0  0  0  0  0
   67.1498   35.8969   25.6836 C   0  0  0  0  0  0  0  0  0  0  0  0
   65.4744   37.6222   25.9102 C   0  0  0  0  0  0  0  0  0  0  0  0
   66.2429   38.2225   26.9189 C   0  0  0  0  0  0  0  0  0  0  0  0
   64.2554   38.0994   25.5633 F   0  0  0  0  0  0  0  0  0  0  0  0
  6  2  1  0  0  0
  5  2  2  0  0  0
  5  4  1  0  0  0
  2  3  1  0  0  0
  4  1  1  0  0  0
 26 24  1  0  0  0
  3  1  2  0  0  0
  3 20  1  0  0  0
  1 11  1  0  0  0
 24 20  2  0  0  0
 24 25  1  0  0  0
 20 23  1  0  0  0
 11 12  2  0  0  0
 11 10  1  0  0  0
 25 21  2  0  0  0
 15 10  1  0  0  0
 12 13  1  0  0  0
 10  9  2  0  0  0
 23 22  2  0  0  0
 19 18  1  0  0  0
 13 18  1  0  0  0
 13  8  2  0  0  0
 21 22  1  0  0  0
  9  8  1  0  0  0
  8 14  1  0  0  0
 14 16  1  0  0  0
 15 17  1  0  0  0
  4  7  1  0  0  0
M  END
> <minimizedAffinity>
-10.22507

$$$$
6ELO_BAW_A_301


 26 28  0  0  0  0  0  0  0  0999 V2000
   63.9318   34.2993   25.7558 C   0  0  0  0  0  0  0  0  0  0  0  0
   63.4545   32.7511   27.3244 C   0  0  0  0  0  0  0  0  0  0  0  0
   64.4716   33.2141   26.5130 C   0  0  0  0  0  0  0  0  0  0  0  0
   62.6507   34.3864   26.0087 N   0  0  0  0  0  0  0  0  0  0  0  0
   62.3264   33.4119   26.9754 N   0  0  0  0  0  0  0  0  0  0  0  0
   63.4903   31.5929   28.2978 C   0  0  0  0  0  0  0  0  0  0  0  0
   62.0223   35.0219   25.5957 H   0  0  0  0  0  0  0  0  0  0  0  0
   65.9823   36.6883   22.8828 C   0  0  0  0  0  0  0  0  0  0  0  0
   64.9008   35.9027   22.5019 C   0  0  0  0  0  0  0  0  0  0  0  0
   64.2225   35.1430   23.4423 C   0  0  0  0  0  0  0  0  0  0  0  0
   64.6462   35.1285   24.7721 C   0  0  0  0  0  0  0  0  0  0  0  0
   65.7278   35.9220   25.1701 C   0  0  0  0  0  0  0  0  0  0  0  0
   66.3687   36.7383   24.2263 C   0  0  0  0  0  0  0  0  0  0  0  0
   66.5994   37.4172   21.9162 O   0  0  0  0  0  0  0  0  0  0  0  0
   63.1679   34.3915   23.0330 O   0  0  0  0  0  0  0  0  0  0  0  0
   67.3321   37.9591   22.1340 H   0  0  0  0  0  0  0  0  0  0  0  0
   62.6954   33.8706   23.6522 H   0  0  0  0  0  0  0  0  0  0  0  0
   67.4579   37.6312   24.7452 C   0  0  0  0  0  0  0  0  0  0  0  0
   67.8438   37.1699   26.1707 C   0  0  0  0  0  0  0  0  0  0  0  0
   65.8949   32.7611   26.4576 C   0  0  0  0  0  0  0  0  0  0  0  0
   68.5596   31.8568   26.3333 C   0  0  0  0  0  0  0  0  0  0  0  0
   68.2803   33.1527   26.7565 C   0  0  0  0  0  0  0  0  0  0  0  0
   66.9556   33.6078   26.8180 C   0  0  0  0  0  0  0  0  0  0  0  0
   66.1830   31.4624   26.0207 C   0  0  0  0  0  0  0  0  0  0  0  0
   67.5135   31.0244   25.9392 C   0  0  0  0  0  0  0  0  0  0  0  0
   65.1510   30.6873   25.6110 F   0  0  0  0  0  0  0  0  0  0  0  0
  6  2  1  0  0  0
  5  2  2  0  0  0
  5  4  1  0  0  0
  2  3  1  0  0  0
  4  1  1  0  0  0
 26 24  1  0  0  0
  3  1  2  0  0  0
  3 20  1  0  0  0
  1 11  1  0  0  0
 24 20  2  0  0  0
 24 25  1  0  0  0
 20 23  1  0  0  0
 11 12  2  0  0  0
 11 10  1  0  0  0
 25 21  2  0  0  0
 15 10  1  0  0  0
 12 13  1  0  0  0
 10  9  2  0  0  0
 23 22  2  0  0  0
 19 18  1  0  0  0
 13 18  1  0  0  0
 13  8  2  0  0  0
 21 22  1  0  0  0
  9  8  1  0  0  0
  8 14  1  0  0  0
 14 16  1  0  0  0
 15 17  1  0  0  0
  4  7  1  0  0  0
M  END
> <minimizedAffinity>
-8.72709

$$$$
6ELO_BAW_A_301


 26 28  0  0  0  0  0  0  0  0999 V2000
   64.7765   34.6381   24.2884 C   0  0  0  0  0  0  0  0  0  0  0  0
   64.6874   36.4075   22.8932 C   0  0  0  0  0  0  0  0  0  0  0  0
   65.1566   36.0065   24.1287 C   0  0  0  0  0  0  0  0  0  0  0  0
   64.0239   34.2942   23.2744 N   0  0  0  0  0  0  0  0  0  0  0  0
   63.9390   35.3953   22.3970 N   0  0  0  0  0  0  0  0  0  0  0  0
   64.7938   37.7745   22.2528 C   0  0  0  0  0  0  0  0  0  0  0  0
   63.5919   33.4189   23.1463 H   0  0  0  0  0  0  0  0  0  0  0  0
   65.6766   32.1193   27.6068 C   0  0  0  0  0  0  0  0  0  0  0  0
   66.6927   32.5852   26.7807 C   0  0  0  0  0  0  0  0  0  0  0  0
   66.3994   33.4215   25.7147 C   0  0  0  0  0  0  0  0  0  0  0  0
   65.0764   33.7688   25.4372 C   0  0  0  0  0  0  0  0  0  0  0  0
   64.0453   33.3138   26.2667 C   0  0  0  0  0  0  0  0  0  0  0  0
   64.3558   32.5213   27.3818 C   0  0  0  0  0  0  0  0  0  0  0  0
   66.0296   31.3107   28.6403 O   0  0  0  0  0  0  0  0  0  0  0  0
   67.4194   33.8600   24.9325 O   0  0  0  0  0  0  0  0  0  0  0  0
   65.3729   30.9766   29.2191 H   0  0  0  0  0  0  0  0  0  0  0  0
   67.2434   34.4259   24.2068 H   0  0  0  0  0  0  0  0  0  0  0  0
   63.2100   32.1499   28.2773 C   0  0  0  0  0  0  0  0  0  0  0  0
   62.2663   31.1943   27.5091 C   0  0  0  0  0  0  0  0  0  0  0  0
   65.9760   36.7832   25.1081 C   0  0  0  0  0  0  0  0  0  0  0  0
   67.5649   38.2436   26.9182 C   0  0  0  0  0  0  0  0  0  0  0  0
   66.2308   37.9806   27.2138 C   0  0  0  0  0  0  0  0  0  0  0  0
   65.4356   37.2558   26.3149 C   0  0  0  0  0  0  0  0  0  0  0  0
   67.3155   37.0618   24.8105 C   0  0  0  0  0  0  0  0  0  0  0  0
   68.0964   37.8089   25.7053 C   0  0  0  0  0  0  0  0  0  0  0  0
   67.7960   36.6581   23.6105 F   0  0  0  0  0  0  0  0  0  0  0  0
  6  2  1  0  0  0
  5  2  2  0  0  0
  5  4  1  0  0  0
  2  3  1  0  0  0
  4  1  1  0  0  0
 26 24  1  0  0  0
  3  1  2  0  0  0
  3 20  1  0  0  0
  1 11  1  0  0  0
 24 20  2  0  0  0
 24 25  1  0  0  0
 20 23  1  0  0  0
 11 12  2  0  0  0
 11 10  1  0  0  0
 25 21  2  0  0  0
 15 10  1  0  0  0
 12 13  1  0  0  0
 10  9  2  0  0  0
 23 22  2  0  0  0
 19 18  1  0  0  0
 13 18  1  0  0  0
 13  8  2  0  0  0
 21 22  1  0  0  0
  9  8  1  0  0  0
  8 14  1  0  0  0
 14 16  1  0  0  0
 15 17  1  0  0  0
  4  7  1  0  0  0
M  END
> <minimizedAffinity>
-8.30955

$$$$
6ELO_BAW_A_301


 26 28  0  0  0  0  0  0  0  0999 V2000
   67.6739   36.3535   26.7059 C   0  0  0  0  0  0  0  0  0  0  0  0
   68.1054   38.5499   26.4322 C   0  0  0  0  0  0  0  0  0  0  0  0
   67.5299   37.4588   25.8114 C   0  0  0  0  0  0  0  0  0  0  0  0
   68.3982   36.7361   27.7267 N   0  0  0  0  0  0  0  0  0  0  0  0
   68.6960   38.1053   27.5656 N   0  0  0  0  0  0  0  0  0  0  0  0
   68.2493   39.9590   25.8993 C   0  0  0  0  0  0  0  0  0  0  0  0
   68.6853   36.1669   28.4769 H   0  0  0  0  0  0  0  0  0  0  0  0
   66.3077   32.3628   26.0947 C   0  0  0  0  0  0  0  0  0  0  0  0
   67.6327   32.6089   26.4348 C   0  0  0  0  0  0  0  0  0  0  0  0
   68.0693   33.9062   26.6538 C   0  0  0  0  0  0  0  0  0  0  0  0
   67.1917   34.9796   26.4935 C   0  0  0  0  0  0  0  0  0  0  0  0
   65.8531   34.7446   26.1603 C   0  0  0  0  0  0  0  0  0  0  0  0
   65.4024   33.4254   26.0041 C   0  0  0  0  0  0  0  0  0  0  0  0
   65.9393   31.0691   25.9025 O   0  0  0  0  0  0  0  0  0  0  0  0
   69.3701   34.1066   26.9889 O   0  0  0  0  0  0  0  0  0  0  0  0
   65.0548   30.8631   25.6720 H   0  0  0  0  0  0  0  0  0  0  0  0
   69.6861   34.9755   27.1413 H   0  0  0  0  0  0  0  0  0  0  0  0
   63.9356   33.2473   25.7405 C   0  0  0  0  0  0  0  0  0  0  0  0
   63.4928   34.2749   24.6719 C   0  0  0  0  0  0  0  0  0  0  0  0
   66.8121   37.4069   24.5014 C   0  0  0  0  0  0  0  0  0  0  0  0
   65.4103   37.3196   22.0599 C   0  0  0  0  0  0  0  0  0  0  0  0
   66.7908   37.1464   22.0797 C   0  0  0  0  0  0  0  0  0  0  0  0
   67.4930   37.1911   23.2924 C   0  0  0  0  0  0  0  0  0  0  0  0
   65.4246   37.5929   24.4737 C   0  0  0  0  0  0  0  0  0  0  0  0
   64.7341   37.5709   23.2525 C   0  0  0  0  0  0  0  0  0  0  0  0
   64.7982   37.8699   25.6419 F   0  0  0  0  0  0  0  0  0  0  0  0
  6  2  1  0  0  0
  5  2  2  0  0  0
  5  4  1  0  0  0
  2  3  1  0  0  0
  4  1  1  0  0  0
 26 24  1  0  0  0
  3  1  2  0  0  0
  3 20  1  0  0  0
  1 11  1  0  0  0
 24 20  2  0  0  0
 24 25  1  0  0  0
 20 23  1  0  0  0
 11 12  2  0  0  0
 11 10  1  0  0  0
 25 21  2  0  0  0
 15 10  1  0  0  0
 12 13  1  0  0  0
 10  9  2  0  0  0
 23 22  2  0  0  0
 19 18  1  0  0  0
 13 18  1  0  0  0
 13  8  2  0  0  0
 21 22  1  0  0  0
  9  8  1  0  0  0
  8 14  1  0  0  0
 14 16  1  0  0  0
 15 17  1  0  0  0
  4  7  1  0  0  0
M  END
> <minimizedAffinity>
-8.11434

$$$$
6ELO_BAW_A_301


 26 28  0  0  0  0  0  0  0  0999 V2000
   64.8836   36.0773   22.9984 C   0  0  0  0  0  0  0  0  0  0  0  0
   63.9349   34.8666   24.6475 C   0  0  0  0  0  0  0  0  0  0  0  0
   64.8140   35.9062   24.4155 C   0  0  0  0  0  0  0  0  0  0  0  0
   64.1940   35.1214   22.4295 N   0  0  0  0  0  0  0  0  0  0  0  0
   63.6065   34.3391   23.4455 N   0  0  0  0  0  0  0  0  0  0  0  0
   63.5327   34.2626   25.9755 C   0  0  0  0  0  0  0  0  0  0  0  0
   64.1015   34.9739   21.4605 H   0  0  0  0  0  0  0  0  0  0  0  0
   67.1970   38.9803   20.9039 C   0  0  0  0  0  0  0  0  0  0  0  0
   67.8174   38.0395   21.7175 C   0  0  0  0  0  0  0  0  0  0  0  0
   67.0643   37.0832   22.3808 C   0  0  0  0  0  0  0  0  0  0  0  0
   65.6729   37.0833   22.2702 C   0  0  0  0  0  0  0  0  0  0  0  0
   65.0370   38.0193   21.4470 C   0  0  0  0  0  0  0  0  0  0  0  0
   65.8098   38.9429   20.7275 C   0  0  0  0  0  0  0  0  0  0  0  0
   67.9908   39.8851   20.2734 O   0  0  0  0  0  0  0  0  0  0  0  0
   67.7064   36.1777   23.1633 O   0  0  0  0  0  0  0  0  0  0  0  0
   67.6096   40.5351   19.7165 H   0  0  0  0  0  0  0  0  0  0  0  0
   67.2166   35.5227   23.6205 H   0  0  0  0  0  0  0  0  0  0  0  0
   65.0658   39.8528   19.7940 C   0  0  0  0  0  0  0  0  0  0  0  0
   65.0169   39.1980   18.3931 C   0  0  0  0  0  0  0  0  0  0  0  0
   65.5165   36.7690   25.4136 C   0  0  0  0  0  0  0  0  0  0  0  0
   66.8769   38.3522   27.3047 C   0  0  0  0  0  0  0  0  0  0  0  0
   65.7902   38.8734   26.6092 C   0  0  0  0  0  0  0  0  0  0  0  0
   65.1113   38.0897   25.6655 C   0  0  0  0  0  0  0  0  0  0  0  0
   66.6183   36.2543   26.1075 C   0  0  0  0  0  0  0  0  0  0  0  0
   67.3063   37.0546   27.0321 C   0  0  0  0  0  0  0  0  0  0  0  0
   67.0353   35.0037   25.7980 F   0  0  0  0  0  0  0  0  0  0  0  0
  6  2  1  0  0  0
  5  2  2  0  0  0
  5  4  1  0  0  0
  2  3  1  0  0  0
  4  1  1  0  0  0
 26 24  1  0  0  0
  3  1  2  0  0  0
  3 20  1  0  0  0
  1 11  1  0  0  0
 24 20  2  0  0  0
 24 25  1  0  0  0
 20 23  1  0  0  0
 11 12  2  0  0  0
 11 10  1  0  0  0
 25 21  2  0  0  0
 15 10  1  0  0  0
 12 13  1  0  0  0
 10  9  2  0  0  0
 23 22  2  0  0  0
 19 18  1  0  0  0
 13 18  1  0  0  0
 13  8  2  0  0  0
 21 22  1  0  0  0
  9  8  1  0  0  0
  8 14  1  0  0  0
 14 16  1  0  0  0
 15 17  1  0  0  0
  4  7  1  0  0  0
M  END
> <minimizedAffinity>
-7.35752

$$$$
