5LD8_6U5_A_502
  RCSB PDB12061718463D
Coordinates from PDB:5LD8:A:502 Model:1 without hydrogens
 18 19  0  0  0  0            999 V2000
   11.9130   30.1690   -4.8590   N 0  0  0  0  0  0  0  0  0  0  0  0
    8.1700   28.1880   -6.6980   C 0  0  0  0  0  0  0  0  0  0  0  0
    7.7210   28.3100   -5.3820   C 0  0  0  0  0  0  0  0  0  0  0  0
    8.5340   28.8700   -4.4130   C 0  0  0  0  0  0  0  0  0  0  0  0
    9.8130   29.3180   -4.7380   C 0  0  0  0  0  0  0  0  0  0  0  0
   10.8930   29.9410   -4.0610   C 0  0  0  0  0  0  0  0  0  0  0  0
   10.2550   29.1810   -6.0570   C 0  0  0  0  0  0  0  0  0  0  0  0
    8.8290   26.7090   -9.4730   O 0  0  0  0  0  0  0  0  0  0  0  0
    7.6000   27.4170   -9.2860   S 0  0  0  0  0  0  0  0  0  0  0  0
    6.4080   26.9250   -9.9050   O 0  0  0  0  0  0  0  0  0  0  0  0
    7.8430   29.0990   -9.8050   C 0  0  0  0  0  0  0  0  0  0  0  0
    7.4140   29.3320  -11.2480   C 0  0  0  0  0  0  0  0  0  0  0  0
    6.3940   30.4550  -11.3930   C 0  0  0  0  0  0  0  0  0  0  0  0
    7.0110   31.7810  -11.7490   C 0  0  0  0  0  0  0  0  0  0  0  0
    7.2840   27.6350   -7.6730   N 0  0  0  0  0  0  0  0  0  0  0  0
    9.4550   28.6170   -7.0440   C 0  0  0  0  0  0  0  0  0  0  0  0
   11.5270   29.7030   -6.0990   N 0  0  0  0  0  0  0  0  0  0  0  0
   12.4550   29.8200   -7.2140   C 0  0  0  0  0  0  0  0  0  0  0  0
  6  1  2  0  0  0  0
  6  5  1  0  0  0  0
  4  5  2  0  0  0  0
  4  3  1  0  0  0  0
  1 17  1  0  0  0  0
  5  7  1  0  0  0  0
  3  2  2  0  0  0  0
 17  7  1  0  0  0  0
 17 18  1  0  0  0  0
  7 16  2  0  0  0  0
  2 16  1  0  0  0  0
  2 15  1  0  0  0  0
 15  9  1  0  0  0  0
  9  8  2  0  0  0  0
  9 11  1  0  0  0  0
  9 10  2  0  0  0  0
 11 12  1  0  0  0  0
 12 13  1  0  0  0  0
 13 14  1  0  0  0  0
A    1
N1
A    2
C4
A    3
C5
A    4
C6
A    5
C7
A    6
C8
A    7
C10
A    8
O1
A    9
S
A   10
O
A   11
C3
A   12
C2
A   13
C1
A   14
C
A   15
N
A   16
C11
A   17
N2
A   18
C9
M  END
>  <InstanceId>
5LD8_6U5_A_502

>  <ChemCompId>
6U5

>  <PdbId>
5LD8

>  <ChainId>
A

>  <ResidueNumber>
502

>  <InsertionCode>


>  <Model>
1

>  <AltIds>


>  <MissingHeavyAtoms>
0

>  <ObservedFormula>
C12 N3 O2 S

>  <Name>
~{N}-(1-methylindazol-6-yl)butane-1-sulfonamide

>  <SystematicName>
~{N}-(1-methylindazol-6-yl)butane-1-sulfonamide

>  <Synonyms>


>  <Type>
NON-POLYMER

>  <Formula>
C12 H17 N3 O2 S

>  <MolecularWeight>
267.347

>  <ModifiedDate>
2016-09-16

>  <Parent>


>  <OneLetterCode>


>  <SubcomponentList>


>  <AmbiguousFlag>
N

>  <InChI>
InChI=1S/C12H17N3O2S/c1-3-4-7-18(16,17)14-11-6-5-10-9-13-15(2)12(10)8-11/h5-6,8-9,14H,3-4,7H2,1-2H3

>  <InChIKey>
DDWBORAVXJGWPK-UHFFFAOYSA-N

>  <SMILES>
CCCCS(=O)(=O)Nc1ccc2cnn(c2c1)C

$$$$
