3MHI_J90_A_263
  RCSB PDB12061709453D
Coordinates from PDB:3MHI:A:263 Model:1 without hydrogens
 22 23  0  0  0  0            999 V2000
   -0.4050    9.0720   14.6540   N 0  0  0  0  0  0  0  0  0  0  0  0
   -1.5480    8.8020   15.2370   C 0  0  0  0  0  0  0  0  0  0  0  0
   -2.3080    7.8050   14.8250   N 0  0  0  0  0  0  0  0  0  0  0  0
   -2.0290    7.0040   13.7830   C 0  0  0  0  0  0  0  0  0  0  0  0
   -0.8090    7.2000   13.1290   C 0  0  0  0  0  0  0  0  0  0  0  0
   -0.0310    8.2680   13.6220   C 0  0  0  0  0  0  0  0  0  0  0  0
   -2.8900    5.9360   13.4480   N 0  0  0  0  0  0  0  0  0  0  0  0
   -4.6790    4.6850   14.5560   C 0  0  0  0  0  0  0  0  0  0  0  0
   -3.7050    3.6680   14.8770   C 0  0  0  0  0  0  0  0  0  0  0  0
   -4.1170    2.4950   15.6060   C 0  0  0  0  0  0  0  0  0  0  0  0
   -5.4610    2.3750   15.9280   C 0  0  0  0  0  0  0  0  0  0  0  0
   -6.3740    3.3590   15.5770   C 0  0  0  0  0  0  0  0  0  0  0  0
   -6.0120    4.5490   14.8800   C 0  0  0  0  0  0  0  0  0  0  0  0
   -6.0730    0.9080   16.7700   S 0  0  0  0  0  0  0  0  0  0  0  0
   -5.4910    0.9830   18.1410   O 0  0  0  0  0  0  0  0  0  0  0  0
   -7.5600    0.9250   16.6010   O 0  0  0  0  0  0  0  0  0  0  0  0
   -5.2930   -0.3710   16.0350   N 0  0  0  0  0  0  0  0  0  0  0  0
   -0.3400    6.3410   11.9530   N 0  3  0  0  0  0  0  0  0  0  0  0
    0.7460    6.7010   11.6080   O 0  5  0  0  0  0  0  0  0  0  0  0
   -1.1600    5.5490   11.6860   O 0  0  0  0  0  0  0  0  0  0  0  0
    1.1570    8.5450   12.9780   O 0  0  0  0  0  0  0  0  0  0  0  0
   -4.2670    5.9290   13.7680   C 0  0  0  0  0  0  0  0  0  0  0  0
  1  2  1  0  0  0  0
  1  6  1  0  0  0  0
  2  3  2  0  0  0  0
  3  4  1  0  0  0  0
  4  5  2  0  0  0  0
  4  7  1  0  0  0  0
  5  6  1  0  0  0  0
  5 18  1  0  0  0  0
  6 21  2  0  0  0  0
  7 22  1  0  0  0  0
  8  9  2  0  0  0  0
  8 13  1  0  0  0  0
  8 22  1  0  0  0  0
  9 10  1  0  0  0  0
 10 11  2  0  0  0  0
 11 12  1  0  0  0  0
 11 14  1  0  0  0  0
 12 13  2  0  0  0  0
 14 15  2  0  0  0  0
 14 16  2  0  0  0  0
 14 17  1  0  0  0  0
 18 19  1  0  0  0  0
 18 20  2  0  0  0  0
M  CHG  2  18   1  19  -1
A    1
N1
A    2
C2
A    3
N3
A    4
C4
A    5
C5
A    6
C6
A    7
N7
A    8
C8
A    9
C9
A   10
C10
A   11
C11
A   12
C12
A   13
C13
A   14
S14
A   15
O15
A   16
O16
A   17
N17
A   18
N18
A   19
O19
A   20
O20
A   21
O21
A   22
C22
M  END
>  <InstanceId>
3MHI_J90_A_263

>  <ChemCompId>
J90

>  <PdbId>
3MHI

>  <ChainId>
A

>  <ResidueNumber>
263

>  <InsertionCode>


>  <Model>
1

>  <AltIds>


>  <MissingHeavyAtoms>
0

>  <ObservedFormula>
C11 N5 O5 S

>  <Name>
4-{[(5-nitro-6-oxo-1,6-dihydropyrimidin-4-yl)amino]methyl}benzenesulfonamide

>  <SystematicName>
4-[[(5-nitro-6-oxo-1H-pyrimidin-4-yl)amino]methyl]benzenesulfonamide

>  <Synonyms>
4-{[(5-nitro-6-oxo-1,6-dihydro-4-pyrimidinyl)amino]methyl}benzenesulfonamide

>  <Type>
NON-POLYMER

>  <Formula>
C11 H11 N5 O5 S

>  <MolecularWeight>
325.301

>  <ModifiedDate>
2011-06-04

>  <Parent>


>  <OneLetterCode>


>  <SubcomponentList>


>  <AmbiguousFlag>
N

>  <InChI>
InChI=1S/C11H11N5O5S/c12-22(20,21)8-3-1-7(2-4-8)5-13-10-9(16(18)19)11(17)15-6-14-10/h1-4,6H,5H2,(H2,12,20,21)(H2,13,14,15,17)

>  <InChIKey>
OFSBPMITNGFAFH-UHFFFAOYSA-N

>  <SMILES>
c1cc(ccc1CNC2=C(C(=O)NC=N2)[N+](=O)[O-])S(=O)(=O)N

$$$$
