6DH8_A60_A_105


 44 47  0  0  0  0  0  0  0  0999 V2000
   72.4443  114.0792   15.8772 C   0  0  0  0  0  0  0  0  0  0  0  0
   72.2845  115.0948   14.9573 O   0  0  0  0  0  0  0  0  0  0  0  0
   71.3387  115.2597   14.8188 H   0  0  0  0  0  0  0  0  0  0  0  0
   71.7664  112.7719   15.3424 C   0  0  0  0  0  0  0  0  0  0  0  0
   72.5425  111.5757   15.8033 N   0  0  0  0  0  0  0  0  0  0  0  0
   71.7520  110.5715   16.9386 S   0  0  0  0  0  0  0  0  0  0  0  0
   71.6470  111.1989   18.2499 O   0  0  0  0  0  0  0  0  0  0  0  0
   72.5166  109.3522   17.1359 O   0  0  0  0  0  0  0  0  0  0  0  0
   66.1013  109.4905   14.3286 N   0  0  0  0  0  0  0  0  0  0  0  0
   67.3886  109.7331   14.9208 C   0  0  0  0  0  0  0  0  0  0  0  0
   67.5040  110.6670   16.1541 C   0  0  0  0  0  0  0  0  0  0  0  0
   68.8675  110.9220   16.7797 C   0  0  0  0  0  0  0  0  0  0  0  0
   70.1104  110.2414   16.1918 C   0  0  0  0  0  0  0  0  0  0  0  0
   70.0038  109.3177   14.9696 C   0  0  0  0  0  0  0  0  0  0  0  0
   68.6276  109.0623   14.3378 C   0  0  0  0  0  0  0  0  0  0  0  0
   65.2987  109.9215   14.7018 H   0  0  0  0  0  0  0  0  0  0  0  0
   66.0224  108.8933   13.5499 H   0  0  0  0  0  0  0  0  0  0  0  0
   73.3470  110.8571   14.8117 C   0  0  0  0  0  0  0  0  0  0  0  0
   74.8980  110.9088   15.1824 C   0  0  0  0  0  0  0  0  0  0  0  0
   75.4416  109.4480   15.2772 C   0  0  0  0  0  0  0  0  0  0  0  0
   74.5880  108.5022   14.4070 C   0  0  0  0  0  0  0  0  0  0  0  0
   75.0734  111.6046   16.5516 C   0  0  0  0  0  0  0  0  0  0  0  0
   75.8158  110.6547   17.5411 C   0  0  0  0  0  0  0  0  0  0  0  0
   71.8057  114.4824   17.2057 C   0  0  0  0  0  0  0  0  0  0  0  0
   72.7551  115.3526   17.9194 N   0  0  0  0  0  0  0  0  0  0  0  0
   73.4695  114.8919   19.1529 C   0  0  0  0  0  0  0  0  0  0  0  0
   73.1597  113.9110   19.7416 O   0  0  0  0  0  0  0  0  0  0  0  0
   72.9248  116.2601   17.5772 H   0  0  0  0  0  0  0  0  0  0  0  0
   74.5508  115.7164   19.5776 O   0  0  0  0  0  0  0  0  0  0  0  0
   75.7661  115.0397   20.1634 C   0  0  0  0  0  0  0  0  0  0  0  0
   76.4810  114.6271   19.2010 C   0  0  0  0  0  0  0  0  0  0  0  0
   77.1909  115.9914   18.6362 O   0  0  0  0  0  0  0  0  0  0  0  0
   77.4449  116.7130   19.6792 C   0  0  0  0  0  0  0  0  0  0  0  0
   76.8731  118.1780   19.5316 O   0  0  0  0  0  0  0  0  0  0  0  0
   75.7947  118.2444   20.2779 C   0  0  0  0  0  0  0  0  0  0  0  0
   75.9847  117.1105   21.4316 C   0  0  0  0  0  0  0  0  0  0  0  0
   76.6761  116.0987   20.8588 C   0  0  0  0  0  0  0  0  0  0  0  0
   70.5468  115.2946   17.0108 C   0  0  0  0  0  0  0  0  0  0  0  0
   70.0479  117.4230   18.5422 C   0  0  0  0  0  0  0  0  0  0  0  0
   69.6441  118.0315   19.9022 C   0  0  0  0  0  0  0  0  0  0  0  0
   69.3321  117.1059   21.1090 C   0  0  0  0  0  0  0  0  0  0  0  0
   69.4239  115.5820   20.9486 C   0  0  0  0  0  0  0  0  0  0  0  0
   69.8286  114.9741   19.5919 C   0  0  0  0  0  0  0  0  0  0  0  0
   70.1450  115.8993   18.3853 C   0  0  0  0  0  0  0  0  0  0  0  0
  9 10  1  0  0  0
 10 11  2  0  0  0
 10 15  1  0  0  0
 11 12  1  0  0  0
 12 13  2  0  0  0
 13 14  1  0  0  0
 13  6  1  0  0  0
 14 15  2  0  0  0
  6  7  2  0  0  0
  6  8  2  0  0  0
  6  5  1  0  0  0
  5 18  1  0  0  0
  5  4  1  0  0  0
 18 19  1  0  0  0
 19 20  1  0  0  0
 19 22  1  0  0  0
 20 21  1  0  0  0
 22 23  1  0  0  0
  4  1  1  0  0  0
  1  2  1  0  0  0
  1 24  1  0  0  0
 24 25  1  0  0  0
 24 38  1  0  0  0
 25 26  1  0  0  0
 26 27  2  0  0  0
 26 29  1  0  0  0
 29 30  1  0  0  0
 30 31  1  0  0  0
 30 37  1  0  0  0
 31 32  1  0  0  0
 32 33  1  0  0  0
 33 34  1  0  0  0
 33 37  1  0  0  0
 34 35  1  0  0  0
 35 36  1  0  0  0
 36 37  1  0  0  0
 38 44  1  0  0  0
 39 40  2  0  0  0
 39 44  1  0  0  0
 40 41  1  0  0  0
 41 42  2  0  0  0
 42 43  1  0  0  0
 43 44  2  0  0  0
  9 16  1  0  0  0
  9 17  1  0  0  0
  2  3  1  0  0  0
 25 28  1  0  0  0
M  END
> <minimizedAffinity>
-9.51622

$$$$
6DH8_A60_A_105


 44 47  0  0  0  0  0  0  0  0999 V2000
   72.1084  113.7077   15.9652 C   0  0  0  0  0  0  0  0  0  0  0  0
   72.3184  114.6973   15.0271 O   0  0  0  0  0  0  0  0  0  0  0  0
   71.4883  115.1733   14.8680 H   0  0  0  0  0  0  0  0  0  0  0  0
   71.0303  112.7009   15.4372 C   0  0  0  0  0  0  0  0  0  0  0  0
   71.1488  111.4016   16.1743 N   0  0  0  0  0  0  0  0  0  0  0  0
   69.8188  110.9873   17.1652 S   0  0  0  0  0  0  0  0  0  0  0  0
   69.1586  112.1620   17.7204 O   0  0  0  0  0  0  0  0  0  0  0  0
   70.2746  110.2067   18.3023 O   0  0  0  0  0  0  0  0  0  0  0  0
   66.0449  107.6825   13.3250 N   0  0  0  0  0  0  0  0  0  0  0  0
   66.9050  108.4310   14.2006 C   0  0  0  0  0  0  0  0  0  0  0  0
   66.6224  109.9350   14.4549 C   0  0  0  0  0  0  0  0  0  0  0  0
   67.5337  110.7254   15.3825 C   0  0  0  0  0  0  0  0  0  0  0  0
   68.7133  110.0221   16.0662 C   0  0  0  0  0  0  0  0  0  0  0  0
   69.0004  108.5342   15.8170 C   0  0  0  0  0  0  0  0  0  0  0  0
   68.0811  107.7377   14.8794 C   0  0  0  0  0  0  0  0  0  0  0  0
   65.2844  108.1262   12.8846 H   0  0  0  0  0  0  0  0  0  0  0  0
   66.2165  106.7263   13.1658 H   0  0  0  0  0  0  0  0  0  0  0  0
   71.7616  110.2699   15.4740 C   0  0  0  0  0  0  0  0  0  0  0  0
   73.2674  110.0450   15.9512 C   0  0  0  0  0  0  0  0  0  0  0  0
   73.4648  110.7370   17.3370 C   0  0  0  0  0  0  0  0  0  0  0  0
   74.7897  111.5274   17.3562 C   0  0  0  0  0  0  0  0  0  0  0  0
   74.2299  110.6840   14.9240 C   0  0  0  0  0  0  0  0  0  0  0  0
   75.0262  109.5711   14.1757 C   0  0  0  0  0  0  0  0  0  0  0  0
   71.6296  114.3329   17.2749 C   0  0  0  0  0  0  0  0  0  0  0  0
   72.7069  115.1974   17.7848 N   0  0  0  0  0  0  0  0  0  0  0  0
   73.4861  114.8406   19.0135 C   0  0  0  0  0  0  0  0  0  0  0  0
   73.1491  113.9808   19.7563 O   0  0  0  0  0  0  0  0  0  0  0  0
   72.9204  116.0309   17.3063 H   0  0  0  0  0  0  0  0  0  0  0  0
   74.6652  115.6089   19.2348 O   0  0  0  0  0  0  0  0  0  0  0  0
   75.7773  114.9792   20.0376 C   0  0  0  0  0  0  0  0  0  0  0  0
   76.6581  114.5688   19.2231 C   0  0  0  0  0  0  0  0  0  0  0  0
   77.4205  115.9416   18.7564 O   0  0  0  0  0  0  0  0  0  0  0  0
   77.4721  116.6906   19.8097 C   0  0  0  0  0  0  0  0  0  0  0  0
   76.8979  118.1352   19.5303 O   0  0  0  0  0  0  0  0  0  0  0  0
   75.7053  118.1850   20.0777 C   0  0  0  0  0  0  0  0  0  0  0  0
   75.7212  117.0798   21.2740 C   0  0  0  0  0  0  0  0  0  0  0  0
   76.5265  116.0775   20.8536 C   0  0  0  0  0  0  0  0  0  0  0  0
   70.4260  115.2241   17.0757 C   0  0  0  0  0  0  0  0  0  0  0  0
   69.8358  115.0086   19.6698 C   0  0  0  0  0  0  0  0  0  0  0  0
   69.5052  115.6623   21.0286 C   0  0  0  0  0  0  0  0  0  0  0  0
   69.4319  117.2080   21.1533 C   0  0  0  0  0  0  0  0  0  0  0  0
   69.6904  118.0883   19.9226 C   0  0  0  0  0  0  0  0  0  0  0  0
   70.0187  117.4365   18.5657 C   0  0  0  0  0  0  0  0  0  0  0  0
   70.0881  115.8902   18.4389 C   0  0  0  0  0  0  0  0  0  0  0  0
  9 10  1  0  0  0
 10 11  2  0  0  0
 10 15  1  0  0  0
 11 12  1  0  0  0
 12 13  2  0  0  0
 13 14  1  0  0  0
 13  6  1  0  0  0
 14 15  2  0  0  0
  6  7  2  0  0  0
  6  8  2  0  0  0
  6  5  1  0  0  0
  5 18  1  0  0  0
  5  4  1  0  0  0
 18 19  1  0  0  0
 19 20  1  0  0  0
 19 22  1  0  0  0
 20 21  1  0  0  0
 22 23  1  0  0  0
  4  1  1  0  0  0
  1  2  1  0  0  0
  1 24  1  0  0  0
 24 25  1  0  0  0
 24 38  1  0  0  0
 25 26  1  0  0  0
 26 27  2  0  0  0
 26 29  1  0  0  0
 29 30  1  0  0  0
 30 31  1  0  0  0
 30 37  1  0  0  0
 31 32  1  0  0  0
 32 33  1  0  0  0
 33 34  1  0  0  0
 33 37  1  0  0  0
 34 35  1  0  0  0
 35 36  1  0  0  0
 36 37  1  0  0  0
 38 44  1  0  0  0
 39 40  2  0  0  0
 39 44  1  0  0  0
 40 41  1  0  0  0
 41 42  2  0  0  0
 42 43  1  0  0  0
 43 44  2  0  0  0
  9 16  1  0  0  0
  9 17  1  0  0  0
  2  3  1  0  0  0
 25 28  1  0  0  0
M  END
> <minimizedAffinity>
-9.41481

$$$$
6DH8_A60_A_105


 44 47  0  0  0  0  0  0  0  0999 V2000
   73.0468  114.1265   17.0614 C   0  0  0  0  0  0  0  0  0  0  0  0
   72.1048  114.9544   16.4865 O   0  0  0  0  0  0  0  0  0  0  0  0
   71.5702  115.3680   17.1822 H   0  0  0  0  0  0  0  0  0  0  0  0
   72.3294  113.0089   17.8927 C   0  0  0  0  0  0  0  0  0  0  0  0
   71.8493  111.9262   16.9747 N   0  0  0  0  0  0  0  0  0  0  0  0
   70.2258  112.0595   16.4563 S   0  0  0  0  0  0  0  0  0  0  0  0
   70.0670  113.0394   15.3892 O   0  0  0  0  0  0  0  0  0  0  0  0
   69.3934  112.5210   17.5537 O   0  0  0  0  0  0  0  0  0  0  0  0
   68.7427  106.2003   14.6175 N   0  0  0  0  0  0  0  0  0  0  0  0
   69.0773  107.5334   15.0388 C   0  0  0  0  0  0  0  0  0  0  0  0
   69.8181  108.4851   14.0631 C   0  0  0  0  0  0  0  0  0  0  0  0
   70.1709  109.8960   14.5110 C   0  0  0  0  0  0  0  0  0  0  0  0
   69.7775  110.3652   15.9176 C   0  0  0  0  0  0  0  0  0  0  0  0
   69.0463  109.4277   16.8895 C   0  0  0  0  0  0  0  0  0  0  0  0
   68.6921  108.0034   16.4373 C   0  0  0  0  0  0  0  0  0  0  0  0
   68.9895  105.8926   13.7155 H   0  0  0  0  0  0  0  0  0  0  0  0
   68.2668  105.5950   15.2310 H   0  0  0  0  0  0  0  0  0  0  0  0
   72.7759  111.4338   15.9522 C   0  0  0  0  0  0  0  0  0  0  0  0
   73.8564  110.4439   16.5836 C   0  0  0  0  0  0  0  0  0  0  0  0
   75.2726  111.0853   16.4371 C   0  0  0  0  0  0  0  0  0  0  0  0
   76.1615  110.6986   17.6375 C   0  0  0  0  0  0  0  0  0  0  0  0
   73.8270  109.1005   15.8194 C   0  0  0  0  0  0  0  0  0  0  0  0
   74.6837  109.2073   14.5204 C   0  0  0  0  0  0  0  0  0  0  0  0
   73.9590  114.9420   17.9770 C   0  0  0  0  0  0  0  0  0  0  0  0
   73.1070  115.6845   18.9209 N   0  0  0  0  0  0  0  0  0  0  0  0
   73.2974  117.1499   19.1664 C   0  0  0  0  0  0  0  0  0  0  0  0
   74.2565  117.7401   18.7971 O   0  0  0  0  0  0  0  0  0  0  0  0
   72.3944  115.2058   19.4027 H   0  0  0  0  0  0  0  0  0  0  0  0
   72.2453  117.7924   19.8803 O   0  0  0  0  0  0  0  0  0  0  0  0
   71.5138  116.9921   20.9303 C   0  0  0  0  0  0  0  0  0  0  0  0
   71.4672  117.6912   21.9870 C   0  0  0  0  0  0  0  0  0  0  0  0
   70.3126  118.8066   21.6602 O   0  0  0  0  0  0  0  0  0  0  0  0
   69.4106  118.1872   20.9704 C   0  0  0  0  0  0  0  0  0  0  0  0
   69.0744  118.9482   19.6278 O   0  0  0  0  0  0  0  0  0  0  0  0
   69.6595  118.2862   18.6563 C   0  0  0  0  0  0  0  0  0  0  0  0
   69.8171  116.7573   19.1952 C   0  0  0  0  0  0  0  0  0  0  0  0
   70.0132  116.8443   20.5308 C   0  0  0  0  0  0  0  0  0  0  0  0
   74.8591  114.0643   18.8148 C   0  0  0  0  0  0  0  0  0  0  0  0
   75.7997  115.1607   21.0592 C   0  0  0  0  0  0  0  0  0  0  0  0
   76.8205  116.0625   21.7857 C   0  0  0  0  0  0  0  0  0  0  0  0
   77.9373  116.7812   20.9816 C   0  0  0  0  0  0  0  0  0  0  0  0
   78.0273  116.5933   19.4608 C   0  0  0  0  0  0  0  0  0  0  0  0
   77.0076  115.6947   18.7349 C   0  0  0  0  0  0  0  0  0  0  0  0
   75.8876  114.9787   19.5377 C   0  0  0  0  0  0  0  0  0  0  0  0
  9 10  1  0  0  0
 10 11  2  0  0  0
 10 15  1  0  0  0
 11 12  1  0  0  0
 12 13  2  0  0  0
 13 14  1  0  0  0
 13  6  1  0  0  0
 14 15  2  0  0  0
  6  7  2  0  0  0
  6  8  2  0  0  0
  6  5  1  0  0  0
  5 18  1  0  0  0
  5  4  1  0  0  0
 18 19  1  0  0  0
 19 20  1  0  0  0
 19 22  1  0  0  0
 20 21  1  0  0  0
 22 23  1  0  0  0
  4  1  1  0  0  0
  1  2  1  0  0  0
  1 24  1  0  0  0
 24 25  1  0  0  0
 24 38  1  0  0  0
 25 26  1  0  0  0
 26 27  2  0  0  0
 26 29  1  0  0  0
 29 30  1  0  0  0
 30 31  1  0  0  0
 30 37  1  0  0  0
 31 32  1  0  0  0
 32 33  1  0  0  0
 33 34  1  0  0  0
 33 37  1  0  0  0
 34 35  1  0  0  0
 35 36  1  0  0  0
 36 37  1  0  0  0
 38 44  1  0  0  0
 39 40  2  0  0  0
 39 44  1  0  0  0
 40 41  1  0  0  0
 41 42  2  0  0  0
 42 43  1  0  0  0
 43 44  2  0  0  0
  9 16  1  0  0  0
  9 17  1  0  0  0
  2  3  1  0  0  0
 25 28  1  0  0  0
M  END
> <minimizedAffinity>
-9.07278

$$$$
6DH8_A60_A_105


 44 47  0  0  0  0  0  0  0  0999 V2000
   71.6451  112.0722   18.1061 C   0  0  0  0  0  0  0  0  0  0  0  0
   71.3758  111.5287   19.3451 O   0  0  0  0  0  0  0  0  0  0  0  0
   70.4645  111.7416   19.6004 H   0  0  0  0  0  0  0  0  0  0  0  0
   71.4771  113.6288   18.1653 C   0  0  0  0  0  0  0  0  0  0  0  0
   72.5202  114.2154   19.0672 N   0  0  0  0  0  0  0  0  0  0  0  0
   74.0567  114.4640   18.3604 S   0  0  0  0  0  0  0  0  0  0  0  0
   73.9609  114.9972   17.0074 O   0  0  0  0  0  0  0  0  0  0  0  0
   74.7579  113.1970   18.2451 O   0  0  0  0  0  0  0  0  0  0  0  0
   76.9232  118.4445   22.3415 N   0  0  0  0  0  0  0  0  0  0  0  0
   76.2736  117.5359   21.4366 C   0  0  0  0  0  0  0  0  0  0  0  0
   75.3777  118.0925   20.2991 C   0  0  0  0  0  0  0  0  0  0  0  0
   74.6915  117.1289   19.3419 C   0  0  0  0  0  0  0  0  0  0  0  0
   74.9048  115.6185   19.5048 C   0  0  0  0  0  0  0  0  0  0  0  0
   75.7883  115.0603   20.6300 C   0  0  0  0  0  0  0  0  0  0  0  0
   76.4792  116.0335   21.5965 C   0  0  0  0  0  0  0  0  0  0  0  0
   76.7933  119.4153   22.2419 H   0  0  0  0  0  0  0  0  0  0  0  0
   77.4980  118.0961   23.0608 H   0  0  0  0  0  0  0  0  0  0  0  0
   72.1054  115.2620   20.0050 C   0  0  0  0  0  0  0  0  0  0  0  0
   70.7928  116.0087   19.4900 C   0  0  0  0  0  0  0  0  0  0  0  0
   71.0778  117.5429   19.4293 C   0  0  0  0  0  0  0  0  0  0  0  0
   69.9135  118.2758   18.7310 C   0  0  0  0  0  0  0  0  0  0  0  0
   69.6344  115.7472   20.4796 C   0  0  0  0  0  0  0  0  0  0  0  0
   68.4221  115.1176   19.7268 C   0  0  0  0  0  0  0  0  0  0  0  0
   70.6847  111.4912   17.0690 C   0  0  0  0  0  0  0  0  0  0  0  0
   71.4867  110.7990   16.0464 N   0  0  0  0  0  0  0  0  0  0  0  0
   72.4342  111.5416   15.1548 C   0  0  0  0  0  0  0  0  0  0  0  0
   72.4350  112.7235   15.0670 O   0  0  0  0  0  0  0  0  0  0  0  0
   71.3980  109.8237   15.9460 H   0  0  0  0  0  0  0  0  0  0  0  0
   73.3386  110.7297   14.4117 O   0  0  0  0  0  0  0  0  0  0  0  0
   74.6938  110.4498   15.0143 C   0  0  0  0  0  0  0  0  0  0  0  0
   74.5500  110.3736   16.2718 C   0  0  0  0  0  0  0  0  0  0  0  0
   73.8598  108.9042   16.4920 O   0  0  0  0  0  0  0  0  0  0  0  0
   74.4063  108.1244   15.6166 C   0  0  0  0  0  0  0  0  0  0  0  0
   73.3245  107.3626   14.7539 O   0  0  0  0  0  0  0  0  0  0  0  0
   73.2903  107.9488   13.5794 C   0  0  0  0  0  0  0  0  0  0  0  0
   74.7539  108.6366   13.3855 C   0  0  0  0  0  0  0  0  0  0  0  0
   75.1613  109.0152   14.6186 C   0  0  0  0  0  0  0  0  0  0  0  0
   69.7631  110.4521   17.6633 C   0  0  0  0  0  0  0  0  0  0  0  0
   68.8342  108.5026   16.0945 C   0  0  0  0  0  0  0  0  0  0  0  0
   67.8735  108.0135   14.9896 C   0  0  0  0  0  0  0  0  0  0  0  0
   66.8672  109.0000   14.3381 C   0  0  0  0  0  0  0  0  0  0  0  0
   66.8265  110.4648   14.7951 C   0  0  0  0  0  0  0  0  0  0  0  0
   67.7863  110.9541   15.8966 C   0  0  0  0  0  0  0  0  0  0  0  0
   68.7962  109.9691   16.5460 C   0  0  0  0  0  0  0  0  0  0  0  0
  9 10  1  0  0  0
 10 11  2  0  0  0
 10 15  1  0  0  0
 11 12  1  0  0  0
 12 13  2  0  0  0
 13 14  1  0  0  0
 13  6  1  0  0  0
 14 15  2  0  0  0
  6  7  2  0  0  0
  6  8  2  0  0  0
  6  5  1  0  0  0
  5 18  1  0  0  0
  5  4  1  0  0  0
 18 19  1  0  0  0
 19 20  1  0  0  0
 19 22  1  0  0  0
 20 21  1  0  0  0
 22 23  1  0  0  0
  4  1  1  0  0  0
  1  2  1  0  0  0
  1 24  1  0  0  0
 24 25  1  0  0  0
 24 38  1  0  0  0
 25 26  1  0  0  0
 26 27  2  0  0  0
 26 29  1  0  0  0
 29 30  1  0  0  0
 30 31  1  0  0  0
 30 37  1  0  0  0
 31 32  1  0  0  0
 32 33  1  0  0  0
 33 34  1  0  0  0
 33 37  1  0  0  0
 34 35  1  0  0  0
 35 36  1  0  0  0
 36 37  1  0  0  0
 38 44  1  0  0  0
 39 40  2  0  0  0
 39 44  1  0  0  0
 40 41  1  0  0  0
 41 42  2  0  0  0
 42 43  1  0  0  0
 43 44  2  0  0  0
  9 16  1  0  0  0
  9 17  1  0  0  0
  2  3  1  0  0  0
 25 28  1  0  0  0
M  END
> <minimizedAffinity>
-8.95951

$$$$
6DH8_A60_A_105


 44 47  0  0  0  0  0  0  0  0999 V2000
   71.7473  113.2537   16.0442 C   0  0  0  0  0  0  0  0  0  0  0  0
   71.9226  114.1734   15.0310 O   0  0  0  0  0  0  0  0  0  0  0  0
   71.5733  113.8113   14.2017 H   0  0  0  0  0  0  0  0  0  0  0  0
   72.5140  111.9325   15.6956 C   0  0  0  0  0  0  0  0  0  0  0  0
   73.9096  112.0006   16.2372 N   0  0  0  0  0  0  0  0  0  0  0  0
   74.0499  111.9108   17.9385 S   0  0  0  0  0  0  0  0  0  0  0  0
   75.0343  110.9215   18.3586 O   0  0  0  0  0  0  0  0  0  0  0  0
   72.7852  111.4908   18.5167 O   0  0  0  0  0  0  0  0  0  0  0  0
   75.6578  117.7794   19.6369 N   0  0  0  0  0  0  0  0  0  0  0  0
   75.2880  116.4449   19.2510 C   0  0  0  0  0  0  0  0  0  0  0  0
   76.3456  115.3109   19.2945 C   0  0  0  0  0  0  0  0  0  0  0  0
   75.9520  113.8988   18.8862 C   0  0  0  0  0  0  0  0  0  0  0  0
   74.5099  113.6105   18.4494 C   0  0  0  0  0  0  0  0  0  0  0  0
   73.4584  114.7287   18.4016 C   0  0  0  0  0  0  0  0  0  0  0  0
   73.8570  116.1538   18.8123 C   0  0  0  0  0  0  0  0  0  0  0  0
   76.5806  117.9719   19.9208 H   0  0  0  0  0  0  0  0  0  0  0  0
   74.9883  118.5009   19.6171 H   0  0  0  0  0  0  0  0  0  0  0  0
   74.9650  111.2992   15.5018 C   0  0  0  0  0  0  0  0  0  0  0  0
   74.5373  109.7975   15.1737 C   0  0  0  0  0  0  0  0  0  0  0  0
   75.6838  108.8378   15.6241 C   0  0  0  0  0  0  0  0  0  0  0  0
   76.8957  109.6508   16.1251 C   0  0  0  0  0  0  0  0  0  0  0  0
   74.3211  109.6488   13.6502 C   0  0  0  0  0  0  0  0  0  0  0  0
   74.0287  108.1582   13.2963 C   0  0  0  0  0  0  0  0  0  0  0  0
   70.2587  112.9536   16.2155 C   0  0  0  0  0  0  0  0  0  0  0  0
   69.9942  111.6265   15.6351 N   0  0  0  0  0  0  0  0  0  0  0  0
   68.6110  111.1973   15.2522 C   0  0  0  0  0  0  0  0  0  0  0  0
   67.6421  111.7924   15.5863 O   0  0  0  0  0  0  0  0  0  0  0  0
   70.7453  111.0056   15.4952 H   0  0  0  0  0  0  0  0  0  0  0  0
   68.5345  110.0175   14.4575 O   0  0  0  0  0  0  0  0  0  0  0  0
   67.6259  108.9078   14.9277 C   0  0  0  0  0  0  0  0  0  0  0  0
   66.6392  108.8527   14.1333 C   0  0  0  0  0  0  0  0  0  0  0  0
   67.2590  108.1324   12.7988 O   0  0  0  0  0  0  0  0  0  0  0  0
   68.0933  107.2448   13.2338 C   0  0  0  0  0  0  0  0  0  0  0  0
   69.5127  107.3933   12.5570 O   0  0  0  0  0  0  0  0  0  0  0  0
   70.3035  107.9498   13.4455 C   0  0  0  0  0  0  0  0  0  0  0  0
   69.6684  107.5767   14.8982 C   0  0  0  0  0  0  0  0  0  0  0  0
   68.3277  107.5295   14.7251 C   0  0  0  0  0  0  0  0  0  0  0  0
   69.8566  112.8708   17.6694 C   0  0  0  0  0  0  0  0  0  0  0  0
   70.0813  114.5183   19.7574 C   0  0  0  0  0  0  0  0  0  0  0  0
   70.0898  115.9461   20.3441 C   0  0  0  0  0  0  0  0  0  0  0  0
   69.8773  117.1722   19.4158 C   0  0  0  0  0  0  0  0  0  0  0  0
   69.6599  116.9639   17.9106 C   0  0  0  0  0  0  0  0  0  0  0  0
   69.6496  115.5390   17.3245 C   0  0  0  0  0  0  0  0  0  0  0  0
   69.8578  114.3116   18.2530 C   0  0  0  0  0  0  0  0  0  0  0  0
  9 10  1  0  0  0
 10 11  2  0  0  0
 10 15  1  0  0  0
 11 12  1  0  0  0
 12 13  2  0  0  0
 13 14  1  0  0  0
 13  6  1  0  0  0
 14 15  2  0  0  0
  6  7  2  0  0  0
  6  8  2  0  0  0
  6  5  1  0  0  0
  5 18  1  0  0  0
  5  4  1  0  0  0
 18 19  1  0  0  0
 19 20  1  0  0  0
 19 22  1  0  0  0
 20 21  1  0  0  0
 22 23  1  0  0  0
  4  1  1  0  0  0
  1  2  1  0  0  0
  1 24  1  0  0  0
 24 25  1  0  0  0
 24 38  1  0  0  0
 25 26  1  0  0  0
 26 27  2  0  0  0
 26 29  1  0  0  0
 29 30  1  0  0  0
 30 31  1  0  0  0
 30 37  1  0  0  0
 31 32  1  0  0  0
 32 33  1  0  0  0
 33 34  1  0  0  0
 33 37  1  0  0  0
 34 35  1  0  0  0
 35 36  1  0  0  0
 36 37  1  0  0  0
 38 44  1  0  0  0
 39 40  2  0  0  0
 39 44  1  0  0  0
 40 41  1  0  0  0
 41 42  2  0  0  0
 42 43  1  0  0  0
 43 44  2  0  0  0
  9 16  1  0  0  0
  9 17  1  0  0  0
  2  3  1  0  0  0
 25 28  1  0  0  0
M  END
> <minimizedAffinity>
-8.87483

$$$$
6DH8_A60_A_105


 44 47  0  0  0  0  0  0  0  0999 V2000
   71.8500  113.2829   15.5275 C   0  0  0  0  0  0  0  0  0  0  0  0
   72.0116  113.7004   14.2227 O   0  0  0  0  0  0  0  0  0  0  0  0
   72.9350  113.5727   13.9544 H   0  0  0  0  0  0  0  0  0  0  0  0
   72.7805  114.1215   16.4686 C   0  0  0  0  0  0  0  0  0  0  0  0
   72.1919  114.1729   17.8457 N   0  0  0  0  0  0  0  0  0  0  0  0
   73.0463  113.3115   19.0499 S   0  0  0  0  0  0  0  0  0  0  0  0
   73.5169  112.0174   18.5723 O   0  0  0  0  0  0  0  0  0  0  0  0
   72.1687  113.0311   20.1730 O   0  0  0  0  0  0  0  0  0  0  0  0
   77.8040  117.1193   20.7160 N   0  0  0  0  0  0  0  0  0  0  0  0
   76.7238  116.2511   20.3340 C   0  0  0  0  0  0  0  0  0  0  0  0
   75.2657  116.6290   20.7049 C   0  0  0  0  0  0  0  0  0  0  0  0
   74.1236  115.7089   20.2992 C   0  0  0  0  0  0  0  0  0  0  0  0
   74.4264  114.4250   19.5159 C   0  0  0  0  0  0  0  0  0  0  0  0
   75.8676  114.0436   19.1475 C   0  0  0  0  0  0  0  0  0  0  0  0
   77.0198  114.9719   19.5588 C   0  0  0  0  0  0  0  0  0  0  0  0
   77.6175  117.9462   21.2166 H   0  0  0  0  0  0  0  0  0  0  0  0
   78.7304  116.8869   20.4770 H   0  0  0  0  0  0  0  0  0  0  0  0
   71.6166  115.4422   18.2981 C   0  0  0  0  0  0  0  0  0  0  0  0
   70.0679  115.5371   17.9263 C   0  0  0  0  0  0  0  0  0  0  0  0
   69.5400  116.9511   18.3267 C   0  0  0  0  0  0  0  0  0  0  0  0
   70.6565  117.7636   19.0149 C   0  0  0  0  0  0  0  0  0  0  0  0
   69.2860  114.4620   18.7154 C   0  0  0  0  0  0  0  0  0  0  0  0
   68.3735  115.1421   19.7820 C   0  0  0  0  0  0  0  0  0  0  0  0
   72.2052  111.8009   15.6418 C   0  0  0  0  0  0  0  0  0  0  0  0
   71.2878  111.0466   14.7716 N   0  0  0  0  0  0  0  0  0  0  0  0
   70.2645  110.1080   15.3337 C   0  0  0  0  0  0  0  0  0  0  0  0
   70.2750  109.7546   16.4649 O   0  0  0  0  0  0  0  0  0  0  0  0
   71.3484  111.1620   13.7957 H   0  0  0  0  0  0  0  0  0  0  0  0
   69.2727  109.6618   14.4136 O   0  0  0  0  0  0  0  0  0  0  0  0
   67.9613  109.1681   14.9743 C   0  0  0  0  0  0  0  0  0  0  0  0
   67.0318  109.6189   14.2391 C   0  0  0  0  0  0  0  0  0  0  0  0
   67.1108  108.6797   12.8991 O   0  0  0  0  0  0  0  0  0  0  0  0
   67.4081  107.4928   13.3189 C   0  0  0  0  0  0  0  0  0  0  0  0
   68.6584  106.8985   12.5585 O   0  0  0  0  0  0  0  0  0  0  0  0
   69.6795  106.9794   13.3802 C   0  0  0  0  0  0  0  0  0  0  0  0
   69.0418  106.9846   14.8789 C   0  0  0  0  0  0  0  0  0  0  0  0
   67.8534  107.6237   14.7832 C   0  0  0  0  0  0  0  0  0  0  0  0
   73.6015  111.5085   15.1446 C   0  0  0  0  0  0  0  0  0  0  0  0
   73.7731  109.1724   16.4242 C   0  0  0  0  0  0  0  0  0  0  0  0
   73.9520  107.6393   16.3985 C   0  0  0  0  0  0  0  0  0  0  0  0
   74.1425  106.8988   15.0473 C   0  0  0  0  0  0  0  0  0  0  0  0
   74.1513  107.6931   13.7338 C   0  0  0  0  0  0  0  0  0  0  0  0
   73.9745  109.2235   13.7589 C   0  0  0  0  0  0  0  0  0  0  0  0
   73.7882  109.9656   15.1103 C   0  0  0  0  0  0  0  0  0  0  0  0
  9 10  1  0  0  0
 10 11  2  0  0  0
 10 15  1  0  0  0
 11 12  1  0  0  0
 12 13  2  0  0  0
 13 14  1  0  0  0
 13  6  1  0  0  0
 14 15  2  0  0  0
  6  7  2  0  0  0
  6  8  2  0  0  0
  6  5  1  0  0  0
  5 18  1  0  0  0
  5  4  1  0  0  0
 18 19  1  0  0  0
 19 20  1  0  0  0
 19 22  1  0  0  0
 20 21  1  0  0  0
 22 23  1  0  0  0
  4  1  1  0  0  0
  1  2  1  0  0  0
  1 24  1  0  0  0
 24 25  1  0  0  0
 24 38  1  0  0  0
 25 26  1  0  0  0
 26 27  2  0  0  0
 26 29  1  0  0  0
 29 30  1  0  0  0
 30 31  1  0  0  0
 30 37  1  0  0  0
 31 32  1  0  0  0
 32 33  1  0  0  0
 33 34  1  0  0  0
 33 37  1  0  0  0
 34 35  1  0  0  0
 35 36  1  0  0  0
 36 37  1  0  0  0
 38 44  1  0  0  0
 39 40  2  0  0  0
 39 44  1  0  0  0
 40 41  1  0  0  0
 41 42  2  0  0  0
 42 43  1  0  0  0
 43 44  2  0  0  0
  9 16  1  0  0  0
  9 17  1  0  0  0
  2  3  1  0  0  0
 25 28  1  0  0  0
M  END
> <minimizedAffinity>
-8.76187

$$$$
6DH8_A60_A_105


 44 47  0  0  0  0  0  0  0  0999 V2000
   72.4722  112.1471   18.1570 C   0  0  0  0  0  0  0  0  0  0  0  0
   72.6528  111.7344   19.4609 O   0  0  0  0  0  0  0  0  0  0  0  0
   72.8654  110.7880   19.4740 H   0  0  0  0  0  0  0  0  0  0  0  0
   71.2927  111.3452   17.5086 C   0  0  0  0  0  0  0  0  0  0  0  0
   70.3014  112.2982   16.9129 N   0  0  0  0  0  0  0  0  0  0  0  0
   69.9369  112.0522   15.2610 S   0  0  0  0  0  0  0  0  0  0  0  0
   71.0021  112.5246   14.3856 O   0  0  0  0  0  0  0  0  0  0  0  0
   68.7521  112.8105   14.8986 O   0  0  0  0  0  0  0  0  0  0  0  0
   68.9794  105.8325   14.7047 N   0  0  0  0  0  0  0  0  0  0  0  0
   69.2013  107.2472   14.8311 C   0  0  0  0  0  0  0  0  0  0  0  0
   68.0921  108.1488   15.4339 C   0  0  0  0  0  0  0  0  0  0  0  0
   68.3293  109.6459   15.5673 C   0  0  0  0  0  0  0  0  0  0  0  0
   69.6681  110.2443   15.1166 C   0  0  0  0  0  0  0  0  0  0  0  0
   70.7695  109.3581   14.5168 C   0  0  0  0  0  0  0  0  0  0  0  0
   70.5287  107.8475   14.3810 C   0  0  0  0  0  0  0  0  0  0  0  0
   68.1238  105.4407   14.9941 H   0  0  0  0  0  0  0  0  0  0  0  0
   69.6830  105.2555   14.3288 H   0  0  0  0  0  0  0  0  0  0  0  0
   69.1572  112.6996   17.7353 C   0  0  0  0  0  0  0  0  0  0  0  0
   69.3282  114.1933   18.2694 C   0  0  0  0  0  0  0  0  0  0  0  0
   70.2052  114.9932   17.2547 C   0  0  0  0  0  0  0  0  0  0  0  0
   69.6224  116.4057   17.0415 C   0  0  0  0  0  0  0  0  0  0  0  0
   70.0382  114.1671   19.6423 C   0  0  0  0  0  0  0  0  0  0  0  0
   69.4070  115.2336   20.5892 C   0  0  0  0  0  0  0  0  0  0  0  0
   73.7541  111.9099   17.3595 C   0  0  0  0  0  0  0  0  0  0  0  0
   74.7569  112.8884   17.8120 N   0  0  0  0  0  0  0  0  0  0  0  0
   74.6640  114.3373   17.4428 C   0  0  0  0  0  0  0  0  0  0  0  0
   73.9255  114.7372   16.6066 O   0  0  0  0  0  0  0  0  0  0  0  0
   75.5074  112.5829   18.3711 H   0  0  0  0  0  0  0  0  0  0  0  0
   75.5289  115.2093   18.1646 O   0  0  0  0  0  0  0  0  0  0  0  0
   75.8910  114.8309   19.5801 C   0  0  0  0  0  0  0  0  0  0  0  0
   77.1310  115.0469   19.7333 C   0  0  0  0  0  0  0  0  0  0  0  0
   77.2240  116.6770   19.8688 O   0  0  0  0  0  0  0  0  0  0  0  0
   76.1759  117.0345   20.5373 C   0  0  0  0  0  0  0  0  0  0  0  0
   75.3671  118.1704   19.7955 O   0  0  0  0  0  0  0  0  0  0  0  0
   74.3084  117.6022   19.2658 C   0  0  0  0  0  0  0  0  0  0  0  0
   74.0189  116.2778   20.1685 C   0  0  0  0  0  0  0  0  0  0  0  0
   75.2266  115.8275   20.5793 C   0  0  0  0  0  0  0  0  0  0  0  0
   74.3439  110.5436   17.6199 C   0  0  0  0  0  0  0  0  0  0  0  0
   74.1313  108.2219   16.3204 C   0  0  0  0  0  0  0  0  0  0  0  0
   74.0989  107.4220   15.0005 C   0  0  0  0  0  0  0  0  0  0  0  0
   74.2507  108.1549   13.6403 C   0  0  0  0  0  0  0  0  0  0  0  0
   74.4317  109.6789   13.6081 C   0  0  0  0  0  0  0  0  0  0  0  0
   74.4657  110.4777   14.9252 C   0  0  0  0  0  0  0  0  0  0  0  0
   74.3183  109.7450   16.2865 C   0  0  0  0  0  0  0  0  0  0  0  0
  9 10  1  0  0  0
 10 11  2  0  0  0
 10 15  1  0  0  0
 11 12  1  0  0  0
 12 13  2  0  0  0
 13 14  1  0  0  0
 13  6  1  0  0  0
 14 15  2  0  0  0
  6  7  2  0  0  0
  6  8  2  0  0  0
  6  5  1  0  0  0
  5 18  1  0  0  0
  5  4  1  0  0  0
 18 19  1  0  0  0
 19 20  1  0  0  0
 19 22  1  0  0  0
 20 21  1  0  0  0
 22 23  1  0  0  0
  4  1  1  0  0  0
  1  2  1  0  0  0
  1 24  1  0  0  0
 24 25  1  0  0  0
 24 38  1  0  0  0
 25 26  1  0  0  0
 26 27  2  0  0  0
 26 29  1  0  0  0
 29 30  1  0  0  0
 30 31  1  0  0  0
 30 37  1  0  0  0
 31 32  1  0  0  0
 32 33  1  0  0  0
 33 34  1  0  0  0
 33 37  1  0  0  0
 34 35  1  0  0  0
 35 36  1  0  0  0
 36 37  1  0  0  0
 38 44  1  0  0  0
 39 40  2  0  0  0
 39 44  1  0  0  0
 40 41  1  0  0  0
 41 42  2  0  0  0
 42 43  1  0  0  0
 43 44  2  0  0  0
  9 16  1  0  0  0
  9 17  1  0  0  0
  2  3  1  0  0  0
 25 28  1  0  0  0
M  END
> <minimizedAffinity>
-8.73612

$$$$
6DH8_A60_A_105


 44 47  0  0  0  0  0  0  0  0999 V2000
   70.1891  113.5350   18.1261 C   0  0  0  0  0  0  0  0  0  0  0  0
   69.1590  114.1727   18.7859 O   0  0  0  0  0  0  0  0  0  0  0  0
   68.6588  114.7154   18.1566 H   0  0  0  0  0  0  0  0  0  0  0  0
   71.1464  114.5995   17.4894 C   0  0  0  0  0  0  0  0  0  0  0  0
   72.2965  114.8614   18.4136 N   0  0  0  0  0  0  0  0  0  0  0  0
   73.6891  113.9047   18.1538 S   0  0  0  0  0  0  0  0  0  0  0  0
   73.9718  113.7168   16.7364 O   0  0  0  0  0  0  0  0  0  0  0  0
   73.4845  112.5756   18.7031 O   0  0  0  0  0  0  0  0  0  0  0  0
   78.2754  117.0704   21.1295 N   0  0  0  0  0  0  0  0  0  0  0  0
   77.2314  116.3476   20.4556 C   0  0  0  0  0  0  0  0  0  0  0  0
   77.1119  116.4307   18.9112 C   0  0  0  0  0  0  0  0  0  0  0  0
   76.0064  115.6643   18.1997 C   0  0  0  0  0  0  0  0  0  0  0  0
   75.0313  114.8074   19.0172 C   0  0  0  0  0  0  0  0  0  0  0  0
   75.1422  114.7224   20.5465 C   0  0  0  0  0  0  0  0  0  0  0  0
   76.2571  115.4975   21.2638 C   0  0  0  0  0  0  0  0  0  0  0  0
   78.9066  117.6205   20.6117 H   0  0  0  0  0  0  0  0  0  0  0  0
   78.3591  117.0153   22.1089 H   0  0  0  0  0  0  0  0  0  0  0  0
   72.5738  116.2511   18.7858 C   0  0  0  0  0  0  0  0  0  0  0  0
   72.0569  116.5656   20.2621 C   0  0  0  0  0  0  0  0  0  0  0  0
   70.5382  116.9229   20.1981 C   0  0  0  0  0  0  0  0  0  0  0  0
   70.2952  118.0415   19.1636 C   0  0  0  0  0  0  0  0  0  0  0  0
   72.8379  117.7723   20.8310 C   0  0  0  0  0  0  0  0  0  0  0  0
   73.8939  118.2612   19.7924 C   0  0  0  0  0  0  0  0  0  0  0  0
   69.6197  112.6354   17.0297 C   0  0  0  0  0  0  0  0  0  0  0  0
   70.6476  111.6406   16.6806 N   0  0  0  0  0  0  0  0  0  0  0  0
   71.4543  111.7518   15.4232 C   0  0  0  0  0  0  0  0  0  0  0  0
   71.1731  112.4998   14.5480 O   0  0  0  0  0  0  0  0  0  0  0  0
   70.8087  110.8834   17.2887 H   0  0  0  0  0  0  0  0  0  0  0  0
   72.5875  110.8921   15.3453 O   0  0  0  0  0  0  0  0  0  0  0  0
   72.3893  109.4322   15.6729 C   0  0  0  0  0  0  0  0  0  0  0  0
   72.3420  108.7930   14.5789 C   0  0  0  0  0  0  0  0  0  0  0  0
   73.9065  108.7402   14.0958 O   0  0  0  0  0  0  0  0  0  0  0  0
   74.6031  108.5925   15.1757 C   0  0  0  0  0  0  0  0  0  0  0  0
   75.7458  109.6770   15.2889 O   0  0  0  0  0  0  0  0  0  0  0  0
   75.3490  110.5591   16.1770 C   0  0  0  0  0  0  0  0  0  0  0  0
   74.3025  109.7717   17.1455 C   0  0  0  0  0  0  0  0  0  0  0  0
   73.6689  108.8678   16.3637 C   0  0  0  0  0  0  0  0  0  0  0  0
   68.4141  111.8558   17.4998 C   0  0  0  0  0  0  0  0  0  0  0  0
   68.8334  109.2742   16.9670 C   0  0  0  0  0  0  0  0  0  0  0  0
   68.6572  108.0496   16.0438 C   0  0  0  0  0  0  0  0  0  0  0  0
   67.8750  108.1849   14.7095 C   0  0  0  0  0  0  0  0  0  0  0  0
   67.2741  109.5393   14.3085 C   0  0  0  0  0  0  0  0  0  0  0  0
   67.4511  110.7623   15.2288 C   0  0  0  0  0  0  0  0  0  0  0  0
   68.2370  110.6291   16.5616 C   0  0  0  0  0  0  0  0  0  0  0  0
  9 10  1  0  0  0
 10 11  2  0  0  0
 10 15  1  0  0  0
 11 12  1  0  0  0
 12 13  2  0  0  0
 13 14  1  0  0  0
 13  6  1  0  0  0
 14 15  2  0  0  0
  6  7  2  0  0  0
  6  8  2  0  0  0
  6  5  1  0  0  0
  5 18  1  0  0  0
  5  4  1  0  0  0
 18 19  1  0  0  0
 19 20  1  0  0  0
 19 22  1  0  0  0
 20 21  1  0  0  0
 22 23  1  0  0  0
  4  1  1  0  0  0
  1  2  1  0  0  0
  1 24  1  0  0  0
 24 25  1  0  0  0
 24 38  1  0  0  0
 25 26  1  0  0  0
 26 27  2  0  0  0
 26 29  1  0  0  0
 29 30  1  0  0  0
 30 31  1  0  0  0
 30 37  1  0  0  0
 31 32  1  0  0  0
 32 33  1  0  0  0
 33 34  1  0  0  0
 33 37  1  0  0  0
 34 35  1  0  0  0
 35 36  1  0  0  0
 36 37  1  0  0  0
 38 44  1  0  0  0
 39 40  2  0  0  0
 39 44  1  0  0  0
 40 41  1  0  0  0
 41 42  2  0  0  0
 42 43  1  0  0  0
 43 44  2  0  0  0
  9 16  1  0  0  0
  9 17  1  0  0  0
  2  3  1  0  0  0
 25 28  1  0  0  0
M  END
> <minimizedAffinity>
-8.71147

$$$$
6DH8_A60_A_105


 44 47  0  0  0  0  0  0  0  0999 V2000
   72.2156  112.6457   19.0626 C   0  0  0  0  0  0  0  0  0  0  0  0
   71.9551  111.8418   20.1530 O   0  0  0  0  0  0  0  0  0  0  0  0
   71.5508  112.3728   20.8570 H   0  0  0  0  0  0  0  0  0  0  0  0
   73.2022  113.7907   19.4754 C   0  0  0  0  0  0  0  0  0  0  0  0
   74.5183  113.5964   18.7856 N   0  0  0  0  0  0  0  0  0  0  0  0
   74.4735  113.6392   17.0773 S   0  0  0  0  0  0  0  0  0  0  0  0
   75.7305  114.1042   16.5047 O   0  0  0  0  0  0  0  0  0  0  0  0
   73.4575  114.5778   16.6334 O   0  0  0  0  0  0  0  0  0  0  0  0
   73.1688  107.7065   15.3420 N   0  0  0  0  0  0  0  0  0  0  0  0
   73.4668  109.0551   15.7406 C   0  0  0  0  0  0  0  0  0  0  0  0
   72.8342  110.2427   14.9686 C   0  0  0  0  0  0  0  0  0  0  0  0
   73.1506  111.6695   15.3924 C   0  0  0  0  0  0  0  0  0  0  0  0
   74.0807  111.9167   16.5871 C   0  0  0  0  0  0  0  0  0  0  0  0
   74.7123  110.7459   17.3544 C   0  0  0  0  0  0  0  0  0  0  0  0
   74.3938  109.3063   16.9249 C   0  0  0  0  0  0  0  0  0  0  0  0
   72.5708  107.5397   14.5780 H   0  0  0  0  0  0  0  0  0  0  0  0
   73.5628  106.9496   15.8332 H   0  0  0  0  0  0  0  0  0  0  0  0
   75.7022  114.2232   19.3791 C   0  0  0  0  0  0  0  0  0  0  0  0
   75.3087  115.5321   20.2022 C   0  0  0  0  0  0  0  0  0  0  0  0
   75.2915  116.7527   19.2284 C   0  0  0  0  0  0  0  0  0  0  0  0
   73.8912  117.4003   19.2074 C   0  0  0  0  0  0  0  0  0  0  0  0
   76.3634  115.7786   21.3052 C   0  0  0  0  0  0  0  0  0  0  0  0
   77.4771  116.7327   20.7740 C   0  0  0  0  0  0  0  0  0  0  0  0
   70.9113  113.2528   18.5470 C   0  0  0  0  0  0  0  0  0  0  0  0
   70.1663  112.1954   17.8435 N   0  0  0  0  0  0  0  0  0  0  0  0
   69.8458  112.2977   16.3837 C   0  0  0  0  0  0  0  0  0  0  0  0
   69.9723  113.3043   15.7711 O   0  0  0  0  0  0  0  0  0  0  0  0
   69.8715  111.4012   18.3450 H   0  0  0  0  0  0  0  0  0  0  0  0
   69.3727  111.0994   15.7758 O   0  0  0  0  0  0  0  0  0  0  0  0
   68.3643  110.2731   16.5361 C   0  0  0  0  0  0  0  0  0  0  0  0
   67.2149  110.7553   16.3041 C   0  0  0  0  0  0  0  0  0  0  0  0
   66.8803  110.2398   14.7854 O   0  0  0  0  0  0  0  0  0  0  0  0
   67.3699  109.0453   14.7039 C   0  0  0  0  0  0  0  0  0  0  0  0
   68.3133  108.8831   13.4476 O   0  0  0  0  0  0  0  0  0  0  0  0
   69.5486  108.8966   13.8929 C   0  0  0  0  0  0  0  0  0  0  0  0
   69.4665  108.3946   15.4402 C   0  0  0  0  0  0  0  0  0  0  0  0
   68.2840  108.8415   15.9216 C   0  0  0  0  0  0  0  0  0  0  0  0
   70.0194  113.7276   19.6701 C   0  0  0  0  0  0  0  0  0  0  0  0
   69.8884  116.1164   20.8536 C   0  0  0  0  0  0  0  0  0  0  0  0
   69.7761  117.6534   20.7633 C   0  0  0  0  0  0  0  0  0  0  0  0
   69.6797  118.3484   19.3784 C   0  0  0  0  0  0  0  0  0  0  0  0
   69.6977  117.5050   18.0959 C   0  0  0  0  0  0  0  0  0  0  0  0
   69.8080  115.9708   18.1854 C   0  0  0  0  0  0  0  0  0  0  0  0
   69.9002  115.2743   19.5704 C   0  0  0  0  0  0  0  0  0  0  0  0
  9 10  1  0  0  0
 10 11  2  0  0  0
 10 15  1  0  0  0
 11 12  1  0  0  0
 12 13  2  0  0  0
 13 14  1  0  0  0
 13  6  1  0  0  0
 14 15  2  0  0  0
  6  7  2  0  0  0
  6  8  2  0  0  0
  6  5  1  0  0  0
  5 18  1  0  0  0
  5  4  1  0  0  0
 18 19  1  0  0  0
 19 20  1  0  0  0
 19 22  1  0  0  0
 20 21  1  0  0  0
 22 23  1  0  0  0
  4  1  1  0  0  0
  1  2  1  0  0  0
  1 24  1  0  0  0
 24 25  1  0  0  0
 24 38  1  0  0  0
 25 26  1  0  0  0
 26 27  2  0  0  0
 26 29  1  0  0  0
 29 30  1  0  0  0
 30 31  1  0  0  0
 30 37  1  0  0  0
 31 32  1  0  0  0
 32 33  1  0  0  0
 33 34  1  0  0  0
 33 37  1  0  0  0
 34 35  1  0  0  0
 35 36  1  0  0  0
 36 37  1  0  0  0
 38 44  1  0  0  0
 39 40  2  0  0  0
 39 44  1  0  0  0
 40 41  1  0  0  0
 41 42  2  0  0  0
 42 43  1  0  0  0
 43 44  2  0  0  0
  9 16  1  0  0  0
  9 17  1  0  0  0
  2  3  1  0  0  0
 25 28  1  0  0  0
M  END
> <minimizedAffinity>
-8.62845

$$$$
6DH8_A60_A_105


 44 47  0  0  0  0  0  0  0  0999 V2000
   72.2901  112.1391   18.4086 C   0  0  0  0  0  0  0  0  0  0  0  0
   72.3263  111.7744   19.7386 O   0  0  0  0  0  0  0  0  0  0  0  0
   72.7531  110.9076   19.8246 H   0  0  0  0  0  0  0  0  0  0  0  0
   71.4730  111.0795   17.5934 C   0  0  0  0  0  0  0  0  0  0  0  0
   70.1136  111.6247   17.2765 N   0  0  0  0  0  0  0  0  0  0  0  0
   70.0882  113.0564   16.3429 S   0  0  0  0  0  0  0  0  0  0  0  0
   69.0320  113.0405   15.3386 O   0  0  0  0  0  0  0  0  0  0  0  0
   71.3363  113.1917   15.6122 O   0  0  0  0  0  0  0  0  0  0  0  0
   69.2379  117.6848   20.5579 N   0  0  0  0  0  0  0  0  0  0  0  0
   69.4323  116.6291   19.6018 C   0  0  0  0  0  0  0  0  0  0  0  0
   69.7003  116.9784   18.1143 C   0  0  0  0  0  0  0  0  0  0  0  0
   69.9063  115.8593   17.1039 C   0  0  0  0  0  0  0  0  0  0  0  0
   69.8603  114.3988   17.5709 C   0  0  0  0  0  0  0  0  0  0  0  0
   69.5931  114.0456   19.0414 C   0  0  0  0  0  0  0  0  0  0  0  0
   69.3836  115.1756   20.0600 C   0  0  0  0  0  0  0  0  0  0  0  0
   69.2685  118.6247   20.2664 H   0  0  0  0  0  0  0  0  0  0  0  0
   69.0741  117.4680   21.5041 H   0  0  0  0  0  0  0  0  0  0  0  0
   69.0501  110.6696   16.9549 C   0  0  0  0  0  0  0  0  0  0  0  0
   69.6391  109.3739   16.2338 C   0  0  0  0  0  0  0  0  0  0  0  0
   70.1085  109.7671   14.7973 C   0  0  0  0  0  0  0  0  0  0  0  0
   70.8098  108.5723   14.1181 C   0  0  0  0  0  0  0  0  0  0  0  0
   68.5323  108.2997   16.1290 C   0  0  0  0  0  0  0  0  0  0  0  0
   67.3806  108.8091   15.2089 C   0  0  0  0  0  0  0  0  0  0  0  0
   73.7135  112.2239   17.8588 C   0  0  0  0  0  0  0  0  0  0  0  0
   74.4620  113.1854   18.6853 N   0  0  0  0  0  0  0  0  0  0  0  0
   74.3856  114.6610   18.4384 C   0  0  0  0  0  0  0  0  0  0  0  0
   73.9095  115.1202   17.4550 O   0  0  0  0  0  0  0  0  0  0  0  0
   75.0268  112.8502   19.4186 H   0  0  0  0  0  0  0  0  0  0  0  0
   74.9287  115.4825   19.4677 O   0  0  0  0  0  0  0  0  0  0  0  0
   76.1349  114.9703   20.2164 C   0  0  0  0  0  0  0  0  0  0  0  0
   77.0120  114.6445   19.3607 C   0  0  0  0  0  0  0  0  0  0  0  0
   77.6114  116.0835   18.8568 O   0  0  0  0  0  0  0  0  0  0  0  0
   77.6390  116.8396   19.9059 C   0  0  0  0  0  0  0  0  0  0  0  0
   76.9117  118.2188   19.6535 O   0  0  0  0  0  0  0  0  0  0  0  0
   75.7477  118.1534   20.2577 C   0  0  0  0  0  0  0  0  0  0  0  0
   75.9303  117.0618   21.4526 C   0  0  0  0  0  0  0  0  0  0  0  0
   76.8098  116.1417   20.9946 C   0  0  0  0  0  0  0  0  0  0  0  0
   74.4466  110.9074   17.9670 C   0  0  0  0  0  0  0  0  0  0  0  0
   74.3126  108.7109   16.4564 C   0  0  0  0  0  0  0  0  0  0  0  0
   74.3021  108.0371   15.0675 C   0  0  0  0  0  0  0  0  0  0  0  0
   74.4185  108.8991   13.7815 C   0  0  0  0  0  0  0  0  0  0  0  0
   74.5426  110.4251   13.8916 C   0  0  0  0  0  0  0  0  0  0  0  0
   74.5548  111.0981   15.2776 C   0  0  0  0  0  0  0  0  0  0  0  0
   74.4428  110.2364   16.5647 C   0  0  0  0  0  0  0  0  0  0  0  0
  9 10  1  0  0  0
 10 11  2  0  0  0
 10 15  1  0  0  0
 11 12  1  0  0  0
 12 13  2  0  0  0
 13 14  1  0  0  0
 13  6  1  0  0  0
 14 15  2  0  0  0
  6  7  2  0  0  0
  6  8  2  0  0  0
  6  5  1  0  0  0
  5 18  1  0  0  0
  5  4  1  0  0  0
 18 19  1  0  0  0
 19 20  1  0  0  0
 19 22  1  0  0  0
 20 21  1  0  0  0
 22 23  1  0  0  0
  4  1  1  0  0  0
  1  2  1  0  0  0
  1 24  1  0  0  0
 24 25  1  0  0  0
 24 38  1  0  0  0
 25 26  1  0  0  0
 26 27  2  0  0  0
 26 29  1  0  0  0
 29 30  1  0  0  0
 30 31  1  0  0  0
 30 37  1  0  0  0
 31 32  1  0  0  0
 32 33  1  0  0  0
 33 34  1  0  0  0
 33 37  1  0  0  0
 34 35  1  0  0  0
 35 36  1  0  0  0
 36 37  1  0  0  0
 38 44  1  0  0  0
 39 40  2  0  0  0
 39 44  1  0  0  0
 40 41  1  0  0  0
 41 42  2  0  0  0
 42 43  1  0  0  0
 43 44  2  0  0  0
  9 16  1  0  0  0
  9 17  1  0  0  0
  2  3  1  0  0  0
 25 28  1  0  0  0
M  END
> <minimizedAffinity>
-8.60999

$$$$
