6DH8_A60_A_105
  RCSB PDB01051901473D
Coordinates from PDB:6DH8:A:105 Model:1 without hydrogens
 40 43  0  0  0  0            999 V2000
   66.0040  107.8010   13.1210   N 0  0  0  0  0  0  0  0  0  0  0  0
   66.8780  108.5350   13.9950   C 0  0  0  0  0  0  0  0  0  0  0  0
   66.6470  110.0530   14.2160   C 0  0  0  0  0  0  0  0  0  0  0  0
   67.5730  110.8280   15.1420   C 0  0  0  0  0  0  0  0  0  0  0  0
   68.7160  110.0960   15.8570   C 0  0  0  0  0  0  0  0  0  0  0  0
   68.9520  108.5940   15.6410   C 0  0  0  0  0  0  0  0  0  0  0  0
   68.0180  107.8130   14.7050   C 0  0  0  0  0  0  0  0  0  0  0  0
   69.8400  111.0420   16.9540   S 0  0  0  0  0  0  0  0  0  0  0  0
   69.2200  112.2580   17.4650   O 0  0  0  0  0  0  0  0  0  0  0  0
   70.2390  110.2730   18.1200   O 0  0  0  0  0  0  0  0  0  0  0  0
   71.2060  111.3730   15.9810   N 0  0  0  0  0  0  0  0  0  0  0  0
   71.9300  110.1840   15.5240   C 0  0  0  0  0  0  0  0  0  0  0  0
   73.5060  110.4330   15.5280   C 0  0  0  0  0  0  0  0  0  0  0  0
   74.2240  109.1200   15.0820   C 0  0  0  0  0  0  0  0  0  0  0  0
   73.9620  110.7990   16.9590   C 0  0  0  0  0  0  0  0  0  0  0  0
   71.0600  112.5160   15.0230   C 0  0  0  0  0  0  0  0  0  0  0  0
   72.0190  113.6820   15.4420   C 0  0  0  0  0  0  0  0  0  0  0  0
   75.4340  111.3140   16.9340   C 0  0  0  0  0  0  0  0  0  0  0  0
   71.9610  114.6910   14.5030   O 0  0  0  0  0  0  0  0  0  0  0  0
   71.6010  114.2250   16.8080   C 0  0  0  0  0  0  0  0  0  0  0  0
   74.0460  108.9020   13.5650   C 0  0  0  0  0  0  0  0  0  0  0  0
   72.6280  115.1840   17.2480   N 0  0  0  0  0  0  0  0  0  0  0  0
   73.6600  114.8170   18.2700   C 0  0  0  0  0  0  0  0  0  0  0  0
   73.5830  113.8370   18.9320   O 0  0  0  0  0  0  0  0  0  0  0  0
   74.7460  115.7300   18.3980   O 0  0  0  0  0  0  0  0  0  0  0  0
   75.5990  115.6420   19.6400   C 0  0  0  0  0  0  0  0  0  0  0  0
   76.7780  115.9860   19.3250   C 0  0  0  0  0  0  0  0  0  0  0  0
   76.6810  117.6160   19.1920   O 0  0  0  0  0  0  0  0  0  0  0  0
   75.8690  117.9970   20.1240   C 0  0  0  0  0  0  0  0  0  0  0  0
   74.7120  118.9100   19.5560   O 0  0  0  0  0  0  0  0  0  0  0  0
   73.6290  118.1690   19.5080   C 0  0  0  0  0  0  0  0  0  0  0  0
   73.8380  117.0070   20.6300   C 0  0  0  0  0  0  0  0  0  0  0  0
   75.1640  116.7410   20.6580   C 0  0  0  0  0  0  0  0  0  0  0  0
   70.3010  114.9920   16.7440   C 0  0  0  0  0  0  0  0  0  0  0  0
   69.7240  114.7420   19.3380   C 0  0  0  0  0  0  0  0  0  0  0  0
   69.4820  115.3750   20.7250   C 0  0  0  0  0  0  0  0  0  0  0  0
   69.5750  116.9140   20.9070   C 0  0  0  0  0  0  0  0  0  0  0  0
   69.9100  117.8080   19.7050   C 0  0  0  0  0  0  0  0  0  0  0  0
   70.1500  117.1770   18.3200   C 0  0  0  0  0  0  0  0  0  0  0  0
   70.0530  115.6380   18.1360   C 0  0  0  0  0  0  0  0  0  0  0  0
  1  2  1  0  0  0  0
  2  3  2  0  0  0  0
  2  7  1  0  0  0  0
  3  4  1  0  0  0  0
  4  5  2  0  0  0  0
  5  6  1  0  0  0  0
  5  8  1  0  0  0  0
  6  7  2  0  0  0  0
  8  9  2  0  0  0  0
  8 10  2  0  0  0  0
  8 11  1  0  0  0  0
 11 12  1  0  0  0  0
 11 16  1  0  0  0  0
 12 13  1  0  0  0  0
 13 14  1  0  0  0  0
 13 15  1  0  0  0  0
 14 21  1  0  0  0  0
 15 18  1  0  0  0  0
 16 17  1  0  0  0  0
 17 19  1  0  0  0  0
 17 20  1  0  0  0  0
 20 22  1  0  0  0  0
 20 34  1  0  0  0  0
 22 23  1  0  0  0  0
 23 24  2  0  0  0  0
 23 25  1  0  0  0  0
 25 26  1  0  0  0  0
 26 27  1  0  0  0  0
 26 33  1  0  0  0  0
 27 28  1  0  0  0  0
 28 29  1  0  0  0  0
 29 30  1  0  0  0  0
 29 33  1  0  0  0  0
 30 31  1  0  0  0  0
 31 32  1  0  0  0  0
 32 33  1  0  0  0  0
 34 40  1  0  0  0  0
 35 36  2  0  0  0  0
 35 40  1  0  0  0  0
 36 37  1  0  0  0  0
 37 38  2  0  0  0  0
 38 39  1  0  0  0  0
 39 40  2  0  0  0  0
A    1
N1
A    2
C2
A    3
C3
A    4
C4
A    5
C5
A    6
C6
A    7
C7
A    8
S8
A    9
O9
A   10
O10
A   11
N11
A   12
C12
A   13
C13
A   14
C14
A   15
C15
A   16
C16
A   17
C17
A   18
C18
A   19
O18
A   20
C19
A   21
C20
A   22
N20
A   23
C21
A   24
O22
A   25
O23
A   26
C24
A   27
C25
A   28
O26
A   29
C27
A   30
O28
A   31
C29
A   32
C30
A   33
C31
A   34
C32
A   35
C33
A   36
C34
A   37
C35
A   38
C36
A   39
C37
A   40
C38
M  END
>  <InstanceId>
6DH8_A60_A_105

>  <ChemCompId>
A60

>  <PdbId>
6DH8

>  <ChainId>
A

>  <ResidueNumber>
105

>  <InsertionCode>


>  <Model>
1

>  <AltIds>


>  <MissingHeavyAtoms>
0

>  <ObservedFormula>
C29 N3 O7 S

>  <Name>
(3R,3aS,6aR)-hexahydrofuro[2,3-b]furan-3-yl [(1S,2R)-3-{[(4-aminophenyl)sulfonyl](2-ethylbutyl)amino}-1-benzyl-2-hydroxypropyl]carbamate

>  <SystematicName>
[(3R,3aS,6aR)-2,3,3a,4,5,6a-hexahydrofuro[2,3-b]furan-3-yl] N-[(2S,3R)-4-[(4-aminophenyl)sulfonyl-(2-ethylbutyl)amino]-3-hydroxy-1-phenyl-butan-2-yl]carbamate

>  <Synonyms>


>  <Type>
NON-POLYMER

>  <Formula>
C29 H41 N3 O7 S

>  <MolecularWeight>
575.717

>  <ModifiedDate>
2011-08-05

>  <Parent>


>  <OneLetterCode>


>  <SubcomponentList>


>  <AmbiguousFlag>
N

>  <InChI>
InChI=1S/C29H41N3O7S/c1-3-20(4-2)17-32(40(35,36)23-12-10-22(30)11-13-23)18-26(33)25(16-21-8-6-5-7-9-21)31-29(34)39-27-19-38-28-24(27)14-15-37-28/h5-13,20,24-28,33H,3-4,14-19,30H2,1-2H3,(H,31,34)/t24-,25-,26+,27-,28+/m0/s1

>  <InChIKey>
GEBDYIIQOXRGOM-AJIIGFCHSA-N

>  <SMILES>
CCC(CC)C[N@@](C[C@H]([C@H](Cc1ccccc1)NC(=O)O[C@H]2CO[C@@H]3[C@H]2CCO3)O)S(=O)(=O)c4ccc(cc4)N

$$$$
