3G34_1CE_A_1


 21 24  0  0  0  0  0  0  0  0999 V2000
   -3.4871   54.4070   12.9978 O   0  0  0  0  0  0  0  0  0  0  0  0
   -4.3225   53.4900   12.8202 C   0  0  0  0  0  0  0  0  0  0  0  0
   -5.6046   53.6019   13.2215 N   0  0  0  0  0  0  0  0  0  0  0  0
   -3.9081   52.2326   12.1560 C   0  0  0  0  0  0  0  0  0  0  0  0
   -2.6135   51.7314   11.5800 C   0  0  0  0  0  0  0  0  0  0  0  0
   -1.2819   52.4421   11.5341 C   0  0  0  0  0  0  0  0  0  0  0  0
   -0.4148   51.7525   10.4719 C   0  0  0  0  0  0  0  0  0  0  0  0
   -0.3596   50.2214   10.6026 C   0  0  0  0  0  0  0  0  0  0  0  0
   -1.7005   49.5190   10.3586 C   0  0  0  0  0  0  0  0  0  0  0  0
   -2.7611   50.3613   11.0137 C   0  0  0  0  0  0  0  0  0  0  0  0
   -4.4262   49.7213   11.1732 S   0  0  0  0  0  0  0  0  0  0  0  0
   -4.9699   51.2090   11.9852 C   0  0  0  0  0  0  0  0  0  0  0  0
   -6.2254   51.4446   12.4293 N   0  0  0  0  0  0  0  0  0  0  0  0
   -6.5086   52.6178   13.0254 C   0  0  0  0  0  0  0  0  0  0  0  0
   -6.0554   54.8308   13.8719 C   0  0  0  0  0  0  0  0  0  0  0  0
   -7.1930   55.3512   13.0299 C   0  0  0  0  0  0  0  0  0  0  0  0
   -8.4555   55.5770   13.4698 N   0  0  0  0  0  0  0  0  0  0  0  0
   -7.1152   55.6519   11.7160 N   0  0  0  0  0  0  0  0  0  0  0  0
   -8.3752   56.0954   11.2900 N   0  0  0  0  0  0  0  0  0  0  0  0
   -9.2231   56.0499   12.3983 N   0  0  0  0  0  0  0  0  0  0  0  0
   -6.3113   55.5731   11.1532 H   0  0  0  0  0  0  0  0  0  0  0  0
  1  2  2  0  0  0
  2  3  1  0  0  0
  2  4  1  0  0  0
  3 15  1  0  0  0
  3 14  1  0  0  0
 15 16  1  0  0  0
 16 17  2  0  0  0
 16 18  1  0  0  0
 17 20  1  0  0  0
 18 19  1  0  0  0
 19 20  2  0  0  0
  4  5  1  0  0  0
  4 12  2  0  0  0
  5  6  1  0  0  0
  5 10  2  0  0  0
  6  7  1  0  0  0
  7  8  1  0  0  0
  8  9  1  0  0  0
  9 10  1  0  0  0
 10 11  1  0  0  0
 11 12  1  0  0  0
 12 13  1  0  0  0
 13 14  2  0  0  0
 18 21  1  0  0  0
M  END
> <minimizedAffinity>
-7.68917

$$$$
3G34_1CE_A_1


 21 24  0  0  0  0  0  0  0  0999 V2000
   -6.2071   52.9808   10.7580 O   0  0  0  0  0  0  0  0  0  0  0  0
   -6.9638   53.8884   11.1751 C   0  0  0  0  0  0  0  0  0  0  0  0
   -7.1634   54.1060   12.4905 N   0  0  0  0  0  0  0  0  0  0  0  0
   -7.6760   54.7573   10.2098 C   0  0  0  0  0  0  0  0  0  0  0  0
   -7.7210   54.8367    8.7096 C   0  0  0  0  0  0  0  0  0  0  0  0
   -6.9923   53.9678    7.7124 C   0  0  0  0  0  0  0  0  0  0  0  0
   -6.9825   54.7019    6.3646 C   0  0  0  0  0  0  0  0  0  0  0  0
   -8.3592   55.2269    5.9247 C   0  0  0  0  0  0  0  0  0  0  0  0
   -8.9341   56.3237    6.8288 C   0  0  0  0  0  0  0  0  0  0  0  0
   -8.6199   55.9310    8.2468 C   0  0  0  0  0  0  0  0  0  0  0  0
   -9.3694   56.8316    9.6013 S   0  0  0  0  0  0  0  0  0  0  0  0
   -8.5438   55.8073   10.8002 C   0  0  0  0  0  0  0  0  0  0  0  0
   -8.6571   55.9266   12.1426 N   0  0  0  0  0  0  0  0  0  0  0  0
   -7.9731   55.0877   12.9428 C   0  0  0  0  0  0  0  0  0  0  0  0
   -6.4712   53.2766   13.4751 C   0  0  0  0  0  0  0  0  0  0  0  0
   -5.0045   53.5929   13.3248 C   0  0  0  0  0  0  0  0  0  0  0  0
   -3.9929   52.6977   13.4404 N   0  0  0  0  0  0  0  0  0  0  0  0
   -4.4941   54.8161   13.0674 N   0  0  0  0  0  0  0  0  0  0  0  0
   -3.0975   54.7072   13.0080 N   0  0  0  0  0  0  0  0  0  0  0  0
   -2.7795   53.3680   13.2423 N   0  0  0  0  0  0  0  0  0  0  0  0
   -5.0136   55.6430   12.9427 H   0  0  0  0  0  0  0  0  0  0  0  0
  1  2  2  0  0  0
  2  3  1  0  0  0
  2  4  1  0  0  0
  3 15  1  0  0  0
  3 14  1  0  0  0
 15 16  1  0  0  0
 16 17  2  0  0  0
 16 18  1  0  0  0
 17 20  1  0  0  0
 18 19  1  0  0  0
 19 20  2  0  0  0
  4  5  1  0  0  0
  4 12  2  0  0  0
  5  6  1  0  0  0
  5 10  2  0  0  0
  6  7  1  0  0  0
  7  8  1  0  0  0
  8  9  1  0  0  0
  9 10  1  0  0  0
 10 11  1  0  0  0
 11 12  1  0  0  0
 12 13  1  0  0  0
 13 14  2  0  0  0
 18 21  1  0  0  0
M  END
> <minimizedAffinity>
-7.38738

$$$$
3G34_1CE_A_1


 21 24  0  0  0  0  0  0  0  0999 V2000
   -6.9666   51.9003   12.0218 O   0  0  0  0  0  0  0  0  0  0  0  0
   -7.0764   53.1232   12.2721 C   0  0  0  0  0  0  0  0  0  0  0  0
   -6.3095   53.7367   13.1957 N   0  0  0  0  0  0  0  0  0  0  0  0
   -8.0783   53.9380   11.5465 C   0  0  0  0  0  0  0  0  0  0  0  0
   -9.0920   53.6409   10.4775 C   0  0  0  0  0  0  0  0  0  0  0  0
   -9.3804   52.3146    9.8155 C   0  0  0  0  0  0  0  0  0  0  0  0
  -10.1359   52.5932    8.5089 C   0  0  0  0  0  0  0  0  0  0  0  0
  -11.3334   53.5450    8.6658 C   0  0  0  0  0  0  0  0  0  0  0  0
  -10.9541   54.9740    9.0720 C   0  0  0  0  0  0  0  0  0  0  0  0
   -9.8556   54.8613   10.0937 C   0  0  0  0  0  0  0  0  0  0  0  0
   -9.3395   56.3158   11.0024 S   0  0  0  0  0  0  0  0  0  0  0  0
   -8.1283   55.3771   11.9080 C   0  0  0  0  0  0  0  0  0  0  0  0
   -7.2984   55.8747   12.8529 N   0  0  0  0  0  0  0  0  0  0  0  0
   -6.4213   55.0558   13.4627 C   0  0  0  0  0  0  0  0  0  0  0  0
   -5.3024   52.9696   13.9263 C   0  0  0  0  0  0  0  0  0  0  0  0
   -4.0514   53.0234   13.0861 C   0  0  0  0  0  0  0  0  0  0  0  0
   -3.0873   53.9727   13.1740 N   0  0  0  0  0  0  0  0  0  0  0  0
   -3.7243   52.1399   12.1189 N   0  0  0  0  0  0  0  0  0  0  0  0
   -2.4974   52.5292   11.5631 N   0  0  0  0  0  0  0  0  0  0  0  0
   -2.0929   53.6871   12.2303 N   0  0  0  0  0  0  0  0  0  0  0  0
   -4.2563   51.3564   11.8500 H   0  0  0  0  0  0  0  0  0  0  0  0
  1  2  2  0  0  0
  2  3  1  0  0  0
  2  4  1  0  0  0
  3 15  1  0  0  0
  3 14  1  0  0  0
 15 16  1  0  0  0
 16 17  2  0  0  0
 16 18  1  0  0  0
 17 20  1  0  0  0
 18 19  1  0  0  0
 19 20  2  0  0  0
  4  5  1  0  0  0
  4 12  2  0  0  0
  5  6  1  0  0  0
  5 10  2  0  0  0
  6  7  1  0  0  0
  7  8  1  0  0  0
  8  9  1  0  0  0
  9 10  1  0  0  0
 10 11  1  0  0  0
 11 12  1  0  0  0
 12 13  1  0  0  0
 13 14  2  0  0  0
 18 21  1  0  0  0
M  END
> <minimizedAffinity>
-7.07794

$$$$
3G34_1CE_A_1


 21 24  0  0  0  0  0  0  0  0999 V2000
   -6.3215   51.0744   11.9866 O   0  0  0  0  0  0  0  0  0  0  0  0
   -5.6240   52.0382   12.3800 C   0  0  0  0  0  0  0  0  0  0  0  0
   -6.1676   53.1218   12.9697 N   0  0  0  0  0  0  0  0  0  0  0  0
   -4.1545   52.0095   12.1956 C   0  0  0  0  0  0  0  0  0  0  0  0
   -3.1940   51.0173   11.6028 C   0  0  0  0  0  0  0  0  0  0  0  0
   -3.5102   49.6784   10.9798 C   0  0  0  0  0  0  0  0  0  0  0  0
   -2.2155   48.8548   10.9479 C   0  0  0  0  0  0  0  0  0  0  0  0
   -1.0076   49.6047   10.3619 C   0  0  0  0  0  0  0  0  0  0  0  0
   -0.5464   50.8061   11.1954 C   0  0  0  0  0  0  0  0  0  0  0  0
   -1.7877   51.5027   11.6828 C   0  0  0  0  0  0  0  0  0  0  0  0
   -1.6523   53.1080   12.4652 S   0  0  0  0  0  0  0  0  0  0  0  0
   -3.4146   53.1938   12.6999 C   0  0  0  0  0  0  0  0  0  0  0  0
   -4.0783   54.2197   13.2795 N   0  0  0  0  0  0  0  0  0  0  0  0
   -5.4176   54.1589   13.4005 C   0  0  0  0  0  0  0  0  0  0  0  0
   -7.6129   53.1841   13.1788 C   0  0  0  0  0  0  0  0  0  0  0  0
   -8.0774   54.4401   12.4857 C   0  0  0  0  0  0  0  0  0  0  0  0
   -8.7620   55.4528   13.0724 N   0  0  0  0  0  0  0  0  0  0  0  0
   -7.8876   54.7245   11.1796 N   0  0  0  0  0  0  0  0  0  0  0  0
   -8.4667   55.9730   10.9116 N   0  0  0  0  0  0  0  0  0  0  0  0
   -9.0186   56.4351   12.1080 N   0  0  0  0  0  0  0  0  0  0  0  0
   -7.4222   54.1530   10.5269 H   0  0  0  0  0  0  0  0  0  0  0  0
  1  2  2  0  0  0
  2  3  1  0  0  0
  2  4  1  0  0  0
  3 15  1  0  0  0
  3 14  1  0  0  0
 15 16  1  0  0  0
 16 17  2  0  0  0
 16 18  1  0  0  0
 17 20  1  0  0  0
 18 19  1  0  0  0
 19 20  2  0  0  0
  4  5  1  0  0  0
  4 12  2  0  0  0
  5  6  1  0  0  0
  5 10  2  0  0  0
  6  7  1  0  0  0
  7  8  1  0  0  0
  8  9  1  0  0  0
  9 10  1  0  0  0
 10 11  1  0  0  0
 11 12  1  0  0  0
 12 13  1  0  0  0
 13 14  2  0  0  0
 18 21  1  0  0  0
M  END
> <minimizedAffinity>
-7.04446

$$$$
3G34_1CE_A_1


 21 24  0  0  0  0  0  0  0  0999 V2000
   -3.1261   52.2555   13.3309 O   0  0  0  0  0  0  0  0  0  0  0  0
   -3.8771   51.4957   12.6759 C   0  0  0  0  0  0  0  0  0  0  0  0
   -3.4975   50.2549   12.3102 N   0  0  0  0  0  0  0  0  0  0  0  0
   -5.2263   51.9574   12.2752 C   0  0  0  0  0  0  0  0  0  0  0  0
   -6.0001   53.2294   12.4801 C   0  0  0  0  0  0  0  0  0  0  0  0
   -5.5574   54.4779   13.2053 C   0  0  0  0  0  0  0  0  0  0  0  0
   -6.8107   55.2957   13.5461 C   0  0  0  0  0  0  0  0  0  0  0  0
   -7.7660   55.5060   12.3595 C   0  0  0  0  0  0  0  0  0  0  0  0
   -8.4139   54.2188   11.8359 C   0  0  0  0  0  0  0  0  0  0  0  0
   -7.3506   53.1546   11.8553 C   0  0  0  0  0  0  0  0  0  0  0  0
   -7.6592   51.5805   11.0588 S   0  0  0  0  0  0  0  0  0  0  0  0
   -6.0435   50.9839   11.5079 C   0  0  0  0  0  0  0  0  0  0  0  0
   -5.5480   49.7622   11.2060 N   0  0  0  0  0  0  0  0  0  0  0  0
   -4.3073   49.4316   11.6100 C   0  0  0  0  0  0  0  0  0  0  0  0
   -2.1776   49.7584   12.6947 C   0  0  0  0  0  0  0  0  0  0  0  0
   -1.2325   50.2138   11.6115 C   0  0  0  0  0  0  0  0  0  0  0  0
   -0.9195   49.5094   10.4961 N   0  0  0  0  0  0  0  0  0  0  0  0
   -0.5556   51.3820   11.6091 N   0  0  0  0  0  0  0  0  0  0  0  0
    0.2214   51.4387   10.4435 N   0  0  0  0  0  0  0  0  0  0  0  0
   -0.0089   50.2559    9.7382 N   0  0  0  0  0  0  0  0  0  0  0  0
   -0.6001   52.0754   12.3066 H   0  0  0  0  0  0  0  0  0  0  0  0
  1  2  2  0  0  0
  2  3  1  0  0  0
  2  4  1  0  0  0
  3 15  1  0  0  0
  3 14  1  0  0  0
 15 16  1  0  0  0
 16 17  2  0  0  0
 16 18  1  0  0  0
 17 20  1  0  0  0
 18 19  1  0  0  0
 19 20  2  0  0  0
  4  5  1  0  0  0
  4 12  2  0  0  0
  5  6  1  0  0  0
  5 10  2  0  0  0
  6  7  1  0  0  0
  7  8  1  0  0  0
  8  9  1  0  0  0
  9 10  1  0  0  0
 10 11  1  0  0  0
 11 12  1  0  0  0
 12 13  1  0  0  0
 13 14  2  0  0  0
 18 21  1  0  0  0
M  END
> <minimizedAffinity>
-6.91724

$$$$
3G34_1CE_A_1


 21 24  0  0  0  0  0  0  0  0999 V2000
   -3.8088   50.2416   11.4797 O   0  0  0  0  0  0  0  0  0  0  0  0
   -4.0410   51.3666   11.9803 C   0  0  0  0  0  0  0  0  0  0  0  0
   -3.0606   52.1408   12.4873 N   0  0  0  0  0  0  0  0  0  0  0  0
   -5.4299   51.8788   12.0326 C   0  0  0  0  0  0  0  0  0  0  0  0
   -6.7607   51.3399   11.5887 C   0  0  0  0  0  0  0  0  0  0  0  0
   -7.0500   50.0155   10.9232 C   0  0  0  0  0  0  0  0  0  0  0  0
   -8.4304   50.1120   10.2593 C   0  0  0  0  0  0  0  0  0  0  0  0
   -9.5334   50.6615   11.1791 C   0  0  0  0  0  0  0  0  0  0  0  0
   -9.3317   52.1211   11.6032 C   0  0  0  0  0  0  0  0  0  0  0  0
   -7.8643   52.2957   11.8858 C   0  0  0  0  0  0  0  0  0  0  0  0
   -7.2866   53.7995   12.6683 S   0  0  0  0  0  0  0  0  0  0  0  0
   -5.6027   53.2234   12.6379 C   0  0  0  0  0  0  0  0  0  0  0  0
   -4.5334   53.9046   13.1088 N   0  0  0  0  0  0  0  0  0  0  0  0
   -3.3072   53.3564   13.0215 C   0  0  0  0  0  0  0  0  0  0  0  0
   -1.6756   51.6755   12.4458 C   0  0  0  0  0  0  0  0  0  0  0  0
   -1.1467   52.0712   11.0902 C   0  0  0  0  0  0  0  0  0  0  0  0
   -0.5796   53.2649   10.7870 N   0  0  0  0  0  0  0  0  0  0  0  0
   -1.1770   51.2954    9.9856 N   0  0  0  0  0  0  0  0  0  0  0  0
   -0.6015   52.0127    8.9274 N   0  0  0  0  0  0  0  0  0  0  0  0
   -0.2221   53.2576    9.4331 N   0  0  0  0  0  0  0  0  0  0  0  0
   -1.5409   50.3822    9.9324 H   0  0  0  0  0  0  0  0  0  0  0  0
  1  2  2  0  0  0
  2  3  1  0  0  0
  2  4  1  0  0  0
  3 15  1  0  0  0
  3 14  1  0  0  0
 15 16  1  0  0  0
 16 17  2  0  0  0
 16 18  1  0  0  0
 17 20  1  0  0  0
 18 19  1  0  0  0
 19 20  2  0  0  0
  4  5  1  0  0  0
  4 12  2  0  0  0
  5  6  1  0  0  0
  5 10  2  0  0  0
  6  7  1  0  0  0
  7  8  1  0  0  0
  8  9  1  0  0  0
  9 10  1  0  0  0
 10 11  1  0  0  0
 11 12  1  0  0  0
 12 13  1  0  0  0
 13 14  2  0  0  0
 18 21  1  0  0  0
M  END
> <minimizedAffinity>
-6.85668

$$$$
3G34_1CE_A_1


 21 24  0  0  0  0  0  0  0  0999 V2000
   -4.0816   52.1508   13.0018 O   0  0  0  0  0  0  0  0  0  0  0  0
   -4.1647   51.0974   12.3283 C   0  0  0  0  0  0  0  0  0  0  0  0
   -3.1125   50.2720   12.1575 N   0  0  0  0  0  0  0  0  0  0  0  0
   -5.4481   50.7315   11.6857 C   0  0  0  0  0  0  0  0  0  0  0  0
   -6.8108   51.3634   11.6368 C   0  0  0  0  0  0  0  0  0  0  0  0
   -7.2588   52.6534   12.2816 C   0  0  0  0  0  0  0  0  0  0  0  0
   -8.7924   52.6425   12.3442 C   0  0  0  0  0  0  0  0  0  0  0  0
   -9.4732   52.2797   11.0140 C   0  0  0  0  0  0  0  0  0  0  0  0
   -9.2090   50.8452   10.5412 C   0  0  0  0  0  0  0  0  0  0  0  0
   -7.7628   50.5484   10.8311 C   0  0  0  0  0  0  0  0  0  0  0  0
   -7.0150   49.0611   10.1708 S   0  0  0  0  0  0  0  0  0  0  0  0
   -5.4487   49.4627   10.9148 C   0  0  0  0  0  0  0  0  0  0  0  0
   -4.3237   48.7178   10.8218 N   0  0  0  0  0  0  0  0  0  0  0  0
   -3.2010   49.1328   11.4376 C   0  0  0  0  0  0  0  0  0  0  0  0
   -1.8312   50.5926   12.7836 C   0  0  0  0  0  0  0  0  0  0  0  0
   -1.0825   51.4380   11.7843 C   0  0  0  0  0  0  0  0  0  0  0  0
   -0.1511   50.9811   10.9114 N   0  0  0  0  0  0  0  0  0  0  0  0
   -1.2263   52.7716   11.6296 N   0  0  0  0  0  0  0  0  0  0  0  0
   -0.3584   53.1934   10.6125 N   0  0  0  0  0  0  0  0  0  0  0  0
    0.3210   52.0620   10.1566 N   0  0  0  0  0  0  0  0  0  0  0  0
   -1.8363   53.3490   12.1432 H   0  0  0  0  0  0  0  0  0  0  0  0
  1  2  2  0  0  0
  2  3  1  0  0  0
  2  4  1  0  0  0
  3 15  1  0  0  0
  3 14  1  0  0  0
 15 16  1  0  0  0
 16 17  2  0  0  0
 16 18  1  0  0  0
 17 20  1  0  0  0
 18 19  1  0  0  0
 19 20  2  0  0  0
  4  5  1  0  0  0
  4 12  2  0  0  0
  5  6  1  0  0  0
  5 10  2  0  0  0
  6  7  1  0  0  0
  7  8  1  0  0  0
  8  9  1  0  0  0
  9 10  1  0  0  0
 10 11  1  0  0  0
 11 12  1  0  0  0
 12 13  1  0  0  0
 13 14  2  0  0  0
 18 21  1  0  0  0
M  END
> <minimizedAffinity>
-6.60824

$$$$
3G34_1CE_A_1


 21 24  0  0  0  0  0  0  0  0999 V2000
   -5.7325   54.2042   13.1484 O   0  0  0  0  0  0  0  0  0  0  0  0
   -6.0463   53.2397   12.4125 C   0  0  0  0  0  0  0  0  0  0  0  0
   -5.4161   52.0500   12.4839 N   0  0  0  0  0  0  0  0  0  0  0  0
   -7.1369   53.3914   11.4217 C   0  0  0  0  0  0  0  0  0  0  0  0
   -8.0558   54.5185   11.0423 C   0  0  0  0  0  0  0  0  0  0  0  0
   -8.1014   55.9128   11.6204 C   0  0  0  0  0  0  0  0  0  0  0  0
   -9.4602   56.5292   11.2605 C   0  0  0  0  0  0  0  0  0  0  0  0
   -9.8350   56.4008    9.7747 C   0  0  0  0  0  0  0  0  0  0  0  0
  -10.0555   54.9589    9.3024 C   0  0  0  0  0  0  0  0  0  0  0  0
   -8.9944   54.1170    9.9571 C   0  0  0  0  0  0  0  0  0  0  0  0
   -8.7630   52.4200    9.4337 S   0  0  0  0  0  0  0  0  0  0  0  0
   -7.4392   52.1915   10.6013 C   0  0  0  0  0  0  0  0  0  0  0  0
   -6.7343   51.0501   10.7725 N   0  0  0  0  0  0  0  0  0  0  0  0
   -5.7566   51.0068   11.6967 C   0  0  0  0  0  0  0  0  0  0  0  0
   -4.3412   51.8568   13.4554 C   0  0  0  0  0  0  0  0  0  0  0  0
   -3.0647   52.2140   12.7365 C   0  0  0  0  0  0  0  0  0  0  0  0
   -2.1608   51.3259   12.2542 N   0  0  0  0  0  0  0  0  0  0  0  0
   -2.6377   53.4699   12.4851 N   0  0  0  0  0  0  0  0  0  0  0  0
   -1.4124   53.3917   11.8082 N   0  0  0  0  0  0  0  0  0  0  0  0
   -1.1105   52.0365   11.6604 N   0  0  0  0  0  0  0  0  0  0  0  0
   -3.1066   54.2989   12.7344 H   0  0  0  0  0  0  0  0  0  0  0  0
  1  2  2  0  0  0
  2  3  1  0  0  0
  2  4  1  0  0  0
  3 15  1  0  0  0
  3 14  1  0  0  0
 15 16  1  0  0  0
 16 17  2  0  0  0
 16 18  1  0  0  0
 17 20  1  0  0  0
 18 19  1  0  0  0
 19 20  2  0  0  0
  4  5  1  0  0  0
  4 12  2  0  0  0
  5  6  1  0  0  0
  5 10  2  0  0  0
  6  7  1  0  0  0
  7  8  1  0  0  0
  8  9  1  0  0  0
  9 10  1  0  0  0
 10 11  1  0  0  0
 11 12  1  0  0  0
 12 13  1  0  0  0
 13 14  2  0  0  0
 18 21  1  0  0  0
M  END
> <minimizedAffinity>
-6.56513

$$$$
3G34_1CE_A_1


 21 24  0  0  0  0  0  0  0  0999 V2000
   -5.4489   52.2112   10.3079 O   0  0  0  0  0  0  0  0  0  0  0  0
   -5.9424   52.8515   11.2654 C   0  0  0  0  0  0  0  0  0  0  0  0
   -5.6415   52.5663   12.5482 N   0  0  0  0  0  0  0  0  0  0  0  0
   -6.8932   53.9564   11.0024 C   0  0  0  0  0  0  0  0  0  0  0  0
   -7.4680   54.5670    9.7552 C   0  0  0  0  0  0  0  0  0  0  0  0
   -7.2061   54.1695    8.3221 C   0  0  0  0  0  0  0  0  0  0  0  0
   -7.6311   55.3382    7.4225 C   0  0  0  0  0  0  0  0  0  0  0  0
   -9.0352   55.8868    7.7260 C   0  0  0  0  0  0  0  0  0  0  0  0
   -9.1719   56.5408    9.1061 C   0  0  0  0  0  0  0  0  0  0  0  0
   -8.3970   55.6876   10.0732 C   0  0  0  0  0  0  0  0  0  0  0  0
   -8.5479   55.9844   11.8329 S   0  0  0  0  0  0  0  0  0  0  0  0
   -7.4183   54.6589   12.2004 C   0  0  0  0  0  0  0  0  0  0  0  0
   -7.0340   54.2786   13.4400 N   0  0  0  0  0  0  0  0  0  0  0  0
   -6.1668   53.2590   13.5817 C   0  0  0  0  0  0  0  0  0  0  0  0
   -4.6998   51.4896   12.8492 C   0  0  0  0  0  0  0  0  0  0  0  0
   -3.3260   52.1051   12.7615 C   0  0  0  0  0  0  0  0  0  0  0  0
   -2.2789   51.5918   12.0697 N   0  0  0  0  0  0  0  0  0  0  0  0
   -2.9438   53.2471   13.3720 N   0  0  0  0  0  0  0  0  0  0  0  0
   -1.5984   53.4857   13.0581 N   0  0  0  0  0  0  0  0  0  0  0  0
   -1.1772   52.4406   12.2336 N   0  0  0  0  0  0  0  0  0  0  0  0
   -3.5127   53.8151   13.9403 H   0  0  0  0  0  0  0  0  0  0  0  0
  1  2  2  0  0  0
  2  3  1  0  0  0
  2  4  1  0  0  0
  3 15  1  0  0  0
  3 14  1  0  0  0
 15 16  1  0  0  0
 16 17  2  0  0  0
 16 18  1  0  0  0
 17 20  1  0  0  0
 18 19  1  0  0  0
 19 20  2  0  0  0
  4  5  1  0  0  0
  4 12  2  0  0  0
  5  6  1  0  0  0
  5 10  2  0  0  0
  6  7  1  0  0  0
  7  8  1  0  0  0
  8  9  1  0  0  0
  9 10  1  0  0  0
 10 11  1  0  0  0
 11 12  1  0  0  0
 12 13  1  0  0  0
 13 14  2  0  0  0
 18 21  1  0  0  0
M  END
> <minimizedAffinity>
-6.48045

$$$$
3G34_1CE_A_1


 21 24  0  0  0  0  0  0  0  0999 V2000
   -5.5023   54.5781   13.0559 O   0  0  0  0  0  0  0  0  0  0  0  0
   -6.3101   53.7831   12.5216 C   0  0  0  0  0  0  0  0  0  0  0  0
   -7.5928   54.1204   12.2801 N   0  0  0  0  0  0  0  0  0  0  0  0
   -5.8644   52.4228   12.1408 C   0  0  0  0  0  0  0  0  0  0  0  0
   -4.5590   51.6844   12.2381 C   0  0  0  0  0  0  0  0  0  0  0  0
   -3.2519   52.1822   12.8074 C   0  0  0  0  0  0  0  0  0  0  0  0
   -2.1309   51.2775   12.2777 C   0  0  0  0  0  0  0  0  0  0  0  0
   -2.4086   49.7735   12.4373 C   0  0  0  0  0  0  0  0  0  0  0  0
   -3.5903   49.2589   11.6068 C   0  0  0  0  0  0  0  0  0  0  0  0
   -4.6682   50.3056   11.6843 C   0  0  0  0  0  0  0  0  0  0  0  0
   -6.3059   49.9374   11.0598 S   0  0  0  0  0  0  0  0  0  0  0  0
   -6.8917   51.5572   11.5086 C   0  0  0  0  0  0  0  0  0  0  0  0
   -8.1492   52.0162   11.3160 N   0  0  0  0  0  0  0  0  0  0  0  0
   -8.4639   53.2679   11.6984 C   0  0  0  0  0  0  0  0  0  0  0  0
   -8.0690   55.4568   12.6321 C   0  0  0  0  0  0  0  0  0  0  0  0
   -8.6439   56.0381   11.3650 C   0  0  0  0  0  0  0  0  0  0  0  0
   -8.1031   55.9124   10.1281 N   0  0  0  0  0  0  0  0  0  0  0  0
   -9.7714   56.7770   11.2888 N   0  0  0  0  0  0  0  0  0  0  0  0
   -9.9715   57.1387    9.9491 N   0  0  0  0  0  0  0  0  0  0  0  0
   -8.9181   56.5915    9.2140 N   0  0  0  0  0  0  0  0  0  0  0  0
  -10.3534   57.0203   12.0447 H   0  0  0  0  0  0  0  0  0  0  0  0
  1  2  2  0  0  0
  2  3  1  0  0  0
  2  4  1  0  0  0
  3 15  1  0  0  0
  3 14  1  0  0  0
 15 16  1  0  0  0
 16 17  2  0  0  0
 16 18  1  0  0  0
 17 20  1  0  0  0
 18 19  1  0  0  0
 19 20  2  0  0  0
  4  5  1  0  0  0
  4 12  2  0  0  0
  5  6  1  0  0  0
  5 10  2  0  0  0
  6  7  1  0  0  0
  7  8  1  0  0  0
  8  9  1  0  0  0
  9 10  1  0  0  0
 10 11  1  0  0  0
 11 12  1  0  0  0
 12 13  1  0  0  0
 13 14  2  0  0  0
 18 21  1  0  0  0
M  END
> <minimizedAffinity>
-6.06523

$$$$
