3G34_1CE_A_1
  RCSB PDB12061708413D
Coordinates from PDB:3G34:A:1 Model:1 without hydrogens
 20 23  0  0  0  0            999 V2000
   -3.9850   50.8840   10.0800   O 0  0  0  0  0  0  0  0  0  0  0  0
   -4.8740   51.6630   10.4960   C 0  0  0  0  0  0  0  0  0  0  0  0
   -5.0820   51.8750   11.8110   N 0  0  0  0  0  0  0  0  0  0  0  0
   -4.2430   51.1950   12.7960   C 0  0  0  0  0  0  0  0  0  0  0  0
   -2.9730   52.0030   12.8860   C 0  0  0  0  0  0  0  0  0  0  0  0
   -2.9080   53.3450   13.0680   N 0  0  0  0  0  0  0  0  0  0  0  0
   -1.7230   51.5030   12.7840   N 0  0  0  0  0  0  0  0  0  0  0  0
   -0.8130   52.5620   12.9110   N 0  0  0  0  0  0  0  0  0  0  0  0
   -1.5610   53.7270   13.0920   N 0  0  0  0  0  0  0  0  0  0  0  0
   -5.7390   52.3790    9.5300   C 0  0  0  0  0  0  0  0  0  0  0  0
   -5.8250   52.4150    8.0300   C 0  0  0  0  0  0  0  0  0  0  0  0
   -4.9810   51.6560    7.0340   C 0  0  0  0  0  0  0  0  0  0  0  0
   -5.1190   52.3500    5.6720   C 0  0  0  0  0  0  0  0  0  0  0  0
   -6.5720   52.6290    5.2530   C 0  0  0  0  0  0  0  0  0  0  0  0
   -7.3040   53.6360    6.1480   C 0  0  0  0  0  0  0  0  0  0  0  0
   -6.9020   53.3340    7.5660   C 0  0  0  0  0  0  0  0  0  0  0  0
   -7.7650   54.1290    8.9190   S 0  0  0  0  0  0  0  0  0  0  0  0
   -6.7580   53.2840   10.1190   C 0  0  0  0  0  0  0  0  0  0  0  0
   -6.8640   53.4140   11.4610   N 0  0  0  0  0  0  0  0  0  0  0  0
   -6.0350   52.7190   12.2620   C 0  0  0  0  0  0  0  0  0  0  0  0
  1  2  2  0  0  0  0
  2  3  1  0  0  0  0
  2 10  1  0  0  0  0
  3  4  1  0  0  0  0
  3 20  1  0  0  0  0
  4  5  1  0  0  0  0
  5  6  2  0  0  0  0
  5  7  1  0  0  0  0
  6  9  1  0  0  0  0
  7  8  1  0  0  0  0
  8  9  2  0  0  0  0
 10 11  1  0  0  0  0
 10 18  2  0  0  0  0
 11 12  1  0  0  0  0
 11 16  2  0  0  0  0
 12 13  1  0  0  0  0
 13 14  1  0  0  0  0
 14 15  1  0  0  0  0
 15 16  1  0  0  0  0
 16 17  1  0  0  0  0
 17 18  1  0  0  0  0
 18 19  1  0  0  0  0
 19 20  2  0  0  0  0
A    1
O20
A    2
C12
A    3
N7
A    4
C6
A    5
C3
A    6
N2
A    7
N4
A    8
N5
A    9
N1
A   10
C11
A   11
C13
A   12
C16
A   13
C17
A   14
C18
A   15
C19
A   16
C14
A   17
S15
A   18
C10
A   19
N9
A   20
C8
M  END
>  <InstanceId>
3G34_1CE_A_1

>  <ChemCompId>
1CE

>  <PdbId>
3G34

>  <ChainId>
A

>  <ResidueNumber>
1

>  <InsertionCode>


>  <Model>
1

>  <AltIds>


>  <MissingHeavyAtoms>
0

>  <ObservedFormula>
C12 N6 O S

>  <Name>
3-(1H-tetrazol-5-ylmethyl)-5,6,7,8-tetrahydro[1]benzothieno[2,3-d]pyrimidin-4(3H)-one

>  <SystematicName>
3-(1H-1,2,3,4-tetrazol-5-ylmethyl)-5,6,7,8-tetrahydro-[1]benzothiolo[3,2-e]pyrimidin-4-one

>  <Synonyms>


>  <Type>
NON-POLYMER

>  <Formula>
C12 H12 N6 O S

>  <MolecularWeight>
288.328

>  <ModifiedDate>
2011-06-04

>  <Parent>


>  <OneLetterCode>


>  <SubcomponentList>


>  <AmbiguousFlag>
N

>  <InChI>
InChI=1S/C12H12N6OS/c19-12-10-7-3-1-2-4-8(7)20-11(10)13-6-18(12)5-9-14-16-17-15-9/h6H,1-5H2,(H,14,15,16,17)

>  <InChIKey>
QSBQXAOOVSQABJ-UHFFFAOYSA-N

>  <SMILES>
C1CCc2c(c3c(s2)N=CN(C3=O)Cc4[nH]nnn4)C1

$$$$
