4DQ2_BTX_A_500
  RCSB PDB12061712143D
Coordinates from PDB:4DQ2:A:500 Model:1 without hydrogens
 37 41  0  0  0  0            999 V2000
   53.2020   18.0870   17.6130   P 0  0  0  0  0  0  0  0  0  0  0  0
   52.9700   18.7140   16.3100   O 0  0  0  0  0  0  0  0  0  0  0  0
   54.2500   17.0150   17.8030   O 0  0  0  0  0  0  0  0  0  0  0  0
   54.0190   19.0330   18.5860   O 0  0  0  0  0  0  0  0  0  0  0  0
   53.7860   20.3090   18.9060   C 0  0  0  0  0  0  0  0  0  0  0  0
   54.9740   21.2160   18.8090   C 0  0  0  0  0  0  0  0  0  0  0  0
   54.2460   22.4780   19.0250   O 0  0  0  0  0  0  0  0  0  0  0  0
   56.0600   21.2070   19.8240   C 0  0  0  0  0  0  0  0  0  0  0  0
   57.3170   20.7970   19.3340   O 0  0  0  0  0  0  0  0  0  0  0  0
   56.2580   22.7010   20.0690   C 0  0  0  0  0  0  0  0  0  0  0  0
   56.8320   23.3090   18.9220   O 0  0  0  0  0  0  0  0  0  0  0  0
   54.8930   23.3350   19.9460   C 0  0  0  0  0  0  0  0  0  0  0  0
   54.0490   23.3010   21.1660   N 0  0  0  0  0  0  0  0  0  0  0  0
   54.2280   22.5970   22.2970   C 0  0  0  0  0  0  0  0  0  0  0  0
   53.2130   22.9260   23.1060   N 0  0  0  0  0  0  0  0  0  0  0  0
   52.3990   23.7970   22.4950   C 0  0  0  0  0  0  0  0  0  0  0  0
   51.1930   24.5120   22.8610   C 0  0  0  0  0  0  0  0  0  0  0  0
   50.5630   24.3720   24.0410   N 0  0  0  0  0  0  0  0  0  0  0  0
   50.6770   25.3630   21.9870   N 0  0  0  0  0  0  0  0  0  0  0  0
   51.2550   25.6680   20.7070   C 0  0  0  0  0  0  0  0  0  0  0  0
   52.4630   24.9630   20.4420   N 0  0  0  0  0  0  0  0  0  0  0  0
   52.9530   24.0510   21.2730   C 0  0  0  0  0  0  0  0  0  0  0  0
   50.4050   17.4520   18.1000   C 0  0  0  0  0  0  0  0  0  0  0  0
   51.8590   17.6360   18.3940   O 0  0  0  0  0  0  0  0  0  0  0  0
   49.9500   17.0980   19.2330   C 0  0  0  0  0  0  0  0  0  0  0  0
   49.5270   16.6980   20.3720   C 0  0  0  0  0  0  0  0  0  0  0  0
   48.3150   16.9360   21.1550   C 0  0  0  0  0  0  0  0  0  0  0  0
   48.6560   16.9320   22.6470   C 0  0  0  0  0  0  0  0  0  0  0  0
   47.4270   16.4520   23.3900   C 0  0  0  0  0  0  0  0  0  0  0  0
   47.2630   17.2930   24.9230   S 0  0  0  0  0  0  0  0  0  0  0  0
   46.1310   15.9910   25.2390   C 0  0  0  0  0  0  0  0  0  0  0  0
   46.8140   14.6830   24.8870   C 0  0  0  0  0  0  0  0  0  0  0  0
   47.8070   14.2410   25.8400   N 0  0  0  0  0  0  0  0  0  0  0  0
   49.0630   14.2890   25.3630   C 0  0  0  0  0  0  0  0  0  0  0  0
   50.1070   13.9320   26.0200   O 0  0  0  0  0  0  0  0  0  0  0  0
   49.0410   14.8460   24.1110   N 0  0  0  0  0  0  0  0  0  0  0  0
   47.6630   14.9790   23.6430   C 0  0  0  0  0  0  0  0  0  0  0  0
  1  2  2  0  0  0  0
  1  3  1  0  0  0  0
  1  4  1  0  0  0  0
  1 24  1  0  0  0  0
  4  5  1  0  0  0  0
  5  6  1  0  0  0  0
  6  7  1  0  0  0  0
  6  8  1  0  0  0  0
  7 12  1  0  0  0  0
  8  9  1  0  0  0  0
  8 10  1  0  0  0  0
 10 11  1  0  0  0  0
 10 12  1  0  0  0  0
 12 13  1  0  0  0  0
 13 14  1  0  0  0  0
 13 22  1  0  0  0  0
 14 15  2  0  0  0  0
 15 16  1  0  0  0  0
 16 17  1  0  0  0  0
 16 22  2  0  0  0  0
 17 18  1  0  0  0  0
 17 19  2  0  0  0  0
 19 20  1  0  0  0  0
 20 21  2  0  0  0  0
 21 22  1  0  0  0  0
 23 24  1  0  0  0  0
 23 25  1  0  0  0  0
 25 26  1  0  0  0  0
 26 27  1  0  0  0  0
 27 28  1  0  0  0  0
 28 29  1  0  0  0  0
 29 30  1  0  0  0  0
 29 37  1  0  0  0  0
 30 31  1  0  0  0  0
 31 32  1  0  0  0  0
 32 33  1  0  0  0  0
 32 37  1  0  0  0  0
 33 34  1  0  0  0  0
 34 35  2  0  0  0  0
 34 36  1  0  0  0  0
 36 37  1  0  0  0  0
A    1
P
A    2
O1P
A    3
O2P
A    4
O5'
A    5
C5'
A    6
C4'
A    7
O4'
A    8
C3'
A    9
O3'
A   10
C2'
A   11
O2'
A   12
C1'
A   13
N9
A   14
C8
A   15
N7
A   16
C5
A   17
C6
A   18
N6
A   19
N1
A   20
C2
A   21
N3
A   22
C4
A   23
CBB
A   24
OBB
A   25
CAB
A   26
C9B
A   27
C8B
A   28
C7B
A   29
C2B
A   30
S1B
A   31
C6B
A   32
C5B
A   33
N1B
A   34
C3B
A   35
O3B
A   36
N2B
A   37
C4B
M  END
>  <InstanceId>
4DQ2_BTX_A_500

>  <ChemCompId>
BTX

>  <PdbId>
4DQ2

>  <ChainId>
A

>  <ResidueNumber>
500

>  <InsertionCode>


>  <Model>
1

>  <AltIds>


>  <MissingHeavyAtoms>
0

>  <ObservedFormula>
C20 N7 O8 P S

>  <Name>
((2R,3S,4R,5R)-5-(6-AMINO-9H-PURIN-9-YL)-3,4-DIHYDROXY-TETRAHYDROFURAN-2-YL)METHYL 5-((3AS,4S,6AR)-2-OXO-HEXAHYDRO-1H-THIENO[3,4-D]IMIDAZOL-4-YL)PENTYL HYDROGEN PHOSPHATE

>  <SystematicName>
5-[(3aS,4S,6aR)-2-oxo-1,3,3a,4,6,6a-hexahydrothieno[3,4-d]imidazol-4-yl]pentyl [(2R,3S,4R,5R)-5-(6-aminopurin-9-yl)-3,4-dihydroxy-oxolan-2-yl]methyl hydrogen phosphate

>  <Synonyms>
BIOTINOL-5-AMP

>  <Type>
NON-POLYMER

>  <Formula>
C20 H30 N7 O8 P S

>  <MolecularWeight>
559.533

>  <ModifiedDate>
2011-06-04

>  <Parent>


>  <OneLetterCode>


>  <SubcomponentList>


>  <AmbiguousFlag>
N

>  <InChI>
InChI=1S/C20H30N7O8PS/c21-17-14-18(23-8-22-17)27(9-24-14)19-16(29)15(28)11(35-19)6-34-36(31,32)33-5-3-1-2-4-12-13-10(7-37-12)25-20(30)26-13/h8-13,15-16,19,28-29H,1-7H2,(H,31,32)(H2,21,22,23)(H2,25,26,30)/t10-,11+,12-,13-,15+,16+,19+/m0/s1

>  <InChIKey>
KBOGUFFJCBPJEH-SQGSUPJISA-N

>  <SMILES>
c1nc(c2c(n1)n(cn2)[C@H]3[C@@H]([C@@H]([C@H](O3)CO[P@](=O)(O)OCCCCC[C@H]4[C@@H]5[C@H](CS4)NC(=O)N5)O)O)N

$$$$
