4AB9_VXQ_A_1251


 13 14  0  0  0  0  0  0  0  0999 V2000
    0.8822  -11.4092   15.1720 C   0  0  0  0  0  0  0  0  0  0  0  0
    0.0831  -13.3244   13.7030 O   0  0  0  0  0  0  0  0  0  0  0  0
    1.6852  -14.4620   17.2835 C   0  0  0  0  0  0  0  0  0  0  0  0
    0.5925  -11.9758   13.7330 C   0  0  0  0  0  0  0  0  0  0  0  0
    0.6286  -13.7632   14.9033 C   0  0  0  0  0  0  0  0  0  0  0  0
    1.5080  -13.1551   16.9769 C   0  0  0  0  0  0  0  0  0  0  0  0
    1.2793  -15.4351   16.4163 C   0  0  0  0  0  0  0  0  0  0  0  0
    1.0202  -12.7814   15.7469 C   0  0  0  0  0  0  0  0  0  0  0  0
    0.7325  -15.1032   15.2072 C   0  0  0  0  0  0  0  0  0  0  0  0
    2.0896  -16.4098   18.5673 N   0  0  0  0  0  0  0  0  0  0  0  0
    2.1550  -14.9143   18.6230 C   0  0  0  0  0  0  0  0  0  0  0  0
    2.3995  -16.7971   19.4586 H   0  0  0  0  0  0  0  0  0  0  0  0
    2.6953  -16.7490   17.8201 H   0  0  0  0  0  0  0  0  0  0  0  0
 10 11  1  0  0  0
  1  4  1  0  0  0
  1  8  1  0  0  0
 11  3  1  0  0  0
  2  4  1  0  0  0
  2  5  1  0  0  0
  3  6  2  0  0  0
  3  7  1  0  0  0
  5  8  2  0  0  0
  5  9  1  0  0  0
  6  8  1  0  0  0
  7  9  2  0  0  0
 10 12  1  0  0  0
 10 13  1  0  0  0
M  END
> <minimizedAffinity>
-5.86217

$$$$
4AB9_VXQ_A_1251


 13 14  0  0  0  0  0  0  0  0999 V2000
    1.9562  -13.8541   17.8573 C   0  0  0  0  0  0  0  0  0  0  0  0
    1.8991  -15.8459   16.2780 O   0  0  0  0  0  0  0  0  0  0  0  0
    0.3608  -12.3905   14.7373 C   0  0  0  0  0  0  0  0  0  0  0  0
    1.8910  -15.4129   17.6533 C   0  0  0  0  0  0  0  0  0  0  0  0
    1.3557  -14.6992   15.7119 C   0  0  0  0  0  0  0  0  0  0  0  0
    0.9465  -12.4155   15.9577 C   0  0  0  0  0  0  0  0  0  0  0  0
    0.3198  -13.5179   13.9685 C   0  0  0  0  0  0  0  0  0  0  0  0
    1.4107  -13.5949   16.4906 C   0  0  0  0  0  0  0  0  0  0  0  0
    0.8268  -14.6978   14.4395 C   0  0  0  0  0  0  0  0  0  0  0  0
   -0.6305  -11.5478   12.7591 N   0  0  0  0  0  0  0  0  0  0  0  0
   -0.1030  -11.1278   14.0968 C   0  0  0  0  0  0  0  0  0  0  0  0
   -0.9703  -10.7286   12.2552 H   0  0  0  0  0  0  0  0  0  0  0  0
   -1.3961  -12.2094   12.8880 H   0  0  0  0  0  0  0  0  0  0  0  0
 10 11  1  0  0  0
  1  4  1  0  0  0
  1  8  1  0  0  0
 11  3  1  0  0  0
  2  4  1  0  0  0
  2  5  1  0  0  0
  3  6  2  0  0  0
  3  7  1  0  0  0
  5  8  2  0  0  0
  5  9  1  0  0  0
  6  8  1  0  0  0
  7  9  2  0  0  0
 10 12  1  0  0  0
 10 13  1  0  0  0
M  END
> <minimizedAffinity>
-5.48652

$$$$
4AB9_VXQ_A_1251


 13 14  0  0  0  0  0  0  0  0999 V2000
    1.3154  -15.2774   15.9127 C   0  0  0  0  0  0  0  0  0  0  0  0
    1.7258  -13.6283   17.8039 O   0  0  0  0  0  0  0  0  0  0  0  0
    0.2424  -11.9739   14.3772 C   0  0  0  0  0  0  0  0  0  0  0  0
    2.1166  -14.8817   17.2078 C   0  0  0  0  0  0  0  0  0  0  0  0
    1.2321  -13.0159   16.6585 C   0  0  0  0  0  0  0  0  0  0  0  0
    0.3917  -13.3138   14.5026 C   0  0  0  0  0  0  0  0  0  0  0  0
    0.5373  -11.1462   15.4219 C   0  0  0  0  0  0  0  0  0  0  0  0
    0.9443  -13.8562   15.6387 C   0  0  0  0  0  0  0  0  0  0  0  0
    1.0319  -11.6542   16.5917 C   0  0  0  0  0  0  0  0  0  0  0  0
   -1.8401  -11.1764   13.5815 N   0  0  0  0  0  0  0  0  0  0  0  0
   -0.4043  -11.3473   13.1902 C   0  0  0  0  0  0  0  0  0  0  0  0
   -2.3538  -10.7483   12.8112 H   0  0  0  0  0  0  0  0  0  0  0  0
   -1.8991  -10.5767   14.4044 H   0  0  0  0  0  0  0  0  0  0  0  0
 10 11  1  0  0  0
  1  4  1  0  0  0
  1  8  1  0  0  0
 11  3  1  0  0  0
  2  4  1  0  0  0
  2  5  1  0  0  0
  3  6  2  0  0  0
  3  7  1  0  0  0
  5  8  2  0  0  0
  5  9  1  0  0  0
  6  8  1  0  0  0
  7  9  2  0  0  0
 10 12  1  0  0  0
 10 13  1  0  0  0
M  END
> <minimizedAffinity>
-5.29391

$$$$
4AB9_VXQ_A_1251


 13 14  0  0  0  0  0  0  0  0999 V2000
    2.1176  -14.3355   17.2556 C   0  0  0  0  0  0  0  0  0  0  0  0
    1.4091  -15.0127   14.9096 O   0  0  0  0  0  0  0  0  0  0  0  0
    0.3132  -11.2351   16.0090 C   0  0  0  0  0  0  0  0  0  0  0  0
    1.7224  -15.4708   16.2404 C   0  0  0  0  0  0  0  0  0  0  0  0
    1.0041  -13.7251   15.2394 C   0  0  0  0  0  0  0  0  0  0  0  0
    1.0862  -12.0038   16.8120 C   0  0  0  0  0  0  0  0  0  0  0  0
   -0.0744  -11.6916   14.7822 C   0  0  0  0  0  0  0  0  0  0  0  0
    1.4027  -13.2940   16.4577 C   0  0  0  0  0  0  0  0  0  0  0  0
    0.2725  -12.9481   14.3678 C   0  0  0  0  0  0  0  0  0  0  0  0
   -1.0634   -9.8851   17.3831 N   0  0  0  0  0  0  0  0  0  0  0  0
   -0.0057   -9.8144   16.3248 C   0  0  0  0  0  0  0  0  0  0  0  0
   -1.3366   -8.9405   17.6543 H   0  0  0  0  0  0  0  0  0  0  0  0
   -0.6978  -10.3800   18.1966 H   0  0  0  0  0  0  0  0  0  0  0  0
 10 11  1  0  0  0
  1  4  1  0  0  0
  1  8  1  0  0  0
 11  3  1  0  0  0
  2  4  1  0  0  0
  2  5  1  0  0  0
  3  6  2  0  0  0
  3  7  1  0  0  0
  5  8  2  0  0  0
  5  9  1  0  0  0
  6  8  1  0  0  0
  7  9  2  0  0  0
 10 12  1  0  0  0
 10 13  1  0  0  0
M  END
> <minimizedAffinity>
-4.94895

$$$$
4AB9_VXQ_A_1251


 13 14  0  0  0  0  0  0  0  0999 V2000
    0.4840  -14.6783   14.3912 C   0  0  0  0  0  0  0  0  0  0  0  0
    1.7341  -15.5604   16.4219 O   0  0  0  0  0  0  0  0  0  0  0  0
    0.9804  -11.5468   16.4816 C   0  0  0  0  0  0  0  0  0  0  0  0
    1.4571  -15.7436   15.0187 C   0  0  0  0  0  0  0  0  0  0  0  0
    1.5118  -14.1902   16.4848 C   0  0  0  0  0  0  0  0  0  0  0  0
    0.4955  -12.3378   15.4955 C   0  0  0  0  0  0  0  0  0  0  0  0
    1.6923  -12.0883   17.5130 C   0  0  0  0  0  0  0  0  0  0  0  0
    0.8018  -13.6775   15.4542 C   0  0  0  0  0  0  0  0  0  0  0  0
    1.9657  -13.4283   17.5394 C   0  0  0  0  0  0  0  0  0  0  0  0
   -0.7074  -10.0903   17.2789 N   0  0  0  0  0  0  0  0  0  0  0  0
    0.6270  -10.1042   16.5985 C   0  0  0  0  0  0  0  0  0  0  0  0
   -1.0195   -9.1263   17.3957 H   0  0  0  0  0  0  0  0  0  0  0  0
   -0.6274  -10.5350   18.1934 H   0  0  0  0  0  0  0  0  0  0  0  0
 10 11  1  0  0  0
  1  4  1  0  0  0
  1  8  1  0  0  0
 11  3  1  0  0  0
  2  4  1  0  0  0
  2  5  1  0  0  0
  3  6  2  0  0  0
  3  7  1  0  0  0
  5  8  2  0  0  0
  5  9  1  0  0  0
  6  8  1  0  0  0
  7  9  2  0  0  0
 10 12  1  0  0  0
 10 13  1  0  0  0
M  END
> <minimizedAffinity>
-4.86505

$$$$
4AB9_VXQ_A_1251


 13 14  0  0  0  0  0  0  0  0999 V2000
   -0.7566  -11.3656   13.6797 C   0  0  0  0  0  0  0  0  0  0  0  0
    0.1290  -10.0403   15.6605 O   0  0  0  0  0  0  0  0  0  0  0  0
    1.0707  -14.0143   15.6966 C   0  0  0  0  0  0  0  0  0  0  0  0
   -0.9001  -10.1397   14.6555 C   0  0  0  0  0  0  0  0  0  0  0  0
    0.4664  -11.3867   15.7245 C   0  0  0  0  0  0  0  0  0  0  0  0
    0.4283  -13.4543   14.6444 C   0  0  0  0  0  0  0  0  0  0  0  0
    1.4670  -13.2444   16.7520 C   0  0  0  0  0  0  0  0  0  0  0  0
    0.0662  -12.1281   14.6667 C   0  0  0  0  0  0  0  0  0  0  0  0
    1.1790  -11.9075   16.7828 C   0  0  0  0  0  0  0  0  0  0  0  0
    1.9433  -15.7047   17.1061 N   0  0  0  0  0  0  0  0  0  0  0  0
    1.5334  -15.4304   15.6917 C   0  0  0  0  0  0  0  0  0  0  0  0
    2.2756  -16.6660   17.1834 H   0  0  0  0  0  0  0  0  0  0  0  0
    1.1429  -15.5709   17.7240 H   0  0  0  0  0  0  0  0  0  0  0  0
 10 11  1  0  0  0
  1  4  1  0  0  0
  1  8  1  0  0  0
 11  3  1  0  0  0
  2  4  1  0  0  0
  2  5  1  0  0  0
  3  6  2  0  0  0
  3  7  1  0  0  0
  5  8  2  0  0  0
  5  9  1  0  0  0
  6  8  1  0  0  0
  7  9  2  0  0  0
 10 12  1  0  0  0
 10 13  1  0  0  0
M  END
> <minimizedAffinity>
-4.84957

$$$$
4AB9_VXQ_A_1251


 13 14  0  0  0  0  0  0  0  0999 V2000
    0.7974  -10.6052   16.7984 C   0  0  0  0  0  0  0  0  0  0  0  0
    0.7622  -10.1753   14.2927 O   0  0  0  0  0  0  0  0  0  0  0  0
    1.4204  -14.0630   15.3570 C   0  0  0  0  0  0  0  0  0  0  0  0
    1.0261   -9.6169   15.5957 C   0  0  0  0  0  0  0  0  0  0  0  0
    0.9998  -11.5087   14.6029 C   0  0  0  0  0  0  0  0  0  0  0  0
    1.1389  -13.1187   16.2856 C   0  0  0  0  0  0  0  0  0  0  0  0
    1.4375  -13.7421   14.0302 C   0  0  0  0  0  0  0  0  0  0  0  0
    0.9746  -11.8028   15.9227 C   0  0  0  0  0  0  0  0  0  0  0  0
    1.2178  -12.4543   13.6246 C   0  0  0  0  0  0  0  0  0  0  0  0
    2.0371  -15.5270   17.1126 N   0  0  0  0  0  0  0  0  0  0  0  0
    1.5484  -15.5079   15.6967 C   0  0  0  0  0  0  0  0  0  0  0  0
    2.1504  -16.4929   17.4201 H   0  0  0  0  0  0  0  0  0  0  0  0
    1.3596  -15.0564   17.7125 H   0  0  0  0  0  0  0  0  0  0  0  0
 10 11  1  0  0  0
  1  4  1  0  0  0
  1  8  1  0  0  0
 11  3  1  0  0  0
  2  4  1  0  0  0
  2  5  1  0  0  0
  3  6  2  0  0  0
  3  7  1  0  0  0
  5  8  2  0  0  0
  5  9  1  0  0  0
  6  8  1  0  0  0
  7  9  2  0  0  0
 10 12  1  0  0  0
 10 13  1  0  0  0
M  END
> <minimizedAffinity>
-4.75082

$$$$
4AB9_VXQ_A_1251


 13 14  0  0  0  0  0  0  0  0999 V2000
    1.3104  -11.4420   12.6046 C   0  0  0  0  0  0  0  0  0  0  0  0
    1.0224  -10.0050   14.6823 O   0  0  0  0  0  0  0  0  0  0  0  0
    1.3177  -14.0152   15.3977 C   0  0  0  0  0  0  0  0  0  0  0  0
    0.7649  -10.1239   13.2686 C   0  0  0  0  0  0  0  0  0  0  0  0
    1.1072  -11.3602   14.9773 C   0  0  0  0  0  0  0  0  0  0  0  0
    1.4730  -13.5110   14.1507 C   0  0  0  0  0  0  0  0  0  0  0  0
    1.1104  -13.1809   16.4582 C   0  0  0  0  0  0  0  0  0  0  0  0
    1.3160  -12.1661   13.9116 C   0  0  0  0  0  0  0  0  0  0  0  0
    1.0094  -11.8299   16.2691 C   0  0  0  0  0  0  0  0  0  0  0  0
    0.2975  -15.8798   16.4406 N   0  0  0  0  0  0  0  0  0  0  0  0
    1.5358  -15.4549   15.7128 C   0  0  0  0  0  0  0  0  0  0  0  0
    0.3724  -16.8654   16.6925 H   0  0  0  0  0  0  0  0  0  0  0  0
   -0.5145  -15.7437   15.8384 H   0  0  0  0  0  0  0  0  0  0  0  0
 10 11  1  0  0  0
  1  4  1  0  0  0
  1  8  1  0  0  0
 11  3  1  0  0  0
  2  4  1  0  0  0
  2  5  1  0  0  0
  3  6  2  0  0  0
  3  7  1  0  0  0
  5  8  2  0  0  0
  5  9  1  0  0  0
  6  8  1  0  0  0
  7  9  2  0  0  0
 10 12  1  0  0  0
 10 13  1  0  0  0
M  END
> <minimizedAffinity>
-4.68449

$$$$
4AB9_VXQ_A_1251


 13 14  0  0  0  0  0  0  0  0999 V2000
    0.5274  -10.0597   15.6395 C   0  0  0  0  0  0  0  0  0  0  0  0
    1.8074  -10.8792   17.6778 O   0  0  0  0  0  0  0  0  0  0  0  0
    0.5903  -13.8211   15.1196 C   0  0  0  0  0  0  0  0  0  0  0  0
    0.9524   -9.8502   17.1399 C   0  0  0  0  0  0  0  0  0  0  0  0
    1.4067  -11.9171   16.8454 C   0  0  0  0  0  0  0  0  0  0  0  0
    0.4060  -12.5127   14.8238 C   0  0  0  0  0  0  0  0  0  0  0  0
    1.2399  -14.1847   16.2640 C   0  0  0  0  0  0  0  0  0  0  0  0
    0.7685  -11.5322   15.7170 C   0  0  0  0  0  0  0  0  0  0  0  0
    1.6706  -13.2350   17.1492 C   0  0  0  0  0  0  0  0  0  0  0  0
    1.3554  -14.8546   13.1317 N   0  0  0  0  0  0  0  0  0  0  0  0
    0.2669  -14.9131   14.1591 C   0  0  0  0  0  0  0  0  0  0  0  0
    1.2016  -15.5804   12.4317 H   0  0  0  0  0  0  0  0  0  0  0  0
    2.2577  -15.0037   13.5834 H   0  0  0  0  0  0  0  0  0  0  0  0
 10 11  1  0  0  0
  1  4  1  0  0  0
  1  8  1  0  0  0
 11  3  1  0  0  0
  2  4  1  0  0  0
  2  5  1  0  0  0
  3  6  2  0  0  0
  3  7  1  0  0  0
  5  8  2  0  0  0
  5  9  1  0  0  0
  6  8  1  0  0  0
  7  9  2  0  0  0
 10 12  1  0  0  0
 10 13  1  0  0  0
M  END
> <minimizedAffinity>
-4.65338

$$$$
4AB9_VXQ_A_1251


 13 14  0  0  0  0  0  0  0  0999 V2000
    1.5699  -14.0530   15.4789 C   0  0  0  0  0  0  0  0  0  0  0  0
    0.9174  -12.1073   16.9799 O   0  0  0  0  0  0  0  0  0  0  0  0
    1.3720  -11.1530   13.0350 C   0  0  0  0  0  0  0  0  0  0  0  0
    1.5840  -13.3836   16.9027 C   0  0  0  0  0  0  0  0  0  0  0  0
    1.0699  -11.7297   15.6515 C   0  0  0  0  0  0  0  0  0  0  0  0
    1.4625  -12.4345   13.4624 C   0  0  0  0  0  0  0  0  0  0  0  0
    1.0717  -10.1523   13.9137 C   0  0  0  0  0  0  0  0  0  0  0  0
    1.3638  -12.7382   14.7997 C   0  0  0  0  0  0  0  0  0  0  0  0
    0.9053  -10.4237   15.2440 C   0  0  0  0  0  0  0  0  0  0  0  0
    1.8487  -12.0345   10.8899 N   0  0  0  0  0  0  0  0  0  0  0  0
    1.4144  -10.7846   11.5920 C   0  0  0  0  0  0  0  0  0  0  0  0
    1.9018  -11.8598    9.8864 H   0  0  0  0  0  0  0  0  0  0  0  0
    1.1740  -12.7778   11.0704 H   0  0  0  0  0  0  0  0  0  0  0  0
 10 11  1  0  0  0
  1  4  1  0  0  0
  1  8  1  0  0  0
 11  3  1  0  0  0
  2  4  1  0  0  0
  2  5  1  0  0  0
  3  6  2  0  0  0
  3  7  1  0  0  0
  5  8  2  0  0  0
  5  9  1  0  0  0
  6  8  1  0  0  0
  7  9  2  0  0  0
 10 12  1  0  0  0
 10 13  1  0  0  0
M  END
> <minimizedAffinity>
-4.49064

$$$$
