6MJF_SAH_A_500
  RCSB PDB10131806253D
Coordinates from PDB:6MJF:A:500 Model:1 without hydrogens
 26 28  0  0  0  0            999 V2000
  -62.1540   28.1470   -3.5890   N 0  0  0  0  0  0  0  0  0  0  0  0
  -61.2060   28.6460   -4.5790   C 0  0  0  0  0  0  0  0  0  0  0  0
  -61.8390   29.7450   -5.4250   C 0  0  0  0  0  0  0  0  0  0  0  0
  -63.0540   29.3080   -6.2370   C 0  0  0  0  0  0  0  0  0  0  0  0
  -64.0530   30.7080   -6.8040   S 0  0  0  0  0  0  0  0  0  0  0  0
  -59.9350   29.1630   -3.9180   C 0  0  0  0  0  0  0  0  0  0  0  0
  -59.2660   30.0550   -4.4400   O 0  0  0  0  0  0  0  0  0  0  0  0
  -59.5460   28.6910   -2.8500   O 0  0  0  0  0  0  0  0  0  0  0  0
  -63.1620   30.7760   -8.3800   C 0  0  0  0  0  0  0  0  0  0  0  0
  -62.2050   31.9620   -8.4390   C 0  0  0  0  0  0  0  0  0  0  0  0
  -60.9960   31.6510   -7.7680   O 0  0  0  0  0  0  0  0  0  0  0  0
  -61.8140   32.3350   -9.8600   C 0  0  0  0  0  0  0  0  0  0  0  0
  -62.6800   33.2980  -10.4090   O 0  0  0  0  0  0  0  0  0  0  0  0
  -60.4180   32.8880   -9.7060   C 0  0  0  0  0  0  0  0  0  0  0  0
  -60.4660   34.2660   -9.4190   O 0  0  0  0  0  0  0  0  0  0  0  0
  -59.8900   32.1610   -8.4890   C 0  0  0  0  0  0  0  0  0  0  0  0
  -59.0530   31.0520   -8.9720   N 0  0  0  0  0  0  0  0  0  0  0  0
  -59.4440   29.7510   -9.1540   C 0  0  0  0  0  0  0  0  0  0  0  0
  -58.3890   29.0490   -9.6270   N 0  0  0  0  0  0  0  0  0  0  0  0
  -57.3390   29.8890   -9.7610   C 0  0  0  0  0  0  0  0  0  0  0  0
  -56.0380   29.6980  -10.2010   C 0  0  0  0  0  0  0  0  0  0  0  0
  -55.6290   28.4950  -10.5930   N 0  0  0  0  0  0  0  0  0  0  0  0
  -55.1710   30.7690  -10.2280   N 0  0  0  0  0  0  0  0  0  0  0  0
  -55.5920   32.0180   -9.8240   C 0  0  0  0  0  0  0  0  0  0  0  0
  -56.8870   32.2000   -9.3900   N 0  0  0  0  0  0  0  0  0  0  0  0
  -57.7440   31.1520   -9.3570   C 0  0  0  0  0  0  0  0  0  0  0  0
  1  2  1  0  0  0  0
  2  3  1  0  0  0  0
  2  6  1  0  0  0  0
  3  4  1  0  0  0  0
  4  5  1  0  0  0  0
  5  9  1  0  0  0  0
  6  7  2  0  0  0  0
  6  8  1  0  0  0  0
  9 10  1  0  0  0  0
 10 11  1  0  0  0  0
 10 12  1  0  0  0  0
 11 16  1  0  0  0  0
 12 13  1  0  0  0  0
 12 14  1  0  0  0  0
 14 15  1  0  0  0  0
 14 16  1  0  0  0  0
 16 17  1  0  0  0  0
 17 18  1  0  0  0  0
 17 26  1  0  0  0  0
 18 19  2  0  0  0  0
 19 20  1  0  0  0  0
 20 21  1  0  0  0  0
 20 26  2  0  0  0  0
 21 22  1  0  0  0  0
 21 23  2  0  0  0  0
 23 24  1  0  0  0  0
 24 25  2  0  0  0  0
 25 26  1  0  0  0  0
A    1
N
A    2
CA
A    3
CB
A    4
CG
A    5
SD
A    6
C
A    7
O
A    8
OXT
A    9
C5'
A   10
C4'
A   11
O4'
A   12
C3'
A   13
O3'
A   14
C2'
A   15
O2'
A   16
C1'
A   17
N9
A   18
C8
A   19
N7
A   20
C5
A   21
C6
A   22
N6
A   23
N1
A   24
C2
A   25
N3
A   26
C4
M  END
>  <InstanceId>
6MJF_SAH_A_500

>  <ChemCompId>
SAH

>  <PdbId>
6MJF

>  <ChainId>
A

>  <ResidueNumber>
500

>  <InsertionCode>


>  <Model>
1

>  <AltIds>


>  <MissingHeavyAtoms>
0

>  <ObservedFormula>
C14 N6 O5 S

>  <Name>
S-ADENOSYL-L-HOMOCYSTEINE

>  <SystematicName>
(2S)-2-amino-4-[[(2S,3S,4R,5R)-5-(6-aminopurin-9-yl)-3,4-dihydroxy-oxolan-2-yl]methylsulfanyl]butanoic acid

>  <Synonyms>


>  <Type>
L-PEPTIDE LINKING

>  <Formula>
C14 H20 N6 O5 S

>  <MolecularWeight>
384.411

>  <ModifiedDate>
2011-06-04

>  <Parent>
CYS

>  <OneLetterCode>
C

>  <SubcomponentList>


>  <AmbiguousFlag>
N

>  <InChI>
InChI=1S/C14H20N6O5S/c15-6(14(23)24)1-2-26-3-7-9(21)10(22)13(25-7)20-5-19-8-11(16)17-4-18-12(8)20/h4-7,9-10,13,21-22H,1-3,15H2,(H,23,24)(H2,16,17,18)/t6-,7+,9+,10+,13+/m0/s1

>  <InChIKey>
ZJUKTBDSGOFHSH-WFMPWKQPSA-N

>  <SMILES>
c1nc(c2c(n1)n(cn2)[C@H]3[C@@H]([C@@H]([C@H](O3)CSCC[C@@H](C(=O)O)N)O)O)N

$$$$
