2YHW_BM3_A_1718


 20 20  0  0  0  0  0  0  0  0999 V2000
  -11.4748   31.3029   17.0472 C   0  0  0  0  0  0  0  0  0  0  0  0
  -12.5277   30.7243   17.7386 O   0  0  0  0  0  0  0  0  0  0  0  0
  -10.8189   30.2456   16.1500 C   0  0  0  0  0  0  0  0  0  0  0  0
  -10.1905   29.1719   16.9921 C   0  0  0  0  0  0  0  0  0  0  0  0
   -9.5034   28.1839   16.1724 O   0  0  0  0  0  0  0  0  0  0  0  0
   -9.2326   29.7623   17.9804 C   0  0  0  0  0  0  0  0  0  0  0  0
   -8.7098   28.7322   18.8465 O   0  0  0  0  0  0  0  0  0  0  0  0
   -9.8895   30.8290   18.8164 C   0  0  0  0  0  0  0  0  0  0  0  0
  -10.4828   31.8300   17.9491 O   0  0  0  0  0  0  0  0  0  0  0  0
  -12.1954   29.9900   18.2783 H   0  0  0  0  0  0  0  0  0  0  0  0
   -8.7824   28.6128   15.6855 H   0  0  0  0  0  0  0  0  0  0  0  0
   -9.4373   28.3300   19.3464 H   0  0  0  0  0  0  0  0  0  0  0  0
   -9.8707   30.9341   15.2198 N   0  0  0  0  0  0  0  0  0  0  0  0
   -9.8185   30.7084   13.9191 C   0  0  0  0  0  0  0  0  0  0  0  0
  -10.4987   29.8496   13.3316 O   0  0  0  0  0  0  0  0  0  0  0  0
   -8.8782   31.6591   13.1503 C   0  0  0  0  0  0  0  0  0  0  0  0
   -9.2481   31.5953   15.5999 H   0  0  0  0  0  0  0  0  0  0  0  0
   -9.0168   31.5995   19.7500 C   0  0  0  0  0  0  0  0  0  0  0  0
   -8.1923   30.7943   20.5660 O   0  0  0  0  0  0  0  0  0  0  0  0
   -8.7460   30.2370   21.1350 H   0  0  0  0  0  0  0  0  0  0  0  0
  1  2  1  0  0  0
  1  3  1  0  0  0
  1  9  1  0  0  0
  3 13  1  0  0  0
  3  4  1  0  0  0
 13 14  1  0  0  0
 14 15  2  0  0  0
 14 16  1  0  0  0
  4  5  1  0  0  0
  4  6  1  0  0  0
  6  7  1  0  0  0
  6  8  1  0  0  0
  8 18  1  0  0  0
  8  9  1  0  0  0
 18 19  1  0  0  0
  2 10  1  0  0  0
 13 17  1  0  0  0
  5 11  1  0  0  0
  7 12  1  0  0  0
 19 20  1  0  0  0
M  END
> <minimizedAffinity>
-9.15714

$$$$
2YHW_BM3_A_1718


 20 20  0  0  0  0  0  0  0  0999 V2000
   -8.6737   31.3621   17.7583 C   0  0  0  0  0  0  0  0  0  0  0  0
   -8.6015   31.9886   18.9927 O   0  0  0  0  0  0  0  0  0  0  0  0
   -9.9361   31.8343   17.0259 C   0  0  0  0  0  0  0  0  0  0  0  0
  -11.1623   31.3814   17.7663 C   0  0  0  0  0  0  0  0  0  0  0  0
  -12.3803   31.7591   17.0636 O   0  0  0  0  0  0  0  0  0  0  0  0
  -11.1400   29.8989   17.9772 C   0  0  0  0  0  0  0  0  0  0  0  0
  -12.2734   29.4902   18.7729 O   0  0  0  0  0  0  0  0  0  0  0  0
   -9.8703   29.4569   18.6560 C   0  0  0  0  0  0  0  0  0  0  0  0
   -8.7249   29.9295   17.9004 O   0  0  0  0  0  0  0  0  0  0  0  0
   -9.3899   31.7688   19.5134 H   0  0  0  0  0  0  0  0  0  0  0  0
  -12.4021   31.3235   16.1972 H   0  0  0  0  0  0  0  0  0  0  0  0
  -12.2251   29.9120   19.6450 H   0  0  0  0  0  0  0  0  0  0  0  0
   -9.8646   31.3667   15.6065 N   0  0  0  0  0  0  0  0  0  0  0  0
   -9.1773   31.9819   14.6607 C   0  0  0  0  0  0  0  0  0  0  0  0
   -8.5718   33.0553   14.8235 O   0  0  0  0  0  0  0  0  0  0  0  0
   -9.1211   31.2175   13.3222 C   0  0  0  0  0  0  0  0  0  0  0  0
  -10.3597   30.5515   15.3626 H   0  0  0  0  0  0  0  0  0  0  0  0
   -9.6512   27.9884   18.8059 C   0  0  0  0  0  0  0  0  0  0  0  0
   -8.5112   27.6500   19.5674 O   0  0  0  0  0  0  0  0  0  0  0  0
   -7.7155   27.9832   19.1239 H   0  0  0  0  0  0  0  0  0  0  0  0
  1  2  1  0  0  0
  1  3  1  0  0  0
  1  9  1  0  0  0
  3 13  1  0  0  0
  3  4  1  0  0  0
 13 14  1  0  0  0
 14 15  2  0  0  0
 14 16  1  0  0  0
  4  5  1  0  0  0
  4  6  1  0  0  0
  6  7  1  0  0  0
  6  8  1  0  0  0
  8 18  1  0  0  0
  8  9  1  0  0  0
 18 19  1  0  0  0
  2 10  1  0  0  0
 13 17  1  0  0  0
  5 11  1  0  0  0
  7 12  1  0  0  0
 19 20  1  0  0  0
M  END
> <minimizedAffinity>
-7.79346

$$$$
2YHW_BM3_A_1718


 20 20  0  0  0  0  0  0  0  0999 V2000
   -9.9781   31.3972   19.0961 C   0  0  0  0  0  0  0  0  0  0  0  0
  -11.3631   31.3442   19.1157 O   0  0  0  0  0  0  0  0  0  0  0  0
   -9.5048   31.6943   17.6676 C   0  0  0  0  0  0  0  0  0  0  0  0
   -9.8653   30.5551   16.7570 C   0  0  0  0  0  0  0  0  0  0  0  0
   -9.3740   30.7767   15.4043 O   0  0  0  0  0  0  0  0  0  0  0  0
   -9.3268   29.2609   17.2841 C   0  0  0  0  0  0  0  0  0  0  0  0
   -9.7618   28.1632   16.4531 O   0  0  0  0  0  0  0  0  0  0  0  0
   -9.7686   29.0162   18.7029 C   0  0  0  0  0  0  0  0  0  0  0  0
   -9.4002   30.1508   19.5295 O   0  0  0  0  0  0  0  0  0  0  0  0
  -11.6686   30.6485   18.5127 H   0  0  0  0  0  0  0  0  0  0  0  0
   -8.4054   30.8271   15.4163 H   0  0  0  0  0  0  0  0  0  0  0  0
  -10.7301   28.1079   16.4712 H   0  0  0  0  0  0  0  0  0  0  0  0
   -8.0436   32.0131   17.7080 N   0  0  0  0  0  0  0  0  0  0  0  0
   -7.4600   32.9007   16.9224 C   0  0  0  0  0  0  0  0  0  0  0  0
   -8.0417   33.5186   16.0141 O   0  0  0  0  0  0  0  0  0  0  0  0
   -5.9815   33.1735   17.2669 C   0  0  0  0  0  0  0  0  0  0  0  0
   -7.4831   31.5325   18.3593 H   0  0  0  0  0  0  0  0  0  0  0  0
   -9.1941   27.8298   19.4025 C   0  0  0  0  0  0  0  0  0  0  0  0
   -9.7568   26.5972   19.0050 O   0  0  0  0  0  0  0  0  0  0  0  0
  -10.7022   26.5885   19.2216 H   0  0  0  0  0  0  0  0  0  0  0  0
  1  2  1  0  0  0
  1  3  1  0  0  0
  1  9  1  0  0  0
  3 13  1  0  0  0
  3  4  1  0  0  0
 13 14  1  0  0  0
 14 15  2  0  0  0
 14 16  1  0  0  0
  4  5  1  0  0  0
  4  6  1  0  0  0
  6  7  1  0  0  0
  6  8  1  0  0  0
  8 18  1  0  0  0
  8  9  1  0  0  0
 18 19  1  0  0  0
  2 10  1  0  0  0
 13 17  1  0  0  0
  5 11  1  0  0  0
  7 12  1  0  0  0
 19 20  1  0  0  0
M  END
> <minimizedAffinity>
-7.66910

$$$$
2YHW_BM3_A_1718


 20 20  0  0  0  0  0  0  0  0999 V2000
   -9.0735   29.1457   17.4619 C   0  0  0  0  0  0  0  0  0  0  0  0
   -9.7160   28.0997   18.1055 O   0  0  0  0  0  0  0  0  0  0  0  0
   -9.2482   30.4281   18.2852 C   0  0  0  0  0  0  0  0  0  0  0  0
  -10.6970   30.8236   18.3233 C   0  0  0  0  0  0  0  0  0  0  0  0
  -10.8906   32.0735   19.0448 O   0  0  0  0  0  0  0  0  0  0  0  0
  -11.2516   30.9493   16.9379 C   0  0  0  0  0  0  0  0  0  0  0  0
  -12.6662   31.2340   16.9897 O   0  0  0  0  0  0  0  0  0  0  0  0
  -11.0259   29.6939   16.1370 C   0  0  0  0  0  0  0  0  0  0  0  0
   -9.6136   29.3601   16.1437 O   0  0  0  0  0  0  0  0  0  0  0  0
  -10.6586   28.3083   18.2000 H   0  0  0  0  0  0  0  0  0  0  0  0
  -10.4196   32.7873   18.5871 H   0  0  0  0  0  0  0  0  0  0  0  0
  -13.1278   30.5008   17.4258 H   0  0  0  0  0  0  0  0  0  0  0  0
   -8.3369   31.4768   17.7300 N   0  0  0  0  0  0  0  0  0  0  0  0
   -7.8223   32.4611   18.4455 C   0  0  0  0  0  0  0  0  0  0  0  0
   -8.0919   32.6704   19.6408 O   0  0  0  0  0  0  0  0  0  0  0  0
   -6.7824   33.3140   17.6904 C   0  0  0  0  0  0  0  0  0  0  0  0
   -8.1069   31.4307   16.7739 H   0  0  0  0  0  0  0  0  0  0  0  0
  -11.4052   29.7265   14.6941 C   0  0  0  0  0  0  0  0  0  0  0  0
  -10.3554   30.1078   13.8301 O   0  0  0  0  0  0  0  0  0  0  0  0
  -10.0752   31.0121   14.0412 H   0  0  0  0  0  0  0  0  0  0  0  0
  1  2  1  0  0  0
  1  3  1  0  0  0
  1  9  1  0  0  0
  3 13  1  0  0  0
  3  4  1  0  0  0
 13 14  1  0  0  0
 14 15  2  0  0  0
 14 16  1  0  0  0
  4  5  1  0  0  0
  4  6  1  0  0  0
  6  7  1  0  0  0
  6  8  1  0  0  0
  8 18  1  0  0  0
  8  9  1  0  0  0
 18 19  1  0  0  0
  2 10  1  0  0  0
 13 17  1  0  0  0
  5 11  1  0  0  0
  7 12  1  0  0  0
 19 20  1  0  0  0
M  END
> <minimizedAffinity>
-7.32863

$$$$
2YHW_BM3_A_1718


 20 20  0  0  0  0  0  0  0  0999 V2000
   -8.7763   29.5529   17.4524 C   0  0  0  0  0  0  0  0  0  0  0  0
   -9.3241   28.2811   17.5149 O   0  0  0  0  0  0  0  0  0  0  0  0
   -9.3682   30.4129   18.5762 C   0  0  0  0  0  0  0  0  0  0  0  0
  -10.8408   30.6103   18.3541 C   0  0  0  0  0  0  0  0  0  0  0  0
  -11.4227   31.4761   19.3700 O   0  0  0  0  0  0  0  0  0  0  0  0
  -11.1027   31.1807   16.9944 C   0  0  0  0  0  0  0  0  0  0  0  0
  -12.5238   31.2744   16.7570 O   0  0  0  0  0  0  0  0  0  0  0  0
  -10.4721   30.3426   15.9135 C   0  0  0  0  0  0  0  0  0  0  0  0
   -9.0559   30.1817   16.1868 O   0  0  0  0  0  0  0  0  0  0  0  0
  -10.2875   28.3389   17.4173 H   0  0  0  0  0  0  0  0  0  0  0  0
  -11.0138   32.3542   19.3193 H   0  0  0  0  0  0  0  0  0  0  0  0
  -12.9154   30.3874   16.7842 H   0  0  0  0  0  0  0  0  0  0  0  0
   -8.5822   31.6828   18.6666 N   0  0  0  0  0  0  0  0  0  0  0  0
   -8.3919   32.3546   19.7882 C   0  0  0  0  0  0  0  0  0  0  0  0
   -8.9018   32.0493   20.8800 O   0  0  0  0  0  0  0  0  0  0  0  0
   -7.4103   33.5371   19.6573 C   0  0  0  0  0  0  0  0  0  0  0  0
   -8.1828   32.0393   17.8404 H   0  0  0  0  0  0  0  0  0  0  0  0
  -10.5358   30.8669   14.5177 C   0  0  0  0  0  0  0  0  0  0  0  0
  -10.5210   29.8643   13.5236 O   0  0  0  0  0  0  0  0  0  0  0  0
   -9.6869   29.3716   13.5737 H   0  0  0  0  0  0  0  0  0  0  0  0
  1  2  1  0  0  0
  1  3  1  0  0  0
  1  9  1  0  0  0
  3 13  1  0  0  0
  3  4  1  0  0  0
 13 14  1  0  0  0
 14 15  2  0  0  0
 14 16  1  0  0  0
  4  5  1  0  0  0
  4  6  1  0  0  0
  6  7  1  0  0  0
  6  8  1  0  0  0
  8 18  1  0  0  0
  8  9  1  0  0  0
 18 19  1  0  0  0
  2 10  1  0  0  0
 13 17  1  0  0  0
  5 11  1  0  0  0
  7 12  1  0  0  0
 19 20  1  0  0  0
M  END
> <minimizedAffinity>
-7.16465

$$$$
2YHW_BM3_A_1718


 20 20  0  0  0  0  0  0  0  0999 V2000
   -7.5240   34.1084   19.2641 C   0  0  0  0  0  0  0  0  0  0  0  0
   -7.7185   35.4638   19.4796 O   0  0  0  0  0  0  0  0  0  0  0  0
   -8.2464   33.3145   20.3598 C   0  0  0  0  0  0  0  0  0  0  0  0
   -7.6194   33.5916   21.6966 C   0  0  0  0  0  0  0  0  0  0  0  0
   -8.2415   32.8043   22.7518 O   0  0  0  0  0  0  0  0  0  0  0  0
   -6.1478   33.3163   21.6620 C   0  0  0  0  0  0  0  0  0  0  0  0
   -5.5419   33.6784   22.9216 O   0  0  0  0  0  0  0  0  0  0  0  0
   -5.4708   34.0720   20.5490 C   0  0  0  0  0  0  0  0  0  0  0  0
   -6.1239   33.7699   19.2887 O   0  0  0  0  0  0  0  0  0  0  0  0
   -7.3686   35.7060   20.3513 H   0  0  0  0  0  0  0  0  0  0  0  0
   -8.1079   31.8604   22.5724 H   0  0  0  0  0  0  0  0  0  0  0  0
   -5.6597   34.6288   23.0757 H   0  0  0  0  0  0  0  0  0  0  0  0
   -8.2571   31.8698   19.9710 N   0  0  0  0  0  0  0  0  0  0  0  0
   -9.3051   31.2521   19.4556 C   0  0  0  0  0  0  0  0  0  0  0  0
  -10.4204   31.7792   19.3017 O   0  0  0  0  0  0  0  0  0  0  0  0
   -9.0196   29.8122   18.9821 C   0  0  0  0  0  0  0  0  0  0  0  0
   -7.4335   31.3480   20.1075 H   0  0  0  0  0  0  0  0  0  0  0  0
   -4.0257   33.7869   20.3098 C   0  0  0  0  0  0  0  0  0  0  0  0
   -3.7765   32.9789   19.1788 O   0  0  0  0  0  0  0  0  0  0  0  0
   -4.1910   32.1108   19.3039 H   0  0  0  0  0  0  0  0  0  0  0  0
  1  2  1  0  0  0
  1  3  1  0  0  0
  1  9  1  0  0  0
  3 13  1  0  0  0
  3  4  1  0  0  0
 13 14  1  0  0  0
 14 15  2  0  0  0
 14 16  1  0  0  0
  4  5  1  0  0  0
  4  6  1  0  0  0
  6  7  1  0  0  0
  6  8  1  0  0  0
  8 18  1  0  0  0
  8  9  1  0  0  0
 18 19  1  0  0  0
  2 10  1  0  0  0
 13 17  1  0  0  0
  5 11  1  0  0  0
  7 12  1  0  0  0
 19 20  1  0  0  0
M  END
> <minimizedAffinity>
-6.88175

$$$$
2YHW_BM3_A_1718


 20 20  0  0  0  0  0  0  0  0999 V2000
  -11.4449   30.9517   16.7572 C   0  0  0  0  0  0  0  0  0  0  0  0
  -12.3380   31.9895   16.5406 O   0  0  0  0  0  0  0  0  0  0  0  0
  -10.6216   31.2492   18.0167 C   0  0  0  0  0  0  0  0  0  0  0  0
   -9.7643   32.4634   17.7982 C   0  0  0  0  0  0  0  0  0  0  0  0
   -8.9216   32.7372   18.9537 O   0  0  0  0  0  0  0  0  0  0  0  0
   -8.9111   32.3005   16.5783 C   0  0  0  0  0  0  0  0  0  0  0  0
   -8.1652   33.5105   16.3249 O   0  0  0  0  0  0  0  0  0  0  0  0
   -9.7394   31.9638   15.3663 C   0  0  0  0  0  0  0  0  0  0  0  0
  -10.5486   30.7908   15.6409 O   0  0  0  0  0  0  0  0  0  0  0  0
  -11.8484   32.8195   16.4296 H   0  0  0  0  0  0  0  0  0  0  0  0
   -8.3171   31.9922   19.0967 H   0  0  0  0  0  0  0  0  0  0  0  0
   -8.7811   34.2410   16.1576 H   0  0  0  0  0  0  0  0  0  0  0  0
   -9.8609   30.0159   18.3892 N   0  0  0  0  0  0  0  0  0  0  0  0
  -10.4284   28.8894   18.7822 C   0  0  0  0  0  0  0  0  0  0  0  0
  -11.6510   28.7471   18.9561 O   0  0  0  0  0  0  0  0  0  0  0  0
   -9.4462   27.7118   18.9480 C   0  0  0  0  0  0  0  0  0  0  0  0
   -8.8782   30.0456   18.3385 H   0  0  0  0  0  0  0  0  0  0  0  0
   -9.0073   31.6382   14.1074 C   0  0  0  0  0  0  0  0  0  0  0  0
   -9.7512   31.8726   12.9302 O   0  0  0  0  0  0  0  0  0  0  0  0
  -10.5357   31.3021   12.9246 H   0  0  0  0  0  0  0  0  0  0  0  0
  1  2  1  0  0  0
  1  3  1  0  0  0
  1  9  1  0  0  0
  3 13  1  0  0  0
  3  4  1  0  0  0
 13 14  1  0  0  0
 14 15  2  0  0  0
 14 16  1  0  0  0
  4  5  1  0  0  0
  4  6  1  0  0  0
  6  7  1  0  0  0
  6  8  1  0  0  0
  8 18  1  0  0  0
  8  9  1  0  0  0
 18 19  1  0  0  0
  2 10  1  0  0  0
 13 17  1  0  0  0
  5 11  1  0  0  0
  7 12  1  0  0  0
 19 20  1  0  0  0
M  END
> <minimizedAffinity>
-6.61063

$$$$
2YHW_BM3_A_1718


 20 20  0  0  0  0  0  0  0  0999 V2000
   -9.5228   30.8805   18.8256 C   0  0  0  0  0  0  0  0  0  0  0  0
   -8.4059   31.5965   18.4239 O   0  0  0  0  0  0  0  0  0  0  0  0
   -9.4100   29.4396   18.3118 C   0  0  0  0  0  0  0  0  0  0  0  0
   -9.4537   29.4221   16.8103 C   0  0  0  0  0  0  0  0  0  0  0  0
   -9.4125   28.0625   16.2906 O   0  0  0  0  0  0  0  0  0  0  0  0
  -10.6792   30.1189   16.3049 C   0  0  0  0  0  0  0  0  0  0  0  0
  -10.6603   30.1801   14.8624 O   0  0  0  0  0  0  0  0  0  0  0  0
  -10.7895   31.5143   16.8606 C   0  0  0  0  0  0  0  0  0  0  0  0
  -10.7336   31.4664   18.3100 O   0  0  0  0  0  0  0  0  0  0  0  0
   -8.3501   31.5921   17.4556 H   0  0  0  0  0  0  0  0  0  0  0  0
  -10.1933   27.5754   16.5971 H   0  0  0  0  0  0  0  0  0  0  0  0
   -9.8896   30.6918   14.5706 H   0  0  0  0  0  0  0  0  0  0  0  0
  -10.4721   28.6163   18.9695 N   0  0  0  0  0  0  0  0  0  0  0  0
  -10.2332   27.5045   19.6422 C   0  0  0  0  0  0  0  0  0  0  0  0
   -9.1119   26.9778   19.7448 O   0  0  0  0  0  0  0  0  0  0  0  0
  -11.4661   26.9283   20.3681 C   0  0  0  0  0  0  0  0  0  0  0  0
  -11.4053   28.9214   18.8967 H   0  0  0  0  0  0  0  0  0  0  0  0
  -12.0340   32.2770   16.5500 C   0  0  0  0  0  0  0  0  0  0  0  0
  -13.0956   31.4786   16.0708 O   0  0  0  0  0  0  0  0  0  0  0  0
  -12.8351   31.0628   15.2340 H   0  0  0  0  0  0  0  0  0  0  0  0
  1  2  1  0  0  0
  1  3  1  0  0  0
  1  9  1  0  0  0
  3 13  1  0  0  0
  3  4  1  0  0  0
 13 14  1  0  0  0
 14 15  2  0  0  0
 14 16  1  0  0  0
  4  5  1  0  0  0
  4  6  1  0  0  0
  6  7  1  0  0  0
  6  8  1  0  0  0
  8 18  1  0  0  0
  8  9  1  0  0  0
 18 19  1  0  0  0
  2 10  1  0  0  0
 13 17  1  0  0  0
  5 11  1  0  0  0
  7 12  1  0  0  0
 19 20  1  0  0  0
M  END
> <minimizedAffinity>
-6.58960

$$$$
2YHW_BM3_A_1718


 20 20  0  0  0  0  0  0  0  0999 V2000
   -9.7417   31.0146   15.8463 C   0  0  0  0  0  0  0  0  0  0  0  0
  -10.5186   31.9159   15.1354 O   0  0  0  0  0  0  0  0  0  0  0  0
  -10.3766   30.7767   17.2222 C   0  0  0  0  0  0  0  0  0  0  0  0
  -10.3455   32.0424   18.0309 C   0  0  0  0  0  0  0  0  0  0  0  0
  -10.8840   31.8353   19.3678 O   0  0  0  0  0  0  0  0  0  0  0  0
   -8.9508   32.5796   18.1260 C   0  0  0  0  0  0  0  0  0  0  0  0
   -8.9490   33.8448   18.8216 O   0  0  0  0  0  0  0  0  0  0  0  0
   -8.3348   32.7601   16.7635 C   0  0  0  0  0  0  0  0  0  0  0  0
   -8.4014   31.5096   16.0301 O   0  0  0  0  0  0  0  0  0  0  0  0
  -10.5741   32.7514   15.6250 H   0  0  0  0  0  0  0  0  0  0  0  0
  -10.3359   31.1898   19.8408 H   0  0  0  0  0  0  0  0  0  0  0  0
   -9.4785   34.4878   18.3246 H   0  0  0  0  0  0  0  0  0  0  0  0
   -9.6896   29.6150   17.8680 N   0  0  0  0  0  0  0  0  0  0  0  0
  -10.3003   28.7304   18.6361 C   0  0  0  0  0  0  0  0  0  0  0  0
  -11.4962   28.8014   18.9680 O   0  0  0  0  0  0  0  0  0  0  0  0
   -9.4175   27.5341   19.0465 C   0  0  0  0  0  0  0  0  0  0  0  0
   -8.7242   29.5030   17.7110 H   0  0  0  0  0  0  0  0  0  0  0  0
   -6.8978   33.1593   16.7109 C   0  0  0  0  0  0  0  0  0  0  0  0
   -6.3006   33.3333   17.9785 O   0  0  0  0  0  0  0  0  0  0  0  0
   -6.7484   34.0524   18.4510 H   0  0  0  0  0  0  0  0  0  0  0  0
  1  2  1  0  0  0
  1  3  1  0  0  0
  1  9  1  0  0  0
  3 13  1  0  0  0
  3  4  1  0  0  0
 13 14  1  0  0  0
 14 15  2  0  0  0
 14 16  1  0  0  0
  4  5  1  0  0  0
  4  6  1  0  0  0
  6  7  1  0  0  0
  6  8  1  0  0  0
  8 18  1  0  0  0
  8  9  1  0  0  0
 18 19  1  0  0  0
  2 10  1  0  0  0
 13 17  1  0  0  0
  5 11  1  0  0  0
  7 12  1  0  0  0
 19 20  1  0  0  0
M  END
> <minimizedAffinity>
-6.47156

$$$$
2YHW_BM3_A_1718


 20 20  0  0  0  0  0  0  0  0999 V2000
   -9.4472   31.8005   15.4803 C   0  0  0  0  0  0  0  0  0  0  0  0
   -9.2845   30.8480   14.4866 O   0  0  0  0  0  0  0  0  0  0  0  0
   -8.7485   31.3203   16.7587 C   0  0  0  0  0  0  0  0  0  0  0  0
   -9.4258   30.0869   17.2849 C   0  0  0  0  0  0  0  0  0  0  0  0
   -8.8262   29.6402   18.5343 O   0  0  0  0  0  0  0  0  0  0  0  0
  -10.8903   30.3277   17.4853 C   0  0  0  0  0  0  0  0  0  0  0  0
  -11.5454   29.1090   17.8979 O   0  0  0  0  0  0  0  0  0  0  0  0
  -11.5421   30.8421   16.2288 C   0  0  0  0  0  0  0  0  0  0  0  0
  -10.8410   32.0257   15.7667 O   0  0  0  0  0  0  0  0  0  0  0  0
   -9.6683   30.0066   14.7792 H   0  0  0  0  0  0  0  0  0  0  0  0
   -8.9366   30.3275   19.2098 H   0  0  0  0  0  0  0  0  0  0  0  0
  -11.4500   28.4393   17.2026 H   0  0  0  0  0  0  0  0  0  0  0  0
   -8.6986   32.4581   17.7288 N   0  0  0  0  0  0  0  0  0  0  0  0
   -7.6178   33.1809   17.9635 C   0  0  0  0  0  0  0  0  0  0  0  0
   -6.5037   32.9544   17.4609 O   0  0  0  0  0  0  0  0  0  0  0  0
   -7.8595   34.4002   18.8767 C   0  0  0  0  0  0  0  0  0  0  0  0
   -9.5207   32.6818   18.2221 H   0  0  0  0  0  0  0  0  0  0  0  0
  -12.9729   31.2560   16.3216 C   0  0  0  0  0  0  0  0  0  0  0  0
  -13.2248   32.5680   15.8641 O   0  0  0  0  0  0  0  0  0  0  0  0
  -12.7392   33.2014   16.4154 H   0  0  0  0  0  0  0  0  0  0  0  0
  1  2  1  0  0  0
  1  3  1  0  0  0
  1  9  1  0  0  0
  3 13  1  0  0  0
  3  4  1  0  0  0
 13 14  1  0  0  0
 14 15  2  0  0  0
 14 16  1  0  0  0
  4  5  1  0  0  0
  4  6  1  0  0  0
  6  7  1  0  0  0
  6  8  1  0  0  0
  8 18  1  0  0  0
  8  9  1  0  0  0
 18 19  1  0  0  0
  2 10  1  0  0  0
 13 17  1  0  0  0
  5 11  1  0  0  0
  7 12  1  0  0  0
 19 20  1  0  0  0
M  END
> <minimizedAffinity>
-6.27751

$$$$
