4W9F_3JU_C_301
  RCSB PDB12061715553D
Coordinates from PDB:4W9F:C:301 Model:1 without hydrogens
 29 31  0  0  0  0            999 V2000
   -5.7210   33.6970   -4.1200   C 0  0  0  0  0  0  0  0  0  0  0  0
   -5.6720   34.2880   -2.7120   C 0  0  0  0  0  0  0  0  0  0  0  0
   -5.1440   35.7300   -2.8300   C 0  0  0  0  0  0  0  0  0  0  0  0
   -4.7520   33.4240   -1.8280   C 0  0  0  0  0  0  0  0  0  0  0  0
   -7.0780   34.2620   -2.1790   C 0  0  0  0  0  0  0  0  0  0  0  0
   -7.0750   34.7340   -0.6890   C 0  0  0  0  0  0  0  0  0  0  0  0
   -6.8530   35.9110   -0.4070   O 0  0  0  0  0  0  0  0  0  0  0  0
   -7.3620   33.8130    0.2600   N 0  0  0  0  0  0  0  0  0  0  0  0
   -7.7210   32.3670    0.1000   C 0  0  0  0  0  0  0  0  0  0  0  0
   -8.5470   32.0450    1.3090   C 0  0  0  0  0  0  0  0  0  0  0  0
   -9.9030   32.4110    1.0820   O 0  0  0  0  0  0  0  0  0  0  0  0
   -7.9270   32.9050    2.3850   C 0  0  0  0  0  0  0  0  0  0  0  0
   -7.4880   34.1960    1.7010   C 0  0  0  0  0  0  0  0  0  0  0  0
   -6.3150   34.6750    2.3220   C 0  0  0  0  0  0  0  0  0  0  0  0
   -5.2200   34.2430    1.9990   O 0  0  0  0  0  0  0  0  0  0  0  0
   -6.5060   35.5240    3.3430   N 0  0  0  0  0  0  0  0  0  0  0  0
   -5.4280   36.0820    4.1530   C 0  0  0  0  0  0  0  0  0  0  0  0
   -5.2620   35.2770    5.3090   C 0  0  0  0  0  0  0  0  0  0  0  0
   -4.0500   35.3250    5.9940   C 0  0  0  0  0  0  0  0  0  0  0  0
   -3.8310   34.5360    7.1320   C 0  0  0  0  0  0  0  0  0  0  0  0
   -6.2500   34.4090    5.8020   C 0  0  0  0  0  0  0  0  0  0  0  0
   -6.0230   33.6160    6.9350   C 0  0  0  0  0  0  0  0  0  0  0  0
   -4.8190   33.6690    7.6290   C 0  0  0  0  0  0  0  0  0  0  0  0
   -4.6090   32.9010    8.7260   C 0  0  0  0  0  0  0  0  0  0  0  0
   -5.0140   31.2680    8.8960   S 0  0  0  0  0  0  0  0  0  0  0  0
   -4.4390   31.0900   10.4140   C 0  0  0  0  0  0  0  0  0  0  0  0
   -3.9350   32.2620   10.8040   N 0  0  0  0  0  0  0  0  0  0  0  0
   -4.0270   33.2520    9.8940   C 0  0  0  0  0  0  0  0  0  0  0  0
   -3.4830   34.6450   10.2370   C 0  0  0  0  0  0  0  0  0  0  0  0
  1  2  1  0  0  0  0
  3  2  1  0  0  0  0
  2  5  1  0  0  0  0
  2  4  1  0  0  0  0
  5  6  1  0  0  0  0
  6  7  2  0  0  0  0
  6  8  1  0  0  0  0
  9  8  1  0  0  0  0
  9 10  1  0  0  0  0
  8 13  1  0  0  0  0
 11 10  1  0  0  0  0
 10 12  1  0  0  0  0
 13 14  1  0  0  0  0
 13 12  1  0  0  0  0
 15 14  2  0  0  0  0
 14 16  1  0  0  0  0
 16 17  1  0  0  0  0
 17 18  1  0  0  0  0
 18 21  2  0  0  0  0
 18 19  1  0  0  0  0
 21 22  1  0  0  0  0
 19 20  2  0  0  0  0
 22 23  2  0  0  0  0
 20 23  1  0  0  0  0
 23 24  1  0  0  0  0
 24 25  1  0  0  0  0
 24 28  2  0  0  0  0
 25 26  1  0  0  0  0
 28 29  1  0  0  0  0
 28 27  1  0  0  0  0
 26 27  2  0  0  0  0
A    1
CAB
A    2
CBC
A    3
CAC
A    4
CAD
A    5
CAN
A    6
CAT
A    7
OAE
A    8
N
A    9
CD2
A   10
CG
A   11
OD1
A   12
CB
A   13
CA
A   14
C
A   15
O
A   16
NAR
A   17
CAM
A   18
CAV
A   19
CAI
A   20
CAK
A   21
CAH
A   22
CAJ
A   23
CAX
A   24
CAY
A   25
SAS
A   26
CAL
A   27
NAQ
A   28
CAW
A   29
CAA
M  END
>  <InstanceId>
4W9F_3JU_C_301

>  <ChemCompId>
3JU

>  <PdbId>
4W9F

>  <ChainId>
C

>  <ResidueNumber>
301

>  <InsertionCode>


>  <Model>
1

>  <AltIds>


>  <MissingHeavyAtoms>
0

>  <ObservedFormula>
C22 N3 O3 S

>  <Name>
(4R)-1-(3,3-dimethylbutanoyl)-4-hydroxy-N-[4-(4-methyl-1,3-thiazol-5-yl)benzyl]-L-prolinamide

>  <SystematicName>
(2S,4R)-1-(3,3-dimethylbutanoyl)-N-[[4-(4-methyl-1,3-thiazol-5-yl)phenyl]methyl]-4-oxidanyl-pyrrolidine-2-carboxamide

>  <Synonyms>


>  <Type>
NON-POLYMER

>  <Formula>
C22 H29 N3 O3 S

>  <MolecularWeight>
415.549

>  <ModifiedDate>
2014-09-05

>  <Parent>


>  <OneLetterCode>


>  <SubcomponentList>


>  <AmbiguousFlag>
N

>  <InChI>
InChI=1S/C22H29N3O3S/c1-14-20(29-13-24-14)16-7-5-15(6-8-16)11-23-21(28)18-9-17(26)12-25(18)19(27)10-22(2,3)4/h5-8,13,17-18,26H,9-12H2,1-4H3,(H,23,28)/t17-,18+/m1/s1

>  <InChIKey>
BULPVMQBJAMSRN-MSOLQXFVSA-N

>  <SMILES>
Cc1c(scn1)c2ccc(cc2)CNC(=O)[C@@H]3C[C@H](CN3C(=O)CC(C)(C)C)O

$$$$
