4DST_9LI_A_201


 18 19  0  0  0  0  0  0  0  0999 V2000
   23.9510   14.8637    7.9366 C   0  0  0  0  0  0  0  0  0  0  0  0
   26.7705   14.0034   13.0996 Cl  0  0  0  0  0  0  0  0  0  0  0  0
   24.0203   15.0432    9.4288 C   0  0  0  0  0  0  0  0  0  0  0  0
   22.6275   16.6957   15.2362 Cl  0  0  0  0  0  0  0  0  0  0  0  0
   25.0008   14.5892   10.2349 C   0  0  0  0  0  0  0  0  0  0  0  0
   24.6575   14.9921   11.6126 C   0  0  0  0  0  0  0  0  0  0  0  0
   23.4301   15.6862   11.4943 C   0  0  0  0  0  0  0  0  0  0  0  0
   23.0754   15.6969   10.1647 N   0  0  0  0  0  0  0  0  0  0  0  0
   22.8222   16.2043   12.6258 C   0  0  0  0  0  0  0  0  0  0  0  0
   23.4196   16.0391   13.8509 C   0  0  0  0  0  0  0  0  0  0  0  0
   24.6240   15.3655   13.9909 C   0  0  0  0  0  0  0  0  0  0  0  0
   25.2532   14.8351   12.8826 C   0  0  0  0  0  0  0  0  0  0  0  0
   22.2619   16.1137    9.7993 H   0  0  0  0  0  0  0  0  0  0  0  0
   26.2079   13.8083    9.7837 C   0  0  0  0  0  0  0  0  0  0  0  0
   26.0642   12.3382   10.1947 C   0  0  0  0  0  0  0  0  0  0  0  0
   27.2889   11.6060    9.8432 N   0  0  0  0  0  0  0  0  0  0  0  0
   27.4415   11.6620    8.8363 H   0  0  0  0  0  0  0  0  0  0  0  0
   27.1915   10.6286   10.1185 H   0  0  0  0  0  0  0  0  0  0  0  0
  3  1  1  0  0  0
  2 12  1  0  0  0
  5  3  2  0  0  0
  8  3  1  0  0  0
  4 10  1  0  0  0
  6  5  1  0  0  0
  5 14  1  0  0  0
 12  6  2  0  0  0
  6  7  1  0  0  0
  9  7  2  0  0  0
  7  8  1  0  0  0
 10  9  1  0  0  0
 11 10  2  0  0  0
 11 12  1  0  0  0
 14 15  1  0  0  0
 15 16  1  0  0  0
  8 13  1  0  0  0
 16 17  1  0  0  0
 16 18  1  0  0  0
M  END
> <minimizedAffinity>
-5.74409

$$$$
4DST_9LI_A_201


 18 19  0  0  0  0  0  0  0  0999 V2000
   23.8064   15.0712    8.5298 C   0  0  0  0  0  0  0  0  0  0  0  0
   28.3695   16.2593   12.1510 Cl  0  0  0  0  0  0  0  0  0  0  0  0
   25.0542   14.6255    9.2427 C   0  0  0  0  0  0  0  0  0  0  0  0
   29.7515   11.1313   11.2728 Cl  0  0  0  0  0  0  0  0  0  0  0  0
   25.8221   15.3897   10.0448 C   0  0  0  0  0  0  0  0  0  0  0  0
   26.9338   14.5446   10.5226 C   0  0  0  0  0  0  0  0  0  0  0  0
   26.7154   13.2818    9.9227 C   0  0  0  0  0  0  0  0  0  0  0  0
   25.5748   13.3672    9.1577 N   0  0  0  0  0  0  0  0  0  0  0  0
   27.5973   12.2426   10.1692 C   0  0  0  0  0  0  0  0  0  0  0  0
   28.6742   12.4503   10.9952 C   0  0  0  0  0  0  0  0  0  0  0  0
   28.9066   13.6783   11.5969 C   0  0  0  0  0  0  0  0  0  0  0  0
   28.0475   14.7344   11.3686 C   0  0  0  0  0  0  0  0  0  0  0  0
   25.1918   12.6307    8.6283 H   0  0  0  0  0  0  0  0  0  0  0  0
   25.5710   16.8400   10.3673 C   0  0  0  0  0  0  0  0  0  0  0  0
   24.9128   16.9634   11.7465 C   0  0  0  0  0  0  0  0  0  0  0  0
   23.4833   16.6391   11.6415 N   0  0  0  0  0  0  0  0  0  0  0  0
   23.0345   17.2865   10.9935 H   0  0  0  0  0  0  0  0  0  0  0  0
   23.0477   16.7208   12.5601 H   0  0  0  0  0  0  0  0  0  0  0  0
  3  1  1  0  0  0
  2 12  1  0  0  0
  5  3  2  0  0  0
  8  3  1  0  0  0
  4 10  1  0  0  0
  6  5  1  0  0  0
  5 14  1  0  0  0
 12  6  2  0  0  0
  6  7  1  0  0  0
  9  7  2  0  0  0
  7  8  1  0  0  0
 10  9  1  0  0  0
 11 10  2  0  0  0
 11 12  1  0  0  0
 14 15  1  0  0  0
 15 16  1  0  0  0
  8 13  1  0  0  0
 16 17  1  0  0  0
 16 18  1  0  0  0
M  END
> <minimizedAffinity>
-5.57343

$$$$
4DST_9LI_A_201


 18 19  0  0  0  0  0  0  0  0999 V2000
   27.8045   13.1061   13.6894 C   0  0  0  0  0  0  0  0  0  0  0  0
   24.3845   14.8805    9.1616 Cl  0  0  0  0  0  0  0  0  0  0  0  0
   26.5122   13.6862   13.1822 C   0  0  0  0  0  0  0  0  0  0  0  0
   20.8059   16.0942   12.9954 Cl  0  0  0  0  0  0  0  0  0  0  0  0
   26.2042   13.9212   11.8911 C   0  0  0  0  0  0  0  0  0  0  0  0
   24.8430   14.4911   11.8618 C   0  0  0  0  0  0  0  0  0  0  0  0
   24.4436   14.5506   13.2180 C   0  0  0  0  0  0  0  0  0  0  0  0
   25.4742   14.0585   13.9857 N   0  0  0  0  0  0  0  0  0  0  0  0
   23.1929   15.0481   13.5444 C   0  0  0  0  0  0  0  0  0  0  0  0
   22.3535   15.4772   12.5463 C   0  0  0  0  0  0  0  0  0  0  0  0
   22.7219   15.4253   11.2100 C   0  0  0  0  0  0  0  0  0  0  0  0
   23.9629   14.9375   10.8528 C   0  0  0  0  0  0  0  0  0  0  0  0
   25.4640   13.9859   14.9674 H   0  0  0  0  0  0  0  0  0  0  0  0
   27.1082   13.6503   10.7165 C   0  0  0  0  0  0  0  0  0  0  0  0
   26.6892   12.3491   10.0223 C   0  0  0  0  0  0  0  0  0  0  0  0
   27.8636   11.4833    9.8471 N   0  0  0  0  0  0  0  0  0  0  0  0
   28.5577   11.9635    9.2744 H   0  0  0  0  0  0  0  0  0  0  0  0
   27.5823   10.6180    9.3861 H   0  0  0  0  0  0  0  0  0  0  0  0
  3  1  1  0  0  0
  2 12  1  0  0  0
  5  3  2  0  0  0
  8  3  1  0  0  0
  4 10  1  0  0  0
  6  5  1  0  0  0
  5 14  1  0  0  0
 12  6  2  0  0  0
  6  7  1  0  0  0
  9  7  2  0  0  0
  7  8  1  0  0  0
 10  9  1  0  0  0
 11 10  2  0  0  0
 11 12  1  0  0  0
 14 15  1  0  0  0
 15 16  1  0  0  0
  8 13  1  0  0  0
 16 17  1  0  0  0
 16 18  1  0  0  0
M  END
> <minimizedAffinity>
-5.43166

$$$$
4DST_9LI_A_201


 18 19  0  0  0  0  0  0  0  0999 V2000
   24.8440   17.9167   10.9060 C   0  0  0  0  0  0  0  0  0  0  0  0
   26.2928   12.2121   10.0669 Cl  0  0  0  0  0  0  0  0  0  0  0  0
   25.8437   16.7973   11.0120 C   0  0  0  0  0  0  0  0  0  0  0  0
   31.0294   13.6211   12.2017 Cl  0  0  0  0  0  0  0  0  0  0  0  0
   25.6422   15.5192   10.6339 C   0  0  0  0  0  0  0  0  0  0  0  0
   26.8850   14.7762   10.9201 C   0  0  0  0  0  0  0  0  0  0  0  0
   27.7625   15.7354   11.4789 C   0  0  0  0  0  0  0  0  0  0  0  0
   27.1017   16.9417   11.5201 N   0  0  0  0  0  0  0  0  0  0  0  0
   29.0372   15.3567   11.8663 C   0  0  0  0  0  0  0  0  0  0  0  0
   29.4353   14.0530   11.7020 C   0  0  0  0  0  0  0  0  0  0  0  0
   28.5938   13.0963   11.1536 C   0  0  0  0  0  0  0  0  0  0  0  0
   27.3165   13.4419   10.7604 C   0  0  0  0  0  0  0  0  0  0  0  0
   27.4799   17.7828   11.8645 H   0  0  0  0  0  0  0  0  0  0  0  0
   24.3679   14.9769   10.0402 C   0  0  0  0  0  0  0  0  0  0  0  0
   24.3038   15.3093    8.5449 C   0  0  0  0  0  0  0  0  0  0  0  0
   24.4749   14.0796    7.7586 N   0  0  0  0  0  0  0  0  0  0  0  0
   25.3803   13.6618    7.9735 H   0  0  0  0  0  0  0  0  0  0  0  0
   24.4309   14.3029    6.7644 H   0  0  0  0  0  0  0  0  0  0  0  0
  3  1  1  0  0  0
  2 12  1  0  0  0
  5  3  2  0  0  0
  8  3  1  0  0  0
  4 10  1  0  0  0
  6  5  1  0  0  0
  5 14  1  0  0  0
 12  6  2  0  0  0
  6  7  1  0  0  0
  9  7  2  0  0  0
  7  8  1  0  0  0
 10  9  1  0  0  0
 11 10  2  0  0  0
 11 12  1  0  0  0
 14 15  1  0  0  0
 15 16  1  0  0  0
  8 13  1  0  0  0
 16 17  1  0  0  0
 16 18  1  0  0  0
M  END
> <minimizedAffinity>
-5.29138

$$$$
4DST_9LI_A_201


 18 19  0  0  0  0  0  0  0  0999 V2000
   26.0725   13.3066    9.8196 C   0  0  0  0  0  0  0  0  0  0  0  0
   21.3857   15.6828   12.6005 Cl  0  0  0  0  0  0  0  0  0  0  0  0
   25.2824   13.5328   11.0799 C   0  0  0  0  0  0  0  0  0  0  0  0
   23.4661   13.3863   17.0023 Cl  0  0  0  0  0  0  0  0  0  0  0  0
   24.1434   14.2466   11.1813 C   0  0  0  0  0  0  0  0  0  0  0  0
   23.7216   14.2005   12.5950 C   0  0  0  0  0  0  0  0  0  0  0  0
   24.7081   13.4213   13.2444 C   0  0  0  0  0  0  0  0  0  0  0  0
   25.6334   13.0365   12.3014 N   0  0  0  0  0  0  0  0  0  0  0  0
   24.6084   13.1820   14.6050 C   0  0  0  0  0  0  0  0  0  0  0  0
   23.5510   13.7037   15.3083 C   0  0  0  0  0  0  0  0  0  0  0  0
   22.5704   14.4675   14.6926 C   0  0  0  0  0  0  0  0  0  0  0  0
   22.6431   14.7261   13.3386 C   0  0  0  0  0  0  0  0  0  0  0  0
   26.4294   12.4857   12.4812 H   0  0  0  0  0  0  0  0  0  0  0  0
   23.4567   14.9576   10.0441 C   0  0  0  0  0  0  0  0  0  0  0  0
   24.0345   16.3686    9.8834 C   0  0  0  0  0  0  0  0  0  0  0  0
   23.4614   17.0030    8.6882 N   0  0  0  0  0  0  0  0  0  0  0  0
   23.6922   16.4474    7.8645 H   0  0  0  0  0  0  0  0  0  0  0  0
   23.8463   17.9418    8.5839 H   0  0  0  0  0  0  0  0  0  0  0  0
  3  1  1  0  0  0
  2 12  1  0  0  0
  5  3  2  0  0  0
  8  3  1  0  0  0
  4 10  1  0  0  0
  6  5  1  0  0  0
  5 14  1  0  0  0
 12  6  2  0  0  0
  6  7  1  0  0  0
  9  7  2  0  0  0
  7  8  1  0  0  0
 10  9  1  0  0  0
 11 10  2  0  0  0
 11 12  1  0  0  0
 14 15  1  0  0  0
 15 16  1  0  0  0
  8 13  1  0  0  0
 16 17  1  0  0  0
 16 18  1  0  0  0
M  END
> <minimizedAffinity>
-5.21662

$$$$
4DST_9LI_A_201


 18 19  0  0  0  0  0  0  0  0999 V2000
   29.9775   11.1382   11.2211 C   0  0  0  0  0  0  0  0  0  0  0  0
   27.5694   16.4775   12.2405 Cl  0  0  0  0  0  0  0  0  0  0  0  0
   28.8897   12.1465   10.9684 C   0  0  0  0  0  0  0  0  0  0  0  0
   23.7826   14.8776    8.7652 Cl  0  0  0  0  0  0  0  0  0  0  0  0
   28.7962   13.3668   11.5335 C   0  0  0  0  0  0  0  0  0  0  0  0
   27.5784   14.0059   10.9979 C   0  0  0  0  0  0  0  0  0  0  0  0
   27.0236   13.0499   10.1144 C   0  0  0  0  0  0  0  0  0  0  0  0
   27.8392   11.9416   10.1221 N   0  0  0  0  0  0  0  0  0  0  0  0
   25.8521   13.3409    9.4352 C   0  0  0  0  0  0  0  0  0  0  0  0
   25.2427   14.5561    9.6267 C   0  0  0  0  0  0  0  0  0  0  0  0
   25.7698   15.5100   10.4849 C   0  0  0  0  0  0  0  0  0  0  0  0
   26.9344   15.2488   11.1784 C   0  0  0  0  0  0  0  0  0  0  0  0
   27.6875   11.1234    9.5959 H   0  0  0  0  0  0  0  0  0  0  0  0
   29.7672   13.9409   12.5325 C   0  0  0  0  0  0  0  0  0  0  0  0
   30.7093   14.9310   11.8377 C   0  0  0  0  0  0  0  0  0  0  0  0
   31.9260   14.2313   11.4022 N   0  0  0  0  0  0  0  0  0  0  0  0
   32.3962   13.8298   12.2134 H   0  0  0  0  0  0  0  0  0  0  0  0
   32.5507   14.8916   10.9394 H   0  0  0  0  0  0  0  0  0  0  0  0
  3  1  1  0  0  0
  2 12  1  0  0  0
  5  3  2  0  0  0
  8  3  1  0  0  0
  4 10  1  0  0  0
  6  5  1  0  0  0
  5 14  1  0  0  0
 12  6  2  0  0  0
  6  7  1  0  0  0
  9  7  2  0  0  0
  7  8  1  0  0  0
 10  9  1  0  0  0
 11 10  2  0  0  0
 11 12  1  0  0  0
 14 15  1  0  0  0
 15 16  1  0  0  0
  8 13  1  0  0  0
 16 17  1  0  0  0
 16 18  1  0  0  0
M  END
> <minimizedAffinity>
-5.21038

$$$$
4DST_9LI_A_201


 18 19  0  0  0  0  0  0  0  0999 V2000
   23.4125   16.2562    8.6451 C   0  0  0  0  0  0  0  0  0  0  0  0
   26.4175   13.1774   12.7482 Cl  0  0  0  0  0  0  0  0  0  0  0  0
   23.4948   15.6568   10.0226 C   0  0  0  0  0  0  0  0  0  0  0  0
   22.0621   13.9710   15.8106 Cl  0  0  0  0  0  0  0  0  0  0  0  0
   24.5347   14.9576   10.5195 C   0  0  0  0  0  0  0  0  0  0  0  0
   24.1809   14.5657   11.8978 C   0  0  0  0  0  0  0  0  0  0  0  0
   22.8852   15.0949   12.1059 C   0  0  0  0  0  0  0  0  0  0  0  0
   22.5027   15.7451   10.9551 N   0  0  0  0  0  0  0  0  0  0  0  0
   22.2508   14.9000   13.3217 C   0  0  0  0  0  0  0  0  0  0  0  0
   22.8885   14.1955   14.3126 C   0  0  0  0  0  0  0  0  0  0  0  0
   24.1598   13.6704   14.1327 C   0  0  0  0  0  0  0  0  0  0  0  0
   24.8170   13.8452   12.9314 C   0  0  0  0  0  0  0  0  0  0  0  0
   21.6421   16.2051   10.8241 H   0  0  0  0  0  0  0  0  0  0  0  0
   25.8070   14.6422    9.7764 C   0  0  0  0  0  0  0  0  0  0  0  0
   26.9594   15.4896   10.3280 C   0  0  0  0  0  0  0  0  0  0  0  0
   26.6191   16.9151   10.2197 N   0  0  0  0  0  0  0  0  0  0  0  0
   26.4626   17.1538    9.2405 H   0  0  0  0  0  0  0  0  0  0  0  0
   27.3866   17.4769   10.5881 H   0  0  0  0  0  0  0  0  0  0  0  0
  3  1  1  0  0  0
  2 12  1  0  0  0
  5  3  2  0  0  0
  8  3  1  0  0  0
  4 10  1  0  0  0
  6  5  1  0  0  0
  5 14  1  0  0  0
 12  6  2  0  0  0
  6  7  1  0  0  0
  9  7  2  0  0  0
  7  8  1  0  0  0
 10  9  1  0  0  0
 11 10  2  0  0  0
 11 12  1  0  0  0
 14 15  1  0  0  0
 15 16  1  0  0  0
  8 13  1  0  0  0
 16 17  1  0  0  0
 16 18  1  0  0  0
M  END
> <minimizedAffinity>
-5.03594

$$$$
4DST_9LI_A_201


 18 19  0  0  0  0  0  0  0  0999 V2000
   25.6194   12.7518   15.5996 C   0  0  0  0  0  0  0  0  0  0  0  0
   21.8827   16.5012   12.8932 Cl  0  0  0  0  0  0  0  0  0  0  0  0
   25.0850   13.3747   14.3386 C   0  0  0  0  0  0  0  0  0  0  0  0
   24.2215   14.7716    8.3638 Cl  0  0  0  0  0  0  0  0  0  0  0  0
   24.0981   14.2901   14.2660 C   0  0  0  0  0  0  0  0  0  0  0  0
   23.9057   14.6150   12.8391 C   0  0  0  0  0  0  0  0  0  0  0  0
   24.8480   13.8133   12.1525 C   0  0  0  0  0  0  0  0  0  0  0  0
   25.5406   13.0782   13.0872 N   0  0  0  0  0  0  0  0  0  0  0  0
   24.9286   13.8787   10.7713 C   0  0  0  0  0  0  0  0  0  0  0  0
   24.0924   14.7232   10.0838 C   0  0  0  0  0  0  0  0  0  0  0  0
   23.1634   15.5208   10.7355 C   0  0  0  0  0  0  0  0  0  0  0  0
   23.0568   15.4761   12.1111 C   0  0  0  0  0  0  0  0  0  0  0  0
   26.2573   12.4348   12.8834 H   0  0  0  0  0  0  0  0  0  0  0  0
   23.3425   14.8518   15.4424 C   0  0  0  0  0  0  0  0  0  0  0  0
   22.3011   13.8371   15.9287 C   0  0  0  0  0  0  0  0  0  0  0  0
   21.0969   13.9265   15.0912 N   0  0  0  0  0  0  0  0  0  0  0  0
   20.7076   14.8672   15.1548 H   0  0  0  0  0  0  0  0  0  0  0  0
   20.4059   13.2500   15.4158 H   0  0  0  0  0  0  0  0  0  0  0  0
  3  1  1  0  0  0
  2 12  1  0  0  0
  5  3  2  0  0  0
  8  3  1  0  0  0
  4 10  1  0  0  0
  6  5  1  0  0  0
  5 14  1  0  0  0
 12  6  2  0  0  0
  6  7  1  0  0  0
  9  7  2  0  0  0
  7  8  1  0  0  0
 10  9  1  0  0  0
 11 10  2  0  0  0
 11 12  1  0  0  0
 14 15  1  0  0  0
 15 16  1  0  0  0
  8 13  1  0  0  0
 16 17  1  0  0  0
 16 18  1  0  0  0
M  END
> <minimizedAffinity>
-4.94608

$$$$
4DST_9LI_A_201


 18 19  0  0  0  0  0  0  0  0999 V2000
   22.5642   13.9261   13.6134 C   0  0  0  0  0  0  0  0  0  0  0  0
   26.4364   16.2445    9.7435 Cl  0  0  0  0  0  0  0  0  0  0  0  0
   23.9601   14.0085   13.0582 C   0  0  0  0  0  0  0  0  0  0  0  0
   30.0096   13.0189   12.1529 Cl  0  0  0  0  0  0  0  0  0  0  0  0
   24.3598   14.7935   12.0378 C   0  0  0  0  0  0  0  0  0  0  0  0
   25.8014   14.5497   11.8357 C   0  0  0  0  0  0  0  0  0  0  0  0
   26.1472   13.5820   12.8085 C   0  0  0  0  0  0  0  0  0  0  0  0
   25.0133   13.2784   13.5266 N   0  0  0  0  0  0  0  0  0  0  0  0
   27.4522   13.1248   12.8889 C   0  0  0  0  0  0  0  0  0  0  0  0
   28.3966   13.6178   12.0229 C   0  0  0  0  0  0  0  0  0  0  0  0
   28.0818   14.5690   11.0636 C   0  0  0  0  0  0  0  0  0  0  0  0
   26.7895   15.0423   10.9565 C   0  0  0  0  0  0  0  0  0  0  0  0
   24.9686   12.6313   14.2672 H   0  0  0  0  0  0  0  0  0  0  0  0
   23.4723   15.7302   11.2598 C   0  0  0  0  0  0  0  0  0  0  0  0
   23.2125   15.1631    9.8593 C   0  0  0  0  0  0  0  0  0  0  0  0
   22.9088   16.2613    8.9311 N   0  0  0  0  0  0  0  0  0  0  0  0
   22.0790   16.7592    9.2535 H   0  0  0  0  0  0  0  0  0  0  0  0
   22.7373   15.8818    8.0000 H   0  0  0  0  0  0  0  0  0  0  0  0
  3  1  1  0  0  0
  2 12  1  0  0  0
  5  3  2  0  0  0
  8  3  1  0  0  0
  4 10  1  0  0  0
  6  5  1  0  0  0
  5 14  1  0  0  0
 12  6  2  0  0  0
  6  7  1  0  0  0
  9  7  2  0  0  0
  7  8  1  0  0  0
 10  9  1  0  0  0
 11 10  2  0  0  0
 11 12  1  0  0  0
 14 15  1  0  0  0
 15 16  1  0  0  0
  8 13  1  0  0  0
 16 17  1  0  0  0
 16 18  1  0  0  0
M  END
> <minimizedAffinity>
-4.80240

$$$$
4DST_9LI_A_201


 18 19  0  0  0  0  0  0  0  0999 V2000
   22.1153   15.6771   14.7606 C   0  0  0  0  0  0  0  0  0  0  0  0
   26.3256   12.8833   11.6280 Cl  0  0  0  0  0  0  0  0  0  0  0  0
   22.7520   15.3475   13.4378 C   0  0  0  0  0  0  0  0  0  0  0  0
   23.9366   15.1307    7.3596 Cl  0  0  0  0  0  0  0  0  0  0  0  0
   23.8373   14.5691   13.2551 C   0  0  0  0  0  0  0  0  0  0  0  0
   24.1055   14.5244   11.8044 C   0  0  0  0  0  0  0  0  0  0  0  0
   23.0988   15.3308   11.2226 C   0  0  0  0  0  0  0  0  0  0  0  0
   22.3017   15.8112   12.2362 N   0  0  0  0  0  0  0  0  0  0  0  0
   23.0654   15.5030    9.8487 C   0  0  0  0  0  0  0  0  0  0  0  0
   24.0105   14.8870    9.0662 C   0  0  0  0  0  0  0  0  0  0  0  0
   25.0045   14.0893    9.6137 C   0  0  0  0  0  0  0  0  0  0  0  0
   25.0662   13.9006   10.9798 C   0  0  0  0  0  0  0  0  0  0  0  0
   21.5232   16.4011   12.1129 H   0  0  0  0  0  0  0  0  0  0  0  0
   24.6176   13.8910   14.3514 C   0  0  0  0  0  0  0  0  0  0  0  0
   23.9203   12.5888   14.7619 C   0  0  0  0  0  0  0  0  0  0  0  0
   24.7819   11.8382   15.6860 N   0  0  0  0  0  0  0  0  0  0  0  0
   25.6646   11.6181   15.2248 H   0  0  0  0  0  0  0  0  0  0  0  0
   24.3156   10.9729   15.9586 H   0  0  0  0  0  0  0  0  0  0  0  0
  3  1  1  0  0  0
  2 12  1  0  0  0
  5  3  2  0  0  0
  8  3  1  0  0  0
  4 10  1  0  0  0
  6  5  1  0  0  0
  5 14  1  0  0  0
 12  6  2  0  0  0
  6  7  1  0  0  0
  9  7  2  0  0  0
  7  8  1  0  0  0
 10  9  1  0  0  0
 11 10  2  0  0  0
 11 12  1  0  0  0
 14 15  1  0  0  0
 15 16  1  0  0  0
  8 13  1  0  0  0
 16 17  1  0  0  0
 16 18  1  0  0  0
M  END
> <minimizedAffinity>
-4.78633

$$$$
