3E5A_VX6_A_500


 36 40  0  0  0  0  0  0  0  0999 V2000
   23.9321   29.4450   20.0091 C   0  0  0  0  0  0  0  0  0  0  0  0
   24.0170   29.5877   18.6427 C   0  0  0  0  0  0  0  0  0  0  0  0
   24.8895   28.7411   17.9797 C   0  0  0  0  0  0  0  0  0  0  0  0
   25.6140   27.8176   18.6456 N   0  0  0  0  0  0  0  0  0  0  0  0
   25.4704   27.7429   19.9657 C   0  0  0  0  0  0  0  0  0  0  0  0
   24.6719   28.5355   20.6598 N   0  0  0  0  0  0  0  0  0  0  0  0
   20.7839   31.5791   21.8032 N   0  0  0  0  0  0  0  0  0  0  0  0
   21.5554   32.2196   20.7477 C   0  0  0  0  0  0  0  0  0  0  0  0
   22.4724   31.3252   19.9428 C   0  0  0  0  0  0  0  0  0  0  0  0
   23.0864   30.2847   20.7283 N   0  0  0  0  0  0  0  0  0  0  0  0
   22.5162   29.7464   21.9620 C   0  0  0  0  0  0  0  0  0  0  0  0
   21.0552   30.1614   22.0883 C   0  0  0  0  0  0  0  0  0  0  0  0
   19.4035   31.6654   21.3882 C   0  0  0  0  0  0  0  0  0  0  0  0
   24.9624   28.9172   16.5689 N   0  0  0  0  0  0  0  0  0  0  0  0
   24.2819   29.5185   16.1889 H   0  0  0  0  0  0  0  0  0  0  0  0
   25.8334   28.3789   15.6583 C   0  0  0  0  0  0  0  0  0  0  0  0
   27.1737   28.0046   15.9381 C   0  0  0  0  0  0  0  0  0  0  0  0
   27.6770   27.4931   14.7624 C   0  0  0  0  0  0  0  0  0  0  0  0
   26.6634   27.5852   13.8472 N   0  0  0  0  0  0  0  0  0  0  0  0
   25.5414   28.1087   14.3730 N   0  0  0  0  0  0  0  0  0  0  0  0
   28.9919   26.9286   14.4173 C   0  0  0  0  0  0  0  0  0  0  0  0
   24.6847   28.2621   13.9129 H   0  0  0  0  0  0  0  0  0  0  0  0
   26.4284   26.5729   20.9121 S   0  0  0  0  0  0  0  0  0  0  0  0
   27.3557   25.8066   19.6211 C   0  0  0  0  0  0  0  0  0  0  0  0
   28.5055   26.4096   19.1639 C   0  0  0  0  0  0  0  0  0  0  0  0
   29.2163   25.8366   18.1397 C   0  0  0  0  0  0  0  0  0  0  0  0
   28.7795   24.6558   17.5904 C   0  0  0  0  0  0  0  0  0  0  0  0
   27.6409   24.0362   18.0615 C   0  0  0  0  0  0  0  0  0  0  0  0
   26.9284   24.6164   19.0800 C   0  0  0  0  0  0  0  0  0  0  0  0
   29.4644   24.0247   16.5427 N   0  0  0  0  0  0  0  0  0  0  0  0
   30.3631   22.9807   16.6668 C   0  0  0  0  0  0  0  0  0  0  0  0
   30.6535   22.2952   17.6642 O   0  0  0  0  0  0  0  0  0  0  0  0
   29.2891   24.3560   15.6323 H   0  0  0  0  0  0  0  0  0  0  0  0
   31.0051   22.7313   15.3607 C   0  0  0  0  0  0  0  0  0  0  0  0
   30.5898   23.6123   14.2238 C   0  0  0  0  0  0  0  0  0  0  0  0
   31.9551   23.7666   14.8325 C   0  0  0  0  0  0  0  0  0  0  0  0
  7  8  1  0  0  0
  7 12  1  0  0  0
  7 13  1  0  0  0
  8  9  1  0  0  0
  9 10  1  0  0  0
 10 11  1  0  0  0
 10  1  1  0  0  0
 11 12  1  0  0  0
  1  2  1  0  0  0
  1  6  2  0  0  0
  2  3  2  0  0  0
  3  4  1  0  0  0
  3 14  1  0  0  0
  4  5  2  0  0  0
  5  6  1  0  0  0
  5 23  1  0  0  0
 14 16  1  0  0  0
 16 17  2  0  0  0
 16 20  1  0  0  0
 17 18  1  0  0  0
 18 19  2  0  0  0
 18 21  1  0  0  0
 19 20  1  0  0  0
 23 24  1  0  0  0
 24 25  1  0  0  0
 24 29  2  0  0  0
 25 26  2  0  0  0
 26 27  1  0  0  0
 27 28  2  0  0  0
 27 30  1  0  0  0
 28 29  1  0  0  0
 30 31  1  0  0  0
 31 32  2  0  0  0
 31 34  1  0  0  0
 34 35  1  0  0  0
 34 36  1  0  0  0
 35 36  1  0  0  0
 14 15  1  0  0  0
 20 22  1  0  0  0
 30 33  1  0  0  0
M  END
> <minimizedAffinity>
-9.58705

$$$$
3E5A_VX6_A_500


 36 40  0  0  0  0  0  0  0  0999 V2000
   21.7877   27.7413   23.0589 C   0  0  0  0  0  0  0  0  0  0  0  0
   20.4222   27.7161   22.8869 C   0  0  0  0  0  0  0  0  0  0  0  0
   19.8814   28.6727   22.0445 C   0  0  0  0  0  0  0  0  0  0  0  0
   20.6612   29.5793   21.4189 N   0  0  0  0  0  0  0  0  0  0  0  0
   21.9724   29.5326   21.6368 C   0  0  0  0  0  0  0  0  0  0  0  0
   22.5482   28.6597   22.4455 N   0  0  0  0  0  0  0  0  0  0  0  0
   24.2766   25.2974   25.4077 N   0  0  0  0  0  0  0  0  0  0  0  0
   23.6994   24.7480   24.1892 C   0  0  0  0  0  0  0  0  0  0  0  0
   23.0592   25.7361   23.2393 C   0  0  0  0  0  0  0  0  0  0  0  0
   22.3819   26.8157   23.9119 N   0  0  0  0  0  0  0  0  0  0  0  0
   22.7159   27.2790   25.2575 C   0  0  0  0  0  0  0  0  0  0  0  0
   24.0735   26.7293   25.6787 C   0  0  0  0  0  0  0  0  0  0  0  0
   25.7014   25.0912   25.2949 C   0  0  0  0  0  0  0  0  0  0  0  0
   18.4667   28.6275   21.8925 N   0  0  0  0  0  0  0  0  0  0  0  0
   18.0330   27.8278   22.2689 H   0  0  0  0  0  0  0  0  0  0  0  0
   17.6153   29.5249   21.3031 C   0  0  0  0  0  0  0  0  0  0  0  0
   16.2170   29.3373   21.1472 C   0  0  0  0  0  0  0  0  0  0  0  0
   15.7483   30.4776   20.5329 C   0  0  0  0  0  0  0  0  0  0  0  0
   16.8423   31.2766   20.3372 N   0  0  0  0  0  0  0  0  0  0  0  0
   17.9751   30.7215   20.8040 N   0  0  0  0  0  0  0  0  0  0  0  0
   14.3963   30.8904   20.1227 C   0  0  0  0  0  0  0  0  0  0  0  0
   18.8795   31.1099   20.7845 H   0  0  0  0  0  0  0  0  0  0  0  0
   23.0561   30.7270   20.8743 S   0  0  0  0  0  0  0  0  0  0  0  0
   23.9848   29.6739   19.8056 C   0  0  0  0  0  0  0  0  0  0  0  0
   24.8024   28.7092   20.3493 C   0  0  0  0  0  0  0  0  0  0  0  0
   25.5515   27.9061   19.5269 C   0  0  0  0  0  0  0  0  0  0  0  0
   25.4654   28.0640   18.1651 C   0  0  0  0  0  0  0  0  0  0  0  0
   24.6295   29.0135   17.6156 C   0  0  0  0  0  0  0  0  0  0  0  0
   23.8885   29.8202   18.4414 C   0  0  0  0  0  0  0  0  0  0  0  0
   26.2065   27.2728   17.2764 N   0  0  0  0  0  0  0  0  0  0  0  0
   27.5839   27.2558   17.1525 C   0  0  0  0  0  0  0  0  0  0  0  0
   28.4530   27.8000   17.8581 O   0  0  0  0  0  0  0  0  0  0  0  0
   25.6984   26.6724   16.6843 H   0  0  0  0  0  0  0  0  0  0  0  0
   27.9589   26.4376   15.9819 C   0  0  0  0  0  0  0  0  0  0  0  0
   28.0577   27.1450   14.6662 C   0  0  0  0  0  0  0  0  0  0  0  0
   29.3045   26.6721   15.3592 C   0  0  0  0  0  0  0  0  0  0  0  0
  7  8  1  0  0  0
  7 12  1  0  0  0
  7 13  1  0  0  0
  8  9  1  0  0  0
  9 10  1  0  0  0
 10 11  1  0  0  0
 10  1  1  0  0  0
 11 12  1  0  0  0
  1  2  1  0  0  0
  1  6  2  0  0  0
  2  3  2  0  0  0
  3  4  1  0  0  0
  3 14  1  0  0  0
  4  5  2  0  0  0
  5  6  1  0  0  0
  5 23  1  0  0  0
 14 16  1  0  0  0
 16 17  2  0  0  0
 16 20  1  0  0  0
 17 18  1  0  0  0
 18 19  2  0  0  0
 18 21  1  0  0  0
 19 20  1  0  0  0
 23 24  1  0  0  0
 24 25  1  0  0  0
 24 29  2  0  0  0
 25 26  2  0  0  0
 26 27  1  0  0  0
 27 28  2  0  0  0
 27 30  1  0  0  0
 28 29  1  0  0  0
 30 31  1  0  0  0
 31 32  2  0  0  0
 31 34  1  0  0  0
 34 35  1  0  0  0
 34 36  1  0  0  0
 35 36  1  0  0  0
 14 15  1  0  0  0
 20 22  1  0  0  0
 30 33  1  0  0  0
M  END
> <minimizedAffinity>
-8.36898

$$$$
3E5A_VX6_A_500


 36 40  0  0  0  0  0  0  0  0999 V2000
   24.9805   25.3414   23.9387 C   0  0  0  0  0  0  0  0  0  0  0  0
   23.6317   25.3257   23.6644 C   0  0  0  0  0  0  0  0  0  0  0  0
   23.1899   26.1665   22.6567 C   0  0  0  0  0  0  0  0  0  0  0  0
   24.0461   26.9558   21.9746 N   0  0  0  0  0  0  0  0  0  0  0  0
   25.3349   26.9080   22.3000 C   0  0  0  0  0  0  0  0  0  0  0  0
   25.8170   26.1445   23.2654 N   0  0  0  0  0  0  0  0  0  0  0  0
   27.1317   22.8329   26.5396 N   0  0  0  0  0  0  0  0  0  0  0  0
   26.0350   22.2686   25.7660 C   0  0  0  0  0  0  0  0  0  0  0  0
   25.4880   23.1246   24.6449 C   0  0  0  0  0  0  0  0  0  0  0  0
   25.4759   24.5315   24.9566 N   0  0  0  0  0  0  0  0  0  0  0  0
   26.3712   25.1628   25.9244 C   0  0  0  0  0  0  0  0  0  0  0  0
   27.5232   24.2239   26.2622 C   0  0  0  0  0  0  0  0  0  0  0  0
   28.2816   22.0091   26.2493 C   0  0  0  0  0  0  0  0  0  0  0  0
   21.7898   26.1351   22.4010 N   0  0  0  0  0  0  0  0  0  0  0  0
   21.4626   25.3088   21.9774 H   0  0  0  0  0  0  0  0  0  0  0  0
   20.8274   27.0771   22.6533 C   0  0  0  0  0  0  0  0  0  0  0  0
   21.0337   28.2734   23.3889 C   0  0  0  0  0  0  0  0  0  0  0  0
   19.8250   28.9342   23.3835 C   0  0  0  0  0  0  0  0  0  0  0  0
   18.9628   28.1362   22.6812 N   0  0  0  0  0  0  0  0  0  0  0  0
   19.5530   27.0166   22.2257 N   0  0  0  0  0  0  0  0  0  0  0  0
   19.4050   30.2232   23.9568 C   0  0  0  0  0  0  0  0  0  0  0  0
   19.1387   26.3015   21.6908 H   0  0  0  0  0  0  0  0  0  0  0  0
   26.5144   27.9553   21.4667 S   0  0  0  0  0  0  0  0  0  0  0  0
   27.1518   26.8244   20.2715 C   0  0  0  0  0  0  0  0  0  0  0  0
   26.5486   25.5976   20.1114 C   0  0  0  0  0  0  0  0  0  0  0  0
   27.0558   24.7000   19.2061 C   0  0  0  0  0  0  0  0  0  0  0  0
   28.1544   25.0427   18.4562 C   0  0  0  0  0  0  0  0  0  0  0  0
   28.7476   26.2800   18.5966 C   0  0  0  0  0  0  0  0  0  0  0  0
   28.2425   27.1714   19.5088 C   0  0  0  0  0  0  0  0  0  0  0  0
   28.7160   24.1671   17.5165 N   0  0  0  0  0  0  0  0  0  0  0  0
   28.7772   24.3667   16.1493 C   0  0  0  0  0  0  0  0  0  0  0  0
   28.4951   25.3770   15.4793 O   0  0  0  0  0  0  0  0  0  0  0  0
   29.1035   23.3308   17.8626 H   0  0  0  0  0  0  0  0  0  0  0  0
   29.2676   23.1357   15.4976 C   0  0  0  0  0  0  0  0  0  0  0  0
   30.6434   22.6763   15.8683 C   0  0  0  0  0  0  0  0  0  0  0  0
   29.4423   21.9099   16.3462 C   0  0  0  0  0  0  0  0  0  0  0  0
  7  8  1  0  0  0
  7 12  1  0  0  0
  7 13  1  0  0  0
  8  9  1  0  0  0
  9 10  1  0  0  0
 10 11  1  0  0  0
 10  1  1  0  0  0
 11 12  1  0  0  0
  1  2  1  0  0  0
  1  6  2  0  0  0
  2  3  2  0  0  0
  3  4  1  0  0  0
  3 14  1  0  0  0
  4  5  2  0  0  0
  5  6  1  0  0  0
  5 23  1  0  0  0
 14 16  1  0  0  0
 16 17  2  0  0  0
 16 20  1  0  0  0
 17 18  1  0  0  0
 18 19  2  0  0  0
 18 21  1  0  0  0
 19 20  1  0  0  0
 23 24  1  0  0  0
 24 25  1  0  0  0
 24 29  2  0  0  0
 25 26  2  0  0  0
 26 27  1  0  0  0
 27 28  2  0  0  0
 27 30  1  0  0  0
 28 29  1  0  0  0
 30 31  1  0  0  0
 31 32  2  0  0  0
 31 34  1  0  0  0
 34 35  1  0  0  0
 34 36  1  0  0  0
 35 36  1  0  0  0
 14 15  1  0  0  0
 20 22  1  0  0  0
 30 33  1  0  0  0
M  END
> <minimizedAffinity>
-8.36706

$$$$
3E5A_VX6_A_500


 36 40  0  0  0  0  0  0  0  0999 V2000
   23.2940   29.6500   19.5470 C   0  0  0  0  0  0  0  0  0  0  0  0
   24.0683   29.1744   20.5810 C   0  0  0  0  0  0  0  0  0  0  0  0
   25.2449   28.5315   20.2351 C   0  0  0  0  0  0  0  0  0  0  0  0
   25.6134   28.3873   18.9449 N   0  0  0  0  0  0  0  0  0  0  0  0
   24.8095   28.8790   18.0063 C   0  0  0  0  0  0  0  0  0  0  0  0
   23.6634   29.4831   18.2689 N   0  0  0  0  0  0  0  0  0  0  0  0
   20.0424   31.8258   21.0890 N   0  0  0  0  0  0  0  0  0  0  0  0
   20.0235   30.3730   21.1821 C   0  0  0  0  0  0  0  0  0  0  0  0
   21.3239   29.6596   20.8845 C   0  0  0  0  0  0  0  0  0  0  0  0
   22.0901   30.2857   19.8369 N   0  0  0  0  0  0  0  0  0  0  0  0
   21.9904   31.7008   19.4844 C   0  0  0  0  0  0  0  0  0  0  0  0
   21.2687   32.4658   20.5875 C   0  0  0  0  0  0  0  0  0  0  0  0
   19.8393   32.3082   22.4347 C   0  0  0  0  0  0  0  0  0  0  0  0
   26.0206   28.0432   21.3244 N   0  0  0  0  0  0  0  0  0  0  0  0
   26.9801   28.2596   21.2820 H   0  0  0  0  0  0  0  0  0  0  0  0
   25.6381   27.3187   22.4227 C   0  0  0  0  0  0  0  0  0  0  0  0
   25.5178   25.9050   22.4625 C   0  0  0  0  0  0  0  0  0  0  0  0
   25.1353   25.5938   23.7486 C   0  0  0  0  0  0  0  0  0  0  0  0
   25.0311   26.7877   24.4098 N   0  0  0  0  0  0  0  0  0  0  0  0
   25.3397   27.8376   23.6277 N   0  0  0  0  0  0  0  0  0  0  0  0
   24.8678   24.3074   24.4124 C   0  0  0  0  0  0  0  0  0  0  0  0
   25.3459   28.7882   23.8838 H   0  0  0  0  0  0  0  0  0  0  0  0
   25.2159   28.6865   16.2799 S   0  0  0  0  0  0  0  0  0  0  0  0
   26.6694   27.6940   16.4065 C   0  0  0  0  0  0  0  0  0  0  0  0
   26.6991   26.6482   17.3009 C   0  0  0  0  0  0  0  0  0  0  0  0
   27.8357   25.8902   17.4279 C   0  0  0  0  0  0  0  0  0  0  0  0
   28.9297   26.1748   16.6476 C   0  0  0  0  0  0  0  0  0  0  0  0
   28.8960   27.2070   15.7333 C   0  0  0  0  0  0  0  0  0  0  0  0
   27.7607   27.9678   15.6153 C   0  0  0  0  0  0  0  0  0  0  0  0
   30.1174   25.4351   16.7338 N   0  0  0  0  0  0  0  0  0  0  0  0
   30.4974   24.4008   15.8979 C   0  0  0  0  0  0  0  0  0  0  0  0
   29.9745   23.9973   14.8429 O   0  0  0  0  0  0  0  0  0  0  0  0
   30.7400   25.6746   17.4578 H   0  0  0  0  0  0  0  0  0  0  0  0
   31.7151   23.7612   16.4350 C   0  0  0  0  0  0  0  0  0  0  0  0
   32.1606   24.1925   17.7976 C   0  0  0  0  0  0  0  0  0  0  0  0
   31.5657   22.8267   17.6002 C   0  0  0  0  0  0  0  0  0  0  0  0
  7  8  1  0  0  0
  7 12  1  0  0  0
  7 13  1  0  0  0
  8  9  1  0  0  0
  9 10  1  0  0  0
 10 11  1  0  0  0
 10  1  1  0  0  0
 11 12  1  0  0  0
  1  2  1  0  0  0
  1  6  2  0  0  0
  2  3  2  0  0  0
  3  4  1  0  0  0
  3 14  1  0  0  0
  4  5  2  0  0  0
  5  6  1  0  0  0
  5 23  1  0  0  0
 14 16  1  0  0  0
 16 17  2  0  0  0
 16 20  1  0  0  0
 17 18  1  0  0  0
 18 19  2  0  0  0
 18 21  1  0  0  0
 19 20  1  0  0  0
 23 24  1  0  0  0
 24 25  1  0  0  0
 24 29  2  0  0  0
 25 26  2  0  0  0
 26 27  1  0  0  0
 27 28  2  0  0  0
 27 30  1  0  0  0
 28 29  1  0  0  0
 30 31  1  0  0  0
 31 32  2  0  0  0
 31 34  1  0  0  0
 34 35  1  0  0  0
 34 36  1  0  0  0
 35 36  1  0  0  0
 14 15  1  0  0  0
 20 22  1  0  0  0
 30 33  1  0  0  0
M  END
> <minimizedAffinity>
-8.12248

$$$$
3E5A_VX6_A_500


 36 40  0  0  0  0  0  0  0  0999 V2000
   21.5695   28.0727   22.6180 C   0  0  0  0  0  0  0  0  0  0  0  0
   21.9792   26.8261   23.0337 C   0  0  0  0  0  0  0  0  0  0  0  0
   23.1944   26.3742   22.5476 C   0  0  0  0  0  0  0  0  0  0  0  0
   23.9406   27.1271   21.7124 N   0  0  0  0  0  0  0  0  0  0  0  0
   23.4736   28.3222   21.3622 C   0  0  0  0  0  0  0  0  0  0  0  0
   22.3124   28.8021   21.7730 N   0  0  0  0  0  0  0  0  0  0  0  0
   17.9947   30.1463   23.3967 N   0  0  0  0  0  0  0  0  0  0  0  0
   19.0974   30.2676   24.3396 C   0  0  0  0  0  0  0  0  0  0  0  0
   20.4416   29.7491   23.8781 C   0  0  0  0  0  0  0  0  0  0  0  0
   20.3454   28.5673   23.0591 N   0  0  0  0  0  0  0  0  0  0  0  0
   19.1680   28.2136   22.2683 C   0  0  0  0  0  0  0  0  0  0  0  0
   18.2405   29.4165   22.1429 C   0  0  0  0  0  0  0  0  0  0  0  0
   17.6400   31.4975   23.0313 C   0  0  0  0  0  0  0  0  0  0  0  0
   23.5882   25.0789   22.9879 N   0  0  0  0  0  0  0  0  0  0  0  0
   23.1266   24.3306   22.5450 H   0  0  0  0  0  0  0  0  0  0  0  0
   24.5105   24.7128   23.9328 C   0  0  0  0  0  0  0  0  0  0  0  0
   24.6353   23.4115   24.4858 C   0  0  0  0  0  0  0  0  0  0  0  0
   25.6894   23.4755   25.3701 C   0  0  0  0  0  0  0  0  0  0  0  0
   26.1376   24.7682   25.3288 N   0  0  0  0  0  0  0  0  0  0  0  0
   25.4438   25.5258   24.4604 N   0  0  0  0  0  0  0  0  0  0  0  0
   26.3140   22.4596   26.2329 C   0  0  0  0  0  0  0  0  0  0  0  0
   25.5888   26.4774   24.2539 H   0  0  0  0  0  0  0  0  0  0  0  0
   24.3895   29.3512   20.2288 S   0  0  0  0  0  0  0  0  0  0  0  0
   25.5311   28.1709   19.5827 C   0  0  0  0  0  0  0  0  0  0  0  0
   26.4798   27.6211   20.4148 C   0  0  0  0  0  0  0  0  0  0  0  0
   27.3908   26.7256   19.9142 C   0  0  0  0  0  0  0  0  0  0  0  0
   27.3363   26.3749   18.5872 C   0  0  0  0  0  0  0  0  0  0  0  0
   26.3724   26.9055   17.7554 C   0  0  0  0  0  0  0  0  0  0  0  0
   25.4686   27.8069   18.2578 C   0  0  0  0  0  0  0  0  0  0  0  0
   28.2402   25.4656   18.0206 N   0  0  0  0  0  0  0  0  0  0  0  0
   28.0339   24.1087   17.8493 C   0  0  0  0  0  0  0  0  0  0  0  0
   27.0013   23.4338   18.0149 O   0  0  0  0  0  0  0  0  0  0  0  0
   29.1037   25.8270   17.7156 H   0  0  0  0  0  0  0  0  0  0  0  0
   29.2899   23.4770   17.3978 C   0  0  0  0  0  0  0  0  0  0  0  0
   29.2449   22.0070   17.1182 C   0  0  0  0  0  0  0  0  0  0  0  0
   29.3619   22.9835   15.9820 C   0  0  0  0  0  0  0  0  0  0  0  0
  7  8  1  0  0  0
  7 12  1  0  0  0
  7 13  1  0  0  0
  8  9  1  0  0  0
  9 10  1  0  0  0
 10 11  1  0  0  0
 10  1  1  0  0  0
 11 12  1  0  0  0
  1  2  1  0  0  0
  1  6  2  0  0  0
  2  3  2  0  0  0
  3  4  1  0  0  0
  3 14  1  0  0  0
  4  5  2  0  0  0
  5  6  1  0  0  0
  5 23  1  0  0  0
 14 16  1  0  0  0
 16 17  2  0  0  0
 16 20  1  0  0  0
 17 18  1  0  0  0
 18 19  2  0  0  0
 18 21  1  0  0  0
 19 20  1  0  0  0
 23 24  1  0  0  0
 24 25  1  0  0  0
 24 29  2  0  0  0
 25 26  2  0  0  0
 26 27  1  0  0  0
 27 28  2  0  0  0
 27 30  1  0  0  0
 28 29  1  0  0  0
 30 31  1  0  0  0
 31 32  2  0  0  0
 31 34  1  0  0  0
 34 35  1  0  0  0
 34 36  1  0  0  0
 35 36  1  0  0  0
 14 15  1  0  0  0
 20 22  1  0  0  0
 30 33  1  0  0  0
M  END
> <minimizedAffinity>
-8.00647

$$$$
3E5A_VX6_A_500


 36 40  0  0  0  0  0  0  0  0999 V2000
   22.9255   28.0100   21.9000 C   0  0  0  0  0  0  0  0  0  0  0  0
   23.5739   26.9902   22.5591 C   0  0  0  0  0  0  0  0  0  0  0  0
   24.7675   26.5521   22.0107 C   0  0  0  0  0  0  0  0  0  0  0  0
   25.2699   27.1069   20.8878 N   0  0  0  0  0  0  0  0  0  0  0  0
   24.5823   28.0905   20.3145 C   0  0  0  0  0  0  0  0  0  0  0  0
   23.4272   28.5393   20.7748 N   0  0  0  0  0  0  0  0  0  0  0  0
   18.9743   29.2332   22.6591 N   0  0  0  0  0  0  0  0  0  0  0  0
   19.9964   30.2486   22.4494 C   0  0  0  0  0  0  0  0  0  0  0  0
   21.3215   29.7700   21.8984 C   0  0  0  0  0  0  0  0  0  0  0  0
   21.7107   28.4747   22.3958 N   0  0  0  0  0  0  0  0  0  0  0  0
   20.7687   27.4681   22.8817 C   0  0  0  0  0  0  0  0  0  0  0  0
   19.3513   27.8262   22.4512 C   0  0  0  0  0  0  0  0  0  0  0  0
   17.9260   29.5296   21.7113 C   0  0  0  0  0  0  0  0  0  0  0  0
   25.4110   25.4914   22.7089 N   0  0  0  0  0  0  0  0  0  0  0  0
   26.0484   24.9667   22.1727 H   0  0  0  0  0  0  0  0  0  0  0  0
   25.2802   25.0881   24.0118 C   0  0  0  0  0  0  0  0  0  0  0  0
   24.4578   24.0187   24.4533 C   0  0  0  0  0  0  0  0  0  0  0  0
   24.6381   23.9405   25.8166 C   0  0  0  0  0  0  0  0  0  0  0  0
   25.5207   24.9362   26.1375 N   0  0  0  0  0  0  0  0  0  0  0  0
   25.9252   25.6322   25.0598 N   0  0  0  0  0  0  0  0  0  0  0  0
   24.0791   23.0348   26.8334 C   0  0  0  0  0  0  0  0  0  0  0  0
   26.5611   26.3836   25.0417 H   0  0  0  0  0  0  0  0  0  0  0  0
   25.1684   28.8398   18.8054 S   0  0  0  0  0  0  0  0  0  0  0  0
   26.5788   27.8309   18.4791 C   0  0  0  0  0  0  0  0  0  0  0  0
   26.5816   27.0078   17.3759 C   0  0  0  0  0  0  0  0  0  0  0  0
   27.6613   26.1973   17.1311 C   0  0  0  0  0  0  0  0  0  0  0  0
   28.7375   26.2277   17.9841 C   0  0  0  0  0  0  0  0  0  0  0  0
   28.7488   27.0683   19.0775 C   0  0  0  0  0  0  0  0  0  0  0  0
   27.6639   27.8709   19.3235 C   0  0  0  0  0  0  0  0  0  0  0  0
   29.8676   25.4226   17.7845 N   0  0  0  0  0  0  0  0  0  0  0  0
   30.6078   25.3289   16.6199 C   0  0  0  0  0  0  0  0  0  0  0  0
   30.5394   26.0049   15.5771 O   0  0  0  0  0  0  0  0  0  0  0  0
   30.1623   24.8717   18.5454 H   0  0  0  0  0  0  0  0  0  0  0  0
   31.5935   24.2377   16.7543 C   0  0  0  0  0  0  0  0  0  0  0  0
   32.2029   24.0398   18.1074 C   0  0  0  0  0  0  0  0  0  0  0  0
   31.2132   23.0410   17.5769 C   0  0  0  0  0  0  0  0  0  0  0  0
  7  8  1  0  0  0
  7 12  1  0  0  0
  7 13  1  0  0  0
  8  9  1  0  0  0
  9 10  1  0  0  0
 10 11  1  0  0  0
 10  1  1  0  0  0
 11 12  1  0  0  0
  1  2  1  0  0  0
  1  6  2  0  0  0
  2  3  2  0  0  0
  3  4  1  0  0  0
  3 14  1  0  0  0
  4  5  2  0  0  0
  5  6  1  0  0  0
  5 23  1  0  0  0
 14 16  1  0  0  0
 16 17  2  0  0  0
 16 20  1  0  0  0
 17 18  1  0  0  0
 18 19  2  0  0  0
 18 21  1  0  0  0
 19 20  1  0  0  0
 23 24  1  0  0  0
 24 25  1  0  0  0
 24 29  2  0  0  0
 25 26  2  0  0  0
 26 27  1  0  0  0
 27 28  2  0  0  0
 27 30  1  0  0  0
 28 29  1  0  0  0
 30 31  1  0  0  0
 31 32  2  0  0  0
 31 34  1  0  0  0
 34 35  1  0  0  0
 34 36  1  0  0  0
 35 36  1  0  0  0
 14 15  1  0  0  0
 20 22  1  0  0  0
 30 33  1  0  0  0
M  END
> <minimizedAffinity>
-8.00403

$$$$
3E5A_VX6_A_500


 36 40  0  0  0  0  0  0  0  0999 V2000
   23.3877   28.8830   23.2823 C   0  0  0  0  0  0  0  0  0  0  0  0
   23.2692   27.5689   23.6746 C   0  0  0  0  0  0  0  0  0  0  0  0
   23.3619   26.6098   22.6802 C   0  0  0  0  0  0  0  0  0  0  0  0
   23.5658   26.9523   21.3908 N   0  0  0  0  0  0  0  0  0  0  0  0
   23.6727   28.2450   21.0967 C   0  0  0  0  0  0  0  0  0  0  0  0
   23.5715   29.2096   21.9949 N   0  0  0  0  0  0  0  0  0  0  0  0
   23.7536   32.1990   25.8425 N   0  0  0  0  0  0  0  0  0  0  0  0
   24.0703   30.8748   26.3579 C   0  0  0  0  0  0  0  0  0  0  0  0
   24.2049   29.7665   25.3370 C   0  0  0  0  0  0  0  0  0  0  0  0
   23.2809   29.8892   24.2380 N   0  0  0  0  0  0  0  0  0  0  0  0
   22.6936   31.1543   23.8004 C   0  0  0  0  0  0  0  0  0  0  0  0
   23.4592   32.3246   24.4063 C   0  0  0  0  0  0  0  0  0  0  0  0
   24.9191   33.0108   26.1029 C   0  0  0  0  0  0  0  0  0  0  0  0
   23.2274   25.2607   23.1142 N   0  0  0  0  0  0  0  0  0  0  0  0
   22.4967   24.7572   22.6879 H   0  0  0  0  0  0  0  0  0  0  0  0
   23.9579   24.5546   24.0336 C   0  0  0  0  0  0  0  0  0  0  0  0
   25.3015   24.8366   24.3944 C   0  0  0  0  0  0  0  0  0  0  0  0
   25.6376   23.9094   25.3560 C   0  0  0  0  0  0  0  0  0  0  0  0
   24.5297   23.1238   25.5252 N   0  0  0  0  0  0  0  0  0  0  0  0
   23.5044   23.5045   24.7422 N   0  0  0  0  0  0  0  0  0  0  0  0
   26.8734   23.6933   26.1260 C   0  0  0  0  0  0  0  0  0  0  0  0
   22.6084   23.0992   24.6970 H   0  0  0  0  0  0  0  0  0  0  0  0
   23.9015   28.7691   19.4069 S   0  0  0  0  0  0  0  0  0  0  0  0
   25.4693   28.0378   19.0590 C   0  0  0  0  0  0  0  0  0  0  0  0
   26.2877   27.6637   20.1005 C   0  0  0  0  0  0  0  0  0  0  0  0
   27.5211   27.1224   19.8395 C   0  0  0  0  0  0  0  0  0  0  0  0
   27.9206   26.9451   18.5373 C   0  0  0  0  0  0  0  0  0  0  0  0
   27.0939   27.2968   17.4907 C   0  0  0  0  0  0  0  0  0  0  0  0
   25.8649   27.8454   17.7558 C   0  0  0  0  0  0  0  0  0  0  0  0
   29.1688   26.3973   18.2103 N   0  0  0  0  0  0  0  0  0  0  0  0
   29.4082   25.0980   17.8011 C   0  0  0  0  0  0  0  0  0  0  0  0
   28.6032   24.1966   17.5031 O   0  0  0  0  0  0  0  0  0  0  0  0
   29.9490   26.9939   18.2784 H   0  0  0  0  0  0  0  0  0  0  0  0
   30.8652   24.8656   17.7410 C   0  0  0  0  0  0  0  0  0  0  0  0
   31.3152   23.4762   17.4119 C   0  0  0  0  0  0  0  0  0  0  0  0
   31.4787   24.5768   16.4017 C   0  0  0  0  0  0  0  0  0  0  0  0
  7  8  1  0  0  0
  7 12  1  0  0  0
  7 13  1  0  0  0
  8  9  1  0  0  0
  9 10  1  0  0  0
 10 11  1  0  0  0
 10  1  1  0  0  0
 11 12  1  0  0  0
  1  2  1  0  0  0
  1  6  2  0  0  0
  2  3  2  0  0  0
  3  4  1  0  0  0
  3 14  1  0  0  0
  4  5  2  0  0  0
  5  6  1  0  0  0
  5 23  1  0  0  0
 14 16  1  0  0  0
 16 17  2  0  0  0
 16 20  1  0  0  0
 17 18  1  0  0  0
 18 19  2  0  0  0
 18 21  1  0  0  0
 19 20  1  0  0  0
 23 24  1  0  0  0
 24 25  1  0  0  0
 24 29  2  0  0  0
 25 26  2  0  0  0
 26 27  1  0  0  0
 27 28  2  0  0  0
 27 30  1  0  0  0
 28 29  1  0  0  0
 30 31  1  0  0  0
 31 32  2  0  0  0
 31 34  1  0  0  0
 34 35  1  0  0  0
 34 36  1  0  0  0
 35 36  1  0  0  0
 14 15  1  0  0  0
 20 22  1  0  0  0
 30 33  1  0  0  0
M  END
> <minimizedAffinity>
-7.96562

$$$$
3E5A_VX6_A_500


 36 40  0  0  0  0  0  0  0  0999 V2000
   24.0642   27.7027   20.7393 C   0  0  0  0  0  0  0  0  0  0  0  0
   23.9321   28.9751   21.2477 C   0  0  0  0  0  0  0  0  0  0  0  0
   23.9618   30.0175   20.3366 C   0  0  0  0  0  0  0  0  0  0  0  0
   24.1062   29.7906   19.0142 N   0  0  0  0  0  0  0  0  0  0  0  0
   24.2240   28.5304   18.6051 C   0  0  0  0  0  0  0  0  0  0  0  0
   24.2257   27.4933   19.4247 N   0  0  0  0  0  0  0  0  0  0  0  0
   24.1299   24.9937   23.9551 N   0  0  0  0  0  0  0  0  0  0  0  0
   25.3201   25.1320   23.1281 C   0  0  0  0  0  0  0  0  0  0  0  0
   25.3511   26.3103   22.1798 C   0  0  0  0  0  0  0  0  0  0  0  0
   24.0628   26.6190   21.6127 N   0  0  0  0  0  0  0  0  0  0  0  0
   22.7887   26.2848   22.2465 C   0  0  0  0  0  0  0  0  0  0  0  0
   23.0115   25.9175   23.7087 C   0  0  0  0  0  0  0  0  0  0  0  0
   24.5668   25.2188   25.3129 C   0  0  0  0  0  0  0  0  0  0  0  0
   23.8313   31.3218   20.8919 N   0  0  0  0  0  0  0  0  0  0  0  0
   24.5885   31.6147   21.4488 H   0  0  0  0  0  0  0  0  0  0  0  0
   22.8148   32.2326   20.7709 C   0  0  0  0  0  0  0  0  0  0  0  0
   21.9613   32.6434   21.8280 C   0  0  0  0  0  0  0  0  0  0  0  0
   21.1062   33.5760   21.2833 C   0  0  0  0  0  0  0  0  0  0  0  0
   21.4546   33.6808   19.9638 N   0  0  0  0  0  0  0  0  0  0  0  0
   22.4890   32.8844   19.6399 N   0  0  0  0  0  0  0  0  0  0  0  0
   20.0154   34.3722   21.8688 C   0  0  0  0  0  0  0  0  0  0  0  0
   22.9185   32.7967   18.7583 H   0  0  0  0  0  0  0  0  0  0  0  0
   24.4592   28.1623   16.8755 S   0  0  0  0  0  0  0  0  0  0  0  0
   26.1051   27.5269   16.9090 C   0  0  0  0  0  0  0  0  0  0  0  0
   27.0231   27.9766   15.9872 C   0  0  0  0  0  0  0  0  0  0  0  0
   28.2965   27.4658   15.9863 C   0  0  0  0  0  0  0  0  0  0  0  0
   28.6467   26.5193   16.9181 C   0  0  0  0  0  0  0  0  0  0  0  0
   27.7368   26.0832   17.8585 C   0  0  0  0  0  0  0  0  0  0  0  0
   26.4622   26.5902   17.8508 C   0  0  0  0  0  0  0  0  0  0  0  0
   29.9321   25.9620   16.9652 N   0  0  0  0  0  0  0  0  0  0  0  0
   30.3877   24.8957   16.2113 C   0  0  0  0  0  0  0  0  0  0  0  0
   29.8434   24.3021   15.2623 O   0  0  0  0  0  0  0  0  0  0  0  0
   30.5711   26.3680   17.5946 H   0  0  0  0  0  0  0  0  0  0  0  0
   31.7255   24.4948   16.6909 C   0  0  0  0  0  0  0  0  0  0  0  0
   31.8763   24.2687   18.1631 C   0  0  0  0  0  0  0  0  0  0  0  0
   31.8970   23.1000   17.2186 C   0  0  0  0  0  0  0  0  0  0  0  0
  7  8  1  0  0  0
  7 12  1  0  0  0
  7 13  1  0  0  0
  8  9  1  0  0  0
  9 10  1  0  0  0
 10 11  1  0  0  0
 10  1  1  0  0  0
 11 12  1  0  0  0
  1  2  1  0  0  0
  1  6  2  0  0  0
  2  3  2  0  0  0
  3  4  1  0  0  0
  3 14  1  0  0  0
  4  5  2  0  0  0
  5  6  1  0  0  0
  5 23  1  0  0  0
 14 16  1  0  0  0
 16 17  2  0  0  0
 16 20  1  0  0  0
 17 18  1  0  0  0
 18 19  2  0  0  0
 18 21  1  0  0  0
 19 20  1  0  0  0
 23 24  1  0  0  0
 24 25  1  0  0  0
 24 29  2  0  0  0
 25 26  2  0  0  0
 26 27  1  0  0  0
 27 28  2  0  0  0
 27 30  1  0  0  0
 28 29  1  0  0  0
 30 31  1  0  0  0
 31 32  2  0  0  0
 31 34  1  0  0  0
 34 35  1  0  0  0
 34 36  1  0  0  0
 35 36  1  0  0  0
 14 15  1  0  0  0
 20 22  1  0  0  0
 30 33  1  0  0  0
M  END
> <minimizedAffinity>
-7.82933

$$$$
3E5A_VX6_A_500


 36 40  0  0  0  0  0  0  0  0999 V2000
   26.8781   27.1481   18.2529 C   0  0  0  0  0  0  0  0  0  0  0  0
   25.8967   28.0095   17.8175 C   0  0  0  0  0  0  0  0  0  0  0  0
   24.8381   28.2370   18.6806 C   0  0  0  0  0  0  0  0  0  0  0  0
   24.7802   27.6456   19.8923 N   0  0  0  0  0  0  0  0  0  0  0  0
   25.7717   26.8292   20.2376 C   0  0  0  0  0  0  0  0  0  0  0  0
   26.7982   26.5530   19.4518 N   0  0  0  0  0  0  0  0  0  0  0  0
   29.6269   25.7595   15.3891 N   0  0  0  0  0  0  0  0  0  0  0  0
   29.7802   25.3363   16.7737 C   0  0  0  0  0  0  0  0  0  0  0  0
   28.6178   25.6190   17.6996 C   0  0  0  0  0  0  0  0  0  0  0  0
   27.9547   26.8668   17.4165 N   0  0  0  0  0  0  0  0  0  0  0  0
   27.9602   27.5176   16.1077 C   0  0  0  0  0  0  0  0  0  0  0  0
   28.4291   26.5387   15.0379 C   0  0  0  0  0  0  0  0  0  0  0  0
   29.5786   24.5446   14.6101 C   0  0  0  0  0  0  0  0  0  0  0  0
   23.8347   29.1253   18.2004 N   0  0  0  0  0  0  0  0  0  0  0  0
   23.6051   29.0187   17.2490 H   0  0  0  0  0  0  0  0  0  0  0  0
   23.1389   30.1058   18.8577 C   0  0  0  0  0  0  0  0  0  0  0  0
   23.4863   30.6375   20.1272 C   0  0  0  0  0  0  0  0  0  0  0  0
   22.5451   31.6047   20.4028 C   0  0  0  0  0  0  0  0  0  0  0  0
   21.6893   31.6125   19.3346 N   0  0  0  0  0  0  0  0  0  0  0  0
   22.0378   30.7212   18.3895 N   0  0  0  0  0  0  0  0  0  0  0  0
   22.3737   32.5140   21.5476 C   0  0  0  0  0  0  0  0  0  0  0  0
   21.5820   30.5539   17.5330 H   0  0  0  0  0  0  0  0  0  0  0  0
   25.7372   25.9826   21.8075 S   0  0  0  0  0  0  0  0  0  0  0  0
   24.3500   26.7711   22.5610 C   0  0  0  0  0  0  0  0  0  0  0  0
   23.0963   26.2229   22.4116 C   0  0  0  0  0  0  0  0  0  0  0  0
   22.0077   26.8457   22.9682 C   0  0  0  0  0  0  0  0  0  0  0  0
   22.1837   28.0050   23.6836 C   0  0  0  0  0  0  0  0  0  0  0  0
   23.4413   28.5449   23.8556 C   0  0  0  0  0  0  0  0  0  0  0  0
   24.5260   27.9238   23.2905 C   0  0  0  0  0  0  0  0  0  0  0  0
   21.1095   28.6846   24.2744 N   0  0  0  0  0  0  0  0  0  0  0  0
   20.2688   29.5856   23.6463 C   0  0  0  0  0  0  0  0  0  0  0  0
   20.1790   29.8830   22.4411 O   0  0  0  0  0  0  0  0  0  0  0  0
   20.9370   28.5035   25.2266 H   0  0  0  0  0  0  0  0  0  0  0  0
   19.3940   30.2203   24.6525 C   0  0  0  0  0  0  0  0  0  0  0  0
   20.0665   31.0160   25.7276 C   0  0  0  0  0  0  0  0  0  0  0  0
   19.2878   31.7177   24.6508 C   0  0  0  0  0  0  0  0  0  0  0  0
  7  8  1  0  0  0
  7 12  1  0  0  0
  7 13  1  0  0  0
  8  9  1  0  0  0
  9 10  1  0  0  0
 10 11  1  0  0  0
 10  1  1  0  0  0
 11 12  1  0  0  0
  1  2  1  0  0  0
  1  6  2  0  0  0
  2  3  2  0  0  0
  3  4  1  0  0  0
  3 14  1  0  0  0
  4  5  2  0  0  0
  5  6  1  0  0  0
  5 23  1  0  0  0
 14 16  1  0  0  0
 16 17  2  0  0  0
 16 20  1  0  0  0
 17 18  1  0  0  0
 18 19  2  0  0  0
 18 21  1  0  0  0
 19 20  1  0  0  0
 23 24  1  0  0  0
 24 25  1  0  0  0
 24 29  2  0  0  0
 25 26  2  0  0  0
 26 27  1  0  0  0
 27 28  2  0  0  0
 27 30  1  0  0  0
 28 29  1  0  0  0
 30 31  1  0  0  0
 31 32  2  0  0  0
 31 34  1  0  0  0
 34 35  1  0  0  0
 34 36  1  0  0  0
 35 36  1  0  0  0
 14 15  1  0  0  0
 20 22  1  0  0  0
 30 33  1  0  0  0
M  END
> <minimizedAffinity>
-7.60314

$$$$
3E5A_VX6_A_500


 36 40  0  0  0  0  0  0  0  0999 V2000
   24.9442   26.1234   24.1423 C   0  0  0  0  0  0  0  0  0  0  0  0
   25.3142   26.0024   22.8219 C   0  0  0  0  0  0  0  0  0  0  0  0
   24.9859   27.0539   21.9829 C   0  0  0  0  0  0  0  0  0  0  0  0
   24.3406   28.1456   22.4444 N   0  0  0  0  0  0  0  0  0  0  0  0
   24.0221   28.1847   23.7352 C   0  0  0  0  0  0  0  0  0  0  0  0
   24.2869   27.2057   24.5831 N   0  0  0  0  0  0  0  0  0  0  0  0
   26.5132   22.9493   26.4113 N   0  0  0  0  0  0  0  0  0  0  0  0
   25.4866   22.6639   25.4192 C   0  0  0  0  0  0  0  0  0  0  0  0
   25.1671   23.7713   24.4393 C   0  0  0  0  0  0  0  0  0  0  0  0
   25.2303   25.0862   25.0254 N   0  0  0  0  0  0  0  0  0  0  0  0
   26.0377   25.4218   26.1969 C   0  0  0  0  0  0  0  0  0  0  0  0
   27.0523   24.3173   26.4676 C   0  0  0  0  0  0  0  0  0  0  0  0
   27.6192   22.0768   26.0942 C   0  0  0  0  0  0  0  0  0  0  0  0
   25.3736   26.8973   20.6221 N   0  0  0  0  0  0  0  0  0  0  0  0
   25.8612   26.0659   20.4213 H   0  0  0  0  0  0  0  0  0  0  0  0
   25.1730   27.7249   19.5486 C   0  0  0  0  0  0  0  0  0  0  0  0
   25.6671   27.4915   18.2386 C   0  0  0  0  0  0  0  0  0  0  0  0
   25.2210   28.5457   17.4725 C   0  0  0  0  0  0  0  0  0  0  0  0
   24.5105   29.3527   18.3196 N   0  0  0  0  0  0  0  0  0  0  0  0
   24.4637   28.8680   19.5734 N   0  0  0  0  0  0  0  0  0  0  0  0
   25.3858   28.8647   16.0450 C   0  0  0  0  0  0  0  0  0  0  0  0
   24.0057   29.2668   20.3483 H   0  0  0  0  0  0  0  0  0  0  0  0
   23.1322   29.5795   24.4022 S   0  0  0  0  0  0  0  0  0  0  0  0
   21.6576   29.5047   23.4359 C   0  0  0  0  0  0  0  0  0  0  0  0
   21.2213   30.6325   22.7785 C   0  0  0  0  0  0  0  0  0  0  0  0
   20.0595   30.5918   22.0496 C   0  0  0  0  0  0  0  0  0  0  0  0
   19.3505   29.4179   21.9714 C   0  0  0  0  0  0  0  0  0  0  0  0
   19.7966   28.2793   22.6092 C   0  0  0  0  0  0  0  0  0  0  0  0
   20.9542   28.3263   23.3438 C   0  0  0  0  0  0  0  0  0  0  0  0
   18.1576   29.3169   21.2420 N   0  0  0  0  0  0  0  0  0  0  0  0
   16.8767   29.4113   21.7550 C   0  0  0  0  0  0  0  0  0  0  0  0
   16.4983   29.7337   22.8961 O   0  0  0  0  0  0  0  0  0  0  0  0
   18.2394   29.1642   20.2729 H   0  0  0  0  0  0  0  0  0  0  0  0
   15.9021   29.0610   20.7024 C   0  0  0  0  0  0  0  0  0  0  0  0
   14.9013   27.9982   21.0341 C   0  0  0  0  0  0  0  0  0  0  0  0
   14.4640   29.4315   20.9210 C   0  0  0  0  0  0  0  0  0  0  0  0
  7  8  1  0  0  0
  7 12  1  0  0  0
  7 13  1  0  0  0
  8  9  1  0  0  0
  9 10  1  0  0  0
 10 11  1  0  0  0
 10  1  1  0  0  0
 11 12  1  0  0  0
  1  2  1  0  0  0
  1  6  2  0  0  0
  2  3  2  0  0  0
  3  4  1  0  0  0
  3 14  1  0  0  0
  4  5  2  0  0  0
  5  6  1  0  0  0
  5 23  1  0  0  0
 14 16  1  0  0  0
 16 17  2  0  0  0
 16 20  1  0  0  0
 17 18  1  0  0  0
 18 19  2  0  0  0
 18 21  1  0  0  0
 19 20  1  0  0  0
 23 24  1  0  0  0
 24 25  1  0  0  0
 24 29  2  0  0  0
 25 26  2  0  0  0
 26 27  1  0  0  0
 27 28  2  0  0  0
 27 30  1  0  0  0
 28 29  1  0  0  0
 30 31  1  0  0  0
 31 32  2  0  0  0
 31 34  1  0  0  0
 34 35  1  0  0  0
 34 36  1  0  0  0
 35 36  1  0  0  0
 14 15  1  0  0  0
 20 22  1  0  0  0
 30 33  1  0  0  0
M  END
> <minimizedAffinity>
-7.59393

$$$$
