3E5A_VX6_A_500
  RCSB PDB12061708253D
Coordinates from PDB:3E5A:A:500 Model:1 without hydrogens
 33 37  0  0  0  0            999 V2000
   19.6200   30.1200   22.3550   N 0  0  0  0  0  0  0  0  0  0  0  0
   19.7830   30.5820   20.9840   C 0  0  0  0  0  0  0  0  0  0  0  0
   20.9270   29.9790   20.1990   C 0  0  0  0  0  0  0  0  0  0  0  0
   22.0990   29.7310   21.0000   N 0  0  0  0  0  0  0  0  0  0  0  0
   22.0710   29.5120   22.4450   C 0  0  0  0  0  0  0  0  0  0  0  0
   20.6470   29.2200   22.9030   C 0  0  0  0  0  0  0  0  0  0  0  0
   18.3720   29.3940   22.3790   C 0  0  0  0  0  0  0  0  0  0  0  0
   23.1650   29.1720   20.3010   C 0  0  0  0  0  0  0  0  0  0  0  0
   23.1590   29.2090   18.9250   C 0  0  0  0  0  0  0  0  0  0  0  0
   24.2540   28.6580   18.2810   C 0  0  0  0  0  0  0  0  0  0  0  0
   25.2720   28.1060   18.9740   N 0  0  0  0  0  0  0  0  0  0  0  0
   25.1980   28.1080   20.3020   C 0  0  0  0  0  0  0  0  0  0  0  0
   24.1920   28.6370   20.9770   N 0  0  0  0  0  0  0  0  0  0  0  0
   24.2240   28.7180   16.8590   N 0  0  0  0  0  0  0  0  0  0  0  0
   25.1960   28.4090   15.9440   C 0  0  0  0  0  0  0  0  0  0  0  0
   26.4660   27.8600   16.2610   C 0  0  0  0  0  0  0  0  0  0  0  0
   27.1140   27.6860   15.0580   C 0  0  0  0  0  0  0  0  0  0  0  0
   26.2480   28.1310   14.0960   N 0  0  0  0  0  0  0  0  0  0  0  0
   25.0830   28.5620   14.6120   N 0  0  0  0  0  0  0  0  0  0  0  0
   28.4420   27.1460   14.7240   C 0  0  0  0  0  0  0  0  0  0  0  0
   26.5280   27.4320   21.2800   S 0  0  0  0  0  0  0  0  0  0  0  0
   27.2630   26.3420   20.1030   C 0  0  0  0  0  0  0  0  0  0  0  0
   28.3750   26.7520   19.4030   C 0  0  0  0  0  0  0  0  0  0  0  0
   28.9350   25.9230   18.4640   C 0  0  0  0  0  0  0  0  0  0  0  0
   28.3870   24.6830   18.2430   C 0  0  0  0  0  0  0  0  0  0  0  0
   27.2870   24.2590   18.9590   C 0  0  0  0  0  0  0  0  0  0  0  0
   26.7250   25.0940   19.8910   C 0  0  0  0  0  0  0  0  0  0  0  0
   28.9160   23.7940   17.2970   N 0  0  0  0  0  0  0  0  0  0  0  0
   30.1000   23.9530   16.6000   C 0  0  0  0  0  0  0  0  0  0  0  0
   30.9990   24.8020   16.7420   O 0  0  0  0  0  0  0  0  0  0  0  0
   30.2040   22.9020   15.5680   C 0  0  0  0  0  0  0  0  0  0  0  0
   31.0310   23.2190   14.3610   C 0  0  0  0  0  0  0  0  0  0  0  0
   31.5330   22.2310   15.3760   C 0  0  0  0  0  0  0  0  0  0  0  0
  1  2  1  0  0  0  0
  1  6  1  0  0  0  0
  1  7  1  0  0  0  0
  2  3  1  0  0  0  0
  3  4  1  0  0  0  0
  4  5  1  0  0  0  0
  4  8  1  0  0  0  0
  5  6  1  0  0  0  0
  8  9  1  0  0  0  0
  8 13  2  0  0  0  0
  9 10  2  0  0  0  0
 10 11  1  0  0  0  0
 10 14  1  0  0  0  0
 11 12  2  0  0  0  0
 12 13  1  0  0  0  0
 12 21  1  0  0  0  0
 14 15  1  0  0  0  0
 15 16  2  0  0  0  0
 15 19  1  0  0  0  0
 16 17  1  0  0  0  0
 17 18  2  0  0  0  0
 17 20  1  0  0  0  0
 18 19  1  0  0  0  0
 21 22  1  0  0  0  0
 22 23  1  0  0  0  0
 22 27  2  0  0  0  0
 23 24  2  0  0  0  0
 24 25  1  0  0  0  0
 25 26  2  0  0  0  0
 25 28  1  0  0  0  0
 26 27  1  0  0  0  0
 28 29  1  0  0  0  0
 29 30  2  0  0  0  0
 29 31  1  0  0  0  0
 31 32  1  0  0  0  0
 31 33  1  0  0  0  0
 32 33  1  0  0  0  0
A    1
N1
A    2
C2
A    3
C3
A    4
N4
A    5
C5
A    6
C6
A    7
C7
A    8
C8
A    9
C9
A   10
C10
A   11
N11
A   12
C12
A   13
N13
A   14
N14
A   15
C15
A   16
C17
A   17
C18
A   18
N19
A   19
N20
A   20
C21
A   21
S23
A   22
C24
A   23
C25
A   24
C26
A   25
C27
A   26
C28
A   27
C29
A   28
N30
A   29
C31
A   30
O32
A   31
C33
A   32
C34
A   33
C35
M  END
>  <InstanceId>
3E5A_VX6_A_500

>  <ChemCompId>
VX6

>  <PdbId>
3E5A

>  <ChainId>
A

>  <ResidueNumber>
500

>  <InsertionCode>


>  <Model>
1

>  <AltIds>


>  <MissingHeavyAtoms>
0

>  <ObservedFormula>
C23 N8 O S

>  <Name>
CYCLOPROPANECARBOXYLIC ACID {4-[4-(4-METHYL-PIPERAZIN-1-YL)-6-(5-METHYL-2H-PYRAZOL-3-YLAMINO)-PYRIMIDIN-2-YLSULFANYL]-PHENYL}-AMIDE

>  <SystematicName>
N-[4-[4-(4-methylpiperazin-1-yl)-6-[(5-methyl-2H-pyrazol-3-yl)amino]pyrimidin-2-yl]sulfanylphenyl]cyclopropanecarboxamide

>  <Synonyms>


>  <Type>
NON-POLYMER

>  <Formula>
C23 H28 N8 O S

>  <MolecularWeight>
464.586

>  <ModifiedDate>
2011-06-04

>  <Parent>


>  <OneLetterCode>


>  <SubcomponentList>


>  <AmbiguousFlag>
N

>  <InChI>
InChI=1S/C23H28N8OS/c1-15-13-20(29-28-15)25-19-14-21(31-11-9-30(2)10-12-31)27-23(26-19)33-18-7-5-17(6-8-18)24-22(32)16-3-4-16/h5-8,13-14,16H,3-4,9-12H2,1-2H3,(H,24,32)(H2,25,26,27,28,29)

>  <InChIKey>
GCIKSSRWRFVXBI-UHFFFAOYSA-N

>  <SMILES>
Cc1cc([nH]n1)Nc2cc(nc(n2)Sc3ccc(cc3)NC(=O)C4CC4)N5CCN(CC5)C

$$$$
