1Q91_DPB_A_1


 31 34  0  0  0  0  0  0  0  0999 V2000
   16.4067   40.0464   24.5986 C   0  0  0  0  0  0  0  0  0  0  0  0
   16.0406   41.2306   25.2644 O   0  0  0  0  0  0  0  0  0  0  0  0
   14.8215   41.5455   24.6564 C   0  0  0  0  0  0  0  0  0  0  0  0
   14.1160   40.4518   24.1980 C   0  0  0  0  0  0  0  0  0  0  0  0
   15.1943   39.5483   23.9422 C   0  0  0  0  0  0  0  0  0  0  0  0
   13.9216   42.2820   25.5400 C   0  0  0  0  0  0  0  0  0  0  0  0
   13.1249   41.6799   26.6165 O   0  0  0  0  0  0  0  0  0  0  0  0
   12.4745   40.5007   26.1306 C   0  0  0  0  0  0  0  0  0  0  0  0
   13.3426   39.8104   25.2011 O   0  0  0  0  0  0  0  0  0  0  0  0
   18.2399   38.5142   25.0624 C   0  0  0  0  0  0  0  0  0  0  0  0
   17.1224   39.2093   25.5656 N   0  0  0  0  0  0  0  0  0  0  0  0
   16.6458   39.1380   26.9461 C   0  0  0  0  0  0  0  0  0  0  0  0
   17.4166   38.2898   27.7612 C   0  0  0  0  0  0  0  0  0  0  0  0
   18.5799   37.5765   27.1924 C   0  0  0  0  0  0  0  0  0  0  0  0
   18.9368   37.7084   25.9288 N   0  0  0  0  0  0  0  0  0  0  0  0
   18.6581   38.5583   23.9059 O   0  0  0  0  0  0  0  0  0  0  0  0
   19.2538   36.8165   27.9507 O   0  0  0  0  0  0  0  0  0  0  0  0
   16.9508   38.1465   29.3196 C   0  0  0  0  0  0  0  0  0  0  0  0
   19.7230   37.2163   25.5988 H   0  0  0  0  0  0  0  0  0  0  0  0
   12.1613   39.7703   29.8575 C   0  0  0  0  0  0  0  0  0  0  0  0
   12.5375   40.3775   28.6802 C   0  0  0  0  0  0  0  0  0  0  0  0
   12.0166   39.7819   27.4243 C   0  0  0  0  0  0  0  0  0  0  0  0
   11.1321   38.5898   27.4063 C   0  0  0  0  0  0  0  0  0  0  0  0
   10.7934   38.0261   28.6639 C   0  0  0  0  0  0  0  0  0  0  0  0
   11.2521   38.5372   29.9523 C   0  0  0  0  0  0  0  0  0  0  0  0
   10.9080   41.0235   25.1532 P   0  0  0  0  0  0  0  0  0  0  0  0
   10.3941   42.1404   26.1583 O   0  0  0  0  0  0  0  0  0  0  0  0
    9.9605   39.8959   25.1774 O   0  0  0  0  0  0  0  0  0  0  0  0
   11.2280   41.6504   23.8074 O   0  0  0  0  0  0  0  0  0  0  0  0
   10.1912   41.7350   27.0158 H   0  0  0  0  0  0  0  0  0  0  0  0
   11.8595   42.3763   23.9309 H   0  0  0  0  0  0  0  0  0  0  0  0
 20 21  2  0  0  0
 20 25  1  0  0  0
 21 22  1  0  0  0
 22 23  2  0  0  0
 22  8  1  0  0  0
 23 24  1  0  0  0
 24 25  2  0  0  0
 10 11  1  0  0  0
 10 15  1  0  0  0
 10 16  2  0  0  0
 11 12  1  0  0  0
 11  1  1  0  0  0
 12 13  2  0  0  0
 13 14  1  0  0  0
 13 18  1  0  0  0
 14 15  1  0  0  0
 14 17  2  0  0  0
  1  2  1  0  0  0
  1  5  1  0  0  0
  2  3  1  0  0  0
  3  4  1  0  0  0
  3  6  1  0  0  0
  4  5  1  0  0  0
  4  9  1  0  0  0
  6  7  1  0  0  0
  7  8  1  0  0  0
  8  9  1  0  0  0
  8 26  1  0  0  0
 26 27  1  0  0  0
 26 28  2  0  0  0
 26 29  1  0  0  0
 15 19  1  0  0  0
 27 30  1  0  0  0
 29 31  1  0  0  0
M  END
> <minimizedAffinity>
-10.78645

$$$$
1Q91_DPB_A_1


 31 34  0  0  0  0  0  0  0  0999 V2000
   14.1833   41.3291   23.9450 C   0  0  0  0  0  0  0  0  0  0  0  0
   14.8046   40.0931   24.2017 O   0  0  0  0  0  0  0  0  0  0  0  0
   15.8078   40.4503   25.1077 C   0  0  0  0  0  0  0  0  0  0  0  0
   15.5032   41.5454   25.8901 C   0  0  0  0  0  0  0  0  0  0  0  0
   14.6089   42.2369   25.0145 C   0  0  0  0  0  0  0  0  0  0  0  0
   16.1555   39.3671   26.0236 C   0  0  0  0  0  0  0  0  0  0  0  0
   15.3637   38.9733   27.1957 O   0  0  0  0  0  0  0  0  0  0  0  0
   14.9924   40.1398   27.9383 C   0  0  0  0  0  0  0  0  0  0  0  0
   14.7164   41.2315   27.0294 O   0  0  0  0  0  0  0  0  0  0  0  0
   12.3742   40.8714   22.3825 C   0  0  0  0  0  0  0  0  0  0  0  0
   12.7594   41.0606   23.7246 N   0  0  0  0  0  0  0  0  0  0  0  0
   11.8505   41.0167   24.8691 C   0  0  0  0  0  0  0  0  0  0  0  0
   10.5138   40.7633   24.5129 C   0  0  0  0  0  0  0  0  0  0  0  0
   10.1517   40.5736   23.0922 C   0  0  0  0  0  0  0  0  0  0  0  0
   11.0477   40.6272   22.1249 N   0  0  0  0  0  0  0  0  0  0  0  0
   13.1205   40.9048   21.4046 O   0  0  0  0  0  0  0  0  0  0  0  0
    8.9384   40.3497   22.8015 O   0  0  0  0  0  0  0  0  0  0  0  0
    9.4280   40.7029   25.7311 C   0  0  0  0  0  0  0  0  0  0  0  0
   10.7576   40.4886   21.1944 H   0  0  0  0  0  0  0  0  0  0  0  0
   11.4626   39.4252   29.1837 C   0  0  0  0  0  0  0  0  0  0  0  0
   12.4933   39.8592   28.3803 C   0  0  0  0  0  0  0  0  0  0  0  0
   13.8724   39.6280   28.8783 C   0  0  0  0  0  0  0  0  0  0  0  0
   14.1581   38.9646   30.1751 C   0  0  0  0  0  0  0  0  0  0  0  0
   13.0380   38.5486   30.9409 C   0  0  0  0  0  0  0  0  0  0  0  0
   11.6460   38.7285   30.5391 C   0  0  0  0  0  0  0  0  0  0  0  0
   16.4820   40.6755   29.0230 P   0  0  0  0  0  0  0  0  0  0  0  0
   16.2131   42.2403   28.9944 O   0  0  0  0  0  0  0  0  0  0  0  0
   17.7163   40.3958   28.2691 O   0  0  0  0  0  0  0  0  0  0  0  0
   16.3931   40.1643   30.4503 O   0  0  0  0  0  0  0  0  0  0  0  0
   16.2711   42.5617   28.0810 H   0  0  0  0  0  0  0  0  0  0  0  0
   15.5362   40.4139   30.8303 H   0  0  0  0  0  0  0  0  0  0  0  0
 20 21  2  0  0  0
 20 25  1  0  0  0
 21 22  1  0  0  0
 22 23  2  0  0  0
 22  8  1  0  0  0
 23 24  1  0  0  0
 24 25  2  0  0  0
 10 11  1  0  0  0
 10 15  1  0  0  0
 10 16  2  0  0  0
 11 12  1  0  0  0
 11  1  1  0  0  0
 12 13  2  0  0  0
 13 14  1  0  0  0
 13 18  1  0  0  0
 14 15  1  0  0  0
 14 17  2  0  0  0
  1  2  1  0  0  0
  1  5  1  0  0  0
  2  3  1  0  0  0
  3  4  1  0  0  0
  3  6  1  0  0  0
  4  5  1  0  0  0
  4  9  1  0  0  0
  6  7  1  0  0  0
  7  8  1  0  0  0
  8  9  1  0  0  0
  8 26  1  0  0  0
 26 27  1  0  0  0
 26 28  2  0  0  0
 26 29  1  0  0  0
 15 19  1  0  0  0
 27 30  1  0  0  0
 29 31  1  0  0  0
M  END
> <minimizedAffinity>
-10.39870

$$$$
1Q91_DPB_A_1


 31 34  0  0  0  0  0  0  0  0999 V2000
    9.2353   40.5356   25.5205 C   0  0  0  0  0  0  0  0  0  0  0  0
    9.3250   39.6919   24.3981 O   0  0  0  0  0  0  0  0  0  0  0  0
    9.4131   40.6092   23.3465 C   0  0  0  0  0  0  0  0  0  0  0  0
   10.0028   41.8093   23.6873 C   0  0  0  0  0  0  0  0  0  0  0  0
    9.6765   41.8618   25.0784 C   0  0  0  0  0  0  0  0  0  0  0  0
   10.1568   40.0890   22.2022 C   0  0  0  0  0  0  0  0  0  0  0  0
   11.6202   39.9978   22.1245 O   0  0  0  0  0  0  0  0  0  0  0  0
   12.2022   41.2293   22.5656 C   0  0  0  0  0  0  0  0  0  0  0  0
   11.4218   41.7775   23.6540 O   0  0  0  0  0  0  0  0  0  0  0  0
    9.2984   38.6852   27.1004 C   0  0  0  0  0  0  0  0  0  0  0  0
    9.9180   39.8588   26.6269 N   0  0  0  0  0  0  0  0  0  0  0  0
   11.1539   40.4264   27.1638 C   0  0  0  0  0  0  0  0  0  0  0  0
   11.6944   39.6839   28.2288 C   0  0  0  0  0  0  0  0  0  0  0  0
   11.0107   38.4595   28.6969 C   0  0  0  0  0  0  0  0  0  0  0  0
    9.8956   38.0215   28.1435 N   0  0  0  0  0  0  0  0  0  0  0  0
    8.2592   38.1903   26.6651 O   0  0  0  0  0  0  0  0  0  0  0  0
   11.5200   37.8128   29.6608 O   0  0  0  0  0  0  0  0  0  0  0  0
   13.0742   40.2504   28.8933 C   0  0  0  0  0  0  0  0  0  0  0  0
    9.4812   37.1973   28.4875 H   0  0  0  0  0  0  0  0  0  0  0  0
   15.6937   41.3888   24.0838 C   0  0  0  0  0  0  0  0  0  0  0  0
   14.3690   41.6754   23.8406 C   0  0  0  0  0  0  0  0  0  0  0  0
   13.6885   40.8619   22.8020 C   0  0  0  0  0  0  0  0  0  0  0  0
   14.3761   39.7857   22.0454 C   0  0  0  0  0  0  0  0  0  0  0  0
   15.7412   39.5561   22.3583 C   0  0  0  0  0  0  0  0  0  0  0  0
   16.4982   40.2992   23.3615 C   0  0  0  0  0  0  0  0  0  0  0  0
   12.1232   42.4949   21.1252 P   0  0  0  0  0  0  0  0  0  0  0  0
   12.6156   41.5276   19.9660 O   0  0  0  0  0  0  0  0  0  0  0  0
   13.1598   43.5148   21.3598 O   0  0  0  0  0  0  0  0  0  0  0  0
   10.7124   42.9740   20.8308 O   0  0  0  0  0  0  0  0  0  0  0  0
   13.5167   41.2246   20.1587 H   0  0  0  0  0  0  0  0  0  0  0  0
   10.1322   42.2082   20.6969 H   0  0  0  0  0  0  0  0  0  0  0  0
 20 21  2  0  0  0
 20 25  1  0  0  0
 21 22  1  0  0  0
 22 23  2  0  0  0
 22  8  1  0  0  0
 23 24  1  0  0  0
 24 25  2  0  0  0
 10 11  1  0  0  0
 10 15  1  0  0  0
 10 16  2  0  0  0
 11 12  1  0  0  0
 11  1  1  0  0  0
 12 13  2  0  0  0
 13 14  1  0  0  0
 13 18  1  0  0  0
 14 15  1  0  0  0
 14 17  2  0  0  0
  1  2  1  0  0  0
  1  5  1  0  0  0
  2  3  1  0  0  0
  3  4  1  0  0  0
  3  6  1  0  0  0
  4  5  1  0  0  0
  4  9  1  0  0  0
  6  7  1  0  0  0
  7  8  1  0  0  0
  8  9  1  0  0  0
  8 26  1  0  0  0
 26 27  1  0  0  0
 26 28  2  0  0  0
 26 29  1  0  0  0
 15 19  1  0  0  0
 27 30  1  0  0  0
 29 31  1  0  0  0
M  END
> <minimizedAffinity>
-10.26136

$$$$
1Q91_DPB_A_1


 31 34  0  0  0  0  0  0  0  0999 V2000
   15.7372   40.3135   23.2717 C   0  0  0  0  0  0  0  0  0  0  0  0
   15.7432   39.3766   24.3214 O   0  0  0  0  0  0  0  0  0  0  0  0
   15.7497   40.2002   25.4513 C   0  0  0  0  0  0  0  0  0  0  0  0
   15.1360   41.4223   25.2670 C   0  0  0  0  0  0  0  0  0  0  0  0
   15.3399   41.5950   23.8624 C   0  0  0  0  0  0  0  0  0  0  0  0
   15.1071   39.5808   26.6073 C   0  0  0  0  0  0  0  0  0  0  0  0
   13.6558   39.4764   26.8040 O   0  0  0  0  0  0  0  0  0  0  0  0
   13.0411   40.7384   26.5223 C   0  0  0  0  0  0  0  0  0  0  0  0
   13.7252   41.3812   25.4209 O   0  0  0  0  0  0  0  0  0  0  0  0
   15.6172   38.7422   21.4169 C   0  0  0  0  0  0  0  0  0  0  0  0
   14.9588   39.7305   22.1752 N   0  0  0  0  0  0  0  0  0  0  0  0
   13.5951   40.1993   21.9332 C   0  0  0  0  0  0  0  0  0  0  0  0
   12.9702   39.5652   20.8446 C   0  0  0  0  0  0  0  0  0  0  0  0
   13.6980   38.5352   20.0732 C   0  0  0  0  0  0  0  0  0  0  0  0
   14.9316   38.1739   20.3717 N   0  0  0  0  0  0  0  0  0  0  0  0
   16.7631   38.3333   21.6015 O   0  0  0  0  0  0  0  0  0  0  0  0
   13.1099   37.9832   19.0953 O   0  0  0  0  0  0  0  0  0  0  0  0
   11.4443   40.0330   20.4992 C   0  0  0  0  0  0  0  0  0  0  0  0
   15.3718   37.4788   19.8310 H   0  0  0  0  0  0  0  0  0  0  0  0
    9.8344   38.7057   26.8482 C   0  0  0  0  0  0  0  0  0  0  0  0
   11.1595   39.0661   26.9498 C   0  0  0  0  0  0  0  0  0  0  0  0
   11.5388   40.3857   26.3855 C   0  0  0  0  0  0  0  0  0  0  0  0
   10.5602   41.2940   25.7368 C   0  0  0  0  0  0  0  0  0  0  0  0
    9.2153   40.8450   25.6741 C   0  0  0  0  0  0  0  0  0  0  0  0
    8.7423   39.5676   26.1996 C   0  0  0  0  0  0  0  0  0  0  0  0
   13.2489   41.8766   28.0532 P   0  0  0  0  0  0  0  0  0  0  0  0
   12.5788   40.9150   29.1247 O   0  0  0  0  0  0  0  0  0  0  0  0
   12.3803   43.0516   27.8665 O   0  0  0  0  0  0  0  0  0  0  0  0
   14.7022   42.1217   28.4196 O   0  0  0  0  0  0  0  0  0  0  0  0
   11.6512   40.7618   28.8863 H   0  0  0  0  0  0  0  0  0  0  0  0
   15.1600   41.2716   28.5124 H   0  0  0  0  0  0  0  0  0  0  0  0
 20 21  2  0  0  0
 20 25  1  0  0  0
 21 22  1  0  0  0
 22 23  2  0  0  0
 22  8  1  0  0  0
 23 24  1  0  0  0
 24 25  2  0  0  0
 10 11  1  0  0  0
 10 15  1  0  0  0
 10 16  2  0  0  0
 11 12  1  0  0  0
 11  1  1  0  0  0
 12 13  2  0  0  0
 13 14  1  0  0  0
 13 18  1  0  0  0
 14 15  1  0  0  0
 14 17  2  0  0  0
  1  2  1  0  0  0
  1  5  1  0  0  0
  2  3  1  0  0  0
  3  4  1  0  0  0
  3  6  1  0  0  0
  4  5  1  0  0  0
  4  9  1  0  0  0
  6  7  1  0  0  0
  7  8  1  0  0  0
  8  9  1  0  0  0
  8 26  1  0  0  0
 26 27  1  0  0  0
 26 28  2  0  0  0
 26 29  1  0  0  0
 15 19  1  0  0  0
 27 30  1  0  0  0
 29 31  1  0  0  0
M  END
> <minimizedAffinity>
-9.94886

$$$$
1Q91_DPB_A_1


 31 34  0  0  0  0  0  0  0  0999 V2000
   13.1680   41.2256   21.9952 C   0  0  0  0  0  0  0  0  0  0  0  0
   13.9457   40.2489   22.6441 O   0  0  0  0  0  0  0  0  0  0  0  0
   14.4077   40.9397   23.7685 C   0  0  0  0  0  0  0  0  0  0  0  0
   13.5601   41.9339   24.2125 C   0  0  0  0  0  0  0  0  0  0  0  0
   12.9119   42.2762   22.9848 C   0  0  0  0  0  0  0  0  0  0  0  0
   14.6556   40.0625   24.9096 C   0  0  0  0  0  0  0  0  0  0  0  0
   13.6143   39.5140   25.7874 O   0  0  0  0  0  0  0  0  0  0  0  0
   12.7037   40.5541   26.1604 C   0  0  0  0  0  0  0  0  0  0  0  0
   12.5148   41.4612   25.0488 O   0  0  0  0  0  0  0  0  0  0  0  0
   12.2513   40.1812   19.9970 C   0  0  0  0  0  0  0  0  0  0  0  0
   12.0520   40.5305   21.3474 N   0  0  0  0  0  0  0  0  0  0  0  0
   10.8345   40.2586   22.1102 C   0  0  0  0  0  0  0  0  0  0  0  0
    9.8419   39.5990   21.3636 C   0  0  0  0  0  0  0  0  0  0  0  0
   10.0907   39.2531   19.9479 C   0  0  0  0  0  0  0  0  0  0  0  0
   11.2291   39.5374   19.3441 N   0  0  0  0  0  0  0  0  0  0  0  0
   13.2656   40.4005   19.3356 O   0  0  0  0  0  0  0  0  0  0  0  0
    9.1760   38.6616   19.2997 O   0  0  0  0  0  0  0  0  0  0  0  0
    8.4443   39.2607   22.1373 C   0  0  0  0  0  0  0  0  0  0  0  0
   11.3487   39.2811   18.4011 H   0  0  0  0  0  0  0  0  0  0  0  0
    9.1111   39.3173   26.4507 C   0  0  0  0  0  0  0  0  0  0  0  0
   10.2222   39.9803   25.9796 C   0  0  0  0  0  0  0  0  0  0  0  0
   11.4875   39.7819   26.7300 C   0  0  0  0  0  0  0  0  0  0  0  0
   11.5814   38.9178   27.9334 C   0  0  0  0  0  0  0  0  0  0  0  0
   10.3889   38.2716   28.3511 C   0  0  0  0  0  0  0  0  0  0  0  0
    9.0977   38.4008   27.6819 C   0  0  0  0  0  0  0  0  0  0  0  0
   13.4859   41.5705   27.5878 P   0  0  0  0  0  0  0  0  0  0  0  0
   14.4553   40.4427   28.1446 O   0  0  0  0  0  0  0  0  0  0  0  0
   12.4372   41.8271   28.5899 O   0  0  0  0  0  0  0  0  0  0  0  0
   14.3018   42.7541   27.0978 O   0  0  0  0  0  0  0  0  0  0  0  0
   13.9296   39.6894   28.4561 H   0  0  0  0  0  0  0  0  0  0  0  0
   14.9525   42.4504   26.4458 H   0  0  0  0  0  0  0  0  0  0  0  0
 20 21  2  0  0  0
 20 25  1  0  0  0
 21 22  1  0  0  0
 22 23  2  0  0  0
 22  8  1  0  0  0
 23 24  1  0  0  0
 24 25  2  0  0  0
 10 11  1  0  0  0
 10 15  1  0  0  0
 10 16  2  0  0  0
 11 12  1  0  0  0
 11  1  1  0  0  0
 12 13  2  0  0  0
 13 14  1  0  0  0
 13 18  1  0  0  0
 14 15  1  0  0  0
 14 17  2  0  0  0
  1  2  1  0  0  0
  1  5  1  0  0  0
  2  3  1  0  0  0
  3  4  1  0  0  0
  3  6  1  0  0  0
  4  5  1  0  0  0
  4  9  1  0  0  0
  6  7  1  0  0  0
  7  8  1  0  0  0
  8  9  1  0  0  0
  8 26  1  0  0  0
 26 27  1  0  0  0
 26 28  2  0  0  0
 26 29  1  0  0  0
 15 19  1  0  0  0
 27 30  1  0  0  0
 29 31  1  0  0  0
M  END
> <minimizedAffinity>
-9.71018

$$$$
1Q91_DPB_A_1


 31 34  0  0  0  0  0  0  0  0999 V2000
   13.5490   40.4218   28.3676 C   0  0  0  0  0  0  0  0  0  0  0  0
   12.7305   41.5536   28.1985 O   0  0  0  0  0  0  0  0  0  0  0  0
   13.0953   41.9929   26.9222 C   0  0  0  0  0  0  0  0  0  0  0  0
   13.5223   40.9896   26.0765 C   0  0  0  0  0  0  0  0  0  0  0  0
   14.0334   40.0575   27.0328 C   0  0  0  0  0  0  0  0  0  0  0  0
   12.0124   42.6879   26.2315 C   0  0  0  0  0  0  0  0  0  0  0  0
   10.8740   42.0284   25.5796 O   0  0  0  0  0  0  0  0  0  0  0  0
   11.3447   40.9397   24.7776 C   0  0  0  0  0  0  0  0  0  0  0  0
   12.4634   40.2969   25.4328 O   0  0  0  0  0  0  0  0  0  0  0  0
   13.4624   38.9416   30.2977 C   0  0  0  0  0  0  0  0  0  0  0  0
   12.7927   39.4562   29.1699 N   0  0  0  0  0  0  0  0  0  0  0  0
   11.4379   39.0873   28.7619 C   0  0  0  0  0  0  0  0  0  0  0  0
   10.8345   38.1440   29.6127 C   0  0  0  0  0  0  0  0  0  0  0  0
   11.5736   37.6272   30.7841 C   0  0  0  0  0  0  0  0  0  0  0  0
   12.7977   38.0252   31.0749 N   0  0  0  0  0  0  0  0  0  0  0  0
   14.6011   39.2364   30.6592 O   0  0  0  0  0  0  0  0  0  0  0  0
   11.0050   36.7754   31.5310 O   0  0  0  0  0  0  0  0  0  0  0  0
    9.3200   37.6704   29.2275 C   0  0  0  0  0  0  0  0  0  0  0  0
   13.2460   37.6556   31.8696 H   0  0  0  0  0  0  0  0  0  0  0  0
    8.2956   38.7622   25.4720 C   0  0  0  0  0  0  0  0  0  0  0  0
    9.4383   39.5014   25.6813 C   0  0  0  0  0  0  0  0  0  0  0  0
   10.0601   40.1244   24.4860 C   0  0  0  0  0  0  0  0  0  0  0  0
    9.5011   39.9750   23.1190 C   0  0  0  0  0  0  0  0  0  0  0  0
    8.3212   39.1965   22.9924 C   0  0  0  0  0  0  0  0  0  0  0  0
    7.6343   38.5452   24.1039 C   0  0  0  0  0  0  0  0  0  0  0  0
   11.9958   41.6408   23.1141 P   0  0  0  0  0  0  0  0  0  0  0  0
   10.8271   42.6835   22.8517 O   0  0  0  0  0  0  0  0  0  0  0  0
   11.9080   40.5711   22.1053 O   0  0  0  0  0  0  0  0  0  0  0  0
   13.3180   42.3747   23.2545 O   0  0  0  0  0  0  0  0  0  0  0  0
    9.9852   42.2099   22.7628 H   0  0  0  0  0  0  0  0  0  0  0  0
   13.2416   43.0488   23.9478 H   0  0  0  0  0  0  0  0  0  0  0  0
 20 21  2  0  0  0
 20 25  1  0  0  0
 21 22  1  0  0  0
 22 23  2  0  0  0
 22  8  1  0  0  0
 23 24  1  0  0  0
 24 25  2  0  0  0
 10 11  1  0  0  0
 10 15  1  0  0  0
 10 16  2  0  0  0
 11 12  1  0  0  0
 11  1  1  0  0  0
 12 13  2  0  0  0
 13 14  1  0  0  0
 13 18  1  0  0  0
 14 15  1  0  0  0
 14 17  2  0  0  0
  1  2  1  0  0  0
  1  5  1  0  0  0
  2  3  1  0  0  0
  3  4  1  0  0  0
  3  6  1  0  0  0
  4  5  1  0  0  0
  4  9  1  0  0  0
  6  7  1  0  0  0
  7  8  1  0  0  0
  8  9  1  0  0  0
  8 26  1  0  0  0
 26 27  1  0  0  0
 26 28  2  0  0  0
 26 29  1  0  0  0
 15 19  1  0  0  0
 27 30  1  0  0  0
 29 31  1  0  0  0
M  END
> <minimizedAffinity>
-9.31812

$$$$
1Q91_DPB_A_1


 31 34  0  0  0  0  0  0  0  0999 V2000
   16.3398   40.0990   24.5371 C   0  0  0  0  0  0  0  0  0  0  0  0
   16.0279   41.2918   25.2151 O   0  0  0  0  0  0  0  0  0  0  0  0
   14.8059   41.6483   24.6369 C   0  0  0  0  0  0  0  0  0  0  0  0
   14.0548   40.5798   24.1916 C   0  0  0  0  0  0  0  0  0  0  0  0
   15.0970   39.6430   23.9077 C   0  0  0  0  0  0  0  0  0  0  0  0
   13.9511   42.4100   25.5437 C   0  0  0  0  0  0  0  0  0  0  0  0
   13.1608   41.8298   26.6366 O   0  0  0  0  0  0  0  0  0  0  0  0
   12.4612   40.6741   26.1623 C   0  0  0  0  0  0  0  0  0  0  0  0
   13.2847   39.9598   25.2105 O   0  0  0  0  0  0  0  0  0  0  0  0
   16.4845   39.1452   26.7717 C   0  0  0  0  0  0  0  0  0  0  0  0
   17.0505   39.2354   25.4844 N   0  0  0  0  0  0  0  0  0  0  0  0
   18.2691   38.5496   25.0573 C   0  0  0  0  0  0  0  0  0  0  0  0
   18.8541   37.7661   26.0681 C   0  0  0  0  0  0  0  0  0  0  0  0
   18.2293   37.7014   27.4064 C   0  0  0  0  0  0  0  0  0  0  0  0
   17.1210   38.3558   27.6975 N   0  0  0  0  0  0  0  0  0  0  0  0
   15.4618   39.7133   27.1532 O   0  0  0  0  0  0  0  0  0  0  0  0
   18.7811   36.9893   28.2981 O   0  0  0  0  0  0  0  0  0  0  0  0
   20.2245   36.9683   25.6784 C   0  0  0  0  0  0  0  0  0  0  0  0
   16.7406   38.2759   28.6020 H   0  0  0  0  0  0  0  0  0  0  0  0
   10.6998   38.1275   28.3834 C   0  0  0  0  0  0  0  0  0  0  0  0
   11.1304   38.7886   27.2549 C   0  0  0  0  0  0  0  0  0  0  0  0
   12.0106   39.9654   27.4641 C   0  0  0  0  0  0  0  0  0  0  0  0
   12.4231   40.4313   28.8119 C   0  0  0  0  0  0  0  0  0  0  0  0
   11.9342   39.6929   29.9209 C   0  0  0  0  0  0  0  0  0  0  0  0
   11.0663   38.5231   29.8205 C   0  0  0  0  0  0  0  0  0  0  0  0
   10.8902   41.2511   25.2236 P   0  0  0  0  0  0  0  0  0  0  0  0
   10.2419   39.8196   24.9953 O   0  0  0  0  0  0  0  0  0  0  0  0
   11.3130   41.7901   23.9195 O   0  0  0  0  0  0  0  0  0  0  0  0
    9.9670   42.1038   26.0764 O   0  0  0  0  0  0  0  0  0  0  0  0
   10.8351   39.2792   24.4504 H   0  0  0  0  0  0  0  0  0  0  0  0
    9.7667   41.6366   26.9025 H   0  0  0  0  0  0  0  0  0  0  0  0
 20 21  2  0  0  0
 20 25  1  0  0  0
 21 22  1  0  0  0
 22 23  2  0  0  0
 22  8  1  0  0  0
 23 24  1  0  0  0
 24 25  2  0  0  0
 10 11  1  0  0  0
 10 15  1  0  0  0
 10 16  2  0  0  0
 11 12  1  0  0  0
 11  1  1  0  0  0
 12 13  2  0  0  0
 13 14  1  0  0  0
 13 18  1  0  0  0
 14 15  1  0  0  0
 14 17  2  0  0  0
  1  2  1  0  0  0
  1  5  1  0  0  0
  2  3  1  0  0  0
  3  4  1  0  0  0
  3  6  1  0  0  0
  4  5  1  0  0  0
  4  9  1  0  0  0
  6  7  1  0  0  0
  7  8  1  0  0  0
  8  9  1  0  0  0
  8 26  1  0  0  0
 26 27  1  0  0  0
 26 28  2  0  0  0
 26 29  1  0  0  0
 15 19  1  0  0  0
 27 30  1  0  0  0
 29 31  1  0  0  0
M  END
> <minimizedAffinity>
-9.23913

$$$$
1Q91_DPB_A_1


 31 34  0  0  0  0  0  0  0  0999 V2000
   14.5123   40.9672   22.7593 C   0  0  0  0  0  0  0  0  0  0  0  0
   13.7573   42.1267   23.0144 O   0  0  0  0  0  0  0  0  0  0  0  0
   12.8377   42.1169   21.9612 C   0  0  0  0  0  0  0  0  0  0  0  0
   12.5230   40.8574   21.4934 C   0  0  0  0  0  0  0  0  0  0  0  0
   13.7299   40.1621   21.8166 C   0  0  0  0  0  0  0  0  0  0  0  0
   11.5735   42.7612   22.3071 C   0  0  0  0  0  0  0  0  0  0  0  0
   10.5138   42.1477   23.1175 O   0  0  0  0  0  0  0  0  0  0  0  0
   10.2718   40.8127   22.6604 C   0  0  0  0  0  0  0  0  0  0  0  0
   11.5184   40.2014   22.2523 O   0  0  0  0  0  0  0  0  0  0  0  0
   16.1939   39.8430   24.1131 C   0  0  0  0  0  0  0  0  0  0  0  0
   14.9063   40.4125   24.0576 N   0  0  0  0  0  0  0  0  0  0  0  0
   13.9690   40.4706   25.1783 C   0  0  0  0  0  0  0  0  0  0  0  0
   14.4703   39.8916   26.3578 C   0  0  0  0  0  0  0  0  0  0  0  0
   15.8260   39.3021   26.3723 C   0  0  0  0  0  0  0  0  0  0  0  0
   16.6038   39.3008   25.3062 N   0  0  0  0  0  0  0  0  0  0  0  0
   16.9981   39.7822   23.1837 O   0  0  0  0  0  0  0  0  0  0  0  0
   16.2495   38.7846   27.4491 O   0  0  0  0  0  0  0  0  0  0  0  0
   13.4854   39.9078   27.6601 C   0  0  0  0  0  0  0  0  0  0  0  0
   17.5012   38.9008   25.3679 H   0  0  0  0  0  0  0  0  0  0  0  0
    8.9515   40.2856   26.1959 C   0  0  0  0  0  0  0  0  0  0  0  0
    9.6551   40.8168   25.1382 C   0  0  0  0  0  0  0  0  0  0  0  0
    9.4530   40.1793   23.8129 C   0  0  0  0  0  0  0  0  0  0  0  0
    8.5440   39.0240   23.6068 C   0  0  0  0  0  0  0  0  0  0  0  0
    7.8575   38.5388   24.7502 C   0  0  0  0  0  0  0  0  0  0  0  0
    7.9868   39.0961   26.0935 C   0  0  0  0  0  0  0  0  0  0  0  0
    9.1498   40.8912   21.1056 P   0  0  0  0  0  0  0  0  0  0  0  0
    8.0490   41.8763   21.6883 O   0  0  0  0  0  0  0  0  0  0  0  0
    8.5412   39.5631   20.9175 O   0  0  0  0  0  0  0  0  0  0  0  0
    9.8331   41.5326   19.9105 O   0  0  0  0  0  0  0  0  0  0  0  0
    7.6157   41.4622   22.4510 H   0  0  0  0  0  0  0  0  0  0  0  0
   10.1888   42.3977   20.1673 H   0  0  0  0  0  0  0  0  0  0  0  0
 20 21  2  0  0  0
 20 25  1  0  0  0
 21 22  1  0  0  0
 22 23  2  0  0  0
 22  8  1  0  0  0
 23 24  1  0  0  0
 24 25  2  0  0  0
 10 11  1  0  0  0
 10 15  1  0  0  0
 10 16  2  0  0  0
 11 12  1  0  0  0
 11  1  1  0  0  0
 12 13  2  0  0  0
 13 14  1  0  0  0
 13 18  1  0  0  0
 14 15  1  0  0  0
 14 17  2  0  0  0
  1  2  1  0  0  0
  1  5  1  0  0  0
  2  3  1  0  0  0
  3  4  1  0  0  0
  3  6  1  0  0  0
  4  5  1  0  0  0
  4  9  1  0  0  0
  6  7  1  0  0  0
  7  8  1  0  0  0
  8  9  1  0  0  0
  8 26  1  0  0  0
 26 27  1  0  0  0
 26 28  2  0  0  0
 26 29  1  0  0  0
 15 19  1  0  0  0
 27 30  1  0  0  0
 29 31  1  0  0  0
M  END
> <minimizedAffinity>
-9.14720

$$$$
1Q91_DPB_A_1


 31 34  0  0  0  0  0  0  0  0999 V2000
   14.2466   40.3583   28.6098 C   0  0  0  0  0  0  0  0  0  0  0  0
   13.2064   39.4418   28.3699 O   0  0  0  0  0  0  0  0  0  0  0  0
   12.1021   40.2845   28.2109 C   0  0  0  0  0  0  0  0  0  0  0  0
   12.4078   41.5330   27.7092 C   0  0  0  0  0  0  0  0  0  0  0  0
   13.7512   41.6693   28.1797 C   0  0  0  0  0  0  0  0  0  0  0  0
   11.0811   39.7203   27.3321 C   0  0  0  0  0  0  0  0  0  0  0  0
   11.1577   39.6947   25.8660 O   0  0  0  0  0  0  0  0  0  0  0  0
   11.5597   40.9814   25.3836 C   0  0  0  0  0  0  0  0  0  0  0  0
   12.5194   41.5677   26.2943 O   0  0  0  0  0  0  0  0  0  0  0  0
   16.4170   39.3053   28.9327 C   0  0  0  0  0  0  0  0  0  0  0  0
   15.4641   39.7963   28.0182 N   0  0  0  0  0  0  0  0  0  0  0  0
   15.6191   39.7877   26.5643 C   0  0  0  0  0  0  0  0  0  0  0  0
   16.8377   39.2325   26.1346 C   0  0  0  0  0  0  0  0  0  0  0  0
   17.8114   38.7313   27.1277 C   0  0  0  0  0  0  0  0  0  0  0  0
   17.5793   38.7783   28.4259 N   0  0  0  0  0  0  0  0  0  0  0  0
   16.3085   39.3031   30.1585 O   0  0  0  0  0  0  0  0  0  0  0  0
   18.9025   38.2391   26.7105 O   0  0  0  0  0  0  0  0  0  0  0  0
   17.0967   39.1881   24.5230 C   0  0  0  0  0  0  0  0  0  0  0  0
   18.2571   38.4264   29.0472 H   0  0  0  0  0  0  0  0  0  0  0  0
   13.8445   40.5609   22.3631 C   0  0  0  0  0  0  0  0  0  0  0  0
   13.4298   40.7950   23.6550 C   0  0  0  0  0  0  0  0  0  0  0  0
   11.9713   40.7043   23.9161 C   0  0  0  0  0  0  0  0  0  0  0  0
   10.9837   40.3797   22.8565 C   0  0  0  0  0  0  0  0  0  0  0  0
   11.4962   40.1530   21.5526 C   0  0  0  0  0  0  0  0  0  0  0  0
   12.9102   40.2172   21.1947 C   0  0  0  0  0  0  0  0  0  0  0  0
   10.0264   42.1352   25.3647 P   0  0  0  0  0  0  0  0  0  0  0  0
    8.9235   41.0265   25.6404 O   0  0  0  0  0  0  0  0  0  0  0  0
    9.8546   42.6392   23.9913 O   0  0  0  0  0  0  0  0  0  0  0  0
   10.0306   43.1490   26.4955 O   0  0  0  0  0  0  0  0  0  0  0  0
    8.9249   40.3818   24.9157 H   0  0  0  0  0  0  0  0  0  0  0  0
   10.1508   42.6895   27.3412 H   0  0  0  0  0  0  0  0  0  0  0  0
 20 21  2  0  0  0
 20 25  1  0  0  0
 21 22  1  0  0  0
 22 23  2  0  0  0
 22  8  1  0  0  0
 23 24  1  0  0  0
 24 25  2  0  0  0
 10 11  1  0  0  0
 10 15  1  0  0  0
 10 16  2  0  0  0
 11 12  1  0  0  0
 11  1  1  0  0  0
 12 13  2  0  0  0
 13 14  1  0  0  0
 13 18  1  0  0  0
 14 15  1  0  0  0
 14 17  2  0  0  0
  1  2  1  0  0  0
  1  5  1  0  0  0
  2  3  1  0  0  0
  3  4  1  0  0  0
  3  6  1  0  0  0
  4  5  1  0  0  0
  4  9  1  0  0  0
  6  7  1  0  0  0
  7  8  1  0  0  0
  8  9  1  0  0  0
  8 26  1  0  0  0
 26 27  1  0  0  0
 26 28  2  0  0  0
 26 29  1  0  0  0
 15 19  1  0  0  0
 27 30  1  0  0  0
 29 31  1  0  0  0
M  END
> <minimizedAffinity>
-9.00119

$$$$
1Q91_DPB_A_1


 31 34  0  0  0  0  0  0  0  0999 V2000
   12.3036   41.0265   22.0252 C   0  0  0  0  0  0  0  0  0  0  0  0
   13.3310   40.2061   22.5265 O   0  0  0  0  0  0  0  0  0  0  0  0
   13.9436   41.0418   23.4653 C   0  0  0  0  0  0  0  0  0  0  0  0
   13.0971   41.9684   24.0390 C   0  0  0  0  0  0  0  0  0  0  0  0
   12.1454   42.1245   22.9834 C   0  0  0  0  0  0  0  0  0  0  0  0
   14.5598   40.3031   24.5642 C   0  0  0  0  0  0  0  0  0  0  0  0
   13.8290   39.7193   25.6960 O   0  0  0  0  0  0  0  0  0  0  0  0
   12.8995   40.6777   26.2132 C   0  0  0  0  0  0  0  0  0  0  0  0
   12.3430   41.4554   25.1270 O   0  0  0  0  0  0  0  0  0  0  0  0
    9.9456   40.4961   22.3117 C   0  0  0  0  0  0  0  0  0  0  0  0
   11.1703   40.1541   21.7047 N   0  0  0  0  0  0  0  0  0  0  0  0
   11.3712   39.0128   20.8132 C   0  0  0  0  0  0  0  0  0  0  0  0
   10.2054   38.2550   20.6025 C   0  0  0  0  0  0  0  0  0  0  0  0
    8.9412   38.6469   21.2612 C   0  0  0  0  0  0  0  0  0  0  0  0
    8.8567   39.7017   22.0497 N   0  0  0  0  0  0  0  0  0  0  0  0
    9.7536   41.4501   23.0650 O   0  0  0  0  0  0  0  0  0  0  0  0
    7.9076   37.9429   21.0547 O   0  0  0  0  0  0  0  0  0  0  0  0
   10.3409   36.9560   19.6224 C   0  0  0  0  0  0  0  0  0  0  0  0
    7.9904   39.9248   22.4608 H   0  0  0  0  0  0  0  0  0  0  0  0
    9.8478   38.6091   27.1772 C   0  0  0  0  0  0  0  0  0  0  0  0
   10.7186   39.3670   26.4266 C   0  0  0  0  0  0  0  0  0  0  0  0
   11.9588   39.8254   27.1012 C   0  0  0  0  0  0  0  0  0  0  0  0
   12.2724   39.4994   28.5151 C   0  0  0  0  0  0  0  0  0  0  0  0
   11.3208   38.7138   29.2162 C   0  0  0  0  0  0  0  0  0  0  0  0
   10.0744   38.2142   28.6431 C   0  0  0  0  0  0  0  0  0  0  0  0
   13.8474   41.8990   27.3500 P   0  0  0  0  0  0  0  0  0  0  0  0
   14.3313   42.9065   26.2218 O   0  0  0  0  0  0  0  0  0  0  0  0
   15.0239   41.1963   27.8901 O   0  0  0  0  0  0  0  0  0  0  0  0
   12.9424   42.6224   28.3318 O   0  0  0  0  0  0  0  0  0  0  0  0
   14.9087   42.4398   25.5976 H   0  0  0  0  0  0  0  0  0  0  0  0
   12.2112   43.0401   27.8503 H   0  0  0  0  0  0  0  0  0  0  0  0
 20 21  2  0  0  0
 20 25  1  0  0  0
 21 22  1  0  0  0
 22 23  2  0  0  0
 22  8  1  0  0  0
 23 24  1  0  0  0
 24 25  2  0  0  0
 10 11  1  0  0  0
 10 15  1  0  0  0
 10 16  2  0  0  0
 11 12  1  0  0  0
 11  1  1  0  0  0
 12 13  2  0  0  0
 13 14  1  0  0  0
 13 18  1  0  0  0
 14 15  1  0  0  0
 14 17  2  0  0  0
  1  2  1  0  0  0
  1  5  1  0  0  0
  2  3  1  0  0  0
  3  4  1  0  0  0
  3  6  1  0  0  0
  4  5  1  0  0  0
  4  9  1  0  0  0
  6  7  1  0  0  0
  7  8  1  0  0  0
  8  9  1  0  0  0
  8 26  1  0  0  0
 26 27  1  0  0  0
 26 28  2  0  0  0
 26 29  1  0  0  0
 15 19  1  0  0  0
 27 30  1  0  0  0
 29 31  1  0  0  0
M  END
> <minimizedAffinity>
-8.96447

$$$$
