2BFR_ADP_A_1193
  RCSB PDB12061705073D
Coordinates from PDB:2BFR:A:1193 Model:1 without hydrogens
 27 29  0  0  0  0            999 V2000
   15.1820   76.9810   -7.6950   P 0  0  0  0  0  0  0  0  0  0  0  0
   14.5970   75.6860   -7.2680   O 0  0  0  0  0  0  0  0  0  0  0  0
   16.1960   76.8530   -8.8000   O 0  0  0  0  0  0  0  0  0  0  0  0
   14.0590   78.0470   -8.0200   O 0  0  0  0  0  0  0  0  0  0  0  0
   16.2010   78.9400   -5.8420   P 0  0  0  0  0  0  0  0  0  0  0  0
   17.0470   78.8450   -4.5930   O 0  0  0  0  0  0  0  0  0  0  0  0
   16.7290   79.8770   -6.9030   O 0  0  0  0  0  0  0  0  0  0  0  0
   16.0070   77.4940   -6.4250   O 0  0  0  0  0  0  0  0  0  0  0  0
   14.7550   79.3080   -5.2870   O 0  0  0  0  0  0  0  0  0  0  0  0
   14.0540   78.4510   -4.3280   C 0  0  0  0  0  0  0  0  0  0  0  0
   13.2980   79.2290   -3.2410   C 0  0  0  0  0  0  0  0  0  0  0  0
   14.1050   79.2530   -2.0290   O 0  0  0  0  0  0  0  0  0  0  0  0
   12.9920   80.7250   -3.5440   C 0  0  0  0  0  0  0  0  0  0  0  0
   11.5850   80.9580   -3.3020   O 0  0  0  0  0  0  0  0  0  0  0  0
   13.9690   81.4680   -2.6160   C 0  0  0  0  0  0  0  0  0  0  0  0
   13.4970   82.7600   -2.2000   O 0  0  0  0  0  0  0  0  0  0  0  0
   14.0800   80.5270   -1.4200   C 0  0  0  0  0  0  0  0  0  0  0  0
   15.3480   80.7210   -0.6060   N 0  0  0  0  0  0  0  0  0  0  0  0
   16.5010   81.3570   -0.9680   C 0  0  0  0  0  0  0  0  0  0  0  0
   17.4390   81.3520    0.0010   N 0  0  0  0  0  0  0  0  0  0  0  0
   16.8450   80.6760    1.0220   C 0  0  0  0  0  0  0  0  0  0  0  0
   17.3250   80.3260    2.3570   C 0  0  0  0  0  0  0  0  0  0  0  0
   18.4810   80.6110    2.8500   N 0  0  0  0  0  0  0  0  0  0  0  0
   16.4030   79.6180    3.1220   N 0  0  0  0  0  0  0  0  0  0  0  0
   15.1320   79.2690    2.6670   C 0  0  0  0  0  0  0  0  0  0  0  0
   14.6760   79.5830    1.4460   N 0  0  0  0  0  0  0  0  0  0  0  0
   15.5500   80.2760    0.6680   C 0  0  0  0  0  0  0  0  0  0  0  0
  1  2  2  0  0  0  0
  1  3  1  0  0  0  0
  1  4  1  0  0  0  0
  1  8  1  0  0  0  0
  5  6  2  0  0  0  0
  5  7  1  0  0  0  0
  5  8  1  0  0  0  0
  5  9  1  0  0  0  0
  9 10  1  0  0  0  0
 10 11  1  0  0  0  0
 11 12  1  0  0  0  0
 11 13  1  0  0  0  0
 12 17  1  0  0  0  0
 13 14  1  0  0  0  0
 13 15  1  0  0  0  0
 15 16  1  0  0  0  0
 15 17  1  0  0  0  0
 17 18  1  0  0  0  0
 18 19  1  0  0  0  0
 18 27  1  0  0  0  0
 19 20  2  0  0  0  0
 20 21  1  0  0  0  0
 21 22  1  0  0  0  0
 21 27  2  0  0  0  0
 22 23  1  0  0  0  0
 22 24  2  0  0  0  0
 24 25  1  0  0  0  0
 25 26  2  0  0  0  0
 26 27  1  0  0  0  0
A    1
PB
A    2
O1B
A    3
O2B
A    4
O3B
A    5
PA
A    6
O1A
A    7
O2A
A    8
O3A
A    9
O5'
A   10
C5'
A   11
C4'
A   12
O4'
A   13
C3'
A   14
O3'
A   15
C2'
A   16
O2'
A   17
C1'
A   18
N9
A   19
C8
A   20
N7
A   21
C5
A   22
C6
A   23
N6
A   24
N1
A   25
C2
A   26
N3
A   27
C4
M  END
>  <InstanceId>
2BFR_ADP_A_1193

>  <ChemCompId>
ADP

>  <PdbId>
2BFR

>  <ChainId>
A

>  <ResidueNumber>
1193

>  <InsertionCode>


>  <Model>
1

>  <AltIds>


>  <MissingHeavyAtoms>
0

>  <ObservedFormula>
C10 N5 O10 P2

>  <Name>
ADENOSINE-5'-DIPHOSPHATE

>  <SystematicName>
[(2R,3S,4R,5R)-5-(6-aminopurin-9-yl)-3,4-dihydroxy-oxolan-2-yl]methyl phosphono hydrogen phosphate

>  <Synonyms>


>  <Type>
NON-POLYMER

>  <Formula>
C10 H15 N5 O10 P2

>  <MolecularWeight>
427.201

>  <ModifiedDate>
2011-06-04

>  <Parent>
A

>  <OneLetterCode>


>  <SubcomponentList>


>  <AmbiguousFlag>
N

>  <InChI>
InChI=1S/C10H15N5O10P2/c11-8-5-9(13-2-12-8)15(3-14-5)10-7(17)6(16)4(24-10)1-23-27(21,22)25-26(18,19)20/h2-4,6-7,10,16-17H,1H2,(H,21,22)(H2,11,12,13)(H2,18,19,20)/t4-,6-,7-,10-/m1/s1

>  <InChIKey>
XTWYTFMLZFPYCI-KQYNXXCUSA-N

>  <SMILES>
c1nc(c2c(n1)n(cn2)[C@H]3[C@@H]([C@@H]([C@H](O3)CO[P@](=O)(O)OP(=O)(O)O)O)O)N

$$$$
