2JDS_L20_A_1351


 34 38  0  0  0  0  0  0  0  0999 V2000
    8.2832   10.1671    0.7163 C   0  0  0  0  0  0  0  0  0  0  0  0
    8.4918   10.2027   -0.6774 C   0  0  0  0  0  0  0  0  0  0  0  0
    9.6809   10.2585   -1.2888 N   0  0  0  0  0  0  0  0  0  0  0  0
   10.7486   10.2954   -0.4877 C   0  0  0  0  0  0  0  0  0  0  0  0
   10.6719   10.2448    0.9026 C   0  0  0  0  0  0  0  0  0  0  0  0
    9.4247   10.1826    1.5603 C   0  0  0  0  0  0  0  0  0  0  0  0
    5.2221   10.7241    5.5648 C   0  0  0  0  0  0  0  0  0  0  0  0
    4.5878   10.3817    4.2534 C   0  0  0  0  0  0  0  0  0  0  0  0
    3.2672   10.1855    4.0434 N   0  0  0  0  0  0  0  0  0  0  0  0
    3.0306    9.8995    2.7448 N   0  0  0  0  0  0  0  0  0  0  0  0
    4.2279    9.9182    2.0208 C   0  0  0  0  0  0  0  0  0  0  0  0
    4.5395    9.6900    0.6737 C   0  0  0  0  0  0  0  0  0  0  0  0
    5.8520    9.7944    0.2772 C   0  0  0  0  0  0  0  0  0  0  0  0
    6.9003   10.0899    1.2104 C   0  0  0  0  0  0  0  0  0  0  0  0
    6.6084   10.3110    2.5590 C   0  0  0  0  0  0  0  0  0  0  0  0
    5.2778   10.2419    2.9768 C   0  0  0  0  0  0  0  0  0  0  0  0
    2.1441    9.7058    2.3629 H   0  0  0  0  0  0  0  0  0  0  0  0
   11.8743   10.2800    1.5965 O   0  0  0  0  0  0  0  0  0  0  0  0
   13.1046    9.6643    1.2404 C   0  0  0  0  0  0  0  0  0  0  0  0
   12.9745    8.2333    1.8480 C   0  0  0  0  0  0  0  0  0  0  0  0
   13.8704    7.2825    1.0526 N   0  0  0  0  0  0  0  0  0  0  0  0
   14.8419    7.5824    1.1347 H   0  0  0  0  0  0  0  0  0  0  0  0
   13.5926    7.2947    0.0713 H   0  0  0  0  0  0  0  0  0  0  0  0
   13.2186    8.1868    3.4119 C   0  0  0  0  0  0  0  0  0  0  0  0
   12.1924    8.8572    4.2551 C   0  0  0  0  0  0  0  0  0  0  0  0
   12.4186    9.9658    5.0860 C   0  0  0  0  0  0  0  0  0  0  0  0
   11.2414   10.3747    5.7111 N   0  0  0  0  0  0  0  0  0  0  0  0
   10.1829    9.5453    5.2944 C   0  0  0  0  0  0  0  0  0  0  0  0
    8.8067    9.5809    5.6266 C   0  0  0  0  0  0  0  0  0  0  0  0
    7.9702    8.6188    5.0544 C   0  0  0  0  0  0  0  0  0  0  0  0
    8.5030    7.6547    4.1585 C   0  0  0  0  0  0  0  0  0  0  0  0
    9.8538    7.6263    3.8219 C   0  0  0  0  0  0  0  0  0  0  0  0
   10.7445    8.5654    4.3804 C   0  0  0  0  0  0  0  0  0  0  0  0
   11.1628   11.1248    6.3439 H   0  0  0  0  0  0  0  0  0  0  0  0
  7  8  1  0  0  0
  8  9  2  0  0  0
  8 16  1  0  0  0
  9 10  1  0  0  0
 10 11  1  0  0  0
 11 12  2  0  0  0
 11 16  1  0  0  0
 12 13  1  0  0  0
 13 14  2  0  0  0
 14 15  1  0  0  0
 14  1  1  0  0  0
 15 16  2  0  0  0
  1  2  1  0  0  0
  1  6  2  0  0  0
  2  3  2  0  0  0
  3  4  1  0  0  0
  4  5  2  0  0  0
  5 18  1  0  0  0
  5  6  1  0  0  0
 18 19  1  0  0  0
 19 20  1  0  0  0
 20 21  1  0  0  0
 20 24  1  0  0  0
 24 25  1  0  0  0
 25 26  2  0  0  0
 25 33  1  0  0  0
 26 27  1  0  0  0
 27 28  1  0  0  0
 28 29  2  0  0  0
 28 33  1  0  0  0
 29 30  1  0  0  0
 30 31  2  0  0  0
 31 32  1  0  0  0
 32 33  2  0  0  0
 10 17  1  0  0  0
 21 22  1  0  0  0
 21 23  1  0  0  0
 27 34  1  0  0  0
M  END
> <minimizedAffinity>
-10.21678

$$$$
2JDS_L20_A_1351


 34 38  0  0  0  0  0  0  0  0999 V2000
   10.0510   10.2103    3.5748 C   0  0  0  0  0  0  0  0  0  0  0  0
   10.7857   10.1602    4.7767 C   0  0  0  0  0  0  0  0  0  0  0  0
   12.1201   10.1445    4.8772 N   0  0  0  0  0  0  0  0  0  0  0  0
   12.7932   10.1660    3.7242 C   0  0  0  0  0  0  0  0  0  0  0  0
   12.1808   10.2366    2.4748 C   0  0  0  0  0  0  0  0  0  0  0  0
   10.7746   10.2570    2.3542 C   0  0  0  0  0  0  0  0  0  0  0  0
    5.3687    9.8629    0.2363 C   0  0  0  0  0  0  0  0  0  0  0  0
    5.2821   10.0508    1.7185 C   0  0  0  0  0  0  0  0  0  0  0  0
    4.1408   10.1408    2.4366 N   0  0  0  0  0  0  0  0  0  0  0  0
    4.4173   10.3000    3.7491 N   0  0  0  0  0  0  0  0  0  0  0  0
    5.8015   10.2995    3.9538 C   0  0  0  0  0  0  0  0  0  0  0  0
    6.6037   10.4334    5.0951 C   0  0  0  0  0  0  0  0  0  0  0  0
    7.9698   10.3829    4.9463 C   0  0  0  0  0  0  0  0  0  0  0  0
    8.5830   10.2372    3.6580 C   0  0  0  0  0  0  0  0  0  0  0  0
    7.7982   10.1118    2.5086 C   0  0  0  0  0  0  0  0  0  0  0  0
    6.4082   10.1278    2.6410 C   0  0  0  0  0  0  0  0  0  0  0  0
    3.7426   10.4017    4.4588 H   0  0  0  0  0  0  0  0  0  0  0  0
   13.0195   10.2637    1.3682 O   0  0  0  0  0  0  0  0  0  0  0  0
   14.2228   11.0018    1.2045 C   0  0  0  0  0  0  0  0  0  0  0  0
   13.7653   12.2505    0.3889 C   0  0  0  0  0  0  0  0  0  0  0  0
   13.5434   13.4121    1.3588 N   0  0  0  0  0  0  0  0  0  0  0  0
   14.4209   13.6353    1.8284 H   0  0  0  0  0  0  0  0  0  0  0  0
   12.8444   13.1468    2.0527 H   0  0  0  0  0  0  0  0  0  0  0  0
   14.7248   12.6001   -0.8216 C   0  0  0  0  0  0  0  0  0  0  0  0
   14.9248   11.5249   -1.8302 C   0  0  0  0  0  0  0  0  0  0  0  0
   13.9371   11.0226   -2.6920 C   0  0  0  0  0  0  0  0  0  0  0  0
   14.4585   10.0470   -3.5406 N   0  0  0  0  0  0  0  0  0  0  0  0
   15.8306    9.8833   -3.2712 C   0  0  0  0  0  0  0  0  0  0  0  0
   16.7894    9.0399   -3.8834 C   0  0  0  0  0  0  0  0  0  0  0  0
   18.1019    9.0862   -3.4057 C   0  0  0  0  0  0  0  0  0  0  0  0
   18.4436    9.9703   -2.3486 C   0  0  0  0  0  0  0  0  0  0  0  0
   17.5042   10.8086   -1.7540 C   0  0  0  0  0  0  0  0  0  0  0  0
   16.1632   10.7930   -2.1882 C   0  0  0  0  0  0  0  0  0  0  0  0
   13.9480    9.5510   -4.2207 H   0  0  0  0  0  0  0  0  0  0  0  0
  7  8  1  0  0  0
  8  9  2  0  0  0
  8 16  1  0  0  0
  9 10  1  0  0  0
 10 11  1  0  0  0
 11 12  2  0  0  0
 11 16  1  0  0  0
 12 13  1  0  0  0
 13 14  2  0  0  0
 14 15  1  0  0  0
 14  1  1  0  0  0
 15 16  2  0  0  0
  1  2  1  0  0  0
  1  6  2  0  0  0
  2  3  2  0  0  0
  3  4  1  0  0  0
  4  5  2  0  0  0
  5 18  1  0  0  0
  5  6  1  0  0  0
 18 19  1  0  0  0
 19 20  1  0  0  0
 20 21  1  0  0  0
 20 24  1  0  0  0
 24 25  1  0  0  0
 25 26  2  0  0  0
 25 33  1  0  0  0
 26 27  1  0  0  0
 27 28  1  0  0  0
 28 29  2  0  0  0
 28 33  1  0  0  0
 29 30  1  0  0  0
 30 31  2  0  0  0
 31 32  1  0  0  0
 32 33  2  0  0  0
 10 17  1  0  0  0
 21 22  1  0  0  0
 21 23  1  0  0  0
 27 34  1  0  0  0
M  END
> <minimizedAffinity>
-10.00228

$$$$
2JDS_L20_A_1351


 34 38  0  0  0  0  0  0  0  0999 V2000
   11.5513    9.9066    2.6826 C   0  0  0  0  0  0  0  0  0  0  0  0
   12.1390   11.0885    3.1772 C   0  0  0  0  0  0  0  0  0  0  0  0
   13.4211   11.2352    3.5317 N   0  0  0  0  0  0  0  0  0  0  0  0
   14.1889   10.1496    3.4093 C   0  0  0  0  0  0  0  0  0  0  0  0
   13.7290    8.9314    2.9136 C   0  0  0  0  0  0  0  0  0  0  0  0
   12.3802    8.7638    2.5330 C   0  0  0  0  0  0  0  0  0  0  0  0
    6.3558   10.6151    5.0688 C   0  0  0  0  0  0  0  0  0  0  0  0
    6.5354   10.3556    3.6060 C   0  0  0  0  0  0  0  0  0  0  0  0
    5.5435   10.2759    2.6915 N   0  0  0  0  0  0  0  0  0  0  0  0
    6.0496   10.0388    1.4619 N   0  0  0  0  0  0  0  0  0  0  0  0
    7.4461    9.9722    1.5197 C   0  0  0  0  0  0  0  0  0  0  0  0
    8.4378    9.7476    0.5554 C   0  0  0  0  0  0  0  0  0  0  0  0
    9.7535    9.7496    0.9546 C   0  0  0  0  0  0  0  0  0  0  0  0
   10.1245    9.9356    2.3275 C   0  0  0  0  0  0  0  0  0  0  0  0
    9.1480   10.1515    3.3035 C   0  0  0  0  0  0  0  0  0  0  0  0
    7.8074   10.1856    2.9143 C   0  0  0  0  0  0  0  0  0  0  0  0
    5.5135    9.9288    0.6435 H   0  0  0  0  0  0  0  0  0  0  0  0
   14.6544    7.8989    2.8358 O   0  0  0  0  0  0  0  0  0  0  0  0
   15.0042    7.1260    1.6957 C   0  0  0  0  0  0  0  0  0  0  0  0
   16.3232    7.7974    1.2025 C   0  0  0  0  0  0  0  0  0  0  0  0
   17.5096    7.0100    1.7609 N   0  0  0  0  0  0  0  0  0  0  0  0
   17.4803    6.0541    1.4064 H   0  0  0  0  0  0  0  0  0  0  0  0
   17.4595    6.9966    2.7796 H   0  0  0  0  0  0  0  0  0  0  0  0
   16.3754    8.0096   -0.3660 C   0  0  0  0  0  0  0  0  0  0  0  0
   16.6021    9.4046   -0.8308 C   0  0  0  0  0  0  0  0  0  0  0  0
   17.7521    9.8666   -1.4902 C   0  0  0  0  0  0  0  0  0  0  0  0
   17.6331   11.2150   -1.8241 N   0  0  0  0  0  0  0  0  0  0  0  0
   16.3760   11.6880   -1.4023 C   0  0  0  0  0  0  0  0  0  0  0  0
   15.7865   12.9683   -1.5397 C   0  0  0  0  0  0  0  0  0  0  0  0
   14.5038   13.1576   -1.0185 C   0  0  0  0  0  0  0  0  0  0  0  0
   13.8257   12.0810   -0.3883 C   0  0  0  0  0  0  0  0  0  0  0  0
   14.3997   10.8186   -0.2633 C   0  0  0  0  0  0  0  0  0  0  0  0
   15.6965   10.5760   -0.7598 C   0  0  0  0  0  0  0  0  0  0  0  0
   18.3196   11.7515   -2.2824 H   0  0  0  0  0  0  0  0  0  0  0  0
  7  8  1  0  0  0
  8  9  2  0  0  0
  8 16  1  0  0  0
  9 10  1  0  0  0
 10 11  1  0  0  0
 11 12  2  0  0  0
 11 16  1  0  0  0
 12 13  1  0  0  0
 13 14  2  0  0  0
 14 15  1  0  0  0
 14  1  1  0  0  0
 15 16  2  0  0  0
  1  2  1  0  0  0
  1  6  2  0  0  0
  2  3  2  0  0  0
  3  4  1  0  0  0
  4  5  2  0  0  0
  5 18  1  0  0  0
  5  6  1  0  0  0
 18 19  1  0  0  0
 19 20  1  0  0  0
 20 21  1  0  0  0
 20 24  1  0  0  0
 24 25  1  0  0  0
 25 26  2  0  0  0
 25 33  1  0  0  0
 26 27  1  0  0  0
 27 28  1  0  0  0
 28 29  2  0  0  0
 28 33  1  0  0  0
 29 30  1  0  0  0
 30 31  2  0  0  0
 31 32  1  0  0  0
 32 33  2  0  0  0
 10 17  1  0  0  0
 21 22  1  0  0  0
 21 23  1  0  0  0
 27 34  1  0  0  0
M  END
> <minimizedAffinity>
-9.98566

$$$$
2JDS_L20_A_1351


 34 38  0  0  0  0  0  0  0  0999 V2000
    8.3297    9.9667    0.8613 C   0  0  0  0  0  0  0  0  0  0  0  0
    8.5933   10.4800   -0.4247 C   0  0  0  0  0  0  0  0  0  0  0  0
    9.7942   10.5382   -1.0123 N   0  0  0  0  0  0  0  0  0  0  0  0
   10.8196   10.0753   -0.2930 C   0  0  0  0  0  0  0  0  0  0  0  0
   10.6829    9.5251    0.9797 C   0  0  0  0  0  0  0  0  0  0  0  0
    9.4219    9.4545    1.6098 C   0  0  0  0  0  0  0  0  0  0  0  0
    5.2543   10.5893    5.6928 C   0  0  0  0  0  0  0  0  0  0  0  0
    4.6143   10.3280    4.3655 C   0  0  0  0  0  0  0  0  0  0  0  0
    3.2863   10.2273    4.1364 N   0  0  0  0  0  0  0  0  0  0  0  0
    3.0467    9.9951    2.8276 N   0  0  0  0  0  0  0  0  0  0  0  0
    4.2513    9.9539    2.1168 C   0  0  0  0  0  0  0  0  0  0  0  0
    4.5632    9.7440    0.7668 C   0  0  0  0  0  0  0  0  0  0  0  0
    5.8844    9.7712    0.3868 C   0  0  0  0  0  0  0  0  0  0  0  0
    6.9388    9.9686    1.3389 C   0  0  0  0  0  0  0  0  0  0  0  0
    6.6460   10.1701    2.6903 C   0  0  0  0  0  0  0  0  0  0  0  0
    5.3089   10.1787    3.0925 C   0  0  0  0  0  0  0  0  0  0  0  0
    2.1539    9.8725    2.4312 H   0  0  0  0  0  0  0  0  0  0  0  0
   11.8443    9.0755    1.5943 O   0  0  0  0  0  0  0  0  0  0  0  0
   12.0326    8.7398    2.9623 C   0  0  0  0  0  0  0  0  0  0  0  0
   12.3214   10.1198    3.6302 C   0  0  0  0  0  0  0  0  0  0  0  0
   12.2533    9.9504    5.1487 N   0  0  0  0  0  0  0  0  0  0  0  0
   12.9689    9.2887    5.4494 H   0  0  0  0  0  0  0  0  0  0  0  0
   11.3327    9.5979    5.4105 H   0  0  0  0  0  0  0  0  0  0  0  0
   13.6569   10.8009    3.1200 C   0  0  0  0  0  0  0  0  0  0  0  0
   13.5216   11.7160    1.9548 C   0  0  0  0  0  0  0  0  0  0  0  0
   12.9204   12.9842    1.9807 C   0  0  0  0  0  0  0  0  0  0  0  0
   12.9902   13.5997    0.7317 N   0  0  0  0  0  0  0  0  0  0  0  0
   13.6628   12.7502   -0.1671 C   0  0  0  0  0  0  0  0  0  0  0  0
   14.0018   12.9420   -1.5286 C   0  0  0  0  0  0  0  0  0  0  0  0
   14.6830   11.9132   -2.1847 C   0  0  0  0  0  0  0  0  0  0  0  0
   15.0274   10.7275   -1.4837 C   0  0  0  0  0  0  0  0  0  0  0  0
   14.7051   10.5429   -0.1417 C   0  0  0  0  0  0  0  0  0  0  0  0
   14.0070   11.5431    0.5649 C   0  0  0  0  0  0  0  0  0  0  0  0
   12.6265   14.4880    0.5128 H   0  0  0  0  0  0  0  0  0  0  0  0
  7  8  1  0  0  0
  8  9  2  0  0  0
  8 16  1  0  0  0
  9 10  1  0  0  0
 10 11  1  0  0  0
 11 12  2  0  0  0
 11 16  1  0  0  0
 12 13  1  0  0  0
 13 14  2  0  0  0
 14 15  1  0  0  0
 14  1  1  0  0  0
 15 16  2  0  0  0
  1  2  1  0  0  0
  1  6  2  0  0  0
  2  3  2  0  0  0
  3  4  1  0  0  0
  4  5  2  0  0  0
  5 18  1  0  0  0
  5  6  1  0  0  0
 18 19  1  0  0  0
 19 20  1  0  0  0
 20 21  1  0  0  0
 20 24  1  0  0  0
 24 25  1  0  0  0
 25 26  2  0  0  0
 25 33  1  0  0  0
 26 27  1  0  0  0
 27 28  1  0  0  0
 28 29  2  0  0  0
 28 33  1  0  0  0
 29 30  1  0  0  0
 30 31  2  0  0  0
 31 32  1  0  0  0
 32 33  2  0  0  0
 10 17  1  0  0  0
 21 22  1  0  0  0
 21 23  1  0  0  0
 27 34  1  0  0  0
M  END
> <minimizedAffinity>
-9.80949

$$$$
2JDS_L20_A_1351


 34 38  0  0  0  0  0  0  0  0999 V2000
    9.3794   10.1190    2.4759 C   0  0  0  0  0  0  0  0  0  0  0  0
    9.9168   10.1118    3.7790 C   0  0  0  0  0  0  0  0  0  0  0  0
   11.2185   10.1423    4.0881 N   0  0  0  0  0  0  0  0  0  0  0  0
   12.0639   10.1689    3.0548 C   0  0  0  0  0  0  0  0  0  0  0  0
   11.6541   10.1998    1.7235 C   0  0  0  0  0  0  0  0  0  0  0  0
   10.2845   10.1714    1.3833 C   0  0  0  0  0  0  0  0  0  0  0  0
    4.5545   10.3846    5.6126 C   0  0  0  0  0  0  0  0  0  0  0  0
    4.5332   10.2383    4.1234 C   0  0  0  0  0  0  0  0  0  0  0  0
    3.4248   10.1713    3.3532 N   0  0  0  0  0  0  0  0  0  0  0  0
    3.7588   10.0481    2.0503 N   0  0  0  0  0  0  0  0  0  0  0  0
    5.1508   10.0509    1.9070 C   0  0  0  0  0  0  0  0  0  0  0  0
    6.0025    9.9469    0.7990 C   0  0  0  0  0  0  0  0  0  0  0  0
    7.3607    9.9898    1.0093 C   0  0  0  0  0  0  0  0  0  0  0  0
    7.9165   10.0980    2.3271 C   0  0  0  0  0  0  0  0  0  0  0  0
    7.0818   10.1932    3.4437 C   0  0  0  0  0  0  0  0  0  0  0  0
    5.6990   10.1844    3.2497 C   0  0  0  0  0  0  0  0  0  0  0  0
    3.1161    9.9679    1.3089 H   0  0  0  0  0  0  0  0  0  0  0  0
   12.6554   10.2382    0.7620 O   0  0  0  0  0  0  0  0  0  0  0  0
   13.9111   10.8994    0.8373 C   0  0  0  0  0  0  0  0  0  0  0  0
   13.6157   12.2954    0.2067 C   0  0  0  0  0  0  0  0  0  0  0  0
   13.6274   13.3452    1.3189 N   0  0  0  0  0  0  0  0  0  0  0  0
   14.5513   13.3733    1.7503 H   0  0  0  0  0  0  0  0  0  0  0  0
   12.9307   13.1023    2.0231 H   0  0  0  0  0  0  0  0  0  0  0  0
   14.5570   12.6473   -1.0172 C   0  0  0  0  0  0  0  0  0  0  0  0
   14.8439   11.5356   -1.9634 C   0  0  0  0  0  0  0  0  0  0  0  0
   13.9200   10.9635   -2.8520 C   0  0  0  0  0  0  0  0  0  0  0  0
   14.5159    9.9689   -3.6262 N   0  0  0  0  0  0  0  0  0  0  0  0
   15.8757    9.8623   -3.2777 C   0  0  0  0  0  0  0  0  0  0  0  0
   16.8914    9.0245   -3.7991 C   0  0  0  0  0  0  0  0  0  0  0  0
   18.1741    9.1349   -3.2557 C   0  0  0  0  0  0  0  0  0  0  0  0
   18.4312   10.0757   -2.2238 C   0  0  0  0  0  0  0  0  0  0  0  0
   17.4360   10.9083   -1.7187 C   0  0  0  0  0  0  0  0  0  0  0  0
   16.1215   10.8296   -2.2217 C   0  0  0  0  0  0  0  0  0  0  0  0
   14.0581    9.4268   -4.3087 H   0  0  0  0  0  0  0  0  0  0  0  0
  7  8  1  0  0  0
  8  9  2  0  0  0
  8 16  1  0  0  0
  9 10  1  0  0  0
 10 11  1  0  0  0
 11 12  2  0  0  0
 11 16  1  0  0  0
 12 13  1  0  0  0
 13 14  2  0  0  0
 14 15  1  0  0  0
 14  1  1  0  0  0
 15 16  2  0  0  0
  1  2  1  0  0  0
  1  6  2  0  0  0
  2  3  2  0  0  0
  3  4  1  0  0  0
  4  5  2  0  0  0
  5 18  1  0  0  0
  5  6  1  0  0  0
 18 19  1  0  0  0
 19 20  1  0  0  0
 20 21  1  0  0  0
 20 24  1  0  0  0
 24 25  1  0  0  0
 25 26  2  0  0  0
 25 33  1  0  0  0
 26 27  1  0  0  0
 27 28  1  0  0  0
 28 29  2  0  0  0
 28 33  1  0  0  0
 29 30  1  0  0  0
 30 31  2  0  0  0
 31 32  1  0  0  0
 32 33  2  0  0  0
 10 17  1  0  0  0
 21 22  1  0  0  0
 21 23  1  0  0  0
 27 34  1  0  0  0
M  END
> <minimizedAffinity>
-9.78161

$$$$
2JDS_L20_A_1351


 34 38  0  0  0  0  0  0  0  0999 V2000
    8.3966    9.9286    0.9018 C   0  0  0  0  0  0  0  0  0  0  0  0
    8.7215   10.6546   -0.2619 C   0  0  0  0  0  0  0  0  0  0  0  0
    9.9356   10.7366   -0.8188 N   0  0  0  0  0  0  0  0  0  0  0  0
   10.9116   10.0746   -0.1925 C   0  0  0  0  0  0  0  0  0  0  0  0
   10.7110    9.3060    0.9521 C   0  0  0  0  0  0  0  0  0  0  0  0
    9.4353    9.2082    1.5481 C   0  0  0  0  0  0  0  0  0  0  0  0
    5.2601   10.5909    5.6885 C   0  0  0  0  0  0  0  0  0  0  0  0
    4.6366   10.3260    4.3541 C   0  0  0  0  0  0  0  0  0  0  0  0
    3.3113   10.2307    4.1077 N   0  0  0  0  0  0  0  0  0  0  0  0
    3.0880    9.9930    2.7970 N   0  0  0  0  0  0  0  0  0  0  0  0
    4.3018    9.9423    2.1026 C   0  0  0  0  0  0  0  0  0  0  0  0
    4.6307    9.7240    0.7579 C   0  0  0  0  0  0  0  0  0  0  0  0
    5.9570    9.7427    0.3956 C   0  0  0  0  0  0  0  0  0  0  0  0
    6.9995    9.9398    1.3607 C   0  0  0  0  0  0  0  0  0  0  0  0
    6.6897   10.1497    2.7071 C   0  0  0  0  0  0  0  0  0  0  0  0
    5.3474   10.1668    3.0912 C   0  0  0  0  0  0  0  0  0  0  0  0
    2.2000    9.8728    2.3893 H   0  0  0  0  0  0  0  0  0  0  0  0
   11.8258    8.6672    1.4793 O   0  0  0  0  0  0  0  0  0  0  0  0
   12.4704    8.9211    2.7201 C   0  0  0  0  0  0  0  0  0  0  0  0
   13.8620    8.2384    2.5435 C   0  0  0  0  0  0  0  0  0  0  0  0
   13.7353    7.1386    1.4883 N   0  0  0  0  0  0  0  0  0  0  0  0
   13.4619    7.5524    0.5970 H   0  0  0  0  0  0  0  0  0  0  0  0
   13.0275    6.4655    1.7820 H   0  0  0  0  0  0  0  0  0  0  0  0
   15.0369    9.2629    2.2643 C   0  0  0  0  0  0  0  0  0  0  0  0
   15.0820    9.8511    0.8985 C   0  0  0  0  0  0  0  0  0  0  0  0
   15.6943    9.2653   -0.2207 C   0  0  0  0  0  0  0  0  0  0  0  0
   15.5255   10.0548   -1.3573 N   0  0  0  0  0  0  0  0  0  0  0  0
   14.7726   11.1960   -1.0217 C   0  0  0  0  0  0  0  0  0  0  0  0
   14.3225   12.2667   -1.8320 C   0  0  0  0  0  0  0  0  0  0  0  0
   13.5800   13.2816   -1.2225 C   0  0  0  0  0  0  0  0  0  0  0  0
   13.2852   13.2127    0.1647 C   0  0  0  0  0  0  0  0  0  0  0  0
   13.7171   12.1544    0.9598 C   0  0  0  0  0  0  0  0  0  0  0  0
   14.4805   11.1105    0.3991 C   0  0  0  0  0  0  0  0  0  0  0  0
   15.8772    9.8470   -2.2531 H   0  0  0  0  0  0  0  0  0  0  0  0
  7  8  1  0  0  0
  8  9  2  0  0  0
  8 16  1  0  0  0
  9 10  1  0  0  0
 10 11  1  0  0  0
 11 12  2  0  0  0
 11 16  1  0  0  0
 12 13  1  0  0  0
 13 14  2  0  0  0
 14 15  1  0  0  0
 14  1  1  0  0  0
 15 16  2  0  0  0
  1  2  1  0  0  0
  1  6  2  0  0  0
  2  3  2  0  0  0
  3  4  1  0  0  0
  4  5  2  0  0  0
  5 18  1  0  0  0
  5  6  1  0  0  0
 18 19  1  0  0  0
 19 20  1  0  0  0
 20 21  1  0  0  0
 20 24  1  0  0  0
 24 25  1  0  0  0
 25 26  2  0  0  0
 25 33  1  0  0  0
 26 27  1  0  0  0
 27 28  1  0  0  0
 28 29  2  0  0  0
 28 33  1  0  0  0
 29 30  1  0  0  0
 30 31  2  0  0  0
 31 32  1  0  0  0
 32 33  2  0  0  0
 10 17  1  0  0  0
 21 22  1  0  0  0
 21 23  1  0  0  0
 27 34  1  0  0  0
M  END
> <minimizedAffinity>
-9.71760

$$$$
2JDS_L20_A_1351


 34 38  0  0  0  0  0  0  0  0999 V2000
   16.5645    8.0154    1.5930 C   0  0  0  0  0  0  0  0  0  0  0  0
   17.2990    7.7417    2.7646 C   0  0  0  0  0  0  0  0  0  0  0  0
   16.7966    7.2612    3.9081 N   0  0  0  0  0  0  0  0  0  0  0  0
   15.4796    7.0413    3.9207 C   0  0  0  0  0  0  0  0  0  0  0  0
   14.6516    7.2529    2.8203 C   0  0  0  0  0  0  0  0  0  0  0  0
   15.1687    7.7562    1.6073 C   0  0  0  0  0  0  0  0  0  0  0  0
   16.0850    8.4558   -4.1311 C   0  0  0  0  0  0  0  0  0  0  0  0
   17.2784    8.9671   -3.3868 C   0  0  0  0  0  0  0  0  0  0  0  0
   18.3445    9.5889   -3.9374 N   0  0  0  0  0  0  0  0  0  0  0  0
   19.2404    9.9277   -2.9851 N   0  0  0  0  0  0  0  0  0  0  0  0
   18.7704    9.5466   -1.7234 C   0  0  0  0  0  0  0  0  0  0  0  0
   19.2974    9.6543   -0.4293 C   0  0  0  0  0  0  0  0  0  0  0  0
   18.5573    9.1687    0.6229 C   0  0  0  0  0  0  0  0  0  0  0  0
   17.2906    8.5270    0.4210 C   0  0  0  0  0  0  0  0  0  0  0  0
   16.7547    8.4028   -0.8636 C   0  0  0  0  0  0  0  0  0  0  0  0
   17.4751    8.9182   -1.9431 C   0  0  0  0  0  0  0  0  0  0  0  0
   20.0995   10.3777   -3.1542 H   0  0  0  0  0  0  0  0  0  0  0  0
   13.3035    6.9649    2.9879 O   0  0  0  0  0  0  0  0  0  0  0  0
   12.3194    7.7513    3.6456 C   0  0  0  0  0  0  0  0  0  0  0  0
   11.3072    8.0804    2.5051 C   0  0  0  0  0  0  0  0  0  0  0  0
   10.1926    7.0332    2.5250 N   0  0  0  0  0  0  0  0  0  0  0  0
    9.7008    7.0771    3.4175 H   0  0  0  0  0  0  0  0  0  0  0  0
   10.5966    6.1044    2.4048 H   0  0  0  0  0  0  0  0  0  0  0  0
   10.7839    9.5747    2.5371 C   0  0  0  0  0  0  0  0  0  0  0  0
    9.8706    9.9248    3.6583 C   0  0  0  0  0  0  0  0  0  0  0  0
   10.2676   10.2019    4.9759 C   0  0  0  0  0  0  0  0  0  0  0  0
    9.1721   10.5312    5.7728 N   0  0  0  0  0  0  0  0  0  0  0  0
    8.0022   10.4955    4.9905 C   0  0  0  0  0  0  0  0  0  0  0  0
    6.6591   10.7791    5.3387 C   0  0  0  0  0  0  0  0  0  0  0  0
    5.6859   10.6614    4.3428 C   0  0  0  0  0  0  0  0  0  0  0  0
    6.0576   10.2826    3.0258 C   0  0  0  0  0  0  0  0  0  0  0  0
    7.3794   10.0152    2.6796 C   0  0  0  0  0  0  0  0  0  0  0  0
    8.3994   10.1060    3.6483 C   0  0  0  0  0  0  0  0  0  0  0  0
    9.2105   10.7535    6.7311 H   0  0  0  0  0  0  0  0  0  0  0  0
  7  8  1  0  0  0
  8  9  2  0  0  0
  8 16  1  0  0  0
  9 10  1  0  0  0
 10 11  1  0  0  0
 11 12  2  0  0  0
 11 16  1  0  0  0
 12 13  1  0  0  0
 13 14  2  0  0  0
 14 15  1  0  0  0
 14  1  1  0  0  0
 15 16  2  0  0  0
  1  2  1  0  0  0
  1  6  2  0  0  0
  2  3  2  0  0  0
  3  4  1  0  0  0
  4  5  2  0  0  0
  5 18  1  0  0  0
  5  6  1  0  0  0
 18 19  1  0  0  0
 19 20  1  0  0  0
 20 21  1  0  0  0
 20 24  1  0  0  0
 24 25  1  0  0  0
 25 26  2  0  0  0
 25 33  1  0  0  0
 26 27  1  0  0  0
 27 28  1  0  0  0
 28 29  2  0  0  0
 28 33  1  0  0  0
 29 30  1  0  0  0
 30 31  2  0  0  0
 31 32  1  0  0  0
 32 33  2  0  0  0
 10 17  1  0  0  0
 21 22  1  0  0  0
 21 23  1  0  0  0
 27 34  1  0  0  0
M  END
> <minimizedAffinity>
-9.61376

$$$$
2JDS_L20_A_1351


 34 38  0  0  0  0  0  0  0  0999 V2000
   11.1370    8.9996    3.9663 C   0  0  0  0  0  0  0  0  0  0  0  0
   11.5551    9.8093    5.0417 C   0  0  0  0  0  0  0  0  0  0  0  0
   12.7452    9.7471    5.6506 N   0  0  0  0  0  0  0  0  0  0  0  0
   13.5893    8.8206    5.1903 C   0  0  0  0  0  0  0  0  0  0  0  0
   13.2993    7.9761    4.1207 C   0  0  0  0  0  0  0  0  0  0  0  0
   12.0495    8.0331    3.4673 C   0  0  0  0  0  0  0  0  0  0  0  0
    8.5112   10.4959   -0.9383 C   0  0  0  0  0  0  0  0  0  0  0  0
    7.7520   10.1939    0.3154 C   0  0  0  0  0  0  0  0  0  0  0  0
    6.4072   10.2146    0.4474 N   0  0  0  0  0  0  0  0  0  0  0  0
    6.0489    9.8866    1.7077 N   0  0  0  0  0  0  0  0  0  0  0  0
    7.1853    9.6069    2.4748 C   0  0  0  0  0  0  0  0  0  0  0  0
    7.3731    9.2315    3.8119 C   0  0  0  0  0  0  0  0  0  0  0  0
    8.6561    9.0249    4.2612 C   0  0  0  0  0  0  0  0  0  0  0  0
    9.7938    9.2215    3.4103 C   0  0  0  0  0  0  0  0  0  0  0  0
    9.6250    9.6048    2.0771 C   0  0  0  0  0  0  0  0  0  0  0  0
    8.3288    9.7884    1.5914 C   0  0  0  0  0  0  0  0  0  0  0  0
    5.1224    9.8497    2.0387 H   0  0  0  0  0  0  0  0  0  0  0  0
   14.2873    7.0725    3.7520 O   0  0  0  0  0  0  0  0  0  0  0  0
   14.9508    6.9696    2.4996 C   0  0  0  0  0  0  0  0  0  0  0  0
   16.3640    7.5599    2.7967 C   0  0  0  0  0  0  0  0  0  0  0  0
   17.4086    6.7176    2.0628 N   0  0  0  0  0  0  0  0  0  0  0  0
   17.2410    6.7680    1.0580 H   0  0  0  0  0  0  0  0  0  0  0  0
   17.3404    5.7475    2.3706 H   0  0  0  0  0  0  0  0  0  0  0  0
   16.4732    9.1128    2.5065 C   0  0  0  0  0  0  0  0  0  0  0  0
   15.7042    9.6161    1.3366 C   0  0  0  0  0  0  0  0  0  0  0  0
   15.9594    9.2935   -0.0056 C   0  0  0  0  0  0  0  0  0  0  0  0
   15.0341    9.9004   -0.8536 N   0  0  0  0  0  0  0  0  0  0  0  0
   14.1167   10.6415   -0.0848 C   0  0  0  0  0  0  0  0  0  0  0  0
   12.9900   11.4004   -0.4845 C   0  0  0  0  0  0  0  0  0  0  0  0
   12.2459   12.0409    0.5100 C   0  0  0  0  0  0  0  0  0  0  0  0
   12.6181   11.9083    1.8738 C   0  0  0  0  0  0  0  0  0  0  0  0
   13.7187   11.1526    2.2688 C   0  0  0  0  0  0  0  0  0  0  0  0
   14.5117   10.4961    1.3059 C   0  0  0  0  0  0  0  0  0  0  0  0
   15.0238    9.8229   -1.8350 H   0  0  0  0  0  0  0  0  0  0  0  0
  7  8  1  0  0  0
  8  9  2  0  0  0
  8 16  1  0  0  0
  9 10  1  0  0  0
 10 11  1  0  0  0
 11 12  2  0  0  0
 11 16  1  0  0  0
 12 13  1  0  0  0
 13 14  2  0  0  0
 14 15  1  0  0  0
 14  1  1  0  0  0
 15 16  2  0  0  0
  1  2  1  0  0  0
  1  6  2  0  0  0
  2  3  2  0  0  0
  3  4  1  0  0  0
  4  5  2  0  0  0
  5 18  1  0  0  0
  5  6  1  0  0  0
 18 19  1  0  0  0
 19 20  1  0  0  0
 20 21  1  0  0  0
 20 24  1  0  0  0
 24 25  1  0  0  0
 25 26  2  0  0  0
 25 33  1  0  0  0
 26 27  1  0  0  0
 27 28  1  0  0  0
 28 29  2  0  0  0
 28 33  1  0  0  0
 29 30  1  0  0  0
 30 31  2  0  0  0
 31 32  1  0  0  0
 32 33  2  0  0  0
 10 17  1  0  0  0
 21 22  1  0  0  0
 21 23  1  0  0  0
 27 34  1  0  0  0
M  END
> <minimizedAffinity>
-9.59104

$$$$
2JDS_L20_A_1351


 34 38  0  0  0  0  0  0  0  0999 V2000
   16.1810    8.3521    1.5900 C   0  0  0  0  0  0  0  0  0  0  0  0
   16.6116    7.2391    2.3402 C   0  0  0  0  0  0  0  0  0  0  0  0
   15.9747    6.7117    3.3924 N   0  0  0  0  0  0  0  0  0  0  0  0
   14.8406    7.3175    3.7526 C   0  0  0  0  0  0  0  0  0  0  0  0
   14.3025    8.4114    3.0781 C   0  0  0  0  0  0  0  0  0  0  0  0
   14.9619    8.9757    1.9650 C   0  0  0  0  0  0  0  0  0  0  0  0
   16.1609    8.4481   -4.1702 C   0  0  0  0  0  0  0  0  0  0  0  0
   17.2998    8.9909   -3.3652 C   0  0  0  0  0  0  0  0  0  0  0  0
   18.4155    9.5664   -3.8655 N   0  0  0  0  0  0  0  0  0  0  0  0
   19.2387    9.9530   -2.8670 N   0  0  0  0  0  0  0  0  0  0  0  0
   18.6650    9.6545   -1.6261 C   0  0  0  0  0  0  0  0  0  0  0  0
   19.0899    9.8353   -0.3030 C   0  0  0  0  0  0  0  0  0  0  0  0
   18.2617    9.4227    0.7142 C   0  0  0  0  0  0  0  0  0  0  0  0
   17.0051    8.7836    0.4509 C   0  0  0  0  0  0  0  0  0  0  0  0
   16.5702    8.5870   -0.8625 C   0  0  0  0  0  0  0  0  0  0  0  0
   17.3813    9.0279   -1.9101 C   0  0  0  0  0  0  0  0  0  0  0  0
   20.1155   10.3825   -2.9938 H   0  0  0  0  0  0  0  0  0  0  0  0
   13.1078    8.9222    3.5684 O   0  0  0  0  0  0  0  0  0  0  0  0
   11.8926    8.2241    3.8034 C   0  0  0  0  0  0  0  0  0  0  0  0
   11.2711    8.1029    2.3776 C   0  0  0  0  0  0  0  0  0  0  0  0
   10.2413    6.9722    2.3889 N   0  0  0  0  0  0  0  0  0  0  0  0
    9.4968    7.1969    3.0490 H   0  0  0  0  0  0  0  0  0  0  0  0
   10.6942    6.1027    2.6704 H   0  0  0  0  0  0  0  0  0  0  0  0
   10.7127    9.4734    1.8138 C   0  0  0  0  0  0  0  0  0  0  0  0
    9.2634    9.7293    2.0321 C   0  0  0  0  0  0  0  0  0  0  0  0
    8.2588    9.6044    1.0597 C   0  0  0  0  0  0  0  0  0  0  0  0
    7.0019    9.8798    1.5965 N   0  0  0  0  0  0  0  0  0  0  0  0
    7.1384   10.1852    2.9640 C   0  0  0  0  0  0  0  0  0  0  0  0
    6.1561   10.5008    3.9340 C   0  0  0  0  0  0  0  0  0  0  0  0
    6.5845   10.7627    5.2382 C   0  0  0  0  0  0  0  0  0  0  0  0
    7.9655   10.6937    5.5610 C   0  0  0  0  0  0  0  0  0  0  0  0
    8.9308   10.3716    4.6107 C   0  0  0  0  0  0  0  0  0  0  0  0
    8.5553   10.1110    3.2772 C   0  0  0  0  0  0  0  0  0  0  0  0
    6.1531    9.8634    1.0981 H   0  0  0  0  0  0  0  0  0  0  0  0
  7  8  1  0  0  0
  8  9  2  0  0  0
  8 16  1  0  0  0
  9 10  1  0  0  0
 10 11  1  0  0  0
 11 12  2  0  0  0
 11 16  1  0  0  0
 12 13  1  0  0  0
 13 14  2  0  0  0
 14 15  1  0  0  0
 14  1  1  0  0  0
 15 16  2  0  0  0
  1  2  1  0  0  0
  1  6  2  0  0  0
  2  3  2  0  0  0
  3  4  1  0  0  0
  4  5  2  0  0  0
  5 18  1  0  0  0
  5  6  1  0  0  0
 18 19  1  0  0  0
 19 20  1  0  0  0
 20 21  1  0  0  0
 20 24  1  0  0  0
 24 25  1  0  0  0
 25 26  2  0  0  0
 25 33  1  0  0  0
 26 27  1  0  0  0
 27 28  1  0  0  0
 28 29  2  0  0  0
 28 33  1  0  0  0
 29 30  1  0  0  0
 30 31  2  0  0  0
 31 32  1  0  0  0
 32 33  2  0  0  0
 10 17  1  0  0  0
 21 22  1  0  0  0
 21 23  1  0  0  0
 27 34  1  0  0  0
M  END
> <minimizedAffinity>
-9.53053

$$$$
2JDS_L20_A_1351


 34 38  0  0  0  0  0  0  0  0999 V2000
   16.4089    8.2727    2.2447 C   0  0  0  0  0  0  0  0  0  0  0  0
   16.1524    6.8892    2.3276 C   0  0  0  0  0  0  0  0  0  0  0  0
   15.5616    6.2636    3.3526 N   0  0  0  0  0  0  0  0  0  0  0  0
   15.2038    7.0366    4.3810 C   0  0  0  0  0  0  0  0  0  0  0  0
   15.3852    8.4177    4.4075 C   0  0  0  0  0  0  0  0  0  0  0  0
   16.0039    9.0907    3.3321 C   0  0  0  0  0  0  0  0  0  0  0  0
   15.9534    8.0806   -3.4951 C   0  0  0  0  0  0  0  0  0  0  0  0
   17.0298    8.8572   -2.8037 C   0  0  0  0  0  0  0  0  0  0  0  0
   17.9827    9.5977   -3.4120 N   0  0  0  0  0  0  0  0  0  0  0  0
   18.7921   10.1738   -2.4969 N   0  0  0  0  0  0  0  0  0  0  0  0
   18.3740    9.8389   -1.2043 C   0  0  0  0  0  0  0  0  0  0  0  0
   18.8538   10.1574    0.0733 C   0  0  0  0  0  0  0  0  0  0  0  0
   18.1907    9.6538    1.1675 C   0  0  0  0  0  0  0  0  0  0  0  0
   17.0557    8.7881    1.0287 C   0  0  0  0  0  0  0  0  0  0  0  0
   16.5697    8.4527   -0.2379 C   0  0  0  0  0  0  0  0  0  0  0  0
   17.2087    8.9797   -1.3621 C   0  0  0  0  0  0  0  0  0  0  0  0
   19.5644   10.7465   -2.7088 H   0  0  0  0  0  0  0  0  0  0  0  0
   14.9483    9.0838    5.5451 O   0  0  0  0  0  0  0  0  0  0  0  0
   14.0251   10.1612    5.6237 C   0  0  0  0  0  0  0  0  0  0  0  0
   12.6457    9.4400    5.7286 C   0  0  0  0  0  0  0  0  0  0  0  0
   12.0482    9.7283    7.1067 N   0  0  0  0  0  0  0  0  0  0  0  0
   11.8978   10.7319    7.2089 H   0  0  0  0  0  0  0  0  0  0  0  0
   12.6907    9.4054    7.8302 H   0  0  0  0  0  0  0  0  0  0  0  0
   11.6694    9.7665    4.5252 C   0  0  0  0  0  0  0  0  0  0  0  0
   12.2541    9.6630    3.1611 C   0  0  0  0  0  0  0  0  0  0  0  0
   12.4055    8.4755    2.4279 C   0  0  0  0  0  0  0  0  0  0  0  0
   12.9521    8.7270    1.1702 N   0  0  0  0  0  0  0  0  0  0  0  0
   13.1679   10.1107    1.0265 C   0  0  0  0  0  0  0  0  0  0  0  0
   13.6733   10.8493   -0.0710 C   0  0  0  0  0  0  0  0  0  0  0  0
   13.7799   12.2358    0.0666 C   0  0  0  0  0  0  0  0  0  0  0  0
   13.3738   12.8645    1.2733 C   0  0  0  0  0  0  0  0  0  0  0  0
   12.8656   12.1405    2.3485 C   0  0  0  0  0  0  0  0  0  0  0  0
   12.7487   10.7380    2.2683 C   0  0  0  0  0  0  0  0  0  0  0  0
   13.1551    8.0447    0.4901 H   0  0  0  0  0  0  0  0  0  0  0  0
  7  8  1  0  0  0
  8  9  2  0  0  0
  8 16  1  0  0  0
  9 10  1  0  0  0
 10 11  1  0  0  0
 11 12  2  0  0  0
 11 16  1  0  0  0
 12 13  1  0  0  0
 13 14  2  0  0  0
 14 15  1  0  0  0
 14  1  1  0  0  0
 15 16  2  0  0  0
  1  2  1  0  0  0
  1  6  2  0  0  0
  2  3  2  0  0  0
  3  4  1  0  0  0
  4  5  2  0  0  0
  5 18  1  0  0  0
  5  6  1  0  0  0
 18 19  1  0  0  0
 19 20  1  0  0  0
 20 21  1  0  0  0
 20 24  1  0  0  0
 24 25  1  0  0  0
 25 26  2  0  0  0
 25 33  1  0  0  0
 26 27  1  0  0  0
 27 28  1  0  0  0
 28 29  2  0  0  0
 28 33  1  0  0  0
 29 30  1  0  0  0
 30 31  2  0  0  0
 31 32  1  0  0  0
 32 33  2  0  0  0
 10 17  1  0  0  0
 21 22  1  0  0  0
 21 23  1  0  0  0
 27 34  1  0  0  0
M  END
> <minimizedAffinity>
-9.48752

$$$$
