6GJL_F1Q_A_201


 28 29  0  0  0  0  0  0  0  0999 V2000
   -4.6533   20.3479   -7.1978 N   0  0  0  0  0  0  0  0  0  0  0  0
   -3.6607   19.4836   -7.2988 C   0  0  0  0  0  0  0  0  0  0  0  0
   -3.8769   18.2712   -7.4213 O   0  0  0  0  0  0  0  0  0  0  0  0
   -2.3890   19.8855   -7.2671 N   0  0  0  0  0  0  0  0  0  0  0  0
   -2.1725   20.8441   -7.2074 H   0  0  0  0  0  0  0  0  0  0  0  0
   -4.6052   21.7753   -6.9626 C   0  0  0  0  0  0  0  0  0  0  0  0
   -5.9061   23.4403  -10.1796 C   0  0  0  0  0  0  0  0  0  0  0  0
   -5.0843   22.6991   -9.3127 C   0  0  0  0  0  0  0  0  0  0  0  0
   -5.4155   22.6299   -7.9509 C   0  0  0  0  0  0  0  0  0  0  0  0
   -7.0284   24.1120   -9.7419 C   0  0  0  0  0  0  0  0  0  0  0  0
   -7.7774   24.8351  -10.6405 N   0  0  0  0  0  0  0  0  0  0  0  0
   -7.3447   24.0786   -8.3750 C   0  0  0  0  0  0  0  0  0  0  0  0
   -6.5358   23.3398   -7.5046 C   0  0  0  0  0  0  0  0  0  0  0  0
   -8.5800   25.3175  -10.3366 H   0  0  0  0  0  0  0  0  0  0  0  0
   -7.5110   24.8702  -11.5876 H   0  0  0  0  0  0  0  0  0  0  0  0
   -6.0498   19.8824   -7.2449 C   0  0  0  0  0  0  0  0  0  0  0  0
   -6.8451   17.9169   -8.6236 N   0  0  0  0  0  0  0  0  0  0  0  0
   -6.4552   19.1955   -8.5342 C   0  0  0  0  0  0  0  0  0  0  0  0
   -6.4537   19.7297   -9.7666 N   0  0  0  0  0  0  0  0  0  0  0  0
   -6.8845   18.8512  -10.6879 N   0  0  0  0  0  0  0  0  0  0  0  0
   -7.1438   17.6736   -9.9841 N   0  0  0  0  0  0  0  0  0  0  0  0
   -6.9111   17.2706   -7.8839 H   0  0  0  0  0  0  0  0  0  0  0  0
   -1.3271   18.8968   -7.3215 C   0  0  0  0  0  0  0  0  0  0  0  0
   -0.9533   18.3787   -5.9527 C   0  0  0  0  0  0  0  0  0  0  0  0
   -0.8948   19.0648   -4.9701 O   0  0  0  0  0  0  0  0  0  0  0  0
   -0.6303   17.0926   -5.9137 O   0  0  0  0  0  0  0  0  0  0  0  0
   -1.5856   16.1341   -5.4002 C   0  0  0  0  0  0  0  0  0  0  0  0
   -1.1062   15.5734   -4.0725 C   0  0  0  0  0  0  0  0  0  0  0  0
 11 10  1  0  0  0
 17 21  1  0  0  0
 17 18  1  0  0  0
 10 12  2  0  0  0
 10  7  1  0  0  0
 21 20  2  0  0  0
 12 13  1  0  0  0
  7  8  2  0  0  0
 16 18  1  0  0  0
 16  1  1  0  0  0
 18 19  2  0  0  0
 13  9  2  0  0  0
  8  9  1  0  0  0
  9  6  1  0  0  0
 20 19  1  0  0  0
  1  6  1  0  0  0
  1  2  1  0  0  0
  3  2  2  0  0  0
  2  4  1  0  0  0
 25 24  2  0  0  0
 27 28  1  0  0  0
 27 26  1  0  0  0
  4 23  1  0  0  0
 24 26  1  0  0  0
 24 23  1  0  0  0
 17 22  1  0  0  0
  4  5  1  0  0  0
 11 14  1  0  0  0
 11 15  1  0  0  0
M  END
> <minimizedAffinity>
-7.12820

$$$$
6GJL_F1Q_A_201


 28 29  0  0  0  0  0  0  0  0999 V2000
   -1.0497   18.8012   -5.9820 N   0  0  0  0  0  0  0  0  0  0  0  0
   -1.1130   17.8159   -5.1058 C   0  0  0  0  0  0  0  0  0  0  0  0
   -0.5214   17.8843   -4.0208 O   0  0  0  0  0  0  0  0  0  0  0  0
   -1.8126   16.7090   -5.3606 N   0  0  0  0  0  0  0  0  0  0  0  0
   -2.3277   16.6283   -6.1957 H   0  0  0  0  0  0  0  0  0  0  0  0
   -1.5910   18.8717   -7.3224 C   0  0  0  0  0  0  0  0  0  0  0  0
   -4.7092   21.1279   -7.3403 C   0  0  0  0  0  0  0  0  0  0  0  0
   -3.3772   20.7132   -7.1665 C   0  0  0  0  0  0  0  0  0  0  0  0
   -3.0408   19.3743   -7.4180 C   0  0  0  0  0  0  0  0  0  0  0  0
   -5.7066   20.2651   -7.7442 C   0  0  0  0  0  0  0  0  0  0  0  0
   -6.9932   20.7325   -7.8753 N   0  0  0  0  0  0  0  0  0  0  0  0
   -5.3852   18.9163   -7.9609 C   0  0  0  0  0  0  0  0  0  0  0  0
   -4.0615   18.4944   -7.7953 C   0  0  0  0  0  0  0  0  0  0  0  0
   -7.7112   20.1235   -8.1631 H   0  0  0  0  0  0  0  0  0  0  0  0
   -7.1963   21.6761   -7.6815 H   0  0  0  0  0  0  0  0  0  0  0  0
   -0.2790   20.0182   -5.6751 C   0  0  0  0  0  0  0  0  0  0  0  0
    1.3166   20.9172   -7.4194 N   0  0  0  0  0  0  0  0  0  0  0  0
    1.0636   20.1215   -6.3716 C   0  0  0  0  0  0  0  0  0  0  0  0
    2.1758   19.4251   -6.0848 N   0  0  0  0  0  0  0  0  0  0  0  0
    3.1971   19.7698   -6.8874 N   0  0  0  0  0  0  0  0  0  0  0  0
    2.6760   20.7281   -7.7589 N   0  0  0  0  0  0  0  0  0  0  0  0
    0.6783   21.5184   -7.8670 H   0  0  0  0  0  0  0  0  0  0  0  0
   -1.8078   15.6243   -4.3953 C   0  0  0  0  0  0  0  0  0  0  0  0
   -0.8092   14.5467   -4.7466 C   0  0  0  0  0  0  0  0  0  0  0  0
    0.3677   14.7408   -4.8757 O   0  0  0  0  0  0  0  0  0  0  0  0
   -1.3367   13.3490   -4.9645 O   0  0  0  0  0  0  0  0  0  0  0  0
   -0.9793   12.2457   -4.0985 C   0  0  0  0  0  0  0  0  0  0  0  0
    0.0642   11.3683   -4.7682 C   0  0  0  0  0  0  0  0  0  0  0  0
 11 10  1  0  0  0
 17 21  1  0  0  0
 17 18  1  0  0  0
 10 12  2  0  0  0
 10  7  1  0  0  0
 21 20  2  0  0  0
 12 13  1  0  0  0
  7  8  2  0  0  0
 16 18  1  0  0  0
 16  1  1  0  0  0
 18 19  2  0  0  0
 13  9  2  0  0  0
  8  9  1  0  0  0
  9  6  1  0  0  0
 20 19  1  0  0  0
  1  6  1  0  0  0
  1  2  1  0  0  0
  3  2  2  0  0  0
  2  4  1  0  0  0
 25 24  2  0  0  0
 27 28  1  0  0  0
 27 26  1  0  0  0
  4 23  1  0  0  0
 24 26  1  0  0  0
 24 23  1  0  0  0
 17 22  1  0  0  0
  4  5  1  0  0  0
 11 14  1  0  0  0
 11 15  1  0  0  0
M  END
> <minimizedAffinity>
-6.51111

$$$$
6GJL_F1Q_A_201


 28 29  0  0  0  0  0  0  0  0999 V2000
   -3.0430   19.8032   -6.9689 N   0  0  0  0  0  0  0  0  0  0  0  0
   -4.3114   19.6704   -7.3095 C   0  0  0  0  0  0  0  0  0  0  0  0
   -5.2022   20.2942   -6.7186 O   0  0  0  0  0  0  0  0  0  0  0  0
   -4.6789   18.8551   -8.2995 N   0  0  0  0  0  0  0  0  0  0  0  0
   -3.9997   18.3678   -8.8196 H   0  0  0  0  0  0  0  0  0  0  0  0
   -1.8807   19.1032   -7.4728 C   0  0  0  0  0  0  0  0  0  0  0  0
   -1.1147   16.2235   -5.0367 C   0  0  0  0  0  0  0  0  0  0  0  0
   -1.8304   17.0701   -5.9013 C   0  0  0  0  0  0  0  0  0  0  0  0
   -1.1812   18.1812   -6.4607 C   0  0  0  0  0  0  0  0  0  0  0  0
    0.2064   16.4460   -4.7087 C   0  0  0  0  0  0  0  0  0  0  0  0
    0.8414   15.5890   -3.8406 N   0  0  0  0  0  0  0  0  0  0  0  0
    0.8511   17.5763   -5.2343 C   0  0  0  0  0  0  0  0  0  0  0  0
    0.1491   18.4225   -6.0995 C   0  0  0  0  0  0  0  0  0  0  0  0
    1.7842   15.7404   -3.6010 H   0  0  0  0  0  0  0  0  0  0  0  0
    0.3531   14.8242   -3.4587 H   0  0  0  0  0  0  0  0  0  0  0  0
   -2.6595   20.7166   -5.8790 C   0  0  0  0  0  0  0  0  0  0  0  0
   -0.8956   22.4616   -6.3690 N   0  0  0  0  0  0  0  0  0  0  0  0
   -2.1803   22.0840   -6.3249 C   0  0  0  0  0  0  0  0  0  0  0  0
   -2.9447   23.1223   -6.7015 N   0  0  0  0  0  0  0  0  0  0  0  0
   -2.1999   24.1853   -7.0499 N   0  0  0  0  0  0  0  0  0  0  0  0
   -0.8757   23.7925   -6.8460 N   0  0  0  0  0  0  0  0  0  0  0  0
   -0.1151   21.9168   -6.1175 H   0  0  0  0  0  0  0  0  0  0  0  0
   -6.0895   18.6928   -8.6031 C   0  0  0  0  0  0  0  0  0  0  0  0
   -6.4933   19.4193   -9.8644 C   0  0  0  0  0  0  0  0  0  0  0  0
   -6.7942   18.8688  -10.8871 O   0  0  0  0  0  0  0  0  0  0  0  0
   -6.4394   20.7426   -9.7858 O   0  0  0  0  0  0  0  0  0  0  0  0
   -7.5206   21.5328  -10.3349 C   0  0  0  0  0  0  0  0  0  0  0  0
   -8.6921   21.5646   -9.3686 C   0  0  0  0  0  0  0  0  0  0  0  0
 11 10  1  0  0  0
 17 21  1  0  0  0
 17 18  1  0  0  0
 10 12  2  0  0  0
 10  7  1  0  0  0
 21 20  2  0  0  0
 12 13  1  0  0  0
  7  8  2  0  0  0
 16 18  1  0  0  0
 16  1  1  0  0  0
 18 19  2  0  0  0
 13  9  2  0  0  0
  8  9  1  0  0  0
  9  6  1  0  0  0
 20 19  1  0  0  0
  1  6  1  0  0  0
  1  2  1  0  0  0
  3  2  2  0  0  0
  2  4  1  0  0  0
 25 24  2  0  0  0
 27 28  1  0  0  0
 27 26  1  0  0  0
  4 23  1  0  0  0
 24 26  1  0  0  0
 24 23  1  0  0  0
 17 22  1  0  0  0
  4  5  1  0  0  0
 11 14  1  0  0  0
 11 15  1  0  0  0
M  END
> <minimizedAffinity>
-6.43763

$$$$
6GJL_F1Q_A_201


 28 29  0  0  0  0  0  0  0  0999 V2000
   -0.7567   18.8899   -6.3650 N   0  0  0  0  0  0  0  0  0  0  0  0
   -0.3759   17.8077   -5.7121 C   0  0  0  0  0  0  0  0  0  0  0  0
    0.4829   17.0476   -6.1774 O   0  0  0  0  0  0  0  0  0  0  0  0
   -0.9070   17.4917   -4.5297 N   0  0  0  0  0  0  0  0  0  0  0  0
   -1.5667   18.0875   -4.1065 H   0  0  0  0  0  0  0  0  0  0  0  0
   -1.7949   19.8424   -6.0335 C   0  0  0  0  0  0  0  0  0  0  0  0
   -4.7571   18.5763   -8.1397 C   0  0  0  0  0  0  0  0  0  0  0  0
   -3.5698   18.5682   -7.3869 C   0  0  0  0  0  0  0  0  0  0  0  0
   -3.0456   19.7853   -6.9257 C   0  0  0  0  0  0  0  0  0  0  0  0
   -5.4283   19.7403   -8.4511 C   0  0  0  0  0  0  0  0  0  0  0  0
   -6.5744   19.6783   -9.2086 N   0  0  0  0  0  0  0  0  0  0  0  0
   -4.8897   20.9643   -8.0256 C   0  0  0  0  0  0  0  0  0  0  0  0
   -3.7110   20.9668   -7.2717 C   0  0  0  0  0  0  0  0  0  0  0  0
   -7.0598   20.5042   -9.4355 H   0  0  0  0  0  0  0  0  0  0  0  0
   -6.9095   18.8080   -9.5241 H   0  0  0  0  0  0  0  0  0  0  0  0
   -0.1495   19.2241   -7.6645 C   0  0  0  0  0  0  0  0  0  0  0  0
    2.2341   18.6394   -8.2754 N   0  0  0  0  0  0  0  0  0  0  0  0
    1.3532   19.4235   -7.6397 C   0  0  0  0  0  0  0  0  0  0  0  0
    2.0295   20.3682   -6.9658 N   0  0  0  0  0  0  0  0  0  0  0  0
    3.3540   20.2718   -7.1721 N   0  0  0  0  0  0  0  0  0  0  0  0
    3.5187   19.1675   -8.0105 N   0  0  0  0  0  0  0  0  0  0  0  0
    2.0268   17.8473   -8.8221 H   0  0  0  0  0  0  0  0  0  0  0  0
   -0.5034   16.2614   -3.8726 C   0  0  0  0  0  0  0  0  0  0  0  0
   -1.4064   15.1013   -4.2198 C   0  0  0  0  0  0  0  0  0  0  0  0
   -2.4480   15.2152   -4.8043 O   0  0  0  0  0  0  0  0  0  0  0  0
   -0.9918   13.9216   -3.7768 O   0  0  0  0  0  0  0  0  0  0  0  0
   -0.9992   12.7831   -4.6705 C   0  0  0  0  0  0  0  0  0  0  0  0
    0.0231   11.7540   -4.2198 C   0  0  0  0  0  0  0  0  0  0  0  0
 11 10  1  0  0  0
 17 21  1  0  0  0
 17 18  1  0  0  0
 10 12  2  0  0  0
 10  7  1  0  0  0
 21 20  2  0  0  0
 12 13  1  0  0  0
  7  8  2  0  0  0
 16 18  1  0  0  0
 16  1  1  0  0  0
 18 19  2  0  0  0
 13  9  2  0  0  0
  8  9  1  0  0  0
  9  6  1  0  0  0
 20 19  1  0  0  0
  1  6  1  0  0  0
  1  2  1  0  0  0
  3  2  2  0  0  0
  2  4  1  0  0  0
 25 24  2  0  0  0
 27 28  1  0  0  0
 27 26  1  0  0  0
  4 23  1  0  0  0
 24 26  1  0  0  0
 24 23  1  0  0  0
 17 22  1  0  0  0
  4  5  1  0  0  0
 11 14  1  0  0  0
 11 15  1  0  0  0
M  END
> <minimizedAffinity>
-6.28675

$$$$
6GJL_F1Q_A_201


 28 29  0  0  0  0  0  0  0  0999 V2000
   -0.1039   17.5439   -5.6383 N   0  0  0  0  0  0  0  0  0  0  0  0
   -0.7952   18.4235   -6.3389 C   0  0  0  0  0  0  0  0  0  0  0  0
   -0.3197   18.9518   -7.3520 O   0  0  0  0  0  0  0  0  0  0  0  0
   -2.0292   18.7784   -5.9769 N   0  0  0  0  0  0  0  0  0  0  0  0
   -2.4593   18.3560   -5.1985 H   0  0  0  0  0  0  0  0  0  0  0  0
   -0.4467   16.8914   -4.3926 C   0  0  0  0  0  0  0  0  0  0  0  0
   -1.1107   13.1854   -5.1918 C   0  0  0  0  0  0  0  0  0  0  0  0
   -1.2763   14.5809   -5.1538 C   0  0  0  0  0  0  0  0  0  0  0  0
   -0.3699   15.3560   -4.4144 C   0  0  0  0  0  0  0  0  0  0  0  0
   -0.0907   12.5424   -4.5221 C   0  0  0  0  0  0  0  0  0  0  0  0
    0.0017   11.1718   -4.5856 N   0  0  0  0  0  0  0  0  0  0  0  0
    0.7971   13.3073   -3.7499 C   0  0  0  0  0  0  0  0  0  0  0  0
    0.6437   14.6975   -3.7093 C   0  0  0  0  0  0  0  0  0  0  0  0
    0.7266   10.7047   -4.1106 H   0  0  0  0  0  0  0  0  0  0  0  0
   -0.6571   10.6576   -5.1061 H   0  0  0  0  0  0  0  0  0  0  0  0
    1.2533   17.1599   -6.0623 C   0  0  0  0  0  0  0  0  0  0  0  0
    2.7395   19.2015   -5.9227 N   0  0  0  0  0  0  0  0  0  0  0  0
    2.3719   17.9950   -5.4710 C   0  0  0  0  0  0  0  0  0  0  0  0
    3.1784   17.6556   -4.4519 N   0  0  0  0  0  0  0  0  0  0  0  0
    4.0569   18.6324   -4.1687 N   0  0  0  0  0  0  0  0  0  0  0  0
    3.8009   19.6417   -5.0988 N   0  0  0  0  0  0  0  0  0  0  0  0
    2.3459   19.6883   -6.6826 H   0  0  0  0  0  0  0  0  0  0  0  0
   -2.7324   19.7933   -6.7409 C   0  0  0  0  0  0  0  0  0  0  0  0
   -3.8234   19.2082   -7.6065 C   0  0  0  0  0  0  0  0  0  0  0  0
   -4.0249   18.0314   -7.7255 O   0  0  0  0  0  0  0  0  0  0  0  0
   -4.5292   20.0994   -8.2903 O   0  0  0  0  0  0  0  0  0  0  0  0
   -5.9586   19.9194   -8.4302 C   0  0  0  0  0  0  0  0  0  0  0  0
   -6.3087   19.5911   -9.8713 C   0  0  0  0  0  0  0  0  0  0  0  0
 11 10  1  0  0  0
 17 21  1  0  0  0
 17 18  1  0  0  0
 10 12  2  0  0  0
 10  7  1  0  0  0
 21 20  2  0  0  0
 12 13  1  0  0  0
  7  8  2  0  0  0
 16 18  1  0  0  0
 16  1  1  0  0  0
 18 19  2  0  0  0
 13  9  2  0  0  0
  8  9  1  0  0  0
  9  6  1  0  0  0
 20 19  1  0  0  0
  1  6  1  0  0  0
  1  2  1  0  0  0
  3  2  2  0  0  0
  2  4  1  0  0  0
 25 24  2  0  0  0
 27 28  1  0  0  0
 27 26  1  0  0  0
  4 23  1  0  0  0
 24 26  1  0  0  0
 24 23  1  0  0  0
 17 22  1  0  0  0
  4  5  1  0  0  0
 11 14  1  0  0  0
 11 15  1  0  0  0
M  END
> <minimizedAffinity>
-6.16553

$$$$
6GJL_F1Q_A_201


 28 29  0  0  0  0  0  0  0  0999 V2000
   -0.2619   18.8306   -4.7940 N   0  0  0  0  0  0  0  0  0  0  0  0
   -1.0447   19.5346   -5.5903 C   0  0  0  0  0  0  0  0  0  0  0  0
   -0.5735   20.3363   -6.4069 O   0  0  0  0  0  0  0  0  0  0  0  0
   -2.3721   19.4108   -5.5396 N   0  0  0  0  0  0  0  0  0  0  0  0
   -2.7872   18.7584   -4.9303 H   0  0  0  0  0  0  0  0  0  0  0  0
   -0.6203   17.9204   -3.7272 C   0  0  0  0  0  0  0  0  0  0  0  0
    0.4110   14.2137   -3.8299 C   0  0  0  0  0  0  0  0  0  0  0  0
    0.4315   15.5846   -3.5190 C   0  0  0  0  0  0  0  0  0  0  0  0
   -0.5377   16.4273   -4.0842 C   0  0  0  0  0  0  0  0  0  0  0  0
   -0.5252   13.6610   -4.6787 C   0  0  0  0  0  0  0  0  0  0  0  0
   -0.4760   12.3149   -4.9558 N   0  0  0  0  0  0  0  0  0  0  0  0
   -1.4742   14.5038   -5.2774 C   0  0  0  0  0  0  0  0  0  0  0  0
   -1.4653   15.8690   -4.9709 C   0  0  0  0  0  0  0  0  0  0  0  0
   -1.1403   11.9121   -5.5605 H   0  0  0  0  0  0  0  0  0  0  0  0
    0.2236   11.7540   -4.5493 H   0  0  0  0  0  0  0  0  0  0  0  0
    1.2014   18.9765   -4.8743 C   0  0  0  0  0  0  0  0  0  0  0  0
    2.5291   19.4433   -6.9757 N   0  0  0  0  0  0  0  0  0  0  0  0
    1.8118   18.6081   -6.2123 C   0  0  0  0  0  0  0  0  0  0  0  0
    1.7047   17.4307   -6.8499 N   0  0  0  0  0  0  0  0  0  0  0  0
    2.3794   17.4334   -8.0120 N   0  0  0  0  0  0  0  0  0  0  0  0
    2.9210   18.7155   -8.1229 N   0  0  0  0  0  0  0  0  0  0  0  0
    2.7424   20.3834   -6.7762 H   0  0  0  0  0  0  0  0  0  0  0  0
   -3.1993   20.2469   -6.3911 C   0  0  0  0  0  0  0  0  0  0  0  0
   -3.9057   19.4531   -7.4646 C   0  0  0  0  0  0  0  0  0  0  0  0
   -3.9769   18.2554   -7.4743 O   0  0  0  0  0  0  0  0  0  0  0  0
   -4.4088   20.1799   -8.4539 O   0  0  0  0  0  0  0  0  0  0  0  0
   -5.8445   20.2614   -8.6183 C   0  0  0  0  0  0  0  0  0  0  0  0
   -6.2749   19.5069   -9.8644 C   0  0  0  0  0  0  0  0  0  0  0  0
 11 10  1  0  0  0
 17 21  1  0  0  0
 17 18  1  0  0  0
 10 12  2  0  0  0
 10  7  1  0  0  0
 21 20  2  0  0  0
 12 13  1  0  0  0
  7  8  2  0  0  0
 16 18  1  0  0  0
 16  1  1  0  0  0
 18 19  2  0  0  0
 13  9  2  0  0  0
  8  9  1  0  0  0
  9  6  1  0  0  0
 20 19  1  0  0  0
  1  6  1  0  0  0
  1  2  1  0  0  0
  3  2  2  0  0  0
  2  4  1  0  0  0
 25 24  2  0  0  0
 27 28  1  0  0  0
 27 26  1  0  0  0
  4 23  1  0  0  0
 24 26  1  0  0  0
 24 23  1  0  0  0
 17 22  1  0  0  0
  4  5  1  0  0  0
 11 14  1  0  0  0
 11 15  1  0  0  0
M  END
> <minimizedAffinity>
-6.03283

$$$$
6GJL_F1Q_A_201


 28 29  0  0  0  0  0  0  0  0999 V2000
   -0.7275   18.8698   -5.9844 N   0  0  0  0  0  0  0  0  0  0  0  0
   -0.8805   17.8849   -5.1190 C   0  0  0  0  0  0  0  0  0  0  0  0
   -0.2880   17.8888   -4.0324 O   0  0  0  0  0  0  0  0  0  0  0  0
   -1.6753   16.8474   -5.3869 N   0  0  0  0  0  0  0  0  0  0  0  0
   -2.1933   16.8217   -6.2237 H   0  0  0  0  0  0  0  0  0  0  0  0
   -1.2569   19.0024   -7.3249 C   0  0  0  0  0  0  0  0  0  0  0  0
   -4.6901   20.7384   -7.2095 C   0  0  0  0  0  0  0  0  0  0  0  0
   -3.3113   20.5209   -7.0427 C   0  0  0  0  0  0  0  0  0  0  0  0
   -2.7667   19.2806   -7.4086 C   0  0  0  0  0  0  0  0  0  0  0  0
   -5.5360   19.7735   -7.7153 C   0  0  0  0  0  0  0  0  0  0  0  0
   -6.8787   20.0457   -7.8338 N   0  0  0  0  0  0  0  0  0  0  0  0
   -5.0050   18.5177   -8.0479 C   0  0  0  0  0  0  0  0  0  0  0  0
   -3.6330   18.2927   -7.8901 C   0  0  0  0  0  0  0  0  0  0  0  0
   -7.4896   19.3627   -8.1938 H   0  0  0  0  0  0  0  0  0  0  0  0
   -7.2292   20.9236   -7.5585 H   0  0  0  0  0  0  0  0  0  0  0  0
    0.1477   20.0100   -5.6631 C   0  0  0  0  0  0  0  0  0  0  0  0
   -0.5180   22.4006   -6.1516 N   0  0  0  0  0  0  0  0  0  0  0  0
   -0.5730   21.3118   -5.3729 C   0  0  0  0  0  0  0  0  0  0  0  0
   -1.3317   21.5908   -4.3001 N   0  0  0  0  0  0  0  0  0  0  0  0
   -1.8358   22.8351   -4.3598 N   0  0  0  0  0  0  0  0  0  0  0  0
   -1.3297   23.3835   -5.5399 N   0  0  0  0  0  0  0  0  0  0  0  0
   -0.0098   22.4976   -6.9892 H   0  0  0  0  0  0  0  0  0  0  0  0
   -1.7695   15.7564   -4.4334 C   0  0  0  0  0  0  0  0  0  0  0  0
   -0.7911   14.6452   -4.7327 C   0  0  0  0  0  0  0  0  0  0  0  0
    0.3948   14.8034   -4.8224 O   0  0  0  0  0  0  0  0  0  0  0  0
   -1.3453   13.4599   -4.9519 O   0  0  0  0  0  0  0  0  0  0  0  0
   -1.0492   12.3598   -4.0590 C   0  0  0  0  0  0  0  0  0  0  0  0
   -0.0481   11.4155   -4.7019 C   0  0  0  0  0  0  0  0  0  0  0  0
 11 10  1  0  0  0
 17 21  1  0  0  0
 17 18  1  0  0  0
 10 12  2  0  0  0
 10  7  1  0  0  0
 21 20  2  0  0  0
 12 13  1  0  0  0
  7  8  2  0  0  0
 16 18  1  0  0  0
 16  1  1  0  0  0
 18 19  2  0  0  0
 13  9  2  0  0  0
  8  9  1  0  0  0
  9  6  1  0  0  0
 20 19  1  0  0  0
  1  6  1  0  0  0
  1  2  1  0  0  0
  3  2  2  0  0  0
  2  4  1  0  0  0
 25 24  2  0  0  0
 27 28  1  0  0  0
 27 26  1  0  0  0
  4 23  1  0  0  0
 24 26  1  0  0  0
 24 23  1  0  0  0
 17 22  1  0  0  0
  4  5  1  0  0  0
 11 14  1  0  0  0
 11 15  1  0  0  0
M  END
> <minimizedAffinity>
-5.97427

$$$$
6GJL_F1Q_A_201


 28 29  0  0  0  0  0  0  0  0999 V2000
   -0.9711   18.6536   -6.0622 N   0  0  0  0  0  0  0  0  0  0  0  0
   -1.0235   17.4360   -5.5552 C   0  0  0  0  0  0  0  0  0  0  0  0
   -1.5884   16.5146   -6.1582 O   0  0  0  0  0  0  0  0  0  0  0  0
   -0.4740   17.1563   -4.3721 N   0  0  0  0  0  0  0  0  0  0  0  0
    0.0164   17.8508   -3.8757 H   0  0  0  0  0  0  0  0  0  0  0  0
   -0.4414   19.8675   -5.4783 C   0  0  0  0  0  0  0  0  0  0  0  0
    1.7535   22.6089   -7.0533 C   0  0  0  0  0  0  0  0  0  0  0  0
    0.7304   22.0001   -6.3056 C   0  0  0  0  0  0  0  0  0  0  0  0
    0.6048   20.6028   -6.3317 C   0  0  0  0  0  0  0  0  0  0  0  0
    2.6404   21.8842   -7.8218 C   0  0  0  0  0  0  0  0  0  0  0  0
    3.6058   22.5449   -8.5447 N   0  0  0  0  0  0  0  0  0  0  0  0
    2.4974   20.4895   -7.8828 C   0  0  0  0  0  0  0  0  0  0  0  0
    1.4853   19.8734   -7.1385 C   0  0  0  0  0  0  0  0  0  0  0  0
    4.2429   22.0355   -9.0959 H   0  0  0  0  0  0  0  0  0  0  0  0
    3.6598   23.5274   -8.5112 H   0  0  0  0  0  0  0  0  0  0  0  0
   -1.5764   18.9372   -7.3746 C   0  0  0  0  0  0  0  0  0  0  0  0
   -3.6267   20.2104   -6.6183 N   0  0  0  0  0  0  0  0  0  0  0  0
   -3.0622   19.2373   -7.3459 C   0  0  0  0  0  0  0  0  0  0  0  0
   -4.0312   18.5725   -7.9966 N   0  0  0  0  0  0  0  0  0  0  0  0
   -5.2416   19.1081   -7.7641 N   0  0  0  0  0  0  0  0  0  0  0  0
   -5.0156   20.1643   -6.8794 N   0  0  0  0  0  0  0  0  0  0  0  0
   -3.1633   20.8374   -6.0171 H   0  0  0  0  0  0  0  0  0  0  0  0
   -0.6056   15.8185   -3.8231 C   0  0  0  0  0  0  0  0  0  0  0  0
    0.6030   14.9586   -4.1085 C   0  0  0  0  0  0  0  0  0  0  0  0
    1.6581   15.3897   -4.4832 O   0  0  0  0  0  0  0  0  0  0  0  0
    0.4035   13.6545   -3.9688 O   0  0  0  0  0  0  0  0  0  0  0  0
    1.1844   12.7264   -4.7586 C   0  0  0  0  0  0  0  0  0  0  0  0
    0.3948   11.4527   -5.0064 C   0  0  0  0  0  0  0  0  0  0  0  0
 11 10  1  0  0  0
 17 21  1  0  0  0
 17 18  1  0  0  0
 10 12  2  0  0  0
 10  7  1  0  0  0
 21 20  2  0  0  0
 12 13  1  0  0  0
  7  8  2  0  0  0
 16 18  1  0  0  0
 16  1  1  0  0  0
 18 19  2  0  0  0
 13  9  2  0  0  0
  8  9  1  0  0  0
  9  6  1  0  0  0
 20 19  1  0  0  0
  1  6  1  0  0  0
  1  2  1  0  0  0
  3  2  2  0  0  0
  2  4  1  0  0  0
 25 24  2  0  0  0
 27 28  1  0  0  0
 27 26  1  0  0  0
  4 23  1  0  0  0
 24 26  1  0  0  0
 24 23  1  0  0  0
 17 22  1  0  0  0
  4  5  1  0  0  0
 11 14  1  0  0  0
 11 15  1  0  0  0
M  END
> <minimizedAffinity>
-5.90604

$$$$
6GJL_F1Q_A_201


 28 29  0  0  0  0  0  0  0  0999 V2000
    0.2324   19.1781   -6.5575 N   0  0  0  0  0  0  0  0  0  0  0  0
   -0.9925   19.6009   -6.3060 C   0  0  0  0  0  0  0  0  0  0  0  0
   -1.4444   19.6070   -5.1539 O   0  0  0  0  0  0  0  0  0  0  0  0
   -1.7891   20.0317   -7.2856 N   0  0  0  0  0  0  0  0  0  0  0  0
   -1.4574   20.0778   -8.2114 H   0  0  0  0  0  0  0  0  0  0  0  0
    0.9017   19.0129   -7.8301 C   0  0  0  0  0  0  0  0  0  0  0  0
    4.6312   19.7349   -8.4492 C   0  0  0  0  0  0  0  0  0  0  0  0
    3.4319   19.0208   -8.2816 C   0  0  0  0  0  0  0  0  0  0  0  0
    2.2611   19.7206   -7.9523 C   0  0  0  0  0  0  0  0  0  0  0  0
    4.7056   21.1036   -8.2955 C   0  0  0  0  0  0  0  0  0  0  0  0
    5.9157   21.7374   -8.4545 N   0  0  0  0  0  0  0  0  0  0  0  0
    3.5469   21.8055   -7.9291 C   0  0  0  0  0  0  0  0  0  0  0  0
    2.3471   21.1047   -7.7645 C   0  0  0  0  0  0  0  0  0  0  0  0
    5.9778   22.7140   -8.3466 H   0  0  0  0  0  0  0  0  0  0  0  0
    6.7198   21.2145   -8.6763 H   0  0  0  0  0  0  0  0  0  0  0  0
    1.0976   18.7159   -5.4588 C   0  0  0  0  0  0  0  0  0  0  0  0
   -0.1068   16.5817   -4.8334 N   0  0  0  0  0  0  0  0  0  0  0  0
    1.0184   17.2319   -5.1590 C   0  0  0  0  0  0  0  0  0  0  0  0
    2.0393   16.3593   -5.1345 N   0  0  0  0  0  0  0  0  0  0  0  0
    1.6208   15.1150   -4.8470 N   0  0  0  0  0  0  0  0  0  0  0  0
    0.2434   15.2246   -4.6466 N   0  0  0  0  0  0  0  0  0  0  0  0
   -1.0053   16.9736   -4.7418 H   0  0  0  0  0  0  0  0  0  0  0  0
   -3.1496   20.4322   -6.9743 C   0  0  0  0  0  0  0  0  0  0  0  0
   -4.1636   19.3905   -7.3847 C   0  0  0  0  0  0  0  0  0  0  0  0
   -3.9149   18.2222   -7.4984 O   0  0  0  0  0  0  0  0  0  0  0  0
   -5.3668   19.8688   -7.6739 O   0  0  0  0  0  0  0  0  0  0  0  0
   -5.8245   19.8609   -9.0471 C   0  0  0  0  0  0  0  0  0  0  0  0
   -6.6604   18.6214   -9.3157 C   0  0  0  0  0  0  0  0  0  0  0  0
 11 10  1  0  0  0
 17 21  1  0  0  0
 17 18  1  0  0  0
 10 12  2  0  0  0
 10  7  1  0  0  0
 21 20  2  0  0  0
 12 13  1  0  0  0
  7  8  2  0  0  0
 16 18  1  0  0  0
 16  1  1  0  0  0
 18 19  2  0  0  0
 13  9  2  0  0  0
  8  9  1  0  0  0
  9  6  1  0  0  0
 20 19  1  0  0  0
  1  6  1  0  0  0
  1  2  1  0  0  0
  3  2  2  0  0  0
  2  4  1  0  0  0
 25 24  2  0  0  0
 27 28  1  0  0  0
 27 26  1  0  0  0
  4 23  1  0  0  0
 24 26  1  0  0  0
 24 23  1  0  0  0
 17 22  1  0  0  0
  4  5  1  0  0  0
 11 14  1  0  0  0
 11 15  1  0  0  0
M  END
> <minimizedAffinity>
-5.75886

$$$$
6GJL_F1Q_A_201


 28 29  0  0  0  0  0  0  0  0999 V2000
   -0.5419   18.5520   -6.0923 N   0  0  0  0  0  0  0  0  0  0  0  0
    0.6160   19.0733   -5.7316 C   0  0  0  0  0  0  0  0  0  0  0  0
    1.0263   18.9792   -4.5678 O   0  0  0  0  0  0  0  0  0  0  0  0
    1.3829   19.7248   -6.6076 N   0  0  0  0  0  0  0  0  0  0  0  0
    1.1117   19.7916   -7.5517 H   0  0  0  0  0  0  0  0  0  0  0  0
   -1.2261   18.6318   -7.3652 C   0  0  0  0  0  0  0  0  0  0  0  0
   -4.2551   20.9499   -6.8508 C   0  0  0  0  0  0  0  0  0  0  0  0
   -2.9338   20.4715   -6.8130 C   0  0  0  0  0  0  0  0  0  0  0  0
   -2.6586   19.1867   -7.3056 C   0  0  0  0  0  0  0  0  0  0  0  0
   -5.3000   20.2003   -7.3496 C   0  0  0  0  0  0  0  0  0  0  0  0
   -6.5724   20.7218   -7.3386 N   0  0  0  0  0  0  0  0  0  0  0  0
   -5.0387   18.9002   -7.8090 C   0  0  0  0  0  0  0  0  0  0  0  0
   -3.7262   18.4163   -7.7801 C   0  0  0  0  0  0  0  0  0  0  0  0
   -7.3240   20.1936   -7.6927 H   0  0  0  0  0  0  0  0  0  0  0  0
   -6.7317   21.6234   -6.9767 H   0  0  0  0  0  0  0  0  0  0  0  0
   -1.3675   17.8286   -5.1103 C   0  0  0  0  0  0  0  0  0  0  0  0
    0.0414   15.7284   -5.1365 N   0  0  0  0  0  0  0  0  0  0  0  0
   -1.1550   16.3280   -5.0730 C   0  0  0  0  0  0  0  0  0  0  0  0
   -2.1055   15.3810   -5.0102 N   0  0  0  0  0  0  0  0  0  0  0  0
   -1.5743   14.1470   -4.9789 N   0  0  0  0  0  0  0  0  0  0  0  0
   -0.1933   14.3362   -5.0597 N   0  0  0  0  0  0  0  0  0  0  0  0
    0.9162   16.1720   -5.2205 H   0  0  0  0  0  0  0  0  0  0  0  0
    2.6210   20.3344   -6.1564 C   0  0  0  0  0  0  0  0  0  0  0  0
    3.8330   19.5068   -6.5141 C   0  0  0  0  0  0  0  0  0  0  0  0
    4.1591   18.5103   -5.9310 O   0  0  0  0  0  0  0  0  0  0  0  0
    4.5669   19.9947   -7.5057 O   0  0  0  0  0  0  0  0  0  0  0  0
    4.5776   19.3157   -8.7839 C   0  0  0  0  0  0  0  0  0  0  0  0
    6.0007   19.1878   -9.2996 C   0  0  0  0  0  0  0  0  0  0  0  0
 11 10  1  0  0  0
 17 21  1  0  0  0
 17 18  1  0  0  0
 10 12  2  0  0  0
 10  7  1  0  0  0
 21 20  2  0  0  0
 12 13  1  0  0  0
  7  8  2  0  0  0
 16 18  1  0  0  0
 16  1  1  0  0  0
 18 19  2  0  0  0
 13  9  2  0  0  0
  8  9  1  0  0  0
  9  6  1  0  0  0
 20 19  1  0  0  0
  1  6  1  0  0  0
  1  2  1  0  0  0
  3  2  2  0  0  0
  2  4  1  0  0  0
 25 24  2  0  0  0
 27 28  1  0  0  0
 27 26  1  0  0  0
  4 23  1  0  0  0
 24 26  1  0  0  0
 24 23  1  0  0  0
 17 22  1  0  0  0
  4  5  1  0  0  0
 11 14  1  0  0  0
 11 15  1  0  0  0
M  END
> <minimizedAffinity>
-5.54815

$$$$
