6GJL_F1Q_A_201
  RCSB PDB11101803483D
Coordinates from PDB:6GJL:A:201 Model:1 without hydrogens
 24 25  0  0  0  0            999 V2000
   -0.8290   18.8490   -6.3480   N 0  0  0  0  0  0  0  0  0  0  0  0
   -1.7390   19.9510   -6.1190   C 0  0  0  0  0  0  0  0  0  0  0  0
   -0.6060   17.7810   -5.6050   C 0  0  0  0  0  0  0  0  0  0  0  0
    2.1710   18.7590   -8.6050   N 0  0  0  0  0  0  0  0  0  0  0  0
   -1.4700   15.1840   -4.3810   C 0  0  0  0  0  0  0  0  0  0  0  0
   -4.8940   18.6840   -7.9230   C 0  0  0  0  0  0  0  0  0  0  0  0
    1.3540   19.0740   -7.5910   C 0  0  0  0  0  0  0  0  0  0  0  0
   -0.1590   18.9990   -7.6510   C 0  0  0  0  0  0  0  0  0  0  0  0
   -3.6560   18.6720   -7.2570   C 0  0  0  0  0  0  0  0  0  0  0  0
    0.1540   16.8820   -5.9870   O 0  0  0  0  0  0  0  0  0  0  0  0
   -1.1960   17.6300   -4.4180   N 0  0  0  0  0  0  0  0  0  0  0  0
   -0.9700   16.4130   -3.6590   C 0  0  0  0  0  0  0  0  0  0  0  0
   -2.4780   15.1530   -5.0310   O 0  0  0  0  0  0  0  0  0  0  0  0
   -0.7340   14.0950   -4.2010   O 0  0  0  0  0  0  0  0  0  0  0  0
   -1.0800   12.8780   -4.9040   C 0  0  0  0  0  0  0  0  0  0  0  0
   -0.0710   11.7860   -4.5930   C 0  0  0  0  0  0  0  0  0  0  0  0
    2.1020   19.4220   -6.5310   N 0  0  0  0  0  0  0  0  0  0  0  0
    3.4140   19.3980   -6.8210   N 0  0  0  0  0  0  0  0  0  0  0  0
    3.4920   18.9740   -8.1490   N 0  0  0  0  0  0  0  0  0  0  0  0
   -3.0530   19.8920   -6.9150   C 0  0  0  0  0  0  0  0  0  0  0  0
   -5.5410   19.8540   -8.2620   C 0  0  0  0  0  0  0  0  0  0  0  0
   -6.7410   19.7940   -8.9310   N 0  0  0  0  0  0  0  0  0  0  0  0
   -4.9260   21.0780   -7.9570   C 0  0  0  0  0  0  0  0  0  0  0  0
   -3.6960   21.0770   -7.2900   C 0  0  0  0  0  0  0  0  0  0  0  0
 22 21  1  0  0  0  0
  4 19  1  0  0  0  0
  4  7  1  0  0  0  0
 21 23  2  0  0  0  0
 21  6  1  0  0  0  0
 19 18  2  0  0  0  0
 23 24  1  0  0  0  0
  6  9  2  0  0  0  0
  8  7  1  0  0  0  0
  8  1  1  0  0  0  0
  7 17  2  0  0  0  0
 24 20  2  0  0  0  0
  9 20  1  0  0  0  0
 20  2  1  0  0  0  0
 18 17  1  0  0  0  0
  1  2  1  0  0  0  0
  1  3  1  0  0  0  0
 10  3  2  0  0  0  0
  3 11  1  0  0  0  0
 13  5  2  0  0  0  0
 15 16  1  0  0  0  0
 15 14  1  0  0  0  0
 11 12  1  0  0  0  0
  5 14  1  0  0  0  0
  5 12  1  0  0  0  0
A    1
N1
A    2
C5
A    3
C4
A    4
N3
A    5
C2
A    6
C10
A    7
C13
A    8
C12
A    9
C11
A   10
O2
A   11
N
A   12
C3
A   13
O1
A   14
O
A   15
C1
A   16
C
A   17
N6
A   18
N5
A   19
N4
A   20
C6
A   21
C9
A   22
N2
A   23
C8
A   24
C7
M  END
>  <InstanceId>
6GJL_F1Q_A_201

>  <ChemCompId>
F1Q

>  <PdbId>
6GJL

>  <ChainId>
A

>  <ResidueNumber>
201

>  <InsertionCode>


>  <Model>
1

>  <AltIds>


>  <MissingHeavyAtoms>
0

>  <ObservedFormula>
C14 N7 O3

>  <Name>
ethyl 2-[[(4-aminophenyl)methyl-(1~{H}-1,2,3,4-tetrazol-5-ylmethyl)carbamoyl]amino]ethanoate

>  <SystematicName>
ethyl 2-[[(4-aminophenyl)methyl-(1~{H}-1,2,3,4-tetrazol-5-ylmethyl)carbamoyl]amino]ethanoate

>  <Synonyms>


>  <Type>
NON-POLYMER

>  <Formula>
C14 H19 N7 O3

>  <MolecularWeight>
333.346

>  <ModifiedDate>
2018-11-02

>  <Parent>


>  <OneLetterCode>


>  <SubcomponentList>


>  <AmbiguousFlag>
N

>  <InChI>
InChI=1S/C14H19N7O3/c1-2-24-13(22)7-16-14(23)21(9-12-17-19-20-18-12)8-10-3-5-11(15)6-4-10/h3-6H,2,7-9,15H2,1H3,(H,16,23)(H,17,18,19,20)

>  <InChIKey>
MIBVKXZGDPDKCH-UHFFFAOYSA-N

>  <SMILES>
CCOC(=O)CNC(=O)N(Cc1ccc(cc1)N)Cc2[nH]nnn2

$$$$
