1I1E_DM2_A_3001


 46 50  0  0  0  0  0  0  0  0999 V2000
   30.0608  -34.7526  -37.3055 C   0  0  0  0  0  0  0  0  0  0  0  0
   30.7885  -35.9771  -37.1212 C   0  0  0  0  0  0  0  0  0  0  0  0
   32.2243  -35.9321  -36.9785 C   0  0  0  0  0  0  0  0  0  0  0  0
   32.9406  -34.6626  -37.0136 C   0  0  0  0  0  0  0  0  0  0  0  0
   32.2039  -33.4174  -37.2052 C   0  0  0  0  0  0  0  0  0  0  0  0
   32.8622  -32.1083  -37.2557 C   0  0  0  0  0  0  0  0  0  0  0  0
   34.2339  -32.0226  -37.1192 O   0  0  0  0  0  0  0  0  0  0  0  0
   32.1380  -30.8428  -37.4593 C   0  0  0  0  0  0  0  0  0  0  0  0
   32.7716  -29.5074  -37.5182 C   0  0  0  0  0  0  0  0  0  0  0  0
   34.1436  -29.2744  -37.3988 O   0  0  0  0  0  0  0  0  0  0  0  0
   31.9440  -28.3199  -37.7233 C   0  0  0  0  0  0  0  0  0  0  0  0
   32.6420  -26.9583  -37.7777 C   0  0  0  0  0  0  0  0  0  0  0  0
   31.7459  -25.6650  -37.6662 C   0  0  0  0  0  0  0  0  0  0  0  0
   30.5331  -25.9222  -38.6859 C   0  0  0  0  0  0  0  0  0  0  0  0
   30.8204  -26.3111  -40.0748 O   0  0  0  0  0  0  0  0  0  0  0  0
   29.7275  -27.1546  -38.0832 C   0  0  0  0  0  0  0  0  0  0  0  0
   30.5558  -28.4088  -37.8701 C   0  0  0  0  0  0  0  0  0  0  0  0
   29.9263  -29.7003  -37.8118 C   0  0  0  0  0  0  0  0  0  0  0  0
   28.5658  -29.7168  -37.9561 O   0  0  0  0  0  0  0  0  0  0  0  0
   30.6851  -30.9311  -37.6057 C   0  0  0  0  0  0  0  0  0  0  0  0
   30.0119  -32.2491  -37.5464 C   0  0  0  0  0  0  0  0  0  0  0  0
   28.6809  -32.2908  -37.6855 O   0  0  0  0  0  0  0  0  0  0  0  0
   30.7716  -33.4596  -37.3490 C   0  0  0  0  0  0  0  0  0  0  0  0
   34.7309  -29.9923  -37.2657 H   0  0  0  0  0  0  0  0  0  0  0  0
   31.3156  -25.6017  -40.5134 H   0  0  0  0  0  0  0  0  0  0  0  0
   28.0989  -28.9151  -38.0874 H   0  0  0  0  0  0  0  0  0  0  0  0
   34.3468  -34.6423  -36.8725 O   0  0  0  0  0  0  0  0  0  0  0  0
   34.9928  -35.1164  -35.6287 C   0  0  0  0  0  0  0  0  0  0  0  0
   29.4878  -24.7632  -38.7734 C   0  0  0  0  0  0  0  0  0  0  0  0
   29.7292  -23.5024  -38.2015 O   0  0  0  0  0  0  0  0  0  0  0  0
   28.2187  -24.9745  -39.4975 C   0  0  0  0  0  0  0  0  0  0  0  0
   28.3665  -24.9662  -40.9156 O   0  0  0  0  0  0  0  0  0  0  0  0
   28.6943  -24.0992  -41.2014 H   0  0  0  0  0  0  0  0  0  0  0  0
   33.2963  -27.1394  -39.0729 O   0  0  0  0  0  0  0  0  0  0  0  0
   34.1778  -26.1778  -39.6571 C   0  0  0  0  0  0  0  0  0  0  0  0
   35.6248  -26.8391  -39.6888 C   0  0  0  0  0  0  0  0  0  0  0  0
   35.4921  -28.1148  -40.6098 C   0  0  0  0  0  0  0  0  0  0  0  0
   36.8686  -28.8046  -40.7000 N   0  0  0  0  0  0  0  0  0  0  0  0
   35.0010  -27.7210  -42.0127 C   0  0  0  0  0  0  0  0  0  0  0  0
   36.0438  -26.7733  -42.5166 O   0  0  0  0  0  0  0  0  0  0  0  0
   33.6071  -27.0675  -41.9418 C   0  0  0  0  0  0  0  0  0  0  0  0
   33.6885  -25.8371  -41.0353 O   0  0  0  0  0  0  0  0  0  0  0  0
   33.0725  -26.6213  -43.3324 C   0  0  0  0  0  0  0  0  0  0  0  0
   37.5469  -28.1585  -41.1036 H   0  0  0  0  0  0  0  0  0  0  0  0
   36.7955  -29.6333  -41.2902 H   0  0  0  0  0  0  0  0  0  0  0  0
   36.1242  -26.0256  -41.9040 H   0  0  0  0  0  0  0  0  0  0  0  0
  1  2  2  0  0  0
  1 23  1  0  0  0
  2  3  1  0  0  0
  3  4  2  0  0  0
  4 27  1  0  0  0
  4  5  1  0  0  0
 27 28  1  0  0  0
  5  6  1  0  0  0
  5 23  2  0  0  0
  6  7  2  0  0  0
  6  8  1  0  0  0
  8  9  2  0  0  0
  8 20  1  0  0  0
  9 10  1  0  0  0
  9 11  1  0  0  0
 11 12  1  0  0  0
 11 17  2  0  0  0
 12 34  1  0  0  0
 12 13  1  0  0  0
 34 35  1  0  0  0
 13 14  1  0  0  0
 14 15  1  0  0  0
 14 29  1  0  0  0
 14 16  1  0  0  0
 29 30  2  0  0  0
 29 31  1  0  0  0
 31 32  1  0  0  0
 16 17  1  0  0  0
 17 18  1  0  0  0
 18 19  1  0  0  0
 18 20  2  0  0  0
 20 21  1  0  0  0
 21 22  2  0  0  0
 21 23  1  0  0  0
 35 36  1  0  0  0
 35 42  1  0  0  0
 36 37  1  0  0  0
 37 38  1  0  0  0
 37 39  1  0  0  0
 39 40  1  0  0  0
 39 41  1  0  0  0
 41 42  1  0  0  0
 41 43  1  0  0  0
 10 24  1  0  0  0
 15 25  1  0  0  0
 32 33  1  0  0  0
 19 26  1  0  0  0
 38 44  1  0  0  0
 38 45  1  0  0  0
 40 46  1  0  0  0
M  END
> <minimizedAffinity>
-8.32863

$$$$
1I1E_DM2_A_3001


 46 50  0  0  0  0  0  0  0  0999 V2000
   30.2204  -34.8577  -36.7263 C   0  0  0  0  0  0  0  0  0  0  0  0
   30.9523  -35.9164  -36.0887 C   0  0  0  0  0  0  0  0  0  0  0  0
   32.3939  -35.8545  -36.0470 C   0  0  0  0  0  0  0  0  0  0  0  0
   33.1123  -34.7314  -36.6373 C   0  0  0  0  0  0  0  0  0  0  0  0
   32.3712  -33.6565  -37.2897 C   0  0  0  0  0  0  0  0  0  0  0  0
   33.0310  -32.5022  -37.9075 C   0  0  0  0  0  0  0  0  0  0  0  0
   34.4084  -32.4040  -37.8851 O   0  0  0  0  0  0  0  0  0  0  0  0
   32.3018  -31.4142  -38.5798 C   0  0  0  0  0  0  0  0  0  0  0  0
   32.9366  -30.2387  -39.2149 C   0  0  0  0  0  0  0  0  0  0  0  0
   34.3140  -30.0133  -39.2687 O   0  0  0  0  0  0  0  0  0  0  0  0
   32.1037  -29.2196  -39.8513 C   0  0  0  0  0  0  0  0  0  0  0  0
   32.8032  -28.0200  -40.4962 C   0  0  0  0  0  0  0  0  0  0  0  0
   31.9198  -26.7723  -40.8850 C   0  0  0  0  0  0  0  0  0  0  0  0
   30.6518  -27.3946  -41.6477 C   0  0  0  0  0  0  0  0  0  0  0  0
   30.8607  -28.3283  -42.7646 O   0  0  0  0  0  0  0  0  0  0  0  0
   29.8755  -28.2478  -40.5521 C   0  0  0  0  0  0  0  0  0  0  0  0
   30.7092  -29.3244  -39.8810 C   0  0  0  0  0  0  0  0  0  0  0  0
   30.0786  -30.4604  -39.2646 C   0  0  0  0  0  0  0  0  0  0  0  0
   28.7123  -30.4989  -39.3232 O   0  0  0  0  0  0  0  0  0  0  0  0
   30.8427  -31.5166  -38.6061 C   0  0  0  0  0  0  0  0  0  0  0  0
   30.1685  -32.6750  -37.9759 C   0  0  0  0  0  0  0  0  0  0  0  0
   28.8317  -32.7353  -38.0208 O   0  0  0  0  0  0  0  0  0  0  0  0
   30.9330  -33.7165  -37.3338 C   0  0  0  0  0  0  0  0  0  0  0  0
   34.9048  -30.6280  -38.8800 H   0  0  0  0  0  0  0  0  0  0  0  0
   31.3340  -27.8756  -43.4802 H   0  0  0  0  0  0  0  0  0  0  0  0
   28.2421  -29.8104  -39.7508 H   0  0  0  0  0  0  0  0  0  0  0  0
   34.5241  -34.6918  -36.5854 O   0  0  0  0  0  0  0  0  0  0  0  0
   35.3362  -35.8024  -37.1296 C   0  0  0  0  0  0  0  0  0  0  0  0
   29.6079  -26.3473  -42.1549 C   0  0  0  0  0  0  0  0  0  0  0  0
   28.8671  -26.5494  -43.3320 O   0  0  0  0  0  0  0  0  0  0  0  0
   29.3619  -25.1200  -41.3722 C   0  0  0  0  0  0  0  0  0  0  0  0
   28.0314  -25.0255  -40.8685 O   0  0  0  0  0  0  0  0  0  0  0  0
   27.4063  -24.9977  -41.6097 H   0  0  0  0  0  0  0  0  0  0  0  0
   33.3846  -28.7354  -41.6314 O   0  0  0  0  0  0  0  0  0  0  0  0
   34.1009  -28.0949  -42.6895 C   0  0  0  0  0  0  0  0  0  0  0  0
   35.6497  -28.2786  -42.3742 C   0  0  0  0  0  0  0  0  0  0  0  0
   35.9062  -29.8366  -42.3824 C   0  0  0  0  0  0  0  0  0  0  0  0
   37.3999  -30.0931  -42.0962 N   0  0  0  0  0  0  0  0  0  0  0  0
   35.5124  -30.4430  -43.7394 C   0  0  0  0  0  0  0  0  0  0  0  0
   36.3784  -29.7283  -44.7287 O   0  0  0  0  0  0  0  0  0  0  0  0
   34.0119  -30.2302  -44.0198 C   0  0  0  0  0  0  0  0  0  0  0  0
   33.7173  -28.7286  -43.9957 O   0  0  0  0  0  0  0  0  0  0  0  0
   33.5632  -30.7991  -45.3959 C   0  0  0  0  0  0  0  0  0  0  0  0
   37.9658  -29.6479  -42.8186 H   0  0  0  0  0  0  0  0  0  0  0  0
   37.5783  -31.0974  -42.0953 H   0  0  0  0  0  0  0  0  0  0  0  0
   36.2219  -28.7732  -44.6647 H   0  0  0  0  0  0  0  0  0  0  0  0
  1  2  2  0  0  0
  1 23  1  0  0  0
  2  3  1  0  0  0
  3  4  2  0  0  0
  4 27  1  0  0  0
  4  5  1  0  0  0
 27 28  1  0  0  0
  5  6  1  0  0  0
  5 23  2  0  0  0
  6  7  2  0  0  0
  6  8  1  0  0  0
  8  9  2  0  0  0
  8 20  1  0  0  0
  9 10  1  0  0  0
  9 11  1  0  0  0
 11 12  1  0  0  0
 11 17  2  0  0  0
 12 34  1  0  0  0
 12 13  1  0  0  0
 34 35  1  0  0  0
 13 14  1  0  0  0
 14 15  1  0  0  0
 14 29  1  0  0  0
 14 16  1  0  0  0
 29 30  2  0  0  0
 29 31  1  0  0  0
 31 32  1  0  0  0
 16 17  1  0  0  0
 17 18  1  0  0  0
 18 19  1  0  0  0
 18 20  2  0  0  0
 20 21  1  0  0  0
 21 22  2  0  0  0
 21 23  1  0  0  0
 35 36  1  0  0  0
 35 42  1  0  0  0
 36 37  1  0  0  0
 37 38  1  0  0  0
 37 39  1  0  0  0
 39 40  1  0  0  0
 39 41  1  0  0  0
 41 42  1  0  0  0
 41 43  1  0  0  0
 10 24  1  0  0  0
 15 25  1  0  0  0
 32 33  1  0  0  0
 19 26  1  0  0  0
 38 44  1  0  0  0
 38 45  1  0  0  0
 40 46  1  0  0  0
M  END
> <minimizedAffinity>
-7.54297

$$$$
1I1E_DM2_A_3001


 46 50  0  0  0  0  0  0  0  0999 V2000
   35.6478  -24.3348  -33.9460 C   0  0  0  0  0  0  0  0  0  0  0  0
   36.6106  -24.7137  -32.9498 C   0  0  0  0  0  0  0  0  0  0  0  0
   37.1892  -26.0356  -32.9916 C   0  0  0  0  0  0  0  0  0  0  0  0
   36.8131  -26.9846  -34.0326 C   0  0  0  0  0  0  0  0  0  0  0  0
   35.8317  -26.6037  -35.0435 C   0  0  0  0  0  0  0  0  0  0  0  0
   35.4051  -27.5107  -36.1136 C   0  0  0  0  0  0  0  0  0  0  0  0
   35.9382  -28.7824  -36.1905 O   0  0  0  0  0  0  0  0  0  0  0  0
   34.4087  -27.1489  -37.1352 C   0  0  0  0  0  0  0  0  0  0  0  0
   33.9548  -28.0403  -38.2249 C   0  0  0  0  0  0  0  0  0  0  0  0
   34.4058  -29.3478  -38.4201 O   0  0  0  0  0  0  0  0  0  0  0  0
   32.9586  -27.5653  -39.1836 C   0  0  0  0  0  0  0  0  0  0  0  0
   32.5179  -28.5216  -40.2952 C   0  0  0  0  0  0  0  0  0  0  0  0
   31.7093  -27.9198  -41.5085 C   0  0  0  0  0  0  0  0  0  0  0  0
   30.5847  -26.9975  -40.8293 C   0  0  0  0  0  0  0  0  0  0  0  0
   29.7222  -27.5571  -39.7777 O   0  0  0  0  0  0  0  0  0  0  0  0
   31.3790  -25.8206  -40.1118 C   0  0  0  0  0  0  0  0  0  0  0  0
   32.4129  -26.2801  -39.0996 C   0  0  0  0  0  0  0  0  0  0  0  0
   32.8475  -25.4018  -38.0472 C   0  0  0  0  0  0  0  0  0  0  0  0
   32.2797  -24.1572  -38.0254 O   0  0  0  0  0  0  0  0  0  0  0  0
   33.8415  -25.8027  -37.0550 C   0  0  0  0  0  0  0  0  0  0  0  0
   34.2743  -24.8776  -35.9825 C   0  0  0  0  0  0  0  0  0  0  0  0
   33.7324  -23.6541  -35.9402 O   0  0  0  0  0  0  0  0  0  0  0  0
   35.2520  -25.2860  -35.0033 C   0  0  0  0  0  0  0  0  0  0  0  0
   35.0447  -29.7143  -37.8409 H   0  0  0  0  0  0  0  0  0  0  0  0
   29.2003  -28.2887  -40.1429 H   0  0  0  0  0  0  0  0  0  0  0  0
   31.6438  -23.9210  -38.6718 H   0  0  0  0  0  0  0  0  0  0  0  0
   37.3918  -28.2739  -34.0539 O   0  0  0  0  0  0  0  0  0  0  0  0
   37.2888  -29.1727  -32.8831 C   0  0  0  0  0  0  0  0  0  0  0  0
   29.6249  -26.2804  -41.8334 C   0  0  0  0  0  0  0  0  0  0  0  0
   29.2766  -26.8574  -43.0666 O   0  0  0  0  0  0  0  0  0  0  0  0
   29.0379  -24.9730  -41.4789 C   0  0  0  0  0  0  0  0  0  0  0  0
   27.9804  -25.0652  -40.5270 O   0  0  0  0  0  0  0  0  0  0  0  0
   27.2548  -25.5900  -40.8997 H   0  0  0  0  0  0  0  0  0  0  0  0
   31.7593  -29.4451  -39.4523 O   0  0  0  0  0  0  0  0  0  0  0  0
   31.0776  -30.5973  -39.9528 C   0  0  0  0  0  0  0  0  0  0  0  0
   31.8670  -31.8696  -39.4138 C   0  0  0  0  0  0  0  0  0  0  0  0
   31.7708  -31.7974  -37.8394 C   0  0  0  0  0  0  0  0  0  0  0  0
   32.5065  -33.0147  -37.2430 N   0  0  0  0  0  0  0  0  0  0  0  0
   30.3015  -31.7890  -37.3865 C   0  0  0  0  0  0  0  0  0  0  0  0
   29.7422  -33.0692  -37.9230 O   0  0  0  0  0  0  0  0  0  0  0  0
   29.5641  -30.5547  -37.9417 C   0  0  0  0  0  0  0  0  0  0  0  0
   29.6562  -30.5752  -39.4692 O   0  0  0  0  0  0  0  0  0  0  0  0
   28.0628  -30.5102  -37.5384 C   0  0  0  0  0  0  0  0  0  0  0  0
   32.0675  -33.8735  -37.5750 H   0  0  0  0  0  0  0  0  0  0  0  0
   32.4546  -32.9780  -36.2249 H   0  0  0  0  0  0  0  0  0  0  0  0
   29.8567  -33.0936  -38.8859 H   0  0  0  0  0  0  0  0  0  0  0  0
  1  2  2  0  0  0
  1 23  1  0  0  0
  2  3  1  0  0  0
  3  4  2  0  0  0
  4 27  1  0  0  0
  4  5  1  0  0  0
 27 28  1  0  0  0
  5  6  1  0  0  0
  5 23  2  0  0  0
  6  7  2  0  0  0
  6  8  1  0  0  0
  8  9  2  0  0  0
  8 20  1  0  0  0
  9 10  1  0  0  0
  9 11  1  0  0  0
 11 12  1  0  0  0
 11 17  2  0  0  0
 12 34  1  0  0  0
 12 13  1  0  0  0
 34 35  1  0  0  0
 13 14  1  0  0  0
 14 15  1  0  0  0
 14 29  1  0  0  0
 14 16  1  0  0  0
 29 30  2  0  0  0
 29 31  1  0  0  0
 31 32  1  0  0  0
 16 17  1  0  0  0
 17 18  1  0  0  0
 18 19  1  0  0  0
 18 20  2  0  0  0
 20 21  1  0  0  0
 21 22  2  0  0  0
 21 23  1  0  0  0
 35 36  1  0  0  0
 35 42  1  0  0  0
 36 37  1  0  0  0
 37 38  1  0  0  0
 37 39  1  0  0  0
 39 40  1  0  0  0
 39 41  1  0  0  0
 41 42  1  0  0  0
 41 43  1  0  0  0
 10 24  1  0  0  0
 15 25  1  0  0  0
 32 33  1  0  0  0
 19 26  1  0  0  0
 38 44  1  0  0  0
 38 45  1  0  0  0
 40 46  1  0  0  0
M  END
> <minimizedAffinity>
-7.44344

$$$$
1I1E_DM2_A_3001


 46 50  0  0  0  0  0  0  0  0999 V2000
   34.1366  -33.8609  -39.8166 C   0  0  0  0  0  0  0  0  0  0  0  0
   33.8800  -34.8338  -38.7917 C   0  0  0  0  0  0  0  0  0  0  0  0
   32.7136  -34.6878  -37.9537 C   0  0  0  0  0  0  0  0  0  0  0  0
   31.7940  -33.5717  -38.1388 C   0  0  0  0  0  0  0  0  0  0  0  0
   32.0548  -32.5792  -39.1766 C   0  0  0  0  0  0  0  0  0  0  0  0
   31.1746  -31.4306  -39.4122 C   0  0  0  0  0  0  0  0  0  0  0  0
   30.0465  -31.2577  -38.6345 O   0  0  0  0  0  0  0  0  0  0  0  0
   31.4268  -30.4133  -40.4462 C   0  0  0  0  0  0  0  0  0  0  0  0
   30.5614  -29.2424  -40.7074 C   0  0  0  0  0  0  0  0  0  0  0  0
   29.3958  -28.9435  -39.9982 O   0  0  0  0  0  0  0  0  0  0  0  0
   30.9164  -28.2996  -41.7668 C   0  0  0  0  0  0  0  0  0  0  0  0
   29.9920  -27.1020  -42.0023 C   0  0  0  0  0  0  0  0  0  0  0  0
   30.1785  -26.2767  -43.3335 C   0  0  0  0  0  0  0  0  0  0  0  0
   31.7609  -26.0292  -43.4394 C   0  0  0  0  0  0  0  0  0  0  0  0
   32.4859  -25.4563  -42.2953 O   0  0  0  0  0  0  0  0  0  0  0  0
   32.4026  -27.4712  -43.6391 C   0  0  0  0  0  0  0  0  0  0  0  0
   32.0638  -28.4710  -42.5482 C   0  0  0  0  0  0  0  0  0  0  0  0
   32.9124  -29.6067  -42.3072 C   0  0  0  0  0  0  0  0  0  0  0  0
   34.0145  -29.7190  -43.1102 O   0  0  0  0  0  0  0  0  0  0  0  0
   32.6219  -30.5935  -41.2704 C   0  0  0  0  0  0  0  0  0  0  0  0
   33.5109  -31.7564  -41.0446 C   0  0  0  0  0  0  0  0  0  0  0  0
   34.5961  -31.8876  -41.8176 O   0  0  0  0  0  0  0  0  0  0  0  0
   33.2184  -32.7218  -40.0132 C   0  0  0  0  0  0  0  0  0  0  0  0
   29.1112  -29.5069  -39.3058 H   0  0  0  0  0  0  0  0  0  0  0  0
   32.1469  -24.5665  -42.1103 H   0  0  0  0  0  0  0  0  0  0  0  0
   34.1816  -29.0743  -43.7692 H   0  0  0  0  0  0  0  0  0  0  0  0
   30.6585  -33.4481  -37.3063 O   0  0  0  0  0  0  0  0  0  0  0  0
   29.7737  -34.6062  -37.0508 C   0  0  0  0  0  0  0  0  0  0  0  0
   32.2182  -25.2096  -44.6896 C   0  0  0  0  0  0  0  0  0  0  0  0
   33.4667  -25.4217  -45.2989 O   0  0  0  0  0  0  0  0  0  0  0  0
   31.3134  -24.2006  -45.2751 C   0  0  0  0  0  0  0  0  0  0  0  0
   30.6023  -24.6712  -46.4178 O   0  0  0  0  0  0  0  0  0  0  0  0
   31.2324  -24.9015  -47.1184 H   0  0  0  0  0  0  0  0  0  0  0  0
   30.3223  -26.3722  -40.7788 O   0  0  0  0  0  0  0  0  0  0  0  0
   29.6586  -25.1757  -40.3658 C   0  0  0  0  0  0  0  0  0  0  0  0
   29.0309  -25.4683  -38.9331 C   0  0  0  0  0  0  0  0  0  0  0  0
   30.2540  -25.7896  -37.9876 C   0  0  0  0  0  0  0  0  0  0  0  0
   29.7207  -26.0716  -36.5681 N   0  0  0  0  0  0  0  0  0  0  0  0
   31.2417  -24.6114  -37.9608 C   0  0  0  0  0  0  0  0  0  0  0  0
   30.4302  -23.4606  -37.4543 O   0  0  0  0  0  0  0  0  0  0  0  0
   31.8146  -24.3447  -39.3665 C   0  0  0  0  0  0  0  0  0  0  0  0
   30.6544  -24.0526  -40.3209 O   0  0  0  0  0  0  0  0  0  0  0  0
   32.7994  -23.1417  -39.4042 C   0  0  0  0  0  0  0  0  0  0  0  0
   29.2250  -25.2503  -36.2217 H   0  0  0  0  0  0  0  0  0  0  0  0
   30.5018  -26.2843  -35.9475 H   0  0  0  0  0  0  0  0  0  0  0  0
   29.6677  -23.3211  -38.0374 H   0  0  0  0  0  0  0  0  0  0  0  0
  1  2  2  0  0  0
  1 23  1  0  0  0
  2  3  1  0  0  0
  3  4  2  0  0  0
  4 27  1  0  0  0
  4  5  1  0  0  0
 27 28  1  0  0  0
  5  6  1  0  0  0
  5 23  2  0  0  0
  6  7  2  0  0  0
  6  8  1  0  0  0
  8  9  2  0  0  0
  8 20  1  0  0  0
  9 10  1  0  0  0
  9 11  1  0  0  0
 11 12  1  0  0  0
 11 17  2  0  0  0
 12 34  1  0  0  0
 12 13  1  0  0  0
 34 35  1  0  0  0
 13 14  1  0  0  0
 14 15  1  0  0  0
 14 29  1  0  0  0
 14 16  1  0  0  0
 29 30  2  0  0  0
 29 31  1  0  0  0
 31 32  1  0  0  0
 16 17  1  0  0  0
 17 18  1  0  0  0
 18 19  1  0  0  0
 18 20  2  0  0  0
 20 21  1  0  0  0
 21 22  2  0  0  0
 21 23  1  0  0  0
 35 36  1  0  0  0
 35 42  1  0  0  0
 36 37  1  0  0  0
 37 38  1  0  0  0
 37 39  1  0  0  0
 39 40  1  0  0  0
 39 41  1  0  0  0
 41 42  1  0  0  0
 41 43  1  0  0  0
 10 24  1  0  0  0
 15 25  1  0  0  0
 32 33  1  0  0  0
 19 26  1  0  0  0
 38 44  1  0  0  0
 38 45  1  0  0  0
 40 46  1  0  0  0
M  END
> <minimizedAffinity>
-7.42786

$$$$
1I1E_DM2_A_3001


 46 50  0  0  0  0  0  0  0  0999 V2000
   29.4281  -30.1268  -37.7211 C   0  0  0  0  0  0  0  0  0  0  0  0
   29.6900  -28.7165  -37.7948 C   0  0  0  0  0  0  0  0  0  0  0  0
   31.0559  -28.2495  -37.7952 C   0  0  0  0  0  0  0  0  0  0  0  0
   32.1683  -29.1897  -37.7274 C   0  0  0  0  0  0  0  0  0  0  0  0
   31.9049  -30.6230  -37.6479 C   0  0  0  0  0  0  0  0  0  0  0  0
   32.9760  -31.6213  -37.5717 C   0  0  0  0  0  0  0  0  0  0  0  0
   34.2960  -31.2152  -37.5735 O   0  0  0  0  0  0  0  0  0  0  0  0
   32.7303  -33.0700  -37.4796 C   0  0  0  0  0  0  0  0  0  0  0  0
   33.7869  -34.1020  -37.3984 C   0  0  0  0  0  0  0  0  0  0  0  0
   35.1579  -33.8347  -37.3876 O   0  0  0  0  0  0  0  0  0  0  0  0
   33.4173  -35.5138  -37.3127 C   0  0  0  0  0  0  0  0  0  0  0  0
   34.5436  -36.5478  -37.2304 C   0  0  0  0  0  0  0  0  0  0  0  0
   34.1736  -38.0623  -37.4696 C   0  0  0  0  0  0  0  0  0  0  0  0
   32.8683  -38.3085  -36.5684 C   0  0  0  0  0  0  0  0  0  0  0  0
   32.8842  -37.9327  -35.1466 O   0  0  0  0  0  0  0  0  0  0  0  0
   31.7325  -37.3984  -37.2107 C   0  0  0  0  0  0  0  0  0  0  0  0
   32.0799  -35.9234  -37.3022 C   0  0  0  0  0  0  0  0  0  0  0  0
   31.0425  -34.9309  -37.3838 C   0  0  0  0  0  0  0  0  0  0  0  0
   29.7567  -35.3984  -37.3752 O   0  0  0  0  0  0  0  0  0  0  0  0
   31.3328  -33.5025  -37.4760 C   0  0  0  0  0  0  0  0  0  0  0  0
   30.2455  -32.5006  -37.5621 C   0  0  0  0  0  0  0  0  0  0  0  0
   28.9787  -32.9338  -37.5550 O   0  0  0  0  0  0  0  0  0  0  0  0
   30.5431  -31.0914  -37.6461 C   0  0  0  0  0  0  0  0  0  0  0  0
   35.4631  -32.9503  -37.4398 H   0  0  0  0  0  0  0  0  0  0  0  0
   33.5598  -38.4516  -34.6826 H   0  0  0  0  0  0  0  0  0  0  0  0
   29.5933  -36.3191  -37.3153 H   0  0  0  0  0  0  0  0  0  0  0  0
   33.4979  -28.7101  -37.7284 O   0  0  0  0  0  0  0  0  0  0  0  0
   33.8344  -27.4016  -37.1254 C   0  0  0  0  0  0  0  0  0  0  0  0
   32.2953  -39.7621  -36.6204 C   0  0  0  0  0  0  0  0  0  0  0  0
   31.4424  -40.1861  -37.6538 O   0  0  0  0  0  0  0  0  0  0  0  0
   32.6734  -40.7363  -35.5776 C   0  0  0  0  0  0  0  0  0  0  0  0
   32.0354  -40.5020  -34.3242 O   0  0  0  0  0  0  0  0  0  0  0  0
   32.2999  -39.6329  -33.9843 H   0  0  0  0  0  0  0  0  0  0  0  0
   34.9827  -36.2325  -35.8716 O   0  0  0  0  0  0  0  0  0  0  0  0
   36.3287  -36.3895  -35.4170 C   0  0  0  0  0  0  0  0  0  0  0  0
   36.7632  -34.9994  -34.7759 C   0  0  0  0  0  0  0  0  0  0  0  0
   35.7821  -34.7630  -33.5615 C   0  0  0  0  0  0  0  0  0  0  0  0
   36.1541  -33.4317  -32.8775 N   0  0  0  0  0  0  0  0  0  0  0  0
   35.8758  -35.9225  -32.5560 C   0  0  0  0  0  0  0  0  0  0  0  0
   37.3090  -35.9230  -32.1253 O   0  0  0  0  0  0  0  0  0  0  0  0
   35.4665  -37.2540  -33.2155 C   0  0  0  0  0  0  0  0  0  0  0  0
   36.3813  -37.5075  -34.4159 O   0  0  0  0  0  0  0  0  0  0  0  0
   35.5711  -38.4688  -32.2501 C   0  0  0  0  0  0  0  0  0  0  0  0
   37.1149  -33.4804  -32.5385 H   0  0  0  0  0  0  0  0  0  0  0  0
   35.5246  -33.2653  -32.0923 H   0  0  0  0  0  0  0  0  0  0  0  0
   37.8800  -36.0292  -32.9022 H   0  0  0  0  0  0  0  0  0  0  0  0
  1  2  2  0  0  0
  1 23  1  0  0  0
  2  3  1  0  0  0
  3  4  2  0  0  0
  4 27  1  0  0  0
  4  5  1  0  0  0
 27 28  1  0  0  0
  5  6  1  0  0  0
  5 23  2  0  0  0
  6  7  2  0  0  0
  6  8  1  0  0  0
  8  9  2  0  0  0
  8 20  1  0  0  0
  9 10  1  0  0  0
  9 11  1  0  0  0
 11 12  1  0  0  0
 11 17  2  0  0  0
 12 34  1  0  0  0
 12 13  1  0  0  0
 34 35  1  0  0  0
 13 14  1  0  0  0
 14 15  1  0  0  0
 14 29  1  0  0  0
 14 16  1  0  0  0
 29 30  2  0  0  0
 29 31  1  0  0  0
 31 32  1  0  0  0
 16 17  1  0  0  0
 17 18  1  0  0  0
 18 19  1  0  0  0
 18 20  2  0  0  0
 20 21  1  0  0  0
 21 22  2  0  0  0
 21 23  1  0  0  0
 35 36  1  0  0  0
 35 42  1  0  0  0
 36 37  1  0  0  0
 37 38  1  0  0  0
 37 39  1  0  0  0
 39 40  1  0  0  0
 39 41  1  0  0  0
 41 42  1  0  0  0
 41 43  1  0  0  0
 10 24  1  0  0  0
 15 25  1  0  0  0
 32 33  1  0  0  0
 19 26  1  0  0  0
 38 44  1  0  0  0
 38 45  1  0  0  0
 40 46  1  0  0  0
M  END
> <minimizedAffinity>
-7.31998

$$$$
1I1E_DM2_A_3001


 46 50  0  0  0  0  0  0  0  0999 V2000
   31.4733  -28.9366  -37.9239 C   0  0  0  0  0  0  0  0  0  0  0  0
   30.2246  -28.3117  -38.2603 C   0  0  0  0  0  0  0  0  0  0  0  0
   29.0345  -29.1217  -38.3678 C   0  0  0  0  0  0  0  0  0  0  0  0
   29.0844  -30.5600  -38.1343 C   0  0  0  0  0  0  0  0  0  0  0  0
   30.3528  -31.1981  -37.7967 C   0  0  0  0  0  0  0  0  0  0  0  0
   30.4741  -32.6391  -37.5550 C   0  0  0  0  0  0  0  0  0  0  0  0
   29.3580  -33.4477  -37.6442 O   0  0  0  0  0  0  0  0  0  0  0  0
   31.7461  -33.3026  -37.2245 C   0  0  0  0  0  0  0  0  0  0  0  0
   31.9029  -34.7527  -36.9781 C   0  0  0  0  0  0  0  0  0  0  0  0
   30.8640  -35.6844  -37.0377 O   0  0  0  0  0  0  0  0  0  0  0  0
   33.2213  -35.2955  -36.6549 C   0  0  0  0  0  0  0  0  0  0  0  0
   33.3372  -36.8020  -36.4075 C   0  0  0  0  0  0  0  0  0  0  0  0
   34.6628  -37.3407  -35.7436 C   0  0  0  0  0  0  0  0  0  0  0  0
   35.8454  -36.6263  -36.5606 C   0  0  0  0  0  0  0  0  0  0  0  0
   35.8615  -36.6979  -38.0295 O   0  0  0  0  0  0  0  0  0  0  0  0
   35.7067  -35.0749  -36.2367 C   0  0  0  0  0  0  0  0  0  0  0  0
   34.3525  -34.4768  -36.5733 C   0  0  0  0  0  0  0  0  0  0  0  0
   34.2140  -33.0648  -36.8073 C   0  0  0  0  0  0  0  0  0  0  0  0
   35.3573  -32.3201  -36.7059 O   0  0  0  0  0  0  0  0  0  0  0  0
   32.9301  -32.4484  -37.1308 C   0  0  0  0  0  0  0  0  0  0  0  0
   32.8138  -30.9904  -37.3644 C   0  0  0  0  0  0  0  0  0  0  0  0
   33.9191  -30.2408  -37.2712 O   0  0  0  0  0  0  0  0  0  0  0  0
   31.5418  -30.3925  -37.6900 C   0  0  0  0  0  0  0  0  0  0  0  0
   29.9935  -35.4031  -37.2401 H   0  0  0  0  0  0  0  0  0  0  0  0
   35.9449  -37.6235  -38.3072 H   0  0  0  0  0  0  0  0  0  0  0  0
   36.1705  -32.7363  -36.4972 H   0  0  0  0  0  0  0  0  0  0  0  0
   27.9068  -31.3337  -38.2456 O   0  0  0  0  0  0  0  0  0  0  0  0
   26.6437  -30.7308  -38.7253 C   0  0  0  0  0  0  0  0  0  0  0  0
   37.2896  -37.0055  -36.0978 C   0  0  0  0  0  0  0  0  0  0  0  0
   37.8578  -36.4707  -34.9290 O   0  0  0  0  0  0  0  0  0  0  0  0
   38.0809  -37.9722  -36.8846 C   0  0  0  0  0  0  0  0  0  0  0  0
   37.3225  -39.0920  -37.3359 O   0  0  0  0  0  0  0  0  0  0  0  0
   36.9862  -39.5843  -36.5707 H   0  0  0  0  0  0  0  0  0  0  0  0
   33.1269  -37.2313  -37.7895 O   0  0  0  0  0  0  0  0  0  0  0  0
   33.3541  -38.5657  -38.2484 C   0  0  0  0  0  0  0  0  0  0  0  0
   31.9255  -39.2505  -38.3982 C   0  0  0  0  0  0  0  0  0  0  0  0
   31.1570  -38.4033  -39.4867 C   0  0  0  0  0  0  0  0  0  0  0  0
   29.7592  -39.0205  -39.6972 N   0  0  0  0  0  0  0  0  0  0  0  0
   31.9373  -38.3885  -40.8115 C   0  0  0  0  0  0  0  0  0  0  0  0
   32.0404  -39.8311  -41.1957 O   0  0  0  0  0  0  0  0  0  0  0  0
   33.3211  -37.7363  -40.6249 C   0  0  0  0  0  0  0  0  0  0  0  0
   34.0902  -38.5164  -39.5562 O   0  0  0  0  0  0  0  0  0  0  0  0
   34.1676  -37.7208  -41.9295 C   0  0  0  0  0  0  0  0  0  0  0  0
   29.8577  -39.9837  -40.0179 H   0  0  0  0  0  0  0  0  0  0  0  0
   29.2505  -38.4796  -40.3965 H   0  0  0  0  0  0  0  0  0  0  0  0
   32.4806  -40.3241  -40.4857 H   0  0  0  0  0  0  0  0  0  0  0  0
  1  2  2  0  0  0
  1 23  1  0  0  0
  2  3  1  0  0  0
  3  4  2  0  0  0
  4 27  1  0  0  0
  4  5  1  0  0  0
 27 28  1  0  0  0
  5  6  1  0  0  0
  5 23  2  0  0  0
  6  7  2  0  0  0
  6  8  1  0  0  0
  8  9  2  0  0  0
  8 20  1  0  0  0
  9 10  1  0  0  0
  9 11  1  0  0  0
 11 12  1  0  0  0
 11 17  2  0  0  0
 12 34  1  0  0  0
 12 13  1  0  0  0
 34 35  1  0  0  0
 13 14  1  0  0  0
 14 15  1  0  0  0
 14 29  1  0  0  0
 14 16  1  0  0  0
 29 30  2  0  0  0
 29 31  1  0  0  0
 31 32  1  0  0  0
 16 17  1  0  0  0
 17 18  1  0  0  0
 18 19  1  0  0  0
 18 20  2  0  0  0
 20 21  1  0  0  0
 21 22  2  0  0  0
 21 23  1  0  0  0
 35 36  1  0  0  0
 35 42  1  0  0  0
 36 37  1  0  0  0
 37 38  1  0  0  0
 37 39  1  0  0  0
 39 40  1  0  0  0
 39 41  1  0  0  0
 41 42  1  0  0  0
 41 43  1  0  0  0
 10 24  1  0  0  0
 15 25  1  0  0  0
 32 33  1  0  0  0
 19 26  1  0  0  0
 38 44  1  0  0  0
 38 45  1  0  0  0
 40 46  1  0  0  0
M  END
> <minimizedAffinity>
-7.28803

$$$$
1I1E_DM2_A_3001


 46 50  0  0  0  0  0  0  0  0999 V2000
   34.7537  -33.4995  -46.3754 C   0  0  0  0  0  0  0  0  0  0  0  0
   35.2710  -32.6750  -47.4315 C   0  0  0  0  0  0  0  0  0  0  0  0
   35.6252  -31.3042  -47.1500 C   0  0  0  0  0  0  0  0  0  0  0  0
   35.4697  -30.7510  -45.8100 C   0  0  0  0  0  0  0  0  0  0  0  0
   34.9401  -31.5854  -44.7360 C   0  0  0  0  0  0  0  0  0  0  0  0
   34.7533  -31.0908  -43.3685 C   0  0  0  0  0  0  0  0  0  0  0  0
   35.0840  -29.7864  -43.0578 O   0  0  0  0  0  0  0  0  0  0  0  0
   34.2103  -31.9134  -42.2749 C   0  0  0  0  0  0  0  0  0  0  0  0
   34.0067  -31.4446  -40.8868 C   0  0  0  0  0  0  0  0  0  0  0  0
   34.2938  -30.1544  -40.4350 O   0  0  0  0  0  0  0  0  0  0  0  0
   33.4604  -32.3584  -39.8849 C   0  0  0  0  0  0  0  0  0  0  0  0
   33.2664  -31.8307  -38.4608 C   0  0  0  0  0  0  0  0  0  0  0  0
   32.9973  -32.8810  -37.3151 C   0  0  0  0  0  0  0  0  0  0  0  0
   31.8658  -33.8510  -37.9113 C   0  0  0  0  0  0  0  0  0  0  0  0
   30.6340  -33.2743  -38.4708 O   0  0  0  0  0  0  0  0  0  0  0  0
   32.5514  -34.5979  -39.1373 C   0  0  0  0  0  0  0  0  0  0  0  0
   33.1177  -33.6767  -40.2028 C   0  0  0  0  0  0  0  0  0  0  0  0
   33.3133  -34.1467  -41.5477 C   0  0  0  0  0  0  0  0  0  0  0  0
   32.9641  -35.4471  -41.7904 O   0  0  0  0  0  0  0  0  0  0  0  0
   33.8578  -33.2951  -42.6019 C   0  0  0  0  0  0  0  0  0  0  0  0
   34.0524  -33.8047  -43.9789 C   0  0  0  0  0  0  0  0  0  0  0  0
   33.7175  -35.0742  -44.2410 O   0  0  0  0  0  0  0  0  0  0  0  0
   34.5848  -32.9530  -45.0145 C   0  0  0  0  0  0  0  0  0  0  0  0
   34.6464  -29.5187  -41.0262 H   0  0  0  0  0  0  0  0  0  0  0  0
   30.1553  -32.7971  -37.7750 H   0  0  0  0  0  0  0  0  0  0  0  0
   32.6166  -35.9757  -41.0992 H   0  0  0  0  0  0  0  0  0  0  0  0
   35.8222  -29.4059  -45.5571 O   0  0  0  0  0  0  0  0  0  0  0  0
   37.2233  -28.9494  -45.6905 C   0  0  0  0  0  0  0  0  0  0  0  0
   31.4048  -34.9951  -36.9510 C   0  0  0  0  0  0  0  0  0  0  0  0
   32.1933  -35.4148  -35.8659 O   0  0  0  0  0  0  0  0  0  0  0  0
   30.0951  -35.6437  -37.1598 C   0  0  0  0  0  0  0  0  0  0  0  0
   28.9884  -34.7776  -36.9190 O   0  0  0  0  0  0  0  0  0  0  0  0
   28.9981  -34.4906  -35.9925 H   0  0  0  0  0  0  0  0  0  0  0  0
   32.1448  -30.9373  -38.7476 O   0  0  0  0  0  0  0  0  0  0  0  0
   31.5398  -30.0860  -37.7718 C   0  0  0  0  0  0  0  0  0  0  0  0
   31.8134  -28.5883  -38.2345 C   0  0  0  0  0  0  0  0  0  0  0  0
   31.1003  -28.4361  -39.6351 C   0  0  0  0  0  0  0  0  0  0  0  0
   31.3117  -26.9954  -40.1434 N   0  0  0  0  0  0  0  0  0  0  0  0
   29.5985  -28.7429  -39.5142 C   0  0  0  0  0  0  0  0  0  0  0  0
   29.0963  -27.7442  -38.5193 O   0  0  0  0  0  0  0  0  0  0  0  0
   29.3717  -30.1938  -39.0465 C   0  0  0  0  0  0  0  0  0  0  0  0
   30.0709  -30.3891  -37.6992 O   0  0  0  0  0  0  0  0  0  0  0  0
   27.8674  -30.5509  -38.8781 C   0  0  0  0  0  0  0  0  0  0  0  0
   30.9062  -26.3371  -39.4781 H   0  0  0  0  0  0  0  0  0  0  0  0
   30.8581  -26.8848  -41.0504 H   0  0  0  0  0  0  0  0  0  0  0  0
   29.5857  -27.8421  -37.6876 H   0  0  0  0  0  0  0  0  0  0  0  0
  1  2  2  0  0  0
  1 23  1  0  0  0
  2  3  1  0  0  0
  3  4  2  0  0  0
  4 27  1  0  0  0
  4  5  1  0  0  0
 27 28  1  0  0  0
  5  6  1  0  0  0
  5 23  2  0  0  0
  6  7  2  0  0  0
  6  8  1  0  0  0
  8  9  2  0  0  0
  8 20  1  0  0  0
  9 10  1  0  0  0
  9 11  1  0  0  0
 11 12  1  0  0  0
 11 17  2  0  0  0
 12 34  1  0  0  0
 12 13  1  0  0  0
 34 35  1  0  0  0
 13 14  1  0  0  0
 14 15  1  0  0  0
 14 29  1  0  0  0
 14 16  1  0  0  0
 29 30  2  0  0  0
 29 31  1  0  0  0
 31 32  1  0  0  0
 16 17  1  0  0  0
 17 18  1  0  0  0
 18 19  1  0  0  0
 18 20  2  0  0  0
 20 21  1  0  0  0
 21 22  2  0  0  0
 21 23  1  0  0  0
 35 36  1  0  0  0
 35 42  1  0  0  0
 36 37  1  0  0  0
 37 38  1  0  0  0
 37 39  1  0  0  0
 39 40  1  0  0  0
 39 41  1  0  0  0
 41 42  1  0  0  0
 41 43  1  0  0  0
 10 24  1  0  0  0
 15 25  1  0  0  0
 32 33  1  0  0  0
 19 26  1  0  0  0
 38 44  1  0  0  0
 38 45  1  0  0  0
 40 46  1  0  0  0
M  END
> <minimizedAffinity>
-7.18869

$$$$
1I1E_DM2_A_3001


 46 50  0  0  0  0  0  0  0  0999 V2000
   35.9179  -34.6280  -42.9000 C   0  0  0  0  0  0  0  0  0  0  0  0
   37.1353  -34.5584  -43.6590 C   0  0  0  0  0  0  0  0  0  0  0  0
   37.7901  -33.2834  -43.8307 C   0  0  0  0  0  0  0  0  0  0  0  0
   37.2351  -32.0714  -43.2401 C   0  0  0  0  0  0  0  0  0  0  0  0
   35.9959  -32.1386  -42.4721 C   0  0  0  0  0  0  0  0  0  0  0  0
   35.3812  -30.9582  -41.8569 C   0  0  0  0  0  0  0  0  0  0  0  0
   35.9790  -29.7209  -41.9947 O   0  0  0  0  0  0  0  0  0  0  0  0
   34.1263  -31.0039  -41.0884 C   0  0  0  0  0  0  0  0  0  0  0  0
   33.4790  -29.8326  -40.4582 C   0  0  0  0  0  0  0  0  0  0  0  0
   33.9699  -28.5264  -40.5198 O   0  0  0  0  0  0  0  0  0  0  0  0
   32.2313  -30.0049  -39.7161 C   0  0  0  0  0  0  0  0  0  0  0  0
   31.5963  -28.7652  -39.0803 C   0  0  0  0  0  0  0  0  0  0  0  0
   30.4522  -28.9854  -38.0171 C   0  0  0  0  0  0  0  0  0  0  0  0
   29.4716  -30.0617  -38.6930 C   0  0  0  0  0  0  0  0  0  0  0  0
   28.9629  -29.8292  -40.0531 O   0  0  0  0  0  0  0  0  0  0  0  0
   30.3256  -31.3990  -38.8077 C   0  0  0  0  0  0  0  0  0  0  0  0
   31.6222  -31.2571  -39.5844 C   0  0  0  0  0  0  0  0  0  0  0  0
   32.2422  -32.4050  -40.1893 C   0  0  0  0  0  0  0  0  0  0  0  0
   31.5989  -33.6002  -40.0177 O   0  0  0  0  0  0  0  0  0  0  0  0
   33.4904  -32.3133  -40.9422 C   0  0  0  0  0  0  0  0  0  0  0  0
   34.1102  -33.5118  -41.5529 C   0  0  0  0  0  0  0  0  0  0  0  0
   33.4989  -34.6929  -41.3990 O   0  0  0  0  0  0  0  0  0  0  0  0
   35.3399  -33.4091  -42.3004 C   0  0  0  0  0  0  0  0  0  0  0  0
   34.7659  -28.3462  -40.9801 H   0  0  0  0  0  0  0  0  0  0  0  0
   28.4261  -29.0213  -40.0639 H   0  0  0  0  0  0  0  0  0  0  0  0
   30.7991  -33.6361  -39.5309 H   0  0  0  0  0  0  0  0  0  0  0  0
   37.8928  -30.8336  -43.4216 O   0  0  0  0  0  0  0  0  0  0  0  0
   38.5727  -30.5138  -44.6962 C   0  0  0  0  0  0  0  0  0  0  0  0
   28.2271  -30.4526  -37.8315 C   0  0  0  0  0  0  0  0  0  0  0  0
   28.3174  -30.6421  -36.4419 O   0  0  0  0  0  0  0  0  0  0  0  0
   26.9078  -30.6035  -38.4767 C   0  0  0  0  0  0  0  0  0  0  0  0
   26.1691  -29.3861  -38.5491 O   0  0  0  0  0  0  0  0  0  0  0  0
   25.9909  -29.0622  -37.6523 H   0  0  0  0  0  0  0  0  0  0  0  0
   31.1632  -28.1243  -40.3214 O   0  0  0  0  0  0  0  0  0  0  0  0
   31.6644  -26.8673  -40.7813 C   0  0  0  0  0  0  0  0  0  0  0  0
   31.0824  -26.6476  -42.2459 C   0  0  0  0  0  0  0  0  0  0  0  0
   29.5128  -26.6019  -42.0802 C   0  0  0  0  0  0  0  0  0  0  0  0
   28.8757  -26.3757  -43.4665 N   0  0  0  0  0  0  0  0  0  0  0  0
   29.1026  -25.4767  -41.1158 C   0  0  0  0  0  0  0  0  0  0  0  0
   29.6342  -24.2316  -41.7535 O   0  0  0  0  0  0  0  0  0  0  0  0
   29.6987  -25.7120  -39.7142 C   0  0  0  0  0  0  0  0  0  0  0  0
   31.2224  -25.7872  -39.8363 O   0  0  0  0  0  0  0  0  0  0  0  0
   29.3396  -24.5862  -38.7032 C   0  0  0  0  0  0  0  0  0  0  0  0
   29.2064  -25.4913  -43.8523 H   0  0  0  0  0  0  0  0  0  0  0  0
   27.8604  -26.3477  -43.3736 H   0  0  0  0  0  0  0  0  0  0  0  0
   30.5929  -24.3148  -41.8755 H   0  0  0  0  0  0  0  0  0  0  0  0
  1  2  2  0  0  0
  1 23  1  0  0  0
  2  3  1  0  0  0
  3  4  2  0  0  0
  4 27  1  0  0  0
  4  5  1  0  0  0
 27 28  1  0  0  0
  5  6  1  0  0  0
  5 23  2  0  0  0
  6  7  2  0  0  0
  6  8  1  0  0  0
  8  9  2  0  0  0
  8 20  1  0  0  0
  9 10  1  0  0  0
  9 11  1  0  0  0
 11 12  1  0  0  0
 11 17  2  0  0  0
 12 34  1  0  0  0
 12 13  1  0  0  0
 34 35  1  0  0  0
 13 14  1  0  0  0
 14 15  1  0  0  0
 14 29  1  0  0  0
 14 16  1  0  0  0
 29 30  2  0  0  0
 29 31  1  0  0  0
 31 32  1  0  0  0
 16 17  1  0  0  0
 17 18  1  0  0  0
 18 19  1  0  0  0
 18 20  2  0  0  0
 20 21  1  0  0  0
 21 22  2  0  0  0
 21 23  1  0  0  0
 35 36  1  0  0  0
 35 42  1  0  0  0
 36 37  1  0  0  0
 37 38  1  0  0  0
 37 39  1  0  0  0
 39 40  1  0  0  0
 39 41  1  0  0  0
 41 42  1  0  0  0
 41 43  1  0  0  0
 10 24  1  0  0  0
 15 25  1  0  0  0
 32 33  1  0  0  0
 19 26  1  0  0  0
 38 44  1  0  0  0
 38 45  1  0  0  0
 40 46  1  0  0  0
M  END
> <minimizedAffinity>
-7.14776

$$$$
1I1E_DM2_A_3001


 46 50  0  0  0  0  0  0  0  0999 V2000
   36.6723  -29.5242  -45.7811 C   0  0  0  0  0  0  0  0  0  0  0  0
   36.8580  -30.6306  -46.6780 C   0  0  0  0  0  0  0  0  0  0  0  0
   35.8291  -31.6378  -46.7815 C   0  0  0  0  0  0  0  0  0  0  0  0
   34.6062  -31.5423  -45.9933 C   0  0  0  0  0  0  0  0  0  0  0  0
   34.4170  -30.4215  -45.0779 C   0  0  0  0  0  0  0  0  0  0  0  0
   33.2149  -30.2679  -44.2527 C   0  0  0  0  0  0  0  0  0  0  0  0
   32.2059  -31.2081  -44.3258 O   0  0  0  0  0  0  0  0  0  0  0  0
   33.0107  -29.1509  -43.3157 C   0  0  0  0  0  0  0  0  0  0  0  0
   31.8125  -28.9685  -42.4677 C   0  0  0  0  0  0  0  0  0  0  0  0
   30.7215  -29.8401  -42.4380 O   0  0  0  0  0  0  0  0  0  0  0  0
   31.7238  -27.8138  -41.5754 C   0  0  0  0  0  0  0  0  0  0  0  0
   30.4656  -27.6649  -40.7159 C   0  0  0  0  0  0  0  0  0  0  0  0
   30.2140  -26.2765  -40.0107 C   0  0  0  0  0  0  0  0  0  0  0  0
   31.6233  -25.9003  -39.3407 C   0  0  0  0  0  0  0  0  0  0  0  0
   32.3009  -26.8767  -38.4745 O   0  0  0  0  0  0  0  0  0  0  0  0
   32.6251  -25.6805  -40.5569 C   0  0  0  0  0  0  0  0  0  0  0  0
   32.7502  -26.8668  -41.4959 C   0  0  0  0  0  0  0  0  0  0  0  0
   33.9194  -27.0300  -42.3170 C   0  0  0  0  0  0  0  0  0  0  0  0
   34.8825  -26.0659  -42.1959 O   0  0  0  0  0  0  0  0  0  0  0  0
   34.0788  -28.1544  -43.2354 C   0  0  0  0  0  0  0  0  0  0  0  0
   35.2920  -28.2977  -44.0727 C   0  0  0  0  0  0  0  0  0  0  0  0
   36.2489  -27.3668  -43.9714 O   0  0  0  0  0  0  0  0  0  0  0  0
   35.4425  -29.4159  -44.9719 C   0  0  0  0  0  0  0  0  0  0  0  0
   30.7142  -30.6004  -42.9856 H   0  0  0  0  0  0  0  0  0  0  0  0
   31.7452  -27.0639  -37.7018 H   0  0  0  0  0  0  0  0  0  0  0  0
   34.7595  -25.3530  -41.6003 H   0  0  0  0  0  0  0  0  0  0  0  0
   33.6123  -32.5404  -46.1100 O   0  0  0  0  0  0  0  0  0  0  0  0
   32.8879  -32.7464  -47.3836 C   0  0  0  0  0  0  0  0  0  0  0  0
   31.6409  -24.5480  -38.5566 C   0  0  0  0  0  0  0  0  0  0  0  0
   32.6237  -23.5703  -38.7871 O   0  0  0  0  0  0  0  0  0  0  0  0
   30.5866  -24.2635  -37.5631 C   0  0  0  0  0  0  0  0  0  0  0  0
   30.3482  -25.3439  -36.6638 O   0  0  0  0  0  0  0  0  0  0  0  0
   30.0418  -26.1178  -37.1621 H   0  0  0  0  0  0  0  0  0  0  0  0
   30.7349  -28.7749  -39.8028 O   0  0  0  0  0  0  0  0  0  0  0  0
   30.2235  -28.8471  -38.4701 C   0  0  0  0  0  0  0  0  0  0  0  0
   28.8091  -29.5709  -38.5583 C   0  0  0  0  0  0  0  0  0  0  0  0
   29.1017  -31.0139  -39.1287 C   0  0  0  0  0  0  0  0  0  0  0  0
   27.7698  -31.7851  -39.2293 N   0  0  0  0  0  0  0  0  0  0  0  0
   30.0853  -31.7670  -38.2178 C   0  0  0  0  0  0  0  0  0  0  0  0
   29.3944  -31.8193  -36.8914 O   0  0  0  0  0  0  0  0  0  0  0  0
   31.4359  -31.0286  -38.1410 C   0  0  0  0  0  0  0  0  0  0  0  0
   31.1909  -29.6128  -37.6141 O   0  0  0  0  0  0  0  0  0  0  0  0
   32.4619  -31.7319  -37.2075 C   0  0  0  0  0  0  0  0  0  0  0  0
   27.3498  -31.8605  -38.3029 H   0  0  0  0  0  0  0  0  0  0  0  0
   27.9449  -32.7190  -39.6003 H   0  0  0  0  0  0  0  0  0  0  0  0
   29.1955  -30.9175  -36.5946 H   0  0  0  0  0  0  0  0  0  0  0  0
  1  2  2  0  0  0
  1 23  1  0  0  0
  2  3  1  0  0  0
  3  4  2  0  0  0
  4 27  1  0  0  0
  4  5  1  0  0  0
 27 28  1  0  0  0
  5  6  1  0  0  0
  5 23  2  0  0  0
  6  7  2  0  0  0
  6  8  1  0  0  0
  8  9  2  0  0  0
  8 20  1  0  0  0
  9 10  1  0  0  0
  9 11  1  0  0  0
 11 12  1  0  0  0
 11 17  2  0  0  0
 12 34  1  0  0  0
 12 13  1  0  0  0
 34 35  1  0  0  0
 13 14  1  0  0  0
 14 15  1  0  0  0
 14 29  1  0  0  0
 14 16  1  0  0  0
 29 30  2  0  0  0
 29 31  1  0  0  0
 31 32  1  0  0  0
 16 17  1  0  0  0
 17 18  1  0  0  0
 18 19  1  0  0  0
 18 20  2  0  0  0
 20 21  1  0  0  0
 21 22  2  0  0  0
 21 23  1  0  0  0
 35 36  1  0  0  0
 35 42  1  0  0  0
 36 37  1  0  0  0
 37 38  1  0  0  0
 37 39  1  0  0  0
 39 40  1  0  0  0
 39 41  1  0  0  0
 41 42  1  0  0  0
 41 43  1  0  0  0
 10 24  1  0  0  0
 15 25  1  0  0  0
 32 33  1  0  0  0
 19 26  1  0  0  0
 38 44  1  0  0  0
 38 45  1  0  0  0
 40 46  1  0  0  0
M  END
> <minimizedAffinity>
-7.14720

$$$$
1I1E_DM2_A_3001


 46 50  0  0  0  0  0  0  0  0999 V2000
   37.2060  -30.4110  -43.3054 C   0  0  0  0  0  0  0  0  0  0  0  0
   38.4219  -29.7122  -43.6154 C   0  0  0  0  0  0  0  0  0  0  0  0
   38.7376  -28.4938  -42.9084 C   0  0  0  0  0  0  0  0  0  0  0  0
   37.8425  -27.9697  -41.8836 C   0  0  0  0  0  0  0  0  0  0  0  0
   36.6042  -28.6755  -41.5699 C   0  0  0  0  0  0  0  0  0  0  0  0
   35.6580  -28.2008  -40.5556 C   0  0  0  0  0  0  0  0  0  0  0  0
   35.9257  -27.0414  -39.8545 O   0  0  0  0  0  0  0  0  0  0  0  0
   34.3990  -28.8924  -40.2330 C   0  0  0  0  0  0  0  0  0  0  0  0
   33.4224  -28.4388  -39.2188 C   0  0  0  0  0  0  0  0  0  0  0  0
   33.5632  -27.2871  -38.4412 O   0  0  0  0  0  0  0  0  0  0  0  0
   32.2051  -29.2142  -38.9857 C   0  0  0  0  0  0  0  0  0  0  0  0
   31.2224  -28.7077  -37.9265 C   0  0  0  0  0  0  0  0  0  0  0  0
   30.0910  -29.6928  -37.4389 C   0  0  0  0  0  0  0  0  0  0  0  0
   29.4796  -30.3089  -38.7892 C   0  0  0  0  0  0  0  0  0  0  0  0
   29.0407  -29.4088  -39.8662 O   0  0  0  0  0  0  0  0  0  0  0  0
   30.6559  -31.1631  -39.4353 C   0  0  0  0  0  0  0  0  0  0  0  0
   31.9309  -30.3836  -39.7025 C   0  0  0  0  0  0  0  0  0  0  0  0
   32.8731  -30.8378  -40.6893 C   0  0  0  0  0  0  0  0  0  0  0  0
   32.5480  -31.9911  -41.3498 O   0  0  0  0  0  0  0  0  0  0  0  0
   34.1125  -30.1200  -40.9754 C   0  0  0  0  0  0  0  0  0  0  0  0
   35.0680  -30.6110  -41.9949 C   0  0  0  0  0  0  0  0  0  0  0  0
   34.7715  -31.7374  -42.6550 O   0  0  0  0  0  0  0  0  0  0  0  0
   36.2864  -29.8906  -42.2746 C   0  0  0  0  0  0  0  0  0  0  0  0
   34.3206  -26.7444  -38.5406 H   0  0  0  0  0  0  0  0  0  0  0  0
   28.3165  -28.8492  -39.5449 H   0  0  0  0  0  0  0  0  0  0  0  0
   31.7476  -32.4355  -41.1503 H   0  0  0  0  0  0  0  0  0  0  0  0
   38.1713  -26.7746  -41.2045 O   0  0  0  0  0  0  0  0  0  0  0  0
   39.5551  -26.2511  -41.2138 C   0  0  0  0  0  0  0  0  0  0  0  0
   28.3120  -31.3272  -38.5800 C   0  0  0  0  0  0  0  0  0  0  0  0
   28.5404  -32.6289  -38.1020 O   0  0  0  0  0  0  0  0  0  0  0  0
   26.9223  -30.9162  -38.8616 C   0  0  0  0  0  0  0  0  0  0  0  0
   26.6420  -29.5694  -38.4868 O   0  0  0  0  0  0  0  0  0  0  0  0
   26.7600  -29.4690  -37.5293 H   0  0  0  0  0  0  0  0  0  0  0  0
   30.7412  -27.5413  -38.6658 O   0  0  0  0  0  0  0  0  0  0  0  0
   29.7036  -26.6778  -38.1962 C   0  0  0  0  0  0  0  0  0  0  0  0
   30.1729  -26.1214  -36.7812 C   0  0  0  0  0  0  0  0  0  0  0  0
   31.4988  -25.3101  -37.0588 C   0  0  0  0  0  0  0  0  0  0  0  0
   32.0084  -24.7248  -35.7259 N   0  0  0  0  0  0  0  0  0  0  0  0
   31.2415  -24.1823  -38.0717 C   0  0  0  0  0  0  0  0  0  0  0  0
   30.1928  -23.3348  -37.4224 O   0  0  0  0  0  0  0  0  0  0  0  0
   30.7711  -24.7559  -39.4226 C   0  0  0  0  0  0  0  0  0  0  0  0
   29.4974  -25.5722  -39.1912 O   0  0  0  0  0  0  0  0  0  0  0  0
   30.4668  -23.6553  -40.4784 C   0  0  0  0  0  0  0  0  0  0  0  0
   31.3006  -24.1030  -35.3350 H   0  0  0  0  0  0  0  0  0  0  0  0
   32.8676  -24.2006  -35.8912 H   0  0  0  0  0  0  0  0  0  0  0  0
   29.4117  -23.8771  -37.2310 H   0  0  0  0  0  0  0  0  0  0  0  0
  1  2  2  0  0  0
  1 23  1  0  0  0
  2  3  1  0  0  0
  3  4  2  0  0  0
  4 27  1  0  0  0
  4  5  1  0  0  0
 27 28  1  0  0  0
  5  6  1  0  0  0
  5 23  2  0  0  0
  6  7  2  0  0  0
  6  8  1  0  0  0
  8  9  2  0  0  0
  8 20  1  0  0  0
  9 10  1  0  0  0
  9 11  1  0  0  0
 11 12  1  0  0  0
 11 17  2  0  0  0
 12 34  1  0  0  0
 12 13  1  0  0  0
 34 35  1  0  0  0
 13 14  1  0  0  0
 14 15  1  0  0  0
 14 29  1  0  0  0
 14 16  1  0  0  0
 29 30  2  0  0  0
 29 31  1  0  0  0
 31 32  1  0  0  0
 16 17  1  0  0  0
 17 18  1  0  0  0
 18 19  1  0  0  0
 18 20  2  0  0  0
 20 21  1  0  0  0
 21 22  2  0  0  0
 21 23  1  0  0  0
 35 36  1  0  0  0
 35 42  1  0  0  0
 36 37  1  0  0  0
 37 38  1  0  0  0
 37 39  1  0  0  0
 39 40  1  0  0  0
 39 41  1  0  0  0
 41 42  1  0  0  0
 41 43  1  0  0  0
 10 24  1  0  0  0
 15 25  1  0  0  0
 32 33  1  0  0  0
 19 26  1  0  0  0
 38 44  1  0  0  0
 38 45  1  0  0  0
 40 46  1  0  0  0
M  END
> <minimizedAffinity>
-7.02247

$$$$
