1I1E_DM2_A_3001
  RCSB PDB12061702473D
Coordinates from PDB:1I1E:A:3001 Model:1 without hydrogens
 39 43  0  0  0  0            999 V2000
   32.6390  -37.7100  -36.4450   C 0  0  0  0  0  0  0  0  0  0  0  0
   33.9650  -38.2260  -36.2490   C 0  0  0  0  0  0  0  0  0  0  0  0
   35.0940  -37.3320  -36.3490   C 0  0  0  0  0  0  0  0  0  0  0  0
   34.9040  -35.9160  -36.6400   C 0  0  0  0  0  0  0  0  0  0  0  0
   36.0240  -35.0590  -36.7340   O 0  0  0  0  0  0  0  0  0  0  0  0
   33.5580  -35.3900  -36.8440   C 0  0  0  0  0  0  0  0  0  0  0  0
   33.2970  -33.9790  -37.1450   C 0  0  0  0  0  0  0  0  0  0  0  0
   34.3500  -33.0910  -37.2450   O 0  0  0  0  0  0  0  0  0  0  0  0
   31.9480  -33.4320  -37.3650   C 0  0  0  0  0  0  0  0  0  0  0  0
   31.6510  -32.0160  -37.6730   C 0  0  0  0  0  0  0  0  0  0  0  0
   32.6150  -31.0140  -37.8060   O 0  0  0  0  0  0  0  0  0  0  0  0
   30.2660  -31.5910  -37.8690   C 0  0  0  0  0  0  0  0  0  0  0  0
   30.0050  -30.1160  -38.1860   C 0  0  0  0  0  0  0  0  0  0  0  0
   30.5500  -30.1210  -39.5430   O 0  0  0  0  0  0  0  0  0  0  0  0
   28.5230  -29.5880  -38.0720   C 0  0  0  0  0  0  0  0  0  0  0  0
   27.6410  -30.6840  -38.8450   C 0  0  0  0  0  0  0  0  0  0  0  0
   28.0110  -31.0840  -40.2110   O 0  0  0  0  0  0  0  0  0  0  0  0
   26.1070  -30.3860  -38.8870   C 0  0  0  0  0  0  0  0  0  0  0  0
   25.3170  -30.7210  -40.0000   O 0  0  0  0  0  0  0  0  0  0  0  0
   25.4500  -29.7610  -37.7220   C 0  0  0  0  0  0  0  0  0  0  0  0
   24.0460  -29.5800  -37.8920   O 0  0  0  0  0  0  0  0  0  0  0  0
   27.7750  -32.0170  -37.9870   C 0  0  0  0  0  0  0  0  0  0  0  0
   29.2010  -32.4930  -37.7760   C 0  0  0  0  0  0  0  0  0  0  0  0
   29.4750  -33.8720  -37.4740   C 0  0  0  0  0  0  0  0  0  0  0  0
   28.3890  -34.7000  -37.3910   O 0  0  0  0  0  0  0  0  0  0  0  0
   30.8310  -34.3710  -37.2610   C 0  0  0  0  0  0  0  0  0  0  0  0
   31.0860  -35.7960  -36.9480   C 0  0  0  0  0  0  0  0  0  0  0  0
   30.0390  -36.6260  -36.8620   O 0  0  0  0  0  0  0  0  0  0  0  0
   32.4300  -36.2800  -36.7460   C 0  0  0  0  0  0  0  0  0  0  0  0
   37.3960  -35.5770  -36.5380   C 0  0  0  0  0  0  0  0  0  0  0  0
   31.4710  -29.1430  -40.0310   C 0  0  0  0  0  0  0  0  0  0  0  0
   32.3720  -29.8650  -41.1260   C 0  0  0  0  0  0  0  0  0  0  0  0
   31.3780  -30.3210  -42.2650   C 0  0  0  0  0  0  0  0  0  0  0  0
   32.1870  -31.0210  -43.3760   N 0  0  0  0  0  0  0  0  0  0  0  0
   30.6210  -29.1120  -42.8390   C 0  0  0  0  0  0  0  0  0  0  0  0
   31.6990  -28.2160  -43.3630   O 0  0  0  0  0  0  0  0  0  0  0  0
   29.7750  -28.4270  -41.7480   C 0  0  0  0  0  0  0  0  0  0  0  0
   30.7020  -27.9910  -40.6110   O 0  0  0  0  0  0  0  0  0  0  0  0
   29.0090  -27.1770  -42.2670   C 0  0  0  0  0  0  0  0  0  0  0  0
  1  2  2  0  0  0  0
  1 29  1  0  0  0  0
  2  3  1  0  0  0  0
  3  4  2  0  0  0  0
  4  5  1  0  0  0  0
  4  6  1  0  0  0  0
  5 30  1  0  0  0  0
  6  7  1  0  0  0  0
  6 29  2  0  0  0  0
  7  8  2  0  0  0  0
  7  9  1  0  0  0  0
  9 10  2  0  0  0  0
  9 26  1  0  0  0  0
 10 11  1  0  0  0  0
 10 12  1  0  0  0  0
 12 13  1  0  0  0  0
 12 23  2  0  0  0  0
 13 14  1  0  0  0  0
 13 15  1  0  0  0  0
 14 31  1  0  0  0  0
 15 16  1  0  0  0  0
 16 17  1  0  0  0  0
 16 18  1  0  0  0  0
 16 22  1  0  0  0  0
 18 19  2  0  0  0  0
 18 20  1  0  0  0  0
 20 21  1  0  0  0  0
 22 23  1  0  0  0  0
 23 24  1  0  0  0  0
 24 25  1  0  0  0  0
 24 26  2  0  0  0  0
 26 27  1  0  0  0  0
 27 28  2  0  0  0  0
 27 29  1  0  0  0  0
 31 32  1  0  0  0  0
 31 38  1  0  0  0  0
 32 33  1  0  0  0  0
 33 34  1  0  0  0  0
 33 35  1  0  0  0  0
 35 36  1  0  0  0  0
 35 37  1  0  0  0  0
 37 38  1  0  0  0  0
 37 39  1  0  0  0  0
A    1
C1
A    2
C2
A    3
C3
A    4
C4
A    5
O4
A    6
C5
A    7
C6
A    8
O6
A    9
C7
A   10
C8
A   11
O8
A   12
C9
A   13
C10
A   14
O10
A   15
C11
A   16
C12
A   17
O12
A   18
C13
A   19
O13
A   20
C14
A   21
O14
A   22
C15
A   23
C16
A   24
C17
A   25
O17
A   26
C18
A   27
C19
A   28
O19
A   29
C20
A   30
C21
A   31
C1'
A   32
C2'
A   33
C3'
A   34
N3'
A   35
C4'
A   36
O4'
A   37
C5'
A   38
O5'
A   39
C6'
M  END
>  <InstanceId>
1I1E_DM2_A_3001

>  <ChemCompId>
DM2

>  <PdbId>
1I1E

>  <ChainId>
A

>  <ResidueNumber>
3001

>  <InsertionCode>


>  <Model>
1

>  <AltIds>


>  <MissingHeavyAtoms>
0

>  <ObservedFormula>
C27 N O11

>  <Name>
DOXORUBICIN

>  <SystematicName>
(7S,9S)-7-[(2R,4S,5S,6S)-4-amino-5-hydroxy-6-methyl-oxan-2-yl]oxy-6,9,11-trihydroxy-9-(2-hydroxyethanoyl)-4-methoxy-8,10-dihydro-7H-tetracene-5,12-dione

>  <Synonyms>
ADRIAMYCIN

>  <Type>
NON-POLYMER

>  <Formula>
C27 H29 N O11

>  <MolecularWeight>
543.519

>  <ModifiedDate>
2011-06-04

>  <Parent>


>  <OneLetterCode>


>  <SubcomponentList>


>  <AmbiguousFlag>
N

>  <InChI>
InChI=1S/C27H29NO11/c1-10-22(31)13(28)6-17(38-10)39-15-8-27(36,16(30)9-29)7-12-19(15)26(35)21-20(24(12)33)23(32)11-4-3-5-14(37-2)18(11)25(21)34/h3-5,10,13,15,17,22,29,31,33,35-36H,6-9,28H2,1-2H3/t10-,13-,15-,17-,22+,27-/m0/s1

>  <InChIKey>
AOJJSUZBOXZQNB-TZSSRYMLSA-N

>  <SMILES>
C[C@H]1[C@H]([C@H](C[C@@H](O1)O[C@H]2C[C@@](Cc3c2c(c4c(c3O)C(=O)c5cccc(c5C4=O)OC)O)(C(=O)CO)O)N)O

$$$$
