5NW0_9BK_C_301


 43 46  0  0  0  0  0  0  0  0999 V2000
   12.5145   54.4310   93.0935 C   0  0  0  0  0  0  0  0  0  0  0  0
   11.3401   54.1196   92.9076 O   0  0  0  0  0  0  0  0  0  0  0  0
   13.3259   54.7858   92.0628 N   0  0  0  0  0  0  0  0  0  0  0  0
   14.7681   55.2323   92.0711 C   0  0  0  0  0  0  0  0  0  0  0  0
   14.9544   56.0193   90.7758 C   0  0  0  0  0  0  0  0  0  0  0  0
   14.5710   57.3829   90.9752 O   0  0  0  0  0  0  0  0  0  0  0  0
   14.0129   55.3566   89.7995 C   0  0  0  0  0  0  0  0  0  0  0  0
   12.8168   54.8569   90.6390 C   0  0  0  0  0  0  0  0  0  0  0  0
   13.6527   57.4185   91.2858 H   0  0  0  0  0  0  0  0  0  0  0  0
   12.3826   53.6231   90.1120 C   0  0  0  0  0  0  0  0  0  0  0  0
   12.7899   52.5664   90.5780 O   0  0  0  0  0  0  0  0  0  0  0  0
   11.5661   53.6993   89.0302 N   0  0  0  0  0  0  0  0  0  0  0  0
   11.2915   54.5934   88.7230 H   0  0  0  0  0  0  0  0  0  0  0  0
   11.0614   52.5241   88.2814 C   0  0  0  0  0  0  0  0  0  0  0  0
   11.8065   52.2828   87.0807 C   0  0  0  0  0  0  0  0  0  0  0  0
   12.3455   53.3560   86.3673 C   0  0  0  0  0  0  0  0  0  0  0  0
   13.0787   53.1511   85.1929 C   0  0  0  0  0  0  0  0  0  0  0  0
   12.0270   50.9986   86.5752 C   0  0  0  0  0  0  0  0  0  0  0  0
   12.7613   50.7938   85.3932 C   0  0  0  0  0  0  0  0  0  0  0  0
   13.3077   51.8604   84.6888 C   0  0  0  0  0  0  0  0  0  0  0  0
   14.0135   51.6402   83.5571 C   0  0  0  0  0  0  0  0  0  0  0  0
   13.5362   50.6330   82.2656 S   0  0  0  0  0  0  0  0  0  0  0  0
   14.8854   50.9267   81.3381 C   0  0  0  0  0  0  0  0  0  0  0  0
   15.6800   51.7674   82.0056 N   0  0  0  0  0  0  0  0  0  0  0  0
   15.2135   52.1567   83.2124 C   0  0  0  0  0  0  0  0  0  0  0  0
   16.0473   53.1289   84.0692 C   0  0  0  0  0  0  0  0  0  0  0  0
   13.1041   54.4274   94.5532 C   0  0  0  0  0  0  0  0  0  0  0  0
   12.1517   56.2796   95.9437 C   0  0  0  0  0  0  0  0  0  0  0  0
   13.0849   57.0565   95.7625 O   0  0  0  0  0  0  0  0  0  0  0  0
   12.0938   55.0354   95.4366 N   0  0  0  0  0  0  0  0  0  0  0  0
   11.3125   54.4860   95.6751 H   0  0  0  0  0  0  0  0  0  0  0  0
   10.9656   56.7028   96.8616 C   0  0  0  0  0  0  0  0  0  0  0  0
   10.2152   57.9654   96.5115 C   0  0  0  0  0  0  0  0  0  0  0  0
    9.5532   56.6163   96.3223 C   0  0  0  0  0  0  0  0  0  0  0  0
   11.4138   55.2919  100.3958 C   0  0  0  0  0  0  0  0  0  0  0  0
   11.2039   55.3145   98.8785 C   0  0  0  0  0  0  0  0  0  0  0  0
   11.0356   54.2680   98.2623 O   0  0  0  0  0  0  0  0  0  0  0  0
   11.1824   56.5347   98.3051 N   0  0  0  0  0  0  0  0  0  0  0  0
   11.3151   57.3320   98.8671 H   0  0  0  0  0  0  0  0  0  0  0  0
   13.4433   52.9941   95.0697 C   0  0  0  0  0  0  0  0  0  0  0  0
   14.2753   52.1913   94.0543 C   0  0  0  0  0  0  0  0  0  0  0  0
   12.1646   52.1891   95.4039 C   0  0  0  0  0  0  0  0  0  0  0  0
   14.2882   53.1133   96.3524 C   0  0  0  0  0  0  0  0  0  0  0  0
 24 23  2  0  0  0
 24 25  1  0  0  0
 23 22  1  0  0  0
 26 25  1  0  0  0
 25 21  2  0  0  0
 22 21  1  0  0  0
 21 20  1  0  0  0
 20 17  2  0  0  0
 20 19  1  0  0  0
 17 16  1  0  0  0
 19 18  2  0  0  0
 16 15  2  0  0  0
 18 15  1  0  0  0
 15 14  1  0  0  0
 14 12  1  0  0  0
 12 10  1  0  0  0
  7  8  1  0  0  0
  7  5  1  0  0  0
 10 11  2  0  0  0
 10  8  1  0  0  0
  8  3  1  0  0  0
  5  6  1  0  0  0
  5  4  1  0  0  0
  3  4  1  0  0  0
  3  1  1  0  0  0
  2  1  2  0  0  0
  1 27  1  0  0  0
 41 40  1  0  0  0
 27 40  1  0  0  0
 27 30  1  0  0  0
 40 42  1  0  0  0
 40 43  1  0  0  0
 30 28  1  0  0  0
 28 29  2  0  0  0
 28 32  1  0  0  0
 34 32  1  0  0  0
 34 33  1  0  0  0
 32 38  1  0  0  0
 32 33  1  0  0  0
 38 36  1  0  0  0
 35 36  1  0  0  0
 36 37  2  0  0  0
 38 39  1  0  0  0
 30 31  1  0  0  0
  6  9  1  0  0  0
 12 13  1  0  0  0
M  END
> <minimizedAffinity>
-8.97341

$$$$
5NW0_9BK_C_301


 43 46  0  0  0  0  0  0  0  0999 V2000
   12.3141   54.5341   92.9873 C   0  0  0  0  0  0  0  0  0  0  0  0
   11.1577   54.2324   92.7000 O   0  0  0  0  0  0  0  0  0  0  0  0
   13.2284   54.8332   92.0275 N   0  0  0  0  0  0  0  0  0  0  0  0
   14.6710   55.2585   92.1590 C   0  0  0  0  0  0  0  0  0  0  0  0
   14.9971   55.9875   90.8574 C   0  0  0  0  0  0  0  0  0  0  0  0
   14.6217   57.3637   90.9629 O   0  0  0  0  0  0  0  0  0  0  0  0
   14.1429   55.2982   89.8211 C   0  0  0  0  0  0  0  0  0  0  0  0
   12.8616   54.8518   90.5589 C   0  0  0  0  0  0  0  0  0  0  0  0
   13.6784   57.4258   91.1804 H   0  0  0  0  0  0  0  0  0  0  0  0
   12.4578   53.6034   90.0423 C   0  0  0  0  0  0  0  0  0  0  0  0
   12.8024   52.5612   90.5853 O   0  0  0  0  0  0  0  0  0  0  0  0
   11.7467   53.6463   88.8868 N   0  0  0  0  0  0  0  0  0  0  0  0
   11.5167   54.5307   88.5205 H   0  0  0  0  0  0  0  0  0  0  0  0
   11.2942   52.4484   88.1406 C   0  0  0  0  0  0  0  0  0  0  0  0
   12.0370   52.2479   86.9310 C   0  0  0  0  0  0  0  0  0  0  0  0
   12.6883   53.3256   86.3263 C   0  0  0  0  0  0  0  0  0  0  0  0
   13.4222   53.1599   85.1462 C   0  0  0  0  0  0  0  0  0  0  0  0
   12.1462   51.0001   86.3111 C   0  0  0  0  0  0  0  0  0  0  0  0
   12.8813   50.8351   85.1234 C   0  0  0  0  0  0  0  0  0  0  0  0
   13.5392   51.9046   84.5271 C   0  0  0  0  0  0  0  0  0  0  0  0
   14.2436   51.7226   83.3877 C   0  0  0  0  0  0  0  0  0  0  0  0
   13.7460   50.7923   82.0471 S   0  0  0  0  0  0  0  0  0  0  0  0
   15.1057   51.0970   81.1386 C   0  0  0  0  0  0  0  0  0  0  0  0
   15.9185   51.8837   81.8486 N   0  0  0  0  0  0  0  0  0  0  0  0
   15.4574   52.2249   83.0719 C   0  0  0  0  0  0  0  0  0  0  0  0
   16.3120   53.1327   83.9775 C   0  0  0  0  0  0  0  0  0  0  0  0
   12.7587   54.5834   94.4967 C   0  0  0  0  0  0  0  0  0  0  0  0
   11.5021   56.2298   95.9042 C   0  0  0  0  0  0  0  0  0  0  0  0
   12.3952   57.0719   95.9284 O   0  0  0  0  0  0  0  0  0  0  0  0
   11.5991   55.0418   95.2815 N   0  0  0  0  0  0  0  0  0  0  0  0
   10.8328   54.4284   95.3562 H   0  0  0  0  0  0  0  0  0  0  0  0
   10.1769   56.4915   96.6813 C   0  0  0  0  0  0  0  0  0  0  0  0
   10.2155   57.4568   97.8416 C   0  0  0  0  0  0  0  0  0  0  0  0
    9.5095   57.8453   96.5591 C   0  0  0  0  0  0  0  0  0  0  0  0
    7.7262   53.5615   96.3782 C   0  0  0  0  0  0  0  0  0  0  0  0
    8.5661   54.7748   95.9668 C   0  0  0  0  0  0  0  0  0  0  0  0
    8.4879   55.2230   94.8283 O   0  0  0  0  0  0  0  0  0  0  0  0
    9.3391   55.3108   96.9327 N   0  0  0  0  0  0  0  0  0  0  0  0
    9.3423   54.9013   97.8280 H   0  0  0  0  0  0  0  0  0  0  0  0
   13.2309   53.1977   95.0382 C   0  0  0  0  0  0  0  0  0  0  0  0
   14.1390   53.3341   96.2729 C   0  0  0  0  0  0  0  0  0  0  0  0
   13.9882   52.3892   93.9576 C   0  0  0  0  0  0  0  0  0  0  0  0
   11.9963   52.3852   95.4728 C   0  0  0  0  0  0  0  0  0  0  0  0
 24 23  2  0  0  0
 24 25  1  0  0  0
 23 22  1  0  0  0
 26 25  1  0  0  0
 25 21  2  0  0  0
 22 21  1  0  0  0
 21 20  1  0  0  0
 20 17  2  0  0  0
 20 19  1  0  0  0
 17 16  1  0  0  0
 19 18  2  0  0  0
 16 15  2  0  0  0
 18 15  1  0  0  0
 15 14  1  0  0  0
 14 12  1  0  0  0
 12 10  1  0  0  0
  7  8  1  0  0  0
  7  5  1  0  0  0
 10 11  2  0  0  0
 10  8  1  0  0  0
  8  3  1  0  0  0
  5  6  1  0  0  0
  5  4  1  0  0  0
  3  4  1  0  0  0
  3  1  1  0  0  0
  2  1  2  0  0  0
  1 27  1  0  0  0
 41 40  1  0  0  0
 27 40  1  0  0  0
 27 30  1  0  0  0
 40 42  1  0  0  0
 40 43  1  0  0  0
 30 28  1  0  0  0
 28 29  2  0  0  0
 28 32  1  0  0  0
 34 32  1  0  0  0
 34 33  1  0  0  0
 32 38  1  0  0  0
 32 33  1  0  0  0
 38 36  1  0  0  0
 35 36  1  0  0  0
 36 37  2  0  0  0
 38 39  1  0  0  0
 30 31  1  0  0  0
  6  9  1  0  0  0
 12 13  1  0  0  0
M  END
> <minimizedAffinity>
-8.91217

$$$$
5NW0_9BK_C_301


 43 46  0  0  0  0  0  0  0  0999 V2000
   11.6816   54.2151   92.9813 C   0  0  0  0  0  0  0  0  0  0  0  0
   10.5027   54.3825   92.6765 O   0  0  0  0  0  0  0  0  0  0  0  0
   12.6834   54.4423   92.0918 N   0  0  0  0  0  0  0  0  0  0  0  0
   14.1794   54.3363   92.2655 C   0  0  0  0  0  0  0  0  0  0  0  0
   14.7760   55.2310   91.1813 C   0  0  0  0  0  0  0  0  0  0  0  0
   14.8554   56.5794   91.6521 O   0  0  0  0  0  0  0  0  0  0  0  0
   13.7912   55.1404   90.0409 C   0  0  0  0  0  0  0  0  0  0  0  0
   12.4044   54.9528   90.6942 C   0  0  0  0  0  0  0  0  0  0  0  0
   13.9730   56.8813   91.9187 H   0  0  0  0  0  0  0  0  0  0  0  0
   11.6455   54.0751   89.8928 C   0  0  0  0  0  0  0  0  0  0  0  0
   10.4262   54.1753   89.8379 O   0  0  0  0  0  0  0  0  0  0  0  0
   12.3450   53.0920   89.2709 N   0  0  0  0  0  0  0  0  0  0  0  0
   13.3241   53.0882   89.3735 H   0  0  0  0  0  0  0  0  0  0  0  0
   11.7306   52.0239   88.4473 C   0  0  0  0  0  0  0  0  0  0  0  0
   12.3092   51.9454   87.1380 C   0  0  0  0  0  0  0  0  0  0  0  0
   12.4467   50.7054   86.5099 C   0  0  0  0  0  0  0  0  0  0  0  0
   13.0062   50.5980   85.2316 C   0  0  0  0  0  0  0  0  0  0  0  0
   12.7531   53.0726   86.4410 C   0  0  0  0  0  0  0  0  0  0  0  0
   13.3183   52.9634   85.1576 C   0  0  0  0  0  0  0  0  0  0  0  0
   13.4450   51.7311   84.5270 C   0  0  0  0  0  0  0  0  0  0  0  0
   13.9875   51.6498   83.2915 C   0  0  0  0  0  0  0  0  0  0  0  0
   15.6343   51.8790   82.9097 S   0  0  0  0  0  0  0  0  0  0  0  0
   15.4517   51.6015   81.2798 C   0  0  0  0  0  0  0  0  0  0  0  0
   14.1630   51.3478   81.0379 N   0  0  0  0  0  0  0  0  0  0  0  0
   13.3620   51.3750   82.1258 C   0  0  0  0  0  0  0  0  0  0  0  0
   11.8556   51.0936   81.9645 C   0  0  0  0  0  0  0  0  0  0  0  0
   12.0543   53.7312   94.4323 C   0  0  0  0  0  0  0  0  0  0  0  0
   12.4194   55.8152   95.7719 C   0  0  0  0  0  0  0  0  0  0  0  0
   13.5904   55.9687   95.4366 O   0  0  0  0  0  0  0  0  0  0  0  0
   11.6447   54.7928   95.3682 N   0  0  0  0  0  0  0  0  0  0  0  0
   10.7290   54.7502   95.7275 H   0  0  0  0  0  0  0  0  0  0  0  0
   11.7688   56.8156   96.7742 C   0  0  0  0  0  0  0  0  0  0  0  0
   11.8336   58.2882   96.4470 C   0  0  0  0  0  0  0  0  0  0  0  0
   10.5118   57.5533   96.3631 C   0  0  0  0  0  0  0  0  0  0  0  0
   11.6991   55.2975  100.2917 C   0  0  0  0  0  0  0  0  0  0  0  0
   11.4073   55.4628   98.7969 C   0  0  0  0  0  0  0  0  0  0  0  0
   10.6630   54.6763   98.2220 O   0  0  0  0  0  0  0  0  0  0  0  0
   11.9836   56.5246   98.1983 N   0  0  0  0  0  0  0  0  0  0  0  0
   12.5622   57.1194   98.7282 H   0  0  0  0  0  0  0  0  0  0  0  0
   11.3499   52.3959   94.8289 C   0  0  0  0  0  0  0  0  0  0  0  0
    9.8740   52.6072   95.2094 C   0  0  0  0  0  0  0  0  0  0  0  0
   12.0676   51.6995   96.0098 C   0  0  0  0  0  0  0  0  0  0  0  0
   11.3726   51.4419   93.6194 C   0  0  0  0  0  0  0  0  0  0  0  0
 24 23  2  0  0  0
 24 25  1  0  0  0
 23 22  1  0  0  0
 26 25  1  0  0  0
 25 21  2  0  0  0
 22 21  1  0  0  0
 21 20  1  0  0  0
 20 17  2  0  0  0
 20 19  1  0  0  0
 17 16  1  0  0  0
 19 18  2  0  0  0
 16 15  2  0  0  0
 18 15  1  0  0  0
 15 14  1  0  0  0
 14 12  1  0  0  0
 12 10  1  0  0  0
  7  8  1  0  0  0
  7  5  1  0  0  0
 10 11  2  0  0  0
 10  8  1  0  0  0
  8  3  1  0  0  0
  5  6  1  0  0  0
  5  4  1  0  0  0
  3  4  1  0  0  0
  3  1  1  0  0  0
  2  1  2  0  0  0
  1 27  1  0  0  0
 41 40  1  0  0  0
 27 40  1  0  0  0
 27 30  1  0  0  0
 40 42  1  0  0  0
 40 43  1  0  0  0
 30 28  1  0  0  0
 28 29  2  0  0  0
 28 32  1  0  0  0
 34 32  1  0  0  0
 34 33  1  0  0  0
 32 38  1  0  0  0
 32 33  1  0  0  0
 38 36  1  0  0  0
 35 36  1  0  0  0
 36 37  2  0  0  0
 38 39  1  0  0  0
 30 31  1  0  0  0
  6  9  1  0  0  0
 12 13  1  0  0  0
M  END
> <minimizedAffinity>
-7.66549

$$$$
5NW0_9BK_C_301


 43 46  0  0  0  0  0  0  0  0999 V2000
   12.2135   54.5401   93.4319 C   0  0  0  0  0  0  0  0  0  0  0  0
   11.0258   54.2622   93.2805 O   0  0  0  0  0  0  0  0  0  0  0  0
   13.0288   54.7715   92.3696 N   0  0  0  0  0  0  0  0  0  0  0  0
   14.4878   55.1575   92.3308 C   0  0  0  0  0  0  0  0  0  0  0  0
   14.6934   55.8221   90.9714 C   0  0  0  0  0  0  0  0  0  0  0  0
   14.3672   57.2124   91.0548 O   0  0  0  0  0  0  0  0  0  0  0  0
   13.7167   55.1173   90.0614 C   0  0  0  0  0  0  0  0  0  0  0  0
   12.5094   54.7409   90.9480 C   0  0  0  0  0  0  0  0  0  0  0  0
   13.4541   57.3121   91.3667 H   0  0  0  0  0  0  0  0  0  0  0  0
   12.0209   53.4853   90.5319 C   0  0  0  0  0  0  0  0  0  0  0  0
   12.7887   52.5554   90.3182 O   0  0  0  0  0  0  0  0  0  0  0  0
   10.6824   53.4159   90.3168 N   0  0  0  0  0  0  0  0  0  0  0  0
   10.1425   54.2153   90.5138 H   0  0  0  0  0  0  0  0  0  0  0  0
    9.9807   52.2150   89.8047 C   0  0  0  0  0  0  0  0  0  0  0  0
    9.7206   52.2956   88.3972 C   0  0  0  0  0  0  0  0  0  0  0  0
   10.0558   53.4535   87.6916 C   0  0  0  0  0  0  0  0  0  0  0  0
    9.8154   53.5604   86.3171 C   0  0  0  0  0  0  0  0  0  0  0  0
    9.1352   51.2502   87.6775 C   0  0  0  0  0  0  0  0  0  0  0  0
    8.8910   51.3597   86.2966 C   0  0  0  0  0  0  0  0  0  0  0  0
    9.2347   52.5072   85.5915 C   0  0  0  0  0  0  0  0  0  0  0  0
    8.9946   52.5893   84.2637 C   0  0  0  0  0  0  0  0  0  0  0  0
    7.5053   53.0084   83.5449 S   0  0  0  0  0  0  0  0  0  0  0  0
    8.0548   52.8917   81.9793 C   0  0  0  0  0  0  0  0  0  0  0  0
    9.3413   52.5346   82.0104 N   0  0  0  0  0  0  0  0  0  0  0  0
    9.8571   52.3663   83.2479 C   0  0  0  0  0  0  0  0  0  0  0  0
   11.3344   51.9568   83.4036 C   0  0  0  0  0  0  0  0  0  0  0  0
   12.8163   54.6376   94.8829 C   0  0  0  0  0  0  0  0  0  0  0  0
   11.8169   56.5098   96.2123 C   0  0  0  0  0  0  0  0  0  0  0  0
   12.7318   57.3026   96.0080 O   0  0  0  0  0  0  0  0  0  0  0  0
   11.7897   55.2491   95.7449 N   0  0  0  0  0  0  0  0  0  0  0  0
   11.0211   54.6891   95.9995 H   0  0  0  0  0  0  0  0  0  0  0  0
   10.6189   56.9336   97.1143 C   0  0  0  0  0  0  0  0  0  0  0  0
    9.8656   58.1895   96.7466 C   0  0  0  0  0  0  0  0  0  0  0  0
    9.2128   56.8354   96.5608 C   0  0  0  0  0  0  0  0  0  0  0  0
   11.0261   55.5529  100.6654 C   0  0  0  0  0  0  0  0  0  0  0  0
   10.8305   55.5627   99.1460 C   0  0  0  0  0  0  0  0  0  0  0  0
   10.6622   54.5115   98.5379 O   0  0  0  0  0  0  0  0  0  0  0  0
   10.8212   56.7776   98.5613 N   0  0  0  0  0  0  0  0  0  0  0  0
   10.9531   57.5793   99.1171 H   0  0  0  0  0  0  0  0  0  0  0  0
   13.2198   53.2487   95.4696 C   0  0  0  0  0  0  0  0  0  0  0  0
   11.9950   52.4098   95.8743 C   0  0  0  0  0  0  0  0  0  0  0  0
   14.1447   53.3950   96.7016 C   0  0  0  0  0  0  0  0  0  0  0  0
   13.9763   52.4519   94.3896 C   0  0  0  0  0  0  0  0  0  0  0  0
 24 23  2  0  0  0
 24 25  1  0  0  0
 23 22  1  0  0  0
 26 25  1  0  0  0
 25 21  2  0  0  0
 22 21  1  0  0  0
 21 20  1  0  0  0
 20 17  2  0  0  0
 20 19  1  0  0  0
 17 16  1  0  0  0
 19 18  2  0  0  0
 16 15  2  0  0  0
 18 15  1  0  0  0
 15 14  1  0  0  0
 14 12  1  0  0  0
 12 10  1  0  0  0
  7  8  1  0  0  0
  7  5  1  0  0  0
 10 11  2  0  0  0
 10  8  1  0  0  0
  8  3  1  0  0  0
  5  6  1  0  0  0
  5  4  1  0  0  0
  3  4  1  0  0  0
  3  1  1  0  0  0
  2  1  2  0  0  0
  1 27  1  0  0  0
 41 40  1  0  0  0
 27 40  1  0  0  0
 27 30  1  0  0  0
 40 42  1  0  0  0
 40 43  1  0  0  0
 30 28  1  0  0  0
 28 29  2  0  0  0
 28 32  1  0  0  0
 34 32  1  0  0  0
 34 33  1  0  0  0
 32 38  1  0  0  0
 32 33  1  0  0  0
 38 36  1  0  0  0
 35 36  1  0  0  0
 36 37  2  0  0  0
 38 39  1  0  0  0
 30 31  1  0  0  0
  6  9  1  0  0  0
 12 13  1  0  0  0
M  END
> <minimizedAffinity>
-7.30471

$$$$
5NW0_9BK_C_301


 43 46  0  0  0  0  0  0  0  0999 V2000
   12.3664   54.1513   93.3042 C   0  0  0  0  0  0  0  0  0  0  0  0
   11.1519   53.9628   93.2822 O   0  0  0  0  0  0  0  0  0  0  0  0
   13.0390   54.5718   92.2009 N   0  0  0  0  0  0  0  0  0  0  0  0
   14.5025   54.8955   92.0201 C   0  0  0  0  0  0  0  0  0  0  0  0
   14.5633   55.8283   90.8126 C   0  0  0  0  0  0  0  0  0  0  0  0
   14.3553   57.1803   91.2309 O   0  0  0  0  0  0  0  0  0  0  0  0
   13.4192   55.3779   89.9368 C   0  0  0  0  0  0  0  0  0  0  0  0
   12.3241   54.8704   90.9004 C   0  0  0  0  0  0  0  0  0  0  0  0
   13.5050   57.2488   91.6926 H   0  0  0  0  0  0  0  0  0  0  0  0
   11.6909   53.7556   90.3131 C   0  0  0  0  0  0  0  0  0  0  0  0
   10.4706   53.6522   90.3244 O   0  0  0  0  0  0  0  0  0  0  0  0
   12.5191   52.7989   89.8217 N   0  0  0  0  0  0  0  0  0  0  0  0
   13.4885   52.9669   89.8572 H   0  0  0  0  0  0  0  0  0  0  0  0
   12.0590   51.5179   89.2352 C   0  0  0  0  0  0  0  0  0  0  0  0
   11.9185   51.5911   87.8105 C   0  0  0  0  0  0  0  0  0  0  0  0
   12.3041   52.7487   87.1306 C   0  0  0  0  0  0  0  0  0  0  0  0
   12.1803   52.8484   85.7401 C   0  0  0  0  0  0  0  0  0  0  0  0
   11.4037   50.5386   87.0484 C   0  0  0  0  0  0  0  0  0  0  0  0
   11.2767   50.6408   85.6514 C   0  0  0  0  0  0  0  0  0  0  0  0
   11.6708   51.7881   84.9727 C   0  0  0  0  0  0  0  0  0  0  0  0
   11.5435   51.8633   83.6290 C   0  0  0  0  0  0  0  0  0  0  0  0
   10.1577   52.3948   82.7879 S   0  0  0  0  0  0  0  0  0  0  0  0
   10.8157   52.1986   81.2729 C   0  0  0  0  0  0  0  0  0  0  0  0
   12.0595   51.7322   81.4115 N   0  0  0  0  0  0  0  0  0  0  0  0
   12.4599   51.5455   82.6884 C   0  0  0  0  0  0  0  0  0  0  0  0
   13.8788   51.0129   82.9671 C   0  0  0  0  0  0  0  0  0  0  0  0
   13.1727   53.9082   94.6343 C   0  0  0  0  0  0  0  0  0  0  0  0
   12.1926   55.6105   96.1876 C   0  0  0  0  0  0  0  0  0  0  0  0
   12.8137   56.5639   95.7267 O   0  0  0  0  0  0  0  0  0  0  0  0
   12.3178   54.3443   95.7523 N   0  0  0  0  0  0  0  0  0  0  0  0
   11.7955   53.6522   96.2186 H   0  0  0  0  0  0  0  0  0  0  0  0
   11.2305   55.8298   97.3937 C   0  0  0  0  0  0  0  0  0  0  0  0
   11.1527   54.7471   98.4432 C   0  0  0  0  0  0  0  0  0  0  0  0
   11.8193   56.0678   98.7685 C   0  0  0  0  0  0  0  0  0  0  0  0
    8.3540   58.2357   96.6062 C   0  0  0  0  0  0  0  0  0  0  0  0
    9.7753   57.7548   96.9149 C   0  0  0  0  0  0  0  0  0  0  0  0
   10.6883   58.5638   97.0380 O   0  0  0  0  0  0  0  0  0  0  0  0
    9.9259   56.4241   97.0713 N   0  0  0  0  0  0  0  0  0  0  0  0
    9.1429   55.8365   96.9670 H   0  0  0  0  0  0  0  0  0  0  0  0
   13.5683   52.4127   94.8423 C   0  0  0  0  0  0  0  0  0  0  0  0
   12.3400   51.5089   95.0470 C   0  0  0  0  0  0  0  0  0  0  0  0
   14.5169   52.2350   96.0519 C   0  0  0  0  0  0  0  0  0  0  0  0
   14.2948   51.9091   93.5805 C   0  0  0  0  0  0  0  0  0  0  0  0
 24 23  2  0  0  0
 24 25  1  0  0  0
 23 22  1  0  0  0
 26 25  1  0  0  0
 25 21  2  0  0  0
 22 21  1  0  0  0
 21 20  1  0  0  0
 20 17  2  0  0  0
 20 19  1  0  0  0
 17 16  1  0  0  0
 19 18  2  0  0  0
 16 15  2  0  0  0
 18 15  1  0  0  0
 15 14  1  0  0  0
 14 12  1  0  0  0
 12 10  1  0  0  0
  7  8  1  0  0  0
  7  5  1  0  0  0
 10 11  2  0  0  0
 10  8  1  0  0  0
  8  3  1  0  0  0
  5  6  1  0  0  0
  5  4  1  0  0  0
  3  4  1  0  0  0
  3  1  1  0  0  0
  2  1  2  0  0  0
  1 27  1  0  0  0
 41 40  1  0  0  0
 27 40  1  0  0  0
 27 30  1  0  0  0
 40 42  1  0  0  0
 40 43  1  0  0  0
 30 28  1  0  0  0
 28 29  2  0  0  0
 28 32  1  0  0  0
 34 32  1  0  0  0
 34 33  1  0  0  0
 32 38  1  0  0  0
 32 33  1  0  0  0
 38 36  1  0  0  0
 35 36  1  0  0  0
 36 37  2  0  0  0
 38 39  1  0  0  0
 30 31  1  0  0  0
  6  9  1  0  0  0
 12 13  1  0  0  0
M  END
> <minimizedAffinity>
-7.07418

$$$$
5NW0_9BK_C_301


 43 46  0  0  0  0  0  0  0  0999 V2000
   11.2531   51.8932   91.2966 C   0  0  0  0  0  0  0  0  0  0  0  0
   11.3250   52.5212   90.2425 O   0  0  0  0  0  0  0  0  0  0  0  0
   11.7983   50.6549   91.4231 N   0  0  0  0  0  0  0  0  0  0  0  0
   11.8561   49.7365   92.6200 C   0  0  0  0  0  0  0  0  0  0  0  0
   13.0355   48.8032   92.3560 C   0  0  0  0  0  0  0  0  0  0  0  0
   14.2482   49.4101   92.8112 O   0  0  0  0  0  0  0  0  0  0  0  0
   13.0648   48.6567   90.8538 C   0  0  0  0  0  0  0  0  0  0  0  0
   12.5582   50.0016   90.2884 C   0  0  0  0  0  0  0  0  0  0  0  0
   14.3656   50.2670   92.3720 H   0  0  0  0  0  0  0  0  0  0  0  0
   11.7825   49.7421   89.1396 C   0  0  0  0  0  0  0  0  0  0  0  0
   11.0910   48.7340   89.0671 O   0  0  0  0  0  0  0  0  0  0  0  0
   11.9219   50.6296   88.1220 N   0  0  0  0  0  0  0  0  0  0  0  0
   12.5021   51.4112   88.2692 H   0  0  0  0  0  0  0  0  0  0  0  0
   11.2575   50.4985   86.8037 C   0  0  0  0  0  0  0  0  0  0  0  0
   12.1362   50.8186   85.7172 C   0  0  0  0  0  0  0  0  0  0  0  0
   12.3607   49.8838   84.7038 C   0  0  0  0  0  0  0  0  0  0  0  0
   13.2118   50.1686   83.6299 C   0  0  0  0  0  0  0  0  0  0  0  0
   12.7952   52.0470   85.6170 C   0  0  0  0  0  0  0  0  0  0  0  0
   13.6530   52.3312   84.5391 C   0  0  0  0  0  0  0  0  0  0  0  0
   13.8680   51.4059   83.5242 C   0  0  0  0  0  0  0  0  0  0  0  0
   14.6934   51.7017   82.4953 C   0  0  0  0  0  0  0  0  0  0  0  0
   14.4700   51.2288   80.8715 S   0  0  0  0  0  0  0  0  0  0  0  0
   15.8440   51.9764   80.3059 C   0  0  0  0  0  0  0  0  0  0  0  0
   16.4576   52.5645   81.3361 N   0  0  0  0  0  0  0  0  0  0  0  0
   15.8393   52.4169   82.5284 C   0  0  0  0  0  0  0  0  0  0  0  0
   16.4574   53.0568   83.7866 C   0  0  0  0  0  0  0  0  0  0  0  0
   10.5198   52.5266   92.5373 C   0  0  0  0  0  0  0  0  0  0  0  0
   12.2926   53.6708   93.8860 C   0  0  0  0  0  0  0  0  0  0  0  0
   12.6264   52.6714   94.5162 O   0  0  0  0  0  0  0  0  0  0  0  0
   11.3111   53.6928   92.9670 N   0  0  0  0  0  0  0  0  0  0  0  0
   11.1045   54.5589   92.5470 H   0  0  0  0  0  0  0  0  0  0  0  0
   12.9869   55.0342   94.1819 C   0  0  0  0  0  0  0  0  0  0  0  0
   12.3332   55.9596   95.1799 C   0  0  0  0  0  0  0  0  0  0  0  0
   13.6249   55.2540   95.5376 C   0  0  0  0  0  0  0  0  0  0  0  0
   15.0175   56.0352   91.0904 C   0  0  0  0  0  0  0  0  0  0  0  0
   14.5127   55.1811   92.2577 C   0  0  0  0  0  0  0  0  0  0  0  0
   15.0068   54.0807   92.4771 O   0  0  0  0  0  0  0  0  0  0  0  0
   13.5450   55.7339   93.0165 N   0  0  0  0  0  0  0  0  0  0  0  0
   13.2040   56.6278   92.7842 H   0  0  0  0  0  0  0  0  0  0  0  0
    9.0626   52.9841   92.2154 C   0  0  0  0  0  0  0  0  0  0  0  0
    8.3163   51.9701   91.3308 C   0  0  0  0  0  0  0  0  0  0  0  0
    9.0380   54.3623   91.5122 C   0  0  0  0  0  0  0  0  0  0  0  0
    8.2739   53.1003   93.5337 C   0  0  0  0  0  0  0  0  0  0  0  0
 24 23  2  0  0  0
 24 25  1  0  0  0
 23 22  1  0  0  0
 26 25  1  0  0  0
 25 21  2  0  0  0
 22 21  1  0  0  0
 21 20  1  0  0  0
 20 17  2  0  0  0
 20 19  1  0  0  0
 17 16  1  0  0  0
 19 18  2  0  0  0
 16 15  2  0  0  0
 18 15  1  0  0  0
 15 14  1  0  0  0
 14 12  1  0  0  0
 12 10  1  0  0  0
  7  8  1  0  0  0
  7  5  1  0  0  0
 10 11  2  0  0  0
 10  8  1  0  0  0
  8  3  1  0  0  0
  5  6  1  0  0  0
  5  4  1  0  0  0
  3  4  1  0  0  0
  3  1  1  0  0  0
  2  1  2  0  0  0
  1 27  1  0  0  0
 41 40  1  0  0  0
 27 40  1  0  0  0
 27 30  1  0  0  0
 40 42  1  0  0  0
 40 43  1  0  0  0
 30 28  1  0  0  0
 28 29  2  0  0  0
 28 32  1  0  0  0
 34 32  1  0  0  0
 34 33  1  0  0  0
 32 38  1  0  0  0
 32 33  1  0  0  0
 38 36  1  0  0  0
 35 36  1  0  0  0
 36 37  2  0  0  0
 38 39  1  0  0  0
 30 31  1  0  0  0
  6  9  1  0  0  0
 12 13  1  0  0  0
M  END
> <minimizedAffinity>
-7.03140

$$$$
5NW0_9BK_C_301


 43 46  0  0  0  0  0  0  0  0999 V2000
   10.5149   54.2803   92.0081 C   0  0  0  0  0  0  0  0  0  0  0  0
   10.7271   54.7989   90.9141 O   0  0  0  0  0  0  0  0  0  0  0  0
   11.3798   54.4326   93.0450 N   0  0  0  0  0  0  0  0  0  0  0  0
   11.2965   53.9203   94.4627 C   0  0  0  0  0  0  0  0  0  0  0  0
   12.1949   54.8461   95.2799 C   0  0  0  0  0  0  0  0  0  0  0  0
   11.4571   55.9995   95.6940 O   0  0  0  0  0  0  0  0  0  0  0  0
   13.2857   55.2501   94.3177 C   0  0  0  0  0  0  0  0  0  0  0  0
   12.6268   55.2819   92.9213 C   0  0  0  0  0  0  0  0  0  0  0  0
   11.0957   56.4493   94.9143 H   0  0  0  0  0  0  0  0  0  0  0  0
   13.5602   54.8138   91.9736 C   0  0  0  0  0  0  0  0  0  0  0  0
   14.4155   53.9964   92.2898 O   0  0  0  0  0  0  0  0  0  0  0  0
   13.4871   55.3837   90.7438 N   0  0  0  0  0  0  0  0  0  0  0  0
   12.7666   56.0344   90.5801 H   0  0  0  0  0  0  0  0  0  0  0  0
   14.4213   55.0902   89.6313 C   0  0  0  0  0  0  0  0  0  0  0  0
   13.7544   54.5239   88.4957 C   0  0  0  0  0  0  0  0  0  0  0  0
   12.7092   53.6162   88.6823 C   0  0  0  0  0  0  0  0  0  0  0  0
   12.0385   53.0484   87.5930 C   0  0  0  0  0  0  0  0  0  0  0  0
   14.1041   54.8410   87.1802 C   0  0  0  0  0  0  0  0  0  0  0  0
   13.4317   54.2674   86.0860 C   0  0  0  0  0  0  0  0  0  0  0  0
   12.3839   53.3728   86.2708 C   0  0  0  0  0  0  0  0  0  0  0  0
   11.7489   52.8367   85.2046 C   0  0  0  0  0  0  0  0  0  0  0  0
   10.1858   53.2537   84.6631 S   0  0  0  0  0  0  0  0  0  0  0  0
   10.1862   52.2012   83.3751 C   0  0  0  0  0  0  0  0  0  0  0  0
   11.3497   51.5456   83.3677 N   0  0  0  0  0  0  0  0  0  0  0  0
   12.2018   51.8841   84.3602 C   0  0  0  0  0  0  0  0  0  0  0  0
   13.5761   51.1926   84.4475 C   0  0  0  0  0  0  0  0  0  0  0  0
    9.2142   53.4212   92.2285 C   0  0  0  0  0  0  0  0  0  0  0  0
    7.0431   54.5713   91.7437 C   0  0  0  0  0  0  0  0  0  0  0  0
    6.7182   54.7128   92.9191 O   0  0  0  0  0  0  0  0  0  0  0  0
    8.1729   53.9645   91.3388 N   0  0  0  0  0  0  0  0  0  0  0  0
    8.3159   53.8762   90.3688 H   0  0  0  0  0  0  0  0  0  0  0  0
    6.0848   55.0607   90.6165 C   0  0  0  0  0  0  0  0  0  0  0  0
    6.1294   54.3435   89.2886 C   0  0  0  0  0  0  0  0  0  0  0  0
    4.9303   54.1743   90.1985 C   0  0  0  0  0  0  0  0  0  0  0  0
    6.7089   58.8183   90.2003 C   0  0  0  0  0  0  0  0  0  0  0  0
    7.0063   57.3182   90.2898 C   0  0  0  0  0  0  0  0  0  0  0  0
    8.1605   56.9115   90.2150 O   0  0  0  0  0  0  0  0  0  0  0  0
    5.9399   56.5173   90.4879 N   0  0  0  0  0  0  0  0  0  0  0  0
    5.0426   56.9180   90.5479 H   0  0  0  0  0  0  0  0  0  0  0  0
    9.4230   51.9072   91.9113 C   0  0  0  0  0  0  0  0  0  0  0  0
   10.8681   51.5961   91.4841 C   0  0  0  0  0  0  0  0  0  0  0  0
    8.4650   51.4186   90.7986 C   0  0  0  0  0  0  0  0  0  0  0  0
    9.1419   51.0876   93.1852 C   0  0  0  0  0  0  0  0  0  0  0  0
 24 23  2  0  0  0
 24 25  1  0  0  0
 23 22  1  0  0  0
 26 25  1  0  0  0
 25 21  2  0  0  0
 22 21  1  0  0  0
 21 20  1  0  0  0
 20 17  2  0  0  0
 20 19  1  0  0  0
 17 16  1  0  0  0
 19 18  2  0  0  0
 16 15  2  0  0  0
 18 15  1  0  0  0
 15 14  1  0  0  0
 14 12  1  0  0  0
 12 10  1  0  0  0
  7  8  1  0  0  0
  7  5  1  0  0  0
 10 11  2  0  0  0
 10  8  1  0  0  0
  8  3  1  0  0  0
  5  6  1  0  0  0
  5  4  1  0  0  0
  3  4  1  0  0  0
  3  1  1  0  0  0
  2  1  2  0  0  0
  1 27  1  0  0  0
 41 40  1  0  0  0
 27 40  1  0  0  0
 27 30  1  0  0  0
 40 42  1  0  0  0
 40 43  1  0  0  0
 30 28  1  0  0  0
 28 29  2  0  0  0
 28 32  1  0  0  0
 34 32  1  0  0  0
 34 33  1  0  0  0
 32 38  1  0  0  0
 32 33  1  0  0  0
 38 36  1  0  0  0
 35 36  1  0  0  0
 36 37  2  0  0  0
 38 39  1  0  0  0
 30 31  1  0  0  0
  6  9  1  0  0  0
 12 13  1  0  0  0
M  END
> <minimizedAffinity>
-6.94659

$$$$
5NW0_9BK_C_301


 43 46  0  0  0  0  0  0  0  0999 V2000
    8.9198   53.1843   85.2408 C   0  0  0  0  0  0  0  0  0  0  0  0
    9.8712   53.8045   84.7708 O   0  0  0  0  0  0  0  0  0  0  0  0
    8.7146   53.1097   86.5820 N   0  0  0  0  0  0  0  0  0  0  0  0
    7.6063   52.4416   87.3595 C   0  0  0  0  0  0  0  0  0  0  0  0
    7.5758   53.1525   88.7106 C   0  0  0  0  0  0  0  0  0  0  0  0
    6.7587   54.3236   88.6263 O   0  0  0  0  0  0  0  0  0  0  0  0
    9.0128   53.5434   88.9576 C   0  0  0  0  0  0  0  0  0  0  0  0
    9.6207   53.8199   87.5651 C   0  0  0  0  0  0  0  0  0  0  0  0
    7.0957   54.9032   87.9253 H   0  0  0  0  0  0  0  0  0  0  0  0
   10.9562   53.3671   87.5601 C   0  0  0  0  0  0  0  0  0  0  0  0
   11.2805   52.3702   88.1933 O   0  0  0  0  0  0  0  0  0  0  0  0
   11.8395   54.1455   86.8846 N   0  0  0  0  0  0  0  0  0  0  0  0
   11.4884   54.9307   86.4055 H   0  0  0  0  0  0  0  0  0  0  0  0
   13.2981   53.8904   86.8212 C   0  0  0  0  0  0  0  0  0  0  0  0
   13.6971   53.3221   85.5670 C   0  0  0  0  0  0  0  0  0  0  0  0
   14.9034   53.7093   84.9787 C   0  0  0  0  0  0  0  0  0  0  0  0
   15.3198   53.1705   83.7560 C   0  0  0  0  0  0  0  0  0  0  0  0
   12.9233   52.3779   84.8867 C   0  0  0  0  0  0  0  0  0  0  0  0
   13.3410   51.8393   83.6562 C   0  0  0  0  0  0  0  0  0  0  0  0
   14.5466   52.2155   83.0756 C   0  0  0  0  0  0  0  0  0  0  0  0
   14.9305   51.6820   81.8943 C   0  0  0  0  0  0  0  0  0  0  0  0
   16.2759   52.1756   80.9688 S   0  0  0  0  0  0  0  0  0  0  0  0
   16.0439   51.0594   79.7576 C   0  0  0  0  0  0  0  0  0  0  0  0
   14.9613   50.3357   80.0540 N   0  0  0  0  0  0  0  0  0  0  0  0
   14.3505   50.6705   81.2117 C   0  0  0  0  0  0  0  0  0  0  0  0
   13.0923   49.8992   81.6550 C   0  0  0  0  0  0  0  0  0  0  0  0
    7.9059   52.4589   84.2794 C   0  0  0  0  0  0  0  0  0  0  0  0
    6.5701   53.8048   82.6438 C   0  0  0  0  0  0  0  0  0  0  0  0
    5.4798   53.5656   83.1550 O   0  0  0  0  0  0  0  0  0  0  0  0
    7.7394   53.3135   83.0908 N   0  0  0  0  0  0  0  0  0  0  0  0
    8.5504   53.5436   82.5823 H   0  0  0  0  0  0  0  0  0  0  0  0
    6.6409   54.6831   81.3585 C   0  0  0  0  0  0  0  0  0  0  0  0
    5.3734   55.3578   80.8915 C   0  0  0  0  0  0  0  0  0  0  0  0
    6.4941   56.1848   81.4868 C   0  0  0  0  0  0  0  0  0  0  0  0
    8.0492   52.5648   78.4928 C   0  0  0  0  0  0  0  0  0  0  0  0
    7.0938   53.0252   79.5982 C   0  0  0  0  0  0  0  0  0  0  0  0
    6.0902   52.3711   79.8596 O   0  0  0  0  0  0  0  0  0  0  0  0
    7.4535   54.1439   80.2593 N   0  0  0  0  0  0  0  0  0  0  0  0
    8.2804   54.6107   79.9994 H   0  0  0  0  0  0  0  0  0  0  0  0
    8.3950   51.0456   83.8324 C   0  0  0  0  0  0  0  0  0  0  0  0
    9.4031   50.4382   84.8236 C   0  0  0  0  0  0  0  0  0  0  0  0
    9.0464   51.0832   82.4292 C   0  0  0  0  0  0  0  0  0  0  0  0
    7.1851   50.0935   83.7781 C   0  0  0  0  0  0  0  0  0  0  0  0
 24 23  2  0  0  0
 24 25  1  0  0  0
 23 22  1  0  0  0
 26 25  1  0  0  0
 25 21  2  0  0  0
 22 21  1  0  0  0
 21 20  1  0  0  0
 20 17  2  0  0  0
 20 19  1  0  0  0
 17 16  1  0  0  0
 19 18  2  0  0  0
 16 15  2  0  0  0
 18 15  1  0  0  0
 15 14  1  0  0  0
 14 12  1  0  0  0
 12 10  1  0  0  0
  7  8  1  0  0  0
  7  5  1  0  0  0
 10 11  2  0  0  0
 10  8  1  0  0  0
  8  3  1  0  0  0
  5  6  1  0  0  0
  5  4  1  0  0  0
  3  4  1  0  0  0
  3  1  1  0  0  0
  2  1  2  0  0  0
  1 27  1  0  0  0
 41 40  1  0  0  0
 27 40  1  0  0  0
 27 30  1  0  0  0
 40 42  1  0  0  0
 40 43  1  0  0  0
 30 28  1  0  0  0
 28 29  2  0  0  0
 28 32  1  0  0  0
 34 32  1  0  0  0
 34 33  1  0  0  0
 32 38  1  0  0  0
 32 33  1  0  0  0
 38 36  1  0  0  0
 35 36  1  0  0  0
 36 37  2  0  0  0
 38 39  1  0  0  0
 30 31  1  0  0  0
  6  9  1  0  0  0
 12 13  1  0  0  0
M  END
> <minimizedAffinity>
-6.93423

$$$$
5NW0_9BK_C_301


 43 46  0  0  0  0  0  0  0  0999 V2000
   11.2512   51.9918   86.4986 C   0  0  0  0  0  0  0  0  0  0  0  0
   12.0097   52.9432   86.3241 O   0  0  0  0  0  0  0  0  0  0  0  0
   10.4953   51.8843   87.6228 N   0  0  0  0  0  0  0  0  0  0  0  0
    9.4860   50.8333   88.0178 C   0  0  0  0  0  0  0  0  0  0  0  0
    8.5790   51.5100   89.0432 C   0  0  0  0  0  0  0  0  0  0  0  0
    7.5281   52.2133   88.3746 O   0  0  0  0  0  0  0  0  0  0  0  0
    9.4843   52.4882   89.7520 C   0  0  0  0  0  0  0  0  0  0  0  0
   10.5154   52.9490   88.6986 C   0  0  0  0  0  0  0  0  0  0  0  0
    7.9109   52.8560   87.7572 H   0  0  0  0  0  0  0  0  0  0  0  0
   11.7636   53.1133   89.3340 C   0  0  0  0  0  0  0  0  0  0  0  0
   12.4884   52.1493   89.5466 O   0  0  0  0  0  0  0  0  0  0  0  0
   12.0517   54.3731   89.7496 N   0  0  0  0  0  0  0  0  0  0  0  0
   11.4078   55.0866   89.5362 H   0  0  0  0  0  0  0  0  0  0  0  0
   13.2725   54.7442   90.5035 C   0  0  0  0  0  0  0  0  0  0  0  0
   13.0339   54.8367   91.9141 C   0  0  0  0  0  0  0  0  0  0  0  0
   14.0522   55.2702   92.7663 C   0  0  0  0  0  0  0  0  0  0  0  0
   13.8481   55.3720   94.1471 C   0  0  0  0  0  0  0  0  0  0  0  0
   11.8056   54.5080   92.4943 C   0  0  0  0  0  0  0  0  0  0  0  0
   11.6023   54.6076   93.8825 C   0  0  0  0  0  0  0  0  0  0  0  0
   12.6115   55.0498   94.7300 C   0  0  0  0  0  0  0  0  0  0  0  0
   12.3930   55.1418   96.0609 C   0  0  0  0  0  0  0  0  0  0  0  0
   12.4909   53.8558   97.1775 S   0  0  0  0  0  0  0  0  0  0  0  0
   12.1162   54.7817   98.5077 C   0  0  0  0  0  0  0  0  0  0  0  0
   11.9156   56.0384   98.1026 N   0  0  0  0  0  0  0  0  0  0  0  0
   12.0618   56.2402   96.7746 C   0  0  0  0  0  0  0  0  0  0  0  0
   11.8565   57.6535   96.1960 C   0  0  0  0  0  0  0  0  0  0  0  0
   11.1395   50.8678   85.4021 C   0  0  0  0  0  0  0  0  0  0  0  0
    9.7492   51.2924   83.3629 C   0  0  0  0  0  0  0  0  0  0  0  0
    8.8925   50.4533   83.6260 O   0  0  0  0  0  0  0  0  0  0  0  0
   10.8329   51.5311   84.1227 N   0  0  0  0  0  0  0  0  0  0  0  0
   11.4736   52.2041   83.7974 H   0  0  0  0  0  0  0  0  0  0  0  0
    9.6412   52.1143   82.0434 C   0  0  0  0  0  0  0  0  0  0  0  0
   10.8980   52.3188   81.2319 C   0  0  0  0  0  0  0  0  0  0  0  0
    9.8084   51.4005   80.7183 C   0  0  0  0  0  0  0  0  0  0  0  0
    6.6860   54.5526   81.9793 C   0  0  0  0  0  0  0  0  0  0  0  0
    7.4504   53.2264   81.9178 C   0  0  0  0  0  0  0  0  0  0  0  0
    6.8557   52.1808   81.6808 O   0  0  0  0  0  0  0  0  0  0  0  0
    8.7839   53.3063   82.1007 N   0  0  0  0  0  0  0  0  0  0  0  0
    9.1929   54.1843   82.2770 H   0  0  0  0  0  0  0  0  0  0  0  0
   12.4502   50.0344   85.2482 C   0  0  0  0  0  0  0  0  0  0  0  0
   13.0056   49.5673   86.6051 C   0  0  0  0  0  0  0  0  0  0  0  0
   13.5533   50.8337   84.5140 C   0  0  0  0  0  0  0  0  0  0  0  0
   12.1425   48.7684   84.4260 C   0  0  0  0  0  0  0  0  0  0  0  0
 24 23  2  0  0  0
 24 25  1  0  0  0
 23 22  1  0  0  0
 26 25  1  0  0  0
 25 21  2  0  0  0
 22 21  1  0  0  0
 21 20  1  0  0  0
 20 17  2  0  0  0
 20 19  1  0  0  0
 17 16  1  0  0  0
 19 18  2  0  0  0
 16 15  2  0  0  0
 18 15  1  0  0  0
 15 14  1  0  0  0
 14 12  1  0  0  0
 12 10  1  0  0  0
  7  8  1  0  0  0
  7  5  1  0  0  0
 10 11  2  0  0  0
 10  8  1  0  0  0
  8  3  1  0  0  0
  5  6  1  0  0  0
  5  4  1  0  0  0
  3  4  1  0  0  0
  3  1  1  0  0  0
  2  1  2  0  0  0
  1 27  1  0  0  0
 41 40  1  0  0  0
 27 40  1  0  0  0
 27 30  1  0  0  0
 40 42  1  0  0  0
 40 43  1  0  0  0
 30 28  1  0  0  0
 28 29  2  0  0  0
 28 32  1  0  0  0
 34 32  1  0  0  0
 34 33  1  0  0  0
 32 38  1  0  0  0
 32 33  1  0  0  0
 38 36  1  0  0  0
 35 36  1  0  0  0
 36 37  2  0  0  0
 38 39  1  0  0  0
 30 31  1  0  0  0
  6  9  1  0  0  0
 12 13  1  0  0  0
M  END
> <minimizedAffinity>
-6.60340

$$$$
5NW0_9BK_C_301


 43 46  0  0  0  0  0  0  0  0999 V2000
   12.4249   53.2502   90.1839 C   0  0  0  0  0  0  0  0  0  0  0  0
   12.6883   52.1016   90.5336 O   0  0  0  0  0  0  0  0  0  0  0  0
   12.9206   54.3258   90.8501 N   0  0  0  0  0  0  0  0  0  0  0  0
   12.7557   55.8007   90.5730 C   0  0  0  0  0  0  0  0  0  0  0  0
   13.9484   56.4740   91.2482 C   0  0  0  0  0  0  0  0  0  0  0  0
   15.0730   56.4727   90.3642 O   0  0  0  0  0  0  0  0  0  0  0  0
   14.2355   55.6050   92.4487 C   0  0  0  0  0  0  0  0  0  0  0  0
   13.8556   54.1677   92.0302 C   0  0  0  0  0  0  0  0  0  0  0  0
   15.2780   55.5613   90.1032 H   0  0  0  0  0  0  0  0  0  0  0  0
   13.2870   53.5119   93.1416 C   0  0  0  0  0  0  0  0  0  0  0  0
   12.4099   54.0516   93.8044 O   0  0  0  0  0  0  0  0  0  0  0  0
   13.8287   52.3074   93.4553 N   0  0  0  0  0  0  0  0  0  0  0  0
   14.5325   51.9517   92.8658 H   0  0  0  0  0  0  0  0  0  0  0  0
   13.4297   51.4929   94.6274 C   0  0  0  0  0  0  0  0  0  0  0  0
   14.4555   51.4391   95.6273 C   0  0  0  0  0  0  0  0  0  0  0  0
   15.5714   50.6206   95.4378 C   0  0  0  0  0  0  0  0  0  0  0  0
   16.5893   50.5489   96.3955 C   0  0  0  0  0  0  0  0  0  0  0  0
   14.3954   52.1813   96.8101 C   0  0  0  0  0  0  0  0  0  0  0  0
   15.4174   52.1062   97.7736 C   0  0  0  0  0  0  0  0  0  0  0  0
   16.5337   51.3007   97.5806 C   0  0  0  0  0  0  0  0  0  0  0  0
   17.5061   51.2468   98.5181 C   0  0  0  0  0  0  0  0  0  0  0  0
   18.0967   52.5705   99.4178 S   0  0  0  0  0  0  0  0  0  0  0  0
   19.1937   51.6796  100.2951 C   0  0  0  0  0  0  0  0  0  0  0  0
   19.1117   50.4059   99.9020 N   0  0  0  0  0  0  0  0  0  0  0  0
   18.1990   50.1646   98.9354 C   0  0  0  0  0  0  0  0  0  0  0  0
   18.0169   48.7285   98.4070 C   0  0  0  0  0  0  0  0  0  0  0  0
   11.4974   53.4957   88.9357 C   0  0  0  0  0  0  0  0  0  0  0  0
   12.2489   53.0257   86.5936 C   0  0  0  0  0  0  0  0  0  0  0  0
   12.0795   54.1700   86.1823 O   0  0  0  0  0  0  0  0  0  0  0  0
   11.9829   52.6262   87.8498 N   0  0  0  0  0  0  0  0  0  0  0  0
   12.1241   51.6751   88.0612 H   0  0  0  0  0  0  0  0  0  0  0  0
   12.7480   51.9219   85.6133 C   0  0  0  0  0  0  0  0  0  0  0  0
   12.3157   52.0096   84.1693 C   0  0  0  0  0  0  0  0  0  0  0  0
   13.7560   52.2904   84.5450 C   0  0  0  0  0  0  0  0  0  0  0  0
   11.7463   48.4640   86.9255 C   0  0  0  0  0  0  0  0  0  0  0  0
   11.5977   49.8753   86.3487 C   0  0  0  0  0  0  0  0  0  0  0  0
   10.4841   50.3412   86.1344 O   0  0  0  0  0  0  0  0  0  0  0  0
   12.7462   50.5502   86.1402 N   0  0  0  0  0  0  0  0  0  0  0  0
   13.6042   50.1135   86.3458 H   0  0  0  0  0  0  0  0  0  0  0  0
    9.9965   53.1748   89.2195 C   0  0  0  0  0  0  0  0  0  0  0  0
    9.7378   51.6629   89.3425 C   0  0  0  0  0  0  0  0  0  0  0  0
    9.0715   53.7441   88.1172 C   0  0  0  0  0  0  0  0  0  0  0  0
    9.5957   53.8126   90.5634 C   0  0  0  0  0  0  0  0  0  0  0  0
 24 23  2  0  0  0
 24 25  1  0  0  0
 23 22  1  0  0  0
 26 25  1  0  0  0
 25 21  2  0  0  0
 22 21  1  0  0  0
 21 20  1  0  0  0
 20 17  2  0  0  0
 20 19  1  0  0  0
 17 16  1  0  0  0
 19 18  2  0  0  0
 16 15  2  0  0  0
 18 15  1  0  0  0
 15 14  1  0  0  0
 14 12  1  0  0  0
 12 10  1  0  0  0
  7  8  1  0  0  0
  7  5  1  0  0  0
 10 11  2  0  0  0
 10  8  1  0  0  0
  8  3  1  0  0  0
  5  6  1  0  0  0
  5  4  1  0  0  0
  3  4  1  0  0  0
  3  1  1  0  0  0
  2  1  2  0  0  0
  1 27  1  0  0  0
 41 40  1  0  0  0
 27 40  1  0  0  0
 27 30  1  0  0  0
 40 42  1  0  0  0
 40 43  1  0  0  0
 30 28  1  0  0  0
 28 29  2  0  0  0
 28 32  1  0  0  0
 34 32  1  0  0  0
 34 33  1  0  0  0
 32 38  1  0  0  0
 32 33  1  0  0  0
 38 36  1  0  0  0
 35 36  1  0  0  0
 36 37  2  0  0  0
 38 39  1  0  0  0
 30 31  1  0  0  0
  6  9  1  0  0  0
 12 13  1  0  0  0
M  END
> <minimizedAffinity>
-6.53818

$$$$
