5NW0_9BK_C_301
  RCSB PDB12061719143D
Coordinates from PDB:5NW0:C:301 Model:1 without hydrogens
 39 42  0  0  0  0            999 V2000
    8.2580   53.5360   97.3110   C 0  0  0  0  0  0  0  0  0  0  0  0
    9.4000   54.5570   97.3220   C 0  0  0  0  0  0  0  0  0  0  0  0
   10.4130   54.3440   97.9790   O 0  0  0  0  0  0  0  0  0  0  0  0
    9.2220   55.6480   96.5500   N 0  0  0  0  0  0  0  0  0  0  0  0
   10.2480   56.6950   96.4490   C 0  0  0  0  0  0  0  0  0  0  0  0
   10.3470   57.5580   97.6840   C 0  0  0  0  0  0  0  0  0  0  0  0
    9.8080   58.1430   96.3950   C 0  0  0  0  0  0  0  0  0  0  0  0
   11.5720   56.2810   95.7390   C 0  0  0  0  0  0  0  0  0  0  0  0
   12.5720   56.9820   95.8650   O 0  0  0  0  0  0  0  0  0  0  0  0
   11.5410   55.1230   95.0560   N 0  0  0  0  0  0  0  0  0  0  0  0
   12.6740   54.5390   94.3170   C 0  0  0  0  0  0  0  0  0  0  0  0
   12.9430   53.0950   94.8450   C 0  0  0  0  0  0  0  0  0  0  0  0
   13.9730   52.3430   93.9840   C 0  0  0  0  0  0  0  0  0  0  0  0
   11.6440   52.2560   94.9030   C 0  0  0  0  0  0  0  0  0  0  0  0
   13.5240   53.1850   96.2690   C 0  0  0  0  0  0  0  0  0  0  0  0
   12.3050   54.5750   92.7870   C 0  0  0  0  0  0  0  0  0  0  0  0
   11.1590   54.3130   92.4280   O 0  0  0  0  0  0  0  0  0  0  0  0
   13.2720   54.9020   91.8900   N 0  0  0  0  0  0  0  0  0  0  0  0
   14.7140   55.2890   92.1140   C 0  0  0  0  0  0  0  0  0  0  0  0
   15.1190   56.0750   90.8690   C 0  0  0  0  0  0  0  0  0  0  0  0
   14.7650   57.4520   91.0260   O 0  0  0  0  0  0  0  0  0  0  0  0
   14.3050   55.4570   89.7580   C 0  0  0  0  0  0  0  0  0  0  0  0
   12.9800   55.0020   90.4080   C 0  0  0  0  0  0  0  0  0  0  0  0
   12.5790   53.7900   89.8090   C 0  0  0  0  0  0  0  0  0  0  0  0
   13.0250   52.7200   90.2040   O 0  0  0  0  0  0  0  0  0  0  0  0
   11.7480   53.9070   88.7420   N 0  0  0  0  0  0  0  0  0  0  0  0
   11.2720   52.7650   87.9260   C 0  0  0  0  0  0  0  0  0  0  0  0
   12.0700   52.5650   86.7520   C 0  0  0  0  0  0  0  0  0  0  0  0
   12.0480   51.3320   86.0960   C 0  0  0  0  0  0  0  0  0  0  0  0
   12.8150   51.1080   84.9470   C 0  0  0  0  0  0  0  0  0  0  0  0
   12.8880   53.5640   86.2170   C 0  0  0  0  0  0  0  0  0  0  0  0
   13.6610   53.3370   85.0640   C 0  0  0  0  0  0  0  0  0  0  0  0
   13.6310   52.1140   84.4040   C 0  0  0  0  0  0  0  0  0  0  0  0
   14.3790   51.9190   83.2950   C 0  0  0  0  0  0  0  0  0  0  0  0
   15.9930   52.4280   83.0800   S 0  0  0  0  0  0  0  0  0  0  0  0
   16.1430   51.8100   81.5430   C 0  0  0  0  0  0  0  0  0  0  0  0
   14.9850   51.2370   81.2050   N 0  0  0  0  0  0  0  0  0  0  0  0
   14.0220   51.2950   82.1510   C 0  0  0  0  0  0  0  0  0  0  0  0
   12.6450   50.6630   81.8700   C 0  0  0  0  0  0  0  0  0  0  0  0
 37 36  2  0  0  0  0
 37 38  1  0  0  0  0
 36 35  1  0  0  0  0
 39 38  1  0  0  0  0
 38 34  2  0  0  0  0
 35 34  1  0  0  0  0
 34 33  1  0  0  0  0
 33 30  2  0  0  0  0
 33 32  1  0  0  0  0
 30 29  1  0  0  0  0
 32 31  2  0  0  0  0
 29 28  2  0  0  0  0
 31 28  1  0  0  0  0
 28 27  1  0  0  0  0
 27 26  1  0  0  0  0
 26 24  1  0  0  0  0
 22 23  1  0  0  0  0
 22 20  1  0  0  0  0
 24 25  2  0  0  0  0
 24 23  1  0  0  0  0
 23 18  1  0  0  0  0
 20 21  1  0  0  0  0
 20 19  1  0  0  0  0
 18 19  1  0  0  0  0
 18 16  1  0  0  0  0
 17 16  2  0  0  0  0
 16 11  1  0  0  0  0
 13 12  1  0  0  0  0
 11 12  1  0  0  0  0
 11 10  1  0  0  0  0
 12 14  1  0  0  0  0
 12 15  1  0  0  0  0
 10  8  1  0  0  0  0
  8  9  2  0  0  0  0
  8  5  1  0  0  0  0
  7  5  1  0  0  0  0
  7  6  1  0  0  0  0
  5  4  1  0  0  0  0
  5  6  1  0  0  0  0
  4  2  1  0  0  0  0
  1  2  1  0  0  0  0
  2  3  2  0  0  0  0
A    1
CAA
A    2
CAZ
A    3
OAF
A    4
NAX
A    5
CBM
A    6
CAP
A    7
CAQ
A    8
CBB
A    9
OAH
A   10
NAW
A   11
CBJ
A   12
CBL
A   13
CAE
A   14
CAC
A   15
CAD
A   16
CBC
A   17
OAI
A   18
N
A   19
CD2
A   20
CG
A   21
OD1
A   22
CB
A   23
CA
A   24
C
A   25
O
A   26
NAV
A   27
CAR
A   28
CBD
A   29
CAK
A   30
CAM
A   31
CAL
A   32
CAN
A   33
CBF
A   34
CBG
A   35
SAY
A   36
CAO
A   37
NAU
A   38
CBE
A   39
CAB
M  END
>  <InstanceId>
5NW0_9BK_C_301

>  <ChemCompId>
9BK

>  <PdbId>
5NW0

>  <ChainId>
C

>  <ResidueNumber>
301

>  <InsertionCode>


>  <Model>
1

>  <AltIds>


>  <MissingHeavyAtoms>
0

>  <ObservedFormula>
C28 N5 O5 S

>  <Name>
(2~{S},4~{R})-1-[(2~{S})-2-[(1-acetamidocyclopropyl)carbonylamino]-3,3-dimethyl-butanoyl]-~{N}-[[4-(4-methyl-1,3-thiazol-5-yl)phenyl]methyl]-4-oxidanyl-pyrrolidine-2-carboxamide

>  <SystematicName>
(2~{S},4~{R})-1-[(2~{S})-2-[(1-acetamidocyclopropyl)carbonylamino]-3,3-dimethyl-butanoyl]-~{N}-[[4-(4-methyl-1,3-thiazol-5-yl)phenyl]methyl]-4-oxidanyl-pyrrolidine-2-carboxamide

>  <Synonyms>


>  <Type>
NON-POLYMER

>  <Formula>
C28 H37 N5 O5 S

>  <MolecularWeight>
555.689

>  <ModifiedDate>
2017-09-15

>  <Parent>


>  <OneLetterCode>


>  <SubcomponentList>


>  <AmbiguousFlag>
N

>  <InChI>
InChI=1S/C28H37N5O5S/c1-16-22(39-15-30-16)19-8-6-18(7-9-19)13-29-24(36)21-12-20(35)14-33(21)25(37)23(27(3,4)5)31-26(38)28(10-11-28)32-17(2)34/h6-9,15,20-21,23,35H,10-14H2,1-5H3,(H,29,36)(H,31,38)(H,32,34)/t20-,21+,23-/m1/s1

>  <InChIKey>
SFLOLDSFURSREE-FUPPJEDESA-N

>  <SMILES>
Cc1c(scn1)c2ccc(cc2)CNC(=O)[C@@H]3C[C@H](CN3C(=O)[C@H](C(C)(C)C)NC(=O)C4(CC4)NC(=O)C)O

$$$$
