3TH9_9Y9_A_100


 36 38  0  0  0  0  0  0  0  0999 V2000
   14.2158   22.5419    4.1823 C   0  0  0  0  0  0  0  0  0  0  0  0
   15.4425   23.2148    3.9752 O   0  0  0  0  0  0  0  0  0  0  0  0
   15.9739   23.1750    4.7856 H   0  0  0  0  0  0  0  0  0  0  0  0
   13.3512   23.2940    5.2129 C   0  0  0  0  0  0  0  0  0  0  0  0
   10.4064   25.8394    8.7165 C   0  0  0  0  0  0  0  0  0  0  0  0
    9.5398   26.5181    7.8604 C   0  0  0  0  0  0  0  0  0  0  0  0
    9.1331   25.9998    6.5883 C   0  0  0  0  0  0  0  0  0  0  0  0
   10.8754   24.5860    8.3223 C   0  0  0  0  0  0  0  0  0  0  0  0
    9.0732   27.6882    8.2660 F   0  0  0  0  0  0  0  0  0  0  0  0
    9.6036   24.7264    6.1835 C   0  0  0  0  0  0  0  0  0  0  0  0
   10.4971   24.0443    7.0596 C   0  0  0  0  0  0  0  0  0  0  0  0
   11.1648   22.4668    6.6441 S   0  0  0  0  0  0  0  0  0  0  0  0
    9.1736   24.2061    4.8204 C   0  0  0  0  0  0  0  0  0  0  0  0
   11.9810   22.7360    5.2037 N   0  0  0  0  0  0  0  0  0  0  0  0
   10.2883   24.0015    3.7721 C   0  0  0  0  0  0  0  0  0  0  0  0
   11.2199   22.7932    3.9384 C   0  0  0  0  0  0  0  0  0  0  0  0
    9.7075   23.8518    2.3626 C   0  0  0  0  0  0  0  0  0  0  0  0
   10.0816   21.6522    6.3719 O   0  0  0  0  0  0  0  0  0  0  0  0
   12.2001   22.1304    7.6025 O   0  0  0  0  0  0  0  0  0  0  0  0
   14.5438   21.0653    4.4330 C   0  0  0  0  0  0  0  0  0  0  0  0
   14.2868   20.7316    5.8849 N   0  0  0  0  0  0  0  0  0  0  0  0
   15.2621   20.2499    6.6874 C   0  0  0  0  0  0  0  0  0  0  0  0
   16.4084   20.0658    6.2766 O   0  0  0  0  0  0  0  0  0  0  0  0
   13.3852   20.8687    6.2558 H   0  0  0  0  0  0  0  0  0  0  0  0
   14.7449   20.0281    7.9568 O   0  0  0  0  0  0  0  0  0  0  0  0
   15.3023   20.6847    9.0967 C   0  0  0  0  0  0  0  0  0  0  0  0
   15.9194   22.0101    8.6423 C   0  0  0  0  0  0  0  0  0  0  0  0
   14.1524   20.9907   10.0623 C   0  0  0  0  0  0  0  0  0  0  0  0
   16.2656   19.7012    9.7810 C   0  0  0  0  0  0  0  0  0  0  0  0
   13.8618   20.0600    3.5100 C   0  0  0  0  0  0  0  0  0  0  0  0
   14.8405   18.9966    3.1986 C   0  0  0  0  0  0  0  0  0  0  0  0
   15.6569   19.1247    2.0570 C   0  0  0  0  0  0  0  0  0  0  0  0
   16.6008   18.1293    1.8095 C   0  0  0  0  0  0  0  0  0  0  0  0
   16.7405   17.0279    2.6791 C   0  0  0  0  0  0  0  0  0  0  0  0
   15.9254   16.9037    3.8330 C   0  0  0  0  0  0  0  0  0  0  0  0
   14.9686   17.8888    4.0800 C   0  0  0  0  0  0  0  0  0  0  0  0
  5  8  2  0  0  0
  5  6  1  0  0  0
  9  6  1  0  0  0
  6  7  2  0  0  0
  7 10  1  0  0  0
  8 11  1  0  0  0
 11 10  2  0  0  0
 10 13  1  0  0  0
 11 12  1  0  0  0
 19 12  2  0  0  0
 12 14  1  0  0  0
 12 18  2  0  0  0
 13 15  1  0  0  0
  4 14  1  0  0  0
 14 16  1  0  0  0
 16 15  1  0  0  0
 15 17  1  0  0  0
  4  1  1  0  0  0
  2  1  1  0  0  0
 20  1  1  0  0  0
 30 20  1  0  0  0
 20 21  1  0  0  0
 21 22  1  0  0  0
 31 30  1  0  0  0
 36 31  2  0  0  0
 31 32  1  0  0  0
 33 32  2  0  0  0
 34 33  1  0  0  0
 35 34  2  0  0  0
 35 36  1  0  0  0
 22 25  1  0  0  0
 22 23  2  0  0  0
 25 26  1  0  0  0
 26 28  1  0  0  0
 26 29  1  0  0  0
 26 27  1  0  0  0
 21 24  1  0  0  0
  2  3  1  0  0  0
M  END
> <minimizedAffinity>
-9.93129

$$$$
3TH9_9Y9_A_100


 36 38  0  0  0  0  0  0  0  0999 V2000
   12.6078   24.5476    5.8571 C   0  0  0  0  0  0  0  0  0  0  0  0
   12.9392   25.7597    5.2081 O   0  0  0  0  0  0  0  0  0  0  0  0
   12.3837   25.8669    4.4201 H   0  0  0  0  0  0  0  0  0  0  0  0
   12.9940   23.3395    4.9815 C   0  0  0  0  0  0  0  0  0  0  0  0
   14.9037   19.3054    2.2421 C   0  0  0  0  0  0  0  0  0  0  0  0
   16.0331   19.0058    3.0033 C   0  0  0  0  0  0  0  0  0  0  0  0
   16.0971   19.2091    4.4199 C   0  0  0  0  0  0  0  0  0  0  0  0
   13.7778   19.8013    2.8997 C   0  0  0  0  0  0  0  0  0  0  0  0
   17.0793   18.4998    2.3702 F   0  0  0  0  0  0  0  0  0  0  0  0
   14.9562   19.7097    5.0939 C   0  0  0  0  0  0  0  0  0  0  0  0
   13.8099   20.0231    4.3071 C   0  0  0  0  0  0  0  0  0  0  0  0
   12.3453   20.6770    5.0380 S   0  0  0  0  0  0  0  0  0  0  0  0
   15.0550   19.9354    6.5949 C   0  0  0  0  0  0  0  0  0  0  0  0
   12.8546   22.0967    5.7720 N   0  0  0  0  0  0  0  0  0  0  0  0
   14.9256   21.3928    7.0879 C   0  0  0  0  0  0  0  0  0  0  0  0
   13.5307   22.0328    7.0844 C   0  0  0  0  0  0  0  0  0  0  0  0
   15.4151   21.5384    8.5320 C   0  0  0  0  0  0  0  0  0  0  0  0
   11.9859   19.7895    6.0351 O   0  0  0  0  0  0  0  0  0  0  0  0
   11.4468   21.1040    3.9826 O   0  0  0  0  0  0  0  0  0  0  0  0
   11.1587   24.6729    6.3421 C   0  0  0  0  0  0  0  0  0  0  0  0
   10.2674   23.7879    5.5008 N   0  0  0  0  0  0  0  0  0  0  0  0
    9.2045   24.2828    4.8281 C   0  0  0  0  0  0  0  0  0  0  0  0
    8.9146   25.4791    4.8628 O   0  0  0  0  0  0  0  0  0  0  0  0
   10.4665   22.8255    5.4412 H   0  0  0  0  0  0  0  0  0  0  0  0
    8.5681   23.2508    4.1512 O   0  0  0  0  0  0  0  0  0  0  0  0
    8.5437   23.2210    2.7231 C   0  0  0  0  0  0  0  0  0  0  0  0
    9.8180   23.8890    2.1998 C   0  0  0  0  0  0  0  0  0  0  0  0
    8.5539   21.7508    2.2910 C   0  0  0  0  0  0  0  0  0  0  0  0
    7.2213   23.8558    2.2625 C   0  0  0  0  0  0  0  0  0  0  0  0
   10.9254   24.4304    7.8302 C   0  0  0  0  0  0  0  0  0  0  0  0
    9.8363   25.3286    8.2689 C   0  0  0  0  0  0  0  0  0  0  0  0
   10.1299   26.6759    8.5604 C   0  0  0  0  0  0  0  0  0  0  0  0
    9.0779   27.5120    8.9307 C   0  0  0  0  0  0  0  0  0  0  0  0
    7.7559   27.0270    9.0059 C   0  0  0  0  0  0  0  0  0  0  0  0
    7.4588   25.6736    8.7035 C   0  0  0  0  0  0  0  0  0  0  0  0
    8.5086   24.8268    8.3457 C   0  0  0  0  0  0  0  0  0  0  0  0
  5  8  2  0  0  0
  5  6  1  0  0  0
  9  6  1  0  0  0
  6  7  2  0  0  0
  7 10  1  0  0  0
  8 11  1  0  0  0
 11 10  2  0  0  0
 10 13  1  0  0  0
 11 12  1  0  0  0
 19 12  2  0  0  0
 12 14  1  0  0  0
 12 18  2  0  0  0
 13 15  1  0  0  0
  4 14  1  0  0  0
 14 16  1  0  0  0
 16 15  1  0  0  0
 15 17  1  0  0  0
  4  1  1  0  0  0
  2  1  1  0  0  0
 20  1  1  0  0  0
 30 20  1  0  0  0
 20 21  1  0  0  0
 21 22  1  0  0  0
 31 30  1  0  0  0
 36 31  2  0  0  0
 31 32  1  0  0  0
 33 32  2  0  0  0
 34 33  1  0  0  0
 35 34  2  0  0  0
 35 36  1  0  0  0
 22 25  1  0  0  0
 22 23  2  0  0  0
 25 26  1  0  0  0
 26 28  1  0  0  0
 26 29  1  0  0  0
 26 27  1  0  0  0
 21 24  1  0  0  0
  2  3  1  0  0  0
M  END
> <minimizedAffinity>
-9.90031

$$$$
3TH9_9Y9_A_100


 36 38  0  0  0  0  0  0  0  0999 V2000
   12.8979   24.1108    4.8294 C   0  0  0  0  0  0  0  0  0  0  0  0
   13.3706   25.3738    4.4030 O   0  0  0  0  0  0  0  0  0  0  0  0
   13.3415   25.4198    3.4345 H   0  0  0  0  0  0  0  0  0  0  0  0
   13.8638   22.9930    4.3901 C   0  0  0  0  0  0  0  0  0  0  0  0
   15.8048   18.7396    2.0307 C   0  0  0  0  0  0  0  0  0  0  0  0
   16.9060   18.4876    2.8483 C   0  0  0  0  0  0  0  0  0  0  0  0
   16.9287   18.7988    4.2465 C   0  0  0  0  0  0  0  0  0  0  0  0
   14.6655   19.2966    2.6121 C   0  0  0  0  0  0  0  0  0  0  0  0
   17.9647   17.9232    2.2897 F   0  0  0  0  0  0  0  0  0  0  0  0
   15.7740   19.3620    4.8433 C   0  0  0  0  0  0  0  0  0  0  0  0
   14.6569   19.6260    3.9986 C   0  0  0  0  0  0  0  0  0  0  0  0
   13.1790   20.3498    4.6300 S   0  0  0  0  0  0  0  0  0  0  0  0
   15.8291   19.7017    6.3250 C   0  0  0  0  0  0  0  0  0  0  0  0
   13.6838   21.8163    5.2688 N   0  0  0  0  0  0  0  0  0  0  0  0
   15.7035   21.1940    6.7003 C   0  0  0  0  0  0  0  0  0  0  0  0
   14.3179   21.8466    6.6031 C   0  0  0  0  0  0  0  0  0  0  0  0
   16.1498   21.4453    8.1439 C   0  0  0  0  0  0  0  0  0  0  0  0
   12.7772   19.5456    5.6802 O   0  0  0  0  0  0  0  0  0  0  0  0
   12.3193   20.7037    3.5168 O   0  0  0  0  0  0  0  0  0  0  0  0
   11.4239   24.0146    4.4187 C   0  0  0  0  0  0  0  0  0  0  0  0
   10.6109   25.0022    5.2243 N   0  0  0  0  0  0  0  0  0  0  0  0
    9.8063   24.6041    6.2350 C   0  0  0  0  0  0  0  0  0  0  0  0
    9.7017   23.4189    6.5526 O   0  0  0  0  0  0  0  0  0  0  0  0
   10.6689   25.9607    5.0071 H   0  0  0  0  0  0  0  0  0  0  0  0
    9.1812   25.7135    6.7888 O   0  0  0  0  0  0  0  0  0  0  0  0
    9.2227   25.9468    8.1977 C   0  0  0  0  0  0  0  0  0  0  0  0
   10.6516   25.7026    8.6901 C   0  0  0  0  0  0  0  0  0  0  0  0
    8.8734   27.4202    8.4329 C   0  0  0  0  0  0  0  0  0  0  0  0
    8.1354   25.0774    8.8500 C   0  0  0  0  0  0  0  0  0  0  0  0
   11.1322   24.1512    2.9274 C   0  0  0  0  0  0  0  0  0  0  0  0
    9.6980   23.8593    2.7191 C   0  0  0  0  0  0  0  0  0  0  0  0
    9.2288   22.5435    2.9048 C   0  0  0  0  0  0  0  0  0  0  0  0
    7.8651   22.3036    2.7438 C   0  0  0  0  0  0  0  0  0  0  0  0
    6.9779   23.3479    2.4109 C   0  0  0  0  0  0  0  0  0  0  0  0
    7.4484   24.6740    2.2332 C   0  0  0  0  0  0  0  0  0  0  0  0
    8.8143   24.9194    2.3788 C   0  0  0  0  0  0  0  0  0  0  0  0
  5  8  2  0  0  0
  5  6  1  0  0  0
  9  6  1  0  0  0
  6  7  2  0  0  0
  7 10  1  0  0  0
  8 11  1  0  0  0
 11 10  2  0  0  0
 10 13  1  0  0  0
 11 12  1  0  0  0
 19 12  2  0  0  0
 12 14  1  0  0  0
 12 18  2  0  0  0
 13 15  1  0  0  0
  4 14  1  0  0  0
 14 16  1  0  0  0
 16 15  1  0  0  0
 15 17  1  0  0  0
  4  1  1  0  0  0
  2  1  1  0  0  0
 20  1  1  0  0  0
 30 20  1  0  0  0
 20 21  1  0  0  0
 21 22  1  0  0  0
 31 30  1  0  0  0
 36 31  2  0  0  0
 31 32  1  0  0  0
 33 32  2  0  0  0
 34 33  1  0  0  0
 35 34  2  0  0  0
 35 36  1  0  0  0
 22 25  1  0  0  0
 22 23  2  0  0  0
 25 26  1  0  0  0
 26 28  1  0  0  0
 26 29  1  0  0  0
 26 27  1  0  0  0
 21 24  1  0  0  0
  2  3  1  0  0  0
M  END
> <minimizedAffinity>
-9.88218

$$$$
3TH9_9Y9_A_100


 36 38  0  0  0  0  0  0  0  0999 V2000
   14.2134   23.2658    5.0089 C   0  0  0  0  0  0  0  0  0  0  0  0
   15.3105   24.0052    4.5088 O   0  0  0  0  0  0  0  0  0  0  0  0
   15.7339   24.4875    5.2362 H   0  0  0  0  0  0  0  0  0  0  0  0
   13.1019   24.2116    5.5042 C   0  0  0  0  0  0  0  0  0  0  0  0
    9.7149   26.6784    8.6458 C   0  0  0  0  0  0  0  0  0  0  0  0
    8.8181   27.1720    7.6988 C   0  0  0  0  0  0  0  0  0  0  0  0
    8.5366   26.5009    6.4648 C   0  0  0  0  0  0  0  0  0  0  0  0
   10.3447   25.4610    8.3859 C   0  0  0  0  0  0  0  0  0  0  0  0
    8.1998   28.3084    7.9777 F   0  0  0  0  0  0  0  0  0  0  0  0
    9.1707   25.2630    6.1963 C   0  0  0  0  0  0  0  0  0  0  0  0
   10.0936   24.7709    7.1645 C   0  0  0  0  0  0  0  0  0  0  0  0
   10.9591   23.2549    6.9207 S   0  0  0  0  0  0  0  0  0  0  0  0
    8.8707   24.5792    4.8711 C   0  0  0  0  0  0  0  0  0  0  0  0
   11.8077   23.4947    5.4938 N   0  0  0  0  0  0  0  0  0  0  0  0
   10.0513   24.4200    3.8891 C   0  0  0  0  0  0  0  0  0  0  0  0
   11.1075   23.3509    4.2005 C   0  0  0  0  0  0  0  0  0  0  0  0
    9.5610   24.0808    2.4781 C   0  0  0  0  0  0  0  0  0  0  0  0
    9.9922   22.2959    6.6830 O   0  0  0  0  0  0  0  0  0  0  0  0
   11.9786   23.1289    7.9446 O   0  0  0  0  0  0  0  0  0  0  0  0
   14.7748   22.2177    5.9769 C   0  0  0  0  0  0  0  0  0  0  0  0
   15.6260   21.2300    5.2119 N   0  0  0  0  0  0  0  0  0  0  0  0
   15.2036   19.9703    4.9628 C   0  0  0  0  0  0  0  0  0  0  0  0
   14.1027   19.5685    5.3410 O   0  0  0  0  0  0  0  0  0  0  0  0
   16.5115   21.5116    4.8865 H   0  0  0  0  0  0  0  0  0  0  0  0
   16.1840   19.2887    4.2540 O   0  0  0  0  0  0  0  0  0  0  0  0
   15.8428   18.4940    3.1168 C   0  0  0  0  0  0  0  0  0  0  0  0
   14.9472   19.3241    2.1933 C   0  0  0  0  0  0  0  0  0  0  0  0
   17.1422   18.1715    2.3714 C   0  0  0  0  0  0  0  0  0  0  0  0
   15.2344   17.1782    3.6287 C   0  0  0  0  0  0  0  0  0  0  0  0
   15.5207   22.7584    7.1930 C   0  0  0  0  0  0  0  0  0  0  0  0
   15.8609   21.6111    8.0611 C   0  0  0  0  0  0  0  0  0  0  0  0
   14.8328   20.9484    8.7612 C   0  0  0  0  0  0  0  0  0  0  0  0
   15.1745   19.8434    9.5391 C   0  0  0  0  0  0  0  0  0  0  0  0
   16.5094   19.3959    9.6193 C   0  0  0  0  0  0  0  0  0  0  0  0
   17.5427   20.0569    8.9074 C   0  0  0  0  0  0  0  0  0  0  0  0
   17.2108   21.1724    8.1377 C   0  0  0  0  0  0  0  0  0  0  0  0
  5  8  2  0  0  0
  5  6  1  0  0  0
  9  6  1  0  0  0
  6  7  2  0  0  0
  7 10  1  0  0  0
  8 11  1  0  0  0
 11 10  2  0  0  0
 10 13  1  0  0  0
 11 12  1  0  0  0
 19 12  2  0  0  0
 12 14  1  0  0  0
 12 18  2  0  0  0
 13 15  1  0  0  0
  4 14  1  0  0  0
 14 16  1  0  0  0
 16 15  1  0  0  0
 15 17  1  0  0  0
  4  1  1  0  0  0
  2  1  1  0  0  0
 20  1  1  0  0  0
 30 20  1  0  0  0
 20 21  1  0  0  0
 21 22  1  0  0  0
 31 30  1  0  0  0
 36 31  2  0  0  0
 31 32  1  0  0  0
 33 32  2  0  0  0
 34 33  1  0  0  0
 35 34  2  0  0  0
 35 36  1  0  0  0
 22 25  1  0  0  0
 22 23  2  0  0  0
 25 26  1  0  0  0
 26 28  1  0  0  0
 26 29  1  0  0  0
 26 27  1  0  0  0
 21 24  1  0  0  0
  2  3  1  0  0  0
M  END
> <minimizedAffinity>
-9.85871

$$$$
3TH9_9Y9_A_100


 36 38  0  0  0  0  0  0  0  0999 V2000
   10.5456   22.2916    3.7177 C   0  0  0  0  0  0  0  0  0  0  0  0
    9.6376   21.2615    3.3790 O   0  0  0  0  0  0  0  0  0  0  0  0
    9.0117   21.1294    4.1082 H   0  0  0  0  0  0  0  0  0  0  0  0
   11.4487   21.8563    4.8883 C   0  0  0  0  0  0  0  0  0  0  0  0
   14.3553   21.3836    9.2188 C   0  0  0  0  0  0  0  0  0  0  0  0
   15.1348   20.2808    8.8709 C   0  0  0  0  0  0  0  0  0  0  0  0
   15.5218   19.9917    7.5223 C   0  0  0  0  0  0  0  0  0  0  0  0
   13.9589   22.2569    8.2057 C   0  0  0  0  0  0  0  0  0  0  0  0
   15.5351   19.4835    9.8483 F   0  0  0  0  0  0  0  0  0  0  0  0
   15.1248   20.8762    6.4894 C   0  0  0  0  0  0  0  0  0  0  0  0
   14.3197   21.9949    6.8522 C   0  0  0  0  0  0  0  0  0  0  0  0
   13.7471   23.1441    5.6447 S   0  0  0  0  0  0  0  0  0  0  0  0
   15.5314   20.5375    5.0633 C   0  0  0  0  0  0  0  0  0  0  0  0
   12.8530   22.2055    4.5801 N   0  0  0  0  0  0  0  0  0  0  0  0
   14.3898   20.2322    4.0698 C   0  0  0  0  0  0  0  0  0  0  0  0
   13.5532   21.4095    3.5507 C   0  0  0  0  0  0  0  0  0  0  0  0
   14.9187   19.5460    2.8066 C   0  0  0  0  0  0  0  0  0  0  0  0
   14.8720   23.5890    4.9757 O   0  0  0  0  0  0  0  0  0  0  0  0
   12.7799   24.0298    6.2640 O   0  0  0  0  0  0  0  0  0  0  0  0
    9.7348   23.5857    3.8543 C   0  0  0  0  0  0  0  0  0  0  0  0
   10.2412   24.3749    5.0402 N   0  0  0  0  0  0  0  0  0  0  0  0
    9.4443   25.2316    5.7171 C   0  0  0  0  0  0  0  0  0  0  0  0
    8.2660   25.4059    5.4048 O   0  0  0  0  0  0  0  0  0  0  0  0
   11.1762   24.2618    5.3270 H   0  0  0  0  0  0  0  0  0  0  0  0
   10.1697   25.8186    6.7454 O   0  0  0  0  0  0  0  0  0  0  0  0
    9.6125   25.9380    8.0555 C   0  0  0  0  0  0  0  0  0  0  0  0
    8.7892   24.6815    8.3512 C   0  0  0  0  0  0  0  0  0  0  0  0
   10.7771   26.0001    9.0494 C   0  0  0  0  0  0  0  0  0  0  0  0
    8.8445   27.2682    8.1200 C   0  0  0  0  0  0  0  0  0  0  0  0
    9.6524   24.4611    2.6075 C   0  0  0  0  0  0  0  0  0  0  0  0
    8.2275   24.5784    2.2313 C   0  0  0  0  0  0  0  0  0  0  0  0
    7.8055   25.6851    1.4675 C   0  0  0  0  0  0  0  0  0  0  0  0
    6.4653   25.7499    1.0900 C   0  0  0  0  0  0  0  0  0  0  0  0
    5.5574   24.7347    1.4555 C   0  0  0  0  0  0  0  0  0  0  0  0
    5.9838   23.6161    2.2160 C   0  0  0  0  0  0  0  0  0  0  0  0
    7.3209   23.5511    2.6098 C   0  0  0  0  0  0  0  0  0  0  0  0
  5  8  2  0  0  0
  5  6  1  0  0  0
  9  6  1  0  0  0
  6  7  2  0  0  0
  7 10  1  0  0  0
  8 11  1  0  0  0
 11 10  2  0  0  0
 10 13  1  0  0  0
 11 12  1  0  0  0
 19 12  2  0  0  0
 12 14  1  0  0  0
 12 18  2  0  0  0
 13 15  1  0  0  0
  4 14  1  0  0  0
 14 16  1  0  0  0
 16 15  1  0  0  0
 15 17  1  0  0  0
  4  1  1  0  0  0
  2  1  1  0  0  0
 20  1  1  0  0  0
 30 20  1  0  0  0
 20 21  1  0  0  0
 21 22  1  0  0  0
 31 30  1  0  0  0
 36 31  2  0  0  0
 31 32  1  0  0  0
 33 32  2  0  0  0
 34 33  1  0  0  0
 35 34  2  0  0  0
 35 36  1  0  0  0
 22 25  1  0  0  0
 22 23  2  0  0  0
 25 26  1  0  0  0
 26 28  1  0  0  0
 26 29  1  0  0  0
 26 27  1  0  0  0
 21 24  1  0  0  0
  2  3  1  0  0  0
M  END
> <minimizedAffinity>
-9.80986

$$$$
3TH9_9Y9_A_100


 36 38  0  0  0  0  0  0  0  0999 V2000
   14.1327   21.6574    8.0045 C   0  0  0  0  0  0  0  0  0  0  0  0
   13.7279   20.8952    9.1250 O   0  0  0  0  0  0  0  0  0  0  0  0
   13.5293   19.9882    8.8444 H   0  0  0  0  0  0  0  0  0  0  0  0
   12.9618   21.8375    7.0186 C   0  0  0  0  0  0  0  0  0  0  0  0
    9.6901   22.2457    2.9499 C   0  0  0  0  0  0  0  0  0  0  0  0
    8.6644   22.9880    3.5345 C   0  0  0  0  0  0  0  0  0  0  0  0
    8.8887   23.9462    4.5755 C   0  0  0  0  0  0  0  0  0  0  0  0
   10.9965   22.4697    3.3847 C   0  0  0  0  0  0  0  0  0  0  0  0
    7.4356   22.7919    3.0839 F   0  0  0  0  0  0  0  0  0  0  0  0
   10.2135   24.1802    5.0194 C   0  0  0  0  0  0  0  0  0  0  0  0
   11.2544   23.4099    4.4241 C   0  0  0  0  0  0  0  0  0  0  0  0
   12.9353   23.5997    4.9193 S   0  0  0  0  0  0  0  0  0  0  0  0
   10.4242   25.1879    6.1391 C   0  0  0  0  0  0  0  0  0  0  0  0
   12.9204   23.2430    6.5583 N   0  0  0  0  0  0  0  0  0  0  0  0
   10.9883   24.6412    7.4682 C   0  0  0  0  0  0  0  0  0  0  0  0
   12.4772   24.2728    7.5209 C   0  0  0  0  0  0  0  0  0  0  0  0
   10.7968   25.6444    8.6098 C   0  0  0  0  0  0  0  0  0  0  0  0
   13.2258   24.9441    4.7807 O   0  0  0  0  0  0  0  0  0  0  0  0
   13.7230   22.5427    4.3145 O   0  0  0  0  0  0  0  0  0  0  0  0
   15.4424   21.0489    7.4897 C   0  0  0  0  0  0  0  0  0  0  0  0
   15.3732   20.9018    5.9867 N   0  0  0  0  0  0  0  0  0  0  0  0
   16.0710   19.9465    5.3327 C   0  0  0  0  0  0  0  0  0  0  0  0
   16.7915   19.1460    5.9298 O   0  0  0  0  0  0  0  0  0  0  0  0
   14.8049   21.5180    5.4705 H   0  0  0  0  0  0  0  0  0  0  0  0
   15.8247   20.0494    3.9700 O   0  0  0  0  0  0  0  0  0  0  0  0
   15.6171   18.8801    3.1758 C   0  0  0  0  0  0  0  0  0  0  0  0
   14.7702   17.8894    3.9791 C   0  0  0  0  0  0  0  0  0  0  0  0
   14.8247   19.2998    1.9332 C   0  0  0  0  0  0  0  0  0  0  0  0
   16.9947   18.3672    2.7258 C   0  0  0  0  0  0  0  0  0  0  0  0
   16.7247   21.7591    7.9130 C   0  0  0  0  0  0  0  0  0  0  0  0
   17.5551   20.7874    8.6559 C   0  0  0  0  0  0  0  0  0  0  0  0
   18.9445   21.0022    8.7544 C   0  0  0  0  0  0  0  0  0  0  0  0
   19.6983   20.0942    9.4962 C   0  0  0  0  0  0  0  0  0  0  0  0
   19.0889   18.9951   10.1359 C   0  0  0  0  0  0  0  0  0  0  0  0
   17.6895   18.7841   10.0446 C   0  0  0  0  0  0  0  0  0  0  0  0
   16.9299   19.6807    9.2922 C   0  0  0  0  0  0  0  0  0  0  0  0
  5  8  2  0  0  0
  5  6  1  0  0  0
  9  6  1  0  0  0
  6  7  2  0  0  0
  7 10  1  0  0  0
  8 11  1  0  0  0
 11 10  2  0  0  0
 10 13  1  0  0  0
 11 12  1  0  0  0
 19 12  2  0  0  0
 12 14  1  0  0  0
 12 18  2  0  0  0
 13 15  1  0  0  0
  4 14  1  0  0  0
 14 16  1  0  0  0
 16 15  1  0  0  0
 15 17  1  0  0  0
  4  1  1  0  0  0
  2  1  1  0  0  0
 20  1  1  0  0  0
 30 20  1  0  0  0
 20 21  1  0  0  0
 21 22  1  0  0  0
 31 30  1  0  0  0
 36 31  2  0  0  0
 31 32  1  0  0  0
 33 32  2  0  0  0
 34 33  1  0  0  0
 35 34  2  0  0  0
 35 36  1  0  0  0
 22 25  1  0  0  0
 22 23  2  0  0  0
 25 26  1  0  0  0
 26 28  1  0  0  0
 26 29  1  0  0  0
 26 27  1  0  0  0
 21 24  1  0  0  0
  2  3  1  0  0  0
M  END
> <minimizedAffinity>
-9.64913

$$$$
3TH9_9Y9_A_100


 36 38  0  0  0  0  0  0  0  0999 V2000
   13.5993   21.5441    7.3214 C   0  0  0  0  0  0  0  0  0  0  0  0
   13.6406   21.0566    8.6484 O   0  0  0  0  0  0  0  0  0  0  0  0
   13.1521   20.2203    8.7010 H   0  0  0  0  0  0  0  0  0  0  0  0
   12.1623   21.9456    6.9349 C   0  0  0  0  0  0  0  0  0  0  0  0
    9.7514   23.2214    2.4644 C   0  0  0  0  0  0  0  0  0  0  0  0
    8.5621   23.7462    2.9692 C   0  0  0  0  0  0  0  0  0  0  0  0
    8.4785   24.4199    4.2307 C   0  0  0  0  0  0  0  0  0  0  0  0
   10.9158   23.3860    3.2149 C   0  0  0  0  0  0  0  0  0  0  0  0
    7.4739   23.6159    2.2274 F   0  0  0  0  0  0  0  0  0  0  0  0
    9.6579   24.5928    4.9961 C   0  0  0  0  0  0  0  0  0  0  0  0
   10.8670   24.0442    4.4779 C   0  0  0  0  0  0  0  0  0  0  0  0
   12.3875   24.1772    5.3594 S   0  0  0  0  0  0  0  0  0  0  0  0
    9.5405   25.2939    6.3409 C   0  0  0  0  0  0  0  0  0  0  0  0
   12.0781   23.4184    6.8230 N   0  0  0  0  0  0  0  0  0  0  0  0
    9.8762   24.4553    7.5929 C   0  0  0  0  0  0  0  0  0  0  0  0
   11.3527   24.1517    7.8812 C   0  0  0  0  0  0  0  0  0  0  0  0
    9.3627   25.1288    8.8692 C   0  0  0  0  0  0  0  0  0  0  0  0
   12.5681   25.5246    5.6102 O   0  0  0  0  0  0  0  0  0  0  0  0
   13.3794   23.3427    4.7088 O   0  0  0  0  0  0  0  0  0  0  0  0
   14.3435   20.5326    6.4419 C   0  0  0  0  0  0  0  0  0  0  0  0
   15.4048   19.8359    7.2629 N   0  0  0  0  0  0  0  0  0  0  0  0
   16.4552   20.5077    7.7848 C   0  0  0  0  0  0  0  0  0  0  0  0
   16.5952   21.7204    7.6224 O   0  0  0  0  0  0  0  0  0  0  0  0
   15.3288   18.8673    7.4216 H   0  0  0  0  0  0  0  0  0  0  0  0
   17.2676   19.6217    8.4799 O   0  0  0  0  0  0  0  0  0  0  0  0
   18.6106   19.3785    8.0577 C   0  0  0  0  0  0  0  0  0  0  0  0
   19.5259   20.4070    8.7275 C   0  0  0  0  0  0  0  0  0  0  0  0
   19.0053   17.9828    8.5522 C   0  0  0  0  0  0  0  0  0  0  0  0
   18.6262   19.3739    6.5204 C   0  0  0  0  0  0  0  0  0  0  0  0
   13.4749   19.5230    5.6977 C   0  0  0  0  0  0  0  0  0  0  0  0
   14.1586   19.1861    4.4309 C   0  0  0  0  0  0  0  0  0  0  0  0
   14.8127   17.9436    4.3105 C   0  0  0  0  0  0  0  0  0  0  0  0
   15.4129   17.6327    3.0914 C   0  0  0  0  0  0  0  0  0  0  0  0
   15.3626   18.5320    2.0064 C   0  0  0  0  0  0  0  0  0  0  0  0
   14.6963   19.7784    2.1243 C   0  0  0  0  0  0  0  0  0  0  0  0
   14.1051   20.1029    3.3459 C   0  0  0  0  0  0  0  0  0  0  0  0
  5  8  2  0  0  0
  5  6  1  0  0  0
  9  6  1  0  0  0
  6  7  2  0  0  0
  7 10  1  0  0  0
  8 11  1  0  0  0
 11 10  2  0  0  0
 10 13  1  0  0  0
 11 12  1  0  0  0
 19 12  2  0  0  0
 12 14  1  0  0  0
 12 18  2  0  0  0
 13 15  1  0  0  0
  4 14  1  0  0  0
 14 16  1  0  0  0
 16 15  1  0  0  0
 15 17  1  0  0  0
  4  1  1  0  0  0
  2  1  1  0  0  0
 20  1  1  0  0  0
 30 20  1  0  0  0
 20 21  1  0  0  0
 21 22  1  0  0  0
 31 30  1  0  0  0
 36 31  2  0  0  0
 31 32  1  0  0  0
 33 32  2  0  0  0
 34 33  1  0  0  0
 35 34  2  0  0  0
 35 36  1  0  0  0
 22 25  1  0  0  0
 22 23  2  0  0  0
 25 26  1  0  0  0
 26 28  1  0  0  0
 26 29  1  0  0  0
 26 27  1  0  0  0
 21 24  1  0  0  0
  2  3  1  0  0  0
M  END
> <minimizedAffinity>
-9.46837

$$$$
3TH9_9Y9_A_100


 36 38  0  0  0  0  0  0  0  0999 V2000
   10.4726   23.1885    4.4190 C   0  0  0  0  0  0  0  0  0  0  0  0
    9.6097   22.5547    3.4948 O   0  0  0  0  0  0  0  0  0  0  0  0
    9.0219   21.9445    3.9672 H   0  0  0  0  0  0  0  0  0  0  0  0
   11.4447   22.1677    5.0422 C   0  0  0  0  0  0  0  0  0  0  0  0
   14.7975   21.4367    8.9983 C   0  0  0  0  0  0  0  0  0  0  0  0
   15.4750   20.3076    8.5390 C   0  0  0  0  0  0  0  0  0  0  0  0
   15.6908   20.0373    7.1488 C   0  0  0  0  0  0  0  0  0  0  0  0
   14.3334   22.3556    8.0568 C   0  0  0  0  0  0  0  0  0  0  0  0
   15.9428   19.4653    9.4462 F   0  0  0  0  0  0  0  0  0  0  0  0
   15.2244   20.9680    6.1880 C   0  0  0  0  0  0  0  0  0  0  0  0
   14.5239   22.1138    6.6653 C   0  0  0  0  0  0  0  0  0  0  0  0
   13.8769   23.3220    5.5571 S   0  0  0  0  0  0  0  0  0  0  0  0
   15.4482   20.6495    4.7176 C   0  0  0  0  0  0  0  0  0  0  0  0
   12.8208   22.4572    4.5822 N   0  0  0  0  0  0  0  0  0  0  0  0
   14.1869   20.4270    3.8555 C   0  0  0  0  0  0  0  0  0  0  0  0
   13.3578   21.6571    3.4620 C   0  0  0  0  0  0  0  0  0  0  0  0
   14.5329   19.7512    2.5252 C   0  0  0  0  0  0  0  0  0  0  0  0
   14.9396   23.7305    4.7730 O   0  0  0  0  0  0  0  0  0  0  0  0
   13.0329   24.2359    6.3028 O   0  0  0  0  0  0  0  0  0  0  0  0
    9.5980   24.0366    5.3498 C   0  0  0  0  0  0  0  0  0  0  0  0
    8.2330   24.2230    4.7274 N   0  0  0  0  0  0  0  0  0  0  0  0
    7.7784   25.4425    4.3623 C   0  0  0  0  0  0  0  0  0  0  0  0
    8.4563   26.4595    4.5129 O   0  0  0  0  0  0  0  0  0  0  0  0
    7.6600   23.4354    4.5842 H   0  0  0  0  0  0  0  0  0  0  0  0
    6.5023   25.3165    3.8294 O   0  0  0  0  0  0  0  0  0  0  0  0
    6.3151   25.0719    2.4343 C   0  0  0  0  0  0  0  0  0  0  0  0
    6.4439   23.5674    2.1818 C   0  0  0  0  0  0  0  0  0  0  0  0
    4.8891   25.5037    2.0763 C   0  0  0  0  0  0  0  0  0  0  0  0
    7.3028   25.9636    1.6643 C   0  0  0  0  0  0  0  0  0  0  0  0
    9.4820   23.5490    6.7908 C   0  0  0  0  0  0  0  0  0  0  0  0
    9.4393   24.7383    7.6680 C   0  0  0  0  0  0  0  0  0  0  0  0
   10.6458   25.2738    8.1616 C   0  0  0  0  0  0  0  0  0  0  0  0
   10.5808   26.4205    8.9515 C   0  0  0  0  0  0  0  0  0  0  0  0
    9.3445   27.0322    9.2442 C   0  0  0  0  0  0  0  0  0  0  0  0
    8.1310   26.4989    8.7398 C   0  0  0  0  0  0  0  0  0  0  0  0
    8.1865   25.3431    7.9599 C   0  0  0  0  0  0  0  0  0  0  0  0
  5  8  2  0  0  0
  5  6  1  0  0  0
  9  6  1  0  0  0
  6  7  2  0  0  0
  7 10  1  0  0  0
  8 11  1  0  0  0
 11 10  2  0  0  0
 10 13  1  0  0  0
 11 12  1  0  0  0
 19 12  2  0  0  0
 12 14  1  0  0  0
 12 18  2  0  0  0
 13 15  1  0  0  0
  4 14  1  0  0  0
 14 16  1  0  0  0
 16 15  1  0  0  0
 15 17  1  0  0  0
  4  1  1  0  0  0
  2  1  1  0  0  0
 20  1  1  0  0  0
 30 20  1  0  0  0
 20 21  1  0  0  0
 21 22  1  0  0  0
 31 30  1  0  0  0
 36 31  2  0  0  0
 31 32  1  0  0  0
 33 32  2  0  0  0
 34 33  1  0  0  0
 35 34  2  0  0  0
 35 36  1  0  0  0
 22 25  1  0  0  0
 22 23  2  0  0  0
 25 26  1  0  0  0
 26 28  1  0  0  0
 26 29  1  0  0  0
 26 27  1  0  0  0
 21 24  1  0  0  0
  2  3  1  0  0  0
M  END
> <minimizedAffinity>
-9.17912

$$$$
3TH9_9Y9_A_100


 36 38  0  0  0  0  0  0  0  0999 V2000
   13.3444   23.6093    4.9108 C   0  0  0  0  0  0  0  0  0  0  0  0
   14.0282   24.7626    4.4607 O   0  0  0  0  0  0  0  0  0  0  0  0
   13.9225   24.8469    3.5002 H   0  0  0  0  0  0  0  0  0  0  0  0
   14.0143   22.3331    4.3649 C   0  0  0  0  0  0  0  0  0  0  0  0
   18.2889   19.4145    5.1620 C   0  0  0  0  0  0  0  0  0  0  0  0
   18.5095   19.6686    6.5154 C   0  0  0  0  0  0  0  0  0  0  0  0
   17.4514   19.9408    7.4420 C   0  0  0  0  0  0  0  0  0  0  0  0
   16.9727   19.4001    4.6998 C   0  0  0  0  0  0  0  0  0  0  0  0
   19.7606   19.6405    6.9457 F   0  0  0  0  0  0  0  0  0  0  0  0
   16.1126   19.9248    6.9794 C   0  0  0  0  0  0  0  0  0  0  0  0
   15.8967   19.6746    5.5930 C   0  0  0  0  0  0  0  0  0  0  0  0
   14.2741   19.6584    4.9047 S   0  0  0  0  0  0  0  0  0  0  0  0
   15.0080   20.2359    7.9777 C   0  0  0  0  0  0  0  0  0  0  0  0
   13.6740   21.1887    5.2387 N   0  0  0  0  0  0  0  0  0  0  0  0
   14.1784   21.5122    7.7200 C   0  0  0  0  0  0  0  0  0  0  0  0
   13.1441   21.4818    6.5866 C   0  0  0  0  0  0  0  0  0  0  0  0
   13.3798   21.9185    8.9625 C   0  0  0  0  0  0  0  0  0  0  0  0
   13.5507   18.7470    5.6510 O   0  0  0  0  0  0  0  0  0  0  0  0
   14.3801   19.6064    3.4591 O   0  0  0  0  0  0  0  0  0  0  0  0
   11.8516   23.8313    4.6406 C   0  0  0  0  0  0  0  0  0  0  0  0
   11.3278   24.9098    5.5614 N   0  0  0  0  0  0  0  0  0  0  0  0
   10.5456   24.6190    6.6247 C   0  0  0  0  0  0  0  0  0  0  0  0
   10.2272   23.4614    6.8987 O   0  0  0  0  0  0  0  0  0  0  0  0
   11.5626   25.8489    5.3817 H   0  0  0  0  0  0  0  0  0  0  0  0
   10.2091   25.7946    7.2827 O   0  0  0  0  0  0  0  0  0  0  0  0
    8.8406   26.1500    7.4877 C   0  0  0  0  0  0  0  0  0  0  0  0
    8.2531   25.2282    8.5596 C   0  0  0  0  0  0  0  0  0  0  0  0
    8.8103   27.5884    8.0150 C   0  0  0  0  0  0  0  0  0  0  0  0
    8.1367   26.1162    6.1213 C   0  0  0  0  0  0  0  0  0  0  0  0
   11.4662   24.1123    3.1914 C   0  0  0  0  0  0  0  0  0  0  0  0
   10.0689   23.6686    3.0015 C   0  0  0  0  0  0  0  0  0  0  0  0
    9.0605   24.6334    2.8055 C   0  0  0  0  0  0  0  0  0  0  0  0
    7.7582   24.1872    2.5863 C   0  0  0  0  0  0  0  0  0  0  0  0
    7.4576   22.8098    2.5548 C   0  0  0  0  0  0  0  0  0  0  0  0
    8.4739   21.8385    2.7427 C   0  0  0  0  0  0  0  0  0  0  0  0
    9.7775   22.2775    2.9767 C   0  0  0  0  0  0  0  0  0  0  0  0
  5  8  2  0  0  0
  5  6  1  0  0  0
  9  6  1  0  0  0
  6  7  2  0  0  0
  7 10  1  0  0  0
  8 11  1  0  0  0
 11 10  2  0  0  0
 10 13  1  0  0  0
 11 12  1  0  0  0
 19 12  2  0  0  0
 12 14  1  0  0  0
 12 18  2  0  0  0
 13 15  1  0  0  0
  4 14  1  0  0  0
 14 16  1  0  0  0
 16 15  1  0  0  0
 15 17  1  0  0  0
  4  1  1  0  0  0
  2  1  1  0  0  0
 20  1  1  0  0  0
 30 20  1  0  0  0
 20 21  1  0  0  0
 21 22  1  0  0  0
 31 30  1  0  0  0
 36 31  2  0  0  0
 31 32  1  0  0  0
 33 32  2  0  0  0
 34 33  1  0  0  0
 35 34  2  0  0  0
 35 36  1  0  0  0
 22 25  1  0  0  0
 22 23  2  0  0  0
 25 26  1  0  0  0
 26 28  1  0  0  0
 26 29  1  0  0  0
 26 27  1  0  0  0
 21 24  1  0  0  0
  2  3  1  0  0  0
M  END
> <minimizedAffinity>
-9.01319

$$$$
3TH9_9Y9_A_100


 36 38  0  0  0  0  0  0  0  0999 V2000
   13.6903   23.4008    4.8584 C   0  0  0  0  0  0  0  0  0  0  0  0
   14.8466   24.1900    4.6573 O   0  0  0  0  0  0  0  0  0  0  0  0
   14.9805   24.7687    5.4242 H   0  0  0  0  0  0  0  0  0  0  0  0
   12.4259   24.2821    4.8651 C   0  0  0  0  0  0  0  0  0  0  0  0
    8.1074   27.2439    4.7986 C   0  0  0  0  0  0  0  0  0  0  0  0
    7.4290   26.6630    3.7276 C   0  0  0  0  0  0  0  0  0  0  0  0
    7.5426   25.2751    3.3909 C   0  0  0  0  0  0  0  0  0  0  0  0
    8.9122   26.4254    5.5914 C   0  0  0  0  0  0  0  0  0  0  0  0
    6.6394   27.4447    3.0088 F   0  0  0  0  0  0  0  0  0  0  0  0
    8.3560   24.4382    4.1938 C   0  0  0  0  0  0  0  0  0  0  0  0
    9.0540   25.0420    5.2799 C   0  0  0  0  0  0  0  0  0  0  0  0
   10.1143   24.1005    6.3269 S   0  0  0  0  0  0  0  0  0  0  0  0
    8.4762   22.9726    3.8048 C   0  0  0  0  0  0  0  0  0  0  0  0
   11.2629   23.4676    5.2811 N   0  0  0  0  0  0  0  0  0  0  0  0
    9.8761   22.4798    3.3792 C   0  0  0  0  0  0  0  0  0  0  0  0
   10.9309   22.2745    4.4749 C   0  0  0  0  0  0  0  0  0  0  0  0
    9.7969   21.1298    2.6598 C   0  0  0  0  0  0  0  0  0  0  0  0
    9.3498   23.0515    6.8023 O   0  0  0  0  0  0  0  0  0  0  0  0
   10.8509   25.0090    7.1847 O   0  0  0  0  0  0  0  0  0  0  0  0
   13.9627   22.4939    6.0642 C   0  0  0  0  0  0  0  0  0  0  0  0
   13.9148   21.0473    5.6276 N   0  0  0  0  0  0  0  0  0  0  0  0
   14.2932   20.6658    4.3872 C   0  0  0  0  0  0  0  0  0  0  0  0
   14.7012   21.4768    3.5552 O   0  0  0  0  0  0  0  0  0  0  0  0
   13.5996   20.3650    6.2635 H   0  0  0  0  0  0  0  0  0  0  0  0
   14.1391   19.2914    4.2623 O   0  0  0  0  0  0  0  0  0  0  0  0
   15.2348   18.4682    3.8588 C   0  0  0  0  0  0  0  0  0  0  0  0
   16.4828   18.9052    4.6304 C   0  0  0  0  0  0  0  0  0  0  0  0
   14.8999   17.0261    4.2543 C   0  0  0  0  0  0  0  0  0  0  0  0
   15.3388   18.5424    2.3267 C   0  0  0  0  0  0  0  0  0  0  0  0
   15.2365   22.7876    6.8510 C   0  0  0  0  0  0  0  0  0  0  0  0
   15.3954   21.7248    7.8662 C   0  0  0  0  0  0  0  0  0  0  0  0
   14.3854   21.5373    8.8311 C   0  0  0  0  0  0  0  0  0  0  0  0
   14.5396   20.5010    9.7505 C   0  0  0  0  0  0  0  0  0  0  0  0
   15.6703   19.6591    9.7137 C   0  0  0  0  0  0  0  0  0  0  0  0
   16.6822   19.8416    8.7369 C   0  0  0  0  0  0  0  0  0  0  0  0
   16.5419   20.8857    7.8219 C   0  0  0  0  0  0  0  0  0  0  0  0
  5  8  2  0  0  0
  5  6  1  0  0  0
  9  6  1  0  0  0
  6  7  2  0  0  0
  7 10  1  0  0  0
  8 11  1  0  0  0
 11 10  2  0  0  0
 10 13  1  0  0  0
 11 12  1  0  0  0
 19 12  2  0  0  0
 12 14  1  0  0  0
 12 18  2  0  0  0
 13 15  1  0  0  0
  4 14  1  0  0  0
 14 16  1  0  0  0
 16 15  1  0  0  0
 15 17  1  0  0  0
  4  1  1  0  0  0
  2  1  1  0  0  0
 20  1  1  0  0  0
 30 20  1  0  0  0
 20 21  1  0  0  0
 21 22  1  0  0  0
 31 30  1  0  0  0
 36 31  2  0  0  0
 31 32  1  0  0  0
 33 32  2  0  0  0
 34 33  1  0  0  0
 35 34  2  0  0  0
 35 36  1  0  0  0
 22 25  1  0  0  0
 22 23  2  0  0  0
 25 26  1  0  0  0
 26 28  1  0  0  0
 26 29  1  0  0  0
 26 27  1  0  0  0
 21 24  1  0  0  0
  2  3  1  0  0  0
M  END
> <minimizedAffinity>
-8.36590

$$$$
