2XJ7_GC2_A_1000


 20 21  0  0  0  0  0  0  0  0999 V2000
    2.3206  -31.0048   33.8864 C   0  0  0  0  0  0  0  0  0  0  0  0
    2.1696  -32.1726   34.8986 C   0  0  0  0  0  0  0  0  0  0  0  0
    3.4406  -32.4950   35.4257 O   0  0  0  0  0  0  0  0  0  0  0  0
    1.2325  -31.7614   36.0300 C   0  0  0  0  0  0  0  0  0  0  0  0
    1.1510  -32.7967   36.9860 O   0  0  0  0  0  0  0  0  0  0  0  0
    1.1433  -30.0068   34.0596 C   0  0  0  0  0  0  0  0  0  0  0  0
   -0.1521  -30.6854   34.2519 N   0  0  0  0  0  0  0  0  0  0  0  0
   -0.1758  -31.6012   35.4185 C   0  0  0  0  0  0  0  0  0  0  0  0
   -1.3363  -29.8034   34.3058 C   0  0  0  0  0  0  0  0  0  0  0  0
   -2.2126  -30.3237   35.4609 C   0  0  0  0  0  0  0  0  0  0  0  0
   -1.2028  -30.9969   36.3985 C   0  0  0  0  0  0  0  0  0  0  0  0
   -0.5790  -29.9918   37.2175 O   0  0  0  0  0  0  0  0  0  0  0  0
    3.8101  -31.7194   35.8760 H   0  0  0  0  0  0  0  0  0  0  0  0
    0.8282  -33.6059   36.5595 H   0  0  0  0  0  0  0  0  0  0  0  0
   -0.1783  -29.3150   36.6498 H   0  0  0  0  0  0  0  0  0  0  0  0
    0.3898  -32.6985   32.3897 O   0  0  0  0  0  0  0  0  0  0  0  0
    1.5278  -32.4732   31.9277 C   0  0  0  0  0  0  0  0  0  0  0  0
    1.9424  -33.0212   30.5603 C   0  0  0  0  0  0  0  0  0  0  0  0
    2.4426  -31.6570   32.5577 N   0  0  0  0  0  0  0  0  0  0  0  0
    3.2787  -31.4855   32.0670 H   0  0  0  0  0  0  0  0  0  0  0  0
 16 17  2  0  0  0
 17 18  1  0  0  0
 17 19  1  0  0  0
 19  1  1  0  0  0
  1  2  1  0  0  0
  1  6  1  0  0  0
  2  3  1  0  0  0
  2  4  1  0  0  0
  4  5  1  0  0  0
  4  8  1  0  0  0
  6  7  1  0  0  0
  7  8  1  0  0  0
  7  9  1  0  0  0
  8 11  1  0  0  0
  9 10  1  0  0  0
 10 11  1  0  0  0
 11 12  1  0  0  0
 19 20  1  0  0  0
  3 13  1  0  0  0
  5 14  1  0  0  0
 12 15  1  0  0  0
M  END
> <minimizedAffinity>
-9.73374

$$$$
2XJ7_GC2_A_1000


 20 21  0  0  0  0  0  0  0  0999 V2000
    2.3805  -31.4841   34.3855 C   0  0  0  0  0  0  0  0  0  0  0  0
    1.2726  -32.3948   34.9806 C   0  0  0  0  0  0  0  0  0  0  0  0
    1.8773  -33.4957   35.6285 O   0  0  0  0  0  0  0  0  0  0  0  0
    0.4338  -31.6061   35.9815 C   0  0  0  0  0  0  0  0  0  0  0  0
   -0.5278  -32.4524   36.5742 O   0  0  0  0  0  0  0  0  0  0  0  0
    2.0054  -29.9929   34.6040 C   0  0  0  0  0  0  0  0  0  0  0  0
    0.5781  -29.7234   34.3469 N   0  0  0  0  0  0  0  0  0  0  0  0
   -0.3398  -30.5355   35.1824 C   0  0  0  0  0  0  0  0  0  0  0  0
    0.1702  -28.3052   34.4194 C   0  0  0  0  0  0  0  0  0  0  0  0
   -1.1619  -28.2758   35.1924 C   0  0  0  0  0  0  0  0  0  0  0  0
   -1.0874  -29.5257   36.0779 C   0  0  0  0  0  0  0  0  0  0  0  0
   -0.3081  -29.2260   37.2496 O   0  0  0  0  0  0  0  0  0  0  0  0
    2.4531  -33.1754   36.3404 H   0  0  0  0  0  0  0  0  0  0  0  0
   -1.0952  -32.8303   35.8841 H   0  0  0  0  0  0  0  0  0  0  0  0
    0.5643  -28.8967   36.9823 H   0  0  0  0  0  0  0  0  0  0  0  0
    0.3597  -32.5266   32.4708 O   0  0  0  0  0  0  0  0  0  0  0  0
    1.5622  -32.4468   32.1440 C   0  0  0  0  0  0  0  0  0  0  0  0
    2.0207  -32.8371   30.7370 C   0  0  0  0  0  0  0  0  0  0  0  0
    2.5304  -31.9269   32.9758 N   0  0  0  0  0  0  0  0  0  0  0  0
    3.4311  -31.8383   32.5883 H   0  0  0  0  0  0  0  0  0  0  0  0
 16 17  2  0  0  0
 17 18  1  0  0  0
 17 19  1  0  0  0
 19  1  1  0  0  0
  1  2  1  0  0  0
  1  6  1  0  0  0
  2  3  1  0  0  0
  2  4  1  0  0  0
  4  5  1  0  0  0
  4  8  1  0  0  0
  6  7  1  0  0  0
  7  8  1  0  0  0
  7  9  1  0  0  0
  8 11  1  0  0  0
  9 10  1  0  0  0
 10 11  1  0  0  0
 11 12  1  0  0  0
 19 20  1  0  0  0
  3 13  1  0  0  0
  5 14  1  0  0  0
 12 15  1  0  0  0
M  END
> <minimizedAffinity>
-8.90136

$$$$
2XJ7_GC2_A_1000


 20 21  0  0  0  0  0  0  0  0999 V2000
    0.1120  -28.7537   35.2241 C   0  0  0  0  0  0  0  0  0  0  0  0
    0.1009  -29.7191   36.4402 C   0  0  0  0  0  0  0  0  0  0  0  0
   -1.0760  -29.5023   37.1920 O   0  0  0  0  0  0  0  0  0  0  0  0
    0.1428  -31.1651   35.9558 C   0  0  0  0  0  0  0  0  0  0  0  0
    0.0614  -32.0431   37.0581 O   0  0  0  0  0  0  0  0  0  0  0  0
    0.6395  -29.5000   33.9684 C   0  0  0  0  0  0  0  0  0  0  0  0
    1.7980  -30.3631   34.2664 N   0  0  0  0  0  0  0  0  0  0  0  0
    1.5249  -31.3866   35.3047 C   0  0  0  0  0  0  0  0  0  0  0  0
    2.4291  -31.0146   33.1000 C   0  0  0  0  0  0  0  0  0  0  0  0
    2.7140  -32.4697   33.5173 C   0  0  0  0  0  0  0  0  0  0  0  0
    1.6524  -32.7472   34.5887 C   0  0  0  0  0  0  0  0  0  0  0  0
    0.4124  -33.0899   33.9443 O   0  0  0  0  0  0  0  0  0  0  0  0
   -1.8516  -29.6715   36.6346 H   0  0  0  0  0  0  0  0  0  0  0  0
    0.7986  -31.8701   37.6643 H   0  0  0  0  0  0  0  0  0  0  0  0
    0.1592  -32.3809   33.3327 H   0  0  0  0  0  0  0  0  0  0  0  0
   -0.6645  -26.4632   36.9524 O   0  0  0  0  0  0  0  0  0  0  0  0
    0.4731  -26.5150   36.4402 C   0  0  0  0  0  0  0  0  0  0  0  0
    1.5125  -25.4285   36.7254 C   0  0  0  0  0  0  0  0  0  0  0  0
    0.8994  -27.5764   35.6711 N   0  0  0  0  0  0  0  0  0  0  0  0
    1.8404  -27.5510   35.3831 H   0  0  0  0  0  0  0  0  0  0  0  0
 16 17  2  0  0  0
 17 18  1  0  0  0
 17 19  1  0  0  0
 19  1  1  0  0  0
  1  2  1  0  0  0
  1  6  1  0  0  0
  2  3  1  0  0  0
  2  4  1  0  0  0
  4  5  1  0  0  0
  4  8  1  0  0  0
  6  7  1  0  0  0
  7  8  1  0  0  0
  7  9  1  0  0  0
  8 11  1  0  0  0
  9 10  1  0  0  0
 10 11  1  0  0  0
 11 12  1  0  0  0
 19 20  1  0  0  0
  3 13  1  0  0  0
  5 14  1  0  0  0
 12 15  1  0  0  0
M  END
> <minimizedAffinity>
-7.64467

$$$$
2XJ7_GC2_A_1000


 20 21  0  0  0  0  0  0  0  0999 V2000
    0.3776  -28.2169   35.5438 C   0  0  0  0  0  0  0  0  0  0  0  0
   -0.7817  -29.1501   35.9869 C   0  0  0  0  0  0  0  0  0  0  0  0
   -2.0088  -28.4642   35.8417 O   0  0  0  0  0  0  0  0  0  0  0  0
   -0.7917  -30.4102   35.1270 C   0  0  0  0  0  0  0  0  0  0  0  0
   -1.8877  -31.2254   35.4829 O   0  0  0  0  0  0  0  0  0  0  0  0
    1.4252  -29.0311   34.7365 C   0  0  0  0  0  0  0  0  0  0  0  0
    1.6967  -30.3534   35.3310 N   0  0  0  0  0  0  0  0  0  0  0  0
    0.4884  -31.2030   35.4673 C   0  0  0  0  0  0  0  0  0  0  0  0
    2.7692  -31.1386   34.6858 C   0  0  0  0  0  0  0  0  0  0  0  0
    2.2477  -32.5845   34.5849 C   0  0  0  0  0  0  0  0  0  0  0  0
    0.7247  -32.4111   34.5372 C   0  0  0  0  0  0  0  0  0  0  0  0
    0.3299  -32.0893   33.1916 O   0  0  0  0  0  0  0  0  0  0  0  0
   -2.1304  -28.2121   34.9130 H   0  0  0  0  0  0  0  0  0  0  0  0
   -1.8249  -31.4598   36.4220 H   0  0  0  0  0  0  0  0  0  0  0  0
    0.8118  -31.3023   32.8927 H   0  0  0  0  0  0  0  0  0  0  0  0
   -0.7250  -25.9250   37.0826 O   0  0  0  0  0  0  0  0  0  0  0  0
    0.3323  -26.4824   37.4439 C   0  0  0  0  0  0  0  0  0  0  0  0
    1.0624  -26.0339   38.7120 C   0  0  0  0  0  0  0  0  0  0  0  0
    0.8601  -27.5776   36.7945 N   0  0  0  0  0  0  0  0  0  0  0  0
    1.6535  -27.9858   37.2104 H   0  0  0  0  0  0  0  0  0  0  0  0
 16 17  2  0  0  0
 17 18  1  0  0  0
 17 19  1  0  0  0
 19  1  1  0  0  0
  1  2  1  0  0  0
  1  6  1  0  0  0
  2  3  1  0  0  0
  2  4  1  0  0  0
  4  5  1  0  0  0
  4  8  1  0  0  0
  6  7  1  0  0  0
  7  8  1  0  0  0
  7  9  1  0  0  0
  8 11  1  0  0  0
  9 10  1  0  0  0
 10 11  1  0  0  0
 11 12  1  0  0  0
 19 20  1  0  0  0
  3 13  1  0  0  0
  5 14  1  0  0  0
 12 15  1  0  0  0
M  END
> <minimizedAffinity>
-7.28801

$$$$
2XJ7_GC2_A_1000


 20 21  0  0  0  0  0  0  0  0999 V2000
    0.8470  -30.4257   35.1852 C   0  0  0  0  0  0  0  0  0  0  0  0
   -0.6178  -29.9560   34.9738 C   0  0  0  0  0  0  0  0  0  0  0  0
   -1.4934  -31.0261   35.2659 O   0  0  0  0  0  0  0  0  0  0  0  0
   -0.9226  -28.7764   35.8919 C   0  0  0  0  0  0  0  0  0  0  0  0
   -2.2743  -28.3950   35.7507 O   0  0  0  0  0  0  0  0  0  0  0  0
    1.6656  -29.2957   35.8672 C   0  0  0  0  0  0  0  0  0  0  0  0
    1.3659  -27.9630   35.3106 N   0  0  0  0  0  0  0  0  0  0  0  0
   -0.0661  -27.5880   35.4050 C   0  0  0  0  0  0  0  0  0  0  0  0
    2.1914  -26.8519   35.8273 C   0  0  0  0  0  0  0  0  0  0  0  0
    1.2275  -25.6781   36.0839 C   0  0  0  0  0  0  0  0  0  0  0  0
   -0.1140  -26.3712   36.3523 C   0  0  0  0  0  0  0  0  0  0  0  0
   -0.1520  -26.8073   37.7228 O   0  0  0  0  0  0  0  0  0  0  0  0
   -1.3698  -31.3027   36.1874 H   0  0  0  0  0  0  0  0  0  0  0  0
   -2.4478  -28.1555   34.8269 H   0  0  0  0  0  0  0  0  0  0  0  0
    0.6128  -27.3764   37.9024 H   0  0  0  0  0  0  0  0  0  0  0  0
    0.5574  -33.0402   33.8006 O   0  0  0  0  0  0  0  0  0  0  0  0
    1.1892  -32.1052   33.2660 C   0  0  0  0  0  0  0  0  0  0  0  0
    1.7894  -32.2625   31.8670 C   0  0  0  0  0  0  0  0  0  0  0  0
    1.3124  -30.8597   33.8432 N   0  0  0  0  0  0  0  0  0  0  0  0
    1.7638  -30.1741   33.2996 H   0  0  0  0  0  0  0  0  0  0  0  0
 16 17  2  0  0  0
 17 18  1  0  0  0
 17 19  1  0  0  0
 19  1  1  0  0  0
  1  2  1  0  0  0
  1  6  1  0  0  0
  2  3  1  0  0  0
  2  4  1  0  0  0
  4  5  1  0  0  0
  4  8  1  0  0  0
  6  7  1  0  0  0
  7  8  1  0  0  0
  7  9  1  0  0  0
  8 11  1  0  0  0
  9 10  1  0  0  0
 10 11  1  0  0  0
 11 12  1  0  0  0
 19 20  1  0  0  0
  3 13  1  0  0  0
  5 14  1  0  0  0
 12 15  1  0  0  0
M  END
> <minimizedAffinity>
-7.12672

$$$$
