4KXB_BES_A_1017


 27 27  0  0  0  0  0  0  0  0999 V2000
  -10.9586   37.6161   42.7656 C   0  0  0  0  0  0  0  0  0  0  0  0
   -9.7029   36.9465   42.9577 O   0  0  0  0  0  0  0  0  0  0  0  0
   -8.9811   37.5205   42.6570 H   0  0  0  0  0  0  0  0  0  0  0  0
   -9.7064   38.9433   44.3307 N   0  0  0  0  0  0  0  0  0  0  0  0
  -10.9290   38.9148   43.5524 C   0  0  0  0  0  0  0  0  0  0  0  0
   -9.6657   39.8091   44.8684 H   0  0  0  0  0  0  0  0  0  0  0  0
   -8.9031   38.8941   43.7040 H   0  0  0  0  0  0  0  0  0  0  0  0
  -12.1579   39.0261   44.4499 C   0  0  0  0  0  0  0  0  0  0  0  0
  -12.6107   40.4621   44.5685 C   0  0  0  0  0  0  0  0  0  0  0  0
  -13.0926   41.1380   43.4547 C   0  0  0  0  0  0  0  0  0  0  0  0
  -12.5506   41.1133   45.7979 C   0  0  0  0  0  0  0  0  0  0  0  0
  -13.5086   42.4631   43.5736 C   0  0  0  0  0  0  0  0  0  0  0  0
  -12.9636   42.4405   45.9149 C   0  0  0  0  0  0  0  0  0  0  0  0
  -13.4475   43.1204   44.7999 C   0  0  0  0  0  0  0  0  0  0  0  0
  -11.1962   37.9327   41.3169 C   0  0  0  0  0  0  0  0  0  0  0  0
  -10.4363   38.6605   40.7252 O   0  0  0  0  0  0  0  0  0  0  0  0
  -12.2594   37.4026   40.7258 N   0  0  0  0  0  0  0  0  0  0  0  0
  -12.7856   36.7273   41.2119 H   0  0  0  0  0  0  0  0  0  0  0  0
  -12.6732   37.7825   39.3902 C   0  0  0  0  0  0  0  0  0  0  0  0
  -14.0984   38.2480   39.3700 C   0  0  0  0  0  0  0  0  0  0  0  0
  -14.5334   38.8311   40.3841 O   0  0  0  0  0  0  0  0  0  0  0  0
  -14.7957   38.0500   38.3481 O   0  0  0  0  0  0  0  0  0  0  0  0
  -13.9764   38.9577   41.1268 H   0  0  0  0  0  0  0  0  0  0  0  0
  -12.4524   36.6252   38.4198 C   0  0  0  0  0  0  0  0  0  0  0  0
  -11.2382   36.8404   37.5174 C   0  0  0  0  0  0  0  0  0  0  0  0
  -11.3640   36.0135   36.2464 C   0  0  0  0  0  0  0  0  0  0  0  0
  -11.0292   38.3058   37.1534 C   0  0  0  0  0  0  0  0  0  0  0  0
  4  5  1  0  0  0
  5  8  1  0  0  0
  5  1  1  0  0  0
  8  9  1  0  0  0
  9 10  2  0  0  0
  9 11  1  0  0  0
 10 12  1  0  0  0
 11 13  2  0  0  0
 12 14  2  0  0  0
 13 14  1  0  0  0
  1  2  1  0  0  0
  1 15  1  0  0  0
 15 16  2  0  0  0
 15 17  1  0  0  0
 17 19  1  0  0  0
 19 24  1  0  0  0
 19 20  1  0  0  0
 24 25  1  0  0  0
 25 26  1  0  0  0
 25 27  1  0  0  0
 20 21  1  0  0  0
 20 22  2  0  0  0
  4  6  1  0  0  0
  4  7  1  0  0  0
  2  3  1  0  0  0
 17 18  1  0  0  0
 21 23  1  0  0  0
M  END
> <minimizedAffinity>
-9.48391

$$$$
4KXB_BES_A_1017


 27 27  0  0  0  0  0  0  0  0999 V2000
  -13.9045   38.6171   39.9597 C   0  0  0  0  0  0  0  0  0  0  0  0
  -14.3210   39.4169   38.8422 O   0  0  0  0  0  0  0  0  0  0  0  0
  -13.5397   39.7397   38.3665 H   0  0  0  0  0  0  0  0  0  0  0  0
  -13.0200   36.4376   40.4560 N   0  0  0  0  0  0  0  0  0  0  0  0
  -13.0702   37.4629   39.4324 C   0  0  0  0  0  0  0  0  0  0  0  0
  -12.4632   35.6508   40.1221 H   0  0  0  0  0  0  0  0  0  0  0  0
  -13.9663   36.1197   40.6655 H   0  0  0  0  0  0  0  0  0  0  0  0
  -11.6697   37.9401   39.0594 C   0  0  0  0  0  0  0  0  0  0  0  0
  -11.3229   37.5406   37.6447 C   0  0  0  0  0  0  0  0  0  0  0  0
  -11.4895   36.2259   37.2282 C   0  0  0  0  0  0  0  0  0  0  0  0
  -10.8382   38.4914   36.7502 C   0  0  0  0  0  0  0  0  0  0  0  0
  -11.1672   35.8663   35.9206 C   0  0  0  0  0  0  0  0  0  0  0  0
  -10.5123   38.1296   35.4430 C   0  0  0  0  0  0  0  0  0  0  0  0
  -10.6788   36.8124   35.0227 C   0  0  0  0  0  0  0  0  0  0  0  0
  -13.0745   39.4131   40.9256 C   0  0  0  0  0  0  0  0  0  0  0  0
  -12.7332   40.5366   40.6456 O   0  0  0  0  0  0  0  0  0  0  0  0
  -12.7263   38.8419   42.0716 N   0  0  0  0  0  0  0  0  0  0  0  0
  -13.1201   37.9708   42.3069 H   0  0  0  0  0  0  0  0  0  0  0  0
  -11.7869   39.4547   42.9889 C   0  0  0  0  0  0  0  0  0  0  0  0
  -10.6087   38.5629   43.2432 C   0  0  0  0  0  0  0  0  0  0  0  0
   -9.9349   38.7701   44.2730 O   0  0  0  0  0  0  0  0  0  0  0  0
  -10.3463   37.6444   42.4326 O   0  0  0  0  0  0  0  0  0  0  0  0
  -10.1673   39.4691   44.8522 H   0  0  0  0  0  0  0  0  0  0  0  0
  -12.4896   39.8325   44.2901 C   0  0  0  0  0  0  0  0  0  0  0  0
  -12.4541   41.3360   44.5603 C   0  0  0  0  0  0  0  0  0  0  0  0
  -13.4640   42.0605   43.6826 C   0  0  0  0  0  0  0  0  0  0  0  0
  -12.7137   41.6763   46.0234 C   0  0  0  0  0  0  0  0  0  0  0  0
  4  5  1  0  0  0
  5  8  1  0  0  0
  5  1  1  0  0  0
  8  9  1  0  0  0
  9 10  2  0  0  0
  9 11  1  0  0  0
 10 12  1  0  0  0
 11 13  2  0  0  0
 12 14  2  0  0  0
 13 14  1  0  0  0
  1  2  1  0  0  0
  1 15  1  0  0  0
 15 16  2  0  0  0
 15 17  1  0  0  0
 17 19  1  0  0  0
 19 24  1  0  0  0
 19 20  1  0  0  0
 24 25  1  0  0  0
 25 26  1  0  0  0
 25 27  1  0  0  0
 20 21  1  0  0  0
 20 22  2  0  0  0
  4  6  1  0  0  0
  4  7  1  0  0  0
  2  3  1  0  0  0
 17 18  1  0  0  0
 21 23  1  0  0  0
M  END
> <minimizedAffinity>
-8.76445

$$$$
4KXB_BES_A_1017


 27 27  0  0  0  0  0  0  0  0999 V2000
  -12.3352   37.6737   40.4942 C   0  0  0  0  0  0  0  0  0  0  0  0
  -13.0624   36.4585   40.2571 O   0  0  0  0  0  0  0  0  0  0  0  0
  -13.9401   36.6708   39.9029 H   0  0  0  0  0  0  0  0  0  0  0  0
  -12.6067   39.8047   39.4152 N   0  0  0  0  0  0  0  0  0  0  0  0
  -12.2266   38.4258   39.1793 C   0  0  0  0  0  0  0  0  0  0  0  0
  -12.5409   40.3295   38.5431 H   0  0  0  0  0  0  0  0  0  0  0  0
  -11.9810   40.2162   40.1077 H   0  0  0  0  0  0  0  0  0  0  0  0
  -13.1142   37.7819   38.1183 C   0  0  0  0  0  0  0  0  0  0  0  0
  -12.3089   37.4066   36.8969 C   0  0  0  0  0  0  0  0  0  0  0  0
  -11.7186   36.1524   36.8064 C   0  0  0  0  0  0  0  0  0  0  0  0
  -12.1588   38.3164   35.8535 C   0  0  0  0  0  0  0  0  0  0  0  0
  -10.9773   35.8145   35.6752 C   0  0  0  0  0  0  0  0  0  0  0  0
  -11.4137   37.9787   34.7237 C   0  0  0  0  0  0  0  0  0  0  0  0
  -10.8211   36.7219   34.6302 C   0  0  0  0  0  0  0  0  0  0  0  0
  -13.0361   38.5468   41.4952 C   0  0  0  0  0  0  0  0  0  0  0  0
  -14.2399   38.5216   41.5804 O   0  0  0  0  0  0  0  0  0  0  0  0
  -12.2976   39.3412   42.2596 N   0  0  0  0  0  0  0  0  0  0  0  0
  -11.3180   39.2464   42.2361 H   0  0  0  0  0  0  0  0  0  0  0  0
  -12.8820   40.3433   43.1277 C   0  0  0  0  0  0  0  0  0  0  0  0
  -13.4641   41.4784   42.3397 C   0  0  0  0  0  0  0  0  0  0  0  0
  -14.5804   41.3050   41.8092 O   0  0  0  0  0  0  0  0  0  0  0  0
  -12.8273   42.5534   42.2475 O   0  0  0  0  0  0  0  0  0  0  0  0
  -15.0216   40.4838   41.9039 H   0  0  0  0  0  0  0  0  0  0  0  0
  -11.8468   40.8384   44.1343 C   0  0  0  0  0  0  0  0  0  0  0  0
  -12.3998   40.9089   45.5570 C   0  0  0  0  0  0  0  0  0  0  0  0
  -12.9766   42.2886   45.8381 C   0  0  0  0  0  0  0  0  0  0  0  0
  -13.4603   39.8482   45.8284 C   0  0  0  0  0  0  0  0  0  0  0  0
  4  5  1  0  0  0
  5  8  1  0  0  0
  5  1  1  0  0  0
  8  9  1  0  0  0
  9 10  2  0  0  0
  9 11  1  0  0  0
 10 12  1  0  0  0
 11 13  2  0  0  0
 12 14  2  0  0  0
 13 14  1  0  0  0
  1  2  1  0  0  0
  1 15  1  0  0  0
 15 16  2  0  0  0
 15 17  1  0  0  0
 17 19  1  0  0  0
 19 24  1  0  0  0
 19 20  1  0  0  0
 24 25  1  0  0  0
 25 26  1  0  0  0
 25 27  1  0  0  0
 20 21  1  0  0  0
 20 22  2  0  0  0
  4  6  1  0  0  0
  4  7  1  0  0  0
  2  3  1  0  0  0
 17 18  1  0  0  0
 21 23  1  0  0  0
M  END
> <minimizedAffinity>
-8.21546

$$$$
4KXB_BES_A_1017


 27 27  0  0  0  0  0  0  0  0999 V2000
  -14.0175   39.2941   40.7875 C   0  0  0  0  0  0  0  0  0  0  0  0
  -14.1308   38.1796   41.6859 O   0  0  0  0  0  0  0  0  0  0  0  0
  -13.3091   38.0887   42.1934 H   0  0  0  0  0  0  0  0  0  0  0  0
  -13.1592   41.5390   40.7359 N   0  0  0  0  0  0  0  0  0  0  0  0
  -13.7425   40.5407   41.6102 C   0  0  0  0  0  0  0  0  0  0  0  0
  -12.9659   42.3868   41.2691 H   0  0  0  0  0  0  0  0  0  0  0  0
  -13.8115   41.7531   39.9815 H   0  0  0  0  0  0  0  0  0  0  0  0
  -12.8143   40.2187   42.7777 C   0  0  0  0  0  0  0  0  0  0  0  0
  -12.9683   41.2341   43.8850 C   0  0  0  0  0  0  0  0  0  0  0  0
  -12.3717   41.0176   45.1207 C   0  0  0  0  0  0  0  0  0  0  0  0
  -13.7065   42.3950   43.6694 C   0  0  0  0  0  0  0  0  0  0  0  0
  -12.5190   41.9604   46.1369 C   0  0  0  0  0  0  0  0  0  0  0  0
  -13.8564   43.3359   44.6882 C   0  0  0  0  0  0  0  0  0  0  0  0
  -13.2591   43.1216   45.9278 C   0  0  0  0  0  0  0  0  0  0  0  0
  -12.8931   39.1003   39.8111 C   0  0  0  0  0  0  0  0  0  0  0  0
  -11.7831   38.8450   40.2109 O   0  0  0  0  0  0  0  0  0  0  0  0
  -13.1573   39.2299   38.5171 N   0  0  0  0  0  0  0  0  0  0  0  0
  -14.0946   39.3250   38.2311 H   0  0  0  0  0  0  0  0  0  0  0  0
  -12.1153   39.2365   37.5103 C   0  0  0  0  0  0  0  0  0  0  0  0
  -12.0412   40.5590   36.8075 C   0  0  0  0  0  0  0  0  0  0  0  0
  -11.6783   40.5627   35.6135 O   0  0  0  0  0  0  0  0  0  0  0  0
  -12.3510   41.6029   37.4272 O   0  0  0  0  0  0  0  0  0  0  0  0
  -11.4556   39.7576   35.1890 H   0  0  0  0  0  0  0  0  0  0  0  0
  -12.3286   38.0928   36.5223 C   0  0  0  0  0  0  0  0  0  0  0  0
  -11.2937   36.9799   36.6817 C   0  0  0  0  0  0  0  0  0  0  0  0
  -11.6783   36.0527   37.8252 C   0  0  0  0  0  0  0  0  0  0  0  0
  -11.1054   36.1658   35.4068 C   0  0  0  0  0  0  0  0  0  0  0  0
  4  5  1  0  0  0
  5  8  1  0  0  0
  5  1  1  0  0  0
  8  9  1  0  0  0
  9 10  2  0  0  0
  9 11  1  0  0  0
 10 12  1  0  0  0
 11 13  2  0  0  0
 12 14  2  0  0  0
 13 14  1  0  0  0
  1  2  1  0  0  0
  1 15  1  0  0  0
 15 16  2  0  0  0
 15 17  1  0  0  0
 17 19  1  0  0  0
 19 24  1  0  0  0
 19 20  1  0  0  0
 24 25  1  0  0  0
 25 26  1  0  0  0
 25 27  1  0  0  0
 20 21  1  0  0  0
 20 22  2  0  0  0
  4  6  1  0  0  0
  4  7  1  0  0  0
  2  3  1  0  0  0
 17 18  1  0  0  0
 21 23  1  0  0  0
M  END
> <minimizedAffinity>
-8.07741

$$$$
4KXB_BES_A_1017


 27 27  0  0  0  0  0  0  0  0999 V2000
  -12.8279   38.0208   40.1256 C   0  0  0  0  0  0  0  0  0  0  0  0
  -13.1513   36.6275   40.2520 O   0  0  0  0  0  0  0  0  0  0  0  0
  -14.1151   36.5198   40.2726 H   0  0  0  0  0  0  0  0  0  0  0  0
  -14.4967   37.6079   38.4452 N   0  0  0  0  0  0  0  0  0  0  0  0
  -13.4633   38.5414   38.8482 C   0  0  0  0  0  0  0  0  0  0  0  0
  -14.9378   37.9388   37.5871 H   0  0  0  0  0  0  0  0  0  0  0  0
  -15.1978   37.5376   39.1827 H   0  0  0  0  0  0  0  0  0  0  0  0
  -12.4117   38.7071   37.7551 C   0  0  0  0  0  0  0  0  0  0  0  0
  -12.2753   40.1566   37.3535 C   0  0  0  0  0  0  0  0  0  0  0  0
  -11.6721   40.4950   36.1488 C   0  0  0  0  0  0  0  0  0  0  0  0
  -12.7584   41.1606   38.1889 C   0  0  0  0  0  0  0  0  0  0  0  0
  -11.5508   41.8355   35.7860 C   0  0  0  0  0  0  0  0  0  0  0  0
  -12.6330   42.5017   37.8267 C   0  0  0  0  0  0  0  0  0  0  0  0
  -12.0291   42.8437   36.6193 C   0  0  0  0  0  0  0  0  0  0  0  0
  -13.3545   38.8143   41.2868 C   0  0  0  0  0  0  0  0  0  0  0  0
  -14.5390   38.8322   41.5187 O   0  0  0  0  0  0  0  0  0  0  0  0
  -12.4869   39.4926   42.0273 N   0  0  0  0  0  0  0  0  0  0  0  0
  -11.5239   39.3587   41.8725 H   0  0  0  0  0  0  0  0  0  0  0  0
  -12.9068   40.4231   43.0555 C   0  0  0  0  0  0  0  0  0  0  0  0
  -13.3783   41.7175   42.4632 C   0  0  0  0  0  0  0  0  0  0  0  0
  -14.3167   42.3098   43.0341 O   0  0  0  0  0  0  0  0  0  0  0  0
  -12.8180   42.1637   41.4353 O   0  0  0  0  0  0  0  0  0  0  0  0
  -14.7069   41.9393   43.8013 H   0  0  0  0  0  0  0  0  0  0  0  0
  -11.7770   40.6486   44.0568 C   0  0  0  0  0  0  0  0  0  0  0  0
  -12.2576   40.5879   45.5060 C   0  0  0  0  0  0  0  0  0  0  0  0
  -12.6352   41.9759   46.0021 C   0  0  0  0  0  0  0  0  0  0  0  0
  -13.4371   39.6409   45.6947 C   0  0  0  0  0  0  0  0  0  0  0  0
  4  5  1  0  0  0
  5  8  1  0  0  0
  5  1  1  0  0  0
  8  9  1  0  0  0
  9 10  2  0  0  0
  9 11  1  0  0  0
 10 12  1  0  0  0
 11 13  2  0  0  0
 12 14  2  0  0  0
 13 14  1  0  0  0
  1  2  1  0  0  0
  1 15  1  0  0  0
 15 16  2  0  0  0
 15 17  1  0  0  0
 17 19  1  0  0  0
 19 24  1  0  0  0
 19 20  1  0  0  0
 24 25  1  0  0  0
 25 26  1  0  0  0
 25 27  1  0  0  0
 20 21  1  0  0  0
 20 22  2  0  0  0
  4  6  1  0  0  0
  4  7  1  0  0  0
  2  3  1  0  0  0
 17 18  1  0  0  0
 21 23  1  0  0  0
M  END
> <minimizedAffinity>
-7.99449

$$$$
4KXB_BES_A_1017


 27 27  0  0  0  0  0  0  0  0999 V2000
  -12.6453   37.2683   39.2997 C   0  0  0  0  0  0  0  0  0  0  0  0
  -13.6660   36.4362   39.8722 O   0  0  0  0  0  0  0  0  0  0  0  0
  -14.4388   36.9789   40.0939 H   0  0  0  0  0  0  0  0  0  0  0  0
  -14.6559   37.7611   38.0777 N   0  0  0  0  0  0  0  0  0  0  0  0
  -13.2171   37.9367   38.0616 C   0  0  0  0  0  0  0  0  0  0  0  0
  -15.0617   38.2034   37.2530 H   0  0  0  0  0  0  0  0  0  0  0  0
  -15.0416   38.1909   38.9185 H   0  0  0  0  0  0  0  0  0  0  0  0
  -12.6019   37.3415   36.7985 C   0  0  0  0  0  0  0  0  0  0  0  0
  -11.6882   38.3366   36.1233 C   0  0  0  0  0  0  0  0  0  0  0  0
  -12.0733   39.6651   35.9950 C   0  0  0  0  0  0  0  0  0  0  0  0
  -10.4524   37.9261   35.6300 C   0  0  0  0  0  0  0  0  0  0  0  0
  -11.2234   40.5767   35.3707 C   0  0  0  0  0  0  0  0  0  0  0  0
   -9.6043   38.8383   35.0020 C   0  0  0  0  0  0  0  0  0  0  0  0
   -9.9878   40.1708   34.8724 C   0  0  0  0  0  0  0  0  0  0  0  0
  -12.1997   38.3316   40.2621 C   0  0  0  0  0  0  0  0  0  0  0  0
  -12.0158   39.4595   39.8734 O   0  0  0  0  0  0  0  0  0  0  0  0
  -12.0071   37.9888   41.5295 N   0  0  0  0  0  0  0  0  0  0  0  0
  -12.2776   37.0893   41.8245 H   0  0  0  0  0  0  0  0  0  0  0  0
  -11.4129   38.8915   42.4947 C   0  0  0  0  0  0  0  0  0  0  0  0
  -10.2436   38.2592   43.1884 C   0  0  0  0  0  0  0  0  0  0  0  0
   -9.8471   38.7804   44.2507 O   0  0  0  0  0  0  0  0  0  0  0  0
   -9.7148   37.2366   42.6942 O   0  0  0  0  0  0  0  0  0  0  0  0
  -10.2726   39.5457   44.5844 H   0  0  0  0  0  0  0  0  0  0  0  0
  -12.4652   39.3621   43.4952 C   0  0  0  0  0  0  0  0  0  0  0  0
  -12.3960   40.8663   43.7547 C   0  0  0  0  0  0  0  0  0  0  0  0
  -13.4337   41.6008   42.9187 C   0  0  0  0  0  0  0  0  0  0  0  0
  -12.5851   41.2180   45.2258 C   0  0  0  0  0  0  0  0  0  0  0  0
  4  5  1  0  0  0
  5  8  1  0  0  0
  5  1  1  0  0  0
  8  9  1  0  0  0
  9 10  2  0  0  0
  9 11  1  0  0  0
 10 12  1  0  0  0
 11 13  2  0  0  0
 12 14  2  0  0  0
 13 14  1  0  0  0
  1  2  1  0  0  0
  1 15  1  0  0  0
 15 16  2  0  0  0
 15 17  1  0  0  0
 17 19  1  0  0  0
 19 24  1  0  0  0
 19 20  1  0  0  0
 24 25  1  0  0  0
 25 26  1  0  0  0
 25 27  1  0  0  0
 20 21  1  0  0  0
 20 22  2  0  0  0
  4  6  1  0  0  0
  4  7  1  0  0  0
  2  3  1  0  0  0
 17 18  1  0  0  0
 21 23  1  0  0  0
M  END
> <minimizedAffinity>
-7.89605

$$$$
4KXB_BES_A_1017


 27 27  0  0  0  0  0  0  0  0999 V2000
  -13.7620   38.0810   40.1796 C   0  0  0  0  0  0  0  0  0  0  0  0
  -13.0059   37.0372   40.8126 O   0  0  0  0  0  0  0  0  0  0  0  0
  -12.0594   37.2408   40.7512 H   0  0  0  0  0  0  0  0  0  0  0  0
  -12.8194   40.2759   39.9098 N   0  0  0  0  0  0  0  0  0  0  0  0
  -13.4384   39.3909   40.8767 C   0  0  0  0  0  0  0  0  0  0  0  0
  -12.5931   41.1639   40.3577 H   0  0  0  0  0  0  0  0  0  0  0  0
  -13.4645   40.4396   39.1369 H   0  0  0  0  0  0  0  0  0  0  0  0
  -12.5209   39.1499   42.0718 C   0  0  0  0  0  0  0  0  0  0  0  0
  -12.7121   40.2179   43.1224 C   0  0  0  0  0  0  0  0  0  0  0  0
  -12.1866   40.0475   44.3969 C   0  0  0  0  0  0  0  0  0  0  0  0
  -13.4132   41.3812   42.8153 C   0  0  0  0  0  0  0  0  0  0  0  0
  -12.3676   41.0387   45.3603 C   0  0  0  0  0  0  0  0  0  0  0  0
  -13.5970   42.3706   43.7811 C   0  0  0  0  0  0  0  0  0  0  0  0
  -13.0710   42.2025   45.0596 C   0  0  0  0  0  0  0  0  0  0  0  0
  -13.4123   38.2074   38.7245 C   0  0  0  0  0  0  0  0  0  0  0  0
  -14.2533   38.5483   37.9286 O   0  0  0  0  0  0  0  0  0  0  0  0
  -12.1709   37.9235   38.3514 N   0  0  0  0  0  0  0  0  0  0  0  0
  -11.4919   37.7610   39.0455 H   0  0  0  0  0  0  0  0  0  0  0  0
  -11.7794   37.8444   36.9586 C   0  0  0  0  0  0  0  0  0  0  0  0
  -11.1464   36.5225   36.6420 C   0  0  0  0  0  0  0  0  0  0  0  0
  -10.3416   36.4771   35.6892 O   0  0  0  0  0  0  0  0  0  0  0  0
  -11.4319   35.5212   37.3389 O   0  0  0  0  0  0  0  0  0  0  0  0
  -10.1574   37.2512   35.1943 H   0  0  0  0  0  0  0  0  0  0  0  0
  -10.8524   39.0040   36.6039 C   0  0  0  0  0  0  0  0  0  0  0  0
  -11.5172   40.0248   35.6815 C   0  0  0  0  0  0  0  0  0  0  0  0
  -11.9986   41.2294   36.4768 C   0  0  0  0  0  0  0  0  0  0  0  0
  -10.5963   40.4899   34.5593 C   0  0  0  0  0  0  0  0  0  0  0  0
  4  5  1  0  0  0
  5  8  1  0  0  0
  5  1  1  0  0  0
  8  9  1  0  0  0
  9 10  2  0  0  0
  9 11  1  0  0  0
 10 12  1  0  0  0
 11 13  2  0  0  0
 12 14  2  0  0  0
 13 14  1  0  0  0
  1  2  1  0  0  0
  1 15  1  0  0  0
 15 16  2  0  0  0
 15 17  1  0  0  0
 17 19  1  0  0  0
 19 24  1  0  0  0
 19 20  1  0  0  0
 24 25  1  0  0  0
 25 26  1  0  0  0
 25 27  1  0  0  0
 20 21  1  0  0  0
 20 22  2  0  0  0
  4  6  1  0  0  0
  4  7  1  0  0  0
  2  3  1  0  0  0
 17 18  1  0  0  0
 21 23  1  0  0  0
M  END
> <minimizedAffinity>
-7.89428

$$$$
4KXB_BES_A_1017


 27 27  0  0  0  0  0  0  0  0999 V2000
  -13.0979   40.6654   39.4228 C   0  0  0  0  0  0  0  0  0  0  0  0
  -13.8863   41.8267   39.1202 O   0  0  0  0  0  0  0  0  0  0  0  0
  -14.8276   41.6114   39.2124 H   0  0  0  0  0  0  0  0  0  0  0  0
  -14.5678   39.3412   40.7885 N   0  0  0  0  0  0  0  0  0  0  0  0
  -13.4222   40.2280   40.8406 C   0  0  0  0  0  0  0  0  0  0  0  0
  -14.8036   39.0346   41.7323 H   0  0  0  0  0  0  0  0  0  0  0  0
  -14.3434   38.5293   40.2133 H   0  0  0  0  0  0  0  0  0  0  0  0
  -13.7013   41.4397   41.7249 C   0  0  0  0  0  0  0  0  0  0  0  0
  -13.2884   41.1716   43.1528 C   0  0  0  0  0  0  0  0  0  0  0  0
  -13.3391   42.1881   44.0982 C   0  0  0  0  0  0  0  0  0  0  0  0
  -12.8589   39.9013   43.5282 C   0  0  0  0  0  0  0  0  0  0  0  0
  -12.9564   41.9316   45.4139 C   0  0  0  0  0  0  0  0  0  0  0  0
  -12.4725   39.6468   44.8441 C   0  0  0  0  0  0  0  0  0  0  0  0
  -12.5227   40.6638   45.7940 C   0  0  0  0  0  0  0  0  0  0  0  0
  -13.4046   39.5336   38.4846 C   0  0  0  0  0  0  0  0  0  0  0  0
  -14.3322   39.6200   37.7169 O   0  0  0  0  0  0  0  0  0  0  0  0
  -12.6402   38.4502   38.5383 N   0  0  0  0  0  0  0  0  0  0  0  0
  -11.8294   38.4684   39.0965 H   0  0  0  0  0  0  0  0  0  0  0  0
  -12.9566   37.2415   37.8047 C   0  0  0  0  0  0  0  0  0  0  0  0
  -13.8102   36.3149   38.6178 C   0  0  0  0  0  0  0  0  0  0  0  0
  -13.4318   36.0422   39.7754 O   0  0  0  0  0  0  0  0  0  0  0  0
  -14.8662   35.8577   38.1223 O   0  0  0  0  0  0  0  0  0  0  0  0
  -12.6344   36.4069   40.1057 H   0  0  0  0  0  0  0  0  0  0  0  0
  -11.6749   36.5542   37.3414 C   0  0  0  0  0  0  0  0  0  0  0  0
  -11.3933   36.7786   35.8564 C   0  0  0  0  0  0  0  0  0  0  0  0
  -10.4293   37.9402   35.6651 C   0  0  0  0  0  0  0  0  0  0  0  0
  -10.8372   35.5365   35.1697 C   0  0  0  0  0  0  0  0  0  0  0  0
  4  5  1  0  0  0
  5  8  1  0  0  0
  5  1  1  0  0  0
  8  9  1  0  0  0
  9 10  2  0  0  0
  9 11  1  0  0  0
 10 12  1  0  0  0
 11 13  2  0  0  0
 12 14  2  0  0  0
 13 14  1  0  0  0
  1  2  1  0  0  0
  1 15  1  0  0  0
 15 16  2  0  0  0
 15 17  1  0  0  0
 17 19  1  0  0  0
 19 24  1  0  0  0
 19 20  1  0  0  0
 24 25  1  0  0  0
 25 26  1  0  0  0
 25 27  1  0  0  0
 20 21  1  0  0  0
 20 22  2  0  0  0
  4  6  1  0  0  0
  4  7  1  0  0  0
  2  3  1  0  0  0
 17 18  1  0  0  0
 21 23  1  0  0  0
M  END
> <minimizedAffinity>
-7.87837

$$$$
4KXB_BES_A_1017


 27 27  0  0  0  0  0  0  0  0999 V2000
  -14.3484   41.4831   38.1592 C   0  0  0  0  0  0  0  0  0  0  0  0
  -15.3183   41.8104   39.1661 O   0  0  0  0  0  0  0  0  0  0  0  0
  -15.0329   41.4487   40.0197 H   0  0  0  0  0  0  0  0  0  0  0  0
  -13.0145   42.2068   40.0235 N   0  0  0  0  0  0  0  0  0  0  0  0
  -13.0113   42.0672   38.5806 C   0  0  0  0  0  0  0  0  0  0  0  0
  -12.1236   42.5984   40.3291 H   0  0  0  0  0  0  0  0  0  0  0  0
  -13.1489   41.2917   40.4534 H   0  0  0  0  0  0  0  0  0  0  0  0
  -12.7731   43.4099   37.8962 C   0  0  0  0  0  0  0  0  0  0  0  0
  -11.9945   43.2311   36.6144 C   0  0  0  0  0  0  0  0  0  0  0  0
  -11.7190   41.9567   36.1352 C   0  0  0  0  0  0  0  0  0  0  0  0
  -11.5533   44.3451   35.9048 C   0  0  0  0  0  0  0  0  0  0  0  0
  -11.0000   41.8011   34.9511 C   0  0  0  0  0  0  0  0  0  0  0  0
  -10.8307   44.1882   34.7221 C   0  0  0  0  0  0  0  0  0  0  0  0
  -10.5533   42.9118   34.2393 C   0  0  0  0  0  0  0  0  0  0  0  0
  -14.1999   39.9969   38.0022 C   0  0  0  0  0  0  0  0  0  0  0  0
  -14.9620   39.3853   37.2934 O   0  0  0  0  0  0  0  0  0  0  0  0
  -13.2259   39.3905   38.6689 N   0  0  0  0  0  0  0  0  0  0  0  0
  -12.5608   39.9405   39.1425 H   0  0  0  0  0  0  0  0  0  0  0  0
  -13.1067   37.9476   38.7244 C   0  0  0  0  0  0  0  0  0  0  0  0
  -13.4577   37.4209   40.0837 C   0  0  0  0  0  0  0  0  0  0  0  0
  -12.9850   36.3154   40.4182 O   0  0  0  0  0  0  0  0  0  0  0  0
  -14.1947   38.1006   40.8351 O   0  0  0  0  0  0  0  0  0  0  0  0
  -12.4378   35.8407   39.8239 H   0  0  0  0  0  0  0  0  0  0  0  0
  -11.7030   37.5173   38.3067 C   0  0  0  0  0  0  0  0  0  0  0  0
  -11.5538   37.3968   36.7907 C   0  0  0  0  0  0  0  0  0  0  0  0
  -10.5010   38.3687   36.2787 C   0  0  0  0  0  0  0  0  0  0  0  0
  -11.2007   35.9822   36.3459 C   0  0  0  0  0  0  0  0  0  0  0  0
  4  5  1  0  0  0
  5  8  1  0  0  0
  5  1  1  0  0  0
  8  9  1  0  0  0
  9 10  2  0  0  0
  9 11  1  0  0  0
 10 12  1  0  0  0
 11 13  2  0  0  0
 12 14  2  0  0  0
 13 14  1  0  0  0
  1  2  1  0  0  0
  1 15  1  0  0  0
 15 16  2  0  0  0
 15 17  1  0  0  0
 17 19  1  0  0  0
 19 24  1  0  0  0
 19 20  1  0  0  0
 24 25  1  0  0  0
 25 26  1  0  0  0
 25 27  1  0  0  0
 20 21  1  0  0  0
 20 22  2  0  0  0
  4  6  1  0  0  0
  4  7  1  0  0  0
  2  3  1  0  0  0
 17 18  1  0  0  0
 21 23  1  0  0  0
M  END
> <minimizedAffinity>
-7.78953

$$$$
4KXB_BES_A_1017


 27 27  0  0  0  0  0  0  0  0999 V2000
  -11.7169   38.0800   41.8148 C   0  0  0  0  0  0  0  0  0  0  0  0
  -10.5492   37.3266   41.4531 O   0  0  0  0  0  0  0  0  0  0  0  0
   -9.8972   37.9171   41.0443 H   0  0  0  0  0  0  0  0  0  0  0  0
   -9.8927   38.9860   43.0917 N   0  0  0  0  0  0  0  0  0  0  0  0
  -11.2946   39.1772   42.7763 C   0  0  0  0  0  0  0  0  0  0  0  0
   -9.5872   39.7138   43.7378 H   0  0  0  0  0  0  0  0  0  0  0  0
   -9.3413   39.0384   42.2352 H   0  0  0  0  0  0  0  0  0  0  0  0
  -12.1538   39.1454   44.0368 C   0  0  0  0  0  0  0  0  0  0  0  0
  -12.5958   40.5369   44.4233 C   0  0  0  0  0  0  0  0  0  0  0  0
  -13.1879   41.3696   43.4822 C   0  0  0  0  0  0  0  0  0  0  0  0
  -12.4150   40.9893   45.7278 C   0  0  0  0  0  0  0  0  0  0  0  0
  -13.5930   42.6523   43.8479 C   0  0  0  0  0  0  0  0  0  0  0  0
  -12.8172   42.2744   46.0917 C   0  0  0  0  0  0  0  0  0  0  0  0
  -13.4114   43.1111   45.1503 C   0  0  0  0  0  0  0  0  0  0  0  0
  -12.3580   38.7104   40.6119 C   0  0  0  0  0  0  0  0  0  0  0  0
  -11.8386   38.6077   39.5271 O   0  0  0  0  0  0  0  0  0  0  0  0
  -13.4890   39.3826   40.7845 N   0  0  0  0  0  0  0  0  0  0  0  0
  -13.9349   39.3444   41.6615 H   0  0  0  0  0  0  0  0  0  0  0  0
  -14.0910   40.1707   39.7282 C   0  0  0  0  0  0  0  0  0  0  0  0
  -13.2261   41.3371   39.3543 C   0  0  0  0  0  0  0  0  0  0  0  0
  -12.6606   41.3080   38.2422 O   0  0  0  0  0  0  0  0  0  0  0  0
  -13.1073   42.2954   40.1525 O   0  0  0  0  0  0  0  0  0  0  0  0
  -12.7774   40.5703   37.6763 H   0  0  0  0  0  0  0  0  0  0  0  0
  -15.4893   40.6243   40.1392 C   0  0  0  0  0  0  0  0  0  0  0  0
  -16.5303   40.3759   39.0486 C   0  0  0  0  0  0  0  0  0  0  0  0
  -16.8451   41.6666   38.3067 C   0  0  0  0  0  0  0  0  0  0  0  0
  -16.0935   39.3087   38.0517 C   0  0  0  0  0  0  0  0  0  0  0  0
  4  5  1  0  0  0
  5  8  1  0  0  0
  5  1  1  0  0  0
  8  9  1  0  0  0
  9 10  2  0  0  0
  9 11  1  0  0  0
 10 12  1  0  0  0
 11 13  2  0  0  0
 12 14  2  0  0  0
 13 14  1  0  0  0
  1  2  1  0  0  0
  1 15  1  0  0  0
 15 16  2  0  0  0
 15 17  1  0  0  0
 17 19  1  0  0  0
 19 24  1  0  0  0
 19 20  1  0  0  0
 24 25  1  0  0  0
 25 26  1  0  0  0
 25 27  1  0  0  0
 20 21  1  0  0  0
 20 22  2  0  0  0
  4  6  1  0  0  0
  4  7  1  0  0  0
  2  3  1  0  0  0
 17 18  1  0  0  0
 21 23  1  0  0  0
M  END
> <minimizedAffinity>
-7.60415

$$$$
