3STR_3LI_P_209


 49 53  0  0  0  0  0  0  0  0999 V2000
   24.0677   -8.1819    8.4771 C   0  0  0  0  0  0  0  0  0  0  0  0
   25.0074   -7.2698    8.7434 N   0  0  0  0  0  0  0  0  0  0  0  0
   25.1503   -6.2899    7.8454 C   0  0  0  0  0  0  0  0  0  0  0  0
   24.4080   -6.2185    6.7433 N   0  0  0  0  0  0  0  0  0  0  0  0
   23.4872   -7.1689    6.5533 C   0  0  0  0  0  0  0  0  0  0  0  0
   23.2872   -8.1759    7.4008 N   0  0  0  0  0  0  0  0  0  0  0  0
   22.7009   -7.1305    5.3924 N   0  0  0  0  0  0  0  0  0  0  0  0
   21.4458   -7.8347    5.4966 C   0  0  0  0  0  0  0  0  0  0  0  0
   20.9512   -8.0576    4.0841 C   0  0  0  0  0  0  0  0  0  0  0  0
   20.8969   -6.7810    3.3931 N   0  0  0  0  0  0  0  0  0  0  0  0
   22.1658   -6.0860    3.3222 C   0  0  0  0  0  0  0  0  0  0  0  0
   22.6542   -5.8412    4.7369 C   0  0  0  0  0  0  0  0  0  0  0  0
   20.3651   -6.9832    2.1092 C   0  0  0  0  0  0  0  0  0  0  0  0
   20.8323   -7.9980    1.3075 C   0  0  0  0  0  0  0  0  0  0  0  0
   20.3057   -8.1965    0.0527 C   0  0  0  0  0  0  0  0  0  0  0  0
   19.2988   -7.3856   -0.4126 C   0  0  0  0  0  0  0  0  0  0  0  0
   18.8209   -6.3731    0.3809 C   0  0  0  0  0  0  0  0  0  0  0  0
   19.3586   -6.1809    1.6305 C   0  0  0  0  0  0  0  0  0  0  0  0
   18.7455   -4.9093    2.6083 Cl  0  0  0  0  0  0  0  0  0  0  0  0
   26.1336   -5.3034    8.0639 N   0  0  0  0  0  0  0  0  0  0  0  0
   26.4514   -5.2138    9.4744 C   0  0  0  0  0  0  0  0  0  0  0  0
   26.2846   -3.4944   10.0069 S   0  0  0  0  0  0  0  0  0  0  0  0
   26.3040   -2.8971    8.2986 C   0  0  0  0  0  0  0  0  0  0  0  0
   25.7218   -4.0321    7.4728 C   0  0  0  0  0  0  0  0  0  0  0  0
   26.2877   -3.9034    6.0911 C   0  0  0  0  0  0  0  0  0  0  0  0
   25.9550   -2.9941    5.3479 O   0  0  0  0  0  0  0  0  0  0  0  0
   27.1999   -4.8712    5.7528 N   0  0  0  0  0  0  0  0  0  0  0  0
   27.4031   -5.6223    6.3560 H   0  0  0  0  0  0  0  0  0  0  0  0
   27.8470   -4.7344    4.4696 C   0  0  0  0  0  0  0  0  0  0  0  0
   29.1063   -3.9606    4.6956 C   0  0  0  0  0  0  0  0  0  0  0  0
   30.1174   -4.4667    5.1549 O   0  0  0  0  0  0  0  0  0  0  0  0
   29.0134   -2.6401    4.3459 N   0  0  0  0  0  0  0  0  0  0  0  0
   30.1985   -1.9714    4.7407 O   0  0  0  0  0  0  0  0  0  0  0  0
   28.2459   -2.2222    3.8926 H   0  0  0  0  0  0  0  0  0  0  0  0
   30.7995   -2.6027    5.1662 H   0  0  0  0  0  0  0  0  0  0  0  0
   23.8952   -9.2167    9.3988 N   0  0  0  0  0  0  0  0  0  0  0  0
   24.3790   -9.1762   10.2553 H   0  0  0  0  0  0  0  0  0  0  0  0
   23.5801  -11.5146    8.7496 C   0  0  0  0  0  0  0  0  0  0  0  0
   22.7944  -12.6136    8.4997 C   0  0  0  0  0  0  0  0  0  0  0  0
   21.4370  -12.4955    8.6599 C   0  0  0  0  0  0  0  0  0  0  0  0
   20.8952  -11.2991    9.0649 C   0  0  0  0  0  0  0  0  0  0  0  0
   21.6989  -10.2084    9.3069 C   0  0  0  0  0  0  0  0  0  0  0  0
   21.0846   -8.9265    9.7450 C   0  0  0  0  0  0  0  0  0  0  0  0
   23.0589  -10.3083    9.1467 C   0  0  0  0  0  0  0  0  0  0  0  0
   27.0097  -12.7940    9.3453 C   0  0  0  0  0  0  0  0  0  0  0  0
   25.5916  -12.5632    9.4061 N   0  0  0  0  0  0  0  0  0  0  0  0
   25.0209  -11.6431    8.5755 C   0  0  0  0  0  0  0  0  0  0  0  0
   25.5947  -10.9686    7.7329 O   0  0  0  0  0  0  0  0  0  0  0  0
   25.0353  -13.0664   10.0437 H   0  0  0  0  0  0  0  0  0  0  0  0
 45 46  1  0  0  0
 46 47  1  0  0  0
 47 48  2  0  0  0
 47 38  1  0  0  0
 38 39  2  0  0  0
 38 44  1  0  0  0
 39 40  1  0  0  0
 40 41  2  0  0  0
 41 42  1  0  0  0
 42 43  1  0  0  0
 42 44  2  0  0  0
 44 36  1  0  0  0
 36  1  1  0  0  0
  1  2  2  0  0  0
  1  6  1  0  0  0
  2  3  1  0  0  0
  3  4  2  0  0  0
  3 20  1  0  0  0
  4  5  1  0  0  0
  5  6  2  0  0  0
  5  7  1  0  0  0
  7  8  1  0  0  0
  7 12  1  0  0  0
  8  9  1  0  0  0
  9 10  1  0  0  0
 10 11  1  0  0  0
 10 13  1  0  0  0
 11 12  1  0  0  0
 13 14  2  0  0  0
 13 18  1  0  0  0
 14 15  1  0  0  0
 15 16  2  0  0  0
 16 17  1  0  0  0
 17 18  2  0  0  0
 18 19  1  0  0  0
 20 21  1  0  0  0
 20 24  1  0  0  0
 21 22  1  0  0  0
 22 23  1  0  0  0
 23 24  1  0  0  0
 24 25  1  0  0  0
 25 26  2  0  0  0
 25 27  1  0  0  0
 27 29  1  0  0  0
 29 30  1  0  0  0
 30 31  2  0  0  0
 30 32  1  0  0  0
 32 33  1  0  0  0
 46 49  1  0  0  0
 36 37  1  0  0  0
 27 28  1  0  0  0
 32 34  1  0  0  0
 33 35  1  0  0  0
M  END
> <minimizedAffinity>
-11.27336

$$$$
3STR_3LI_P_209


 49 53  0  0  0  0  0  0  0  0999 V2000
   23.9283   -8.1461    8.4724 C   0  0  0  0  0  0  0  0  0  0  0  0
   24.8789   -7.2457    8.7396 N   0  0  0  0  0  0  0  0  0  0  0  0
   25.0585   -6.2877    7.8247 C   0  0  0  0  0  0  0  0  0  0  0  0
   24.3407   -6.2262    6.7059 N   0  0  0  0  0  0  0  0  0  0  0  0
   23.4067   -7.1637    6.5161 C   0  0  0  0  0  0  0  0  0  0  0  0
   23.1706   -8.1489    7.3798 N   0  0  0  0  0  0  0  0  0  0  0  0
   22.6456   -7.1356    5.3383 N   0  0  0  0  0  0  0  0  0  0  0  0
   23.1227   -6.2095    4.3399 C   0  0  0  0  0  0  0  0  0  0  0  0
   21.9862   -5.9948    3.3643 C   0  0  0  0  0  0  0  0  0  0  0  0
   21.5424   -7.2833    2.8614 N   0  0  0  0  0  0  0  0  0  0  0  0
   21.0894   -8.2007    3.8868 C   0  0  0  0  0  0  0  0  0  0  0  0
   22.2332   -8.4355    4.8545 C   0  0  0  0  0  0  0  0  0  0  0  0
   20.5404   -7.0736    1.9000 C   0  0  0  0  0  0  0  0  0  0  0  0
   19.6486   -6.0351    2.0303 C   0  0  0  0  0  0  0  0  0  0  0  0
   18.6719   -5.8295    1.0844 C   0  0  0  0  0  0  0  0  0  0  0  0
   18.5804   -6.6570   -0.0088 C   0  0  0  0  0  0  0  0  0  0  0  0
   19.4686   -7.6933   -0.1520 C   0  0  0  0  0  0  0  0  0  0  0  0
   20.4366   -7.8923    0.8023 C   0  0  0  0  0  0  0  0  0  0  0  0
   21.5391   -9.1938    0.6037 Cl  0  0  0  0  0  0  0  0  0  0  0  0
   26.0551   -5.3146    8.0434 N   0  0  0  0  0  0  0  0  0  0  0  0
   26.3661   -5.2219    9.4553 C   0  0  0  0  0  0  0  0  0  0  0  0
   26.2217   -3.4973    9.9774 S   0  0  0  0  0  0  0  0  0  0  0  0
   26.2597   -2.9098    8.2660 C   0  0  0  0  0  0  0  0  0  0  0  0
   25.6656   -4.0407    7.4430 C   0  0  0  0  0  0  0  0  0  0  0  0
   26.2412   -3.9281    6.0639 C   0  0  0  0  0  0  0  0  0  0  0  0
   25.8995   -3.0387    5.3010 O   0  0  0  0  0  0  0  0  0  0  0  0
   27.1727   -4.8861    5.7516 N   0  0  0  0  0  0  0  0  0  0  0  0
   27.3834   -5.6223    6.3705 H   0  0  0  0  0  0  0  0  0  0  0  0
   27.8286   -4.7622    4.4716 C   0  0  0  0  0  0  0  0  0  0  0  0
   29.0838   -3.9818    4.6975 C   0  0  0  0  0  0  0  0  0  0  0  0
   30.0909   -4.4776    5.1762 O   0  0  0  0  0  0  0  0  0  0  0  0
   28.9918   -2.6678    4.3240 N   0  0  0  0  0  0  0  0  0  0  0  0
   30.1712   -1.9897    4.7197 O   0  0  0  0  0  0  0  0  0  0  0  0
   28.2283   -2.2594    3.8555 H   0  0  0  0  0  0  0  0  0  0  0  0
   30.7690   -2.6122    5.1625 H   0  0  0  0  0  0  0  0  0  0  0  0
   23.7176   -9.1580    9.4115 N   0  0  0  0  0  0  0  0  0  0  0  0
   24.2446   -9.1522   10.2431 H   0  0  0  0  0  0  0  0  0  0  0  0
   23.1738  -11.3998    8.7187 C   0  0  0  0  0  0  0  0  0  0  0  0
   22.2900  -12.4317    8.5147 C   0  0  0  0  0  0  0  0  0  0  0  0
   20.9684  -12.2293    8.8215 C   0  0  0  0  0  0  0  0  0  0  0  0
   20.5580  -11.0173    9.3234 C   0  0  0  0  0  0  0  0  0  0  0  0
   21.4582   -9.9946    9.5174 C   0  0  0  0  0  0  0  0  0  0  0  0
   20.9855   -8.6940   10.0628 C   0  0  0  0  0  0  0  0  0  0  0  0
   22.7839  -10.1790    9.2109 C   0  0  0  0  0  0  0  0  0  0  0  0
   26.6590  -12.5899    9.1565 C   0  0  0  0  0  0  0  0  0  0  0  0
   25.2626  -12.3041    9.3478 N   0  0  0  0  0  0  0  0  0  0  0  0
   24.5762  -11.6175    8.3889 C   0  0  0  0  0  0  0  0  0  0  0  0
   25.0222  -11.2090    7.3267 O   0  0  0  0  0  0  0  0  0  0  0  0
   24.8042  -12.6022   10.1665 H   0  0  0  0  0  0  0  0  0  0  0  0
 45 46  1  0  0  0
 46 47  1  0  0  0
 47 48  2  0  0  0
 47 38  1  0  0  0
 38 39  2  0  0  0
 38 44  1  0  0  0
 39 40  1  0  0  0
 40 41  2  0  0  0
 41 42  1  0  0  0
 42 43  1  0  0  0
 42 44  2  0  0  0
 44 36  1  0  0  0
 36  1  1  0  0  0
  1  2  2  0  0  0
  1  6  1  0  0  0
  2  3  1  0  0  0
  3  4  2  0  0  0
  3 20  1  0  0  0
  4  5  1  0  0  0
  5  6  2  0  0  0
  5  7  1  0  0  0
  7  8  1  0  0  0
  7 12  1  0  0  0
  8  9  1  0  0  0
  9 10  1  0  0  0
 10 11  1  0  0  0
 10 13  1  0  0  0
 11 12  1  0  0  0
 13 14  2  0  0  0
 13 18  1  0  0  0
 14 15  1  0  0  0
 15 16  2  0  0  0
 16 17  1  0  0  0
 17 18  2  0  0  0
 18 19  1  0  0  0
 20 21  1  0  0  0
 20 24  1  0  0  0
 21 22  1  0  0  0
 22 23  1  0  0  0
 23 24  1  0  0  0
 24 25  1  0  0  0
 25 26  2  0  0  0
 25 27  1  0  0  0
 27 29  1  0  0  0
 29 30  1  0  0  0
 30 31  2  0  0  0
 30 32  1  0  0  0
 32 33  1  0  0  0
 46 49  1  0  0  0
 36 37  1  0  0  0
 27 28  1  0  0  0
 32 34  1  0  0  0
 33 35  1  0  0  0
M  END
> <minimizedAffinity>
-11.15990

$$$$
3STR_3LI_P_209


 49 53  0  0  0  0  0  0  0  0999 V2000
   24.3285   -8.4296    8.2223 C   0  0  0  0  0  0  0  0  0  0  0  0
   25.2237   -7.4841    8.5233 N   0  0  0  0  0  0  0  0  0  0  0  0
   25.2636   -6.4272    7.7057 C   0  0  0  0  0  0  0  0  0  0  0  0
   24.4654   -6.3138    6.6471 N   0  0  0  0  0  0  0  0  0  0  0  0
   23.5951   -7.3024    6.4180 C   0  0  0  0  0  0  0  0  0  0  0  0
   23.4975   -8.3858    7.1854 N   0  0  0  0  0  0  0  0  0  0  0  0
   22.7521   -7.2198    5.3000 N   0  0  0  0  0  0  0  0  0  0  0  0
   21.5441   -8.0024    5.4026 C   0  0  0  0  0  0  0  0  0  0  0  0
   20.9942   -8.1432    4.0000 C   0  0  0  0  0  0  0  0  0  0  0  0
   20.8362   -6.8221    3.4172 N   0  0  0  0  0  0  0  0  0  0  0  0
   22.0600   -6.0504    3.3463 C   0  0  0  0  0  0  0  0  0  0  0  0
   22.6027   -5.8884    4.7532 C   0  0  0  0  0  0  0  0  0  0  0  0
   20.2543   -6.9544    2.1459 C   0  0  0  0  0  0  0  0  0  0  0  0
   20.7110   -7.9016    1.2598 C   0  0  0  0  0  0  0  0  0  0  0  0
   20.1355   -8.0319    0.0177 C   0  0  0  0  0  0  0  0  0  0  0  0
   19.0897   -7.2203   -0.3504 C   0  0  0  0  0  0  0  0  0  0  0  0
   18.6220   -6.2753    0.5279 C   0  0  0  0  0  0  0  0  0  0  0  0
   19.2085   -6.1505    1.7640 C   0  0  0  0  0  0  0  0  0  0  0  0
   18.6074   -4.9627    2.8488 Cl  0  0  0  0  0  0  0  0  0  0  0  0
   26.1954   -5.4010    7.9634 N   0  0  0  0  0  0  0  0  0  0  0  0
   26.5036   -5.3452    9.3778 C   0  0  0  0  0  0  0  0  0  0  0  0
   26.2490   -3.6560    9.9691 S   0  0  0  0  0  0  0  0  0  0  0  0
   26.2441   -2.9989    8.2828 C   0  0  0  0  0  0  0  0  0  0  0  0
   25.7223   -4.1320    7.4149 C   0  0  0  0  0  0  0  0  0  0  0  0
   26.2856   -3.9267    6.0414 C   0  0  0  0  0  0  0  0  0  0  0  0
   25.9526   -2.9769    5.3510 O   0  0  0  0  0  0  0  0  0  0  0  0
   27.1959   -4.8751    5.6477 N   0  0  0  0  0  0  0  0  0  0  0  0
   27.3994   -5.6591    6.2074 H   0  0  0  0  0  0  0  0  0  0  0  0
   27.8407   -4.6674    4.3728 C   0  0  0  0  0  0  0  0  0  0  0  0
   29.1074   -3.9195    4.6405 C   0  0  0  0  0  0  0  0  0  0  0  0
   30.0955   -4.4482    5.1234 O   0  0  0  0  0  0  0  0  0  0  0  0
   29.0489   -2.5947    4.2998 N   0  0  0  0  0  0  0  0  0  0  0  0
   30.2347   -1.9517    4.7332 O   0  0  0  0  0  0  0  0  0  0  0  0
   28.3023   -2.1586    3.8289 H   0  0  0  0  0  0  0  0  0  0  0  0
   30.8117   -2.5977    5.1698 H   0  0  0  0  0  0  0  0  0  0  0  0
   24.2636   -9.5450    9.0602 N   0  0  0  0  0  0  0  0  0  0  0  0
   24.7298   -9.5164    9.9268 H   0  0  0  0  0  0  0  0  0  0  0  0
   22.2304  -10.8357    9.0275 C   0  0  0  0  0  0  0  0  0  0  0  0
   21.5000  -11.9509    8.6948 C   0  0  0  0  0  0  0  0  0  0  0  0
   22.1280  -12.9633    8.0147 C   0  0  0  0  0  0  0  0  0  0  0  0
   23.4557  -12.8449    7.6797 C   0  0  0  0  0  0  0  0  0  0  0  0
   24.1713  -11.7212    8.0250 C   0  0  0  0  0  0  0  0  0  0  0  0
   25.6067  -11.6203    7.6484 C   0  0  0  0  0  0  0  0  0  0  0  0
   23.5592  -10.7007    8.7101 C   0  0  0  0  0  0  0  0  0  0  0  0
   19.7015   -8.2102    9.7098 C   0  0  0  0  0  0  0  0  0  0  0  0
   20.4610   -9.2741    9.1102 N   0  0  0  0  0  0  0  0  0  0  0  0
   21.5609   -9.7639    9.7524 C   0  0  0  0  0  0  0  0  0  0  0  0
   21.9919   -9.4009   10.8371 O   0  0  0  0  0  0  0  0  0  0  0  0
   20.1887   -9.6472    8.2408 H   0  0  0  0  0  0  0  0  0  0  0  0
 45 46  1  0  0  0
 46 47  1  0  0  0
 47 48  2  0  0  0
 47 38  1  0  0  0
 38 39  2  0  0  0
 38 44  1  0  0  0
 39 40  1  0  0  0
 40 41  2  0  0  0
 41 42  1  0  0  0
 42 43  1  0  0  0
 42 44  2  0  0  0
 44 36  1  0  0  0
 36  1  1  0  0  0
  1  2  2  0  0  0
  1  6  1  0  0  0
  2  3  1  0  0  0
  3  4  2  0  0  0
  3 20  1  0  0  0
  4  5  1  0  0  0
  5  6  2  0  0  0
  5  7  1  0  0  0
  7  8  1  0  0  0
  7 12  1  0  0  0
  8  9  1  0  0  0
  9 10  1  0  0  0
 10 11  1  0  0  0
 10 13  1  0  0  0
 11 12  1  0  0  0
 13 14  2  0  0  0
 13 18  1  0  0  0
 14 15  1  0  0  0
 15 16  2  0  0  0
 16 17  1  0  0  0
 17 18  2  0  0  0
 18 19  1  0  0  0
 20 21  1  0  0  0
 20 24  1  0  0  0
 21 22  1  0  0  0
 22 23  1  0  0  0
 23 24  1  0  0  0
 24 25  1  0  0  0
 25 26  2  0  0  0
 25 27  1  0  0  0
 27 29  1  0  0  0
 29 30  1  0  0  0
 30 31  2  0  0  0
 30 32  1  0  0  0
 32 33  1  0  0  0
 46 49  1  0  0  0
 36 37  1  0  0  0
 27 28  1  0  0  0
 32 34  1  0  0  0
 33 35  1  0  0  0
M  END
> <minimizedAffinity>
-10.95045

$$$$
3STR_3LI_P_209


 49 53  0  0  0  0  0  0  0  0999 V2000
   23.6817   -8.0925    8.4744 C   0  0  0  0  0  0  0  0  0  0  0  0
   24.6846   -7.2396    8.7038 N   0  0  0  0  0  0  0  0  0  0  0  0
   24.9085   -6.3233    7.7565 C   0  0  0  0  0  0  0  0  0  0  0  0
   24.1836   -6.2570    6.6426 N   0  0  0  0  0  0  0  0  0  0  0  0
   23.1961   -7.1454    6.4917 C   0  0  0  0  0  0  0  0  0  0  0  0
   22.9137   -8.0872    7.3892 N   0  0  0  0  0  0  0  0  0  0  0  0
   22.4255   -7.1120    5.3202 N   0  0  0  0  0  0  0  0  0  0  0  0
   21.1746   -7.8261    5.4067 C   0  0  0  0  0  0  0  0  0  0  0  0
   20.7010   -8.0514    3.9874 C   0  0  0  0  0  0  0  0  0  0  0  0
   20.6461   -6.7746    3.2968 N   0  0  0  0  0  0  0  0  0  0  0  0
   21.9104   -6.0696    3.2438 C   0  0  0  0  0  0  0  0  0  0  0  0
   22.3776   -5.8225    4.6654 C   0  0  0  0  0  0  0  0  0  0  0  0
   20.1336   -6.9797    2.0055 C   0  0  0  0  0  0  0  0  0  0  0  0
   20.5888   -8.0169    1.2259 C   0  0  0  0  0  0  0  0  0  0  0  0
   20.0809   -8.2179   -0.0361 C   0  0  0  0  0  0  0  0  0  0  0  0
   19.1048   -7.3871   -0.5310 C   0  0  0  0  0  0  0  0  0  0  0  0
   18.6390   -6.3521    0.2403 C   0  0  0  0  0  0  0  0  0  0  0  0
   19.1578   -6.1576    1.4975 C   0  0  0  0  0  0  0  0  0  0  0  0
   18.5603   -4.8576    2.4471 Cl  0  0  0  0  0  0  0  0  0  0  0  0
   25.9608   -5.4020    7.9347 N   0  0  0  0  0  0  0  0  0  0  0  0
   26.2373   -5.2210    9.3451 C   0  0  0  0  0  0  0  0  0  0  0  0
   26.1930   -3.4556    9.7315 S   0  0  0  0  0  0  0  0  0  0  0  0
   26.3182   -3.0053    7.9831 C   0  0  0  0  0  0  0  0  0  0  0  0
   25.6738   -4.1558    7.2279 C   0  0  0  0  0  0  0  0  0  0  0  0
   26.2943   -4.1867    5.8641 C   0  0  0  0  0  0  0  0  0  0  0  0
   26.2102   -3.2356    5.1036 O   0  0  0  0  0  0  0  0  0  0  0  0
   26.9585   -5.3490    5.5628 N   0  0  0  0  0  0  0  0  0  0  0  0
   26.9587   -6.1177    6.1779 H   0  0  0  0  0  0  0  0  0  0  0  0
   27.6569   -5.3900    4.3000 C   0  0  0  0  0  0  0  0  0  0  0  0
   27.5755   -6.7971    3.8010 C   0  0  0  0  0  0  0  0  0  0  0  0
   28.5462   -7.4033    3.3773 O   0  0  0  0  0  0  0  0  0  0  0  0
   26.3165   -7.3318    3.8597 N   0  0  0  0  0  0  0  0  0  0  0  0
   26.3210   -8.5991    3.2262 O   0  0  0  0  0  0  0  0  0  0  0  0
   25.5333   -6.9042    4.2756 H   0  0  0  0  0  0  0  0  0  0  0  0
   27.2130   -8.7936    2.8985 H   0  0  0  0  0  0  0  0  0  0  0  0
   23.4239   -9.0601    9.4480 N   0  0  0  0  0  0  0  0  0  0  0  0
   23.8854   -8.9966   10.3153 H   0  0  0  0  0  0  0  0  0  0  0  0
   22.9782  -11.3240    8.7571 C   0  0  0  0  0  0  0  0  0  0  0  0
   22.1375  -12.3886    8.5397 C   0  0  0  0  0  0  0  0  0  0  0  0
   20.8027  -12.2331    8.8154 C   0  0  0  0  0  0  0  0  0  0  0  0
   20.3371  -11.0342    9.3003 C   0  0  0  0  0  0  0  0  0  0  0  0
   21.1947   -9.9782    9.5081 C   0  0  0  0  0  0  0  0  0  0  0  0
   20.6626   -8.6928   10.0346 C   0  0  0  0  0  0  0  0  0  0  0  0
   22.5329  -10.1156    9.2328 C   0  0  0  0  0  0  0  0  0  0  0  0
   26.4607  -12.5196    9.2011 C   0  0  0  0  0  0  0  0  0  0  0  0
   25.0543  -12.2692    9.3676 N   0  0  0  0  0  0  0  0  0  0  0  0
   24.3947  -11.4920    8.4604 C   0  0  0  0  0  0  0  0  0  0  0  0
   24.8742  -10.9693    7.4650 O   0  0  0  0  0  0  0  0  0  0  0  0
   24.5700  -12.6565   10.1322 H   0  0  0  0  0  0  0  0  0  0  0  0
 45 46  1  0  0  0
 46 47  1  0  0  0
 47 48  2  0  0  0
 47 38  1  0  0  0
 38 39  2  0  0  0
 38 44  1  0  0  0
 39 40  1  0  0  0
 40 41  2  0  0  0
 41 42  1  0  0  0
 42 43  1  0  0  0
 42 44  2  0  0  0
 44 36  1  0  0  0
 36  1  1  0  0  0
  1  2  2  0  0  0
  1  6  1  0  0  0
  2  3  1  0  0  0
  3  4  2  0  0  0
  3 20  1  0  0  0
  4  5  1  0  0  0
  5  6  2  0  0  0
  5  7  1  0  0  0
  7  8  1  0  0  0
  7 12  1  0  0  0
  8  9  1  0  0  0
  9 10  1  0  0  0
 10 11  1  0  0  0
 10 13  1  0  0  0
 11 12  1  0  0  0
 13 14  2  0  0  0
 13 18  1  0  0  0
 14 15  1  0  0  0
 15 16  2  0  0  0
 16 17  1  0  0  0
 17 18  2  0  0  0
 18 19  1  0  0  0
 20 21  1  0  0  0
 20 24  1  0  0  0
 21 22  1  0  0  0
 22 23  1  0  0  0
 23 24  1  0  0  0
 24 25  1  0  0  0
 25 26  2  0  0  0
 25 27  1  0  0  0
 27 29  1  0  0  0
 29 30  1  0  0  0
 30 31  2  0  0  0
 30 32  1  0  0  0
 32 33  1  0  0  0
 46 49  1  0  0  0
 36 37  1  0  0  0
 27 28  1  0  0  0
 32 34  1  0  0  0
 33 35  1  0  0  0
M  END
> <minimizedAffinity>
-10.46896

$$$$
3STR_3LI_P_209


 49 53  0  0  0  0  0  0  0  0999 V2000
   23.6722   -8.1919    8.4671 C   0  0  0  0  0  0  0  0  0  0  0  0
   24.6876   -7.3499    8.6815 N   0  0  0  0  0  0  0  0  0  0  0  0
   24.8657   -6.3940    7.7640 C   0  0  0  0  0  0  0  0  0  0  0  0
   24.0855   -6.2799    6.6921 N   0  0  0  0  0  0  0  0  0  0  0  0
   23.0893   -7.1607    6.5537 C   0  0  0  0  0  0  0  0  0  0  0  0
   22.8502   -8.1399    7.4234 N   0  0  0  0  0  0  0  0  0  0  0  0
   22.2604   -7.0768    5.4253 N   0  0  0  0  0  0  0  0  0  0  0  0
   22.9001   -6.5314    4.2525 C   0  0  0  0  0  0  0  0  0  0  0  0
   21.7956   -6.1186    3.3043 C   0  0  0  0  0  0  0  0  0  0  0  0
   20.9223   -7.2553    3.0692 N   0  0  0  0  0  0  0  0  0  0  0  0
   20.3107   -7.7961    4.2657 C   0  0  0  0  0  0  0  0  0  0  0  0
   21.4150   -8.2313    5.2097 C   0  0  0  0  0  0  0  0  0  0  0  0
   19.9446   -6.8888    2.1300 C   0  0  0  0  0  0  0  0  0  0  0  0
   19.0651   -5.8655    2.3949 C   0  0  0  0  0  0  0  0  0  0  0  0
   18.1124   -5.5057    1.4708 C   0  0  0  0  0  0  0  0  0  0  0  0
   18.0330   -6.1612    0.2659 C   0  0  0  0  0  0  0  0  0  0  0  0
   18.9091   -7.1804   -0.0116 C   0  0  0  0  0  0  0  0  0  0  0  0
   19.8531   -7.5347    0.9216 C   0  0  0  0  0  0  0  0  0  0  0  0
   20.9409   -8.8117    0.5543 Cl  0  0  0  0  0  0  0  0  0  0  0  0
   25.9280   -5.4816    7.9277 N   0  0  0  0  0  0  0  0  0  0  0  0
   26.2432   -5.3237    9.3328 C   0  0  0  0  0  0  0  0  0  0  0  0
   26.2200   -3.5641    9.7467 S   0  0  0  0  0  0  0  0  0  0  0  0
   26.3013   -3.0880    8.0025 C   0  0  0  0  0  0  0  0  0  0  0  0
   25.6299   -4.2233    7.2477 C   0  0  0  0  0  0  0  0  0  0  0  0
   26.2136   -4.2370    5.8675 C   0  0  0  0  0  0  0  0  0  0  0  0
   26.1289   -3.2683    5.1296 O   0  0  0  0  0  0  0  0  0  0  0  0
   26.8459   -5.4055    5.5242 N   0  0  0  0  0  0  0  0  0  0  0  0
   26.8467   -6.1871    6.1228 H   0  0  0  0  0  0  0  0  0  0  0  0
   27.5100   -5.4330    4.2426 C   0  0  0  0  0  0  0  0  0  0  0  0
   27.5243   -6.8575    3.7884 C   0  0  0  0  0  0  0  0  0  0  0  0
   28.5411   -7.4204    3.4163 O   0  0  0  0  0  0  0  0  0  0  0  0
   26.2959   -7.4611    3.8247 N   0  0  0  0  0  0  0  0  0  0  0  0
   26.3927   -8.7453    3.2342 O   0  0  0  0  0  0  0  0  0  0  0  0
   25.4765   -7.0659    4.2010 H   0  0  0  0  0  0  0  0  0  0  0  0
   27.3048   -8.8988    2.9418 H   0  0  0  0  0  0  0  0  0  0  0  0
   23.4616   -9.2000    9.4103 N   0  0  0  0  0  0  0  0  0  0  0  0
   23.7272   -9.0400   10.3447 H   0  0  0  0  0  0  0  0  0  0  0  0
   21.5300  -10.6182    9.1678 C   0  0  0  0  0  0  0  0  0  0  0  0
   20.9243  -11.8066    8.8383 C   0  0  0  0  0  0  0  0  0  0  0  0
   21.7109  -12.8386    8.3929 C   0  0  0  0  0  0  0  0  0  0  0  0
   23.0701  -12.6673    8.2823 C   0  0  0  0  0  0  0  0  0  0  0  0
   23.6586  -11.4702    8.6207 C   0  0  0  0  0  0  0  0  0  0  0  0
   25.1320  -11.3134    8.4899 C   0  0  0  0  0  0  0  0  0  0  0  0
   22.8864  -10.4287    9.0727 C   0  0  0  0  0  0  0  0  0  0  0  0
   19.0669   -7.8515    8.9872 C   0  0  0  0  0  0  0  0  0  0  0  0
   19.9415   -8.9459    8.6618 N   0  0  0  0  0  0  0  0  0  0  0  0
   20.6918   -9.5255    9.6432 C   0  0  0  0  0  0  0  0  0  0  0  0
   20.6999   -9.2230   10.8275 O   0  0  0  0  0  0  0  0  0  0  0  0
   19.9985   -9.2751    7.7358 H   0  0  0  0  0  0  0  0  0  0  0  0
 45 46  1  0  0  0
 46 47  1  0  0  0
 47 48  2  0  0  0
 47 38  1  0  0  0
 38 39  2  0  0  0
 38 44  1  0  0  0
 39 40  1  0  0  0
 40 41  2  0  0  0
 41 42  1  0  0  0
 42 43  1  0  0  0
 42 44  2  0  0  0
 44 36  1  0  0  0
 36  1  1  0  0  0
  1  2  2  0  0  0
  1  6  1  0  0  0
  2  3  1  0  0  0
  3  4  2  0  0  0
  3 20  1  0  0  0
  4  5  1  0  0  0
  5  6  2  0  0  0
  5  7  1  0  0  0
  7  8  1  0  0  0
  7 12  1  0  0  0
  8  9  1  0  0  0
  9 10  1  0  0  0
 10 11  1  0  0  0
 10 13  1  0  0  0
 11 12  1  0  0  0
 13 14  2  0  0  0
 13 18  1  0  0  0
 14 15  1  0  0  0
 15 16  2  0  0  0
 16 17  1  0  0  0
 17 18  2  0  0  0
 18 19  1  0  0  0
 20 21  1  0  0  0
 20 24  1  0  0  0
 21 22  1  0  0  0
 22 23  1  0  0  0
 23 24  1  0  0  0
 24 25  1  0  0  0
 25 26  2  0  0  0
 25 27  1  0  0  0
 27 29  1  0  0  0
 29 30  1  0  0  0
 30 31  2  0  0  0
 30 32  1  0  0  0
 32 33  1  0  0  0
 46 49  1  0  0  0
 36 37  1  0  0  0
 27 28  1  0  0  0
 32 34  1  0  0  0
 33 35  1  0  0  0
M  END
> <minimizedAffinity>
-10.04315

$$$$
3STR_3LI_P_209


 49 53  0  0  0  0  0  0  0  0999 V2000
   25.5858   -7.5251    5.5077 C   0  0  0  0  0  0  0  0  0  0  0  0
   26.0340   -8.7791    5.3961 N   0  0  0  0  0  0  0  0  0  0  0  0
   25.2812   -9.6126    4.6710 C   0  0  0  0  0  0  0  0  0  0  0  0
   24.1464   -9.2283    4.0921 N   0  0  0  0  0  0  0  0  0  0  0  0
   23.7702   -7.9551    4.2496 C   0  0  0  0  0  0  0  0  0  0  0  0
   24.4653   -7.0674    4.9575 N   0  0  0  0  0  0  0  0  0  0  0  0
   22.5699   -7.5244    3.6658 N   0  0  0  0  0  0  0  0  0  0  0  0
   21.4289   -8.3571    3.9606 C   0  0  0  0  0  0  0  0  0  0  0  0
   20.3642   -8.0166    2.9408 C   0  0  0  0  0  0  0  0  0  0  0  0
   20.1186   -6.5852    2.9707 N   0  0  0  0  0  0  0  0  0  0  0  0
   21.2854   -5.7732    2.6927 C   0  0  0  0  0  0  0  0  0  0  0  0
   22.3471   -6.0958    3.7265 C   0  0  0  0  0  0  0  0  0  0  0  0
   19.0768   -6.2856    2.0779 C   0  0  0  0  0  0  0  0  0  0  0  0
   19.0959   -6.7663    0.7898 C   0  0  0  0  0  0  0  0  0  0  0  0
   18.0716   -6.4753   -0.0803 C   0  0  0  0  0  0  0  0  0  0  0  0
   17.0106   -5.7052    0.3308 C   0  0  0  0  0  0  0  0  0  0  0  0
   16.9781   -5.2246    1.6158 C   0  0  0  0  0  0  0  0  0  0  0  0
   18.0099   -5.5172    2.4744 C   0  0  0  0  0  0  0  0  0  0  0  0
   17.9495   -4.9073    4.0786 Cl  0  0  0  0  0  0  0  0  0  0  0  0
   25.6947  -10.9527    4.5258 N   0  0  0  0  0  0  0  0  0  0  0  0
   25.4769  -11.4016    3.1658 C   0  0  0  0  0  0  0  0  0  0  0  0
   24.5154  -12.9321    3.1984 S   0  0  0  0  0  0  0  0  0  0  0  0
   24.8663  -13.1896    4.9551 C   0  0  0  0  0  0  0  0  0  0  0  0
   25.0548  -11.7966    5.5324 C   0  0  0  0  0  0  0  0  0  0  0  0
   25.9488  -11.9350    6.7272 C   0  0  0  0  0  0  0  0  0  0  0  0
   25.8199  -11.2180    7.7065 O   0  0  0  0  0  0  0  0  0  0  0  0
   26.8933  -12.9251    6.6246 N   0  0  0  0  0  0  0  0  0  0  0  0
   27.0059  -13.4475    5.7977 H   0  0  0  0  0  0  0  0  0  0  0  0
   27.7141  -13.1636    7.7881 C   0  0  0  0  0  0  0  0  0  0  0  0
   29.1293  -12.8955    7.3870 C   0  0  0  0  0  0  0  0  0  0  0  0
   29.4609  -12.7037    6.2284 O   0  0  0  0  0  0  0  0  0  0  0  0
   30.0093  -12.8922    8.4359 N   0  0  0  0  0  0  0  0  0  0  0  0
   31.3295  -12.7842    7.9331 O   0  0  0  0  0  0  0  0  0  0  0  0
   29.7640  -12.9548    9.3873 H   0  0  0  0  0  0  0  0  0  0  0  0
   31.3038  -12.7378    6.9645 H   0  0  0  0  0  0  0  0  0  0  0  0
   26.3529   -6.6316    6.2585 N   0  0  0  0  0  0  0  0  0  0  0  0
   27.3289   -6.6189    6.1307 H   0  0  0  0  0  0  0  0  0  0  0  0
   25.8893   -4.3956    7.0243 C   0  0  0  0  0  0  0  0  0  0  0  0
   25.3361   -3.4999    7.9071 C   0  0  0  0  0  0  0  0  0  0  0  0
   24.6463   -3.9894    8.9872 C   0  0  0  0  0  0  0  0  0  0  0  0
   24.5195   -5.3467    9.1629 C   0  0  0  0  0  0  0  0  0  0  0  0
   25.0840   -6.2279    8.2692 C   0  0  0  0  0  0  0  0  0  0  0  0
   24.9297   -7.6916    8.4844 C   0  0  0  0  0  0  0  0  0  0  0  0
   25.7817   -5.7547    7.1855 C   0  0  0  0  0  0  0  0  0  0  0  0
   28.8310   -3.4817    4.9590 C   0  0  0  0  0  0  0  0  0  0  0  0
   27.9788   -3.9623    6.0130 N   0  0  0  0  0  0  0  0  0  0  0  0
   26.6237   -3.8720    5.8801 C   0  0  0  0  0  0  0  0  0  0  0  0
   26.0150   -3.4242    4.9194 O   0  0  0  0  0  0  0  0  0  0  0  0
   28.3711   -4.3545    6.8264 H   0  0  0  0  0  0  0  0  0  0  0  0
 45 46  1  0  0  0
 46 47  1  0  0  0
 47 48  2  0  0  0
 47 38  1  0  0  0
 38 39  2  0  0  0
 38 44  1  0  0  0
 39 40  1  0  0  0
 40 41  2  0  0  0
 41 42  1  0  0  0
 42 43  1  0  0  0
 42 44  2  0  0  0
 44 36  1  0  0  0
 36  1  1  0  0  0
  1  2  2  0  0  0
  1  6  1  0  0  0
  2  3  1  0  0  0
  3  4  2  0  0  0
  3 20  1  0  0  0
  4  5  1  0  0  0
  5  6  2  0  0  0
  5  7  1  0  0  0
  7  8  1  0  0  0
  7 12  1  0  0  0
  8  9  1  0  0  0
  9 10  1  0  0  0
 10 11  1  0  0  0
 10 13  1  0  0  0
 11 12  1  0  0  0
 13 14  2  0  0  0
 13 18  1  0  0  0
 14 15  1  0  0  0
 15 16  2  0  0  0
 16 17  1  0  0  0
 17 18  2  0  0  0
 18 19  1  0  0  0
 20 21  1  0  0  0
 20 24  1  0  0  0
 21 22  1  0  0  0
 22 23  1  0  0  0
 23 24  1  0  0  0
 24 25  1  0  0  0
 25 26  2  0  0  0
 25 27  1  0  0  0
 27 29  1  0  0  0
 29 30  1  0  0  0
 30 31  2  0  0  0
 30 32  1  0  0  0
 32 33  1  0  0  0
 46 49  1  0  0  0
 36 37  1  0  0  0
 27 28  1  0  0  0
 32 34  1  0  0  0
 33 35  1  0  0  0
M  END
> <minimizedAffinity>
-9.69620

$$$$
3STR_3LI_P_209


 49 53  0  0  0  0  0  0  0  0999 V2000
   25.4305   -7.8009    5.1458 C   0  0  0  0  0  0  0  0  0  0  0  0
   25.9423   -9.0151    4.9230 N   0  0  0  0  0  0  0  0  0  0  0  0
   25.2371   -9.8138    4.1156 C   0  0  0  0  0  0  0  0  0  0  0  0
   24.0879   -9.4341    3.5627 N   0  0  0  0  0  0  0  0  0  0  0  0
   23.6467   -8.2016    3.8338 C   0  0  0  0  0  0  0  0  0  0  0  0
   24.2917   -7.3503    4.6285 N   0  0  0  0  0  0  0  0  0  0  0  0
   22.4296   -7.7786    3.2796 N   0  0  0  0  0  0  0  0  0  0  0  0
   21.3160   -8.6584    3.5403 C   0  0  0  0  0  0  0  0  0  0  0  0
   20.2337   -8.3001    2.5454 C   0  0  0  0  0  0  0  0  0  0  0  0
   19.9464   -6.8798    2.6475 N   0  0  0  0  0  0  0  0  0  0  0  0
   21.0866   -6.0207    2.4024 C   0  0  0  0  0  0  0  0  0  0  0  0
   22.1655   -6.3620    3.4122 C   0  0  0  0  0  0  0  0  0  0  0  0
   18.8892   -6.5679    1.7772 C   0  0  0  0  0  0  0  0  0  0  0  0
   18.8341   -7.1125    0.5158 C   0  0  0  0  0  0  0  0  0  0  0  0
   17.7947   -6.8090   -0.3319 C   0  0  0  0  0  0  0  0  0  0  0  0
   16.7927   -5.9617    0.0756 C   0  0  0  0  0  0  0  0  0  0  0  0
   16.8344   -5.4166    1.3342 C   0  0  0  0  0  0  0  0  0  0  0  0
   17.8807   -5.7227    2.1704 C   0  0  0  0  0  0  0  0  0  0  0  0
   17.9135   -5.0313    3.7419 Cl  0  0  0  0  0  0  0  0  0  0  0  0
   25.7188  -11.1122    3.8509 N   0  0  0  0  0  0  0  0  0  0  0  0
   25.2121  -11.5871    2.5796 C   0  0  0  0  0  0  0  0  0  0  0  0
   24.4279  -13.1975    2.8236 S   0  0  0  0  0  0  0  0  0  0  0  0
   25.2237  -13.4118    4.4348 C   0  0  0  0  0  0  0  0  0  0  0  0
   25.4250  -12.0040    4.9704 C   0  0  0  0  0  0  0  0  0  0  0  0
   26.5954  -12.0542    5.9051 C   0  0  0  0  0  0  0  0  0  0  0  0
   26.4956  -11.7074    7.0711 O   0  0  0  0  0  0  0  0  0  0  0  0
   27.7562  -12.5255    5.3452 N   0  0  0  0  0  0  0  0  0  0  0  0
   27.8157  -12.7435    4.3870 H   0  0  0  0  0  0  0  0  0  0  0  0
   28.8859  -12.6862    6.2296 C   0  0  0  0  0  0  0  0  0  0  0  0
   30.1152  -12.4210    5.4208 C   0  0  0  0  0  0  0  0  0  0  0  0
   30.7556  -11.3865    5.5150 O   0  0  0  0  0  0  0  0  0  0  0  0
   30.4455  -13.4399    4.5679 N   0  0  0  0  0  0  0  0  0  0  0  0
   31.5236  -13.0262    3.7469 O   0  0  0  0  0  0  0  0  0  0  0  0
   30.0044  -14.3193    4.5310 H   0  0  0  0  0  0  0  0  0  0  0  0
   31.7771  -12.1191    3.9790 H   0  0  0  0  0  0  0  0  0  0  0  0
   26.1467   -6.9443    5.9847 N   0  0  0  0  0  0  0  0  0  0  0  0
   26.4277   -7.2709    6.8699 H   0  0  0  0  0  0  0  0  0  0  0  0
   25.9964   -4.5630    6.3136 C   0  0  0  0  0  0  0  0  0  0  0  0
   26.3045   -3.2654    5.9838 C   0  0  0  0  0  0  0  0  0  0  0  0
   27.1305   -3.0431    4.9113 C   0  0  0  0  0  0  0  0  0  0  0  0
   27.6308   -4.1063    4.1983 C   0  0  0  0  0  0  0  0  0  0  0  0
   27.3076   -5.3990    4.5423 C   0  0  0  0  0  0  0  0  0  0  0  0
   27.8647   -6.5300    3.7529 C   0  0  0  0  0  0  0  0  0  0  0  0
   26.4784   -5.6389    5.6100 C   0  0  0  0  0  0  0  0  0  0  0  0
   24.7632   -4.3306    9.8035 C   0  0  0  0  0  0  0  0  0  0  0  0
   25.5350   -4.1861    8.5987 N   0  0  0  0  0  0  0  0  0  0  0  0
   25.1165   -4.7951    7.4514 C   0  0  0  0  0  0  0  0  0  0  0  0
   24.1065   -5.4693    7.3123 O   0  0  0  0  0  0  0  0  0  0  0  0
   26.3611   -3.6506    8.6015 H   0  0  0  0  0  0  0  0  0  0  0  0
 45 46  1  0  0  0
 46 47  1  0  0  0
 47 48  2  0  0  0
 47 38  1  0  0  0
 38 39  2  0  0  0
 38 44  1  0  0  0
 39 40  1  0  0  0
 40 41  2  0  0  0
 41 42  1  0  0  0
 42 43  1  0  0  0
 42 44  2  0  0  0
 44 36  1  0  0  0
 36  1  1  0  0  0
  1  2  2  0  0  0
  1  6  1  0  0  0
  2  3  1  0  0  0
  3  4  2  0  0  0
  3 20  1  0  0  0
  4  5  1  0  0  0
  5  6  2  0  0  0
  5  7  1  0  0  0
  7  8  1  0  0  0
  7 12  1  0  0  0
  8  9  1  0  0  0
  9 10  1  0  0  0
 10 11  1  0  0  0
 10 13  1  0  0  0
 11 12  1  0  0  0
 13 14  2  0  0  0
 13 18  1  0  0  0
 14 15  1  0  0  0
 15 16  2  0  0  0
 16 17  1  0  0  0
 17 18  2  0  0  0
 18 19  1  0  0  0
 20 21  1  0  0  0
 20 24  1  0  0  0
 21 22  1  0  0  0
 22 23  1  0  0  0
 23 24  1  0  0  0
 24 25  1  0  0  0
 25 26  2  0  0  0
 25 27  1  0  0  0
 27 29  1  0  0  0
 29 30  1  0  0  0
 30 31  2  0  0  0
 30 32  1  0  0  0
 32 33  1  0  0  0
 46 49  1  0  0  0
 36 37  1  0  0  0
 27 28  1  0  0  0
 32 34  1  0  0  0
 33 35  1  0  0  0
M  END
> <minimizedAffinity>
-9.67651

$$$$
3STR_3LI_P_209


 49 53  0  0  0  0  0  0  0  0999 V2000
   25.2858   -7.4291    6.1573 C   0  0  0  0  0  0  0  0  0  0  0  0
   25.4801   -8.7149    6.4653 N   0  0  0  0  0  0  0  0  0  0  0  0
   24.5621   -9.5754    6.0135 C   0  0  0  0  0  0  0  0  0  0  0  0
   23.5085   -9.1852    5.3006 N   0  0  0  0  0  0  0  0  0  0  0  0
   23.3896   -7.8808    5.0328 C   0  0  0  0  0  0  0  0  0  0  0  0
   24.2611   -6.9645    5.4489 N   0  0  0  0  0  0  0  0  0  0  0  0
   22.2805   -7.4366    4.2981 N   0  0  0  0  0  0  0  0  0  0  0  0
   21.0051   -7.8503    4.8315 C   0  0  0  0  0  0  0  0  0  0  0  0
   19.9892   -7.6699    3.7247 C   0  0  0  0  0  0  0  0  0  0  0  0
   20.0513   -6.3013    3.2418 N   0  0  0  0  0  0  0  0  0  0  0  0
   21.3483   -5.9061    2.7322 C   0  0  0  0  0  0  0  0  0  0  0  0
   22.3657   -6.0647    3.8457 C   0  0  0  0  0  0  0  0  0  0  0  0
   19.0551   -6.1186    2.2690 C   0  0  0  0  0  0  0  0  0  0  0  0
   19.2331   -6.5810    0.9863 C   0  0  0  0  0  0  0  0  0  0  0  0
   18.2534   -6.4050    0.0375 C   0  0  0  0  0  0  0  0  0  0  0  0
   17.0791   -5.7702    0.3631 C   0  0  0  0  0  0  0  0  0  0  0  0
   16.8882   -5.3094    1.6415 C   0  0  0  0  0  0  0  0  0  0  0  0
   17.8764   -5.4860    2.5795 C   0  0  0  0  0  0  0  0  0  0  0  0
   17.6172   -4.9034    4.1740 Cl  0  0  0  0  0  0  0  0  0  0  0  0
   24.7050  -10.9451    6.3155 N   0  0  0  0  0  0  0  0  0  0  0  0
   24.3209  -11.2000    7.6889 C   0  0  0  0  0  0  0  0  0  0  0  0
   25.6627  -12.0801    8.5213 S   0  0  0  0  0  0  0  0  0  0  0  0
   26.4377  -12.5183    6.9456 C   0  0  0  0  0  0  0  0  0  0  0  0
   26.0537  -11.4023    5.9884 C   0  0  0  0  0  0  0  0  0  0  0  0
   26.0759  -11.9831    4.6071 C   0  0  0  0  0  0  0  0  0  0  0  0
   25.8785  -13.1717    4.4118 O   0  0  0  0  0  0  0  0  0  0  0  0
   26.3208  -11.0753    3.6076 N   0  0  0  0  0  0  0  0  0  0  0  0
   26.5315  -10.1342    3.8053 H   0  0  0  0  0  0  0  0  0  0  0  0
   26.2545  -11.5674    2.2520 C   0  0  0  0  0  0  0  0  0  0  0  0
   25.2587  -10.7194    1.5275 C   0  0  0  0  0  0  0  0  0  0  0  0
   25.2826  -10.5631    0.3174 O   0  0  0  0  0  0  0  0  0  0  0  0
   24.3299  -10.1362    2.3471 N   0  0  0  0  0  0  0  0  0  0  0  0
   23.5378   -9.2407    1.5868 O   0  0  0  0  0  0  0  0  0  0  0  0
   24.2286  -10.3111    3.3106 H   0  0  0  0  0  0  0  0  0  0  0  0
   23.8366   -9.2484    0.6639 H   0  0  0  0  0  0  0  0  0  0  0  0
   26.2300   -6.5076    6.6150 N   0  0  0  0  0  0  0  0  0  0  0  0
   27.1571   -6.5760    6.2911 H   0  0  0  0  0  0  0  0  0  0  0  0
   26.1243   -4.1738    7.2010 C   0  0  0  0  0  0  0  0  0  0  0  0
   25.8104   -3.1448    8.0556 C   0  0  0  0  0  0  0  0  0  0  0  0
   25.2500   -3.4525    9.2694 C   0  0  0  0  0  0  0  0  0  0  0  0
   25.0127   -4.7646    9.6030 C   0  0  0  0  0  0  0  0  0  0  0  0
   25.3375   -5.7816    8.7345 C   0  0  0  0  0  0  0  0  0  0  0  0
   25.0682   -7.1922    9.1221 C   0  0  0  0  0  0  0  0  0  0  0  0
   25.9034   -5.4912    7.5177 C   0  0  0  0  0  0  0  0  0  0  0  0
   28.8037   -3.6918    4.6825 C   0  0  0  0  0  0  0  0  0  0  0  0
   28.0790   -3.9854    5.8895 N   0  0  0  0  0  0  0  0  0  0  0  0
   26.7221   -3.8433    5.9141 C   0  0  0  0  0  0  0  0  0  0  0  0
   26.0100   -3.4942    4.9839 O   0  0  0  0  0  0  0  0  0  0  0  0
   28.5595   -4.2875    6.6939 H   0  0  0  0  0  0  0  0  0  0  0  0
 45 46  1  0  0  0
 46 47  1  0  0  0
 47 48  2  0  0  0
 47 38  1  0  0  0
 38 39  2  0  0  0
 38 44  1  0  0  0
 39 40  1  0  0  0
 40 41  2  0  0  0
 41 42  1  0  0  0
 42 43  1  0  0  0
 42 44  2  0  0  0
 44 36  1  0  0  0
 36  1  1  0  0  0
  1  2  2  0  0  0
  1  6  1  0  0  0
  2  3  1  0  0  0
  3  4  2  0  0  0
  3 20  1  0  0  0
  4  5  1  0  0  0
  5  6  2  0  0  0
  5  7  1  0  0  0
  7  8  1  0  0  0
  7 12  1  0  0  0
  8  9  1  0  0  0
  9 10  1  0  0  0
 10 11  1  0  0  0
 10 13  1  0  0  0
 11 12  1  0  0  0
 13 14  2  0  0  0
 13 18  1  0  0  0
 14 15  1  0  0  0
 15 16  2  0  0  0
 16 17  1  0  0  0
 17 18  2  0  0  0
 18 19  1  0  0  0
 20 21  1  0  0  0
 20 24  1  0  0  0
 21 22  1  0  0  0
 22 23  1  0  0  0
 23 24  1  0  0  0
 24 25  1  0  0  0
 25 26  2  0  0  0
 25 27  1  0  0  0
 27 29  1  0  0  0
 29 30  1  0  0  0
 30 31  2  0  0  0
 30 32  1  0  0  0
 32 33  1  0  0  0
 46 49  1  0  0  0
 36 37  1  0  0  0
 27 28  1  0  0  0
 32 34  1  0  0  0
 33 35  1  0  0  0
M  END
> <minimizedAffinity>
-9.66195

$$$$
3STR_3LI_P_209


 49 53  0  0  0  0  0  0  0  0999 V2000
   25.3382   -7.4305    6.1360 C   0  0  0  0  0  0  0  0  0  0  0  0
   25.5402   -8.7072    6.4753 N   0  0  0  0  0  0  0  0  0  0  0  0
   24.6328   -9.5853    6.0364 C   0  0  0  0  0  0  0  0  0  0  0  0
   23.5820   -9.2203    5.3061 N   0  0  0  0  0  0  0  0  0  0  0  0
   23.4550   -7.9235    5.0072 C   0  0  0  0  0  0  0  0  0  0  0  0
   24.3157   -6.9908    5.4089 N   0  0  0  0  0  0  0  0  0  0  0  0
   22.3484   -7.5054    4.2534 N   0  0  0  0  0  0  0  0  0  0  0  0
   21.1062   -8.1485    4.6075 C   0  0  0  0  0  0  0  0  0  0  0  0
   20.1516   -7.9190    3.4562 C   0  0  0  0  0  0  0  0  0  0  0  0
   20.0643   -6.4939    3.1888 N   0  0  0  0  0  0  0  0  0  0  0  0
   21.3289   -5.8700    2.8573 C   0  0  0  0  0  0  0  0  0  0  0  0
   22.2817   -6.0791    4.0186 C   0  0  0  0  0  0  0  0  0  0  0  0
   19.1199   -6.2808    2.1714 C   0  0  0  0  0  0  0  0  0  0  0  0
   19.3060   -6.8142    0.9178 C   0  0  0  0  0  0  0  0  0  0  0  0
   18.3766   -6.6080   -0.0746 C   0  0  0  0  0  0  0  0  0  0  0  0
   17.2448   -5.8711    0.1779 C   0  0  0  0  0  0  0  0  0  0  0  0
   17.0459   -5.3386    1.4269 C   0  0  0  0  0  0  0  0  0  0  0  0
   17.9840   -5.5465    2.4088 C   0  0  0  0  0  0  0  0  0  0  0  0
   17.7156   -4.8728    3.9654 Cl  0  0  0  0  0  0  0  0  0  0  0  0
   24.7840  -10.9465    6.3712 N   0  0  0  0  0  0  0  0  0  0  0  0
   24.2434  -11.2029    7.6905 C   0  0  0  0  0  0  0  0  0  0  0  0
   25.5022  -12.0279    8.6919 S   0  0  0  0  0  0  0  0  0  0  0  0
   26.4788  -12.4521    7.2285 C   0  0  0  0  0  0  0  0  0  0  0  0
   26.1773  -11.3586    6.2172 C   0  0  0  0  0  0  0  0  0  0  0  0
   26.3882  -11.9503    4.8566 C   0  0  0  0  0  0  0  0  0  0  0  0
   26.0257  -11.3701    3.8457 O   0  0  0  0  0  0  0  0  0  0  0  0
   27.0212  -13.1678    4.8529 N   0  0  0  0  0  0  0  0  0  0  0  0
   27.2496  -13.6334    5.6897 H   0  0  0  0  0  0  0  0  0  0  0  0
   27.3359  -13.7329    3.5622 C   0  0  0  0  0  0  0  0  0  0  0  0
   28.8180  -13.6336    3.3914 C   0  0  0  0  0  0  0  0  0  0  0  0
   29.3527  -13.5750    2.2960 O   0  0  0  0  0  0  0  0  0  0  0  0
   29.5104  -13.6212    4.5725 N   0  0  0  0  0  0  0  0  0  0  0  0
   30.8988  -13.6808    4.2966 O   0  0  0  0  0  0  0  0  0  0  0  0
   29.1079  -13.5778    5.4699 H   0  0  0  0  0  0  0  0  0  0  0  0
   31.0366  -13.7165    3.3371 H   0  0  0  0  0  0  0  0  0  0  0  0
   26.2714   -6.4910    6.5798 N   0  0  0  0  0  0  0  0  0  0  0  0
   27.1962   -6.5454    6.2466 H   0  0  0  0  0  0  0  0  0  0  0  0
   26.1554   -4.1578    7.1660 C   0  0  0  0  0  0  0  0  0  0  0  0
   25.8338   -3.1302    8.0193 C   0  0  0  0  0  0  0  0  0  0  0  0
   25.2680   -3.4400    9.2300 C   0  0  0  0  0  0  0  0  0  0  0  0
   25.0329   -4.7529    9.5619 C   0  0  0  0  0  0  0  0  0  0  0  0
   25.3654   -5.7686    8.6948 C   0  0  0  0  0  0  0  0  0  0  0  0
   25.0985   -7.1801    9.0804 C   0  0  0  0  0  0  0  0  0  0  0  0
   25.9369   -5.4760    7.4810 C   0  0  0  0  0  0  0  0  0  0  0  0
   28.8464   -3.6676    4.6615 C   0  0  0  0  0  0  0  0  0  0  0  0
   28.1163   -3.9638    5.8646 N   0  0  0  0  0  0  0  0  0  0  0  0
   26.7589   -3.8250    5.8824 C   0  0  0  0  0  0  0  0  0  0  0  0
   26.0508   -3.4770    4.9488 O   0  0  0  0  0  0  0  0  0  0  0  0
   28.5934   -4.2653    6.6713 H   0  0  0  0  0  0  0  0  0  0  0  0
 45 46  1  0  0  0
 46 47  1  0  0  0
 47 48  2  0  0  0
 47 38  1  0  0  0
 38 39  2  0  0  0
 38 44  1  0  0  0
 39 40  1  0  0  0
 40 41  2  0  0  0
 41 42  1  0  0  0
 42 43  1  0  0  0
 42 44  2  0  0  0
 44 36  1  0  0  0
 36  1  1  0  0  0
  1  2  2  0  0  0
  1  6  1  0  0  0
  2  3  1  0  0  0
  3  4  2  0  0  0
  3 20  1  0  0  0
  4  5  1  0  0  0
  5  6  2  0  0  0
  5  7  1  0  0  0
  7  8  1  0  0  0
  7 12  1  0  0  0
  8  9  1  0  0  0
  9 10  1  0  0  0
 10 11  1  0  0  0
 10 13  1  0  0  0
 11 12  1  0  0  0
 13 14  2  0  0  0
 13 18  1  0  0  0
 14 15  1  0  0  0
 15 16  2  0  0  0
 16 17  1  0  0  0
 17 18  2  0  0  0
 18 19  1  0  0  0
 20 21  1  0  0  0
 20 24  1  0  0  0
 21 22  1  0  0  0
 22 23  1  0  0  0
 23 24  1  0  0  0
 24 25  1  0  0  0
 25 26  2  0  0  0
 25 27  1  0  0  0
 27 29  1  0  0  0
 29 30  1  0  0  0
 30 31  2  0  0  0
 30 32  1  0  0  0
 32 33  1  0  0  0
 46 49  1  0  0  0
 36 37  1  0  0  0
 27 28  1  0  0  0
 32 34  1  0  0  0
 33 35  1  0  0  0
M  END
> <minimizedAffinity>
-9.45623

$$$$
3STR_3LI_P_209


 49 53  0  0  0  0  0  0  0  0999 V2000
   25.5252   -7.6132    5.2110 C   0  0  0  0  0  0  0  0  0  0  0  0
   25.7190   -8.8946    5.5375 N   0  0  0  0  0  0  0  0  0  0  0  0
   24.7342   -9.7404    5.2185 C   0  0  0  0  0  0  0  0  0  0  0  0
   23.6181   -9.3405    4.6142 N   0  0  0  0  0  0  0  0  0  0  0  0
   23.5042   -8.0417    4.3188 C   0  0  0  0  0  0  0  0  0  0  0  0
   24.4404   -7.1397    4.6056 N   0  0  0  0  0  0  0  0  0  0  0  0
   22.3321   -7.5867    3.6972 N   0  0  0  0  0  0  0  0  0  0  0  0
   21.1495   -8.3477    4.0207 C   0  0  0  0  0  0  0  0  0  0  0  0
   20.1133   -8.0126    2.9703 C   0  0  0  0  0  0  0  0  0  0  0  0
   19.9360   -6.5717    2.9211 N   0  0  0  0  0  0  0  0  0  0  0  0
   21.1432   -5.8316    2.6158 C   0  0  0  0  0  0  0  0  0  0  0  0
   22.1772   -6.1481    3.6792 C   0  0  0  0  0  0  0  0  0  0  0  0
   18.9192   -6.2716    2.0000 C   0  0  0  0  0  0  0  0  0  0  0  0
   18.9781   -6.7447    0.7103 C   0  0  0  0  0  0  0  0  0  0  0  0
   17.9782   -6.4532   -0.1876 C   0  0  0  0  0  0  0  0  0  0  0  0
   16.9021   -5.6903    0.1968 C   0  0  0  0  0  0  0  0  0  0  0  0
   16.8300   -5.2173    1.4830 C   0  0  0  0  0  0  0  0  0  0  0  0
   17.8377   -5.5103    2.3697 C   0  0  0  0  0  0  0  0  0  0  0  0
   17.7278   -4.9101    3.9748 Cl  0  0  0  0  0  0  0  0  0  0  0  0
   24.8740  -11.1043    5.5475 N   0  0  0  0  0  0  0  0  0  0  0  0
   24.7257  -11.2948    6.9759 C   0  0  0  0  0  0  0  0  0  0  0  0
   26.1567  -12.2065    7.5994 S   0  0  0  0  0  0  0  0  0  0  0  0
   26.6273  -12.7327    5.9329 C   0  0  0  0  0  0  0  0  0  0  0  0
   26.1260  -11.6333    5.0113 C   0  0  0  0  0  0  0  0  0  0  0  0
   25.8842  -12.2609    3.6721 C   0  0  0  0  0  0  0  0  0  0  0  0
   25.0908  -13.1777    3.5314 O   0  0  0  0  0  0  0  0  0  0  0  0
   26.6104  -11.7148    2.6437 N   0  0  0  0  0  0  0  0  0  0  0  0
   27.2830  -11.0136    2.8023 H   0  0  0  0  0  0  0  0  0  0  0  0
   26.3401  -12.2184    1.3180 C   0  0  0  0  0  0  0  0  0  0  0  0
   25.5499  -11.1686    0.6045 C   0  0  0  0  0  0  0  0  0  0  0  0
   25.5713   -9.9926    0.9299 O   0  0  0  0  0  0  0  0  0  0  0  0
   24.8024  -11.6519   -0.4358 N   0  0  0  0  0  0  0  0  0  0  0  0
   23.9821  -10.6123   -0.9396 O   0  0  0  0  0  0  0  0  0  0  0  0
   24.8304  -12.5742   -0.7790 H   0  0  0  0  0  0  0  0  0  0  0  0
   24.1399   -9.8010   -0.4317 H   0  0  0  0  0  0  0  0  0  0  0  0
   26.5385   -6.7070    5.5310 N   0  0  0  0  0  0  0  0  0  0  0  0
   27.4753   -6.9667    5.3755 H   0  0  0  0  0  0  0  0  0  0  0  0
   25.6433   -5.3143    7.2803 C   0  0  0  0  0  0  0  0  0  0  0  0
   25.3664   -4.0921    7.8435 C   0  0  0  0  0  0  0  0  0  0  0  0
   25.7352   -2.9605    7.1613 C   0  0  0  0  0  0  0  0  0  0  0  0
   26.3690   -3.0674    5.9464 C   0  0  0  0  0  0  0  0  0  0  0  0
   26.6345   -4.3010    5.3971 C   0  0  0  0  0  0  0  0  0  0  0  0
   27.3225   -4.3860    4.0810 C   0  0  0  0  0  0  0  0  0  0  0  0
   26.2676   -5.4435    6.0645 C   0  0  0  0  0  0  0  0  0  0  0  0
   23.4024   -8.0044    8.5034 C   0  0  0  0  0  0  0  0  0  0  0  0
   23.9332   -6.8427    7.8424 N   0  0  0  0  0  0  0  0  0  0  0  0
   25.2474   -6.5137    8.0064 C   0  0  0  0  0  0  0  0  0  0  0  0
   26.0736   -7.1257    8.6674 O   0  0  0  0  0  0  0  0  0  0  0  0
   23.3514   -6.2876    7.2744 H   0  0  0  0  0  0  0  0  0  0  0  0
 45 46  1  0  0  0
 46 47  1  0  0  0
 47 48  2  0  0  0
 47 38  1  0  0  0
 38 39  2  0  0  0
 38 44  1  0  0  0
 39 40  1  0  0  0
 40 41  2  0  0  0
 41 42  1  0  0  0
 42 43  1  0  0  0
 42 44  2  0  0  0
 44 36  1  0  0  0
 36  1  1  0  0  0
  1  2  2  0  0  0
  1  6  1  0  0  0
  2  3  1  0  0  0
  3  4  2  0  0  0
  3 20  1  0  0  0
  4  5  1  0  0  0
  5  6  2  0  0  0
  5  7  1  0  0  0
  7  8  1  0  0  0
  7 12  1  0  0  0
  8  9  1  0  0  0
  9 10  1  0  0  0
 10 11  1  0  0  0
 10 13  1  0  0  0
 11 12  1  0  0  0
 13 14  2  0  0  0
 13 18  1  0  0  0
 14 15  1  0  0  0
 15 16  2  0  0  0
 16 17  1  0  0  0
 17 18  2  0  0  0
 18 19  1  0  0  0
 20 21  1  0  0  0
 20 24  1  0  0  0
 21 22  1  0  0  0
 22 23  1  0  0  0
 23 24  1  0  0  0
 24 25  1  0  0  0
 25 26  2  0  0  0
 25 27  1  0  0  0
 27 29  1  0  0  0
 29 30  1  0  0  0
 30 31  2  0  0  0
 30 32  1  0  0  0
 32 33  1  0  0  0
 46 49  1  0  0  0
 36 37  1  0  0  0
 27 28  1  0  0  0
 32 34  1  0  0  0
 33 35  1  0  0  0
M  END
> <minimizedAffinity>
-9.17078

$$$$
