4YYT_S2O_A_303


 14 14  0  0  0  0  0  0  0  0999 V2000
   15.2009    0.0300   83.6966 C   0  0  0  0  0  0  0  0  0  0  0  0
   15.0344   -0.3674   82.3818 C   0  0  0  0  0  0  0  0  0  0  0  0
   16.3472   -0.3048   84.3930 C   0  0  0  0  0  0  0  0  0  0  0  0
   17.3307   -1.0435   83.7608 C   0  0  0  0  0  0  0  0  0  0  0  0
   17.1869   -1.4530   82.4450 C   0  0  0  0  0  0  0  0  0  0  0  0
   16.0288   -1.1050   81.7669 C   0  0  0  0  0  0  0  0  0  0  0  0
   13.8140    2.2081   83.7380 O   0  0  0  0  0  0  0  0  0  0  0  0
   13.9524    0.9963   84.4850 S   0  0  0  0  0  0  0  0  0  0  0  0
   12.8014    0.1578   84.6602 O   0  0  0  0  0  0  0  0  0  0  0  0
   14.4778    1.3895   85.9450 N   0  0  0  0  0  0  0  0  0  0  0  0
   15.2993    1.9883   85.8609 H   0  0  0  0  0  0  0  0  0  0  0  0
   14.7253    0.5427   86.4569 H   0  0  0  0  0  0  0  0  0  0  0  0
   18.2647   -2.2615   81.7666 C   0  0  0  0  0  0  0  0  0  0  0  0
   18.9807   -3.0586   82.8383 C   0  0  0  0  0  0  0  0  0  0  0  0
 14 13  1  0  0  0
 13  5  1  0  0  0
  5  6  2  0  0  0
  5  4  1  0  0  0
  6  2  1  0  0  0
  4  3  2  0  0  0
  2  1  2  0  0  0
  3  1  1  0  0  0
  1  8  1  0  0  0
 10  8  1  0  0  0
  7  8  2  0  0  0
  8  9  2  0  0  0
 10 11  1  0  0  0
 10 12  1  0  0  0
M  END
> <minimizedAffinity>
-5.09000

$$$$
4YYT_S2O_A_303


 14 14  0  0  0  0  0  0  0  0999 V2000
   15.2293    0.0621   83.6914 C   0  0  0  0  0  0  0  0  0  0  0  0
   16.3775   -0.2656   84.3905 C   0  0  0  0  0  0  0  0  0  0  0  0
   15.0574   -0.3564   82.3852 C   0  0  0  0  0  0  0  0  0  0  0  0
   16.0475   -1.1092   81.7807 C   0  0  0  0  0  0  0  0  0  0  0  0
   17.2060   -1.4499   82.4601 C   0  0  0  0  0  0  0  0  0  0  0  0
   17.3558   -1.0191   83.7693 C   0  0  0  0  0  0  0  0  0  0  0  0
   13.8026    2.2141   83.7430 O   0  0  0  0  0  0  0  0  0  0  0  0
   13.9596    0.9992   84.4813 S   0  0  0  0  0  0  0  0  0  0  0  0
   12.8234    0.1385   84.6448 O   0  0  0  0  0  0  0  0  0  0  0  0
   14.4712    1.3907   85.9468 N   0  0  0  0  0  0  0  0  0  0  0  0
   15.2819    2.0049   85.8711 H   0  0  0  0  0  0  0  0  0  0  0  0
   14.7318    0.5445   86.4532 H   0  0  0  0  0  0  0  0  0  0  0  0
   18.2810   -2.2685   81.7894 C   0  0  0  0  0  0  0  0  0  0  0  0
   18.9943   -3.0580   82.8686 C   0  0  0  0  0  0  0  0  0  0  0  0
 14 13  1  0  0  0
 13  5  1  0  0  0
  5  6  2  0  0  0
  5  4  1  0  0  0
  6  2  1  0  0  0
  4  3  2  0  0  0
  2  1  2  0  0  0
  3  1  1  0  0  0
  1  8  1  0  0  0
 10  8  1  0  0  0
  7  8  2  0  0  0
  8  9  2  0  0  0
 10 11  1  0  0  0
 10 12  1  0  0  0
M  END
> <minimizedAffinity>
-5.08509

$$$$
4YYT_S2O_A_303


 14 14  0  0  0  0  0  0  0  0999 V2000
   14.4447    1.5163   83.1034 C   0  0  0  0  0  0  0  0  0  0  0  0
   13.3286    2.2883   83.3732 C   0  0  0  0  0  0  0  0  0  0  0  0
   15.4139    1.9634   82.2250 C   0  0  0  0  0  0  0  0  0  0  0  0
   15.2576    3.1951   81.6158 C   0  0  0  0  0  0  0  0  0  0  0  0
   14.1489    3.9862   81.8699 C   0  0  0  0  0  0  0  0  0  0  0  0
   13.1903    3.5168   82.7547 C   0  0  0  0  0  0  0  0  0  0  0  0
   13.3950   -0.3793   84.5085 O   0  0  0  0  0  0  0  0  0  0  0  0
   14.6482   -0.0413   83.9077 S   0  0  0  0  0  0  0  0  0  0  0  0
   15.2252   -0.9479   82.9571 O   0  0  0  0  0  0  0  0  0  0  0  0
   15.7120    0.1459   85.0890 N   0  0  0  0  0  0  0  0  0  0  0  0
   15.3355    0.7869   85.7873 H   0  0  0  0  0  0  0  0  0  0  0  0
   16.5783    0.5276   84.7091 H   0  0  0  0  0  0  0  0  0  0  0  0
   13.9872    5.3264   81.1968 C   0  0  0  0  0  0  0  0  0  0  0  0
   12.6088    5.8501   81.5466 C   0  0  0  0  0  0  0  0  0  0  0  0
 14 13  1  0  0  0
 13  5  1  0  0  0
  5  6  2  0  0  0
  5  4  1  0  0  0
  6  2  1  0  0  0
  4  3  2  0  0  0
  2  1  2  0  0  0
  3  1  1  0  0  0
  1  8  1  0  0  0
 10  8  1  0  0  0
  7  8  2  0  0  0
  8  9  2  0  0  0
 10 11  1  0  0  0
 10 12  1  0  0  0
M  END
> <minimizedAffinity>
-4.93578

$$$$
4YYT_S2O_A_303


 14 14  0  0  0  0  0  0  0  0999 V2000
   15.0157    0.2915   83.4210 C   0  0  0  0  0  0  0  0  0  0  0  0
   15.8970   -0.6308   83.9567 C   0  0  0  0  0  0  0  0  0  0  0  0
   15.0244    0.5687   82.0668 C   0  0  0  0  0  0  0  0  0  0  0  0
   15.9258   -0.0873   81.2483 C   0  0  0  0  0  0  0  0  0  0  0  0
   16.8181   -1.0148   81.7613 C   0  0  0  0  0  0  0  0  0  0  0  0
   16.7903   -1.2765   83.1224 C   0  0  0  0  0  0  0  0  0  0  0  0
   13.5789    2.3840   83.8965 O   0  0  0  0  0  0  0  0  0  0  0  0
   13.8507    1.1021   84.4697 S   0  0  0  0  0  0  0  0  0  0  0  0
   12.7589    0.1968   84.6862 O   0  0  0  0  0  0  0  0  0  0  0  0
   14.5489    1.3490   85.8888 N   0  0  0  0  0  0  0  0  0  0  0  0
   15.3335    1.9908   85.7747 H   0  0  0  0  0  0  0  0  0  0  0  0
   14.8871    0.4614   86.2604 H   0  0  0  0  0  0  0  0  0  0  0  0
   17.7993   -1.7217   80.8596 C   0  0  0  0  0  0  0  0  0  0  0  0
   17.0045   -2.3992   79.7614 C   0  0  0  0  0  0  0  0  0  0  0  0
 14 13  1  0  0  0
 13  5  1  0  0  0
  5  6  2  0  0  0
  5  4  1  0  0  0
  6  2  1  0  0  0
  4  3  2  0  0  0
  2  1  2  0  0  0
  3  1  1  0  0  0
  1  8  1  0  0  0
 10  8  1  0  0  0
  7  8  2  0  0  0
  8  9  2  0  0  0
 10 11  1  0  0  0
 10 12  1  0  0  0
M  END
> <minimizedAffinity>
-4.86171

$$$$
4YYT_S2O_A_303


 14 14  0  0  0  0  0  0  0  0999 V2000
   16.8507   -1.2362   83.1447 C   0  0  0  0  0  0  0  0  0  0  0  0
   16.8742   -0.5928   84.3694 C   0  0  0  0  0  0  0  0  0  0  0  0
   15.7211   -1.1936   82.3492 C   0  0  0  0  0  0  0  0  0  0  0  0
   14.6096   -0.4986   82.7900 C   0  0  0  0  0  0  0  0  0  0  0  0
   14.6090    0.1536   84.0124 C   0  0  0  0  0  0  0  0  0  0  0  0
   15.7535    0.0971   84.7927 C   0  0  0  0  0  0  0  0  0  0  0  0
   18.5404   -3.1556   83.5056 O   0  0  0  0  0  0  0  0  0  0  0  0
   18.2839   -2.0965   82.5791 S   0  0  0  0  0  0  0  0  0  0  0  0
   18.0767   -2.4227   81.1974 O   0  0  0  0  0  0  0  0  0  0  0  0
   19.5258   -1.0888   82.6461 N   0  0  0  0  0  0  0  0  0  0  0  0
   19.7043   -0.8332   83.6173 H   0  0  0  0  0  0  0  0  0  0  0  0
   19.3121   -0.2495   82.1074 H   0  0  0  0  0  0  0  0  0  0  0  0
   13.3896    0.9056   84.4847 C   0  0  0  0  0  0  0  0  0  0  0  0
   13.3222    2.2029   83.7042 C   0  0  0  0  0  0  0  0  0  0  0  0
 14 13  1  0  0  0
 13  5  1  0  0  0
  5  6  2  0  0  0
  5  4  1  0  0  0
  6  2  1  0  0  0
  4  3  2  0  0  0
  2  1  2  0  0  0
  3  1  1  0  0  0
  1  8  1  0  0  0
 10  8  1  0  0  0
  7  8  2  0  0  0
  8  9  2  0  0  0
 10 11  1  0  0  0
 10 12  1  0  0  0
M  END
> <minimizedAffinity>
-4.80562

$$$$
4YYT_S2O_A_303


 14 14  0  0  0  0  0  0  0  0999 V2000
   16.2708   -0.1644   82.8417 C   0  0  0  0  0  0  0  0  0  0  0  0
   16.2913    0.9506   82.0228 C   0  0  0  0  0  0  0  0  0  0  0  0
   15.2540   -0.3438   83.7608 C   0  0  0  0  0  0  0  0  0  0  0  0
   14.2524    0.6052   83.8546 C   0  0  0  0  0  0  0  0  0  0  0  0
   14.2511    1.7300   83.0455 C   0  0  0  0  0  0  0  0  0  0  0  0
   15.2811    1.8881   82.1311 C   0  0  0  0  0  0  0  0  0  0  0  0
   18.7658   -0.6951   82.4380 O   0  0  0  0  0  0  0  0  0  0  0  0
   17.5384   -1.3833   82.6944 S   0  0  0  0  0  0  0  0  0  0  0  0
   17.4532   -2.2385   83.8433 O   0  0  0  0  0  0  0  0  0  0  0  0
   17.2148   -2.2825   81.4103 N   0  0  0  0  0  0  0  0  0  0  0  0
   17.2660   -1.7064   80.5701 H   0  0  0  0  0  0  0  0  0  0  0  0
   16.2771   -2.6744   81.4972 H   0  0  0  0  0  0  0  0  0  0  0  0
   13.1552    2.7604   83.1590 C   0  0  0  0  0  0  0  0  0  0  0  0
   13.4422    3.8466   82.1420 C   0  0  0  0  0  0  0  0  0  0  0  0
 14 13  1  0  0  0
 13  5  1  0  0  0
  5  6  2  0  0  0
  5  4  1  0  0  0
  6  2  1  0  0  0
  4  3  2  0  0  0
  2  1  2  0  0  0
  3  1  1  0  0  0
  1  8  1  0  0  0
 10  8  1  0  0  0
  7  8  2  0  0  0
  8  9  2  0  0  0
 10 11  1  0  0  0
 10 12  1  0  0  0
M  END
> <minimizedAffinity>
-4.79209

$$$$
4YYT_S2O_A_303


 14 14  0  0  0  0  0  0  0  0999 V2000
   16.8879   -0.7600   82.5629 C   0  0  0  0  0  0  0  0  0  0  0  0
   16.8641    0.5126   82.0203 C   0  0  0  0  0  0  0  0  0  0  0  0
   15.8565   -1.1994   83.3716 C   0  0  0  0  0  0  0  0  0  0  0  0
   14.7955   -0.3521   83.6343 C   0  0  0  0  0  0  0  0  0  0  0  0
   14.7491    0.9265   83.1025 C   0  0  0  0  0  0  0  0  0  0  0  0
   15.7948    1.3448   82.2941 C   0  0  0  0  0  0  0  0  0  0  0  0
   17.9814   -2.4196   80.9140 O   0  0  0  0  0  0  0  0  0  0  0  0
   18.2326   -1.8431   82.1986 S   0  0  0  0  0  0  0  0  0  0  0  0
   19.4482   -1.1080   82.3999 O   0  0  0  0  0  0  0  0  0  0  0  0
   18.2158   -3.0322   83.2701 N   0  0  0  0  0  0  0  0  0  0  0  0
   17.3625   -3.5795   83.1573 H   0  0  0  0  0  0  0  0  0  0  0  0
   18.2473   -2.6417   84.2118 H   0  0  0  0  0  0  0  0  0  0  0  0
   13.5885    1.8434   83.3988 C   0  0  0  0  0  0  0  0  0  0  0  0
   13.1487    1.5778   84.8245 C   0  0  0  0  0  0  0  0  0  0  0  0
 14 13  1  0  0  0
 13  5  1  0  0  0
  5  6  2  0  0  0
  5  4  1  0  0  0
  6  2  1  0  0  0
  4  3  2  0  0  0
  2  1  2  0  0  0
  3  1  1  0  0  0
  1  8  1  0  0  0
 10  8  1  0  0  0
  7  8  2  0  0  0
  8  9  2  0  0  0
 10 11  1  0  0  0
 10 12  1  0  0  0
M  END
> <minimizedAffinity>
-4.55941

$$$$
4YYT_S2O_A_303


 14 14  0  0  0  0  0  0  0  0999 V2000
   15.6585   -0.5905   82.8920 C   0  0  0  0  0  0  0  0  0  0  0  0
   16.6355   -1.1568   83.6916 C   0  0  0  0  0  0  0  0  0  0  0  0
   15.6990   -0.7408   81.5185 C   0  0  0  0  0  0  0  0  0  0  0  0
   16.7293   -1.4658   80.9479 C   0  0  0  0  0  0  0  0  0  0  0  0
   17.7192   -2.0422   81.7275 C   0  0  0  0  0  0  0  0  0  0  0  0
   17.6572   -1.8782   83.1027 C   0  0  0  0  0  0  0  0  0  0  0  0
   14.8238    0.8653   84.8550 O   0  0  0  0  0  0  0  0  0  0  0  0
   14.3328    0.3088   83.6323 S   0  0  0  0  0  0  0  0  0  0  0  0
   13.7993    1.1929   82.6362 O   0  0  0  0  0  0  0  0  0  0  0  0
   13.1767   -0.7324   84.0088 N   0  0  0  0  0  0  0  0  0  0  0  0
   13.5203   -1.3803   84.7177 H   0  0  0  0  0  0  0  0  0  0  0  0
   12.9038   -1.2535   83.1755 H   0  0  0  0  0  0  0  0  0  0  0  0
   18.8402   -2.8279   81.0939 C   0  0  0  0  0  0  0  0  0  0  0  0
   18.4133   -3.1758   79.6821 C   0  0  0  0  0  0  0  0  0  0  0  0
 14 13  1  0  0  0
 13  5  1  0  0  0
  5  6  2  0  0  0
  5  4  1  0  0  0
  6  2  1  0  0  0
  4  3  2  0  0  0
  2  1  2  0  0  0
  3  1  1  0  0  0
  1  8  1  0  0  0
 10  8  1  0  0  0
  7  8  2  0  0  0
  8  9  2  0  0  0
 10 11  1  0  0  0
 10 12  1  0  0  0
M  END
> <minimizedAffinity>
-4.32799

$$$$
4YYT_S2O_A_303


 14 14  0  0  0  0  0  0  0  0999 V2000
   14.5717    3.2213   82.0461 C   0  0  0  0  0  0  0  0  0  0  0  0
   14.0055    2.1351   82.6895 C   0  0  0  0  0  0  0  0  0  0  0  0
   15.8927    3.1885   81.6402 C   0  0  0  0  0  0  0  0  0  0  0  0
   16.6467    2.0550   81.8836 C   0  0  0  0  0  0  0  0  0  0  0  0
   16.1021    0.9548   82.5260 C   0  0  0  0  0  0  0  0  0  0  0  0
   14.7752    1.0109   82.9236 C   0  0  0  0  0  0  0  0  0  0  0  0
   13.7814    5.5602   82.8041 O   0  0  0  0  0  0  0  0  0  0  0  0
   13.5929    4.6519   81.7154 S   0  0  0  0  0  0  0  0  0  0  0  0
   13.9049    5.0929   80.3862 O   0  0  0  0  0  0  0  0  0  0  0  0
   12.0540    4.2114   81.7186 N   0  0  0  0  0  0  0  0  0  0  0  0
   11.7942    3.8903   82.6512 H   0  0  0  0  0  0  0  0  0  0  0  0
   11.9153    3.4555   81.0479 H   0  0  0  0  0  0  0  0  0  0  0  0
   16.9351   -0.2750   82.7894 C   0  0  0  0  0  0  0  0  0  0  0  0
   16.6984   -0.6877   84.2283 C   0  0  0  0  0  0  0  0  0  0  0  0
 14 13  1  0  0  0
 13  5  1  0  0  0
  5  6  2  0  0  0
  5  4  1  0  0  0
  6  2  1  0  0  0
  4  3  2  0  0  0
  2  1  2  0  0  0
  3  1  1  0  0  0
  1  8  1  0  0  0
 10  8  1  0  0  0
  7  8  2  0  0  0
  8  9  2  0  0  0
 10 11  1  0  0  0
 10 12  1  0  0  0
M  END
> <minimizedAffinity>
-4.22952

$$$$
4YYT_S2O_A_303


 14 14  0  0  0  0  0  0  0  0999 V2000
   16.3417   -0.0580   81.4431 C   0  0  0  0  0  0  0  0  0  0  0  0
   16.0106   -1.1969   82.1557 C   0  0  0  0  0  0  0  0  0  0  0  0
   15.6897    1.1369   81.6839 C   0  0  0  0  0  0  0  0  0  0  0  0
   14.6994    1.1843   82.6481 C   0  0  0  0  0  0  0  0  0  0  0  0
   14.3502    0.0573   83.3746 C   0  0  0  0  0  0  0  0  0  0  0  0
   15.0182   -1.1296   83.1156 C   0  0  0  0  0  0  0  0  0  0  0  0
   18.8646   -0.2716   80.9347 O   0  0  0  0  0  0  0  0  0  0  0  0
   17.6262   -0.1227   80.2348 S   0  0  0  0  0  0  0  0  0  0  0  0
   17.2583   -1.1126   79.2636 O   0  0  0  0  0  0  0  0  0  0  0  0
   17.6681    1.2882   79.4797 N   0  0  0  0  0  0  0  0  0  0  0  0
   17.9273    2.0202   80.1410 H   0  0  0  0  0  0  0  0  0  0  0  0
   16.7480    1.4925   79.0897 H   0  0  0  0  0  0  0  0  0  0  0  0
   13.2659    0.1199   84.4214 C   0  0  0  0  0  0  0  0  0  0  0  0
   13.2564    1.5263   84.9859 C   0  0  0  0  0  0  0  0  0  0  0  0
 14 13  1  0  0  0
 13  5  1  0  0  0
  5  6  2  0  0  0
  5  4  1  0  0  0
  6  2  1  0  0  0
  4  3  2  0  0  0
  2  1  2  0  0  0
  3  1  1  0  0  0
  1  8  1  0  0  0
 10  8  1  0  0  0
  7  8  2  0  0  0
  8  9  2  0  0  0
 10 11  1  0  0  0
 10 12  1  0  0  0
M  END
> <minimizedAffinity>
-4.13466

$$$$
