2HMV_ADP_A_601


 34 36  0  0  0  0  0  0  0  0999 V2000
  110.1820   52.1634   14.0253 C   0  0  0  0  0  0  0  0  0  0  0  0
  109.2850   53.1499   13.4103 O   0  0  0  0  0  0  0  0  0  0  0  0
  111.6060   52.7781   14.0224 C   0  0  0  0  0  0  0  0  0  0  0  0
  112.3779   52.2545   12.9330 O   0  0  0  0  0  0  0  0  0  0  0  0
  111.3317   54.2783   13.9044 C   0  0  0  0  0  0  0  0  0  0  0  0
  112.4300   54.9930   13.3430 O   0  0  0  0  0  0  0  0  0  0  0  0
  110.0741   54.3203   13.0324 C   0  0  0  0  0  0  0  0  0  0  0  0
  111.9140   52.4226   12.0979 H   0  0  0  0  0  0  0  0  0  0  0  0
  112.6396   54.6289   12.4687 H   0  0  0  0  0  0  0  0  0  0  0  0
  109.3193   55.5644   13.2594 N   0  0  0  0  0  0  0  0  0  0  0  0
  109.5560   56.5283   14.2153 C   0  0  0  0  0  0  0  0  0  0  0  0
  108.6840   57.4868   14.1123 N   0  0  0  0  0  0  0  0  0  0  0  0
  107.8320   57.2102   13.0963 C   0  0  0  0  0  0  0  0  0  0  0  0
  106.7074   57.8614   12.5150 C   0  0  0  0  0  0  0  0  0  0  0  0
  106.2602   59.0751   13.0134 N   0  0  0  0  0  0  0  0  0  0  0  0
  106.0788   57.2677   11.4685 N   0  0  0  0  0  0  0  0  0  0  0  0
  106.4957   56.0911   10.9726 C   0  0  0  0  0  0  0  0  0  0  0  0
  107.5529   55.4474   11.4896 N   0  0  0  0  0  0  0  0  0  0  0  0
  108.2380   55.9668   12.5322 C   0  0  0  0  0  0  0  0  0  0  0  0
  106.7240   59.4964   13.7728 H   0  0  0  0  0  0  0  0  0  0  0  0
  105.4788   59.5159   12.6079 H   0  0  0  0  0  0  0  0  0  0  0  0
  109.7257   51.8507   15.4551 C   0  0  0  0  0  0  0  0  0  0  0  0
  110.7831   52.0739   16.3823 O   0  0  0  0  0  0  0  0  0  0  0  0
  111.3279   50.6425   16.9300 P   0  0  0  0  0  0  0  0  0  0  0  0
  112.0852   50.9043   18.1764 O   0  0  0  0  0  0  0  0  0  0  0  0
  112.3028   49.9306   15.8538 O   0  0  0  0  0  0  0  0  0  0  0  0
  112.6104   49.0817   16.2082 H   0  0  0  0  0  0  0  0  0  0  0  0
  110.0491   49.6762   17.2128 O   0  0  0  0  0  0  0  0  0  0  0  0
  110.4373   48.4466   18.2072 P   0  0  0  0  0  0  0  0  0  0  0  0
  109.3824   47.4031   18.1616 O   0  0  0  0  0  0  0  0  0  0  0  0
  111.8553   47.8047   17.7769 O   0  0  0  0  0  0  0  0  0  0  0  0
  110.5596   49.0166   19.7087 O   0  0  0  0  0  0  0  0  0  0  0  0
  112.0748   47.0744   18.3763 H   0  0  0  0  0  0  0  0  0  0  0  0
  110.7909   48.2927   20.3115 H   0  0  0  0  0  0  0  0  0  0  0  0
 29 30  2  0  0  0
 29 31  1  0  0  0
 29 32  1  0  0  0
 29 28  1  0  0  0
 24 25  2  0  0  0
 24 26  1  0  0  0
 24 28  1  0  0  0
 24 23  1  0  0  0
 23 22  1  0  0  0
 22  1  1  0  0  0
  1  2  1  0  0  0
  1  3  1  0  0  0
  2  7  1  0  0  0
  3  4  1  0  0  0
  3  5  1  0  0  0
  5  6  1  0  0  0
  5  7  1  0  0  0
  7 10  1  0  0  0
 10 11  1  0  0  0
 10 19  1  0  0  0
 11 12  2  0  0  0
 12 13  1  0  0  0
 13 14  1  0  0  0
 13 19  2  0  0  0
 14 15  1  0  0  0
 14 16  2  0  0  0
 16 17  1  0  0  0
 17 18  2  0  0  0
 18 19  1  0  0  0
 31 33  1  0  0  0
 32 34  1  0  0  0
 26 27  1  0  0  0
  4  8  1  0  0  0
  6  9  1  0  0  0
 15 20  1  0  0  0
 15 21  1  0  0  0
M  END
> <minimizedAffinity>
-8.58560

$$$$
2HMV_ADP_A_601


 34 36  0  0  0  0  0  0  0  0999 V2000
  110.5028   52.2712   14.3804 C   0  0  0  0  0  0  0  0  0  0  0  0
  109.3641   53.1576   14.1088 O   0  0  0  0  0  0  0  0  0  0  0  0
  111.6296   52.6597   13.3879 C   0  0  0  0  0  0  0  0  0  0  0  0
  111.6594   51.7504   12.2793 O   0  0  0  0  0  0  0  0  0  0  0  0
  111.2577   54.0889   12.9891 C   0  0  0  0  0  0  0  0  0  0  0  0
  111.7917   54.4597   11.7204 O   0  0  0  0  0  0  0  0  0  0  0  0
  109.7273   54.0552   13.0143 C   0  0  0  0  0  0  0  0  0  0  0  0
  110.7908   51.7383   11.8476 H   0  0  0  0  0  0  0  0  0  0  0  0
  111.4784   53.8392   11.0439 H   0  0  0  0  0  0  0  0  0  0  0  0
  109.1761   55.4038   13.2294 N   0  0  0  0  0  0  0  0  0  0  0  0
  109.5908   56.3445   14.1471 C   0  0  0  0  0  0  0  0  0  0  0  0
  108.8684   57.4203   14.0452 N   0  0  0  0  0  0  0  0  0  0  0  0
  107.9460   57.2499   13.0680 C   0  0  0  0  0  0  0  0  0  0  0  0
  106.9097   58.0482   12.5064 C   0  0  0  0  0  0  0  0  0  0  0  0
  106.6683   59.3273   12.9829 N   0  0  0  0  0  0  0  0  0  0  0  0
  106.1595   57.5300   11.5006 N   0  0  0  0  0  0  0  0  0  0  0  0
  106.3766   56.2922   11.0265 C   0  0  0  0  0  0  0  0  0  0  0  0
  107.3450   55.5098   11.5259 N   0  0  0  0  0  0  0  0  0  0  0  0
  108.1397   55.9460   12.5281 C   0  0  0  0  0  0  0  0  0  0  0  0
  107.2188   59.6927   13.7128 H   0  0  0  0  0  0  0  0  0  0  0  0
  105.9464   59.8703   12.5915 H   0  0  0  0  0  0  0  0  0  0  0  0
  110.9712   52.4390   15.8305 C   0  0  0  0  0  0  0  0  0  0  0  0
  110.4370   53.6304   16.3985 O   0  0  0  0  0  0  0  0  0  0  0  0
  111.6217   54.4359   17.1689 P   0  0  0  0  0  0  0  0  0  0  0  0
  112.3676   53.4510   17.9869 O   0  0  0  0  0  0  0  0  0  0  0  0
  111.0225   55.5861   18.1350 O   0  0  0  0  0  0  0  0  0  0  0  0
  111.7512   56.0474   18.5790 H   0  0  0  0  0  0  0  0  0  0  0  0
  112.5880   55.1246   16.0548 O   0  0  0  0  0  0  0  0  0  0  0  0
  113.3707   56.4179   16.6599 P   0  0  0  0  0  0  0  0  0  0  0  0
  112.5619   57.6452   16.4516 O   0  0  0  0  0  0  0  0  0  0  0  0
  113.6527   56.2144   18.2369 O   0  0  0  0  0  0  0  0  0  0  0  0
  114.7803   56.5716   15.8959 O   0  0  0  0  0  0  0  0  0  0  0  0
  114.1188   56.9907   18.5848 H   0  0  0  0  0  0  0  0  0  0  0  0
  115.2568   57.3397   16.2479 H   0  0  0  0  0  0  0  0  0  0  0  0
 29 30  2  0  0  0
 29 31  1  0  0  0
 29 32  1  0  0  0
 29 28  1  0  0  0
 24 25  2  0  0  0
 24 26  1  0  0  0
 24 28  1  0  0  0
 24 23  1  0  0  0
 23 22  1  0  0  0
 22  1  1  0  0  0
  1  2  1  0  0  0
  1  3  1  0  0  0
  2  7  1  0  0  0
  3  4  1  0  0  0
  3  5  1  0  0  0
  5  6  1  0  0  0
  5  7  1  0  0  0
  7 10  1  0  0  0
 10 11  1  0  0  0
 10 19  1  0  0  0
 11 12  2  0  0  0
 12 13  1  0  0  0
 13 14  1  0  0  0
 13 19  2  0  0  0
 14 15  1  0  0  0
 14 16  2  0  0  0
 16 17  1  0  0  0
 17 18  2  0  0  0
 18 19  1  0  0  0
 31 33  1  0  0  0
 32 34  1  0  0  0
 26 27  1  0  0  0
  4  8  1  0  0  0
  6  9  1  0  0  0
 15 20  1  0  0  0
 15 21  1  0  0  0
M  END
> <minimizedAffinity>
-8.29624

$$$$
2HMV_ADP_A_601


 34 36  0  0  0  0  0  0  0  0999 V2000
  110.2966   52.1606   14.4408 C   0  0  0  0  0  0  0  0  0  0  0  0
  109.2105   53.0986   14.1302 O   0  0  0  0  0  0  0  0  0  0  0  0
  111.4857   52.5161   13.5107 C   0  0  0  0  0  0  0  0  0  0  0  0
  111.5317   51.6234   12.3891 O   0  0  0  0  0  0  0  0  0  0  0  0
  111.1937   53.9657   13.1194 C   0  0  0  0  0  0  0  0  0  0  0  0
  111.8040   54.3329   11.8846 O   0  0  0  0  0  0  0  0  0  0  0  0
  109.6639   53.9967   13.0703 C   0  0  0  0  0  0  0  0  0  0  0  0
  110.6855   51.6549   11.9160 H   0  0  0  0  0  0  0  0  0  0  0  0
  111.4985   53.7368   11.1830 H   0  0  0  0  0  0  0  0  0  0  0  0
  109.1595   55.3640   13.2821 N   0  0  0  0  0  0  0  0  0  0  0  0
  109.6011   56.2893   14.2028 C   0  0  0  0  0  0  0  0  0  0  0  0
  108.9181   57.3902   14.0964 N   0  0  0  0  0  0  0  0  0  0  0  0
  107.9969   57.2527   13.1128 C   0  0  0  0  0  0  0  0  0  0  0  0
  106.9935   58.0874   12.5445 C   0  0  0  0  0  0  0  0  0  0  0  0
  106.7946   59.3742   13.0198 N   0  0  0  0  0  0  0  0  0  0  0  0
  106.2323   57.5963   11.5335 N   0  0  0  0  0  0  0  0  0  0  0  0
  106.4085   56.3515   11.0604 C   0  0  0  0  0  0  0  0  0  0  0  0
  107.3450   55.5353   11.5662 N   0  0  0  0  0  0  0  0  0  0  0  0
  108.1479   55.9428   12.5739 C   0  0  0  0  0  0  0  0  0  0  0  0
  107.3527   59.7198   13.7535 H   0  0  0  0  0  0  0  0  0  0  0  0
  106.0951   59.9426   12.6236 H   0  0  0  0  0  0  0  0  0  0  0  0
  110.7002   52.2860   15.9145 C   0  0  0  0  0  0  0  0  0  0  0  0
  110.5312   53.6238   16.3718 O   0  0  0  0  0  0  0  0  0  0  0  0
  111.8870   54.1077   17.1291 P   0  0  0  0  0  0  0  0  0  0  0  0
  111.5335   55.2791   17.9648 O   0  0  0  0  0  0  0  0  0  0  0  0
  113.0341   54.5340   16.0719 O   0  0  0  0  0  0  0  0  0  0  0  0
  113.8277   54.8169   16.5525 H   0  0  0  0  0  0  0  0  0  0  0  0
  112.4349   52.8783   18.0443 O   0  0  0  0  0  0  0  0  0  0  0  0
  114.0169   53.0495   18.3901 P   0  0  0  0  0  0  0  0  0  0  0  0
  114.8413   52.5473   17.2622 O   0  0  0  0  0  0  0  0  0  0  0  0
  114.3646   54.6019   18.6679 O   0  0  0  0  0  0  0  0  0  0  0  0
  114.3502   52.1974   19.7157 O   0  0  0  0  0  0  0  0  0  0  0  0
  115.3087   54.6902   18.8724 H   0  0  0  0  0  0  0  0  0  0  0  0
  115.2910   52.2914   19.9324 H   0  0  0  0  0  0  0  0  0  0  0  0
 29 30  2  0  0  0
 29 31  1  0  0  0
 29 32  1  0  0  0
 29 28  1  0  0  0
 24 25  2  0  0  0
 24 26  1  0  0  0
 24 28  1  0  0  0
 24 23  1  0  0  0
 23 22  1  0  0  0
 22  1  1  0  0  0
  1  2  1  0  0  0
  1  3  1  0  0  0
  2  7  1  0  0  0
  3  4  1  0  0  0
  3  5  1  0  0  0
  5  6  1  0  0  0
  5  7  1  0  0  0
  7 10  1  0  0  0
 10 11  1  0  0  0
 10 19  1  0  0  0
 11 12  2  0  0  0
 12 13  1  0  0  0
 13 14  1  0  0  0
 13 19  2  0  0  0
 14 15  1  0  0  0
 14 16  2  0  0  0
 16 17  1  0  0  0
 17 18  2  0  0  0
 18 19  1  0  0  0
 31 33  1  0  0  0
 32 34  1  0  0  0
 26 27  1  0  0  0
  4  8  1  0  0  0
  6  9  1  0  0  0
 15 20  1  0  0  0
 15 21  1  0  0  0
M  END
> <minimizedAffinity>
-8.11786

$$$$
2HMV_ADP_A_601


 34 36  0  0  0  0  0  0  0  0999 V2000
  109.9010   51.2758   15.5889 C   0  0  0  0  0  0  0  0  0  0  0  0
  109.6662   52.6912   15.9007 O   0  0  0  0  0  0  0  0  0  0  0  0
  110.7965   51.2304   14.3234 C   0  0  0  0  0  0  0  0  0  0  0  0
  110.0045   50.9756   13.1552 O   0  0  0  0  0  0  0  0  0  0  0  0
  111.4549   52.6111   14.3194 C   0  0  0  0  0  0  0  0  0  0  0  0
  111.8749   53.0135   13.0179 O   0  0  0  0  0  0  0  0  0  0  0  0
  110.3587   53.5055   14.9043 C   0  0  0  0  0  0  0  0  0  0  0  0
  109.3127   51.6514   13.0799 H   0  0  0  0  0  0  0  0  0  0  0  0
  111.1129   53.0126   12.4176 H   0  0  0  0  0  0  0  0  0  0  0  0
  110.9378   54.7134   15.5163 N   0  0  0  0  0  0  0  0  0  0  0  0
  110.6589   56.0274   15.2087 C   0  0  0  0  0  0  0  0  0  0  0  0
  111.3620   56.8232   15.9584 N   0  0  0  0  0  0  0  0  0  0  0  0
  112.1368   56.0868   16.7905 C   0  0  0  0  0  0  0  0  0  0  0  0
  113.0851   56.3792   17.8111 C   0  0  0  0  0  0  0  0  0  0  0  0
  113.3942   57.6920   18.1312 N   0  0  0  0  0  0  0  0  0  0  0  0
  113.6846   55.3480   18.4593 N   0  0  0  0  0  0  0  0  0  0  0  0
  113.4000   54.0693   18.1624 C   0  0  0  0  0  0  0  0  0  0  0  0
  112.5101   53.7520   17.2102 N   0  0  0  0  0  0  0  0  0  0  0  0
  111.8659   54.7156   16.5155 C   0  0  0  0  0  0  0  0  0  0  0  0
  112.9531   58.4318   17.6543 H   0  0  0  0  0  0  0  0  0  0  0  0
  114.0548   57.8846   18.8353 H   0  0  0  0  0  0  0  0  0  0  0  0
  110.5887   50.5798   16.7691 C   0  0  0  0  0  0  0  0  0  0  0  0
  109.6382   49.8804   17.5658 O   0  0  0  0  0  0  0  0  0  0  0  0
  110.4063   48.7536   18.4526 P   0  0  0  0  0  0  0  0  0  0  0  0
  111.7986   48.6699   17.9525 O   0  0  0  0  0  0  0  0  0  0  0  0
  109.7003   47.3059   18.3081 O   0  0  0  0  0  0  0  0  0  0  0  0
  110.1797   46.6571   18.8468 H   0  0  0  0  0  0  0  0  0  0  0  0
  110.3705   49.2115   20.0141 O   0  0  0  0  0  0  0  0  0  0  0  0
  111.4532   48.3833   20.9047 P   0  0  0  0  0  0  0  0  0  0  0  0
  112.6902   49.1858   21.0772 O   0  0  0  0  0  0  0  0  0  0  0  0
  110.8317   48.0256   22.3517 O   0  0  0  0  0  0  0  0  0  0  0  0
  111.8094   47.0116   20.1391 O   0  0  0  0  0  0  0  0  0  0  0  0
  111.4857   47.5330   22.8717 H   0  0  0  0  0  0  0  0  0  0  0  0
  112.4545   46.5085   20.6604 H   0  0  0  0  0  0  0  0  0  0  0  0
 29 30  2  0  0  0
 29 31  1  0  0  0
 29 32  1  0  0  0
 29 28  1  0  0  0
 24 25  2  0  0  0
 24 26  1  0  0  0
 24 28  1  0  0  0
 24 23  1  0  0  0
 23 22  1  0  0  0
 22  1  1  0  0  0
  1  2  1  0  0  0
  1  3  1  0  0  0
  2  7  1  0  0  0
  3  4  1  0  0  0
  3  5  1  0  0  0
  5  6  1  0  0  0
  5  7  1  0  0  0
  7 10  1  0  0  0
 10 11  1  0  0  0
 10 19  1  0  0  0
 11 12  2  0  0  0
 12 13  1  0  0  0
 13 14  1  0  0  0
 13 19  2  0  0  0
 14 15  1  0  0  0
 14 16  2  0  0  0
 16 17  1  0  0  0
 17 18  2  0  0  0
 18 19  1  0  0  0
 31 33  1  0  0  0
 32 34  1  0  0  0
 26 27  1  0  0  0
  4  8  1  0  0  0
  6  9  1  0  0  0
 15 20  1  0  0  0
 15 21  1  0  0  0
M  END
> <minimizedAffinity>
-7.47055

$$$$
2HMV_ADP_A_601


 34 36  0  0  0  0  0  0  0  0999 V2000
  111.6603   52.5039   14.3293 C   0  0  0  0  0  0  0  0  0  0  0  0
  112.3675   51.7478   15.3705 O   0  0  0  0  0  0  0  0  0  0  0  0
  110.1926   52.0026   14.3196 C   0  0  0  0  0  0  0  0  0  0  0  0
  109.9892   51.0614   13.2568 O   0  0  0  0  0  0  0  0  0  0  0  0
  110.0306   51.3889   15.7114 C   0  0  0  0  0  0  0  0  0  0  0  0
  109.0004   50.4046   15.7590 O   0  0  0  0  0  0  0  0  0  0  0  0
  111.4241   50.8192   15.9894 C   0  0  0  0  0  0  0  0  0  0  0  0
  110.6171   50.3280   13.3498 H   0  0  0  0  0  0  0  0  0  0  0  0
  109.1906   49.7060   15.1134 H   0  0  0  0  0  0  0  0  0  0  0  0
  111.6652   50.7053   17.4378 N   0  0  0  0  0  0  0  0  0  0  0  0
  112.4031   51.5524   18.2359 C   0  0  0  0  0  0  0  0  0  0  0  0
  112.3920   51.1334   19.4664 N   0  0  0  0  0  0  0  0  0  0  0  0
  111.6568   49.9986   19.5467 C   0  0  0  0  0  0  0  0  0  0  0  0
  111.2864   49.1066   20.5926 C   0  0  0  0  0  0  0  0  0  0  0  0
  111.7178   49.3254   21.8916 N   0  0  0  0  0  0  0  0  0  0  0  0
  110.5086   48.0355   20.2915 N   0  0  0  0  0  0  0  0  0  0  0  0
  110.0821   47.8053   19.0388 C   0  0  0  0  0  0  0  0  0  0  0  0
  110.4060   48.6235   18.0264 N   0  0  0  0  0  0  0  0  0  0  0  0
  111.1760   49.7140   18.2364 C   0  0  0  0  0  0  0  0  0  0  0  0
  112.2816   50.1056   22.0983 H   0  0  0  0  0  0  0  0  0  0  0  0
  111.4604   48.7005   22.6076 H   0  0  0  0  0  0  0  0  0  0  0  0
  111.7219   54.0058   14.6304 C   0  0  0  0  0  0  0  0  0  0  0  0
  112.5943   54.2654   15.7254 O   0  0  0  0  0  0  0  0  0  0  0  0
  111.8223   55.1890   16.8195 P   0  0  0  0  0  0  0  0  0  0  0  0
  110.4735   54.6083   17.0165 O   0  0  0  0  0  0  0  0  0  0  0  0
  111.6755   56.7153   16.3056 O   0  0  0  0  0  0  0  0  0  0  0  0
  111.2125   57.2396   16.9776 H   0  0  0  0  0  0  0  0  0  0  0  0
  112.6762   55.1722   18.2051 O   0  0  0  0  0  0  0  0  0  0  0  0
  113.9475   56.1873   18.1361 P   0  0  0  0  0  0  0  0  0  0  0  0
  114.9666   55.7953   19.1419 O   0  0  0  0  0  0  0  0  0  0  0  0
  114.6035   56.1638   16.6606 O   0  0  0  0  0  0  0  0  0  0  0  0
  113.4328   57.6806   18.4518 O   0  0  0  0  0  0  0  0  0  0  0  0
  115.3587   56.7718   16.6328 H   0  0  0  0  0  0  0  0  0  0  0  0
  114.1820   58.2956   18.4136 H   0  0  0  0  0  0  0  0  0  0  0  0
 29 30  2  0  0  0
 29 31  1  0  0  0
 29 32  1  0  0  0
 29 28  1  0  0  0
 24 25  2  0  0  0
 24 26  1  0  0  0
 24 28  1  0  0  0
 24 23  1  0  0  0
 23 22  1  0  0  0
 22  1  1  0  0  0
  1  2  1  0  0  0
  1  3  1  0  0  0
  2  7  1  0  0  0
  3  4  1  0  0  0
  3  5  1  0  0  0
  5  6  1  0  0  0
  5  7  1  0  0  0
  7 10  1  0  0  0
 10 11  1  0  0  0
 10 19  1  0  0  0
 11 12  2  0  0  0
 12 13  1  0  0  0
 13 14  1  0  0  0
 13 19  2  0  0  0
 14 15  1  0  0  0
 14 16  2  0  0  0
 16 17  1  0  0  0
 17 18  2  0  0  0
 18 19  1  0  0  0
 31 33  1  0  0  0
 32 34  1  0  0  0
 26 27  1  0  0  0
  4  8  1  0  0  0
  6  9  1  0  0  0
 15 20  1  0  0  0
 15 21  1  0  0  0
M  END
> <minimizedAffinity>
-7.43324

$$$$
2HMV_ADP_A_601


 34 36  0  0  0  0  0  0  0  0999 V2000
  110.5018   52.0950   15.7071 C   0  0  0  0  0  0  0  0  0  0  0  0
  109.7705   53.3637   15.8151 O   0  0  0  0  0  0  0  0  0  0  0  0
  110.9795   51.9681   14.2370 C   0  0  0  0  0  0  0  0  0  0  0  0
  110.1068   51.1034   13.4971 O   0  0  0  0  0  0  0  0  0  0  0  0
  110.9587   53.4158   13.7434 C   0  0  0  0  0  0  0  0  0  0  0  0
  110.8228   53.5094   12.3274 O   0  0  0  0  0  0  0  0  0  0  0  0
  109.7718   54.0114   14.5051 C   0  0  0  0  0  0  0  0  0  0  0  0
  109.1981   51.4386   13.5504 H   0  0  0  0  0  0  0  0  0  0  0  0
  110.0106   53.0574   12.0499 H   0  0  0  0  0  0  0  0  0  0  0  0
  109.9114   55.4716   14.6358 N   0  0  0  0  0  0  0  0  0  0  0  0
  110.7935   56.1630   15.4377 C   0  0  0  0  0  0  0  0  0  0  0  0
  110.6271   57.4435   15.2886 N   0  0  0  0  0  0  0  0  0  0  0  0
  109.6357   57.6653   14.3926 C   0  0  0  0  0  0  0  0  0  0  0  0
  109.0206   58.8200   13.8316 C   0  0  0  0  0  0  0  0  0  0  0  0
  109.4296   60.0899   14.2079 N   0  0  0  0  0  0  0  0  0  0  0  0
  108.0226   58.6529   12.9267 N   0  0  0  0  0  0  0  0  0  0  0  0
  107.6109   57.4309   12.5506 C   0  0  0  0  0  0  0  0  0  0  0  0
  108.1669   56.3183   13.0529 N   0  0  0  0  0  0  0  0  0  0  0  0
  109.1671   56.3921   13.9586 C   0  0  0  0  0  0  0  0  0  0  0  0
  110.1545   60.1990   14.8651 H   0  0  0  0  0  0  0  0  0  0  0  0
  108.9952   60.8827   13.8181 H   0  0  0  0  0  0  0  0  0  0  0  0
  111.6940   52.0865   16.6708 C   0  0  0  0  0  0  0  0  0  0  0  0
  111.4845   51.1518   17.7243 O   0  0  0  0  0  0  0  0  0  0  0  0
  112.5309   49.9170   17.5625 P   0  0  0  0  0  0  0  0  0  0  0  0
  113.3132   49.8320   18.8179 O   0  0  0  0  0  0  0  0  0  0  0  0
  113.5395   50.1563   16.3212 O   0  0  0  0  0  0  0  0  0  0  0  0
  114.1493   49.4053   16.2507 H   0  0  0  0  0  0  0  0  0  0  0  0
  111.6834   48.5512   17.3060 O   0  0  0  0  0  0  0  0  0  0  0  0
  110.3367   48.5029   18.2200 P   0  0  0  0  0  0  0  0  0  0  0  0
  109.2306   49.2171   17.5341 O   0  0  0  0  0  0  0  0  0  0  0  0
  109.9041   46.9723   18.4994 O   0  0  0  0  0  0  0  0  0  0  0  0
  110.6434   49.2212   19.6286 O   0  0  0  0  0  0  0  0  0  0  0  0
  109.1017   46.9574   19.0441 H   0  0  0  0  0  0  0  0  0  0  0  0
  109.8477   49.1989   20.1830 H   0  0  0  0  0  0  0  0  0  0  0  0
 29 30  2  0  0  0
 29 31  1  0  0  0
 29 32  1  0  0  0
 29 28  1  0  0  0
 24 25  2  0  0  0
 24 26  1  0  0  0
 24 28  1  0  0  0
 24 23  1  0  0  0
 23 22  1  0  0  0
 22  1  1  0  0  0
  1  2  1  0  0  0
  1  3  1  0  0  0
  2  7  1  0  0  0
  3  4  1  0  0  0
  3  5  1  0  0  0
  5  6  1  0  0  0
  5  7  1  0  0  0
  7 10  1  0  0  0
 10 11  1  0  0  0
 10 19  1  0  0  0
 11 12  2  0  0  0
 12 13  1  0  0  0
 13 14  1  0  0  0
 13 19  2  0  0  0
 14 15  1  0  0  0
 14 16  2  0  0  0
 16 17  1  0  0  0
 17 18  2  0  0  0
 18 19  1  0  0  0
 31 33  1  0  0  0
 32 34  1  0  0  0
 26 27  1  0  0  0
  4  8  1  0  0  0
  6  9  1  0  0  0
 15 20  1  0  0  0
 15 21  1  0  0  0
M  END
> <minimizedAffinity>
-7.38876

$$$$
2HMV_ADP_A_601


 34 36  0  0  0  0  0  0  0  0999 V2000
  111.2348   53.3924   14.7297 C   0  0  0  0  0  0  0  0  0  0  0  0
  110.5408   54.5695   15.2671 O   0  0  0  0  0  0  0  0  0  0  0  0
  110.5628   53.0460   13.3755 C   0  0  0  0  0  0  0  0  0  0  0  0
  109.6327   51.9663   13.5368 O   0  0  0  0  0  0  0  0  0  0  0  0
  109.8972   54.3640   12.9758 C   0  0  0  0  0  0  0  0  0  0  0  0
  108.7964   54.1748   12.0900 O   0  0  0  0  0  0  0  0  0  0  0  0
  109.4903   54.9561   14.3277 C   0  0  0  0  0  0  0  0  0  0  0  0
  108.9771   52.2024   14.2115 H   0  0  0  0  0  0  0  0  0  0  0  0
  108.1429   53.5913   12.5065 H   0  0  0  0  0  0  0  0  0  0  0  0
  109.3674   56.4213   14.2434 N   0  0  0  0  0  0  0  0  0  0  0  0
  110.1659   57.3676   14.8482 C   0  0  0  0  0  0  0  0  0  0  0  0
  109.7548   58.5628   14.5443 N   0  0  0  0  0  0  0  0  0  0  0  0
  108.6732   58.4720   13.7339 C   0  0  0  0  0  0  0  0  0  0  0  0
  107.8138   59.4050   13.0877 C   0  0  0  0  0  0  0  0  0  0  0  0
  108.0089   60.7685   13.2435 N   0  0  0  0  0  0  0  0  0  0  0  0
  106.7968   58.9332   12.3221 N   0  0  0  0  0  0  0  0  0  0  0  0
  106.5901   57.6159   12.1604 C   0  0  0  0  0  0  0  0  0  0  0  0
  107.3793   56.7049   12.7491 N   0  0  0  0  0  0  0  0  0  0  0  0
  108.4157   57.0863   13.5279 C   0  0  0  0  0  0  0  0  0  0  0  0
  108.7498   61.0991   13.8012 H   0  0  0  0  0  0  0  0  0  0  0  0
  107.4066   61.4062   12.7965 H   0  0  0  0  0  0  0  0  0  0  0  0
  112.7248   53.6974   14.5371 C   0  0  0  0  0  0  0  0  0  0  0  0
  113.3448   52.6977   13.7349 O   0  0  0  0  0  0  0  0  0  0  0  0
  114.3042   53.4124   12.6327 P   0  0  0  0  0  0  0  0  0  0  0  0
  113.6416   54.6714   12.2188 O   0  0  0  0  0  0  0  0  0  0  0  0
  114.5169   52.4706   11.3354 O   0  0  0  0  0  0  0  0  0  0  0  0
  115.0917   52.9230   10.6982 H   0  0  0  0  0  0  0  0  0  0  0  0
  115.7496   53.7088   13.3199 O   0  0  0  0  0  0  0  0  0  0  0  0
  116.9035   52.7200   12.7350 P   0  0  0  0  0  0  0  0  0  0  0  0
  117.1671   53.0341   11.3082 O   0  0  0  0  0  0  0  0  0  0  0  0
  118.2653   52.8826   13.5875 O   0  0  0  0  0  0  0  0  0  0  0  0
  116.3908   51.1982   12.8606 O   0  0  0  0  0  0  0  0  0  0  0  0
  118.9438   52.2890   13.2295 H   0  0  0  0  0  0  0  0  0  0  0  0
  117.0704   50.5985   12.5149 H   0  0  0  0  0  0  0  0  0  0  0  0
 29 30  2  0  0  0
 29 31  1  0  0  0
 29 32  1  0  0  0
 29 28  1  0  0  0
 24 25  2  0  0  0
 24 26  1  0  0  0
 24 28  1  0  0  0
 24 23  1  0  0  0
 23 22  1  0  0  0
 22  1  1  0  0  0
  1  2  1  0  0  0
  1  3  1  0  0  0
  2  7  1  0  0  0
  3  4  1  0  0  0
  3  5  1  0  0  0
  5  6  1  0  0  0
  5  7  1  0  0  0
  7 10  1  0  0  0
 10 11  1  0  0  0
 10 19  1  0  0  0
 11 12  2  0  0  0
 12 13  1  0  0  0
 13 14  1  0  0  0
 13 19  2  0  0  0
 14 15  1  0  0  0
 14 16  2  0  0  0
 16 17  1  0  0  0
 17 18  2  0  0  0
 18 19  1  0  0  0
 31 33  1  0  0  0
 32 34  1  0  0  0
 26 27  1  0  0  0
  4  8  1  0  0  0
  6  9  1  0  0  0
 15 20  1  0  0  0
 15 21  1  0  0  0
M  END
> <minimizedAffinity>
-7.21284

$$$$
2HMV_ADP_A_601


 34 36  0  0  0  0  0  0  0  0999 V2000
  111.7381   52.4077   14.2807 C   0  0  0  0  0  0  0  0  0  0  0  0
  112.4176   51.6518   15.3403 O   0  0  0  0  0  0  0  0  0  0  0  0
  110.2564   51.9494   14.2725 C   0  0  0  0  0  0  0  0  0  0  0  0
  110.0309   50.9939   13.2270 O   0  0  0  0  0  0  0  0  0  0  0  0
  110.0695   51.3680   15.6750 C   0  0  0  0  0  0  0  0  0  0  0  0
  109.0107   50.4154   15.7359 O   0  0  0  0  0  0  0  0  0  0  0  0
  111.4443   50.7634   15.9719 C   0  0  0  0  0  0  0  0  0  0  0  0
  110.6366   50.2444   13.3378 H   0  0  0  0  0  0  0  0  0  0  0  0
  109.1835   49.6991   15.1051 H   0  0  0  0  0  0  0  0  0  0  0  0
  111.6746   50.6710   17.4235 N   0  0  0  0  0  0  0  0  0  0  0  0
  112.4001   51.5341   18.2158 C   0  0  0  0  0  0  0  0  0  0  0  0
  112.3821   51.1318   19.4518 N   0  0  0  0  0  0  0  0  0  0  0  0
  111.6544   49.9928   19.5418 C   0  0  0  0  0  0  0  0  0  0  0  0
  111.2821   49.1124   20.5967 C   0  0  0  0  0  0  0  0  0  0  0  0
  111.7016   49.3519   21.8960 N   0  0  0  0  0  0  0  0  0  0  0  0
  110.5145   48.0317   20.3040 N   0  0  0  0  0  0  0  0  0  0  0  0
  110.0996   47.7815   19.0512 C   0  0  0  0  0  0  0  0  0  0  0  0
  110.4257   48.5882   18.0304 N   0  0  0  0  0  0  0  0  0  0  0  0
  111.1862   49.6870   18.2317 C   0  0  0  0  0  0  0  0  0  0  0  0
  112.2580   50.1389   22.0964 H   0  0  0  0  0  0  0  0  0  0  0  0
  111.4430   48.7349   22.6183 H   0  0  0  0  0  0  0  0  0  0  0  0
  111.8422   53.9128   14.5529 C   0  0  0  0  0  0  0  0  0  0  0  0
  112.6889   54.5411   13.5959 O   0  0  0  0  0  0  0  0  0  0  0  0
  114.1392   54.8332   14.2722 P   0  0  0  0  0  0  0  0  0  0  0  0
  113.9677   54.7494   15.7415 O   0  0  0  0  0  0  0  0  0  0  0  0
  114.6872   56.3040   13.8827 O   0  0  0  0  0  0  0  0  0  0  0  0
  115.5511   56.4481   14.2996 H   0  0  0  0  0  0  0  0  0  0  0  0
  115.1931   53.7128   13.7399 O   0  0  0  0  0  0  0  0  0  0  0  0
  115.1309   53.5554   12.1204 P   0  0  0  0  0  0  0  0  0  0  0  0
  116.4185   53.0197   11.6116 O   0  0  0  0  0  0  0  0  0  0  0  0
  113.9265   52.5652   11.6998 O   0  0  0  0  0  0  0  0  0  0  0  0
  114.8621   55.0048   11.4713 O   0  0  0  0  0  0  0  0  0  0  0  0
  113.9003   52.4800   10.7339 H   0  0  0  0  0  0  0  0  0  0  0  0
  114.8229   54.9243   10.5055 H   0  0  0  0  0  0  0  0  0  0  0  0
 29 30  2  0  0  0
 29 31  1  0  0  0
 29 32  1  0  0  0
 29 28  1  0  0  0
 24 25  2  0  0  0
 24 26  1  0  0  0
 24 28  1  0  0  0
 24 23  1  0  0  0
 23 22  1  0  0  0
 22  1  1  0  0  0
  1  2  1  0  0  0
  1  3  1  0  0  0
  2  7  1  0  0  0
  3  4  1  0  0  0
  3  5  1  0  0  0
  5  6  1  0  0  0
  5  7  1  0  0  0
  7 10  1  0  0  0
 10 11  1  0  0  0
 10 19  1  0  0  0
 11 12  2  0  0  0
 12 13  1  0  0  0
 13 14  1  0  0  0
 13 19  2  0  0  0
 14 15  1  0  0  0
 14 16  2  0  0  0
 16 17  1  0  0  0
 17 18  2  0  0  0
 18 19  1  0  0  0
 31 33  1  0  0  0
 32 34  1  0  0  0
 26 27  1  0  0  0
  4  8  1  0  0  0
  6  9  1  0  0  0
 15 20  1  0  0  0
 15 21  1  0  0  0
M  END
> <minimizedAffinity>
-6.96806

$$$$
2HMV_ADP_A_601


 34 36  0  0  0  0  0  0  0  0999 V2000
  110.8538   51.9918   15.8984 C   0  0  0  0  0  0  0  0  0  0  0  0
  110.4613   53.3849   16.1453 O   0  0  0  0  0  0  0  0  0  0  0  0
  110.9773   51.8185   14.3621 C   0  0  0  0  0  0  0  0  0  0  0  0
  109.8008   51.1945   13.8298 O   0  0  0  0  0  0  0  0  0  0  0  0
  111.1773   53.2530   13.8701 C   0  0  0  0  0  0  0  0  0  0  0  0
  110.7763   53.4272   12.5133 O   0  0  0  0  0  0  0  0  0  0  0  0
  110.3359   54.0653   14.8581 C   0  0  0  0  0  0  0  0  0  0  0  0
  109.0204   51.7185   14.0692 H   0  0  0  0  0  0  0  0  0  0  0  0
  109.8447   53.1750   12.4165 H   0  0  0  0  0  0  0  0  0  0  0  0
  110.8204   55.4535   14.9427 N   0  0  0  0  0  0  0  0  0  0  0  0
  110.0894   56.6100   14.7784 C   0  0  0  0  0  0  0  0  0  0  0  0
  110.8550   57.6501   14.9265 N   0  0  0  0  0  0  0  0  0  0  0  0
  112.1193   57.2419   15.1910 C   0  0  0  0  0  0  0  0  0  0  0  0
  113.3591   57.8937   15.4451 C   0  0  0  0  0  0  0  0  0  0  0  0
  113.4412   59.2774   15.4450 N   0  0  0  0  0  0  0  0  0  0  0  0
  114.4591   57.1340   15.6808 N   0  0  0  0  0  0  0  0  0  0  0  0
  114.4004   55.7921   15.6832 C   0  0  0  0  0  0  0  0  0  0  0  0
  113.2512   55.1401   15.4518 N   0  0  0  0  0  0  0  0  0  0  0  0
  112.1075   55.8176   15.2087 C   0  0  0  0  0  0  0  0  0  0  0  0
  112.6367   59.8183   15.2728 H   0  0  0  0  0  0  0  0  0  0  0  0
  114.3039   59.7194   15.6172 H   0  0  0  0  0  0  0  0  0  0  0  0
  112.1870   51.6859   16.5909 C   0  0  0  0  0  0  0  0  0  0  0  0
  112.2846   50.3013   16.9083 O   0  0  0  0  0  0  0  0  0  0  0  0
  112.3141   50.1218   18.5247 P   0  0  0  0  0  0  0  0  0  0  0  0
  112.3097   51.4783   19.1210 O   0  0  0  0  0  0  0  0  0  0  0  0
  113.6402   49.3320   19.0072 O   0  0  0  0  0  0  0  0  0  0  0  0
  113.6290   49.2410   19.9728 H   0  0  0  0  0  0  0  0  0  0  0  0
  110.9969   49.2787   18.9756 O   0  0  0  0  0  0  0  0  0  0  0  0
  111.1830   47.6852   18.6969 P   0  0  0  0  0  0  0  0  0  0  0  0
  109.8620   47.0543   18.4503 O   0  0  0  0  0  0  0  0  0  0  0  0
  112.1447   47.4483   17.4213 O   0  0  0  0  0  0  0  0  0  0  0  0
  111.8630   47.0110   19.9921 O   0  0  0  0  0  0  0  0  0  0  0  0
  112.2473   46.4963   17.2661 H   0  0  0  0  0  0  0  0  0  0  0  0
  111.9794   46.0604   19.8383 H   0  0  0  0  0  0  0  0  0  0  0  0
 29 30  2  0  0  0
 29 31  1  0  0  0
 29 32  1  0  0  0
 29 28  1  0  0  0
 24 25  2  0  0  0
 24 26  1  0  0  0
 24 28  1  0  0  0
 24 23  1  0  0  0
 23 22  1  0  0  0
 22  1  1  0  0  0
  1  2  1  0  0  0
  1  3  1  0  0  0
  2  7  1  0  0  0
  3  4  1  0  0  0
  3  5  1  0  0  0
  5  6  1  0  0  0
  5  7  1  0  0  0
  7 10  1  0  0  0
 10 11  1  0  0  0
 10 19  1  0  0  0
 11 12  2  0  0  0
 12 13  1  0  0  0
 13 14  1  0  0  0
 13 19  2  0  0  0
 14 15  1  0  0  0
 14 16  2  0  0  0
 16 17  1  0  0  0
 17 18  2  0  0  0
 18 19  1  0  0  0
 31 33  1  0  0  0
 32 34  1  0  0  0
 26 27  1  0  0  0
  4  8  1  0  0  0
  6  9  1  0  0  0
 15 20  1  0  0  0
 15 21  1  0  0  0
M  END
> <minimizedAffinity>
-6.96479

$$$$
2HMV_ADP_A_601


 34 36  0  0  0  0  0  0  0  0999 V2000
  110.8880   53.0898   15.2373 C   0  0  0  0  0  0  0  0  0  0  0  0
  109.5918   53.4323   14.6385 O   0  0  0  0  0  0  0  0  0  0  0  0
  111.9593   53.2495   14.1271 C   0  0  0  0  0  0  0  0  0  0  0  0
  112.2969   51.9734   13.5663 O   0  0  0  0  0  0  0  0  0  0  0  0
  111.2812   54.1895   13.1289 C   0  0  0  0  0  0  0  0  0  0  0  0
  111.8054   54.0574   11.8098 O   0  0  0  0  0  0  0  0  0  0  0  0
  109.8085   53.7857   13.2372 C   0  0  0  0  0  0  0  0  0  0  0  0
  111.4941   51.5455   13.2299 H   0  0  0  0  0  0  0  0  0  0  0  0
  111.7071   53.1391   11.5132 H   0  0  0  0  0  0  0  0  0  0  0  0
  108.9290   54.8938   12.8278 N   0  0  0  0  0  0  0  0  0  0  0  0
  107.9451   54.8732   11.8632 C   0  0  0  0  0  0  0  0  0  0  0  0
  107.3744   56.0381   11.7788 N   0  0  0  0  0  0  0  0  0  0  0  0
  107.9454   56.8825   12.6708 C   0  0  0  0  0  0  0  0  0  0  0  0
  107.7535   58.2443   13.0387 C   0  0  0  0  0  0  0  0  0  0  0  0
  106.7890   59.0155   12.4091 N   0  0  0  0  0  0  0  0  0  0  0  0
  108.5373   58.7735   14.0126 N   0  0  0  0  0  0  0  0  0  0  0  0
  109.4785   58.0431   14.6331 C   0  0  0  0  0  0  0  0  0  0  0  0
  109.6881   56.7562   14.3181 N   0  0  0  0  0  0  0  0  0  0  0  0
  108.9527   56.1489   13.3608 C   0  0  0  0  0  0  0  0  0  0  0  0
  106.2263   58.6210   11.7041 H   0  0  0  0  0  0  0  0  0  0  0  0
  106.6666   59.9577   12.6670 H   0  0  0  0  0  0  0  0  0  0  0  0
  111.1868   54.0171   16.4211 C   0  0  0  0  0  0  0  0  0  0  0  0
  111.5178   53.2621   17.5822 O   0  0  0  0  0  0  0  0  0  0  0  0
  113.0812   53.5105   17.9562 P   0  0  0  0  0  0  0  0  0  0  0  0
  113.3720   52.7327   19.1834 O   0  0  0  0  0  0  0  0  0  0  0  0
  113.3808   55.0753   18.2337 O   0  0  0  0  0  0  0  0  0  0  0  0
  114.3185   55.1909   18.4535 H   0  0  0  0  0  0  0  0  0  0  0  0
  113.9979   53.0043   16.7102 O   0  0  0  0  0  0  0  0  0  0  0  0
  114.1448   51.3827   16.6963 P   0  0  0  0  0  0  0  0  0  0  0  0
  114.4522   50.9115   15.3225 O   0  0  0  0  0  0  0  0  0  0  0  0
  115.3173   50.9179   17.7049 O   0  0  0  0  0  0  0  0  0  0  0  0
  112.7532   50.7346   17.1840 O   0  0  0  0  0  0  0  0  0  0  0  0
  115.3945   49.9512   17.6874 H   0  0  0  0  0  0  0  0  0  0  0  0
  112.8280   49.7675   17.1801 H   0  0  0  0  0  0  0  0  0  0  0  0
 29 30  2  0  0  0
 29 31  1  0  0  0
 29 32  1  0  0  0
 29 28  1  0  0  0
 24 25  2  0  0  0
 24 26  1  0  0  0
 24 28  1  0  0  0
 24 23  1  0  0  0
 23 22  1  0  0  0
 22  1  1  0  0  0
  1  2  1  0  0  0
  1  3  1  0  0  0
  2  7  1  0  0  0
  3  4  1  0  0  0
  3  5  1  0  0  0
  5  6  1  0  0  0
  5  7  1  0  0  0
  7 10  1  0  0  0
 10 11  1  0  0  0
 10 19  1  0  0  0
 11 12  2  0  0  0
 12 13  1  0  0  0
 13 14  1  0  0  0
 13 19  2  0  0  0
 14 15  1  0  0  0
 14 16  2  0  0  0
 16 17  1  0  0  0
 17 18  2  0  0  0
 18 19  1  0  0  0
 31 33  1  0  0  0
 32 34  1  0  0  0
 26 27  1  0  0  0
  4  8  1  0  0  0
  6  9  1  0  0  0
 15 20  1  0  0  0
 15 21  1  0  0  0
M  END
> <minimizedAffinity>
-6.94010

$$$$
