4WA9_AXI_B_9000
  RCSB PDB12061715563D
Coordinates from PDB:4WA9:B:9000 Model:1 without hydrogens
 28 31  0  0  0  0            999 V2000
   14.1460  158.8920   36.9950   O 0  0  0  0  0  0  0  0  0  0  0  0
   13.1110  158.9860   37.6350   C 0  0  0  0  0  0  0  0  0  0  0  0
   12.4620  160.2570   37.7450   N 0  0  0  0  0  0  0  0  0  0  0  0
   13.0120  161.4260   37.0760   C 0  0  0  0  0  0  0  0  0  0  0  0
   12.5590  157.7730   38.3130   C 0  0  0  0  0  0  0  0  0  0  0  0
   12.2660  157.8050   39.6760   C 0  0  0  0  0  0  0  0  0  0  0  0
   11.7670  156.6730   40.3080   C 0  0  0  0  0  0  0  0  0  0  0  0
   11.5580  155.5010   39.5740   C 0  0  0  0  0  0  0  0  0  0  0  0
   12.3520  156.5920   37.5790   C 0  0  0  0  0  0  0  0  0  0  0  0
   11.8560  155.4710   38.2080   C 0  0  0  0  0  0  0  0  0  0  0  0
   12.7010  156.5180   35.8190   S 0  0  0  0  0  0  0  0  0  0  0  0
   11.4490  155.4060   35.1740   C 0  0  0  0  0  0  0  0  0  0  0  0
   10.0940  155.6050   35.5100   C 0  0  0  0  0  0  0  0  0  0  0  0
    9.1060  154.7310   35.0210   C 0  0  0  0  0  0  0  0  0  0  0  0
   11.8290  154.3550   34.3550   C 0  0  0  0  0  0  0  0  0  0  0  0
   10.8200  153.4660   33.8530   C 0  0  0  0  0  0  0  0  0  0  0  0
   10.9130  152.3630   33.0240   N 0  0  0  0  0  0  0  0  0  0  0  0
    9.6460  151.8660   32.8370   N 0  0  0  0  0  0  0  0  0  0  0  0
    8.7500  152.6100   33.5180   C 0  0  0  0  0  0  0  0  0  0  0  0
    9.4900  153.6500   34.1780   C 0  0  0  0  0  0  0  0  0  0  0  0
    7.2670  152.3500   33.5450   C 0  0  0  0  0  0  0  0  0  0  0  0
    6.3800  153.1480   34.2220   C 0  0  0  0  0  0  0  0  0  0  0  0
    4.9250  152.7650   34.2910   C 0  0  0  0  0  0  0  0  0  0  0  0
    4.4220  151.8900   33.3980   N 0  0  0  0  0  0  0  0  0  0  0  0
    3.1180  151.5270   33.4310   C 0  0  0  0  0  0  0  0  0  0  0  0
    2.2730  152.0660   34.3980   C 0  0  0  0  0  0  0  0  0  0  0  0
    2.7710  152.9720   35.3270   C 0  0  0  0  0  0  0  0  0  0  0  0
    4.1180  153.3270   35.2680   C 0  0  0  0  0  0  0  0  0  0  0  0
  1  2  2  0  0  0  0
  2  3  1  0  0  0  0
  2  5  1  0  0  0  0
  3  4  1  0  0  0  0
  5  6  1  0  0  0  0
  5  9  2  0  0  0  0
  6  7  2  0  0  0  0
  7  8  1  0  0  0  0
  8 10  2  0  0  0  0
  9 10  1  0  0  0  0
  9 11  1  0  0  0  0
 11 12  1  0  0  0  0
 12 13  1  0  0  0  0
 12 15  2  0  0  0  0
 13 14  2  0  0  0  0
 14 20  1  0  0  0  0
 15 16  1  0  0  0  0
 16 17  2  0  0  0  0
 16 20  1  0  0  0  0
 17 18  1  0  0  0  0
 18 19  1  0  0  0  0
 19 20  2  0  0  0  0
 19 21  1  0  0  0  0
 21 22  2  0  0  0  0
 22 23  1  0  0  0  0
 23 24  2  0  0  0  0
 23 28  1  0  0  0  0
 24 25  1  0  0  0  0
 25 26  2  0  0  0  0
 26 27  1  0  0  0  0
 27 28  2  0  0  0  0
A    1
O81
A    2
C80
A    3
N82
A    4
C88
A    5
C23
A    6
C22
A    7
C21
A    8
C20
A    9
C18
A   10
C19
A   11
S24
A   12
C07
A   13
C08
A   14
C09
A   15
C12
A   16
C11
A   17
N15
A   18
N14
A   19
C13
A   20
C10
A   21
C16
A   22
C17
A   23
C02
A   24
N03
A   25
C04
A   26
C05
A   27
C06
A   28
C01
M  END
>  <InstanceId>
4WA9_AXI_B_9000

>  <ChemCompId>
AXI

>  <PdbId>
4WA9

>  <ChainId>
B

>  <ResidueNumber>
9000

>  <InsertionCode>


>  <Model>
1

>  <AltIds>


>  <MissingHeavyAtoms>
0

>  <ObservedFormula>
C22 N4 O S

>  <Name>
AXITINIB

>  <SystematicName>
N-methyl-2-[[3-[(E)-2-pyridin-2-ylethenyl]-2H-indazol-6-yl]sulfanyl]benzamide

>  <Synonyms>
N-METHYL-2-(3-((E)-2-PYRIDIN-2-YL-VINYL)-1H-INDAZOL-6-YLSULFANYL)-BENZAMIDE

>  <Type>
non-polymer

>  <Formula>
C22 H18 N4 O S

>  <MolecularWeight>
386.47

>  <ModifiedDate>
2014-04-28

>  <Parent>


>  <OneLetterCode>


>  <SubcomponentList>


>  <AmbiguousFlag>
N

>  <InChI>
InChI=1S/C22H18N4OS/c1-23-22(27)18-7-2-3-8-21(18)28-16-10-11-17-19(25-26-20(17)14-16)12-9-15-6-4-5-13-24-15/h2-14H,1H3,(H,23,27)(H,25,26)/b12-9+

>  <InChIKey>
RITAVMQDGBJQJZ-FMIVXFBMSA-N

>  <SMILES>
CNC(=O)c1ccccc1Sc2ccc3c(c2)n[nH]c3/C=C/c4ccccn4

$$$$
