4WA9_AXI_B_9000


 30 33  0  0  0  0  0  0  0  0999 V2000
   11.1370  155.4847   35.0993 C   0  0  0  0  0  0  0  0  0  0  0  0
    9.7996  155.9052   35.2510 C   0  0  0  0  0  0  0  0  0  0  0  0
    8.7483  155.1289   34.7301 C   0  0  0  0  0  0  0  0  0  0  0  0
   11.4386  154.3084   34.4322 C   0  0  0  0  0  0  0  0  0  0  0  0
   10.3659  153.5188   33.8974 C   0  0  0  0  0  0  0  0  0  0  0  0
   10.3786  152.3300   33.1909 N   0  0  0  0  0  0  0  0  0  0  0  0
    9.0780  151.9963   32.9003 N   0  0  0  0  0  0  0  0  0  0  0  0
    8.2375  152.9270   33.3976 C   0  0  0  0  0  0  0  0  0  0  0  0
    9.0519  153.9198   34.0425 C   0  0  0  0  0  0  0  0  0  0  0  0
    8.7997  151.1943   32.4016 H   0  0  0  0  0  0  0  0  0  0  0  0
    6.7377  152.8799   33.2709 C   0  0  0  0  0  0  0  0  0  0  0  0
    5.8936  152.9430   34.3505 C   0  0  0  0  0  0  0  0  0  0  0  0
    4.4088  152.7834   34.1545 C   0  0  0  0  0  0  0  0  0  0  0  0
    3.5568  153.5766   34.8334 N   0  0  0  0  0  0  0  0  0  0  0  0
    2.2166  153.4569   34.6820 C   0  0  0  0  0  0  0  0  0  0  0  0
    1.7003  152.4966   33.8154 C   0  0  0  0  0  0  0  0  0  0  0  0
    2.5616  151.6666   33.1074 C   0  0  0  0  0  0  0  0  0  0  0  0
    3.9368  151.8132   33.2841 C   0  0  0  0  0  0  0  0  0  0  0  0
   12.4671  156.4757   35.7840 S   0  0  0  0  0  0  0  0  0  0  0  0
   12.4538  157.6120   38.3381 C   0  0  0  0  0  0  0  0  0  0  0  0
   12.1690  157.6038   39.7032 C   0  0  0  0  0  0  0  0  0  0  0  0
   11.5648  156.4948   40.2821 C   0  0  0  0  0  0  0  0  0  0  0  0
   11.2417  155.3866   39.4925 C   0  0  0  0  0  0  0  0  0  0  0  0
   12.1318  156.4947   37.5481 C   0  0  0  0  0  0  0  0  0  0  0  0
   11.5317  155.3965   38.1244 C   0  0  0  0  0  0  0  0  0  0  0  0
   14.2542  158.6873   37.2846 O   0  0  0  0  0  0  0  0  0  0  0  0
   13.1183  158.7987   37.7170 C   0  0  0  0  0  0  0  0  0  0  0  0
   12.4566  160.0658   37.6445 N   0  0  0  0  0  0  0  0  0  0  0  0
   13.1176  161.2090   37.0339 C   0  0  0  0  0  0  0  0  0  0  0  0
   11.5479  160.1645   38.0103 H   0  0  0  0  0  0  0  0  0  0  0  0
 26 27  2  0  0  0
 27 28  1  0  0  0
 27 20  1  0  0  0
 28 29  1  0  0  0
 20 21  1  0  0  0
 20 24  2  0  0  0
 21 22  2  0  0  0
 22 23  1  0  0  0
 23 25  2  0  0  0
 24 25  1  0  0  0
 24 19  1  0  0  0
 19  1  1  0  0  0
  1  2  1  0  0  0
  1  4  2  0  0  0
  2  3  2  0  0  0
  3  9  1  0  0  0
  4  5  1  0  0  0
  5  6  2  0  0  0
  5  9  1  0  0  0
  6  7  1  0  0  0
  7  8  1  0  0  0
  8  9  2  0  0  0
  8 11  1  0  0  0
 11 12  2  0  0  0
 12 13  1  0  0  0
 13 14  2  0  0  0
 13 18  1  0  0  0
 14 15  1  0  0  0
 15 16  2  0  0  0
 16 17  1  0  0  0
 17 18  2  0  0  0
 28 30  1  0  0  0
  7 10  1  0  0  0
M  END
> <minimizedAffinity>
-10.85897

$$$$
4WA9_AXI_B_9000


 30 33  0  0  0  0  0  0  0  0999 V2000
   10.9256  155.1277   34.3805 C   0  0  0  0  0  0  0  0  0  0  0  0
    9.7912  155.6445   35.0397 C   0  0  0  0  0  0  0  0  0  0  0  0
    8.5814  154.9265   35.0383 C   0  0  0  0  0  0  0  0  0  0  0  0
   10.8676  153.9124   33.7175 C   0  0  0  0  0  0  0  0  0  0  0  0
    9.6318  153.1823   33.7129 C   0  0  0  0  0  0  0  0  0  0  0  0
    9.2939  151.9734   33.1325 N   0  0  0  0  0  0  0  0  0  0  0  0
    7.9737  151.7215   33.4171 N   0  0  0  0  0  0  0  0  0  0  0  0
    7.4591  152.7237   34.1593 C   0  0  0  0  0  0  0  0  0  0  0  0
    8.5151  153.6779   34.3577 C   0  0  0  0  0  0  0  0  0  0  0  0
    7.4755  150.9252   33.1224 H   0  0  0  0  0  0  0  0  0  0  0  0
    6.0392  152.7766   34.6579 C   0  0  0  0  0  0  0  0  0  0  0  0
    5.0044  153.2867   33.9157 C   0  0  0  0  0  0  0  0  0  0  0  0
    3.6304  153.4034   34.5216 C   0  0  0  0  0  0  0  0  0  0  0  0
    3.4768  153.2862   35.8553 N   0  0  0  0  0  0  0  0  0  0  0  0
    2.2552  153.3833   36.4310 C   0  0  0  0  0  0  0  0  0  0  0  0
    1.1312  153.6030   35.6384 C   0  0  0  0  0  0  0  0  0  0  0  0
    1.2672  153.7245   34.2605 C   0  0  0  0  0  0  0  0  0  0  0  0
    2.5379  153.6197   33.6962 C   0  0  0  0  0  0  0  0  0  0  0  0
   12.4674  156.0455   34.4051 S   0  0  0  0  0  0  0  0  0  0  0  0
   13.6065  156.0819   36.9578 C   0  0  0  0  0  0  0  0  0  0  0  0
   13.7066  156.5425   38.2703 C   0  0  0  0  0  0  0  0  0  0  0  0
   12.8312  157.5156   38.7357 C   0  0  0  0  0  0  0  0  0  0  0  0
   11.8495  158.0334   37.8847 C   0  0  0  0  0  0  0  0  0  0  0  0
   12.6157  156.6012   36.1063 C   0  0  0  0  0  0  0  0  0  0  0  0
   11.7494  157.5670   36.5701 C   0  0  0  0  0  0  0  0  0  0  0  0
   14.1609  153.8628   36.4326 O   0  0  0  0  0  0  0  0  0  0  0  0
   14.5380  155.0233   36.4605 C   0  0  0  0  0  0  0  0  0  0  0  0
   15.8689  155.3434   36.0423 N   0  0  0  0  0  0  0  0  0  0  0  0
   16.7605  154.3005   35.5585 C   0  0  0  0  0  0  0  0  0  0  0  0
   16.1831  156.2755   36.0824 H   0  0  0  0  0  0  0  0  0  0  0  0
 26 27  2  0  0  0
 27 28  1  0  0  0
 27 20  1  0  0  0
 28 29  1  0  0  0
 20 21  1  0  0  0
 20 24  2  0  0  0
 21 22  2  0  0  0
 22 23  1  0  0  0
 23 25  2  0  0  0
 24 25  1  0  0  0
 24 19  1  0  0  0
 19  1  1  0  0  0
  1  2  1  0  0  0
  1  4  2  0  0  0
  2  3  2  0  0  0
  3  9  1  0  0  0
  4  5  1  0  0  0
  5  6  2  0  0  0
  5  9  1  0  0  0
  6  7  1  0  0  0
  7  8  1  0  0  0
  8  9  2  0  0  0
  8 11  1  0  0  0
 11 12  2  0  0  0
 12 13  1  0  0  0
 13 14  2  0  0  0
 13 18  1  0  0  0
 14 15  1  0  0  0
 15 16  2  0  0  0
 16 17  1  0  0  0
 17 18  2  0  0  0
 28 30  1  0  0  0
  7 10  1  0  0  0
M  END
> <minimizedAffinity>
-10.14203

$$$$
4WA9_AXI_B_9000


 30 33  0  0  0  0  0  0  0  0999 V2000
   12.2832  155.2653   36.2174 C   0  0  0  0  0  0  0  0  0  0  0  0
   10.9744  155.6772   36.5428 C   0  0  0  0  0  0  0  0  0  0  0  0
    9.8732  155.1713   35.8283 C   0  0  0  0  0  0  0  0  0  0  0  0
   12.5075  154.3643   35.1890 C   0  0  0  0  0  0  0  0  0  0  0  0
   11.3838  153.8516   34.4576 C   0  0  0  0  0  0  0  0  0  0  0  0
   11.3185  152.9664   33.3972 N   0  0  0  0  0  0  0  0  0  0  0  0
    9.9969  152.8131   33.0546 N   0  0  0  0  0  0  0  0  0  0  0  0
    9.2182  153.5660   33.8589 C   0  0  0  0  0  0  0  0  0  0  0  0
   10.0972  154.2462   34.7696 C   0  0  0  0  0  0  0  0  0  0  0  0
    9.6662  152.2375   32.3276 H   0  0  0  0  0  0  0  0  0  0  0  0
    7.7166  153.6381   33.7720 C   0  0  0  0  0  0  0  0  0  0  0  0
    6.8868  152.7648   34.4282 C   0  0  0  0  0  0  0  0  0  0  0  0
    5.3982  152.8333   34.2091 C   0  0  0  0  0  0  0  0  0  0  0  0
    4.6223  153.4870   35.0961 N   0  0  0  0  0  0  0  0  0  0  0  0
    3.2809  153.5648   34.9297 C   0  0  0  0  0  0  0  0  0  0  0  0
    2.6829  152.9572   33.8284 C   0  0  0  0  0  0  0  0  0  0  0  0
    3.4646  152.2759   32.9028 C   0  0  0  0  0  0  0  0  0  0  0  0
    4.8433  152.2125   33.1008 C   0  0  0  0  0  0  0  0  0  0  0  0
   13.6775  155.9050   37.1485 S   0  0  0  0  0  0  0  0  0  0  0  0
   12.4320  157.6535   38.9393 C   0  0  0  0  0  0  0  0  0  0  0  0
   12.0216  158.9166   39.3644 C   0  0  0  0  0  0  0  0  0  0  0  0
   12.2925  160.0354   38.5869 C   0  0  0  0  0  0  0  0  0  0  0  0
   12.9790  159.8925   37.3768 C   0  0  0  0  0  0  0  0  0  0  0  0
   13.1179  157.5127   37.7202 C   0  0  0  0  0  0  0  0  0  0  0  0
   13.3863  158.6241   36.9514 C   0  0  0  0  0  0  0  0  0  0  0  0
   12.8747  156.1491   40.6854 O   0  0  0  0  0  0  0  0  0  0  0  0
   12.1271  156.4466   39.7677 C   0  0  0  0  0  0  0  0  0  0  0  0
   10.9911  155.6223   39.4871 N   0  0  0  0  0  0  0  0  0  0  0  0
   10.7083  154.4533   40.3057 C   0  0  0  0  0  0  0  0  0  0  0  0
   10.3970  155.8479   38.7352 H   0  0  0  0  0  0  0  0  0  0  0  0
 26 27  2  0  0  0
 27 28  1  0  0  0
 27 20  1  0  0  0
 28 29  1  0  0  0
 20 21  1  0  0  0
 20 24  2  0  0  0
 21 22  2  0  0  0
 22 23  1  0  0  0
 23 25  2  0  0  0
 24 25  1  0  0  0
 24 19  1  0  0  0
 19  1  1  0  0  0
  1  2  1  0  0  0
  1  4  2  0  0  0
  2  3  2  0  0  0
  3  9  1  0  0  0
  4  5  1  0  0  0
  5  6  2  0  0  0
  5  9  1  0  0  0
  6  7  1  0  0  0
  7  8  1  0  0  0
  8  9  2  0  0  0
  8 11  1  0  0  0
 11 12  2  0  0  0
 12 13  1  0  0  0
 13 14  2  0  0  0
 13 18  1  0  0  0
 14 15  1  0  0  0
 15 16  2  0  0  0
 16 17  1  0  0  0
 17 18  2  0  0  0
 28 30  1  0  0  0
  7 10  1  0  0  0
M  END
> <minimizedAffinity>
-9.99961

$$$$
4WA9_AXI_B_9000


 30 33  0  0  0  0  0  0  0  0999 V2000
   11.0316  155.7399   34.6108 C   0  0  0  0  0  0  0  0  0  0  0  0
    9.7586  156.0042   35.1570 C   0  0  0  0  0  0  0  0  0  0  0  0
    8.7362  155.0416   35.0715 C   0  0  0  0  0  0  0  0  0  0  0  0
   11.2950  154.5359   33.9777 C   0  0  0  0  0  0  0  0  0  0  0  0
   10.2502  153.5559   33.8872 C   0  0  0  0  0  0  0  0  0  0  0  0
   10.2327  152.2982   33.3123 N   0  0  0  0  0  0  0  0  0  0  0  0
    8.9774  151.7690   33.4900 N   0  0  0  0  0  0  0  0  0  0  0  0
    8.1957  152.6418   34.1588 C   0  0  0  0  0  0  0  0  0  0  0  0
    9.0003  153.8031   34.4211 C   0  0  0  0  0  0  0  0  0  0  0  0
    8.6901  150.8816   33.1751 H   0  0  0  0  0  0  0  0  0  0  0  0
    6.7590  152.3901   34.5330 C   0  0  0  0  0  0  0  0  0  0  0  0
    5.7056  153.0249   33.9252 C   0  0  0  0  0  0  0  0  0  0  0  0
    4.3027  152.8006   34.4250 C   0  0  0  0  0  0  0  0  0  0  0  0
    3.8487  153.5070   35.4791 N   0  0  0  0  0  0  0  0  0  0  0  0
    2.5938  153.3273   35.9546 C   0  0  0  0  0  0  0  0  0  0  0  0
    1.7519  152.3948   35.3535 C   0  0  0  0  0  0  0  0  0  0  0  0
    2.2012  151.6540   34.2666 C   0  0  0  0  0  0  0  0  0  0  0  0
    3.4984  151.8607   33.7994 C   0  0  0  0  0  0  0  0  0  0  0  0
   12.3319  156.9695   34.7423 S   0  0  0  0  0  0  0  0  0  0  0  0
   14.1409  156.4214   36.8020 C   0  0  0  0  0  0  0  0  0  0  0  0
   15.1895  155.7074   37.3811 C   0  0  0  0  0  0  0  0  0  0  0  0
   15.7873  154.6625   36.6879 C   0  0  0  0  0  0  0  0  0  0  0  0
   15.3344  154.3271   35.4078 C   0  0  0  0  0  0  0  0  0  0  0  0
   13.6910  156.0846   35.5134 C   0  0  0  0  0  0  0  0  0  0  0  0
   14.2849  155.0471   34.8284 C   0  0  0  0  0  0  0  0  0  0  0  0
   13.9221  158.6901   37.3612 O   0  0  0  0  0  0  0  0  0  0  0  0
   13.5072  157.5564   37.5408 C   0  0  0  0  0  0  0  0  0  0  0  0
   12.4428  157.3334   38.4714 N   0  0  0  0  0  0  0  0  0  0  0  0
   11.8362  158.4505   39.1792 C   0  0  0  0  0  0  0  0  0  0  0  0
   12.1190  156.4180   38.6337 H   0  0  0  0  0  0  0  0  0  0  0  0
 26 27  2  0  0  0
 27 28  1  0  0  0
 27 20  1  0  0  0
 28 29  1  0  0  0
 20 21  1  0  0  0
 20 24  2  0  0  0
 21 22  2  0  0  0
 22 23  1  0  0  0
 23 25  2  0  0  0
 24 25  1  0  0  0
 24 19  1  0  0  0
 19  1  1  0  0  0
  1  2  1  0  0  0
  1  4  2  0  0  0
  2  3  2  0  0  0
  3  9  1  0  0  0
  4  5  1  0  0  0
  5  6  2  0  0  0
  5  9  1  0  0  0
  6  7  1  0  0  0
  7  8  1  0  0  0
  8  9  2  0  0  0
  8 11  1  0  0  0
 11 12  2  0  0  0
 12 13  1  0  0  0
 13 14  2  0  0  0
 13 18  1  0  0  0
 14 15  1  0  0  0
 15 16  2  0  0  0
 16 17  1  0  0  0
 17 18  2  0  0  0
 28 30  1  0  0  0
  7 10  1  0  0  0
M  END
> <minimizedAffinity>
-9.61752

$$$$
4WA9_AXI_B_9000


 30 33  0  0  0  0  0  0  0  0999 V2000
    5.0200  152.2545   33.6140 C   0  0  0  0  0  0  0  0  0  0  0  0
    5.1097  153.3626   34.4816 C   0  0  0  0  0  0  0  0  0  0  0  0
    6.3544  153.9686   34.7321 C   0  0  0  0  0  0  0  0  0  0  0  0
    6.1515  151.7412   33.0008 C   0  0  0  0  0  0  0  0  0  0  0  0
    7.4218  152.3574   33.2601 C   0  0  0  0  0  0  0  0  0  0  0  0
    8.6897  152.0513   32.8006 N   0  0  0  0  0  0  0  0  0  0  0  0
    9.5699  152.9459   33.3594 N   0  0  0  0  0  0  0  0  0  0  0  0
    8.9092  153.8118   34.1557 C   0  0  0  0  0  0  0  0  0  0  0  0
    7.5208  153.4450   34.1061 C   0  0  0  0  0  0  0  0  0  0  0  0
   10.5416  152.9541   33.2017 H   0  0  0  0  0  0  0  0  0  0  0  0
    9.5581  154.9321   34.9247 C   0  0  0  0  0  0  0  0  0  0  0  0
   10.9132  155.0182   35.1205 C   0  0  0  0  0  0  0  0  0  0  0  0
   11.4796  156.1099   35.9898 C   0  0  0  0  0  0  0  0  0  0  0  0
   12.3532  156.9932   35.4678 N   0  0  0  0  0  0  0  0  0  0  0  0
   12.8828  157.9845   36.2229 C   0  0  0  0  0  0  0  0  0  0  0  0
   12.5282  158.0980   37.5649 C   0  0  0  0  0  0  0  0  0  0  0  0
   11.6306  157.1959   38.1238 C   0  0  0  0  0  0  0  0  0  0  0  0
   11.1020  156.1855   37.3215 C   0  0  0  0  0  0  0  0  0  0  0  0
    3.4236  151.5021   33.2895 S   0  0  0  0  0  0  0  0  0  0  0  0
    1.4875  153.4068   33.9520 C   0  0  0  0  0  0  0  0  0  0  0  0
    0.6699  154.5010   33.6713 C   0  0  0  0  0  0  0  0  0  0  0  0
    0.7031  155.0910   32.4141 C   0  0  0  0  0  0  0  0  0  0  0  0
    1.5592  154.5857   31.4303 C   0  0  0  0  0  0  0  0  0  0  0  0
    2.3436  152.8985   32.9596 C   0  0  0  0  0  0  0  0  0  0  0  0
    2.3754  153.4861   31.7138 C   0  0  0  0  0  0  0  0  0  0  0  0
    0.7061  151.8030   35.4769 O   0  0  0  0  0  0  0  0  0  0  0  0
    1.4412  152.7611   35.2999 C   0  0  0  0  0  0  0  0  0  0  0  0
    2.2224  153.2623   36.3895 N   0  0  0  0  0  0  0  0  0  0  0  0
    2.1668  152.6194   37.6935 C   0  0  0  0  0  0  0  0  0  0  0  0
    2.8013  154.0473   36.2557 H   0  0  0  0  0  0  0  0  0  0  0  0
 26 27  2  0  0  0
 27 28  1  0  0  0
 27 20  1  0  0  0
 28 29  1  0  0  0
 20 21  1  0  0  0
 20 24  2  0  0  0
 21 22  2  0  0  0
 22 23  1  0  0  0
 23 25  2  0  0  0
 24 25  1  0  0  0
 24 19  1  0  0  0
 19  1  1  0  0  0
  1  2  1  0  0  0
  1  4  2  0  0  0
  2  3  2  0  0  0
  3  9  1  0  0  0
  4  5  1  0  0  0
  5  6  2  0  0  0
  5  9  1  0  0  0
  6  7  1  0  0  0
  7  8  1  0  0  0
  8  9  2  0  0  0
  8 11  1  0  0  0
 11 12  2  0  0  0
 12 13  1  0  0  0
 13 14  2  0  0  0
 13 18  1  0  0  0
 14 15  1  0  0  0
 15 16  2  0  0  0
 16 17  1  0  0  0
 17 18  2  0  0  0
 28 30  1  0  0  0
  7 10  1  0  0  0
M  END
> <minimizedAffinity>
-8.67207

$$$$
4WA9_AXI_B_9000


 30 33  0  0  0  0  0  0  0  0999 V2000
    4.7667  152.4821   33.4878 C   0  0  0  0  0  0  0  0  0  0  0  0
    4.8835  153.5956   34.3452 C   0  0  0  0  0  0  0  0  0  0  0  0
    6.1524  154.0963   34.6890 C   0  0  0  0  0  0  0  0  0  0  0  0
    5.8943  151.8603   32.9763 C   0  0  0  0  0  0  0  0  0  0  0  0
    7.1889  152.3692   33.3307 C   0  0  0  0  0  0  0  0  0  0  0  0
    8.4578  151.9450   32.9808 N   0  0  0  0  0  0  0  0  0  0  0  0
    9.3654  152.7711   33.5981 N   0  0  0  0  0  0  0  0  0  0  0  0
    8.7217  153.7069   34.3261 C   0  0  0  0  0  0  0  0  0  0  0  0
    7.3148  153.4610   34.1676 C   0  0  0  0  0  0  0  0  0  0  0  0
   10.3437  152.6918   33.5205 H   0  0  0  0  0  0  0  0  0  0  0  0
    9.4026  154.7821   35.1310 C   0  0  0  0  0  0  0  0  0  0  0  0
   10.7408  155.0636   35.0221 C   0  0  0  0  0  0  0  0  0  0  0  0
   11.3722  156.0808   35.9359 C   0  0  0  0  0  0  0  0  0  0  0  0
   12.2663  156.9591   35.4407 N   0  0  0  0  0  0  0  0  0  0  0  0
   12.8539  157.8842   36.2358 C   0  0  0  0  0  0  0  0  0  0  0  0
   12.5388  157.9332   37.5915 C   0  0  0  0  0  0  0  0  0  0  0  0
   11.6209  157.0349   38.1231 C   0  0  0  0  0  0  0  0  0  0  0  0
   11.0324  156.0934   37.2798 C   0  0  0  0  0  0  0  0  0  0  0  0
    3.1415  151.8646   33.0434 S   0  0  0  0  0  0  0  0  0  0  0  0
    1.1883  153.5593   34.1054 C   0  0  0  0  0  0  0  0  0  0  0  0
    0.3571  154.0142   35.1285 C   0  0  0  0  0  0  0  0  0  0  0  0
    0.3960  153.4093   36.3785 C   0  0  0  0  0  0  0  0  0  0  0  0
    1.2700  152.3420   36.6085 C   0  0  0  0  0  0  0  0  0  0  0  0
    2.0690  152.4892   34.3412 C   0  0  0  0  0  0  0  0  0  0  0  0
    2.1048  151.8903   35.5815 C   0  0  0  0  0  0  0  0  0  0  0  0
    1.9161  155.1506   32.5414 O   0  0  0  0  0  0  0  0  0  0  0  0
    1.1587  154.2198   32.7643 C   0  0  0  0  0  0  0  0  0  0  0  0
    0.2419  153.7972   31.7495 N   0  0  0  0  0  0  0  0  0  0  0  0
    0.2293  154.4498   30.4493 C   0  0  0  0  0  0  0  0  0  0  0  0
   -0.3843  153.0600   31.9327 H   0  0  0  0  0  0  0  0  0  0  0  0
 26 27  2  0  0  0
 27 28  1  0  0  0
 27 20  1  0  0  0
 28 29  1  0  0  0
 20 21  1  0  0  0
 20 24  2  0  0  0
 21 22  2  0  0  0
 22 23  1  0  0  0
 23 25  2  0  0  0
 24 25  1  0  0  0
 24 19  1  0  0  0
 19  1  1  0  0  0
  1  2  1  0  0  0
  1  4  2  0  0  0
  2  3  2  0  0  0
  3  9  1  0  0  0
  4  5  1  0  0  0
  5  6  2  0  0  0
  5  9  1  0  0  0
  6  7  1  0  0  0
  7  8  1  0  0  0
  8  9  2  0  0  0
  8 11  1  0  0  0
 11 12  2  0  0  0
 12 13  1  0  0  0
 13 14  2  0  0  0
 13 18  1  0  0  0
 14 15  1  0  0  0
 15 16  2  0  0  0
 16 17  1  0  0  0
 17 18  2  0  0  0
 28 30  1  0  0  0
  7 10  1  0  0  0
M  END
> <minimizedAffinity>
-8.56245

$$$$
