1Q1G_MTI_A_301
  RCSB PDB12061703433D
Coordinates from PDB:1Q1G:A:301 Model:1 without hydrogens
 20 22  0  0  0  0            999 V2000
   10.0600    1.4930   95.8060   C 0  0  0  0  0  0  0  0  0  0  0  0
    9.1690    0.7520   94.4400   S 0  0  0  0  0  0  0  0  0  0  0  0
    8.4420    2.2270   93.6690   C 0  0  0  0  0  0  0  0  0  0  0  0
    8.2100    2.0730   92.1670   C 0  0  0  0  0  0  0  0  0  0  0  0
    7.2450    3.0960   91.7510   N 0  3  0  0  0  0  0  0  0  0  0  0
    9.3560    3.7780   90.8520   C 0  0  0  0  0  0  0  0  0  0  0  0
    9.7040    3.9350   89.4300   O 0  0  0  0  0  0  0  0  0  0  0  0
    9.4870    2.2590   91.3320   C 0  0  0  0  0  0  0  0  0  0  0  0
    9.4770    1.3230   90.1740   O 0  0  0  0  0  0  0  0  0  0  0  0
    7.8870    4.2530   91.1400   C 0  0  0  0  0  0  0  0  0  0  0  0
    7.7120    5.4680   92.1150   C 0  0  0  0  0  0  0  0  0  0  0  0
    6.4840    5.9820   92.5230   C 0  0  0  0  0  0  0  0  0  0  0  0
    6.5410    7.0010   93.3410   N 0  0  0  0  0  0  0  0  0  0  0  0
    7.8920    7.2270   93.5320   C 0  0  0  0  0  0  0  0  0  0  0  0
    8.5660    8.2330   94.3350   C 0  0  0  0  0  0  0  0  0  0  0  0
    8.0270    9.1020   95.0270   O 0  0  0  0  0  0  0  0  0  0  0  0
    9.9960    8.1590   94.2860   N 0  0  0  0  0  0  0  0  0  0  0  0
   10.7160    7.2090   93.5330   C 0  0  0  0  0  0  0  0  0  0  0  0
   10.0740    6.2510   92.7650   N 0  0  0  0  0  0  0  0  0  0  0  0
    8.6570    6.3040   92.7940   C 0  0  0  0  0  0  0  0  0  0  0  0
  1  2  1  0  0  0  0
  2  3  1  0  0  0  0
  3  4  1  0  0  0  0
  4  5  1  0  0  0  0
  4  8  1  0  0  0  0
  5 10  1  0  0  0  0
  6  7  1  0  0  0  0
  6  8  1  0  0  0  0
  6 10  1  0  0  0  0
  8  9  1  0  0  0  0
 10 11  1  0  0  0  0
 11 12  2  0  0  0  0
 11 20  1  0  0  0  0
 12 13  1  0  0  0  0
 13 14  1  0  0  0  0
 14 15  1  0  0  0  0
 14 20  2  0  0  0  0
 15 16  2  0  0  0  0
 15 17  1  0  0  0  0
 17 18  1  0  0  0  0
 18 19  2  0  0  0  0
 19 20  1  0  0  0  0
M  CHG  1   5   1
A    1
CS
A    2
S5'
A    3
C5'
A    4
C4'
A    5
N4'
A    6
C2'
A    7
O2'
A    8
C3'
A    9
O3'
A   10
C1'
A   11
C9
A   12
C8
A   13
N7
A   14
C5
A   15
C6
A   16
O6
A   17
N1
A   18
C2
A   19
N3
A   20
C4
M  END
>  <InstanceId>
1Q1G_MTI_A_301

>  <ChemCompId>
MTI

>  <PdbId>
1Q1G

>  <ChainId>
A

>  <ResidueNumber>
301

>  <InsertionCode>


>  <Model>
1

>  <AltIds>


>  <MissingHeavyAtoms>
0

>  <ObservedFormula>
C12 N4 O3 S

>  <Name>
3,4-DIHYDROXY-2-[(METHYLSULFANYL)METHYL]-5-(4-OXO-4,5-DIHYDRO-3H-PYRROLO[3,2-D]PYRIMIDIN-7-YL)PYRROLIDINIUM

>  <SystematicName>
7-[(2S,3S,4R,5S)-3,4-dihydroxy-5-(methylsulfanylmethyl)pyrrolidin-1-ium-2-yl]-3,5-dihydropyrrolo[2,3-e]pyrimidin-4-one

>  <Synonyms>
(1S)-1-(0-DEAZAHYPOXANTHIN-9-YL)-1,4-DIDEOXY-1,4-IMINO-5-METHYLTHIO-D-RIBITOL, MT-IMMUCILLIN-H, MT-IMMH

>  <Type>
NON-POLYMER

>  <Formula>
C12 H17 N4 O3 S

>  <MolecularWeight>
297.353

>  <ModifiedDate>
2011-06-04

>  <Parent>


>  <OneLetterCode>


>  <SubcomponentList>


>  <AmbiguousFlag>
N

>  <InChI>
InChI=1S/C12H16N4O3S/c1-20-3-6-10(17)11(18)8(16-6)5-2-13-9-7(5)14-4-15-12(9)19/h2,4,6,8,10-11,13,16-18H,3H2,1H3,(H,14,15,19)/p+1/t6-,8+,10-,11+/m1/s1

>  <InChIKey>
CEGIKIXYDFDYDN-RXDXJJGDSA-O

>  <SMILES>
CSC[C@@H]1[C@H]([C@H]([C@@H]([NH2+]1)c2c[nH]c3c2N=CNC3=O)O)O

$$$$
