1Q1G_MTI_A_301


 26 28  0  0  0  0  0  0  0  0999 V2000
    7.8318    1.8816   92.3888 C   0  0  0  0  0  0  0  0  0  0  0  0
    7.0961    3.0241   91.8372 N   0  0  0  0  0  0  0  0  0  0  0  0
    9.3887    3.3675   91.2408 C   0  0  0  0  0  0  0  0  0  0  0  0
    9.9494    3.4365   89.8811 O   0  0  0  0  0  0  0  0  0  0  0  0
    9.2254    1.8581   91.7407 C   0  0  0  0  0  0  0  0  0  0  0  0
    9.2369    0.9051   90.5966 O   0  0  0  0  0  0  0  0  0  0  0  0
    7.9808    4.0592   91.3177 C   0  0  0  0  0  0  0  0  0  0  0  0
    6.5179    3.4275   92.5743 H   0  0  0  0  0  0  0  0  0  0  0  0
    6.5294    2.6823   91.0610 H   0  0  0  0  0  0  0  0  0  0  0  0
    9.3554    2.9827   89.2630 H   0  0  0  0  0  0  0  0  0  0  0  0
    8.5377    1.1453   89.9687 H   0  0  0  0  0  0  0  0  0  0  0  0
    7.8547    5.3106   92.2534 C   0  0  0  0  0  0  0  0  0  0  0  0
    6.6543    5.7945   92.7667 C   0  0  0  0  0  0  0  0  0  0  0  0
    6.7511    6.8520   93.5303 N   0  0  0  0  0  0  0  0  0  0  0  0
    8.1034    7.1395   93.5678 C   0  0  0  0  0  0  0  0  0  0  0  0
    8.8123    8.2075   94.2519 C   0  0  0  0  0  0  0  0  0  0  0  0
    8.3104    9.0861   94.9595 O   0  0  0  0  0  0  0  0  0  0  0  0
   10.2313    8.1875   94.0553 N   0  0  0  0  0  0  0  0  0  0  0  0
   10.9103    7.2323   93.2713 C   0  0  0  0  0  0  0  0  0  0  0  0
   10.2348    6.2151   92.6166 N   0  0  0  0  0  0  0  0  0  0  0  0
    8.8275    6.2138   92.7928 C   0  0  0  0  0  0  0  0  0  0  0  0
    6.0216    7.3369   93.9796 H   0  0  0  0  0  0  0  0  0  0  0  0
   10.7671    8.8859   94.4962 H   0  0  0  0  0  0  0  0  0  0  0  0
    7.8741    2.0373   93.9079 C   0  0  0  0  0  0  0  0  0  0  0  0
    9.1480   -0.1212   95.1085 C   0  0  0  0  0  0  0  0  0  0  0  0
    9.4732    1.5754   94.6345 S   0  0  0  0  0  0  0  0  0  0  0  0
 25 26  1  0  0  0
 26 24  1  0  0  0
 24  1  1  0  0  0
  1  2  1  0  0  0
  1  5  1  0  0  0
  2  7  1  0  0  0
  3  4  1  0  0  0
  3  5  1  0  0  0
  3  7  1  0  0  0
  5  6  1  0  0  0
  7 12  1  0  0  0
 12 13  2  0  0  0
 12 21  1  0  0  0
 13 14  1  0  0  0
 14 15  1  0  0  0
 15 16  1  0  0  0
 15 21  2  0  0  0
 16 17  2  0  0  0
 16 18  1  0  0  0
 18 19  1  0  0  0
 19 20  2  0  0  0
 20 21  1  0  0  0
  2  8  1  0  0  0
  2  9  1  0  0  0
  4 10  1  0  0  0
  6 11  1  0  0  0
 14 22  1  0  0  0
 18 23  1  0  0  0
M  CHG 1   2   1
M  END
> <minimizedAffinity>
-9.49054

$$$$
1Q1G_MTI_A_301


 26 28  0  0  0  0  0  0  0  0999 V2000
    6.8864    2.8340   92.9257 C   0  0  0  0  0  0  0  0  0  0  0  0
    6.6212    4.2698   92.7881 N   0  0  0  0  0  0  0  0  0  0  0  0
    8.0929    3.6969   90.9894 C   0  0  0  0  0  0  0  0  0  0  0  0
    7.8104    3.7966   89.5479 O   0  0  0  0  0  0  0  0  0  0  0  0
    7.5210    2.3418   91.6151 C   0  0  0  0  0  0  0  0  0  0  0  0
    6.4769    1.7405   90.7402 O   0  0  0  0  0  0  0  0  0  0  0  0
    7.4671    4.8996   91.7822 C   0  0  0  0  0  0  0  0  0  0  0  0
    6.7903    4.7213   93.6870 H   0  0  0  0  0  0  0  0  0  0  0  0
    5.6518    4.3788   92.4903 H   0  0  0  0  0  0  0  0  0  0  0  0
    6.8510    3.7864   89.4049 H   0  0  0  0  0  0  0  0  0  0  0  0
    5.7682    2.3860   90.5920 H   0  0  0  0  0  0  0  0  0  0  0  0
    8.4632    5.8555   92.5248 C   0  0  0  0  0  0  0  0  0  0  0  0
    9.8481    5.8137   92.3870 C   0  0  0  0  0  0  0  0  0  0  0  0
   10.5133    6.6938   93.0897 N   0  0  0  0  0  0  0  0  0  0  0  0
    9.5447    7.4105   93.7685 C   0  0  0  0  0  0  0  0  0  0  0  0
    9.6835    8.5118   94.7060 C   0  0  0  0  0  0  0  0  0  0  0  0
   10.7404    9.0321   95.0760 O   0  0  0  0  0  0  0  0  0  0  0  0
    8.4392    9.0069   95.2153 N   0  0  0  0  0  0  0  0  0  0  0  0
    7.1756    8.4915   94.8612 C   0  0  0  0  0  0  0  0  0  0  0  0
    7.0425    7.4396   93.9693 N   0  0  0  0  0  0  0  0  0  0  0  0
    8.2603    6.9289   93.4519 C   0  0  0  0  0  0  0  0  0  0  0  0
   11.4891    6.8186   93.1272 H   0  0  0  0  0  0  0  0  0  0  0  0
    8.4685    9.7556   95.8540 H   0  0  0  0  0  0  0  0  0  0  0  0
    7.7855    2.6355   94.1446 C   0  0  0  0  0  0  0  0  0  0  0  0
    9.8767    1.3270   95.4246 C   0  0  0  0  0  0  0  0  0  0  0  0
    8.6561    1.0415   94.1449 S   0  0  0  0  0  0  0  0  0  0  0  0
 25 26  1  0  0  0
 26 24  1  0  0  0
 24  1  1  0  0  0
  1  2  1  0  0  0
  1  5  1  0  0  0
  2  7  1  0  0  0
  3  4  1  0  0  0
  3  5  1  0  0  0
  3  7  1  0  0  0
  5  6  1  0  0  0
  7 12  1  0  0  0
 12 13  2  0  0  0
 12 21  1  0  0  0
 13 14  1  0  0  0
 14 15  1  0  0  0
 15 16  1  0  0  0
 15 21  2  0  0  0
 16 17  2  0  0  0
 16 18  1  0  0  0
 18 19  1  0  0  0
 19 20  2  0  0  0
 20 21  1  0  0  0
  2  8  1  0  0  0
  2  9  1  0  0  0
  4 10  1  0  0  0
  6 11  1  0  0  0
 14 22  1  0  0  0
 18 23  1  0  0  0
M  CHG 1   2   1
M  END
> <minimizedAffinity>
-9.16676

$$$$
1Q1G_MTI_A_301


 26 28  0  0  0  0  0  0  0  0999 V2000
    7.6310    2.0923   92.2677 C   0  0  0  0  0  0  0  0  0  0  0  0
    7.0114    3.3023   91.7174 N   0  0  0  0  0  0  0  0  0  0  0  0
    9.3515    3.4905   91.2506 C   0  0  0  0  0  0  0  0  0  0  0  0
    9.9876    3.5572   89.9244 O   0  0  0  0  0  0  0  0  0  0  0  0
    9.0517    1.9835   91.6911 C   0  0  0  0  0  0  0  0  0  0  0  0
    9.0545    1.0663   90.5182 O   0  0  0  0  0  0  0  0  0  0  0  0
    7.9960    4.2831   91.2784 C   0  0  0  0  0  0  0  0  0  0  0  0
    6.4258    3.7262   92.4370 H   0  0  0  0  0  0  0  0  0  0  0  0
    6.4635    3.0268   90.9024 H   0  0  0  0  0  0  0  0  0  0  0  0
    9.3958    3.1674   89.2620 H   0  0  0  0  0  0  0  0  0  0  0  0
    8.4093    1.3764   89.8637 H   0  0  0  0  0  0  0  0  0  0  0  0
    7.9121    5.5124   92.2475 C   0  0  0  0  0  0  0  0  0  0  0  0
    6.7287    6.0224   92.7748 C   0  0  0  0  0  0  0  0  0  0  0  0
    6.8610    7.0552   93.5664 N   0  0  0  0  0  0  0  0  0  0  0  0
    8.2222    7.2960   93.6102 C   0  0  0  0  0  0  0  0  0  0  0  0
    8.9665    8.3210   94.3219 C   0  0  0  0  0  0  0  0  0  0  0  0
    8.4945    9.1965   95.0534 O   0  0  0  0  0  0  0  0  0  0  0  0
   10.3841    8.2586   94.1234 N   0  0  0  0  0  0  0  0  0  0  0  0
   11.0306    7.3026   93.3135 C   0  0  0  0  0  0  0  0  0  0  0  0
   10.3212    6.3265   92.6324 N   0  0  0  0  0  0  0  0  0  0  0  0
    8.9147    6.3677   92.8100 C   0  0  0  0  0  0  0  0  0  0  0  0
    6.1482    7.5520   94.0293 H   0  0  0  0  0  0  0  0  0  0  0  0
   10.9430    8.9266   94.5824 H   0  0  0  0  0  0  0  0  0  0  0  0
    7.6034    2.1998   93.7912 C   0  0  0  0  0  0  0  0  0  0  0  0
    4.8542    1.9370   94.1016 C   0  0  0  0  0  0  0  0  0  0  0  0
    6.1663    3.1136   94.4224 S   0  0  0  0  0  0  0  0  0  0  0  0
 25 26  1  0  0  0
 26 24  1  0  0  0
 24  1  1  0  0  0
  1  2  1  0  0  0
  1  5  1  0  0  0
  2  7  1  0  0  0
  3  4  1  0  0  0
  3  5  1  0  0  0
  3  7  1  0  0  0
  5  6  1  0  0  0
  7 12  1  0  0  0
 12 13  2  0  0  0
 12 21  1  0  0  0
 13 14  1  0  0  0
 14 15  1  0  0  0
 15 16  1  0  0  0
 15 21  2  0  0  0
 16 17  2  0  0  0
 16 18  1  0  0  0
 18 19  1  0  0  0
 19 20  2  0  0  0
 20 21  1  0  0  0
  2  8  1  0  0  0
  2  9  1  0  0  0
  4 10  1  0  0  0
  6 11  1  0  0  0
 14 22  1  0  0  0
 18 23  1  0  0  0
M  CHG 1   2   1
M  END
> <minimizedAffinity>
-8.64508

$$$$
1Q1G_MTI_A_301


 26 28  0  0  0  0  0  0  0  0999 V2000
    9.5392    7.7396   93.3185 C   0  0  0  0  0  0  0  0  0  0  0  0
    8.4740    7.1918   92.4724 N   0  0  0  0  0  0  0  0  0  0  0  0
    7.6706    7.0416   94.7222 C   0  0  0  0  0  0  0  0  0  0  0  0
    6.4870    7.7113   95.2867 O   0  0  0  0  0  0  0  0  0  0  0  0
    8.9490    8.0010   94.7135 C   0  0  0  0  0  0  0  0  0  0  0  0
    8.5529    9.4310   94.8371 O   0  0  0  0  0  0  0  0  0  0  0  0
    7.4124    6.5637   93.2486 C   0  0  0  0  0  0  0  0  0  0  0  0
    8.8786    6.4947   91.8474 H   0  0  0  0  0  0  0  0  0  0  0  0
    8.0613    7.9666   91.9530 H   0  0  0  0  0  0  0  0  0  0  0  0
    6.2693    8.4895   94.7502 H   0  0  0  0  0  0  0  0  0  0  0  0
    7.9372    9.6589   94.1231 H   0  0  0  0  0  0  0  0  0  0  0  0
    7.4734    5.0201   92.9819 C   0  0  0  0  0  0  0  0  0  0  0  0
    6.8386    4.0584   93.7634 C   0  0  0  0  0  0  0  0  0  0  0  0
    7.0068    2.8186   93.3820 N   0  0  0  0  0  0  0  0  0  0  0  0
    7.8079    2.8993   92.2575 C   0  0  0  0  0  0  0  0  0  0  0  0
    8.3315    1.8444   91.4065 C   0  0  0  0  0  0  0  0  0  0  0  0
    8.1404    0.6318   91.5388 O   0  0  0  0  0  0  0  0  0  0  0  0
    9.1376    2.3155   90.3198 N   0  0  0  0  0  0  0  0  0  0  0  0
    9.4197    3.6745   90.0720 C   0  0  0  0  0  0  0  0  0  0  0  0
    8.9228    4.6808   90.8845 N   0  0  0  0  0  0  0  0  0  0  0  0
    8.1232    4.2409   91.9701 C   0  0  0  0  0  0  0  0  0  0  0  0
    6.6431    2.0064   93.8030 H   0  0  0  0  0  0  0  0  0  0  0  0
    9.5193    1.6468   89.7062 H   0  0  0  0  0  0  0  0  0  0  0  0
   10.6943    6.7400   93.3284 C   0  0  0  0  0  0  0  0  0  0  0  0
   12.3778    8.0830   95.0850 C   0  0  0  0  0  0  0  0  0  0  0  0
   12.3290    7.5295   93.3820 S   0  0  0  0  0  0  0  0  0  0  0  0
 25 26  1  0  0  0
 26 24  1  0  0  0
 24  1  1  0  0  0
  1  2  1  0  0  0
  1  5  1  0  0  0
  2  7  1  0  0  0
  3  4  1  0  0  0
  3  5  1  0  0  0
  3  7  1  0  0  0
  5  6  1  0  0  0
  7 12  1  0  0  0
 12 13  2  0  0  0
 12 21  1  0  0  0
 13 14  1  0  0  0
 14 15  1  0  0  0
 15 16  1  0  0  0
 15 21  2  0  0  0
 16 17  2  0  0  0
 16 18  1  0  0  0
 18 19  1  0  0  0
 19 20  2  0  0  0
 20 21  1  0  0  0
  2  8  1  0  0  0
  2  9  1  0  0  0
  4 10  1  0  0  0
  6 11  1  0  0  0
 14 22  1  0  0  0
 18 23  1  0  0  0
M  CHG 1   2   1
M  END
> <minimizedAffinity>
-8.58655

$$$$
1Q1G_MTI_A_301


 26 28  0  0  0  0  0  0  0  0999 V2000
    9.2782    7.8367   93.2553 C   0  0  0  0  0  0  0  0  0  0  0  0
    8.4547    7.2189   92.2108 N   0  0  0  0  0  0  0  0  0  0  0  0
    7.7473    6.2345   94.2748 C   0  0  0  0  0  0  0  0  0  0  0  0
    6.4088    6.3171   94.8825 O   0  0  0  0  0  0  0  0  0  0  0  0
    8.6350    7.5196   94.6149 C   0  0  0  0  0  0  0  0  0  0  0  0
    7.7870    8.6620   95.0540 O   0  0  0  0  0  0  0  0  0  0  0  0
    7.6619    6.1035   92.7121 C   0  0  0  0  0  0  0  0  0  0  0  0
    9.0675    6.8779   91.4701 H   0  0  0  0  0  0  0  0  0  0  0  0
    7.8083    7.9284   91.8656 H   0  0  0  0  0  0  0  0  0  0  0  0
    5.9451    7.0966   94.5387 H   0  0  0  0  0  0  0  0  0  0  0  0
    7.1304    8.8597   94.3679 H   0  0  0  0  0  0  0  0  0  0  0  0
    8.2315    4.7880   92.0777 C   0  0  0  0  0  0  0  0  0  0  0  0
    8.9707    4.7360   90.8990 C   0  0  0  0  0  0  0  0  0  0  0  0
    9.3601    3.5438   90.5276 N   0  0  0  0  0  0  0  0  0  0  0  0
    8.8723    2.6922   91.5021 C   0  0  0  0  0  0  0  0  0  0  0  0
    8.9840    1.2484   91.6213 C   0  0  0  0  0  0  0  0  0  0  0  0
    9.5669    0.4902   90.8404 O   0  0  0  0  0  0  0  0  0  0  0  0
    8.3406    0.7057   92.7808 N   0  0  0  0  0  0  0  0  0  0  0  0
    7.6495    1.4759   93.7383 C   0  0  0  0  0  0  0  0  0  0  0  0
    7.5404    2.8524   93.6239 N   0  0  0  0  0  0  0  0  0  0  0  0
    8.1669    3.4151   92.4827 C   0  0  0  0  0  0  0  0  0  0  0  0
    9.8850    3.3052   89.7297 H   0  0  0  0  0  0  0  0  0  0  0  0
    8.3840   -0.2683   92.9177 H   0  0  0  0  0  0  0  0  0  0  0  0
   10.6994    7.2939   93.1176 C   0  0  0  0  0  0  0  0  0  0  0  0
   13.4238    7.6303   93.5512 C   0  0  0  0  0  0  0  0  0  0  0  0
   11.8540    7.9814   94.3394 S   0  0  0  0  0  0  0  0  0  0  0  0
 25 26  1  0  0  0
 26 24  1  0  0  0
 24  1  1  0  0  0
  1  2  1  0  0  0
  1  5  1  0  0  0
  2  7  1  0  0  0
  3  4  1  0  0  0
  3  5  1  0  0  0
  3  7  1  0  0  0
  5  6  1  0  0  0
  7 12  1  0  0  0
 12 13  2  0  0  0
 12 21  1  0  0  0
 13 14  1  0  0  0
 14 15  1  0  0  0
 15 16  1  0  0  0
 15 21  2  0  0  0
 16 17  2  0  0  0
 16 18  1  0  0  0
 18 19  1  0  0  0
 19 20  2  0  0  0
 20 21  1  0  0  0
  2  8  1  0  0  0
  2  9  1  0  0  0
  4 10  1  0  0  0
  6 11  1  0  0  0
 14 22  1  0  0  0
 18 23  1  0  0  0
M  CHG 1   2   1
M  END
> <minimizedAffinity>
-7.69427

$$$$
1Q1G_MTI_A_301


 26 28  0  0  0  0  0  0  0  0999 V2000
    8.1346    1.6446   92.8235 C   0  0  0  0  0  0  0  0  0  0  0  0
    7.2059    2.6697   92.3361 N   0  0  0  0  0  0  0  0  0  0  0  0
    9.2360    2.9830   91.1073 C   0  0  0  0  0  0  0  0  0  0  0  0
    9.4177    2.8615   89.6512 O   0  0  0  0  0  0  0  0  0  0  0  0
    9.3098    1.5624   91.8362 C   0  0  0  0  0  0  0  0  0  0  0  0
    9.0871    0.4483   90.8738 O   0  0  0  0  0  0  0  0  0  0  0  0
    7.8536    3.6388   91.4612 C   0  0  0  0  0  0  0  0  0  0  0  0
    6.8137    3.1636   93.1378 H   0  0  0  0  0  0  0  0  0  0  0  0
    6.4810    2.1990   91.7945 H   0  0  0  0  0  0  0  0  0  0  0  0
    8.7151    2.3032   89.2832 H   0  0  0  0  0  0  0  0  0  0  0  0
    8.2341    0.5713   90.4286 H   0  0  0  0  0  0  0  0  0  0  0  0
    7.8918    5.0131   92.2144 C   0  0  0  0  0  0  0  0  0  0  0  0
    8.5342    6.1545   91.7418 C   0  0  0  0  0  0  0  0  0  0  0  0
    8.4560    7.2078   92.5132 N   0  0  0  0  0  0  0  0  0  0  0  0
    7.7095    6.7953   93.6018 C   0  0  0  0  0  0  0  0  0  0  0  0
    7.3019    7.5304   94.7870 C   0  0  0  0  0  0  0  0  0  0  0  0
    7.5563    8.7114   95.0420 O   0  0  0  0  0  0  0  0  0  0  0  0
    6.5260    6.7615   95.7143 N   0  0  0  0  0  0  0  0  0  0  0  0
    6.1749    5.4092   95.5251 C   0  0  0  0  0  0  0  0  0  0  0  0
    6.5654    4.7068   94.3964 N   0  0  0  0  0  0  0  0  0  0  0  0
    7.3373    5.4447   93.4631 C   0  0  0  0  0  0  0  0  0  0  0  0
    8.8435    8.0987   92.3538 H   0  0  0  0  0  0  0  0  0  0  0  0
    6.2182    7.2064   96.5368 H   0  0  0  0  0  0  0  0  0  0  0  0
    8.5602    2.0290   94.2393 C   0  0  0  0  0  0  0  0  0  0  0  0
    8.7248   -0.6502   94.9590 C   0  0  0  0  0  0  0  0  0  0  0  0
    9.7127    0.8438   94.9913 S   0  0  0  0  0  0  0  0  0  0  0  0
 25 26  1  0  0  0
 26 24  1  0  0  0
 24  1  1  0  0  0
  1  2  1  0  0  0
  1  5  1  0  0  0
  2  7  1  0  0  0
  3  4  1  0  0  0
  3  5  1  0  0  0
  3  7  1  0  0  0
  5  6  1  0  0  0
  7 12  1  0  0  0
 12 13  2  0  0  0
 12 21  1  0  0  0
 13 14  1  0  0  0
 14 15  1  0  0  0
 15 16  1  0  0  0
 15 21  2  0  0  0
 16 17  2  0  0  0
 16 18  1  0  0  0
 18 19  1  0  0  0
 19 20  2  0  0  0
 20 21  1  0  0  0
  2  8  1  0  0  0
  2  9  1  0  0  0
  4 10  1  0  0  0
  6 11  1  0  0  0
 14 22  1  0  0  0
 18 23  1  0  0  0
M  CHG 1   2   1
M  END
> <minimizedAffinity>
-7.67800

$$$$
1Q1G_MTI_A_301


 26 28  0  0  0  0  0  0  0  0999 V2000
    7.8738    1.5753   89.1559 C   0  0  0  0  0  0  0  0  0  0  0  0
    8.5960    2.8204   89.4367 N   0  0  0  0  0  0  0  0  0  0  0  0
    9.0004    1.3878   91.3112 C   0  0  0  0  0  0  0  0  0  0  0  0
   10.3010    0.8660   91.7629 O   0  0  0  0  0  0  0  0  0  0  0  0
    8.3813    0.5027   90.1330 C   0  0  0  0  0  0  0  0  0  0  0  0
    9.4264   -0.3294   89.4752 O   0  0  0  0  0  0  0  0  0  0  0  0
    9.1221    2.8661   90.7952 C   0  0  0  0  0  0  0  0  0  0  0  0
    7.9576    3.6053   89.3066 H   0  0  0  0  0  0  0  0  0  0  0  0
    9.3878    2.8709   88.7958 H   0  0  0  0  0  0  0  0  0  0  0  0
   10.9284    0.8774   91.0232 H   0  0  0  0  0  0  0  0  0  0  0  0
   10.1375    0.2436   89.1482 H   0  0  0  0  0  0  0  0  0  0  0  0
    8.3219    3.9609   91.5818 C   0  0  0  0  0  0  0  0  0  0  0  0
    6.9449    3.9376   91.7863 C   0  0  0  0  0  0  0  0  0  0  0  0
    6.4573    4.9415   92.4682 N   0  0  0  0  0  0  0  0  0  0  0  0
    7.5530    5.7287   92.7726 C   0  0  0  0  0  0  0  0  0  0  0  0
    7.6286    6.9797   93.5076 C   0  0  0  0  0  0  0  0  0  0  0  0
    6.6844    7.5880   94.0206 O   0  0  0  0  0  0  0  0  0  0  0  0
    8.9540    7.5117   93.6223 N   0  0  0  0  0  0  0  0  0  0  0  0
   10.1034    6.9020   93.0791 C   0  0  0  0  0  0  0  0  0  0  0  0
   10.0317    5.7104   92.3758 N   0  0  0  0  0  0  0  0  0  0  0  0
    8.7296    5.1635   92.2455 C   0  0  0  0  0  0  0  0  0  0  0  0
    5.5168    5.1017   92.7115 H   0  0  0  0  0  0  0  0  0  0  0  0
    9.0696    8.3577   94.1123 H   0  0  0  0  0  0  0  0  0  0  0  0
    6.3785    1.8570   89.2908 C   0  0  0  0  0  0  0  0  0  0  0  0
    3.7389    1.0254   89.0366 C   0  0  0  0  0  0  0  0  0  0  0  0
    5.3441    0.7480   88.2914 S   0  0  0  0  0  0  0  0  0  0  0  0
 25 26  1  0  0  0
 26 24  1  0  0  0
 24  1  1  0  0  0
  1  2  1  0  0  0
  1  5  1  0  0  0
  2  7  1  0  0  0
  3  4  1  0  0  0
  3  5  1  0  0  0
  3  7  1  0  0  0
  5  6  1  0  0  0
  7 12  1  0  0  0
 12 13  2  0  0  0
 12 21  1  0  0  0
 13 14  1  0  0  0
 14 15  1  0  0  0
 15 16  1  0  0  0
 15 21  2  0  0  0
 16 17  2  0  0  0
 16 18  1  0  0  0
 18 19  1  0  0  0
 19 20  2  0  0  0
 20 21  1  0  0  0
  2  8  1  0  0  0
  2  9  1  0  0  0
  4 10  1  0  0  0
  6 11  1  0  0  0
 14 22  1  0  0  0
 18 23  1  0  0  0
M  CHG 1   2   1
M  END
> <minimizedAffinity>
-7.19896

$$$$
1Q1G_MTI_A_301


 26 28  0  0  0  0  0  0  0  0999 V2000
    8.1028    6.4883   92.8341 C   0  0  0  0  0  0  0  0  0  0  0  0
    7.3282    5.5761   91.9862 N   0  0  0  0  0  0  0  0  0  0  0  0
    7.1542    4.7132   94.2121 C   0  0  0  0  0  0  0  0  0  0  0  0
    5.9256    4.5594   95.0089 O   0  0  0  0  0  0  0  0  0  0  0  0
    7.7368    6.1992   94.2987 C   0  0  0  0  0  0  0  0  0  0  0  0
    6.6989    7.1611   94.7619 O   0  0  0  0  0  0  0  0  0  0  0  0
    6.9033    4.3777   92.6985 C   0  0  0  0  0  0  0  0  0  0  0  0
    7.9054    5.2977   91.1927 H   0  0  0  0  0  0  0  0  0  0  0  0
    6.4890    6.0711   91.6841 H   0  0  0  0  0  0  0  0  0  0  0  0
    5.2452    5.1641   94.6739 H   0  0  0  0  0  0  0  0  0  0  0  0
    5.9313    7.1182   94.1703 H   0  0  0  0  0  0  0  0  0  0  0  0
    7.6909    3.1612   92.1010 C   0  0  0  0  0  0  0  0  0  0  0  0
    8.7558    2.5237   92.7321 C   0  0  0  0  0  0  0  0  0  0  0  0
    9.2873    1.5255   92.0749 N   0  0  0  0  0  0  0  0  0  0  0  0
    8.5556    1.4423   90.9042 C   0  0  0  0  0  0  0  0  0  0  0  0
    8.6902    0.5294   89.7819 C   0  0  0  0  0  0  0  0  0  0  0  0
    9.5168   -0.3811   89.6713 O   0  0  0  0  0  0  0  0  0  0  0  0
    7.7412    0.7498   88.7314 N   0  0  0  0  0  0  0  0  0  0  0  0
    6.7540    1.7562   88.7523 C   0  0  0  0  0  0  0  0  0  0  0  0
    6.6266    2.6288   89.8210 N   0  0  0  0  0  0  0  0  0  0  0  0
    7.5564    2.4336   90.8740 C   0  0  0  0  0  0  0  0  0  0  0  0
   10.0424    0.9581   92.3525 H   0  0  0  0  0  0  0  0  0  0  0  0
    7.7810    0.1603   87.9439 H   0  0  0  0  0  0  0  0  0  0  0  0
    9.5837    6.2736   92.5272 C   0  0  0  0  0  0  0  0  0  0  0  0
   11.9681    7.6634   92.8542 C   0  0  0  0  0  0  0  0  0  0  0  0
   10.6858    6.8863   93.8344 S   0  0  0  0  0  0  0  0  0  0  0  0
 25 26  1  0  0  0
 26 24  1  0  0  0
 24  1  1  0  0  0
  1  2  1  0  0  0
  1  5  1  0  0  0
  2  7  1  0  0  0
  3  4  1  0  0  0
  3  5  1  0  0  0
  3  7  1  0  0  0
  5  6  1  0  0  0
  7 12  1  0  0  0
 12 13  2  0  0  0
 12 21  1  0  0  0
 13 14  1  0  0  0
 14 15  1  0  0  0
 15 16  1  0  0  0
 15 21  2  0  0  0
 16 17  2  0  0  0
 16 18  1  0  0  0
 18 19  1  0  0  0
 19 20  2  0  0  0
 20 21  1  0  0  0
  2  8  1  0  0  0
  2  9  1  0  0  0
  4 10  1  0  0  0
  6 11  1  0  0  0
 14 22  1  0  0  0
 18 23  1  0  0  0
M  CHG 1   2   1
M  END
> <minimizedAffinity>
-6.95286

$$$$
1Q1G_MTI_A_301


 26 28  0  0  0  0  0  0  0  0999 V2000
    6.5498    3.8956   94.0218 C   0  0  0  0  0  0  0  0  0  0  0  0
    7.9374    3.4293   93.9336 N   0  0  0  0  0  0  0  0  0  0  0  0
    7.6826    5.0678   92.2074 C   0  0  0  0  0  0  0  0  0  0  0  0
    8.4042    6.3454   92.0854 O   0  0  0  0  0  0  0  0  0  0  0  0
    6.4296    5.1844   93.1929 C   0  0  0  0  0  0  0  0  0  0  0  0
    6.5495    6.3727   94.0821 O   0  0  0  0  0  0  0  0  0  0  0  0
    8.6192    3.9279   92.7459 C   0  0  0  0  0  0  0  0  0  0  0  0
    7.9389    2.4096   93.9077 H   0  0  0  0  0  0  0  0  0  0  0  0
    8.4362    3.7843   94.7494 H   0  0  0  0  0  0  0  0  0  0  0  0
    8.7367    6.6134   92.9564 H   0  0  0  0  0  0  0  0  0  0  0  0
    7.3825    6.3237   94.5766 H   0  0  0  0  0  0  0  0  0  0  0  0
    8.8743    2.7093   91.7932 C   0  0  0  0  0  0  0  0  0  0  0  0
    9.9344    1.8158   91.9214 C   0  0  0  0  0  0  0  0  0  0  0  0
    9.9804    0.8610   91.0286 N   0  0  0  0  0  0  0  0  0  0  0  0
    8.8845    1.0836   90.2148 C   0  0  0  0  0  0  0  0  0  0  0  0
    8.4229    0.3498   89.0488 C   0  0  0  0  0  0  0  0  0  0  0  0
    8.9483   -0.6539   88.5578 O   0  0  0  0  0  0  0  0  0  0  0  0
    7.2343    0.8845   88.4538 N   0  0  0  0  0  0  0  0  0  0  0  0
    6.5509    2.0218   88.9305 C   0  0  0  0  0  0  0  0  0  0  0  0
    6.9919    2.7237   90.0408 N   0  0  0  0  0  0  0  0  0  0  0  0
    8.1691    2.2162   90.6476 C   0  0  0  0  0  0  0  0  0  0  0  0
   10.6483    0.1418   90.9526 H   0  0  0  0  0  0  0  0  0  0  0  0
    6.8713    0.4282   87.6606 H   0  0  0  0  0  0  0  0  0  0  0  0
    5.6423    2.7711   93.5260 C   0  0  0  0  0  0  0  0  0  0  0  0
    2.8874    2.4080   93.4798 C   0  0  0  0  0  0  0  0  0  0  0  0
    4.2513    2.4243   94.6411 S   0  0  0  0  0  0  0  0  0  0  0  0
 25 26  1  0  0  0
 26 24  1  0  0  0
 24  1  1  0  0  0
  1  2  1  0  0  0
  1  5  1  0  0  0
  2  7  1  0  0  0
  3  4  1  0  0  0
  3  5  1  0  0  0
  3  7  1  0  0  0
  5  6  1  0  0  0
  7 12  1  0  0  0
 12 13  2  0  0  0
 12 21  1  0  0  0
 13 14  1  0  0  0
 14 15  1  0  0  0
 15 16  1  0  0  0
 15 21  2  0  0  0
 16 17  2  0  0  0
 16 18  1  0  0  0
 18 19  1  0  0  0
 19 20  2  0  0  0
 20 21  1  0  0  0
  2  8  1  0  0  0
  2  9  1  0  0  0
  4 10  1  0  0  0
  6 11  1  0  0  0
 14 22  1  0  0  0
 18 23  1  0  0  0
M  CHG 1   2   1
M  END
> <minimizedAffinity>
-6.54395

$$$$
