5F1H_5U6_A_201


 26 28  0  0  0  0  0  0  0  0999 V2000
    5.8519   -3.6108    6.2628 C   0  0  0  0  0  0  0  0  0  0  0  0
    7.2383   -3.7011    6.1449 C   0  0  0  0  0  0  0  0  0  0  0  0
    5.5681   -4.3767    3.9896 C   0  0  0  0  0  0  0  0  0  0  0  0
    5.0244   -3.9152    5.1932 C   0  0  0  0  0  0  0  0  0  0  0  0
    7.8075   -4.1493    4.9293 C   0  0  0  0  0  0  0  0  0  0  0  0
    6.9594   -4.4686    3.8562 C   0  0  0  0  0  0  0  0  0  0  0  0
   11.2519   -8.0410    4.4360 N   0  0  0  0  0  0  0  0  0  0  0  0
   11.9762   -6.9306    4.4833 C   0  0  0  0  0  0  0  0  0  0  0  0
    9.9376   -5.6179    4.6826 C   0  0  0  0  0  0  0  0  0  0  0  0
   11.3619   -5.6762    4.6168 C   0  0  0  0  0  0  0  0  0  0  0  0
   12.1248   -4.4148    4.6732 C   0  0  0  0  0  0  0  0  0  0  0  0
    9.2893   -4.2906    4.8003 C   0  0  0  0  0  0  0  0  0  0  0  0
    9.2315   -6.8320    4.6278 C   0  0  0  0  0  0  0  0  0  0  0  0
   11.4501   -3.2327    4.7392 N   0  0  0  0  0  0  0  0  0  0  0  0
    9.9223   -8.0167    4.5116 C   0  0  0  0  0  0  0  0  0  0  0  0
   10.0829   -3.1762    4.8070 C   0  0  0  0  0  0  0  0  0  0  0  0
   12.1873   -1.9665    4.8049 C   0  0  0  0  0  0  0  0  0  0  0  0
   13.3472   -4.4423    4.6417 O   0  0  0  0  0  0  0  0  0  0  0  0
    7.6777   -2.2685    8.0425 C   0  0  0  0  0  0  0  0  0  0  0  0
    8.0253   -3.3814    7.2159 O   0  0  0  0  0  0  0  0  0  0  0  0
    4.7352   -4.6610    2.9353 O   0  0  0  0  0  0  0  0  0  0  0  0
    4.6063   -6.0106    2.4717 C   0  0  0  0  0  0  0  0  0  0  0  0
    3.5300   -3.7632    5.3715 C   0  0  0  0  0  0  0  0  0  0  0  0
    2.8681   -6.0698    5.8287 C   0  0  0  0  0  0  0  0  0  0  0  0
    1.7645   -4.2399    6.9549 C   0  0  0  0  0  0  0  0  0  0  0  0
    3.0327   -4.7163    6.3783 N   0  0  0  0  0  0  0  0  0  0  0  0
 19 20  1  0  0  0
 20  2  1  0  0  0
  1  2  2  0  0  0
  1  4  1  0  0  0
  2  5  1  0  0  0
 23  4  1  0  0  0
 23 26  1  0  0  0
  4  3  2  0  0  0
 25 26  1  0  0  0
  5 12  1  0  0  0
  5  6  2  0  0  0
 26 24  1  0  0  0
 13  9  2  0  0  0
 13 15  1  0  0  0
 12  9  1  0  0  0
 12 16  2  0  0  0
  3  6  1  0  0  0
  3 21  1  0  0  0
  9 10  1  0  0  0
 15  7  2  0  0  0
 16 14  1  0  0  0
 10  8  2  0  0  0
 10 11  1  0  0  0
  7  8  1  0  0  0
 14 11  1  0  0  0
 14 17  1  0  0  0
 11 18  2  0  0  0
 21 22  1  0  0  0
M  END
> <minimizedAffinity>
-8.35816

$$$$
5F1H_5U6_A_201


 26 28  0  0  0  0  0  0  0  0999 V2000
    5.9883   -3.1345    5.9330 C   0  0  0  0  0  0  0  0  0  0  0  0
    7.2867   -3.6409    5.8887 C   0  0  0  0  0  0  0  0  0  0  0  0
    5.4610   -4.1910    3.8257 C   0  0  0  0  0  0  0  0  0  0  0  0
    5.0926   -3.3788    4.9036 C   0  0  0  0  0  0  0  0  0  0  0  0
    7.6832   -4.4501    4.7976 C   0  0  0  0  0  0  0  0  0  0  0  0
    6.7634   -4.7033    3.7667 C   0  0  0  0  0  0  0  0  0  0  0  0
   12.5884   -2.6778    4.5736 N   0  0  0  0  0  0  0  0  0  0  0  0
   12.6880   -4.0004    4.5488 C   0  0  0  0  0  0  0  0  0  0  0  0
   10.2655   -4.1783    4.6849 C   0  0  0  0  0  0  0  0  0  0  0  0
   11.5423   -4.8091    4.5936 C   0  0  0  0  0  0  0  0  0  0  0  0
   11.6029   -6.2829    4.5690 C   0  0  0  0  0  0  0  0  0  0  0  0
    9.0578   -5.0341    4.7554 C   0  0  0  0  0  0  0  0  0  0  0  0
   10.2318   -2.7733    4.7059 C   0  0  0  0  0  0  0  0  0  0  0  0
   10.4479   -6.9973    4.6806 N   0  0  0  0  0  0  0  0  0  0  0  0
   11.4088   -2.0629    4.6421 C   0  0  0  0  0  0  0  0  0  0  0  0
    9.2214   -6.3923    4.7637 C   0  0  0  0  0  0  0  0  0  0  0  0
   10.4826   -8.4632    4.6500 C   0  0  0  0  0  0  0  0  0  0  0  0
   12.6846   -6.8447    4.4678 O   0  0  0  0  0  0  0  0  0  0  0  0
    7.7263   -2.5273    7.9894 C   0  0  0  0  0  0  0  0  0  0  0  0
    8.1481   -3.3702    6.9150 O   0  0  0  0  0  0  0  0  0  0  0  0
    4.5663   -4.4122    2.8076 O   0  0  0  0  0  0  0  0  0  0  0  0
    4.5961   -5.6509    2.0881 C   0  0  0  0  0  0  0  0  0  0  0  0
    3.7098   -2.7722    4.9918 C   0  0  0  0  0  0  0  0  0  0  0  0
    1.4353   -3.4531    4.4171 C   0  0  0  0  0  0  0  0  0  0  0  0
    2.4349   -4.1757    6.4939 C   0  0  0  0  0  0  0  0  0  0  0  0
    2.6891   -3.8299    5.0856 N   0  0  0  0  0  0  0  0  0  0  0  0
 19 20  1  0  0  0
 20  2  1  0  0  0
  1  2  2  0  0  0
  1  4  1  0  0  0
  2  5  1  0  0  0
 23  4  1  0  0  0
 23 26  1  0  0  0
  4  3  2  0  0  0
 25 26  1  0  0  0
  5 12  1  0  0  0
  5  6  2  0  0  0
 26 24  1  0  0  0
 13  9  2  0  0  0
 13 15  1  0  0  0
 12  9  1  0  0  0
 12 16  2  0  0  0
  3  6  1  0  0  0
  3 21  1  0  0  0
  9 10  1  0  0  0
 15  7  2  0  0  0
 16 14  1  0  0  0
 10  8  2  0  0  0
 10 11  1  0  0  0
  7  8  1  0  0  0
 14 11  1  0  0  0
 14 17  1  0  0  0
 11 18  2  0  0  0
 21 22  1  0  0  0
M  END
> <minimizedAffinity>
-6.78463

$$$$
5F1H_5U6_A_201


 26 28  0  0  0  0  0  0  0  0999 V2000
    5.4137   -4.0486    4.0707 C   0  0  0  0  0  0  0  0  0  0  0  0
    6.5350   -4.8750    4.0074 C   0  0  0  0  0  0  0  0  0  0  0  0
    6.5120   -2.6130    5.6730 C   0  0  0  0  0  0  0  0  0  0  0  0
    5.3864   -2.9477    4.9126 C   0  0  0  0  0  0  0  0  0  0  0  0
    7.6768   -4.5624    4.7826 C   0  0  0  0  0  0  0  0  0  0  0  0
    7.6440   -3.4366    5.6218 C   0  0  0  0  0  0  0  0  0  0  0  0
   12.8461   -3.8379    4.7024 N   0  0  0  0  0  0  0  0  0  0  0  0
   12.6696   -5.1463    4.5731 C   0  0  0  0  0  0  0  0  0  0  0  0
   10.2610   -4.8261    4.6932 C   0  0  0  0  0  0  0  0  0  0  0  0
   11.3804   -5.6998    4.5531 C   0  0  0  0  0  0  0  0  0  0  0  0
   11.1345   -7.1475    4.4121 C   0  0  0  0  0  0  0  0  0  0  0  0
    8.9010   -5.4146    4.6952 C   0  0  0  0  0  0  0  0  0  0  0  0
   10.5191   -3.4507    4.8253 C   0  0  0  0  0  0  0  0  0  0  0  0
    9.8547   -7.6123    4.4662 N   0  0  0  0  0  0  0  0  0  0  0  0
   11.8188   -2.9981    4.8185 C   0  0  0  0  0  0  0  0  0  0  0  0
    8.7791   -6.7736    4.5962 C   0  0  0  0  0  0  0  0  0  0  0  0
    9.5850   -9.0465    4.3199 C   0  0  0  0  0  0  0  0  0  0  0  0
   12.0776   -7.9127    4.2675 O   0  0  0  0  0  0  0  0  0  0  0  0
    5.2771   -6.4772    2.7047 C   0  0  0  0  0  0  0  0  0  0  0  0
    6.5234   -5.9597    3.1755 O   0  0  0  0  0  0  0  0  0  0  0  0
    6.4639   -1.5269    6.5121 O   0  0  0  0  0  0  0  0  0  0  0  0
    7.3329   -1.4650    7.6496 C   0  0  0  0  0  0  0  0  0  0  0  0
    4.1279   -2.1102    4.9639 C   0  0  0  0  0  0  0  0  0  0  0  0
    2.2350   -2.1832    3.4215 C   0  0  0  0  0  0  0  0  0  0  0  0
    2.0739   -3.2197    5.5974 C   0  0  0  0  0  0  0  0  0  0  0  0
    2.9734   -2.8864    4.4805 N   0  0  0  0  0  0  0  0  0  0  0  0
 19 20  1  0  0  0
 20  2  1  0  0  0
  1  2  2  0  0  0
  1  4  1  0  0  0
  2  5  1  0  0  0
 23  4  1  0  0  0
 23 26  1  0  0  0
  4  3  2  0  0  0
 25 26  1  0  0  0
  5 12  1  0  0  0
  5  6  2  0  0  0
 26 24  1  0  0  0
 13  9  2  0  0  0
 13 15  1  0  0  0
 12  9  1  0  0  0
 12 16  2  0  0  0
  3  6  1  0  0  0
  3 21  1  0  0  0
  9 10  1  0  0  0
 15  7  2  0  0  0
 16 14  1  0  0  0
 10  8  2  0  0  0
 10 11  1  0  0  0
  7  8  1  0  0  0
 14 11  1  0  0  0
 14 17  1  0  0  0
 11 18  2  0  0  0
 21 22  1  0  0  0
M  END
> <minimizedAffinity>
-6.60723

$$$$
5F1H_5U6_A_201


 26 28  0  0  0  0  0  0  0  0999 V2000
    7.1289   -4.3562    3.9017 C   0  0  0  0  0  0  0  0  0  0  0  0
    5.7561   -4.4678    4.1192 C   0  0  0  0  0  0  0  0  0  0  0  0
    7.4426   -3.4174    6.1051 C   0  0  0  0  0  0  0  0  0  0  0  0
    7.9614   -3.8119    4.8672 C   0  0  0  0  0  0  0  0  0  0  0  0
    5.2105   -4.0578    5.3588 C   0  0  0  0  0  0  0  0  0  0  0  0
    6.0648   -3.5206    6.3357 C   0  0  0  0  0  0  0  0  0  0  0  0
    0.9143   -1.1302    4.8838 N   0  0  0  0  0  0  0  0  0  0  0  0
    0.5062   -2.2747    5.4160 C   0  0  0  0  0  0  0  0  0  0  0  0
    2.7911   -3.1081    5.3586 C   0  0  0  0  0  0  0  0  0  0  0  0
    1.4166   -3.3077    5.6859 C   0  0  0  0  0  0  0  0  0  0  0  0
    1.0101   -4.5972    6.2762 C   0  0  0  0  0  0  0  0  0  0  0  0
    3.7476   -4.2086    5.6228 C   0  0  0  0  0  0  0  0  0  0  0  0
    3.1556   -1.8717    4.7981 C   0  0  0  0  0  0  0  0  0  0  0  0
    1.9452   -5.5733    6.4481 N   0  0  0  0  0  0  0  0  0  0  0  0
    2.1934   -0.9112    4.5836 C   0  0  0  0  0  0  0  0  0  0  0  0
    3.2658   -5.3808    6.1382 C   0  0  0  0  0  0  0  0  0  0  0  0
    1.5663   -6.8603    7.0408 C   0  0  0  0  0  0  0  0  0  0  0  0
   -0.1586   -4.7819    6.5860 O   0  0  0  0  0  0  0  0  0  0  0  0
    5.0186   -6.3994    2.8657 C   0  0  0  0  0  0  0  0  0  0  0  0
    4.9623   -4.9980    3.1407 O   0  0  0  0  0  0  0  0  0  0  0  0
    8.2788   -2.8677    7.0457 O   0  0  0  0  0  0  0  0  0  0  0  0
    7.7345   -2.0765    8.1090 C   0  0  0  0  0  0  0  0  0  0  0  0
    9.4367   -3.6842    4.5584 C   0  0  0  0  0  0  0  0  0  0  0  0
   11.6528   -4.5511    5.1102 C   0  0  0  0  0  0  0  0  0  0  0  0
    9.7983   -6.0649    4.7885 C   0  0  0  0  0  0  0  0  0  0  0  0
   10.2013   -4.7296    5.2597 N   0  0  0  0  0  0  0  0  0  0  0  0
 19 20  1  0  0  0
 20  2  1  0  0  0
  1  2  2  0  0  0
  1  4  1  0  0  0
  2  5  1  0  0  0
 23  4  1  0  0  0
 23 26  1  0  0  0
  4  3  2  0  0  0
 25 26  1  0  0  0
  5 12  1  0  0  0
  5  6  2  0  0  0
 26 24  1  0  0  0
 13  9  2  0  0  0
 13 15  1  0  0  0
 12  9  1  0  0  0
 12 16  2  0  0  0
  3  6  1  0  0  0
  3 21  1  0  0  0
  9 10  1  0  0  0
 15  7  2  0  0  0
 16 14  1  0  0  0
 10  8  2  0  0  0
 10 11  1  0  0  0
  7  8  1  0  0  0
 14 11  1  0  0  0
 14 17  1  0  0  0
 11 18  2  0  0  0
 21 22  1  0  0  0
M  END
> <minimizedAffinity>
-6.12004

$$$$
