2Y82_930_A_1245


 35 39  0  0  0  0  0  0  0  0999 V2000
    6.1127    5.1074   21.5125 N   0  0  0  0  0  0  0  0  0  0  0  0
    6.6973    6.2252   22.0166 C   0  0  0  0  0  0  0  0  0  0  0  0
    7.8635    6.5605   21.8780 O   0  0  0  0  0  0  0  0  0  0  0  0
    5.6494    7.0151   22.8110 C   0  0  0  0  0  0  0  0  0  0  0  0
    4.3421    6.4669   22.2637 C   0  0  0  0  0  0  0  0  0  0  0  0
    4.6807    5.0625   21.7793 C   0  0  0  0  0  0  0  0  0  0  0  0
    6.0324    2.3250   22.2127 F   0  0  0  0  0  0  0  0  0  0  0  0
    6.7617    2.7207   21.1717 C   0  0  0  0  0  0  0  0  0  0  0  0
    6.8171    4.0716   20.8141 C   0  0  0  0  0  0  0  0  0  0  0  0
    7.5973    4.4036   19.6959 C   0  0  0  0  0  0  0  0  0  0  0  0
    8.2885    3.4162   18.9940 C   0  0  0  0  0  0  0  0  0  0  0  0
    8.2198    2.0756   19.3697 C   0  0  0  0  0  0  0  0  0  0  0  0
    7.4439    1.7367   20.4847 C   0  0  0  0  0  0  0  0  0  0  0  0
    9.0020    1.0305   18.6072 C   0  0  0  0  0  0  0  0  0  0  0  0
   10.1523    1.6101   17.7738 C   0  0  0  0  0  0  0  0  0  0  0  0
    9.5785    1.7481   16.3604 C   0  0  0  0  0  0  0  0  0  0  0  0
    8.2285    1.0156   16.3808 C   0  0  0  0  0  0  0  0  0  0  0  0
    8.1636    0.2879   17.6526 N   0  0  0  0  0  0  0  0  0  0  0  0
    7.2006    0.2488   17.9866 H   0  0  0  0  0  0  0  0  0  0  0  0
    5.7947    8.4511   22.6128 N   0  0  0  0  0  0  0  0  0  0  0  0
    4.8870    8.7858   22.2897 H   0  0  0  0  0  0  0  0  0  0  0  0
    6.2456    9.4516   23.8028 S   0  0  0  0  0  0  0  0  0  0  0  0
    6.3410   10.6964   23.1195 O   0  0  0  0  0  0  0  0  0  0  0  0
    5.3998    9.3332   24.9560 O   0  0  0  0  0  0  0  0  0  0  0  0
    7.8928    9.0563   24.3067 C   0  0  0  0  0  0  0  0  0  0  0  0
    8.9230    9.4966   23.4586 C   0  0  0  0  0  0  0  0  0  0  0  0
   10.2449    9.2345   23.8138 C   0  0  0  0  0  0  0  0  0  0  0  0
   10.5145    8.5392   25.0092 C   0  0  0  0  0  0  0  0  0  0  0  0
    9.4641    8.0976   25.8574 C   0  0  0  0  0  0  0  0  0  0  0  0
    8.1257    8.3777   25.4810 C   0  0  0  0  0  0  0  0  0  0  0  0
   11.8363    8.2702   25.3622 C   0  0  0  0  0  0  0  0  0  0  0  0
   12.0974    7.5913   26.5471 C   0  0  0  0  0  0  0  0  0  0  0  0
   13.7682    7.3065   26.9117 Cl  0  0  0  0  0  0  0  0  0  0  0  0
   11.0657    7.1490   27.4000 C   0  0  0  0  0  0  0  0  0  0  0  0
    9.7612    7.4041   27.0604 C   0  0  0  0  0  0  0  0  0  0  0  0
  7  8  1  0  0  0
  8  9  1  0  0  0
  8 13  2  0  0  0
  9 10  2  0  0  0
  9  1  1  0  0  0
 10 11  1  0  0  0
 11 12  2  0  0  0
 12 14  1  0  0  0
 12 13  1  0  0  0
 14 15  1  0  0  0
 14 18  1  0  0  0
 15 16  1  0  0  0
 16 17  1  0  0  0
 17 18  1  0  0  0
  1  2  1  0  0  0
  1  6  1  0  0  0
  2  3  2  0  0  0
  2  4  1  0  0  0
  4  5  1  0  0  0
  4 20  1  0  0  0
  5  6  1  0  0  0
 20 22  1  0  0  0
 22 23  2  0  0  0
 22 24  2  0  0  0
 22 25  1  0  0  0
 25 26  1  0  0  0
 25 30  2  0  0  0
 26 27  2  0  0  0
 27 28  1  0  0  0
 28 29  2  0  0  0
 28 31  1  0  0  0
 29 30  1  0  0  0
 29 35  1  0  0  0
 31 32  2  0  0  0
 32 33  1  0  0  0
 32 34  1  0  0  0
 34 35  2  0  0  0
 18 19  1  0  0  0
 20 21  1  0  0  0
M  END
> <minimizedAffinity>
-10.85518

$$$$
2Y82_930_A_1245


 35 39  0  0  0  0  0  0  0  0999 V2000
    5.7208    4.9737   21.6674 N   0  0  0  0  0  0  0  0  0  0  0  0
    6.3093    6.1747   21.9057 C   0  0  0  0  0  0  0  0  0  0  0  0
    7.2967    6.6239   21.3445 O   0  0  0  0  0  0  0  0  0  0  0  0
    5.5332    6.8930   23.0170 C   0  0  0  0  0  0  0  0  0  0  0  0
    4.1926    6.1779   22.9948 C   0  0  0  0  0  0  0  0  0  0  0  0
    4.4992    4.7919   22.4409 C   0  0  0  0  0  0  0  0  0  0  0  0
    5.4351    5.0364   18.8121 F   0  0  0  0  0  0  0  0  0  0  0  0
    6.0945    4.0321   19.3854 C   0  0  0  0  0  0  0  0  0  0  0  0
    6.2438    3.9803   20.7750 C   0  0  0  0  0  0  0  0  0  0  0  0
    6.9645    2.8960   21.2988 C   0  0  0  0  0  0  0  0  0  0  0  0
    7.4896    1.9181   20.4542 C   0  0  0  0  0  0  0  0  0  0  0  0
    7.3270    1.9896   19.0716 C   0  0  0  0  0  0  0  0  0  0  0  0
    6.6086    3.0680   18.5417 C   0  0  0  0  0  0  0  0  0  0  0  0
    7.8830    0.9005   18.1826 C   0  0  0  0  0  0  0  0  0  0  0  0
    9.2790    0.4195   18.5993 C   0  0  0  0  0  0  0  0  0  0  0  0
   10.2440    1.1998   17.7018 C   0  0  0  0  0  0  0  0  0  0  0  0
    9.3696    1.8949   16.6476 C   0  0  0  0  0  0  0  0  0  0  0  0
    8.0210    1.3344   16.7832 N   0  0  0  0  0  0  0  0  0  0  0  0
    7.3216    2.0440   16.5644 H   0  0  0  0  0  0  0  0  0  0  0  0
    5.4229    8.3224   22.7580 N   0  0  0  0  0  0  0  0  0  0  0  0
    4.4290    8.5108   22.6272 H   0  0  0  0  0  0  0  0  0  0  0  0
    5.9588    9.4386   23.8008 S   0  0  0  0  0  0  0  0  0  0  0  0
    6.0437   10.5949   22.9754 O   0  0  0  0  0  0  0  0  0  0  0  0
    5.1745    9.4748   25.0018 O   0  0  0  0  0  0  0  0  0  0  0  0
    7.6222    9.0580   24.2614 C   0  0  0  0  0  0  0  0  0  0  0  0
    8.6224    9.4597   23.3600 C   0  0  0  0  0  0  0  0  0  0  0  0
    9.9555    9.2074   23.6782 C   0  0  0  0  0  0  0  0  0  0  0  0
   10.2660    8.5600   24.8904 C   0  0  0  0  0  0  0  0  0  0  0  0
    9.2457    8.1569   25.7928 C   0  0  0  0  0  0  0  0  0  0  0  0
    7.8953    8.4265   25.4532 C   0  0  0  0  0  0  0  0  0  0  0  0
   11.5990    8.3006   25.2068 C   0  0  0  0  0  0  0  0  0  0  0  0
   11.9007    7.6693   26.4082 C   0  0  0  0  0  0  0  0  0  0  0  0
   13.5829    7.3933   26.7244 Cl  0  0  0  0  0  0  0  0  0  0  0  0
   10.8992    7.2656   27.3146 C   0  0  0  0  0  0  0  0  0  0  0  0
    9.5840    7.5116   27.0115 C   0  0  0  0  0  0  0  0  0  0  0  0
  7  8  1  0  0  0
  8  9  1  0  0  0
  8 13  2  0  0  0
  9 10  2  0  0  0
  9  1  1  0  0  0
 10 11  1  0  0  0
 11 12  2  0  0  0
 12 14  1  0  0  0
 12 13  1  0  0  0
 14 15  1  0  0  0
 14 18  1  0  0  0
 15 16  1  0  0  0
 16 17  1  0  0  0
 17 18  1  0  0  0
  1  2  1  0  0  0
  1  6  1  0  0  0
  2  3  2  0  0  0
  2  4  1  0  0  0
  4  5  1  0  0  0
  4 20  1  0  0  0
  5  6  1  0  0  0
 20 22  1  0  0  0
 22 23  2  0  0  0
 22 24  2  0  0  0
 22 25  1  0  0  0
 25 26  1  0  0  0
 25 30  2  0  0  0
 26 27  2  0  0  0
 27 28  1  0  0  0
 28 29  2  0  0  0
 28 31  1  0  0  0
 29 30  1  0  0  0
 29 35  1  0  0  0
 31 32  2  0  0  0
 32 33  1  0  0  0
 32 34  1  0  0  0
 34 35  2  0  0  0
 18 19  1  0  0  0
 20 21  1  0  0  0
M  END
> <minimizedAffinity>
-10.61232

$$$$
2Y82_930_A_1245


 35 39  0  0  0  0  0  0  0  0999 V2000
    7.0593    7.6443   21.4189 N   0  0  0  0  0  0  0  0  0  0  0  0
    7.1252    6.4729   20.7342 C   0  0  0  0  0  0  0  0  0  0  0  0
    7.6300    5.4312   21.1237 O   0  0  0  0  0  0  0  0  0  0  0  0
    6.4622    6.6638   19.3641 C   0  0  0  0  0  0  0  0  0  0  0  0
    5.6026    7.8972   19.5854 C   0  0  0  0  0  0  0  0  0  0  0  0
    6.2986    8.6617   20.7048 C   0  0  0  0  0  0  0  0  0  0  0  0
    5.8299    7.1016   23.9552 F   0  0  0  0  0  0  0  0  0  0  0  0
    7.0640    7.5992   23.9152 C   0  0  0  0  0  0  0  0  0  0  0  0
    7.6814    7.8733   22.6906 C   0  0  0  0  0  0  0  0  0  0  0  0
    8.9882    8.3829   22.7354 C   0  0  0  0  0  0  0  0  0  0  0  0
    9.6202    8.6100   23.9579 C   0  0  0  0  0  0  0  0  0  0  0  0
    8.9846    8.3306   25.1666 C   0  0  0  0  0  0  0  0  0  0  0  0
    7.6805    7.8226   25.1300 C   0  0  0  0  0  0  0  0  0  0  0  0
    9.6835    8.6131   26.4771 C   0  0  0  0  0  0  0  0  0  0  0  0
   11.2071    8.7376   26.3470 C   0  0  0  0  0  0  0  0  0  0  0  0
   11.7450    7.3551   26.7279 C   0  0  0  0  0  0  0  0  0  0  0  0
   10.5482    6.5805   27.2995 C   0  0  0  0  0  0  0  0  0  0  0  0
    9.4619    7.5510   27.4714 N   0  0  0  0  0  0  0  0  0  0  0  0
    8.5603    7.1017   27.3111 H   0  0  0  0  0  0  0  0  0  0  0  0
    5.6904    5.4920   18.9724 N   0  0  0  0  0  0  0  0  0  0  0  0
    4.7094    5.7633   19.0395 H   0  0  0  0  0  0  0  0  0  0  0  0
    5.8625    4.7806   17.5285 S   0  0  0  0  0  0  0  0  0  0  0  0
    4.6528    4.0386   17.4206 O   0  0  0  0  0  0  0  0  0  0  0  0
    6.2175    5.7202   16.5037 O   0  0  0  0  0  0  0  0  0  0  0  0
    7.1539    3.5774   17.6194 C   0  0  0  0  0  0  0  0  0  0  0  0
    8.2989    3.9505   18.3433 C   0  0  0  0  0  0  0  0  0  0  0  0
    9.3427    3.0358   18.4694 C   0  0  0  0  0  0  0  0  0  0  0  0
    9.2242    1.7653   17.8720 C   0  0  0  0  0  0  0  0  0  0  0  0
    8.0621    1.4005   17.1410 C   0  0  0  0  0  0  0  0  0  0  0  0
    7.0089    2.3435   17.0276 C   0  0  0  0  0  0  0  0  0  0  0  0
   10.2707    0.8516   17.9914 C   0  0  0  0  0  0  0  0  0  0  0  0
   10.1452   -0.4038   17.4075 C   0  0  0  0  0  0  0  0  0  0  0  0
   11.4900   -1.4789   17.6119 Cl  0  0  0  0  0  0  0  0  0  0  0  0
    8.9973   -0.7809   16.6812 C   0  0  0  0  0  0  0  0  0  0  0  0
    7.9634    0.1116   16.5533 C   0  0  0  0  0  0  0  0  0  0  0  0
  7  8  1  0  0  0
  8  9  1  0  0  0
  8 13  2  0  0  0
  9 10  2  0  0  0
  9  1  1  0  0  0
 10 11  1  0  0  0
 11 12  2  0  0  0
 12 14  1  0  0  0
 12 13  1  0  0  0
 14 15  1  0  0  0
 14 18  1  0  0  0
 15 16  1  0  0  0
 16 17  1  0  0  0
 17 18  1  0  0  0
  1  2  1  0  0  0
  1  6  1  0  0  0
  2  3  2  0  0  0
  2  4  1  0  0  0
  4  5  1  0  0  0
  4 20  1  0  0  0
  5  6  1  0  0  0
 20 22  1  0  0  0
 22 23  2  0  0  0
 22 24  2  0  0  0
 22 25  1  0  0  0
 25 26  1  0  0  0
 25 30  2  0  0  0
 26 27  2  0  0  0
 27 28  1  0  0  0
 28 29  2  0  0  0
 28 31  1  0  0  0
 29 30  1  0  0  0
 29 35  1  0  0  0
 31 32  2  0  0  0
 32 33  1  0  0  0
 32 34  1  0  0  0
 34 35  2  0  0  0
 18 19  1  0  0  0
 20 21  1  0  0  0
M  END
> <minimizedAffinity>
-10.35269

$$$$
2Y82_930_A_1245


 35 39  0  0  0  0  0  0  0  0999 V2000
    6.0040    5.7699   20.0719 N   0  0  0  0  0  0  0  0  0  0  0  0
    6.3419    7.0183   20.4874 C   0  0  0  0  0  0  0  0  0  0  0  0
    7.3768    7.6140   20.2308 O   0  0  0  0  0  0  0  0  0  0  0  0
    5.2050    7.5750   21.3538 C   0  0  0  0  0  0  0  0  0  0  0  0
    4.0274    6.7051   20.9469 C   0  0  0  0  0  0  0  0  0  0  0  0
    4.6528    5.3991   20.4727 C   0  0  0  0  0  0  0  0  0  0  0  0
    8.0725    4.1684   21.2532 F   0  0  0  0  0  0  0  0  0  0  0  0
    7.8768    4.1242   19.9372 C   0  0  0  0  0  0  0  0  0  0  0  0
    6.8762    4.8978   19.3402 C   0  0  0  0  0  0  0  0  0  0  0  0
    6.7259    4.7827   17.9497 C   0  0  0  0  0  0  0  0  0  0  0  0
    7.5561    3.9378   17.2132 C   0  0  0  0  0  0  0  0  0  0  0  0
    8.5482    3.1770   17.8297 C   0  0  0  0  0  0  0  0  0  0  0  0
    8.7047    3.2870   19.2166 C   0  0  0  0  0  0  0  0  0  0  0  0
    9.4519    2.2910   17.0027 C   0  0  0  0  0  0  0  0  0  0  0  0
    8.7150    1.1380   16.3088 C   0  0  0  0  0  0  0  0  0  0  0  0
    8.9169   -0.0661   17.2335 C   0  0  0  0  0  0  0  0  0  0  0  0
    9.9591    0.3718   18.2734 C   0  0  0  0  0  0  0  0  0  0  0  0
   10.5036    1.6526   17.8103 N   0  0  0  0  0  0  0  0  0  0  0  0
   10.7414    2.2425   18.6077 H   0  0  0  0  0  0  0  0  0  0  0  0
    4.9823    8.9926   21.1024 N   0  0  0  0  0  0  0  0  0  0  0  0
    4.0031    9.0819   20.8310 H   0  0  0  0  0  0  0  0  0  0  0  0
    5.2421   10.1263   22.2283 S   0  0  0  0  0  0  0  0  0  0  0  0
    5.9198   11.1312   21.4822 O   0  0  0  0  0  0  0  0  0  0  0  0
    4.0449   10.4563   22.9472 O   0  0  0  0  0  0  0  0  0  0  0  0
    6.4203    9.5267   23.4012 C   0  0  0  0  0  0  0  0  0  0  0  0
    5.8936    8.9297   24.5591 C   0  0  0  0  0  0  0  0  0  0  0  0
    6.7729    8.4175   25.5113 C   0  0  0  0  0  0  0  0  0  0  0  0
    8.1613    8.5093   25.2901 C   0  0  0  0  0  0  0  0  0  0  0  0
    8.6817    9.1168   24.1163 C   0  0  0  0  0  0  0  0  0  0  0  0
    7.7708    9.6282   23.1570 C   0  0  0  0  0  0  0  0  0  0  0  0
    9.0422    8.0035   26.2453 C   0  0  0  0  0  0  0  0  0  0  0  0
   10.4112    8.0887   26.0182 C   0  0  0  0  0  0  0  0  0  0  0  0
   11.4327    7.4280   27.2535 Cl  0  0  0  0  0  0  0  0  0  0  0  0
   10.9423    8.6866   24.8572 C   0  0  0  0  0  0  0  0  0  0  0  0
   10.0849    9.1918   23.9128 C   0  0  0  0  0  0  0  0  0  0  0  0
  7  8  1  0  0  0
  8  9  1  0  0  0
  8 13  2  0  0  0
  9 10  2  0  0  0
  9  1  1  0  0  0
 10 11  1  0  0  0
 11 12  2  0  0  0
 12 14  1  0  0  0
 12 13  1  0  0  0
 14 15  1  0  0  0
 14 18  1  0  0  0
 15 16  1  0  0  0
 16 17  1  0  0  0
 17 18  1  0  0  0
  1  2  1  0  0  0
  1  6  1  0  0  0
  2  3  2  0  0  0
  2  4  1  0  0  0
  4  5  1  0  0  0
  4 20  1  0  0  0
  5  6  1  0  0  0
 20 22  1  0  0  0
 22 23  2  0  0  0
 22 24  2  0  0  0
 22 25  1  0  0  0
 25 26  1  0  0  0
 25 30  2  0  0  0
 26 27  2  0  0  0
 27 28  1  0  0  0
 28 29  2  0  0  0
 28 31  1  0  0  0
 29 30  1  0  0  0
 29 35  1  0  0  0
 31 32  2  0  0  0
 32 33  1  0  0  0
 32 34  1  0  0  0
 34 35  2  0  0  0
 18 19  1  0  0  0
 20 21  1  0  0  0
M  END
> <minimizedAffinity>
-10.09169

$$$$
2Y82_930_A_1245


 35 39  0  0  0  0  0  0  0  0999 V2000
    6.8027    6.3629   20.6018 N   0  0  0  0  0  0  0  0  0  0  0  0
    5.8705    6.5230   21.5768 C   0  0  0  0  0  0  0  0  0  0  0  0
    5.1795    5.6463   22.0722 O   0  0  0  0  0  0  0  0  0  0  0  0
    5.8103    8.0063   21.9636 C   0  0  0  0  0  0  0  0  0  0  0  0
    7.1430    8.5312   21.4562 C   0  0  0  0  0  0  0  0  0  0  0  0
    7.5193    7.5983   20.3117 C   0  0  0  0  0  0  0  0  0  0  0  0
    6.2939    5.9252   17.8110 F   0  0  0  0  0  0  0  0  0  0  0  0
    6.7949    4.9386   18.5511 C   0  0  0  0  0  0  0  0  0  0  0  0
    7.0484    5.1291   19.9132 C   0  0  0  0  0  0  0  0  0  0  0  0
    7.5899    4.0435   20.6188 C   0  0  0  0  0  0  0  0  0  0  0  0
    7.8447    2.8334   19.9736 C   0  0  0  0  0  0  0  0  0  0  0  0
    7.5825    2.6659   18.6149 C   0  0  0  0  0  0  0  0  0  0  0  0
    7.0416    3.7442   17.9044 C   0  0  0  0  0  0  0  0  0  0  0  0
    7.8425    1.3342   17.9482 C   0  0  0  0  0  0  0  0  0  0  0  0
    8.9759    0.5313   18.5996 C   0  0  0  0  0  0  0  0  0  0  0  0
   10.2102    0.8361   17.7455 C   0  0  0  0  0  0  0  0  0  0  0  0
    9.6917    1.5841   16.5083 C   0  0  0  0  0  0  0  0  0  0  0  0
    8.2289    1.4800   16.5356 N   0  0  0  0  0  0  0  0  0  0  0  0
    7.8090    2.3217   16.1412 H   0  0  0  0  0  0  0  0  0  0  0  0
    5.6365    8.1807   23.3995 N   0  0  0  0  0  0  0  0  0  0  0  0
    6.0200    7.3420   23.8353 H   0  0  0  0  0  0  0  0  0  0  0  0
    6.2674    9.4349   24.2054 S   0  0  0  0  0  0  0  0  0  0  0  0
    6.3413   10.4293   23.1899 O   0  0  0  0  0  0  0  0  0  0  0  0
    5.5555    9.7075   25.4211 O   0  0  0  0  0  0  0  0  0  0  0  0
    7.9416    9.0695   24.6383 C   0  0  0  0  0  0  0  0  0  0  0  0
    8.9327    9.6862   23.8562 C   0  0  0  0  0  0  0  0  0  0  0  0
   10.2724    9.4545   24.1627 C   0  0  0  0  0  0  0  0  0  0  0  0
   10.5982    8.6128   25.2446 C   0  0  0  0  0  0  0  0  0  0  0  0
    9.5870    7.9936   26.0268 C   0  0  0  0  0  0  0  0  0  0  0  0
    8.2296    8.2451   25.7019 C   0  0  0  0  0  0  0  0  0  0  0  0
   11.9381    8.3745   25.5481 C   0  0  0  0  0  0  0  0  0  0  0  0
   12.2544    7.5501   26.6220 C   0  0  0  0  0  0  0  0  0  0  0  0
   13.9438    7.3151   26.9327 Cl  0  0  0  0  0  0  0  0  0  0  0  0
   11.2619    6.9307   27.4086 C   0  0  0  0  0  0  0  0  0  0  0  0
    9.9403    7.1543   27.1163 C   0  0  0  0  0  0  0  0  0  0  0  0
  7  8  1  0  0  0
  8  9  1  0  0  0
  8 13  2  0  0  0
  9 10  2  0  0  0
  9  1  1  0  0  0
 10 11  1  0  0  0
 11 12  2  0  0  0
 12 14  1  0  0  0
 12 13  1  0  0  0
 14 15  1  0  0  0
 14 18  1  0  0  0
 15 16  1  0  0  0
 16 17  1  0  0  0
 17 18  1  0  0  0
  1  2  1  0  0  0
  1  6  1  0  0  0
  2  3  2  0  0  0
  2  4  1  0  0  0
  4  5  1  0  0  0
  4 20  1  0  0  0
  5  6  1  0  0  0
 20 22  1  0  0  0
 22 23  2  0  0  0
 22 24  2  0  0  0
 22 25  1  0  0  0
 25 26  1  0  0  0
 25 30  2  0  0  0
 26 27  2  0  0  0
 27 28  1  0  0  0
 28 29  2  0  0  0
 28 31  1  0  0  0
 29 30  1  0  0  0
 29 35  1  0  0  0
 31 32  2  0  0  0
 32 33  1  0  0  0
 32 34  1  0  0  0
 34 35  2  0  0  0
 18 19  1  0  0  0
 20 21  1  0  0  0
M  END
> <minimizedAffinity>
-9.97530

$$$$
2Y82_930_A_1245


 35 39  0  0  0  0  0  0  0  0999 V2000
    6.2245    6.5608   19.1882 N   0  0  0  0  0  0  0  0  0  0  0  0
    6.4909    7.3234   20.2803 C   0  0  0  0  0  0  0  0  0  0  0  0
    7.1292    6.9845   21.2648 O   0  0  0  0  0  0  0  0  0  0  0  0
    5.8469    8.7025   20.0885 C   0  0  0  0  0  0  0  0  0  0  0  0
    5.6410    8.7612   18.5841 C   0  0  0  0  0  0  0  0  0  0  0  0
    5.5244    7.3055   18.1494 C   0  0  0  0  0  0  0  0  0  0  0  0
    4.3220    4.4149   19.0678 F   0  0  0  0  0  0  0  0  0  0  0  0
    5.6240    4.1440   19.0083 C   0  0  0  0  0  0  0  0  0  0  0  0
    6.5685    5.1737   19.0675 C   0  0  0  0  0  0  0  0  0  0  0  0
    7.9199    4.8048   18.9840 C   0  0  0  0  0  0  0  0  0  0  0  0
    8.2835    3.4639   18.8603 C   0  0  0  0  0  0  0  0  0  0  0  0
    7.3245    2.4539   18.8048 C   0  0  0  0  0  0  0  0  0  0  0  0
    5.9741    2.8141   18.8881 C   0  0  0  0  0  0  0  0  0  0  0  0
    7.7487    1.0067   18.6986 C   0  0  0  0  0  0  0  0  0  0  0  0
    9.2455    0.7846   18.9515 C   0  0  0  0  0  0  0  0  0  0  0  0
    9.8735    0.7362   17.5554 C   0  0  0  0  0  0  0  0  0  0  0  0
    8.6991    0.6760   16.5673 C   0  0  0  0  0  0  0  0  0  0  0  0
    7.4900    0.4427   17.3641 N   0  0  0  0  0  0  0  0  0  0  0  0
    6.6905    0.9081   16.9346 H   0  0  0  0  0  0  0  0  0  0  0  0
    6.7022    9.7696   20.5905 N   0  0  0  0  0  0  0  0  0  0  0  0
    6.7185   10.4853   19.8639 H   0  0  0  0  0  0  0  0  0  0  0  0
    6.4000   10.5453   21.9789 S   0  0  0  0  0  0  0  0  0  0  0  0
    7.0122   11.8093   21.7485 O   0  0  0  0  0  0  0  0  0  0  0  0
    5.0134   10.4793   22.3425 O   0  0  0  0  0  0  0  0  0  0  0  0
    7.3292    9.7955   23.2820 C   0  0  0  0  0  0  0  0  0  0  0  0
    6.5827    9.2269   24.3279 C   0  0  0  0  0  0  0  0  0  0  0  0
    7.2584    8.6011   25.3737 C   0  0  0  0  0  0  0  0  0  0  0  0
    8.6664    8.5530   25.3561 C   0  0  0  0  0  0  0  0  0  0  0  0
    9.4101    9.1331   24.2940 C   0  0  0  0  0  0  0  0  0  0  0  0
    8.7041    9.7616   23.2366 C   0  0  0  0  0  0  0  0  0  0  0  0
    9.3441    7.9332   26.4054 C   0  0  0  0  0  0  0  0  0  0  0  0
   10.7331    7.8808   26.3789 C   0  0  0  0  0  0  0  0  0  0  0  0
   11.4929    7.0851   27.7189 Cl  0  0  0  0  0  0  0  0  0  0  0  0
   11.4845    8.4499   25.3306 C   0  0  0  0  0  0  0  0  0  0  0  0
   10.8284    9.0662   24.2953 C   0  0  0  0  0  0  0  0  0  0  0  0
  7  8  1  0  0  0
  8  9  1  0  0  0
  8 13  2  0  0  0
  9 10  2  0  0  0
  9  1  1  0  0  0
 10 11  1  0  0  0
 11 12  2  0  0  0
 12 14  1  0  0  0
 12 13  1  0  0  0
 14 15  1  0  0  0
 14 18  1  0  0  0
 15 16  1  0  0  0
 16 17  1  0  0  0
 17 18  1  0  0  0
  1  2  1  0  0  0
  1  6  1  0  0  0
  2  3  2  0  0  0
  2  4  1  0  0  0
  4  5  1  0  0  0
  4 20  1  0  0  0
  5  6  1  0  0  0
 20 22  1  0  0  0
 22 23  2  0  0  0
 22 24  2  0  0  0
 22 25  1  0  0  0
 25 26  1  0  0  0
 25 30  2  0  0  0
 26 27  2  0  0  0
 27 28  1  0  0  0
 28 29  2  0  0  0
 28 31  1  0  0  0
 29 30  1  0  0  0
 29 35  1  0  0  0
 31 32  2  0  0  0
 32 33  1  0  0  0
 32 34  1  0  0  0
 34 35  2  0  0  0
 18 19  1  0  0  0
 20 21  1  0  0  0
M  END
> <minimizedAffinity>
-9.88207

$$$$
2Y82_930_A_1245


 35 39  0  0  0  0  0  0  0  0999 V2000
    6.9562    6.6732   19.8871 N   0  0  0  0  0  0  0  0  0  0  0  0
    6.0192    6.8319   20.8577 C   0  0  0  0  0  0  0  0  0  0  0  0
    5.2190    5.9918   21.2393 O   0  0  0  0  0  0  0  0  0  0  0  0
    6.1151    8.2608   21.4077 C   0  0  0  0  0  0  0  0  0  0  0  0
    7.5132    8.6807   20.9856 C   0  0  0  0  0  0  0  0  0  0  0  0
    7.8160    7.8418   19.7502 C   0  0  0  0  0  0  0  0  0  0  0  0
    8.6343    4.4273   20.5025 F   0  0  0  0  0  0  0  0  0  0  0  0
    7.9044    4.4178   19.3892 C   0  0  0  0  0  0  0  0  0  0  0  0
    7.0817    5.5023   19.0685 C   0  0  0  0  0  0  0  0  0  0  0  0
    6.3343    5.4072   17.8845 C   0  0  0  0  0  0  0  0  0  0  0  0
    6.4319    4.2777   17.0720 C   0  0  0  0  0  0  0  0  0  0  0  0
    7.2601    3.2090   17.4111 C   0  0  0  0  0  0  0  0  0  0  0  0
    8.0094    3.2968   18.5905 C   0  0  0  0  0  0  0  0  0  0  0  0
    7.3674    2.0096   16.4971 C   0  0  0  0  0  0  0  0  0  0  0  0
    7.3698    0.6678   17.2411 C   0  0  0  0  0  0  0  0  0  0  0  0
    8.8501    0.2971   17.3713 C   0  0  0  0  0  0  0  0  0  0  0  0
    9.6133    1.2944   16.4869 C   0  0  0  0  0  0  0  0  0  0  0  0
    8.6066    2.0181   15.7033 N   0  0  0  0  0  0  0  0  0  0  0  0
    8.9121    2.9773   15.5385 H   0  0  0  0  0  0  0  0  0  0  0  0
    5.9190    8.2955   22.8508 N   0  0  0  0  0  0  0  0  0  0  0  0
    6.3797    7.4635   23.2195 H   0  0  0  0  0  0  0  0  0  0  0  0
    6.4224    9.5316   23.7669 S   0  0  0  0  0  0  0  0  0  0  0  0
    6.6270   10.5522   22.7964 O   0  0  0  0  0  0  0  0  0  0  0  0
    5.5476    9.7693   24.8793 O   0  0  0  0  0  0  0  0  0  0  0  0
    8.0240    9.1634   24.4172 C   0  0  0  0  0  0  0  0  0  0  0  0
    9.0930    9.9078   23.8906 C   0  0  0  0  0  0  0  0  0  0  0  0
   10.3777    9.6786   24.3796 C   0  0  0  0  0  0  0  0  0  0  0  0
   10.5719    8.7117   25.3858 C   0  0  0  0  0  0  0  0  0  0  0  0
    9.4833    7.9641   25.9090 C   0  0  0  0  0  0  0  0  0  0  0  0
    8.1828    8.2150   25.4016 C   0  0  0  0  0  0  0  0  0  0  0  0
   11.8578    8.4764   25.8710 C   0  0  0  0  0  0  0  0  0  0  0  0
   12.0429    7.5275   26.8700 C   0  0  0  0  0  0  0  0  0  0  0  0
   13.6721    7.3051   27.4196 Cl  0  0  0  0  0  0  0  0  0  0  0  0
   10.9720    6.7796   27.4006 C   0  0  0  0  0  0  0  0  0  0  0  0
    9.7032    6.9995   26.9275 C   0  0  0  0  0  0  0  0  0  0  0  0
  7  8  1  0  0  0
  8  9  1  0  0  0
  8 13  2  0  0  0
  9 10  2  0  0  0
  9  1  1  0  0  0
 10 11  1  0  0  0
 11 12  2  0  0  0
 12 14  1  0  0  0
 12 13  1  0  0  0
 14 15  1  0  0  0
 14 18  1  0  0  0
 15 16  1  0  0  0
 16 17  1  0  0  0
 17 18  1  0  0  0
  1  2  1  0  0  0
  1  6  1  0  0  0
  2  3  2  0  0  0
  2  4  1  0  0  0
  4  5  1  0  0  0
  4 20  1  0  0  0
  5  6  1  0  0  0
 20 22  1  0  0  0
 22 23  2  0  0  0
 22 24  2  0  0  0
 22 25  1  0  0  0
 25 26  1  0  0  0
 25 30  2  0  0  0
 26 27  2  0  0  0
 27 28  1  0  0  0
 28 29  2  0  0  0
 28 31  1  0  0  0
 29 30  1  0  0  0
 29 35  1  0  0  0
 31 32  2  0  0  0
 32 33  1  0  0  0
 32 34  1  0  0  0
 34 35  2  0  0  0
 18 19  1  0  0  0
 20 21  1  0  0  0
M  END
> <minimizedAffinity>
-9.22619

$$$$
2Y82_930_A_1245


 35 39  0  0  0  0  0  0  0  0999 V2000
    4.7668    3.3965   21.7470 N   0  0  0  0  0  0  0  0  0  0  0  0
    4.7772    4.7433   21.9241 C   0  0  0  0  0  0  0  0  0  0  0  0
    5.4001    5.5583   21.2613 O   0  0  0  0  0  0  0  0  0  0  0  0
    3.8746    5.0917   23.1145 C   0  0  0  0  0  0  0  0  0  0  0  0
    2.9994    3.8553   23.2346 C   0  0  0  0  0  0  0  0  0  0  0  0
    3.8369    2.7262   22.6468 C   0  0  0  0  0  0  0  0  0  0  0  0
    7.2584    2.1204   22.3813 F   0  0  0  0  0  0  0  0  0  0  0  0
    6.7988    2.0824   21.1324 C   0  0  0  0  0  0  0  0  0  0  0  0
    5.5884    2.6993   20.8006 C   0  0  0  0  0  0  0  0  0  0  0  0
    5.1678    2.6010   19.4653 C   0  0  0  0  0  0  0  0  0  0  0  0
    5.9438    1.9240   18.5245 C   0  0  0  0  0  0  0  0  0  0  0  0
    7.1481    1.3177   18.8779 C   0  0  0  0  0  0  0  0  0  0  0  0
    7.5747    1.4121   20.2081 C   0  0  0  0  0  0  0  0  0  0  0  0
    7.9822    0.6147   17.8312 C   0  0  0  0  0  0  0  0  0  0  0  0
    9.4561    0.4541   18.2255 C   0  0  0  0  0  0  0  0  0  0  0  0
   10.1713    1.6255   17.5457 C   0  0  0  0  0  0  0  0  0  0  0  0
    9.1409    2.2534   16.5953 C   0  0  0  0  0  0  0  0  0  0  0  0
    7.9974    1.3361   16.5485 N   0  0  0  0  0  0  0  0  0  0  0  0
    7.1306    1.8604   16.4296 H   0  0  0  0  0  0  0  0  0  0  0  0
    3.1130    6.3100   22.8731 N   0  0  0  0  0  0  0  0  0  0  0  0
    2.1358    6.0249   22.8072 H   0  0  0  0  0  0  0  0  0  0  0  0
    3.1461    7.5711   23.8874 S   0  0  0  0  0  0  0  0  0  0  0  0
    1.9063    8.2095   23.6029 O   0  0  0  0  0  0  0  0  0  0  0  0
    3.4526    7.1737   25.2317 O   0  0  0  0  0  0  0  0  0  0  0  0
    4.3974    8.7063   23.3685 C   0  0  0  0  0  0  0  0  0  0  0  0
    5.6202    8.6384   24.0575 C   0  0  0  0  0  0  0  0  0  0  0  0
    6.6538    9.4933   23.6792 C   0  0  0  0  0  0  0  0  0  0  0  0
    6.4487   10.3991   22.6197 C   0  0  0  0  0  0  0  0  0  0  0  0
    5.2072   10.4595   21.9321 C   0  0  0  0  0  0  0  0  0  0  0  0
    4.1691    9.5785   22.3289 C   0  0  0  0  0  0  0  0  0  0  0  0
    7.4796   11.2598   22.2448 C   0  0  0  0  0  0  0  0  0  0  0  0
    7.2751   12.1458   21.1931 C   0  0  0  0  0  0  0  0  0  0  0  0
    8.6121   13.1730   20.7890 Cl  0  0  0  0  0  0  0  0  0  0  0  0
    6.0495   12.2156   20.4999 C   0  0  0  0  0  0  0  0  0  0  0  0
    5.0267   11.3767   20.8632 C   0  0  0  0  0  0  0  0  0  0  0  0
  7  8  1  0  0  0
  8  9  1  0  0  0
  8 13  2  0  0  0
  9 10  2  0  0  0
  9  1  1  0  0  0
 10 11  1  0  0  0
 11 12  2  0  0  0
 12 14  1  0  0  0
 12 13  1  0  0  0
 14 15  1  0  0  0
 14 18  1  0  0  0
 15 16  1  0  0  0
 16 17  1  0  0  0
 17 18  1  0  0  0
  1  2  1  0  0  0
  1  6  1  0  0  0
  2  3  2  0  0  0
  2  4  1  0  0  0
  4  5  1  0  0  0
  4 20  1  0  0  0
  5  6  1  0  0  0
 20 22  1  0  0  0
 22 23  2  0  0  0
 22 24  2  0  0  0
 22 25  1  0  0  0
 25 26  1  0  0  0
 25 30  2  0  0  0
 26 27  2  0  0  0
 27 28  1  0  0  0
 28 29  2  0  0  0
 28 31  1  0  0  0
 29 30  1  0  0  0
 29 35  1  0  0  0
 31 32  2  0  0  0
 32 33  1  0  0  0
 32 34  1  0  0  0
 34 35  2  0  0  0
 18 19  1  0  0  0
 20 21  1  0  0  0
M  END
> <minimizedAffinity>
-8.82360

$$$$
2Y82_930_A_1245


 35 39  0  0  0  0  0  0  0  0999 V2000
    3.9957    5.4546   22.5718 N   0  0  0  0  0  0  0  0  0  0  0  0
    4.7577    6.3607   23.2379 C   0  0  0  0  0  0  0  0  0  0  0  0
    5.4145    6.1557   24.2470 O   0  0  0  0  0  0  0  0  0  0  0  0
    4.6590    7.7123   22.5191 C   0  0  0  0  0  0  0  0  0  0  0  0
    4.1745    7.3125   21.1354 C   0  0  0  0  0  0  0  0  0  0  0  0
    3.4254    6.0028   21.3479 C   0  0  0  0  0  0  0  0  0  0  0  0
    2.0911    4.7339   24.5947 F   0  0  0  0  0  0  0  0  0  0  0  0
    2.8190    3.7859   24.0087 C   0  0  0  0  0  0  0  0  0  0  0  0
    3.7544    4.1146   23.0224 C   0  0  0  0  0  0  0  0  0  0  0  0
    4.4706    3.0550   22.4445 C   0  0  0  0  0  0  0  0  0  0  0  0
    4.2524    1.7412   22.8588 C   0  0  0  0  0  0  0  0  0  0  0  0
    3.3156    1.4372   23.8452 C   0  0  0  0  0  0  0  0  0  0  0  0
    2.5977    2.4890   24.4269 C   0  0  0  0  0  0  0  0  0  0  0  0
    3.1202    0.0069   24.2943 C   0  0  0  0  0  0  0  0  0  0  0  0
    3.3774   -1.0253   23.1887 C   0  0  0  0  0  0  0  0  0  0  0  0
    1.9895   -1.3503   22.6286 C   0  0  0  0  0  0  0  0  0  0  0  0
    0.9843   -0.6974   23.5891 C   0  0  0  0  0  0  0  0  0  0  0  0
    1.7483   -0.2526   24.7595 N   0  0  0  0  0  0  0  0  0  0  0  0
    1.3398    0.5997   25.1429 H   0  0  0  0  0  0  0  0  0  0  0  0
    5.9406    8.4047   22.4980 N   0  0  0  0  0  0  0  0  0  0  0  0
    5.9725    8.9151   21.6155 H   0  0  0  0  0  0  0  0  0  0  0  0
    6.3767    9.4612   23.6444 S   0  0  0  0  0  0  0  0  0  0  0  0
    6.5341   10.6604   22.8942 O   0  0  0  0  0  0  0  0  0  0  0  0
    5.4858    9.4345   24.7691 O   0  0  0  0  0  0  0  0  0  0  0  0
    7.9918    9.0515   24.2337 C   0  0  0  0  0  0  0  0  0  0  0  0
    9.0689    9.4880   23.4440 C   0  0  0  0  0  0  0  0  0  0  0  0
   10.3680    9.2146   23.8680 C   0  0  0  0  0  0  0  0  0  0  0  0
   10.5684    8.5118   25.0726 C   0  0  0  0  0  0  0  0  0  0  0  0
    9.4711    8.0740   25.8613 C   0  0  0  0  0  0  0  0  0  0  0  0
    8.1568    8.3657   25.4153 C   0  0  0  0  0  0  0  0  0  0  0  0
   11.8675    8.2314   25.4944 C   0  0  0  0  0  0  0  0  0  0  0  0
   12.0600    7.5452   26.6881 C   0  0  0  0  0  0  0  0  0  0  0  0
   13.7069    7.2463   27.1400 Cl  0  0  0  0  0  0  0  0  0  0  0  0
   10.9811    7.1066   27.4825 C   0  0  0  0  0  0  0  0  0  0  0  0
    9.6985    7.3729   27.0749 C   0  0  0  0  0  0  0  0  0  0  0  0
  7  8  1  0  0  0
  8  9  1  0  0  0
  8 13  2  0  0  0
  9 10  2  0  0  0
  9  1  1  0  0  0
 10 11  1  0  0  0
 11 12  2  0  0  0
 12 14  1  0  0  0
 12 13  1  0  0  0
 14 15  1  0  0  0
 14 18  1  0  0  0
 15 16  1  0  0  0
 16 17  1  0  0  0
 17 18  1  0  0  0
  1  2  1  0  0  0
  1  6  1  0  0  0
  2  3  2  0  0  0
  2  4  1  0  0  0
  4  5  1  0  0  0
  4 20  1  0  0  0
  5  6  1  0  0  0
 20 22  1  0  0  0
 22 23  2  0  0  0
 22 24  2  0  0  0
 22 25  1  0  0  0
 25 26  1  0  0  0
 25 30  2  0  0  0
 26 27  2  0  0  0
 27 28  1  0  0  0
 28 29  2  0  0  0
 28 31  1  0  0  0
 29 30  1  0  0  0
 29 35  1  0  0  0
 31 32  2  0  0  0
 32 33  1  0  0  0
 32 34  1  0  0  0
 34 35  2  0  0  0
 18 19  1  0  0  0
 20 21  1  0  0  0
M  END
> <minimizedAffinity>
-8.79781

$$$$
2Y82_930_A_1245


 35 39  0  0  0  0  0  0  0  0999 V2000
    7.0666    6.7546   19.6522 N   0  0  0  0  0  0  0  0  0  0  0  0
    7.5156    7.4226   20.7465 C   0  0  0  0  0  0  0  0  0  0  0  0
    8.1507    6.9497   21.6764 O   0  0  0  0  0  0  0  0  0  0  0  0
    7.0870    8.8916   20.6386 C   0  0  0  0  0  0  0  0  0  0  0  0
    6.8024    9.0412   19.1535 C   0  0  0  0  0  0  0  0  0  0  0  0
    6.4314    7.6398   18.6844 C   0  0  0  0  0  0  0  0  0  0  0  0
    4.8611    4.9197   19.7413 F   0  0  0  0  0  0  0  0  0  0  0  0
    6.0898    4.4610   19.5134 C   0  0  0  0  0  0  0  0  0  0  0  0
    7.1793    5.3368   19.4681 C   0  0  0  0  0  0  0  0  0  0  0  0
    8.4387    4.7747   19.2087 C   0  0  0  0  0  0  0  0  0  0  0  0
    8.5773    3.3997   19.0196 C   0  0  0  0  0  0  0  0  0  0  0  0
    7.4770    2.5454   19.0708 C   0  0  0  0  0  0  0  0  0  0  0  0
    6.2173    3.0988   19.3298 C   0  0  0  0  0  0  0  0  0  0  0  0
    7.6610    1.0558   18.8900 C   0  0  0  0  0  0  0  0  0  0  0  0
    9.1306    0.6240   18.8022 C   0  0  0  0  0  0  0  0  0  0  0  0
    9.4161    0.5161   17.3013 C   0  0  0  0  0  0  0  0  0  0  0  0
    8.0531    0.6379   16.6037 C   0  0  0  0  0  0  0  0  0  0  0  0
    7.0334    0.5588   17.6551 N   0  0  0  0  0  0  0  0  0  0  0  0
    6.2306    1.1385   17.4106 H   0  0  0  0  0  0  0  0  0  0  0  0
    8.1289    9.7918   21.1146 N   0  0  0  0  0  0  0  0  0  0  0  0
    8.1618   10.5641   20.4491 H   0  0  0  0  0  0  0  0  0  0  0  0
    8.0891   10.4669   22.5854 S   0  0  0  0  0  0  0  0  0  0  0  0
    9.1927    9.8378   23.2272 O   0  0  0  0  0  0  0  0  0  0  0  0
    8.0229   11.8988   22.5196 O   0  0  0  0  0  0  0  0  0  0  0  0
    6.6521    9.9057   23.4478 C   0  0  0  0  0  0  0  0  0  0  0  0
    6.8816    9.1977   24.6397 C   0  0  0  0  0  0  0  0  0  0  0  0
    5.7873    8.7485   25.3765 C   0  0  0  0  0  0  0  0  0  0  0  0
    4.4844    9.0150   24.9112 C   0  0  0  0  0  0  0  0  0  0  0  0
    4.2654    9.7303   23.7037 C   0  0  0  0  0  0  0  0  0  0  0  0
    5.3917   10.1829   22.9702 C   0  0  0  0  0  0  0  0  0  0  0  0
    3.3887    8.5601   25.6438 C   0  0  0  0  0  0  0  0  0  0  0  0
    2.1051    8.8331   25.1849 C   0  0  0  0  0  0  0  0  0  0  0  0
    0.8022    8.2373   26.1614 Cl  0  0  0  0  0  0  0  0  0  0  0  0
    1.8721    9.5437   23.9898 C   0  0  0  0  0  0  0  0  0  0  0  0
    2.9427    9.9921   23.2585 C   0  0  0  0  0  0  0  0  0  0  0  0
  7  8  1  0  0  0
  8  9  1  0  0  0
  8 13  2  0  0  0
  9 10  2  0  0  0
  9  1  1  0  0  0
 10 11  1  0  0  0
 11 12  2  0  0  0
 12 14  1  0  0  0
 12 13  1  0  0  0
 14 15  1  0  0  0
 14 18  1  0  0  0
 15 16  1  0  0  0
 16 17  1  0  0  0
 17 18  1  0  0  0
  1  2  1  0  0  0
  1  6  1  0  0  0
  2  3  2  0  0  0
  2  4  1  0  0  0
  4  5  1  0  0  0
  4 20  1  0  0  0
  5  6  1  0  0  0
 20 22  1  0  0  0
 22 23  2  0  0  0
 22 24  2  0  0  0
 22 25  1  0  0  0
 25 26  1  0  0  0
 25 30  2  0  0  0
 26 27  2  0  0  0
 27 28  1  0  0  0
 28 29  2  0  0  0
 28 31  1  0  0  0
 29 30  1  0  0  0
 29 35  1  0  0  0
 31 32  2  0  0  0
 32 33  1  0  0  0
 32 34  1  0  0  0
 34 35  2  0  0  0
 18 19  1  0  0  0
 20 21  1  0  0  0
M  END
> <minimizedAffinity>
-8.76427

$$$$
