4MC9_23L_A_101


 39 42  0  0  0  0  0  0  0  0999 V2000
   10.6724   22.9694    4.6359 C   0  0  0  0  0  0  0  0  0  0  0  0
    9.7577   22.1556    3.9272 O   0  0  0  0  0  0  0  0  0  0  0  0
    9.2611   21.6062    4.5536 H   0  0  0  0  0  0  0  0  0  0  0  0
   11.7063   22.0965    5.3229 C   0  0  0  0  0  0  0  0  0  0  0  0
   15.4675   21.9612    8.9011 C   0  0  0  0  0  0  0  0  0  0  0  0
   16.0102   20.7307    8.6215 C   0  0  0  0  0  0  0  0  0  0  0  0
   16.0192   20.2146    7.3431 C   0  0  0  0  0  0  0  0  0  0  0  0
   15.4334   20.9009    6.2958 C   0  0  0  0  0  0  0  0  0  0  0  0
   14.8970   22.1381    6.5957 C   0  0  0  0  0  0  0  0  0  0  0  0
   14.9212   22.6784    7.8643 C   0  0  0  0  0  0  0  0  0  0  0  0
   16.5454   20.0370    9.6343 F   0  0  0  0  0  0  0  0  0  0  0  0
   15.4482   20.2939    4.9184 C   0  0  0  0  0  0  0  0  0  0  0  0
   14.1857   23.1376    5.3171 S   0  0  0  0  0  0  0  0  0  0  0  0
   12.9899   22.1944    4.6154 N   0  0  0  0  0  0  0  0  0  0  0  0
   13.5649   24.2981    5.8948 O   0  0  0  0  0  0  0  0  0  0  0  0
   15.1944   23.3367    4.2970 O   0  0  0  0  0  0  0  0  0  0  0  0
   13.4253   21.1282    3.6966 C   0  0  0  0  0  0  0  0  0  0  0  0
   14.0823   19.9298    4.3659 C   0  0  0  0  0  0  0  0  0  0  0  0
   14.1775   18.8565    3.2902 C   0  0  0  0  0  0  0  0  0  0  0  0
   14.8792   19.2379    2.0082 C   0  0  0  0  0  0  0  0  0  0  0  0
   14.9312   17.6829    3.8505 C   0  0  0  0  0  0  0  0  0  0  0  0
    9.9060   23.9422    5.5236 C   0  0  0  0  0  0  0  0  0  0  0  0
    8.6199   24.1833    4.9009 N   0  0  0  0  0  0  0  0  0  0  0  0
    8.1391   25.4388    4.6198 C   0  0  0  0  0  0  0  0  0  0  0  0
    8.7093   26.5015    4.8268 O   0  0  0  0  0  0  0  0  0  0  0  0
    8.0617   23.4067    4.6673 H   0  0  0  0  0  0  0  0  0  0  0  0
    6.8942   25.2836    4.0636 O   0  0  0  0  0  0  0  0  0  0  0  0
    6.6635   24.0584    3.3722 C   0  0  0  0  0  0  0  0  0  0  0  0
    6.8876   24.3821    1.9212 C   0  0  0  0  0  0  0  0  0  0  0  0
    5.6110   24.7577    1.4247 O   0  0  0  0  0  0  0  0  0  0  0  0
    4.6770   23.8942    2.0434 C   0  0  0  0  0  0  0  0  0  0  0  0
    5.1922   23.7273    3.4505 C   0  0  0  0  0  0  0  0  0  0  0  0
    9.7382   23.5055    6.9756 C   0  0  0  0  0  0  0  0  0  0  0  0
    9.7696   24.6874    7.8772 C   0  0  0  0  0  0  0  0  0  0  0  0
   10.9734   25.2299    8.2928 C   0  0  0  0  0  0  0  0  0  0  0  0
   10.9783   26.3458    9.1026 C   0  0  0  0  0  0  0  0  0  0  0  0
    9.7896   26.9274    9.4779 C   0  0  0  0  0  0  0  0  0  0  0  0
    8.5906   26.3833    9.0755 C   0  0  0  0  0  0  0  0  0  0  0  0
    8.5725   25.2512    8.2806 C   0  0  0  0  0  0  0  0  0  0  0  0
  5 10  2  0  0  0
  5  6  1  0  0  0
 11  6  1  0  0  0
 38 39  2  0  0  0
 38 37  1  0  0  0
 39 34  1  0  0  0
 10  9  1  0  0  0
 37 36  2  0  0  0
 34 33  1  0  0  0
 34 35  2  0  0  0
 36 35  1  0  0  0
  6  7  2  0  0  0
 33 22  1  0  0  0
 15 13  2  0  0  0
  9 13  1  0  0  0
  9  8  2  0  0  0
  2  1  1  0  0  0
  7  8  1  0  0  0
  4  1  1  0  0  0
  4 14  1  0  0  0
 22  1  1  0  0  0
 22 23  1  0  0  0
 13 14  1  0  0  0
 13 16  2  0  0  0
  8 12  1  0  0  0
 23 24  1  0  0  0
 14 17  1  0  0  0
 24 27  1  0  0  0
 24 25  2  0  0  0
 12 18  1  0  0  0
 17 18  1  0  0  0
 27 28  1  0  0  0
 18 19  1  0  0  0
 28 29  1  0  0  0
 28 32  1  0  0  0
 29 30  1  0  0  0
 19 20  1  0  0  0
 19 21  1  0  0  0
 30 31  1  0  0  0
 32 31  1  0  0  0
  2  3  1  0  0  0
 23 26  1  0  0  0
M  END
> <minimizedAffinity>
-11.03546

$$$$
4MC9_23L_A_101


 39 42  0  0  0  0  0  0  0  0999 V2000
   14.2274   23.2750    5.0142 C   0  0  0  0  0  0  0  0  0  0  0  0
   15.2889   24.0818    4.5418 O   0  0  0  0  0  0  0  0  0  0  0  0
   15.6841   24.5639    5.2850 H   0  0  0  0  0  0  0  0  0  0  0  0
   13.1213   24.1567    5.5638 C   0  0  0  0  0  0  0  0  0  0  0  0
    9.9977   26.6860    8.8523 C   0  0  0  0  0  0  0  0  0  0  0  0
    9.0357   27.1191    7.9726 C   0  0  0  0  0  0  0  0  0  0  0  0
    8.6976   26.3923    6.8509 C   0  0  0  0  0  0  0  0  0  0  0  0
    9.3545   25.2159    6.5419 C   0  0  0  0  0  0  0  0  0  0  0  0
   10.3153   24.7945    7.4406 C   0  0  0  0  0  0  0  0  0  0  0  0
   10.6298   25.4955    8.5858 C   0  0  0  0  0  0  0  0  0  0  0  0
    8.4193   28.2778    8.2386 F   0  0  0  0  0  0  0  0  0  0  0  0
    8.9679   24.4621    5.2976 C   0  0  0  0  0  0  0  0  0  0  0  0
   11.1693   23.2633    7.1835 S   0  0  0  0  0  0  0  0  0  0  0  0
   11.8751   23.3859    5.6673 N   0  0  0  0  0  0  0  0  0  0  0  0
   12.2155   23.1196    8.1585 O   0  0  0  0  0  0  0  0  0  0  0  0
   10.1767   22.2133    7.0839 O   0  0  0  0  0  0  0  0  0  0  0  0
   10.9934   23.2214    4.4984 C   0  0  0  0  0  0  0  0  0  0  0  0
   10.0490   24.3853    4.2353 C   0  0  0  0  0  0  0  0  0  0  0  0
    9.4632   24.1373    2.8520 C   0  0  0  0  0  0  0  0  0  0  0  0
    8.6011   25.2331    2.2714 C   0  0  0  0  0  0  0  0  0  0  0  0
   10.5939   23.9321    1.8832 C   0  0  0  0  0  0  0  0  0  0  0  0
   14.7776   22.2093    5.9541 C   0  0  0  0  0  0  0  0  0  0  0  0
   15.6620   21.3593    5.1828 N   0  0  0  0  0  0  0  0  0  0  0  0
   15.3858   20.0454    4.8930 C   0  0  0  0  0  0  0  0  0  0  0  0
   14.3819   19.4233    5.2133 O   0  0  0  0  0  0  0  0  0  0  0  0
   16.5048   21.7435    4.8490 H   0  0  0  0  0  0  0  0  0  0  0  0
   16.4481   19.5537    4.1768 O   0  0  0  0  0  0  0  0  0  0  0  0
   16.4674   18.1433    3.9703 C   0  0  0  0  0  0  0  0  0  0  0  0
   17.9236   17.7863    3.8580 C   0  0  0  0  0  0  0  0  0  0  0  0
   18.2182   17.8675    2.4710 O   0  0  0  0  0  0  0  0  0  0  0  0
   17.0874   17.3511    1.7962 C   0  0  0  0  0  0  0  0  0  0  0  0
   15.9108   17.8466    2.5982 C   0  0  0  0  0  0  0  0  0  0  0  0
   15.4779   22.7395    7.2015 C   0  0  0  0  0  0  0  0  0  0  0  0
   15.8890   21.6134    8.0809 C   0  0  0  0  0  0  0  0  0  0  0  0
   14.9450   20.8710    8.7695 C   0  0  0  0  0  0  0  0  0  0  0  0
   15.3470   19.8106    9.5538 C   0  0  0  0  0  0  0  0  0  0  0  0
   16.6802   19.4818    9.6335 C   0  0  0  0  0  0  0  0  0  0  0  0
   17.6224   20.2254    8.9589 C   0  0  0  0  0  0  0  0  0  0  0  0
   17.2333   21.3049    8.1860 C   0  0  0  0  0  0  0  0  0  0  0  0
  5 10  2  0  0  0
  5  6  1  0  0  0
 11  6  1  0  0  0
 38 39  2  0  0  0
 38 37  1  0  0  0
 39 34  1  0  0  0
 10  9  1  0  0  0
 37 36  2  0  0  0
 34 33  1  0  0  0
 34 35  2  0  0  0
 36 35  1  0  0  0
  6  7  2  0  0  0
 33 22  1  0  0  0
 15 13  2  0  0  0
  9 13  1  0  0  0
  9  8  2  0  0  0
  2  1  1  0  0  0
  7  8  1  0  0  0
  4  1  1  0  0  0
  4 14  1  0  0  0
 22  1  1  0  0  0
 22 23  1  0  0  0
 13 14  1  0  0  0
 13 16  2  0  0  0
  8 12  1  0  0  0
 23 24  1  0  0  0
 14 17  1  0  0  0
 24 27  1  0  0  0
 24 25  2  0  0  0
 12 18  1  0  0  0
 17 18  1  0  0  0
 27 28  1  0  0  0
 18 19  1  0  0  0
 28 29  1  0  0  0
 28 32  1  0  0  0
 29 30  1  0  0  0
 19 20  1  0  0  0
 19 21  1  0  0  0
 30 31  1  0  0  0
 32 31  1  0  0  0
  2  3  1  0  0  0
 23 26  1  0  0  0
M  END
> <minimizedAffinity>
-10.81077

$$$$
4MC9_23L_A_101


 39 42  0  0  0  0  0  0  0  0999 V2000
   14.3689   22.3143    4.2481 C   0  0  0  0  0  0  0  0  0  0  0  0
   15.4701   23.1418    3.9260 O   0  0  0  0  0  0  0  0  0  0  0  0
   16.0793   23.1774    4.6801 H   0  0  0  0  0  0  0  0  0  0  0  0
   13.5776   22.9365    5.3837 C   0  0  0  0  0  0  0  0  0  0  0  0
   10.7030   25.7242    8.6904 C   0  0  0  0  0  0  0  0  0  0  0  0
    9.7631   26.2203    7.8202 C   0  0  0  0  0  0  0  0  0  0  0  0
    9.3543   25.5106    6.7111 C   0  0  0  0  0  0  0  0  0  0  0  0
    9.9163   24.2852    6.4050 C   0  0  0  0  0  0  0  0  0  0  0  0
   10.8562   23.8011    7.2940 C   0  0  0  0  0  0  0  0  0  0  0  0
   11.2398   24.4871    8.4272 C   0  0  0  0  0  0  0  0  0  0  0  0
    9.2395   27.4245    8.0829 F   0  0  0  0  0  0  0  0  0  0  0  0
    9.4553   23.5512    5.1743 C   0  0  0  0  0  0  0  0  0  0  0  0
   11.5888   22.2077    7.0406 S   0  0  0  0  0  0  0  0  0  0  0  0
   12.2787   22.2626    5.5132 N   0  0  0  0  0  0  0  0  0  0  0  0
   12.6359   21.9948    8.0019 O   0  0  0  0  0  0  0  0  0  0  0  0
   10.5188   21.2344    6.9662 O   0  0  0  0  0  0  0  0  0  0  0  0
   11.3696   22.1542    4.3589 C   0  0  0  0  0  0  0  0  0  0  0  0
   10.5114   23.3833    4.0973 C   0  0  0  0  0  0  0  0  0  0  0  0
    9.8876   23.1672    2.7253 C   0  0  0  0  0  0  0  0  0  0  0  0
    9.0521   21.9219    2.5458 C   0  0  0  0  0  0  0  0  0  0  0  0
    8.9833   24.3291    2.4224 C   0  0  0  0  0  0  0  0  0  0  0  0
   14.8514   20.8845    4.4593 C   0  0  0  0  0  0  0  0  0  0  0  0
   14.8405   20.6246    5.8848 N   0  0  0  0  0  0  0  0  0  0  0  0
   15.9323   20.1612    6.5775 C   0  0  0  0  0  0  0  0  0  0  0  0
   17.0415   19.9251    6.1178 O   0  0  0  0  0  0  0  0  0  0  0  0
   14.0072   20.7886    6.3827 H   0  0  0  0  0  0  0  0  0  0  0  0
   15.5498   20.0080    7.8865 O   0  0  0  0  0  0  0  0  0  0  0  0
   16.4944   20.4239    8.8698 C   0  0  0  0  0  0  0  0  0  0  0  0
   15.6931   20.5989   10.1298 C   0  0  0  0  0  0  0  0  0  0  0  0
   15.2878   21.9601   10.1241 O   0  0  0  0  0  0  0  0  0  0  0  0
   16.3846   22.6967    9.6190 C   0  0  0  0  0  0  0  0  0  0  0  0
   16.9596   21.8210    8.5346 C   0  0  0  0  0  0  0  0  0  0  0  0
   14.0710   19.8149    3.7016 C   0  0  0  0  0  0  0  0  0  0  0  0
   15.0015   18.9319    2.9499 C   0  0  0  0  0  0  0  0  0  0  0  0
   15.0672   18.9844    1.5681 C   0  0  0  0  0  0  0  0  0  0  0  0
   15.9609   18.1792    0.8941 C   0  0  0  0  0  0  0  0  0  0  0  0
   16.7967   17.3427    1.5966 C   0  0  0  0  0  0  0  0  0  0  0  0
   16.7256   17.2800    2.9701 C   0  0  0  0  0  0  0  0  0  0  0  0
   15.8181   18.0672    3.6562 C   0  0  0  0  0  0  0  0  0  0  0  0
  5 10  2  0  0  0
  5  6  1  0  0  0
 11  6  1  0  0  0
 38 39  2  0  0  0
 38 37  1  0  0  0
 39 34  1  0  0  0
 10  9  1  0  0  0
 37 36  2  0  0  0
 34 33  1  0  0  0
 34 35  2  0  0  0
 36 35  1  0  0  0
  6  7  2  0  0  0
 33 22  1  0  0  0
 15 13  2  0  0  0
  9 13  1  0  0  0
  9  8  2  0  0  0
  2  1  1  0  0  0
  7  8  1  0  0  0
  4  1  1  0  0  0
  4 14  1  0  0  0
 22  1  1  0  0  0
 22 23  1  0  0  0
 13 14  1  0  0  0
 13 16  2  0  0  0
  8 12  1  0  0  0
 23 24  1  0  0  0
 14 17  1  0  0  0
 24 27  1  0  0  0
 24 25  2  0  0  0
 12 18  1  0  0  0
 17 18  1  0  0  0
 27 28  1  0  0  0
 18 19  1  0  0  0
 28 29  1  0  0  0
 28 32  1  0  0  0
 29 30  1  0  0  0
 19 20  1  0  0  0
 19 21  1  0  0  0
 30 31  1  0  0  0
 32 31  1  0  0  0
  2  3  1  0  0  0
 23 26  1  0  0  0
M  END
> <minimizedAffinity>
-10.81062

$$$$
4MC9_23L_A_101


 39 42  0  0  0  0  0  0  0  0999 V2000
   12.9539   24.3286    4.9406 C   0  0  0  0  0  0  0  0  0  0  0  0
   13.4229   25.5057    4.3115 O   0  0  0  0  0  0  0  0  0  0  0  0
   13.4270   25.3786    3.3498 H   0  0  0  0  0  0  0  0  0  0  0  0
   13.9241   23.1906    4.6828 C   0  0  0  0  0  0  0  0  0  0  0  0
   15.8609   18.8150    2.6650 C   0  0  0  0  0  0  0  0  0  0  0  0
   16.9414   18.6351    3.4939 C   0  0  0  0  0  0  0  0  0  0  0  0
   16.9211   19.0402    4.8115 C   0  0  0  0  0  0  0  0  0  0  0  0
   15.8213   19.6921    5.3374 C   0  0  0  0  0  0  0  0  0  0  0  0
   14.7433   19.8598    4.4901 C   0  0  0  0  0  0  0  0  0  0  0  0
   14.7415   19.4204    3.1829 C   0  0  0  0  0  0  0  0  0  0  0  0
   18.0288   18.0409    2.9861 F   0  0  0  0  0  0  0  0  0  0  0  0
   15.8467   20.1349    6.7759 C   0  0  0  0  0  0  0  0  0  0  0  0
   13.2531   20.6168    5.0786 S   0  0  0  0  0  0  0  0  0  0  0  0
   13.7084   22.1202    5.6654 N   0  0  0  0  0  0  0  0  0  0  0  0
   12.3430   20.8157    3.9841 O   0  0  0  0  0  0  0  0  0  0  0  0
   12.7926   19.8583    6.2233 O   0  0  0  0  0  0  0  0  0  0  0  0
   14.3794   22.1567    6.9766 C   0  0  0  0  0  0  0  0  0  0  0  0
   15.8100   21.6380    6.9826 C   0  0  0  0  0  0  0  0  0  0  0  0
   16.3878   22.0352    8.3341 C   0  0  0  0  0  0  0  0  0  0  0  0
   15.5718   21.6798    9.5543 C   0  0  0  0  0  0  0  0  0  0  0  0
   17.7182   21.3564    8.5039 C   0  0  0  0  0  0  0  0  0  0  0  0
   11.5017   24.0860    4.5481 C   0  0  0  0  0  0  0  0  0  0  0  0
   10.6947   25.0888    5.2135 N   0  0  0  0  0  0  0  0  0  0  0  0
    9.8597   24.8102    6.2679 C   0  0  0  0  0  0  0  0  0  0  0  0
    9.6915   23.7196    6.7968 O   0  0  0  0  0  0  0  0  0  0  0  0
   10.7477   26.0182    4.8932 H   0  0  0  0  0  0  0  0  0  0  0  0
    9.2427   25.9841    6.6207 O   0  0  0  0  0  0  0  0  0  0  0  0
    8.5536   25.9811    7.8686 C   0  0  0  0  0  0  0  0  0  0  0  0
    7.7946   27.2787    7.8972 C   0  0  0  0  0  0  0  0  0  0  0  0
    8.6695   28.2049    8.5249 O   0  0  0  0  0  0  0  0  0  0  0  0
    9.3202   27.4941    9.5603 C   0  0  0  0  0  0  0  0  0  0  0  0
    9.5648   26.1237    8.9811 C   0  0  0  0  0  0  0  0  0  0  0  0
   11.2265   24.0687    3.0477 C   0  0  0  0  0  0  0  0  0  0  0  0
    9.8077   23.7084    2.7871 C   0  0  0  0  0  0  0  0  0  0  0  0
    9.3490   22.4231    3.0190 C   0  0  0  0  0  0  0  0  0  0  0  0
    8.0216   22.1201    2.8011 C   0  0  0  0  0  0  0  0  0  0  0  0
    7.1548   23.0989    2.3739 C   0  0  0  0  0  0  0  0  0  0  0  0
    7.6106   24.3753    2.1314 C   0  0  0  0  0  0  0  0  0  0  0  0
    8.9446   24.6860    2.3258 C   0  0  0  0  0  0  0  0  0  0  0  0
  5 10  2  0  0  0
  5  6  1  0  0  0
 11  6  1  0  0  0
 38 39  2  0  0  0
 38 37  1  0  0  0
 39 34  1  0  0  0
 10  9  1  0  0  0
 37 36  2  0  0  0
 34 33  1  0  0  0
 34 35  2  0  0  0
 36 35  1  0  0  0
  6  7  2  0  0  0
 33 22  1  0  0  0
 15 13  2  0  0  0
  9 13  1  0  0  0
  9  8  2  0  0  0
  2  1  1  0  0  0
  7  8  1  0  0  0
  4  1  1  0  0  0
  4 14  1  0  0  0
 22  1  1  0  0  0
 22 23  1  0  0  0
 13 14  1  0  0  0
 13 16  2  0  0  0
  8 12  1  0  0  0
 23 24  1  0  0  0
 14 17  1  0  0  0
 24 27  1  0  0  0
 24 25  2  0  0  0
 12 18  1  0  0  0
 17 18  1  0  0  0
 27 28  1  0  0  0
 18 19  1  0  0  0
 28 29  1  0  0  0
 28 32  1  0  0  0
 29 30  1  0  0  0
 19 20  1  0  0  0
 19 21  1  0  0  0
 30 31  1  0  0  0
 32 31  1  0  0  0
  2  3  1  0  0  0
 23 26  1  0  0  0
M  END
> <minimizedAffinity>
-10.69735

$$$$
4MC9_23L_A_101


 39 42  0  0  0  0  0  0  0  0999 V2000
   12.5542   24.7195    5.8230 C   0  0  0  0  0  0  0  0  0  0  0  0
   13.0735   25.8628    5.1716 O   0  0  0  0  0  0  0  0  0  0  0  0
   12.6595   25.9538    4.2991 H   0  0  0  0  0  0  0  0  0  0  0  0
   12.9449   23.4716    5.0531 C   0  0  0  0  0  0  0  0  0  0  0  0
   14.5666   19.3528    2.3375 C   0  0  0  0  0  0  0  0  0  0  0  0
   15.6942   19.0317    3.0532 C   0  0  0  0  0  0  0  0  0  0  0  0
   15.7810   19.2563    4.4107 C   0  0  0  0  0  0  0  0  0  0  0  0
   14.7463   19.8632    5.0979 C   0  0  0  0  0  0  0  0  0  0  0  0
   13.6194   20.1746    4.3621 C   0  0  0  0  0  0  0  0  0  0  0  0
   13.5100   19.9152    3.0121 C   0  0  0  0  0  0  0  0  0  0  0  0
   16.7200   18.4799    2.3924 F   0  0  0  0  0  0  0  0  0  0  0  0
   14.8885   20.1074    6.5764 C   0  0  0  0  0  0  0  0  0  0  0  0
   12.2040   20.8884    5.1539 S   0  0  0  0  0  0  0  0  0  0  0  0
   12.7567   22.2853    5.8989 N   0  0  0  0  0  0  0  0  0  0  0  0
   11.2286   21.2591    4.1656 O   0  0  0  0  0  0  0  0  0  0  0  0
   11.7951   19.9965    6.2193 O   0  0  0  0  0  0  0  0  0  0  0  0
   13.5179   22.1256    7.1502 C   0  0  0  0  0  0  0  0  0  0  0  0
   14.9243   21.5695    6.9820 C   0  0  0  0  0  0  0  0  0  0  0  0
   15.6094   21.7643    8.3277 C   0  0  0  0  0  0  0  0  0  0  0  0
   16.1608   23.1401    8.6180 C   0  0  0  0  0  0  0  0  0  0  0  0
   14.6166   21.4693    9.4171 C   0  0  0  0  0  0  0  0  0  0  0  0
   11.0668   24.9168    6.0883 C   0  0  0  0  0  0  0  0  0  0  0  0
   10.3432   24.3530    4.9666 N   0  0  0  0  0  0  0  0  0  0  0  0
    9.2672   24.9680    4.3745 C   0  0  0  0  0  0  0  0  0  0  0  0
    8.7871   26.0513    4.6800 O   0  0  0  0  0  0  0  0  0  0  0  0
   10.6381   23.4839    4.6103 H   0  0  0  0  0  0  0  0  0  0  0  0
    8.8243   24.1402    3.3736 O   0  0  0  0  0  0  0  0  0  0  0  0
    7.6613   23.3690    3.6649 C   0  0  0  0  0  0  0  0  0  0  0  0
    7.5792   22.3551    2.5578 C   0  0  0  0  0  0  0  0  0  0  0  0
    6.7732   22.9630    1.5588 O   0  0  0  0  0  0  0  0  0  0  0  0
    5.7538   23.6629    2.2457 C   0  0  0  0  0  0  0  0  0  0  0  0
    6.4413   24.2351    3.4594 C   0  0  0  0  0  0  0  0  0  0  0  0
   10.5594   24.3469    7.4094 C   0  0  0  0  0  0  0  0  0  0  0  0
    9.9100   25.4134    8.2164 C   0  0  0  0  0  0  0  0  0  0  0  0
   10.6509   26.1922    9.0887 C   0  0  0  0  0  0  0  0  0  0  0  0
   10.0331   27.1970    9.8028 C   0  0  0  0  0  0  0  0  0  0  0  0
    8.6892   27.4351    9.6315 C   0  0  0  0  0  0  0  0  0  0  0  0
    7.9476   26.6547    8.7732 C   0  0  0  0  0  0  0  0  0  0  0  0
    8.5519   25.6297    8.0675 C   0  0  0  0  0  0  0  0  0  0  0  0
  5 10  2  0  0  0
  5  6  1  0  0  0
 11  6  1  0  0  0
 38 39  2  0  0  0
 38 37  1  0  0  0
 39 34  1  0  0  0
 10  9  1  0  0  0
 37 36  2  0  0  0
 34 33  1  0  0  0
 34 35  2  0  0  0
 36 35  1  0  0  0
  6  7  2  0  0  0
 33 22  1  0  0  0
 15 13  2  0  0  0
  9 13  1  0  0  0
  9  8  2  0  0  0
  2  1  1  0  0  0
  7  8  1  0  0  0
  4  1  1  0  0  0
  4 14  1  0  0  0
 22  1  1  0  0  0
 22 23  1  0  0  0
 13 14  1  0  0  0
 13 16  2  0  0  0
  8 12  1  0  0  0
 23 24  1  0  0  0
 14 17  1  0  0  0
 24 27  1  0  0  0
 24 25  2  0  0  0
 12 18  1  0  0  0
 17 18  1  0  0  0
 27 28  1  0  0  0
 18 19  1  0  0  0
 28 29  1  0  0  0
 28 32  1  0  0  0
 29 30  1  0  0  0
 19 20  1  0  0  0
 19 21  1  0  0  0
 30 31  1  0  0  0
 32 31  1  0  0  0
  2  3  1  0  0  0
 23 26  1  0  0  0
M  END
> <minimizedAffinity>
-10.12968

$$$$
4MC9_23L_A_101


 39 42  0  0  0  0  0  0  0  0999 V2000
   14.0760   21.4606    7.1122 C   0  0  0  0  0  0  0  0  0  0  0  0
   14.0986   20.8888    8.4059 O   0  0  0  0  0  0  0  0  0  0  0  0
   13.5674   20.0772    8.4100 H   0  0  0  0  0  0  0  0  0  0  0  0
   12.6628   21.8953    6.7706 C   0  0  0  0  0  0  0  0  0  0  0  0
    9.7666   22.8636    2.5702 C   0  0  0  0  0  0  0  0  0  0  0  0
    8.6709   23.4351    3.1700 C   0  0  0  0  0  0  0  0  0  0  0  0
    8.7804   24.1735    4.3291 C   0  0  0  0  0  0  0  0  0  0  0  0
    9.9999   24.3255    4.9621 C   0  0  0  0  0  0  0  0  0  0  0  0
   11.0904   23.7474    4.3416 C   0  0  0  0  0  0  0  0  0  0  0  0
   10.9944   23.0423    3.1604 C   0  0  0  0  0  0  0  0  0  0  0  0
    7.4768   23.2619    2.5890 F   0  0  0  0  0  0  0  0  0  0  0  0
   10.0732   25.1239    6.2361 C   0  0  0  0  0  0  0  0  0  0  0  0
   12.7138   23.9404    5.0251 S   0  0  0  0  0  0  0  0  0  0  0  0
   12.6194   23.3529    6.5928 N   0  0  0  0  0  0  0  0  0  0  0  0
   13.6492   23.1299    4.2945 O   0  0  0  0  0  0  0  0  0  0  0  0
   12.9807   25.3593    5.1403 O   0  0  0  0  0  0  0  0  0  0  0  0
   11.9707   24.2138    7.5971 C   0  0  0  0  0  0  0  0  0  0  0  0
   10.4586   24.3265    7.4686 C   0  0  0  0  0  0  0  0  0  0  0  0
    9.9844   25.0023    8.7479 C   0  0  0  0  0  0  0  0  0  0  0  0
   10.7047   26.2648    9.1581 C   0  0  0  0  0  0  0  0  0  0  0  0
    8.5379   25.3763    8.5836 C   0  0  0  0  0  0  0  0  0  0  0  0
   14.7537   20.5165    6.1267 C   0  0  0  0  0  0  0  0  0  0  0  0
   15.6678   19.6807    6.8788 N   0  0  0  0  0  0  0  0  0  0  0  0
   16.7718   20.1674    7.5352 C   0  0  0  0  0  0  0  0  0  0  0  0
   17.1265   21.3368    7.5978 O   0  0  0  0  0  0  0  0  0  0  0  0
   15.4882   18.7136    6.9216 H   0  0  0  0  0  0  0  0  0  0  0  0
   17.4100   19.0966    8.1091 O   0  0  0  0  0  0  0  0  0  0  0  0
   17.3990   19.0487    9.5338 C   0  0  0  0  0  0  0  0  0  0  0  0
   18.3616   17.9513    9.8938 C   0  0  0  0  0  0  0  0  0  0  0  0
   17.5689   16.7755    9.9729 O   0  0  0  0  0  0  0  0  0  0  0  0
   16.3466   17.1627   10.5702 C   0  0  0  0  0  0  0  0  0  0  0  0
   16.0585   18.5245    9.9909 C   0  0  0  0  0  0  0  0  0  0  0  0
   13.8082   19.6700    5.2801 C   0  0  0  0  0  0  0  0  0  0  0  0
   14.4900   19.2205    4.0376 C   0  0  0  0  0  0  0  0  0  0  0  0
   15.2907   18.0913    4.0375 C   0  0  0  0  0  0  0  0  0  0  0  0
   15.8868   17.6748    2.8660 C   0  0  0  0  0  0  0  0  0  0  0  0
   15.6684   18.3697    1.6993 C   0  0  0  0  0  0  0  0  0  0  0  0
   14.8818   19.4998    1.6987 C   0  0  0  0  0  0  0  0  0  0  0  0
   14.2958   19.9398    2.8721 C   0  0  0  0  0  0  0  0  0  0  0  0
  5 10  2  0  0  0
  5  6  1  0  0  0
 11  6  1  0  0  0
 38 39  2  0  0  0
 38 37  1  0  0  0
 39 34  1  0  0  0
 10  9  1  0  0  0
 37 36  2  0  0  0
 34 33  1  0  0  0
 34 35  2  0  0  0
 36 35  1  0  0  0
  6  7  2  0  0  0
 33 22  1  0  0  0
 15 13  2  0  0  0
  9 13  1  0  0  0
  9  8  2  0  0  0
  2  1  1  0  0  0
  7  8  1  0  0  0
  4  1  1  0  0  0
  4 14  1  0  0  0
 22  1  1  0  0  0
 22 23  1  0  0  0
 13 14  1  0  0  0
 13 16  2  0  0  0
  8 12  1  0  0  0
 23 24  1  0  0  0
 14 17  1  0  0  0
 24 27  1  0  0  0
 24 25  2  0  0  0
 12 18  1  0  0  0
 17 18  1  0  0  0
 27 28  1  0  0  0
 18 19  1  0  0  0
 28 29  1  0  0  0
 28 32  1  0  0  0
 29 30  1  0  0  0
 19 20  1  0  0  0
 19 21  1  0  0  0
 30 31  1  0  0  0
 32 31  1  0  0  0
  2  3  1  0  0  0
 23 26  1  0  0  0
M  END
> <minimizedAffinity>
-9.98379

$$$$
4MC9_23L_A_101


 39 42  0  0  0  0  0  0  0  0999 V2000
   14.7273   21.2152    6.8529 C   0  0  0  0  0  0  0  0  0  0  0  0
   14.9775   20.7309    8.1582 O   0  0  0  0  0  0  0  0  0  0  0  0
   14.4957   19.8999    8.2927 H   0  0  0  0  0  0  0  0  0  0  0  0
   13.2580   21.5673    6.7119 C   0  0  0  0  0  0  0  0  0  0  0  0
   10.0887   22.0604    2.6276 C   0  0  0  0  0  0  0  0  0  0  0  0
    8.9927   22.6080    3.2486 C   0  0  0  0  0  0  0  0  0  0  0  0
    9.1168   23.4327    4.3464 C   0  0  0  0  0  0  0  0  0  0  0  0
   10.3562   23.7011    4.8968 C   0  0  0  0  0  0  0  0  0  0  0  0
   11.4464   23.1451    4.2560 C   0  0  0  0  0  0  0  0  0  0  0  0
   11.3324   22.3527    3.1330 C   0  0  0  0  0  0  0  0  0  0  0  0
    7.7827   22.3238    2.7500 F   0  0  0  0  0  0  0  0  0  0  0  0
   10.4467   24.5916    6.1070 C   0  0  0  0  0  0  0  0  0  0  0  0
   13.0884   23.4815    4.8307 S   0  0  0  0  0  0  0  0  0  0  0  0
   13.1141   23.0033    6.4378 N   0  0  0  0  0  0  0  0  0  0  0  0
   14.0328   22.6771    4.1049 O   0  0  0  0  0  0  0  0  0  0  0  0
   13.2717   24.9183    4.8334 O   0  0  0  0  0  0  0  0  0  0  0  0
   12.4668   23.8944    7.4163 C   0  0  0  0  0  0  0  0  0  0  0  0
   10.9459   23.9085    7.3671 C   0  0  0  0  0  0  0  0  0  0  0  0
   10.4987   24.6452    8.6222 C   0  0  0  0  0  0  0  0  0  0  0  0
   11.1362   25.9887    8.8867 C   0  0  0  0  0  0  0  0  0  0  0  0
    9.0187   24.8914    8.5309 C   0  0  0  0  0  0  0  0  0  0  0  0
   15.2933   20.2376    5.8303 C   0  0  0  0  0  0  0  0  0  0  0  0
   16.2921   19.4307    6.5018 N   0  0  0  0  0  0  0  0  0  0  0  0
   17.5875   19.3095    6.0617 C   0  0  0  0  0  0  0  0  0  0  0  0
   18.0804   19.8580    5.0851 O   0  0  0  0  0  0  0  0  0  0  0  0
   16.0284   18.9439    7.3160 H   0  0  0  0  0  0  0  0  0  0  0  0
   18.2316   18.4543    6.9201 O   0  0  0  0  0  0  0  0  0  0  0  0
   17.9546   17.0664    6.7492 C   0  0  0  0  0  0  0  0  0  0  0  0
   18.7910   16.3718    7.7878 C   0  0  0  0  0  0  0  0  0  0  0  0
   20.0193   16.0787    7.1378 O   0  0  0  0  0  0  0  0  0  0  0  0
   19.6862   15.6985    5.8167 C   0  0  0  0  0  0  0  0  0  0  0  0
   18.5480   16.6116    5.4371 C   0  0  0  0  0  0  0  0  0  0  0  0
   14.2620   19.3599    5.1278 C   0  0  0  0  0  0  0  0  0  0  0  0
   14.7645   18.9404    3.7929 C   0  0  0  0  0  0  0  0  0  0  0  0
   14.5039   19.7015    2.6664 C   0  0  0  0  0  0  0  0  0  0  0  0
   15.0076   19.3100    1.4440 C   0  0  0  0  0  0  0  0  0  0  0  0
   15.7828   18.1776    1.3513 C   0  0  0  0  0  0  0  0  0  0  0  0
   16.0340   17.4123    2.4680 C   0  0  0  0  0  0  0  0  0  0  0  0
   15.5162   17.7832    3.6960 C   0  0  0  0  0  0  0  0  0  0  0  0
  5 10  2  0  0  0
  5  6  1  0  0  0
 11  6  1  0  0  0
 38 39  2  0  0  0
 38 37  1  0  0  0
 39 34  1  0  0  0
 10  9  1  0  0  0
 37 36  2  0  0  0
 34 33  1  0  0  0
 34 35  2  0  0  0
 36 35  1  0  0  0
  6  7  2  0  0  0
 33 22  1  0  0  0
 15 13  2  0  0  0
  9 13  1  0  0  0
  9  8  2  0  0  0
  2  1  1  0  0  0
  7  8  1  0  0  0
  4  1  1  0  0  0
  4 14  1  0  0  0
 22  1  1  0  0  0
 22 23  1  0  0  0
 13 14  1  0  0  0
 13 16  2  0  0  0
  8 12  1  0  0  0
 23 24  1  0  0  0
 14 17  1  0  0  0
 24 27  1  0  0  0
 24 25  2  0  0  0
 12 18  1  0  0  0
 17 18  1  0  0  0
 27 28  1  0  0  0
 18 19  1  0  0  0
 28 29  1  0  0  0
 28 32  1  0  0  0
 29 30  1  0  0  0
 19 20  1  0  0  0
 19 21  1  0  0  0
 30 31  1  0  0  0
 32 31  1  0  0  0
  2  3  1  0  0  0
 23 26  1  0  0  0
M  END
> <minimizedAffinity>
-9.96803

$$$$
4MC9_23L_A_101


 39 42  0  0  0  0  0  0  0  0999 V2000
   15.1250   22.6292    7.2270 C   0  0  0  0  0  0  0  0  0  0  0  0
   15.8136   23.4757    8.1272 O   0  0  0  0  0  0  0  0  0  0  0  0
   15.6487   23.1826    9.0370 H   0  0  0  0  0  0  0  0  0  0  0  0
   13.6287   22.7701    7.4368 C   0  0  0  0  0  0  0  0  0  0  0  0
   11.1554   21.5660    3.0321 C   0  0  0  0  0  0  0  0  0  0  0  0
    9.8674   21.8732    3.3972 C   0  0  0  0  0  0  0  0  0  0  0  0
    9.5880   22.8834    4.2929 C   0  0  0  0  0  0  0  0  0  0  0  0
   10.6052   23.5971    4.8987 C   0  0  0  0  0  0  0  0  0  0  0  0
   11.8931   23.2767    4.5155 C   0  0  0  0  0  0  0  0  0  0  0  0
   12.1778   22.2953    3.5895 C   0  0  0  0  0  0  0  0  0  0  0  0
    8.8739   21.1626    2.8482 F   0  0  0  0  0  0  0  0  0  0  0  0
   10.2580   24.6797    5.8853 C   0  0  0  0  0  0  0  0  0  0  0  0
   13.2710   24.1763    5.1727 S   0  0  0  0  0  0  0  0  0  0  0  0
   13.1582   24.0268    6.8390 N   0  0  0  0  0  0  0  0  0  0  0  0
   14.4998   23.5647    4.7464 O   0  0  0  0  0  0  0  0  0  0  0  0
   13.0659   25.5795    4.8777 O   0  0  0  0  0  0  0  0  0  0  0  0
   12.1475   24.8525    7.5227 C   0  0  0  0  0  0  0  0  0  0  0  0
   10.7061   24.4129    7.3106 C   0  0  0  0  0  0  0  0  0  0  0  0
    9.8810   25.2023    8.3178 C   0  0  0  0  0  0  0  0  0  0  0  0
   10.6120   26.2477    9.1264 C   0  0  0  0  0  0  0  0  0  0  0  0
    8.7901   25.9265    7.5797 C   0  0  0  0  0  0  0  0  0  0  0  0
   15.6944   21.2188    7.3179 C   0  0  0  0  0  0  0  0  0  0  0  0
   15.9845   20.7757    5.9691 N   0  0  0  0  0  0  0  0  0  0  0  0
   15.0739   20.1218    5.1756 C   0  0  0  0  0  0  0  0  0  0  0  0
   13.9192   19.8420    5.4684 O   0  0  0  0  0  0  0  0  0  0  0  0
   16.8809   20.9526    5.6025 H   0  0  0  0  0  0  0  0  0  0  0  0
   15.6994   19.8352    3.9882 O   0  0  0  0  0  0  0  0  0  0  0  0
   15.9346   18.4552    3.7192 C   0  0  0  0  0  0  0  0  0  0  0  0
   17.4283   18.3304    3.6019 C   0  0  0  0  0  0  0  0  0  0  0  0
   17.7077   18.5183    2.2221 O   0  0  0  0  0  0  0  0  0  0  0  0
   16.6696   17.8661    1.5166 C   0  0  0  0  0  0  0  0  0  0  0  0
   15.4306   18.1391    2.3311 C   0  0  0  0  0  0  0  0  0  0  0  0
   16.9158   21.0662    8.2191 C   0  0  0  0  0  0  0  0  0  0  0  0
   16.8627   19.7702    8.9458 C   0  0  0  0  0  0  0  0  0  0  0  0
   17.9560   18.9212    8.9614 C   0  0  0  0  0  0  0  0  0  0  0  0
   17.8951   17.7394    9.6690 C   0  0  0  0  0  0  0  0  0  0  0  0
   16.7577   17.4177   10.3723 C   0  0  0  0  0  0  0  0  0  0  0  0
   15.6647   18.2547   10.3493 C   0  0  0  0  0  0  0  0  0  0  0  0
   15.7061   19.4329    9.6254 C   0  0  0  0  0  0  0  0  0  0  0  0
  5 10  2  0  0  0
  5  6  1  0  0  0
 11  6  1  0  0  0
 38 39  2  0  0  0
 38 37  1  0  0  0
 39 34  1  0  0  0
 10  9  1  0  0  0
 37 36  2  0  0  0
 34 33  1  0  0  0
 34 35  2  0  0  0
 36 35  1  0  0  0
  6  7  2  0  0  0
 33 22  1  0  0  0
 15 13  2  0  0  0
  9 13  1  0  0  0
  9  8  2  0  0  0
  2  1  1  0  0  0
  7  8  1  0  0  0
  4  1  1  0  0  0
  4 14  1  0  0  0
 22  1  1  0  0  0
 22 23  1  0  0  0
 13 14  1  0  0  0
 13 16  2  0  0  0
  8 12  1  0  0  0
 23 24  1  0  0  0
 14 17  1  0  0  0
 24 27  1  0  0  0
 24 25  2  0  0  0
 12 18  1  0  0  0
 17 18  1  0  0  0
 27 28  1  0  0  0
 18 19  1  0  0  0
 28 29  1  0  0  0
 28 32  1  0  0  0
 29 30  1  0  0  0
 19 20  1  0  0  0
 19 21  1  0  0  0
 30 31  1  0  0  0
 32 31  1  0  0  0
  2  3  1  0  0  0
 23 26  1  0  0  0
M  END
> <minimizedAffinity>
-9.93505

$$$$
4MC9_23L_A_101


 39 42  0  0  0  0  0  0  0  0999 V2000
   15.1678   21.5227    6.5027 C   0  0  0  0  0  0  0  0  0  0  0  0
   14.6934   20.9511    7.7066 O   0  0  0  0  0  0  0  0  0  0  0  0
   13.8965   20.4288    7.5245 H   0  0  0  0  0  0  0  0  0  0  0  0
   14.1459   22.5092    5.9685 C   0  0  0  0  0  0  0  0  0  0  0  0
   10.7661   25.5196    8.5147 C   0  0  0  0  0  0  0  0  0  0  0  0
   10.0225   25.9813    7.4560 C   0  0  0  0  0  0  0  0  0  0  0  0
    9.8147   25.2178    6.3270 C   0  0  0  0  0  0  0  0  0  0  0  0
   10.3929   23.9688    6.1976 C   0  0  0  0  0  0  0  0  0  0  0  0
   11.1332   23.5201    7.2741 C   0  0  0  0  0  0  0  0  0  0  0  0
   11.3111   24.2616    8.4232 C   0  0  0  0  0  0  0  0  0  0  0  0
    9.4897   27.2062    7.5512 F   0  0  0  0  0  0  0  0  0  0  0  0
   10.1565   23.1751    4.9407 C   0  0  0  0  0  0  0  0  0  0  0  0
   11.8594   21.9040    7.2481 S   0  0  0  0  0  0  0  0  0  0  0  0
   12.8292   21.8637    5.8807 N   0  0  0  0  0  0  0  0  0  0  0  0
   12.6980   21.7283    8.4020 O   0  0  0  0  0  0  0  0  0  0  0  0
   10.7985   20.9448    7.0198 O   0  0  0  0  0  0  0  0  0  0  0  0
   12.1545   21.7057    4.5805 C   0  0  0  0  0  0  0  0  0  0  0  0
   11.3939   22.9316    4.0964 C   0  0  0  0  0  0  0  0  0  0  0  0
   11.0380   22.6497    2.6431 C   0  0  0  0  0  0  0  0  0  0  0  0
    9.8068   21.8111    2.3941 C   0  0  0  0  0  0  0  0  0  0  0  0
   10.8041   23.9601    1.9449 C   0  0  0  0  0  0  0  0  0  0  0  0
   15.6058   20.4157    5.5518 C   0  0  0  0  0  0  0  0  0  0  0  0
   16.5247   19.5576    6.2722 N   0  0  0  0  0  0  0  0  0  0  0  0
   17.8023   19.2896    5.8449 C   0  0  0  0  0  0  0  0  0  0  0  0
   18.3435   19.7324    4.8407 O   0  0  0  0  0  0  0  0  0  0  0  0
   16.2174   19.1451    7.1117 H   0  0  0  0  0  0  0  0  0  0  0  0
   18.3637   18.4277    6.7532 O   0  0  0  0  0  0  0  0  0  0  0  0
   18.0358   17.0492    6.5968 C   0  0  0  0  0  0  0  0  0  0  0  0
   18.8923   16.3290    7.6009 C   0  0  0  0  0  0  0  0  0  0  0  0
   20.0824   15.9964    6.9008 O   0  0  0  0  0  0  0  0  0  0  0  0
   19.6823   15.6262    5.5955 C   0  0  0  0  0  0  0  0  0  0  0  0
   18.5590   16.5749    5.2619 C   0  0  0  0  0  0  0  0  0  0  0  0
   14.4730   19.6051    4.9298 C   0  0  0  0  0  0  0  0  0  0  0  0
   14.8879   19.0688    3.6065 C   0  0  0  0  0  0  0  0  0  0  0  0
   14.6156   19.7664    2.4422 C   0  0  0  0  0  0  0  0  0  0  0  0
   15.0386   19.2656    1.2292 C   0  0  0  0  0  0  0  0  0  0  0  0
   15.7460   18.0869    1.1817 C   0  0  0  0  0  0  0  0  0  0  0  0
   16.0083   17.3851    2.3369 C   0  0  0  0  0  0  0  0  0  0  0  0
   15.5703   17.8666    3.5577 C   0  0  0  0  0  0  0  0  0  0  0  0
  5 10  2  0  0  0
  5  6  1  0  0  0
 11  6  1  0  0  0
 38 39  2  0  0  0
 38 37  1  0  0  0
 39 34  1  0  0  0
 10  9  1  0  0  0
 37 36  2  0  0  0
 34 33  1  0  0  0
 34 35  2  0  0  0
 36 35  1  0  0  0
  6  7  2  0  0  0
 33 22  1  0  0  0
 15 13  2  0  0  0
  9 13  1  0  0  0
  9  8  2  0  0  0
  2  1  1  0  0  0
  7  8  1  0  0  0
  4  1  1  0  0  0
  4 14  1  0  0  0
 22  1  1  0  0  0
 22 23  1  0  0  0
 13 14  1  0  0  0
 13 16  2  0  0  0
  8 12  1  0  0  0
 23 24  1  0  0  0
 14 17  1  0  0  0
 24 27  1  0  0  0
 24 25  2  0  0  0
 12 18  1  0  0  0
 17 18  1  0  0  0
 27 28  1  0  0  0
 18 19  1  0  0  0
 28 29  1  0  0  0
 28 32  1  0  0  0
 29 30  1  0  0  0
 19 20  1  0  0  0
 19 21  1  0  0  0
 30 31  1  0  0  0
 32 31  1  0  0  0
  2  3  1  0  0  0
 23 26  1  0  0  0
M  END
> <minimizedAffinity>
-8.87144

$$$$
4MC9_23L_A_101


 39 42  0  0  0  0  0  0  0  0999 V2000
   11.2195   23.8349    6.9670 C   0  0  0  0  0  0  0  0  0  0  0  0
   12.0078   24.7777    6.2664 O   0  0  0  0  0  0  0  0  0  0  0  0
   12.1172   24.4883    5.3471 H   0  0  0  0  0  0  0  0  0  0  0  0
   11.9542   22.5092    7.0405 C   0  0  0  0  0  0  0  0  0  0  0  0
   15.7754   20.8641   10.1488 C   0  0  0  0  0  0  0  0  0  0  0  0
   16.0905   19.6820    9.5242 C   0  0  0  0  0  0  0  0  0  0  0  0
   15.9620   19.5246    8.1606 C   0  0  0  0  0  0  0  0  0  0  0  0
   15.4603   20.5432    7.3720 C   0  0  0  0  0  0  0  0  0  0  0  0
   15.1533   21.7253    8.0174 C   0  0  0  0  0  0  0  0  0  0  0  0
   15.3182   21.9033    9.3749 C   0  0  0  0  0  0  0  0  0  0  0  0
   16.5398   18.6732   10.2817 F   0  0  0  0  0  0  0  0  0  0  0  0
   15.3182   20.3242    5.8895 C   0  0  0  0  0  0  0  0  0  0  0  0
   14.5720   23.1223    7.0952 S   0  0  0  0  0  0  0  0  0  0  0  0
   13.2072   22.5913    6.2783 N   0  0  0  0  0  0  0  0  0  0  0  0
   14.1797   24.1713    7.9960 O   0  0  0  0  0  0  0  0  0  0  0  0
   15.5591   23.4250    6.0795 O   0  0  0  0  0  0  0  0  0  0  0  0
   13.4195   21.7499    5.0875 C   0  0  0  0  0  0  0  0  0  0  0  0
   13.8898   20.3319    5.3765 C   0  0  0  0  0  0  0  0  0  0  0  0
   13.7597   19.5772    4.0605 C   0  0  0  0  0  0  0  0  0  0  0  0
   14.1728   20.3149    2.8090 C   0  0  0  0  0  0  0  0  0  0  0  0
   14.6198   18.3462    4.1278 C   0  0  0  0  0  0  0  0  0  0  0  0
    9.8168   23.8027    6.3727 C   0  0  0  0  0  0  0  0  0  0  0  0
    8.9281   24.4571    7.3117 N   0  0  0  0  0  0  0  0  0  0  0  0
    9.3495   25.3898    8.2277 C   0  0  0  0  0  0  0  0  0  0  0  0
   10.4908   25.8071    8.3715 O   0  0  0  0  0  0  0  0  0  0  0  0
    7.9726   24.2210    7.2920 H   0  0  0  0  0  0  0  0  0  0  0  0
    8.2515   25.7688    8.9584 O   0  0  0  0  0  0  0  0  0  0  0  0
    7.6955   27.0427    8.6418 C   0  0  0  0  0  0  0  0  0  0  0  0
    6.3348   26.7438    8.0763 C   0  0  0  0  0  0  0  0  0  0  0  0
    6.5351   26.6226    6.6755 O   0  0  0  0  0  0  0  0  0  0  0  0
    7.4824   27.6128    6.3248 C   0  0  0  0  0  0  0  0  0  0  0  0
    8.4563   27.6274    7.4757 C   0  0  0  0  0  0  0  0  0  0  0  0
    9.6853   24.4104    4.9796 C   0  0  0  0  0  0  0  0  0  0  0  0
    9.3813   23.3517    3.9810 C   0  0  0  0  0  0  0  0  0  0  0  0
   10.3131   22.3733    3.6795 C   0  0  0  0  0  0  0  0  0  0  0  0
    9.9971   21.3825    2.7741 C   0  0  0  0  0  0  0  0  0  0  0  0
    8.7522   21.3579    2.1895 C   0  0  0  0  0  0  0  0  0  0  0  0
    7.8275   22.3361    2.4788 C   0  0  0  0  0  0  0  0  0  0  0  0
    8.1406   23.3475    3.3692 C   0  0  0  0  0  0  0  0  0  0  0  0
  5 10  2  0  0  0
  5  6  1  0  0  0
 11  6  1  0  0  0
 38 39  2  0  0  0
 38 37  1  0  0  0
 39 34  1  0  0  0
 10  9  1  0  0  0
 37 36  2  0  0  0
 34 33  1  0  0  0
 34 35  2  0  0  0
 36 35  1  0  0  0
  6  7  2  0  0  0
 33 22  1  0  0  0
 15 13  2  0  0  0
  9 13  1  0  0  0
  9  8  2  0  0  0
  2  1  1  0  0  0
  7  8  1  0  0  0
  4  1  1  0  0  0
  4 14  1  0  0  0
 22  1  1  0  0  0
 22 23  1  0  0  0
 13 14  1  0  0  0
 13 16  2  0  0  0
  8 12  1  0  0  0
 23 24  1  0  0  0
 14 17  1  0  0  0
 24 27  1  0  0  0
 24 25  2  0  0  0
 12 18  1  0  0  0
 17 18  1  0  0  0
 27 28  1  0  0  0
 18 19  1  0  0  0
 28 29  1  0  0  0
 28 32  1  0  0  0
 29 30  1  0  0  0
 19 20  1  0  0  0
 19 21  1  0  0  0
 30 31  1  0  0  0
 32 31  1  0  0  0
  2  3  1  0  0  0
 23 26  1  0  0  0
M  END
> <minimizedAffinity>
-8.33378

$$$$
