6GUC_SU9_A_301
  RCSB PDB12081803553D
Coordinates from PDB:6GUC:A:301 Model:1 without hydrogens
 18 20  0  0  0  0            999 V2000
   -7.2760  -24.9170   25.2830   N 0  0  0  0  0  0  0  0  0  0  0  0
   -6.5780  -25.9210   25.7950   C 0  0  0  0  0  0  0  0  0  0  0  0
   -5.4150  -25.9640   25.1600   N 0  0  0  0  0  0  0  0  0  0  0  0
   -5.3020  -24.8580   24.3610   C 0  0  0  0  0  0  0  0  0  0  0  0
   -6.5170  -24.2220   24.3740   C 0  0  0  0  0  0  0  0  0  0  0  0
   -6.8470  -23.0980   23.6280   C 0  0  0  0  0  0  0  0  0  0  0  0
   -8.1210  -22.5920   23.4260   C 0  0  0  0  0  0  0  0  0  0  0  0
   -9.4320  -22.8910   24.0900   C 0  0  0  0  0  0  0  0  0  0  0  0
   -9.6830  -23.7250   24.9790   O 0  0  0  0  0  0  0  0  0  0  0  0
  -10.3710  -22.1300   23.4580   N 0  0  0  0  0  0  0  0  0  0  0  0
   -9.7940  -21.2890   22.4980   C 0  0  0  0  0  0  0  0  0  0  0  0
  -10.3970  -20.3680   21.6640   C 0  0  0  0  0  0  0  0  0  0  0  0
   -9.5930  -19.7190   20.7280   C 0  0  0  0  0  0  0  0  0  0  0  0
   -8.2260  -19.9560   20.6500   C 0  0  0  0  0  0  0  0  0  0  0  0
   -7.5340  -19.2050   19.7310   O 0  0  0  0  0  0  0  0  0  0  0  0
   -6.1370  -19.4340   19.6050   C 0  0  0  0  0  0  0  0  0  0  0  0
   -7.6310  -20.9010   21.4830   C 0  0  0  0  0  0  0  0  0  0  0  0
   -8.4210  -21.5610   22.4140   C 0  0  0  0  0  0  0  0  0  0  0  0
  1  2  1  0  0  0  0
  1  5  1  0  0  0  0
  2  3  2  0  0  0  0
  3  4  1  0  0  0  0
  4  5  2  0  0  0  0
  5  6  1  0  0  0  0
  6  7  2  0  0  0  0
  7  8  1  0  0  0  0
  7 18  1  0  0  0  0
  8  9  2  0  0  0  0
  8 10  1  0  0  0  0
 10 11  1  0  0  0  0
 11 12  2  0  0  0  0
 11 18  1  0  0  0  0
 12 13  1  0  0  0  0
 13 14  2  0  0  0  0
 14 15  1  0  0  0  0
 14 17  1  0  0  0  0
 15 16  1  0  0  0  0
 17 18  2  0  0  0  0
A    1
N5'
A    2
C4'
A    3
N3'
A    4
C2'
A    5
C1'
A    6
C6'
A    7
C9
A    8
C8
A    9
O10
A   10
N7
A   11
C5
A   12
C6
A   13
C1
A   14
C2
A   15
O11
A   16
C12
A   17
C3
A   18
C4
M  END
>  <InstanceId>
6GUC_SU9_A_301

>  <ChemCompId>
SU9

>  <PdbId>
6GUC

>  <ChainId>
A

>  <ResidueNumber>
301

>  <InsertionCode>


>  <Model>
1

>  <AltIds>


>  <MissingHeavyAtoms>
0

>  <ObservedFormula>
C13 N3 O2

>  <Name>
(3Z)-3-(1H-IMIDAZOL-5-YLMETHYLENE)-5-METHOXY-1H-INDOL-2(3H)-ONE

>  <SystematicName>
(3Z)-3-(3H-imidazol-4-ylmethylidene)-5-methoxy-1H-indol-2-one

>  <Synonyms>
SU9516

>  <Type>
NON-POLYMER

>  <Formula>
C13 H11 N3 O2

>  <MolecularWeight>
241.245

>  <ModifiedDate>
2011-06-04

>  <Parent>


>  <OneLetterCode>


>  <SubcomponentList>


>  <AmbiguousFlag>
N

>  <InChI>
InChI=1S/C13H11N3O2/c1-18-9-2-3-12-10(5-9)11(13(17)16-12)4-8-6-14-7-15-8/h2-7H,1H3,(H,14,15)(H,16,17)/b11-4-

>  <InChIKey>
QNUKRWAIZMBVCU-WCIBSUBMSA-N

>  <SMILES>
COc1ccc2c(c1)/C(=C/c3cnc[nH]3)/C(=O)N2

$$$$
