6GUC_SU9_A_301


 20 22  0  0  0  0  0  0  0  0999 V2000
   -6.8825  -23.2468   23.4555 C   0  0  0  0  0  0  0  0  0  0  0  0
   -8.1541  -22.7027   23.3712 C   0  0  0  0  0  0  0  0  0  0  0  0
   -9.3776  -22.8855   24.2189 C   0  0  0  0  0  0  0  0  0  0  0  0
   -9.5397  -23.6297   25.2032 O   0  0  0  0  0  0  0  0  0  0  0  0
  -10.3640  -22.1388   23.6448 N   0  0  0  0  0  0  0  0  0  0  0  0
   -9.8878  -21.4083   22.5487 C   0  0  0  0  0  0  0  0  0  0  0  0
  -10.5620  -20.5344   21.7185 C   0  0  0  0  0  0  0  0  0  0  0  0
   -9.8642  -20.0032   20.6347 C   0  0  0  0  0  0  0  0  0  0  0  0
   -8.5276  -20.3073   20.4067 C   0  0  0  0  0  0  0  0  0  0  0  0
   -7.8623  -21.2048   21.2391 C   0  0  0  0  0  0  0  0  0  0  0  0
   -8.5472  -21.7480   22.3172 C   0  0  0  0  0  0  0  0  0  0  0  0
  -11.2959  -22.1160   23.9618 H   0  0  0  0  0  0  0  0  0  0  0  0
   -7.1886  -25.4619   24.5654 N   0  0  0  0  0  0  0  0  0  0  0  0
   -6.4717  -26.2257   25.3779 C   0  0  0  0  0  0  0  0  0  0  0  0
   -5.2819  -25.6571   25.5147 N   0  0  0  0  0  0  0  0  0  0  0  0
   -5.3081  -24.4210   24.9266 C   0  0  0  0  0  0  0  0  0  0  0  0
   -6.4972  -24.3179   24.2512 C   0  0  0  0  0  0  0  0  0  0  0  0
   -8.0889  -25.6834   24.2343 H   0  0  0  0  0  0  0  0  0  0  0  0
   -7.9352  -19.6681   19.3447 O   0  0  0  0  0  0  0  0  0  0  0  0
   -6.5153  -19.6617   19.2833 C   0  0  0  0  0  0  0  0  0  0  0  0
 13 14  1  0  0  0
 13 17  1  0  0  0
 14 15  2  0  0  0
 15 16  1  0  0  0
 16 17  2  0  0  0
 17  1  1  0  0  0
  1  2  2  0  0  0
  2  3  1  0  0  0
  2 11  1  0  0  0
  3  4  2  0  0  0
  3  5  1  0  0  0
  5  6  1  0  0  0
  6  7  2  0  0  0
  6 11  1  0  0  0
  7  8  1  0  0  0
  8  9  2  0  0  0
  9 19  1  0  0  0
  9 10  1  0  0  0
 19 20  1  0  0  0
 10 11  2  0  0  0
 13 18  1  0  0  0
  5 12  1  0  0  0
M  END
> <minimizedAffinity>
-8.49005

$$$$
6GUC_SU9_A_301


 20 22  0  0  0  0  0  0  0  0999 V2000
   -7.4083  -22.2974   22.4467 C   0  0  0  0  0  0  0  0  0  0  0  0
   -7.4960  -23.1896   23.5033 C   0  0  0  0  0  0  0  0  0  0  0  0
   -8.6032  -23.4887   24.4696 C   0  0  0  0  0  0  0  0  0  0  0  0
   -9.7206  -22.9493   24.5656 O   0  0  0  0  0  0  0  0  0  0  0  0
   -8.1227  -24.4284   25.3335 N   0  0  0  0  0  0  0  0  0  0  0  0
   -6.8338  -24.8460   24.9783 C   0  0  0  0  0  0  0  0  0  0  0  0
   -6.0176  -25.7809   25.5842 C   0  0  0  0  0  0  0  0  0  0  0  0
   -4.7306  -25.9440   25.0736 C   0  0  0  0  0  0  0  0  0  0  0  0
   -4.2847  -25.2225   23.9729 C   0  0  0  0  0  0  0  0  0  0  0  0
   -5.1093  -24.2682   23.3810 C   0  0  0  0  0  0  0  0  0  0  0  0
   -6.3903  -24.0892   23.8843 C   0  0  0  0  0  0  0  0  0  0  0  0
   -8.6204  -24.7710   26.1107 H   0  0  0  0  0  0  0  0  0  0  0  0
   -9.6147  -21.3154   21.8150 N   0  0  0  0  0  0  0  0  0  0  0  0
  -10.0903  -20.0940   21.6164 C   0  0  0  0  0  0  0  0  0  0  0  0
   -9.1339  -19.2351   21.9408 N   0  0  0  0  0  0  0  0  0  0  0  0
   -7.9748  -19.9254   22.1738 C   0  0  0  0  0  0  0  0  0  0  0  0
   -8.2897  -21.2602   22.1706 C   0  0  0  0  0  0  0  0  0  0  0  0
  -10.1375  -22.1443   21.7208 H   0  0  0  0  0  0  0  0  0  0  0  0
   -3.0208  -25.5223   23.5255 O   0  0  0  0  0  0  0  0  0  0  0  0
   -2.3567  -24.5579   22.7201 C   0  0  0  0  0  0  0  0  0  0  0  0
 13 14  1  0  0  0
 13 17  1  0  0  0
 14 15  2  0  0  0
 15 16  1  0  0  0
 16 17  2  0  0  0
 17  1  1  0  0  0
  1  2  2  0  0  0
  2  3  1  0  0  0
  2 11  1  0  0  0
  3  4  2  0  0  0
  3  5  1  0  0  0
  5  6  1  0  0  0
  6  7  2  0  0  0
  6 11  1  0  0  0
  7  8  1  0  0  0
  8  9  2  0  0  0
  9 19  1  0  0  0
  9 10  1  0  0  0
 19 20  1  0  0  0
 10 11  2  0  0  0
 13 18  1  0  0  0
  5 12  1  0  0  0
M  END
> <minimizedAffinity>
-7.57636

$$$$
6GUC_SU9_A_301


 20 22  0  0  0  0  0  0  0  0999 V2000
   -5.2117  -22.7349   20.7672 C   0  0  0  0  0  0  0  0  0  0  0  0
   -5.9061  -21.5365   20.7281 C   0  0  0  0  0  0  0  0  0  0  0  0
   -5.6651  -20.2661   19.9685 C   0  0  0  0  0  0  0  0  0  0  0  0
   -4.7249  -19.9814   19.2044 O   0  0  0  0  0  0  0  0  0  0  0  0
   -6.6419  -19.3936   20.3491 N   0  0  0  0  0  0  0  0  0  0  0  0
   -7.5595  -19.9934   21.2210 C   0  0  0  0  0  0  0  0  0  0  0  0
   -8.6851  -19.4558   21.8138 C   0  0  0  0  0  0  0  0  0  0  0  0
   -9.3817  -20.2528   22.7211 C   0  0  0  0  0  0  0  0  0  0  0  0
   -8.9878  -21.5556   23.0015 C   0  0  0  0  0  0  0  0  0  0  0  0
   -7.8400  -22.0816   22.4127 C   0  0  0  0  0  0  0  0  0  0  0  0
   -7.1317  -21.2963   21.5138 C   0  0  0  0  0  0  0  0  0  0  0  0
   -6.6955  -18.4578   20.0482 H   0  0  0  0  0  0  0  0  0  0  0  0
   -3.4877  -22.8750   18.9672 N   0  0  0  0  0  0  0  0  0  0  0  0
   -2.2044  -23.2013   18.9026 C   0  0  0  0  0  0  0  0  0  0  0  0
   -1.7790  -23.3975   20.1429 N   0  0  0  0  0  0  0  0  0  0  0  0
   -2.8530  -23.3739   20.9917 C   0  0  0  0  0  0  0  0  0  0  0  0
   -3.9391  -22.9652   20.2608 C   0  0  0  0  0  0  0  0  0  0  0  0
   -4.0387  -22.6062   18.1969 H   0  0  0  0  0  0  0  0  0  0  0  0
   -9.7954  -22.2591   23.8619 O   0  0  0  0  0  0  0  0  0  0  0  0
   -9.1951  -23.2776   24.6508 C   0  0  0  0  0  0  0  0  0  0  0  0
 13 14  1  0  0  0
 13 17  1  0  0  0
 14 15  2  0  0  0
 15 16  1  0  0  0
 16 17  2  0  0  0
 17  1  1  0  0  0
  1  2  2  0  0  0
  2  3  1  0  0  0
  2 11  1  0  0  0
  3  4  2  0  0  0
  3  5  1  0  0  0
  5  6  1  0  0  0
  6  7  2  0  0  0
  6 11  1  0  0  0
  7  8  1  0  0  0
  8  9  2  0  0  0
  9 19  1  0  0  0
  9 10  1  0  0  0
 19 20  1  0  0  0
 10 11  2  0  0  0
 13 18  1  0  0  0
  5 12  1  0  0  0
M  END
> <minimizedAffinity>
-7.50096

$$$$
6GUC_SU9_A_301


 20 22  0  0  0  0  0  0  0  0999 V2000
   -8.2456  -21.5712   22.3911 C   0  0  0  0  0  0  0  0  0  0  0  0
   -7.0841  -22.2863   22.1471 C   0  0  0  0  0  0  0  0  0  0  0  0
   -6.1227  -22.2687   20.9963 C   0  0  0  0  0  0  0  0  0  0  0  0
   -6.1807  -21.6092   19.9425 O   0  0  0  0  0  0  0  0  0  0  0  0
   -5.1784  -23.2159   21.2634 N   0  0  0  0  0  0  0  0  0  0  0  0
   -5.3716  -23.7977   22.5227 C   0  0  0  0  0  0  0  0  0  0  0  0
   -4.6318  -24.7748   23.1593 C   0  0  0  0  0  0  0  0  0  0  0  0
   -5.0993  -25.2438   24.3862 C   0  0  0  0  0  0  0  0  0  0  0  0
   -6.2485  -24.7301   24.9747 C   0  0  0  0  0  0  0  0  0  0  0  0
   -6.9978  -23.7583   24.3153 C   0  0  0  0  0  0  0  0  0  0  0  0
   -6.5488  -23.2881   23.0890 C   0  0  0  0  0  0  0  0  0  0  0  0
   -4.4507  -23.4605   20.6470 H   0  0  0  0  0  0  0  0  0  0  0  0
   -8.5195  -19.7172   20.7421 N   0  0  0  0  0  0  0  0  0  0  0  0
   -9.5081  -19.2486   19.9933 C   0  0  0  0  0  0  0  0  0  0  0  0
  -10.5404  -20.0682   20.1358 N   0  0  0  0  0  0  0  0  0  0  0  0
  -10.2625  -20.9667   21.1308 C   0  0  0  0  0  0  0  0  0  0  0  0
   -8.9448  -20.7994   21.4723 C   0  0  0  0  0  0  0  0  0  0  0  0
   -7.6096  -19.3423   20.7706 H   0  0  0  0  0  0  0  0  0  0  0  0
   -6.5669  -25.2286   26.2147 O   0  0  0  0  0  0  0  0  0  0  0  0
   -5.6001  -26.0362   26.8727 C   0  0  0  0  0  0  0  0  0  0  0  0
 13 14  1  0  0  0
 13 17  1  0  0  0
 14 15  2  0  0  0
 15 16  1  0  0  0
 16 17  2  0  0  0
 17  1  1  0  0  0
  1  2  2  0  0  0
  2  3  1  0  0  0
  2 11  1  0  0  0
  3  4  2  0  0  0
  3  5  1  0  0  0
  5  6  1  0  0  0
  6  7  2  0  0  0
  6 11  1  0  0  0
  7  8  1  0  0  0
  8  9  2  0  0  0
  9 19  1  0  0  0
  9 10  1  0  0  0
 19 20  1  0  0  0
 10 11  2  0  0  0
 13 18  1  0  0  0
  5 12  1  0  0  0
M  END
> <minimizedAffinity>
-7.49511

$$$$
6GUC_SU9_A_301


 20 22  0  0  0  0  0  0  0  0999 V2000
   -4.4680  -21.8668   20.1867 C   0  0  0  0  0  0  0  0  0  0  0  0
   -5.5690  -21.1584   20.6407 C   0  0  0  0  0  0  0  0  0  0  0  0
   -6.1605  -19.8485   20.2126 C   0  0  0  0  0  0  0  0  0  0  0  0
   -5.7515  -19.0550   19.3454 O   0  0  0  0  0  0  0  0  0  0  0  0
   -7.2181  -19.6100   21.0401 N   0  0  0  0  0  0  0  0  0  0  0  0
   -7.4388  -20.6788   21.9180 C   0  0  0  0  0  0  0  0  0  0  0  0
   -8.4080  -20.8282   22.8904 C   0  0  0  0  0  0  0  0  0  0  0  0
   -8.3480  -21.9655   23.6945 C   0  0  0  0  0  0  0  0  0  0  0  0
   -7.3731  -22.9387   23.5114 C   0  0  0  0  0  0  0  0  0  0  0  0
   -6.3887  -22.7691   22.5403 C   0  0  0  0  0  0  0  0  0  0  0  0
   -6.4312  -21.6372   21.7381 C   0  0  0  0  0  0  0  0  0  0  0  0
   -7.7596  -18.7880   21.0224 H   0  0  0  0  0  0  0  0  0  0  0  0
   -3.5894  -20.8362   18.0897 N   0  0  0  0  0  0  0  0  0  0  0  0
   -2.3921  -20.5320   17.6086 C   0  0  0  0  0  0  0  0  0  0  0  0
   -1.5045  -20.7748   18.5630 N   0  0  0  0  0  0  0  0  0  0  0  0
   -2.1285  -21.4145   19.6001 C   0  0  0  0  0  0  0  0  0  0  0  0
   -3.4750  -21.3904   19.3407 C   0  0  0  0  0  0  0  0  0  0  0  0
   -4.4399  -20.6860   17.6170 H   0  0  0  0  0  0  0  0  0  0  0  0
   -7.4616  -24.0430   24.3239 O   0  0  0  0  0  0  0  0  0  0  0  0
   -6.2497  -24.6453   24.7580 C   0  0  0  0  0  0  0  0  0  0  0  0
 13 14  1  0  0  0
 13 17  1  0  0  0
 14 15  2  0  0  0
 15 16  1  0  0  0
 16 17  2  0  0  0
 17  1  1  0  0  0
  1  2  2  0  0  0
  2  3  1  0  0  0
  2 11  1  0  0  0
  3  4  2  0  0  0
  3  5  1  0  0  0
  5  6  1  0  0  0
  6  7  2  0  0  0
  6 11  1  0  0  0
  7  8  1  0  0  0
  8  9  2  0  0  0
  9 19  1  0  0  0
  9 10  1  0  0  0
 19 20  1  0  0  0
 10 11  2  0  0  0
 13 18  1  0  0  0
  5 12  1  0  0  0
M  END
> <minimizedAffinity>
-7.46238

$$$$
6GUC_SU9_A_301


 20 22  0  0  0  0  0  0  0  0999 V2000
   -4.5118  -23.0878   22.0134 C   0  0  0  0  0  0  0  0  0  0  0  0
   -5.3043  -23.7417   22.9431 C   0  0  0  0  0  0  0  0  0  0  0  0
   -5.0642  -24.9649   23.7769 C   0  0  0  0  0  0  0  0  0  0  0  0
   -4.0737  -25.7184   23.7880 O   0  0  0  0  0  0  0  0  0  0  0  0
   -6.2089  -25.1840   24.4853 N   0  0  0  0  0  0  0  0  0  0  0  0
   -7.1529  -24.1723   24.2679 C   0  0  0  0  0  0  0  0  0  0  0  0
   -8.4172  -24.0238   24.8034 C   0  0  0  0  0  0  0  0  0  0  0  0
   -9.1931  -22.9600   24.3452 C   0  0  0  0  0  0  0  0  0  0  0  0
   -8.7102  -22.0540   23.4088 C   0  0  0  0  0  0  0  0  0  0  0  0
   -7.4406  -22.2238   22.8608 C   0  0  0  0  0  0  0  0  0  0  0  0
   -6.6603  -23.2837   23.3015 C   0  0  0  0  0  0  0  0  0  0  0  0
   -6.3539  -25.9578   25.0765 H   0  0  0  0  0  0  0  0  0  0  0  0
   -3.0736  -24.8198   20.9348 N   0  0  0  0  0  0  0  0  0  0  0  0
   -1.8217  -24.8823   20.5034 C   0  0  0  0  0  0  0  0  0  0  0  0
   -1.2982  -23.6698   20.6186 N   0  0  0  0  0  0  0  0  0  0  0  0
   -2.1730  -22.8696   21.3033 C   0  0  0  0  0  0  0  0  0  0  0  0
   -3.3421  -23.5729   21.4432 C   0  0  0  0  0  0  0  0  0  0  0  0
   -3.7192  -25.5621   20.8962 H   0  0  0  0  0  0  0  0  0  0  0  0
   -9.5467  -21.0122   23.0887 O   0  0  0  0  0  0  0  0  0  0  0  0
  -10.2452  -21.0788   21.8528 C   0  0  0  0  0  0  0  0  0  0  0  0
 13 14  1  0  0  0
 13 17  1  0  0  0
 14 15  2  0  0  0
 15 16  1  0  0  0
 16 17  2  0  0  0
 17  1  1  0  0  0
  1  2  2  0  0  0
  2  3  1  0  0  0
  2 11  1  0  0  0
  3  4  2  0  0  0
  3  5  1  0  0  0
  5  6  1  0  0  0
  6  7  2  0  0  0
  6 11  1  0  0  0
  7  8  1  0  0  0
  8  9  2  0  0  0
  9 19  1  0  0  0
  9 10  1  0  0  0
 19 20  1  0  0  0
 10 11  2  0  0  0
 13 18  1  0  0  0
  5 12  1  0  0  0
M  END
> <minimizedAffinity>
-7.41828

$$$$
6GUC_SU9_A_301


 20 22  0  0  0  0  0  0  0  0999 V2000
   -6.3268  -24.4057   24.7225 C   0  0  0  0  0  0  0  0  0  0  0  0
   -5.9812  -24.0340   23.4332 C   0  0  0  0  0  0  0  0  0  0  0  0
   -4.8887  -24.5000   22.5176 C   0  0  0  0  0  0  0  0  0  0  0  0
   -3.9877  -25.3296   22.7384 O   0  0  0  0  0  0  0  0  0  0  0  0
   -4.9899  -23.7546   21.3798 N   0  0  0  0  0  0  0  0  0  0  0  0
   -6.0998  -22.9011   21.4181 C   0  0  0  0  0  0  0  0  0  0  0  0
   -6.5502  -22.0063   20.4675 C   0  0  0  0  0  0  0  0  0  0  0  0
   -7.6421  -21.2053   20.7988 C   0  0  0  0  0  0  0  0  0  0  0  0
   -8.2849  -21.3178   22.0257 C   0  0  0  0  0  0  0  0  0  0  0  0
   -7.8107  -22.2101   22.9848 C   0  0  0  0  0  0  0  0  0  0  0  0
   -6.7190  -23.0079   22.6717 C   0  0  0  0  0  0  0  0  0  0  0  0
   -4.3605  -23.8098   20.6248 H   0  0  0  0  0  0  0  0  0  0  0  0
   -4.1979  -25.3396   25.6323 N   0  0  0  0  0  0  0  0  0  0  0  0
   -3.8655  -26.1757   26.6058 C   0  0  0  0  0  0  0  0  0  0  0  0
   -4.9721  -26.4730   27.2726 N   0  0  0  0  0  0  0  0  0  0  0  0
   -6.0492  -25.9619   26.5995 C   0  0  0  0  0  0  0  0  0  0  0  0
   -5.5600  -25.1712   25.5914 C   0  0  0  0  0  0  0  0  0  0  0  0
   -3.5589  -24.9015   25.0248 H   0  0  0  0  0  0  0  0  0  0  0  0
   -9.3886  -20.5196   22.2051 O   0  0  0  0  0  0  0  0  0  0  0  0
  -10.0596  -20.0460   21.0452 C   0  0  0  0  0  0  0  0  0  0  0  0
 13 14  1  0  0  0
 13 17  1  0  0  0
 14 15  2  0  0  0
 15 16  1  0  0  0
 16 17  2  0  0  0
 17  1  1  0  0  0
  1  2  2  0  0  0
  2  3  1  0  0  0
  2 11  1  0  0  0
  3  4  2  0  0  0
  3  5  1  0  0  0
  5  6  1  0  0  0
  6  7  2  0  0  0
  6 11  1  0  0  0
  7  8  1  0  0  0
  8  9  2  0  0  0
  9 19  1  0  0  0
  9 10  1  0  0  0
 19 20  1  0  0  0
 10 11  2  0  0  0
 13 18  1  0  0  0
  5 12  1  0  0  0
M  END
> <minimizedAffinity>
-7.40608

$$$$
6GUC_SU9_A_301


 20 22  0  0  0  0  0  0  0  0999 V2000
   -5.4122  -22.3492   21.0397 C   0  0  0  0  0  0  0  0  0  0  0  0
   -6.3147  -22.4598   22.0852 C   0  0  0  0  0  0  0  0  0  0  0  0
   -6.1902  -23.0608   23.4535 C   0  0  0  0  0  0  0  0  0  0  0  0
   -5.2201  -23.6546   23.9586 O   0  0  0  0  0  0  0  0  0  0  0  0
   -7.4107  -22.9306   24.0484 N   0  0  0  0  0  0  0  0  0  0  0  0
   -8.3071  -22.2213   23.2391 C   0  0  0  0  0  0  0  0  0  0  0  0
   -9.6208  -21.8723   23.4836 C   0  0  0  0  0  0  0  0  0  0  0  0
  -10.3225  -21.2361   22.4606 C   0  0  0  0  0  0  0  0  0  0  0  0
   -9.7225  -20.9273   21.2458 C   0  0  0  0  0  0  0  0  0  0  0  0
   -8.4026  -21.3008   21.0023 C   0  0  0  0  0  0  0  0  0  0  0  0
   -7.6945  -21.9426   22.0090 C   0  0  0  0  0  0  0  0  0  0  0  0
   -7.6339  -23.2907   24.9371 H   0  0  0  0  0  0  0  0  0  0  0  0
   -3.8995  -24.3325   21.1393 N   0  0  0  0  0  0  0  0  0  0  0  0
   -2.6056  -24.5520   20.9526 C   0  0  0  0  0  0  0  0  0  0  0  0
   -2.0666  -23.4206   20.5201 N   0  0  0  0  0  0  0  0  0  0  0  0
   -2.9975  -22.4207   20.6088 C   0  0  0  0  0  0  0  0  0  0  0  0
   -4.1943  -23.0077   20.9311 C   0  0  0  0  0  0  0  0  0  0  0  0
   -4.5559  -25.0215   21.3915 H   0  0  0  0  0  0  0  0  0  0  0  0
  -10.5002  -20.2409   20.3450 O   0  0  0  0  0  0  0  0  0  0  0  0
   -9.8517  -19.3273   19.4706 C   0  0  0  0  0  0  0  0  0  0  0  0
 13 14  1  0  0  0
 13 17  1  0  0  0
 14 15  2  0  0  0
 15 16  1  0  0  0
 16 17  2  0  0  0
 17  1  1  0  0  0
  1  2  2  0  0  0
  2  3  1  0  0  0
  2 11  1  0  0  0
  3  4  2  0  0  0
  3  5  1  0  0  0
  5  6  1  0  0  0
  6  7  2  0  0  0
  6 11  1  0  0  0
  7  8  1  0  0  0
  8  9  2  0  0  0
  9 19  1  0  0  0
  9 10  1  0  0  0
 19 20  1  0  0  0
 10 11  2  0  0  0
 13 18  1  0  0  0
  5 12  1  0  0  0
M  END
> <minimizedAffinity>
-7.33906

$$$$
6GUC_SU9_A_301


 20 22  0  0  0  0  0  0  0  0999 V2000
   -7.6079  -21.7858   21.6277 C   0  0  0  0  0  0  0  0  0  0  0  0
   -6.2338  -21.6513   21.5107 C   0  0  0  0  0  0  0  0  0  0  0  0
   -5.3802  -20.5400   20.9765 C   0  0  0  0  0  0  0  0  0  0  0  0
   -5.7345  -19.4644   20.4603 O   0  0  0  0  0  0  0  0  0  0  0  0
   -4.0874  -20.9662   21.0626 N   0  0  0  0  0  0  0  0  0  0  0  0
   -3.9962  -22.2176   21.6852 C   0  0  0  0  0  0  0  0  0  0  0  0
   -2.8770  -22.9752   21.9694 C   0  0  0  0  0  0  0  0  0  0  0  0
   -3.0751  -24.2402   22.5210 C   0  0  0  0  0  0  0  0  0  0  0  0
   -4.3467  -24.7195   22.8113 C   0  0  0  0  0  0  0  0  0  0  0  0
   -5.4699  -23.9550   22.5029 C   0  0  0  0  0  0  0  0  0  0  0  0
   -5.2879  -22.6970   21.9455 C   0  0  0  0  0  0  0  0  0  0  0  0
   -3.3139  -20.4570   20.7285 H   0  0  0  0  0  0  0  0  0  0  0  0
   -8.4520  -20.1401   19.9510 N   0  0  0  0  0  0  0  0  0  0  0  0
   -9.6021  -19.5228   19.7199 C   0  0  0  0  0  0  0  0  0  0  0  0
  -10.4979  -20.0182   20.5624 N   0  0  0  0  0  0  0  0  0  0  0  0
   -9.8620  -20.8300   21.4630 C   0  0  0  0  0  0  0  0  0  0  0  0
   -8.5672  -20.9751   21.0350 C   0  0  0  0  0  0  0  0  0  0  0  0
   -7.6316  -20.0174   19.4207 H   0  0  0  0  0  0  0  0  0  0  0  0
   -4.4047  -25.9528   23.4138 O   0  0  0  0  0  0  0  0  0  0  0  0
   -5.5215  -26.2312   24.2476 C   0  0  0  0  0  0  0  0  0  0  0  0
 13 14  1  0  0  0
 13 17  1  0  0  0
 14 15  2  0  0  0
 15 16  1  0  0  0
 16 17  2  0  0  0
 17  1  1  0  0  0
  1  2  2  0  0  0
  2  3  1  0  0  0
  2 11  1  0  0  0
  3  4  2  0  0  0
  3  5  1  0  0  0
  5  6  1  0  0  0
  6  7  2  0  0  0
  6 11  1  0  0  0
  7  8  1  0  0  0
  8  9  2  0  0  0
  9 19  1  0  0  0
  9 10  1  0  0  0
 19 20  1  0  0  0
 10 11  2  0  0  0
 13 18  1  0  0  0
  5 12  1  0  0  0
M  END
> <minimizedAffinity>
-7.18870

$$$$
6GUC_SU9_A_301


 20 22  0  0  0  0  0  0  0  0999 V2000
   -5.9139  -23.3493   23.7659 C   0  0  0  0  0  0  0  0  0  0  0  0
   -7.0629  -22.6112   23.5311 C   0  0  0  0  0  0  0  0  0  0  0  0
   -8.4279  -22.6629   24.1500 C   0  0  0  0  0  0  0  0  0  0  0  0
   -8.8603  -23.4411   25.0196 O   0  0  0  0  0  0  0  0  0  0  0  0
   -9.1858  -21.7343   23.4992 N   0  0  0  0  0  0  0  0  0  0  0  0
   -8.4298  -21.0101   22.5688 C   0  0  0  0  0  0  0  0  0  0  0  0
   -8.8211  -19.9861   21.7287 C   0  0  0  0  0  0  0  0  0  0  0  0
   -7.8791  -19.4933   20.8269 C   0  0  0  0  0  0  0  0  0  0  0  0
   -6.5791  -19.9827   20.7883 C   0  0  0  0  0  0  0  0  0  0  0  0
   -6.2000  -21.0287   21.6268 C   0  0  0  0  0  0  0  0  0  0  0  0
   -7.1303  -21.5349   22.5240 C   0  0  0  0  0  0  0  0  0  0  0  0
  -10.1459  -21.5908   23.6632 H   0  0  0  0  0  0  0  0  0  0  0  0
   -6.8303  -25.3078   25.0135 N   0  0  0  0  0  0  0  0  0  0  0  0
   -6.3205  -26.3304   25.6857 C   0  0  0  0  0  0  0  0  0  0  0  0
   -5.0037  -26.2896   25.5373 N   0  0  0  0  0  0  0  0  0  0  0  0
   -4.6612  -25.1196   24.9141 C   0  0  0  0  0  0  0  0  0  0  0  0
   -5.8258  -24.5206   24.5069 C   0  0  0  0  0  0  0  0  0  0  0  0
   -7.7925  -25.1370   24.8944 H   0  0  0  0  0  0  0  0  0  0  0  0
   -5.7284  -19.3688   19.9013 O   0  0  0  0  0  0  0  0  0  0  0  0
   -4.9180  -20.1973   19.0786 C   0  0  0  0  0  0  0  0  0  0  0  0
 13 14  1  0  0  0
 13 17  1  0  0  0
 14 15  2  0  0  0
 15 16  1  0  0  0
 16 17  2  0  0  0
 17  1  1  0  0  0
  1  2  2  0  0  0
  2  3  1  0  0  0
  2 11  1  0  0  0
  3  4  2  0  0  0
  3  5  1  0  0  0
  5  6  1  0  0  0
  6  7  2  0  0  0
  6 11  1  0  0  0
  7  8  1  0  0  0
  8  9  2  0  0  0
  9 19  1  0  0  0
  9 10  1  0  0  0
 19 20  1  0  0  0
 10 11  2  0  0  0
 13 18  1  0  0  0
  5 12  1  0  0  0
M  END
> <minimizedAffinity>
-7.12250

$$$$
