3S0D_CTV_A_120


 11 10  0  0  0  0  0  0  0  0999 V2000
    7.2674   11.6604   31.7390 C   0  0  0  0  0  0  0  0  0  0  0  0
    8.5138   10.9909   31.0565 C   0  0  0  0  0  0  0  0  0  0  0  0
    9.8054   10.7279   31.7074 C   0  0  0  0  0  0  0  0  0  0  0  0
    8.3674   10.4180   29.5392 C   0  0  0  0  0  0  0  0  0  0  0  0
   10.3048   11.3853   34.5544 N   0  0  0  0  0  0  0  0  0  0  0  0
   10.0144   11.0399   33.0930 C   0  0  0  0  0  0  0  0  0  0  0  0
    6.6821   12.8381   31.0316 C   0  0  0  0  0  0  0  0  0  0  0  0
    9.2858   14.7287   31.4262 C   0  0  0  0  0  0  0  0  0  0  0  0
    8.5095   14.6335   33.5871 C   0  0  0  0  0  0  0  0  0  0  0  0
    8.3477   14.3478   32.2783 C   0  0  0  0  0  0  0  0  0  0  0  0
    6.9344   14.0238   31.7657 C   0  0  0  0  0  0  0  0  0  0  0  0
  8 10  1  0  0  0
  5  6  3  0  0  0
  9 10  1  0  0  0
 10 11  2  0  0  0
 11  7  1  0  0  0
  7  1  1  0  0  0
  1  2  1  0  0  0
  2  3  2  0  0  0
  2  4  1  0  0  0
  3  6  1  0  0  0
M  END
> <minimizedAffinity>
-5.77759

$$$$
3S0D_CTV_A_120


 11 10  0  0  0  0  0  0  0  0999 V2000
   10.1388   11.3304   31.5356 C   0  0  0  0  0  0  0  0  0  0  0  0
   10.4017   10.6047   32.9037 C   0  0  0  0  0  0  0  0  0  0  0  0
   10.1824   11.1872   34.2354 C   0  0  0  0  0  0  0  0  0  0  0  0
   10.8407    9.0365   32.8913 C   0  0  0  0  0  0  0  0  0  0  0  0
    9.1208   13.9309   34.5978 N   0  0  0  0  0  0  0  0  0  0  0  0
    9.6449   12.5097   34.3869 C   0  0  0  0  0  0  0  0  0  0  0  0
    9.6723   10.4666   30.4103 C   0  0  0  0  0  0  0  0  0  0  0  0
    8.0305   12.7680   28.8237 C   0  0  0  0  0  0  0  0  0  0  0  0
    6.7173   12.5354   30.6951 C   0  0  0  0  0  0  0  0  0  0  0  0
    7.7611   12.1219   29.9467 C   0  0  0  0  0  0  0  0  0  0  0  0
    8.2971   10.6958   30.1564 C   0  0  0  0  0  0  0  0  0  0  0  0
  8 10  1  0  0  0
  5  6  3  0  0  0
  9 10  1  0  0  0
 10 11  2  0  0  0
 11  7  1  0  0  0
  7  1  1  0  0  0
  1  2  1  0  0  0
  2  3  2  0  0  0
  2  4  1  0  0  0
  3  6  1  0  0  0
M  END
> <minimizedAffinity>
-5.61803

$$$$
3S0D_CTV_A_120


 11 10  0  0  0  0  0  0  0  0999 V2000
    8.5165   12.0954   29.5046 C   0  0  0  0  0  0  0  0  0  0  0  0
    7.7869   13.0876   30.4795 C   0  0  0  0  0  0  0  0  0  0  0  0
    6.6428   12.7530   31.3398 C   0  0  0  0  0  0  0  0  0  0  0  0
    8.3899   14.5880   30.6722 C   0  0  0  0  0  0  0  0  0  0  0  0
    5.6108    9.9750   31.4055 N   0  0  0  0  0  0  0  0  0  0  0  0
    6.1134   11.4193   31.3840 C   0  0  0  0  0  0  0  0  0  0  0  0
    9.8074   11.5233   29.9910 C   0  0  0  0  0  0  0  0  0  0  0  0
    9.3720   11.0056   33.1614 C   0  0  0  0  0  0  0  0  0  0  0  0
   10.7674    9.2552   32.6418 C   0  0  0  0  0  0  0  0  0  0  0  0
   10.0156   10.3025   32.2435 C   0  0  0  0  0  0  0  0  0  0  0  0
    9.5650   10.3677   30.7746 C   0  0  0  0  0  0  0  0  0  0  0  0
  8 10  1  0  0  0
  5  6  3  0  0  0
  9 10  1  0  0  0
 10 11  2  0  0  0
 11  7  1  0  0  0
  7  1  1  0  0  0
  1  2  1  0  0  0
  2  3  2  0  0  0
  2  4  1  0  0  0
  3  6  1  0  0  0
M  END
> <minimizedAffinity>
-5.55472

$$$$
3S0D_CTV_A_120


 11 10  0  0  0  0  0  0  0  0999 V2000
    8.1424   10.9904   29.7122 C   0  0  0  0  0  0  0  0  0  0  0  0
    7.1679   11.3170   30.9001 C   0  0  0  0  0  0  0  0  0  0  0  0
    7.1169   12.5872   31.6384 C   0  0  0  0  0  0  0  0  0  0  0  0
    6.0234   10.2301   31.3011 C   0  0  0  0  0  0  0  0  0  0  0  0
    8.9260   14.8209   30.9142 N   0  0  0  0  0  0  0  0  0  0  0  0
    7.9658   13.6878   31.2796 C   0  0  0  0  0  0  0  0  0  0  0  0
    9.2724   10.0646   30.0223 C   0  0  0  0  0  0  0  0  0  0  0  0
   10.7734    8.9372   32.6652 C   0  0  0  0  0  0  0  0  0  0  0  0
   10.0054   10.9551   33.4520 C   0  0  0  0  0  0  0  0  0  0  0  0
   10.1830   10.0970   32.4259 C   0  0  0  0  0  0  0  0  0  0  0  0
   10.1285   10.6461   30.9904 C   0  0  0  0  0  0  0  0  0  0  0  0
  8 10  1  0  0  0
  5  6  3  0  0  0
  9 10  1  0  0  0
 10 11  2  0  0  0
 11  7  1  0  0  0
  7  1  1  0  0  0
  1  2  1  0  0  0
  2  3  2  0  0  0
  2  4  1  0  0  0
  3  6  1  0  0  0
M  END
> <minimizedAffinity>
-5.47249

$$$$
3S0D_CTV_A_120


 11 10  0  0  0  0  0  0  0  0999 V2000
    8.1294   12.7831   32.2648 C   0  0  0  0  0  0  0  0  0  0  0  0
    6.7523   13.3733   31.7929 C   0  0  0  0  0  0  0  0  0  0  0  0
    5.5895   12.5858   31.3587 C   0  0  0  0  0  0  0  0  0  0  0  0
    6.5098   14.9807   31.8902 C   0  0  0  0  0  0  0  0  0  0  0  0
    5.7154    9.6247   31.4122 N   0  0  0  0  0  0  0  0  0  0  0  0
    5.6171   11.1506   31.3777 C   0  0  0  0  0  0  0  0  0  0  0  0
    9.3424   13.2970   31.5613 C   0  0  0  0  0  0  0  0  0  0  0  0
    8.2301   12.3829   28.6567 C   0  0  0  0  0  0  0  0  0  0  0  0
    8.7704   10.3390   29.5573 C   0  0  0  0  0  0  0  0  0  0  0  0
    8.7755   11.6857   29.6403 C   0  0  0  0  0  0  0  0  0  0  0  0
    9.7782   12.3600   30.5916 C   0  0  0  0  0  0  0  0  0  0  0  0
  8 10  1  0  0  0
  5  6  3  0  0  0
  9 10  1  0  0  0
 10 11  2  0  0  0
 11  7  1  0  0  0
  7  1  1  0  0  0
  1  2  1  0  0  0
  2  3  2  0  0  0
  2  4  1  0  0  0
  3  6  1  0  0  0
M  END
> <minimizedAffinity>
-5.44707

$$$$
3S0D_CTV_A_120


 11 10  0  0  0  0  0  0  0  0999 V2000
    7.7033   11.6841   31.6272 C   0  0  0  0  0  0  0  0  0  0  0  0
    7.9577   12.9540   30.7383 C   0  0  0  0  0  0  0  0  0  0  0  0
    8.2560   14.3027   31.2412 C   0  0  0  0  0  0  0  0  0  0  0  0
    8.0229   12.7821   29.1202 C   0  0  0  0  0  0  0  0  0  0  0  0
    8.5143   14.7602   34.1586 N   0  0  0  0  0  0  0  0  0  0  0  0
    8.3853   14.5576   32.6481 C   0  0  0  0  0  0  0  0  0  0  0  0
    8.6964   10.5768   31.4940 C   0  0  0  0  0  0  0  0  0  0  0  0
   11.0347    8.8847   32.9698 C   0  0  0  0  0  0  0  0  0  0  0  0
   10.8029   10.6394   34.4354 C   0  0  0  0  0  0  0  0  0  0  0  0
   10.4896   10.0549   33.2603 C   0  0  0  0  0  0  0  0  0  0  0  0
    9.9098   10.9291   32.1357 C   0  0  0  0  0  0  0  0  0  0  0  0
  8 10  1  0  0  0
  5  6  3  0  0  0
  9 10  1  0  0  0
 10 11  2  0  0  0
 11  7  1  0  0  0
  7  1  1  0  0  0
  1  2  1  0  0  0
  2  3  2  0  0  0
  2  4  1  0  0  0
  3  6  1  0  0  0
M  END
> <minimizedAffinity>
-5.37706

$$$$
3S0D_CTV_A_120


 11 10  0  0  0  0  0  0  0  0999 V2000
    8.1056   10.7131   29.8958 C   0  0  0  0  0  0  0  0  0  0  0  0
    7.3693   10.6025   31.2790 C   0  0  0  0  0  0  0  0  0  0  0  0
    8.0256   10.4650   32.5872 C   0  0  0  0  0  0  0  0  0  0  0  0
    5.7500   10.7688   31.3244 C   0  0  0  0  0  0  0  0  0  0  0  0
   10.9762   10.5260   32.8641 N   0  0  0  0  0  0  0  0  0  0  0  0
    9.4565   10.4661   32.7026 C   0  0  0  0  0  0  0  0  0  0  0  0
    8.9352   11.9371   29.6869 C   0  0  0  0  0  0  0  0  0  0  0  0
    9.3251   14.7524   31.2461 C   0  0  0  0  0  0  0  0  0  0  0  0
    7.1386   14.2833   31.7750 C   0  0  0  0  0  0  0  0  0  0  0  0
    8.2585   13.9862   31.0835 C   0  0  0  0  0  0  0  0  0  0  0  0
    8.1372   13.0990   29.8333 C   0  0  0  0  0  0  0  0  0  0  0  0
  8 10  1  0  0  0
  5  6  3  0  0  0
  9 10  1  0  0  0
 10 11  2  0  0  0
 11  7  1  0  0  0
  7  1  1  0  0  0
  1  2  1  0  0  0
  2  3  2  0  0  0
  2  4  1  0  0  0
  3  6  1  0  0  0
M  END
> <minimizedAffinity>
-5.36186

$$$$
3S0D_CTV_A_120


 11 10  0  0  0  0  0  0  0  0999 V2000
    6.9615   11.5064   31.9796 C   0  0  0  0  0  0  0  0  0  0  0  0
    6.2834   12.8724   31.6034 C   0  0  0  0  0  0  0  0  0  0  0  0
    6.8860   14.2018   31.7782 C   0  0  0  0  0  0  0  0  0  0  0  0
    4.8423   12.8535   30.8451 C   0  0  0  0  0  0  0  0  0  0  0  0
    9.6120   14.5262   32.8965 N   0  0  0  0  0  0  0  0  0  0  0  0
    8.2192   14.3501   32.2895 C   0  0  0  0  0  0  0  0  0  0  0  0
    6.9295   10.4439   30.9307 C   0  0  0  0  0  0  0  0  0  0  0  0
   10.0950    9.8726   30.5273 C   0  0  0  0  0  0  0  0  0  0  0  0
    9.9695   12.0498   29.8029 C   0  0  0  0  0  0  0  0  0  0  0  0
    9.3532   10.9253   30.2226 C   0  0  0  0  0  0  0  0  0  0  0  0
    7.8598   10.7427   29.9043 C   0  0  0  0  0  0  0  0  0  0  0  0
  8 10  1  0  0  0
  5  6  3  0  0  0
  9 10  1  0  0  0
 10 11  2  0  0  0
 11  7  1  0  0  0
  7  1  1  0  0  0
  1  2  1  0  0  0
  2  3  2  0  0  0
  2  4  1  0  0  0
  3  6  1  0  0  0
M  END
> <minimizedAffinity>
-5.33688

$$$$
3S0D_CTV_A_120


 11 10  0  0  0  0  0  0  0  0999 V2000
    9.3332   13.4352   31.4040 C   0  0  0  0  0  0  0  0  0  0  0  0
    9.0448   13.3887   32.9474 C   0  0  0  0  0  0  0  0  0  0  0  0
    9.3657   12.2678   33.8428 C   0  0  0  0  0  0  0  0  0  0  0  0
    8.4506   14.7174   33.6777 C   0  0  0  0  0  0  0  0  0  0  0  0
   10.7047    9.8450   32.7827 N   0  0  0  0  0  0  0  0  0  0  0  0
   10.0378   11.0973   33.3538 C   0  0  0  0  0  0  0  0  0  0  0  0
    8.1508   13.6562   30.5190 C   0  0  0  0  0  0  0  0  0  0  0  0
    7.0075   10.6608   30.9980 C   0  0  0  0  0  0  0  0  0  0  0  0
    8.8207   10.2052   29.6617 C   0  0  0  0  0  0  0  0  0  0  0  0
    8.0020   11.1046   30.2463 C   0  0  0  0  0  0  0  0  0  0  0  0
    7.9533   12.5328   29.6781 C   0  0  0  0  0  0  0  0  0  0  0  0
  8 10  1  0  0  0
  5  6  3  0  0  0
  9 10  1  0  0  0
 10 11  2  0  0  0
 11  7  1  0  0  0
  7  1  1  0  0  0
  1  2  1  0  0  0
  2  3  2  0  0  0
  2  4  1  0  0  0
  3  6  1  0  0  0
M  END
> <minimizedAffinity>
-5.32791

$$$$
3S0D_CTV_A_120


 11 10  0  0  0  0  0  0  0  0999 V2000
    9.5662   12.6017   30.8050 C   0  0  0  0  0  0  0  0  0  0  0  0
    9.5478   11.0399   30.9719 C   0  0  0  0  0  0  0  0  0  0  0  0
    9.8265   10.3107   32.2176 C   0  0  0  0  0  0  0  0  0  0  0  0
    9.0693   10.1196   29.7165 C   0  0  0  0  0  0  0  0  0  0  0  0
   10.3806   11.8149   34.7110 N   0  0  0  0  0  0  0  0  0  0  0  0
   10.1060   11.0104   33.4395 C   0  0  0  0  0  0  0  0  0  0  0  0
    8.3171   13.2222   30.2715 C   0  0  0  0  0  0  0  0  0  0  0  0
    6.1005   11.1468   31.4065 C   0  0  0  0  0  0  0  0  0  0  0  0
    4.8592   13.0791   31.3279 C   0  0  0  0  0  0  0  0  0  0  0  0
    6.0482   12.4533   31.2034 C   0  0  0  0  0  0  0  0  0  0  0  0
    7.3337   13.2931   31.2894 C   0  0  0  0  0  0  0  0  0  0  0  0
  8 10  1  0  0  0
  5  6  3  0  0  0
  9 10  1  0  0  0
 10 11  2  0  0  0
 11  7  1  0  0  0
  7  1  1  0  0  0
  1  2  1  0  0  0
  2  3  2  0  0  0
  2  4  1  0  0  0
  3  6  1  0  0  0
M  END
> <minimizedAffinity>
-5.19721

$$$$
