5FOL_SO8_A_1544


 34 36  0  0  0  0  0  0  0  0999 V2000
   14.7993    3.8767   18.1705 C   0  0  0  0  0  0  0  0  0  0  0  0
   13.7827    4.9941   18.2404 C   0  0  0  0  0  0  0  0  0  0  0  0
   14.0976    6.0433   19.1394 O   0  0  0  0  0  0  0  0  0  0  0  0
   12.5372    4.1985   18.6486 C   0  0  0  0  0  0  0  0  0  0  0  0
   12.5848    3.0063   17.8295 O   0  0  0  0  0  0  0  0  0  0  0  0
   13.9499    2.6368   17.7316 C   0  0  0  0  0  0  0  0  0  0  0  0
   14.2090    5.6814   20.0324 H   0  0  0  0  0  0  0  0  0  0  0  0
   13.6671   -1.4176   14.4368 N   0  0  0  0  0  0  0  0  0  0  0  0
   13.3675   -1.4291   15.8496 C   0  0  0  0  0  0  0  0  0  0  0  0
   13.5028   -0.1633   16.5464 N   0  0  0  0  0  0  0  0  0  0  0  0
   13.9212    0.9734   15.9041 C   0  0  0  0  0  0  0  0  0  0  0  0
   14.2423    0.9605   14.4759 C   0  0  0  0  0  0  0  0  0  0  0  0
   14.0686   -0.3231   13.7527 C   0  0  0  0  0  0  0  0  0  0  0  0
   14.3279   -0.4032   12.4462 N   0  0  0  0  0  0  0  0  0  0  0  0
   14.5954    2.2083   14.1247 N   0  0  0  0  0  0  0  0  0  0  0  0
   14.5377    2.9630   15.2493 C   0  0  0  0  0  0  0  0  0  0  0  0
   14.1524    2.2034   16.3286 N   0  0  0  0  0  0  0  0  0  0  0  0
   14.2105   -1.2582   11.9726 H   0  0  0  0  0  0  0  0  0  0  0  0
   14.6367    0.3928   11.9560 H   0  0  0  0  0  0  0  0  0  0  0  0
   16.6705    3.6296   19.7782 C   0  0  0  0  0  0  0  0  0  0  0  0
   17.4779    4.1387   19.0373 O   0  0  0  0  0  0  0  0  0  0  0  0
   15.3636    3.5290   19.4697 N   0  0  0  0  0  0  0  0  0  0  0  0
   14.7499    3.1998   20.1656 H   0  0  0  0  0  0  0  0  0  0  0  0
   17.7602    1.7945   20.9094 N   0  0  0  0  0  0  0  0  0  0  0  0
   17.0885    3.0795   21.1258 C   0  0  0  0  0  0  0  0  0  0  0  0
   17.1943    1.2154   20.2891 H   0  0  0  0  0  0  0  0  0  0  0  0
   17.8799    1.3186   21.8036 H   0  0  0  0  0  0  0  0  0  0  0  0
   17.9804    3.9005   22.0592 C   0  0  0  0  0  0  0  0  0  0  0  0
   19.3853    4.1432   21.4970 C   0  0  0  0  0  0  0  0  0  0  0  0
   17.2898    5.3556   23.9982 C   0  0  0  0  0  0  0  0  0  0  0  0
   17.2600    5.1849   22.4944 C   0  0  0  0  0  0  0  0  0  0  0  0
   11.2420    4.9674   18.4762 C   0  0  0  0  0  0  0  0  0  0  0  0
   10.1587    4.0590   18.5699 O   0  0  0  0  0  0  0  0  0  0  0  0
   10.2414    3.3845   17.8778 H   0  0  0  0  0  0  0  0  0  0  0  0
 20 21  2  0  0  0
 20 25  1  0  0  0
 20 22  1  0  0  0
 24 25  1  0  0  0
  8  9  2  0  0  0
  8 13  1  0  0  0
  9 10  1  0  0  0
 10 11  2  0  0  0
 11 12  1  0  0  0
 11 17  1  0  0  0
 12 13  2  0  0  0
 12 15  1  0  0  0
 13 14  1  0  0  0
 15 16  2  0  0  0
 16 17  1  0  0  0
 17  6  1  0  0  0
 25 28  1  0  0  0
 28 31  1  0  0  0
 28 29  1  0  0  0
 22  1  1  0  0  0
  1  2  1  0  0  0
  1  6  1  0  0  0
  2  3  1  0  0  0
  2  4  1  0  0  0
  4 32  1  0  0  0
  4  5  1  0  0  0
 32 33  1  0  0  0
  5  6  1  0  0  0
 30 31  1  0  0  0
 24 26  1  0  0  0
 24 27  1  0  0  0
 14 18  1  0  0  0
 14 19  1  0  0  0
 22 23  1  0  0  0
  3  7  1  0  0  0
 33 34  1  0  0  0
M  END
> <minimizedAffinity>
-9.24624

$$$$
5FOL_SO8_A_1544


 34 36  0  0  0  0  0  0  0  0999 V2000
   14.9493    2.0082   20.1963 C   0  0  0  0  0  0  0  0  0  0  0  0
   16.4434    2.1366   20.3914 C   0  0  0  0  0  0  0  0  0  0  0  0
   16.8713    2.2382   21.7385 O   0  0  0  0  0  0  0  0  0  0  0  0
   16.7132    3.4041   19.5719 C   0  0  0  0  0  0  0  0  0  0  0  0
   15.9221    3.2342   18.3719 O   0  0  0  0  0  0  0  0  0  0  0  0
   14.7144    2.6068   18.7687 C   0  0  0  0  0  0  0  0  0  0  0  0
   16.4463    3.0037   22.1559 H   0  0  0  0  0  0  0  0  0  0  0  0
   14.3811    1.8284   13.6057 N   0  0  0  0  0  0  0  0  0  0  0  0
   14.7276    3.0611   14.2735 C   0  0  0  0  0  0  0  0  0  0  0  0
   14.7732    3.0167   15.7235 N   0  0  0  0  0  0  0  0  0  0  0  0
   14.4740    1.8747   16.4205 C   0  0  0  0  0  0  0  0  0  0  0  0
   14.1025    0.6403   15.7266 C   0  0  0  0  0  0  0  0  0  0  0  0
   14.0919    0.6723   14.2435 C   0  0  0  0  0  0  0  0  0  0  0  0
   13.7780   -0.4212   13.5463 N   0  0  0  0  0  0  0  0  0  0  0  0
   13.8921   -0.3049   16.6579 N   0  0  0  0  0  0  0  0  0  0  0  0
   14.0820    0.2840   17.8639 C   0  0  0  0  0  0  0  0  0  0  0  0
   14.4102    1.6107   17.7139 N   0  0  0  0  0  0  0  0  0  0  0  0
   13.7729   -0.3930   12.5622 H   0  0  0  0  0  0  0  0  0  0  0  0
   13.5513   -1.2563   14.0159 H   0  0  0  0  0  0  0  0  0  0  0  0
   13.3567    2.3646   22.0627 C   0  0  0  0  0  0  0  0  0  0  0  0
   13.2869    1.1887   22.3316 O   0  0  0  0  0  0  0  0  0  0  0  0
   14.1754    2.8441   21.1072 N   0  0  0  0  0  0  0  0  0  0  0  0
   14.2568    3.8212   21.0178 H   0  0  0  0  0  0  0  0  0  0  0  0
   13.3156    3.8930   23.9327 N   0  0  0  0  0  0  0  0  0  0  0  0
   12.5228    3.3850   22.8091 C   0  0  0  0  0  0  0  0  0  0  0  0
   13.7198    3.1094   24.4454 H   0  0  0  0  0  0  0  0  0  0  0  0
   12.7153    4.4334   24.5555 H   0  0  0  0  0  0  0  0  0  0  0  0
   11.9450    4.6005   22.0816 C   0  0  0  0  0  0  0  0  0  0  0  0
   10.5030    4.9220   22.4891 C   0  0  0  0  0  0  0  0  0  0  0  0
   13.2891    6.3315   20.8362 C   0  0  0  0  0  0  0  0  0  0  0  0
   12.9001    5.7973   22.1981 C   0  0  0  0  0  0  0  0  0  0  0  0
   18.1814    3.6307   19.2696 C   0  0  0  0  0  0  0  0  0  0  0  0
   18.8819    3.7636   20.4940 O   0  0  0  0  0  0  0  0  0  0  0  0
   18.5234    4.5150   20.9918 H   0  0  0  0  0  0  0  0  0  0  0  0
 20 21  2  0  0  0
 20 25  1  0  0  0
 20 22  1  0  0  0
 24 25  1  0  0  0
  8  9  2  0  0  0
  8 13  1  0  0  0
  9 10  1  0  0  0
 10 11  2  0  0  0
 11 12  1  0  0  0
 11 17  1  0  0  0
 12 13  2  0  0  0
 12 15  1  0  0  0
 13 14  1  0  0  0
 15 16  2  0  0  0
 16 17  1  0  0  0
 17  6  1  0  0  0
 25 28  1  0  0  0
 28 31  1  0  0  0
 28 29  1  0  0  0
 22  1  1  0  0  0
  1  2  1  0  0  0
  1  6  1  0  0  0
  2  3  1  0  0  0
  2  4  1  0  0  0
  4 32  1  0  0  0
  4  5  1  0  0  0
 32 33  1  0  0  0
  5  6  1  0  0  0
 30 31  1  0  0  0
 24 26  1  0  0  0
 24 27  1  0  0  0
 14 18  1  0  0  0
 14 19  1  0  0  0
 22 23  1  0  0  0
  3  7  1  0  0  0
 33 34  1  0  0  0
M  END
> <minimizedAffinity>
-8.99069

$$$$
5FOL_SO8_A_1544


 34 36  0  0  0  0  0  0  0  0999 V2000
   13.5519    2.2771   19.6688 C   0  0  0  0  0  0  0  0  0  0  0  0
   14.7606    2.0159   20.5391 C   0  0  0  0  0  0  0  0  0  0  0  0
   14.5483    2.1701   21.9318 O   0  0  0  0  0  0  0  0  0  0  0  0
   15.7378    3.0440   19.9568 C   0  0  0  0  0  0  0  0  0  0  0  0
   15.5580    2.9430   18.5244 O   0  0  0  0  0  0  0  0  0  0  0  0
   14.1744    2.7268   18.3043 C   0  0  0  0  0  0  0  0  0  0  0  0
   14.2354    3.0701   22.1134 H   0  0  0  0  0  0  0  0  0  0  0  0
   14.5918    1.9901   13.1413 N   0  0  0  0  0  0  0  0  0  0  0  0
   14.7524    3.2367   13.8525 C   0  0  0  0  0  0  0  0  0  0  0  0
   14.6074    3.1778   15.2954 N   0  0  0  0  0  0  0  0  0  0  0  0
   14.3049    2.0082   15.9434 C   0  0  0  0  0  0  0  0  0  0  0  0
   14.1233    0.7583   15.2031 C   0  0  0  0  0  0  0  0  0  0  0  0
   14.3081    0.8078   13.7320 C   0  0  0  0  0  0  0  0  0  0  0  0
   14.1731   -0.2973   12.9964 N   0  0  0  0  0  0  0  0  0  0  0  0
   13.8625   -0.2115   16.0955 N   0  0  0  0  0  0  0  0  0  0  0  0
   13.8450    0.3748   17.3175 C   0  0  0  0  0  0  0  0  0  0  0  0
   14.0893    1.7241   17.2159 N   0  0  0  0  0  0  0  0  0  0  0  0
   14.2972   -0.2573   12.0206 H   0  0  0  0  0  0  0  0  0  0  0  0
   13.9495   -1.1526   13.4295 H   0  0  0  0  0  0  0  0  0  0  0  0
   11.4870    3.6487   19.7142 C   0  0  0  0  0  0  0  0  0  0  0  0
   10.8669    2.8796   19.0185 O   0  0  0  0  0  0  0  0  0  0  0  0
   12.7456    3.4034   20.1254 N   0  0  0  0  0  0  0  0  0  0  0  0
   13.1471    4.0240   20.7758 H   0  0  0  0  0  0  0  0  0  0  0  0
    9.9527    5.4237   19.1402 N   0  0  0  0  0  0  0  0  0  0  0  0
   10.8667    4.9482   20.1831 C   0  0  0  0  0  0  0  0  0  0  0  0
   10.4239    5.3948   18.2361 H   0  0  0  0  0  0  0  0  0  0  0  0
    9.6709    6.3821   19.3463 H   0  0  0  0  0  0  0  0  0  0  0  0
   10.1074    5.0144   21.5096 C   0  0  0  0  0  0  0  0  0  0  0  0
   11.0259    4.9836   22.7361 C   0  0  0  0  0  0  0  0  0  0  0  0
    8.0672    6.0399   22.5774 C   0  0  0  0  0  0  0  0  0  0  0  0
    9.1244    6.1941   21.5049 C   0  0  0  0  0  0  0  0  0  0  0  0
   17.1772    2.8191   20.3764 C   0  0  0  0  0  0  0  0  0  0  0  0
   17.3024    1.5012   20.8815 O   0  0  0  0  0  0  0  0  0  0  0  0
   16.7112    1.3890   21.6423 H   0  0  0  0  0  0  0  0  0  0  0  0
 20 21  2  0  0  0
 20 25  1  0  0  0
 20 22  1  0  0  0
 24 25  1  0  0  0
  8  9  2  0  0  0
  8 13  1  0  0  0
  9 10  1  0  0  0
 10 11  2  0  0  0
 11 12  1  0  0  0
 11 17  1  0  0  0
 12 13  2  0  0  0
 12 15  1  0  0  0
 13 14  1  0  0  0
 15 16  2  0  0  0
 16 17  1  0  0  0
 17  6  1  0  0  0
 25 28  1  0  0  0
 28 31  1  0  0  0
 28 29  1  0  0  0
 22  1  1  0  0  0
  1  2  1  0  0  0
  1  6  1  0  0  0
  2  3  1  0  0  0
  2  4  1  0  0  0
  4 32  1  0  0  0
  4  5  1  0  0  0
 32 33  1  0  0  0
  5  6  1  0  0  0
 30 31  1  0  0  0
 24 26  1  0  0  0
 24 27  1  0  0  0
 14 18  1  0  0  0
 14 19  1  0  0  0
 22 23  1  0  0  0
  3  7  1  0  0  0
 33 34  1  0  0  0
M  END
> <minimizedAffinity>
-8.94531

$$$$
5FOL_SO8_A_1544


 34 36  0  0  0  0  0  0  0  0999 V2000
   14.8134    3.2261   18.3529 C   0  0  0  0  0  0  0  0  0  0  0  0
   14.0417    4.4907   18.0496 C   0  0  0  0  0  0  0  0  0  0  0  0
   14.6075    5.6833   18.5653 O   0  0  0  0  0  0  0  0  0  0  0  0
   12.6897    4.1380   18.6812 C   0  0  0  0  0  0  0  0  0  0  0  0
   12.4552    2.7644   18.2906 O   0  0  0  0  0  0  0  0  0  0  0  0
   13.7133    2.1122   18.3295 C   0  0  0  0  0  0  0  0  0  0  0  0
   14.6968    5.6087   19.5282 H   0  0  0  0  0  0  0  0  0  0  0  0
   14.6985    1.8872   13.1960 N   0  0  0  0  0  0  0  0  0  0  0  0
   14.7839    3.0543   14.0424 C   0  0  0  0  0  0  0  0  0  0  0  0
   14.4795    2.8541   15.4472 N   0  0  0  0  0  0  0  0  0  0  0  0
   14.1024    1.6304   15.9370 C   0  0  0  0  0  0  0  0  0  0  0  0
   13.9993    0.4633   15.0592 C   0  0  0  0  0  0  0  0  0  0  0  0
   14.3466    0.6564   13.6298 C   0  0  0  0  0  0  0  0  0  0  0  0
   14.2899   -0.3678   12.7764 N   0  0  0  0  0  0  0  0  0  0  0  0
   13.6374   -0.5866   15.8153 N   0  0  0  0  0  0  0  0  0  0  0  0
   13.4865   -0.1246   17.0807 C   0  0  0  0  0  0  0  0  0  0  0  0
   13.7458    1.2242   17.1430 N   0  0  0  0  0  0  0  0  0  0  0  0
   14.5217   -0.2326   11.8292 H   0  0  0  0  0  0  0  0  0  0  0  0
   14.0163   -1.2586   13.0940 H   0  0  0  0  0  0  0  0  0  0  0  0
   16.6219    3.5965   20.0079 C   0  0  0  0  0  0  0  0  0  0  0  0
   17.3537    4.1277   19.2064 O   0  0  0  0  0  0  0  0  0  0  0  0
   15.3721    3.2010   19.7000 N   0  0  0  0  0  0  0  0  0  0  0  0
   14.7990    2.8742   20.4307 H   0  0  0  0  0  0  0  0  0  0  0  0
   18.4615    2.8874   21.4033 N   0  0  0  0  0  0  0  0  0  0  0  0
   17.0725    3.3551   21.4334 C   0  0  0  0  0  0  0  0  0  0  0  0
   18.5528    2.1370   20.7185 H   0  0  0  0  0  0  0  0  0  0  0  0
   18.7232    2.5395   22.3258 H   0  0  0  0  0  0  0  0  0  0  0  0
   16.9984    4.4746   22.4736 C   0  0  0  0  0  0  0  0  0  0  0  0
   15.6102    4.6239   23.1056 C   0  0  0  0  0  0  0  0  0  0  0  0
   17.7652    4.9616   24.8249 C   0  0  0  0  0  0  0  0  0  0  0  0
   18.1306    4.3264   23.5003 C   0  0  0  0  0  0  0  0  0  0  0  0
   11.5630    5.0601   18.2584 C   0  0  0  0  0  0  0  0  0  0  0  0
   11.8214    5.5193   16.9431 O   0  0  0  0  0  0  0  0  0  0  0  0
   12.6665    5.9952   16.9270 H   0  0  0  0  0  0  0  0  0  0  0  0
 20 21  2  0  0  0
 20 25  1  0  0  0
 20 22  1  0  0  0
 24 25  1  0  0  0
  8  9  2  0  0  0
  8 13  1  0  0  0
  9 10  1  0  0  0
 10 11  2  0  0  0
 11 12  1  0  0  0
 11 17  1  0  0  0
 12 13  2  0  0  0
 12 15  1  0  0  0
 13 14  1  0  0  0
 15 16  2  0  0  0
 16 17  1  0  0  0
 17  6  1  0  0  0
 25 28  1  0  0  0
 28 31  1  0  0  0
 28 29  1  0  0  0
 22  1  1  0  0  0
  1  2  1  0  0  0
  1  6  1  0  0  0
  2  3  1  0  0  0
  2  4  1  0  0  0
  4 32  1  0  0  0
  4  5  1  0  0  0
 32 33  1  0  0  0
  5  6  1  0  0  0
 30 31  1  0  0  0
 24 26  1  0  0  0
 24 27  1  0  0  0
 14 18  1  0  0  0
 14 19  1  0  0  0
 22 23  1  0  0  0
  3  7  1  0  0  0
 33 34  1  0  0  0
M  END
> <minimizedAffinity>
-8.90620

$$$$
5FOL_SO8_A_1544


 34 36  0  0  0  0  0  0  0  0999 V2000
   14.9648    3.0464   21.3941 C   0  0  0  0  0  0  0  0  0  0  0  0
   16.3732    3.3139   21.8754 C   0  0  0  0  0  0  0  0  0  0  0  0
   16.4800    4.2178   22.9616 O   0  0  0  0  0  0  0  0  0  0  0  0
   17.0029    3.8432   20.5814 C   0  0  0  0  0  0  0  0  0  0  0  0
   16.5025    2.9615   19.5486 O   0  0  0  0  0  0  0  0  0  0  0  0
   15.1600    2.6597   19.8895 C   0  0  0  0  0  0  0  0  0  0  0  0
   16.0793    5.0665   22.7166 H   0  0  0  0  0  0  0  0  0  0  0  0
   13.6139   -0.7649   16.2487 N   0  0  0  0  0  0  0  0  0  0  0  0
   13.6187    0.6748   16.1348 C   0  0  0  0  0  0  0  0  0  0  0  0
   14.1176    1.4095   17.2827 N   0  0  0  0  0  0  0  0  0  0  0  0
   14.5328    0.7719   18.4231 C   0  0  0  0  0  0  0  0  0  0  0  0
   14.4992   -0.6879   18.5286 C   0  0  0  0  0  0  0  0  0  0  0  0
   14.0255   -1.4433   17.3429 C   0  0  0  0  0  0  0  0  0  0  0  0
   13.9836   -2.7768   17.3638 N   0  0  0  0  0  0  0  0  0  0  0  0
   14.9830   -1.0220   19.7366 N   0  0  0  0  0  0  0  0  0  0  0  0
   15.2765    0.1370   20.3754 C   0  0  0  0  0  0  0  0  0  0  0  0
   14.9783    1.2207   19.5836 N   0  0  0  0  0  0  0  0  0  0  0  0
   13.6681   -3.2718   16.5734 H   0  0  0  0  0  0  0  0  0  0  0  0
   14.2683   -3.2657   18.1695 H   0  0  0  0  0  0  0  0  0  0  0  0
   12.9963    4.3687   22.1177 C   0  0  0  0  0  0  0  0  0  0  0  0
   12.6517    3.5526   22.9395 O   0  0  0  0  0  0  0  0  0  0  0  0
   14.1214    4.2364   21.3899 N   0  0  0  0  0  0  0  0  0  0  0  0
   14.3921    4.9910   20.8184 H   0  0  0  0  0  0  0  0  0  0  0  0
   12.9054    6.4648   20.9208 N   0  0  0  0  0  0  0  0  0  0  0  0
   12.1747    5.6159   21.8666 C   0  0  0  0  0  0  0  0  0  0  0  0
   13.8737    6.5598   21.2271 H   0  0  0  0  0  0  0  0  0  0  0  0
   12.4688    7.3858   20.8831 H   0  0  0  0  0  0  0  0  0  0  0  0
   10.7362    5.5109   21.3565 C   0  0  0  0  0  0  0  0  0  0  0  0
   10.5575    4.4562   20.2591 C   0  0  0  0  0  0  0  0  0  0  0  0
    8.3566    5.7594   22.1502 C   0  0  0  0  0  0  0  0  0  0  0  0
    9.7623    5.3481   22.5327 C   0  0  0  0  0  0  0  0  0  0  0  0
   18.5178    3.8898   20.6182 C   0  0  0  0  0  0  0  0  0  0  0  0
   18.9699    3.1070   21.7093 O   0  0  0  0  0  0  0  0  0  0  0  0
   18.6045    3.4615   22.5349 H   0  0  0  0  0  0  0  0  0  0  0  0
 20 21  2  0  0  0
 20 25  1  0  0  0
 20 22  1  0  0  0
 24 25  1  0  0  0
  8  9  2  0  0  0
  8 13  1  0  0  0
  9 10  1  0  0  0
 10 11  2  0  0  0
 11 12  1  0  0  0
 11 17  1  0  0  0
 12 13  2  0  0  0
 12 15  1  0  0  0
 13 14  1  0  0  0
 15 16  2  0  0  0
 16 17  1  0  0  0
 17  6  1  0  0  0
 25 28  1  0  0  0
 28 31  1  0  0  0
 28 29  1  0  0  0
 22  1  1  0  0  0
  1  2  1  0  0  0
  1  6  1  0  0  0
  2  3  1  0  0  0
  2  4  1  0  0  0
  4 32  1  0  0  0
  4  5  1  0  0  0
 32 33  1  0  0  0
  5  6  1  0  0  0
 30 31  1  0  0  0
 24 26  1  0  0  0
 24 27  1  0  0  0
 14 18  1  0  0  0
 14 19  1  0  0  0
 22 23  1  0  0  0
  3  7  1  0  0  0
 33 34  1  0  0  0
M  END
> <minimizedAffinity>
-8.79689

$$$$
5FOL_SO8_A_1544


 34 36  0  0  0  0  0  0  0  0999 V2000
   14.2830    0.6453   18.0589 C   0  0  0  0  0  0  0  0  0  0  0  0
   14.1327   -0.8556   18.1674 C   0  0  0  0  0  0  0  0  0  0  0  0
   14.6511   -1.5961   17.0760 O   0  0  0  0  0  0  0  0  0  0  0  0
   12.6094   -0.9635   18.3048 C   0  0  0  0  0  0  0  0  0  0  0  0
   12.2530    0.0966   19.2234 O   0  0  0  0  0  0  0  0  0  0  0  0
   13.0974    1.1945   18.9216 C   0  0  0  0  0  0  0  0  0  0  0  0
   14.2195   -1.3088   16.2562 H   0  0  0  0  0  0  0  0  0  0  0  0
   15.1468    5.3896   21.2827 N   0  0  0  0  0  0  0  0  0  0  0  0
   14.9319    5.2141   19.8654 C   0  0  0  0  0  0  0  0  0  0  0  0
   14.3249    3.9607   19.4570 N   0  0  0  0  0  0  0  0  0  0  0  0
   14.0018    2.9854   20.3647 C   0  0  0  0  0  0  0  0  0  0  0  0
   14.2482    3.1722   21.7956 C   0  0  0  0  0  0  0  0  0  0  0  0
   14.8335    4.4676   22.2201 C   0  0  0  0  0  0  0  0  0  0  0  0
   15.0701    4.7118   23.5104 N   0  0  0  0  0  0  0  0  0  0  0  0
   13.8124    2.0726   22.4327 N   0  0  0  0  0  0  0  0  0  0  0  0
   13.3491    1.2259   21.4808 C   0  0  0  0  0  0  0  0  0  0  0  0
   13.4894    1.7749   20.2281 N   0  0  0  0  0  0  0  0  0  0  0  0
   15.4587    5.5736   23.7851 H   0  0  0  0  0  0  0  0  0  0  0  0
   14.8560    4.0301   24.1877 H   0  0  0  0  0  0  0  0  0  0  0  0
   14.7781    2.1352   16.1401 C   0  0  0  0  0  0  0  0  0  0  0  0
   15.7642    2.6041   16.6576 O   0  0  0  0  0  0  0  0  0  0  0  0
   14.0570    1.1510   16.7096 N   0  0  0  0  0  0  0  0  0  0  0  0
   13.3309    0.7469   16.1816 H   0  0  0  0  0  0  0  0  0  0  0  0
   14.7533    4.0099   14.6170 N   0  0  0  0  0  0  0  0  0  0  0  0
   14.2981    2.6271   14.7906 C   0  0  0  0  0  0  0  0  0  0  0  0
   14.5276    4.5495   15.4527 H   0  0  0  0  0  0  0  0  0  0  0  0
   14.2865    4.4226   13.8095 H   0  0  0  0  0  0  0  0  0  0  0  0
   14.6625    1.8709   13.5116 C   0  0  0  0  0  0  0  0  0  0  0  0
   16.1361    2.0204   13.1178 C   0  0  0  0  0  0  0  0  0  0  0  0
   15.1270   -0.5184   12.8561 C   0  0  0  0  0  0  0  0  0  0  0  0
   14.1933    0.4114   13.6011 C   0  0  0  0  0  0  0  0  0  0  0  0
   12.1374   -2.3236   18.7799 C   0  0  0  0  0  0  0  0  0  0  0  0
   12.4042   -3.2766   17.7659 O   0  0  0  0  0  0  0  0  0  0  0  0
   11.9359   -3.0251   16.9545 H   0  0  0  0  0  0  0  0  0  0  0  0
 20 21  2  0  0  0
 20 25  1  0  0  0
 20 22  1  0  0  0
 24 25  1  0  0  0
  8  9  2  0  0  0
  8 13  1  0  0  0
  9 10  1  0  0  0
 10 11  2  0  0  0
 11 12  1  0  0  0
 11 17  1  0  0  0
 12 13  2  0  0  0
 12 15  1  0  0  0
 13 14  1  0  0  0
 15 16  2  0  0  0
 16 17  1  0  0  0
 17  6  1  0  0  0
 25 28  1  0  0  0
 28 31  1  0  0  0
 28 29  1  0  0  0
 22  1  1  0  0  0
  1  2  1  0  0  0
  1  6  1  0  0  0
  2  3  1  0  0  0
  2  4  1  0  0  0
  4 32  1  0  0  0
  4  5  1  0  0  0
 32 33  1  0  0  0
  5  6  1  0  0  0
 30 31  1  0  0  0
 24 26  1  0  0  0
 24 27  1  0  0  0
 14 18  1  0  0  0
 14 19  1  0  0  0
 22 23  1  0  0  0
  3  7  1  0  0  0
 33 34  1  0  0  0
M  END
> <minimizedAffinity>
-8.44211

$$$$
5FOL_SO8_A_1544


 34 36  0  0  0  0  0  0  0  0999 V2000
   14.8526    3.5617   19.8094 C   0  0  0  0  0  0  0  0  0  0  0  0
   16.1834    4.1540   20.2154 C   0  0  0  0  0  0  0  0  0  0  0  0
   17.1277    4.2952   19.1681 O   0  0  0  0  0  0  0  0  0  0  0  0
   16.6115    3.1435   21.2862 C   0  0  0  0  0  0  0  0  0  0  0  0
   15.4082    2.8955   22.0511 O   0  0  0  0  0  0  0  0  0  0  0  0
   14.3341    2.8913   21.1260 C   0  0  0  0  0  0  0  0  0  0  0  0
   17.2943    3.4292   18.7641 H   0  0  0  0  0  0  0  0  0  0  0  0
    9.4540    4.6846   20.5412 N   0  0  0  0  0  0  0  0  0  0  0  0
   10.2479    3.9992   19.5485 C   0  0  0  0  0  0  0  0  0  0  0  0
   11.5741    3.5795   19.9626 N   0  0  0  0  0  0  0  0  0  0  0  0
   12.0567    3.8465   21.2177 C   0  0  0  0  0  0  0  0  0  0  0  0
   11.2454    4.5628   22.2036 C   0  0  0  0  0  0  0  0  0  0  0  0
    9.8754    4.9597   21.7957 C   0  0  0  0  0  0  0  0  0  0  0  0
    9.0755    5.6017   22.6493 N   0  0  0  0  0  0  0  0  0  0  0  0
   11.9636    4.6547   23.3353 N   0  0  0  0  0  0  0  0  0  0  0  0
   13.1613    4.0700   23.0879 C   0  0  0  0  0  0  0  0  0  0  0  0
   13.2203    3.6043   21.7956 N   0  0  0  0  0  0  0  0  0  0  0  0
    8.1675    5.8621   22.3720 H   0  0  0  0  0  0  0  0  0  0  0  0
    9.3934    5.8149   23.5563 H   0  0  0  0  0  0  0  0  0  0  0  0
   14.2805    2.4166   17.6860 C   0  0  0  0  0  0  0  0  0  0  0  0
   13.5797    3.3204   17.2962 O   0  0  0  0  0  0  0  0  0  0  0  0
   14.9753    2.4808   18.8377 N   0  0  0  0  0  0  0  0  0  0  0  0
   15.6063    1.7518   19.0365 H   0  0  0  0  0  0  0  0  0  0  0  0
   13.8741    0.0357   17.6607 N   0  0  0  0  0  0  0  0  0  0  0  0
   14.4309    1.1440   16.8791 C   0  0  0  0  0  0  0  0  0  0  0  0
   14.2446    0.0697   18.6104 H   0  0  0  0  0  0  0  0  0  0  0  0
   14.1327   -0.8502   17.2264 H   0  0  0  0  0  0  0  0  0  0  0  0
   13.8416    1.0407   15.4710 C   0  0  0  0  0  0  0  0  0  0  0  0
   14.6198    1.8492   14.4273 C   0  0  0  0  0  0  0  0  0  0  0  0
   13.9597   -0.6710   13.6243 C   0  0  0  0  0  0  0  0  0  0  0  0
   13.6368   -0.4311   15.0837 C   0  0  0  0  0  0  0  0  0  0  0  0
   17.7584    3.6259   22.1523 C   0  0  0  0  0  0  0  0  0  0  0  0
   17.7076    5.0399   22.2271 O   0  0  0  0  0  0  0  0  0  0  0  0
   17.7823    5.4137   21.3352 H   0  0  0  0  0  0  0  0  0  0  0  0
 20 21  2  0  0  0
 20 25  1  0  0  0
 20 22  1  0  0  0
 24 25  1  0  0  0
  8  9  2  0  0  0
  8 13  1  0  0  0
  9 10  1  0  0  0
 10 11  2  0  0  0
 11 12  1  0  0  0
 11 17  1  0  0  0
 12 13  2  0  0  0
 12 15  1  0  0  0
 13 14  1  0  0  0
 15 16  2  0  0  0
 16 17  1  0  0  0
 17  6  1  0  0  0
 25 28  1  0  0  0
 28 31  1  0  0  0
 28 29  1  0  0  0
 22  1  1  0  0  0
  1  2  1  0  0  0
  1  6  1  0  0  0
  2  3  1  0  0  0
  2  4  1  0  0  0
  4 32  1  0  0  0
  4  5  1  0  0  0
 32 33  1  0  0  0
  5  6  1  0  0  0
 30 31  1  0  0  0
 24 26  1  0  0  0
 24 27  1  0  0  0
 14 18  1  0  0  0
 14 19  1  0  0  0
 22 23  1  0  0  0
  3  7  1  0  0  0
 33 34  1  0  0  0
M  END
> <minimizedAffinity>
-8.43005

$$$$
5FOL_SO8_A_1544


 34 36  0  0  0  0  0  0  0  0999 V2000
   13.4323    2.4194   20.2772 C   0  0  0  0  0  0  0  0  0  0  0  0
   12.5895    3.3831   19.4723 C   0  0  0  0  0  0  0  0  0  0  0  0
   11.5444    2.7907   18.7205 O   0  0  0  0  0  0  0  0  0  0  0  0
   13.6750    4.0256   18.6006 C   0  0  0  0  0  0  0  0  0  0  0  0
   14.7782    4.2567   19.5084 O   0  0  0  0  0  0  0  0  0  0  0  0
   14.8119    3.1505   20.3943 C   0  0  0  0  0  0  0  0  0  0  0  0
   11.9165    2.1344   18.1108 H   0  0  0  0  0  0  0  0  0  0  0  0
   18.6075    4.9558   23.5100 N   0  0  0  0  0  0  0  0  0  0  0  0
   18.7602    4.4476   22.1668 C   0  0  0  0  0  0  0  0  0  0  0  0
   17.5445    4.0229   21.4975 N   0  0  0  0  0  0  0  0  0  0  0  0
   16.3231    4.0735   22.1182 C   0  0  0  0  0  0  0  0  0  0  0  0
   16.1912    4.5706   23.4888 C   0  0  0  0  0  0  0  0  0  0  0  0
   17.4266    5.0410   24.1621 C   0  0  0  0  0  0  0  0  0  0  0  0
   17.3773    5.5212   25.4061 N   0  0  0  0  0  0  0  0  0  0  0  0
   14.8891    4.5253   23.8168 N   0  0  0  0  0  0  0  0  0  0  0  0
   14.2339    4.0072   22.7493 C   0  0  0  0  0  0  0  0  0  0  0  0
   15.1116    3.7127   21.7327 N   0  0  0  0  0  0  0  0  0  0  0  0
   18.2010    5.8317   25.8469 H   0  0  0  0  0  0  0  0  0  0  0  0
   16.5172    5.5652   25.8830 H   0  0  0  0  0  0  0  0  0  0  0  0
   12.9141    0.0818   19.6339 C   0  0  0  0  0  0  0  0  0  0  0  0
   11.8344    0.0889   20.1762 O   0  0  0  0  0  0  0  0  0  0  0  0
   13.7058    1.1695   19.5770 N   0  0  0  0  0  0  0  0  0  0  0  0
   14.5212    1.1178   19.0277 H   0  0  0  0  0  0  0  0  0  0  0  0
   12.3882   -2.1899   19.0034 N   0  0  0  0  0  0  0  0  0  0  0  0
   13.4403   -1.1698   18.9629 C   0  0  0  0  0  0  0  0  0  0  0  0
   12.0119   -2.2528   19.9494 H   0  0  0  0  0  0  0  0  0  0  0  0
   12.7789   -3.0922   18.7321 H   0  0  0  0  0  0  0  0  0  0  0  0
   13.9636   -1.1216   17.5261 C   0  0  0  0  0  0  0  0  0  0  0  0
   14.4053   -2.4898   16.9955 C   0  0  0  0  0  0  0  0  0  0  0  0
   13.6419    0.6243   15.7366 C   0  0  0  0  0  0  0  0  0  0  0  0
   12.9586   -0.4020   16.6149 C   0  0  0  0  0  0  0  0  0  0  0  0
   13.2230    5.2943   17.9046 C   0  0  0  0  0  0  0  0  0  0  0  0
   11.9365    5.0758   17.3526 O   0  0  0  0  0  0  0  0  0  0  0  0
   11.9771    4.3430   16.7182 H   0  0  0  0  0  0  0  0  0  0  0  0
 20 21  2  0  0  0
 20 25  1  0  0  0
 20 22  1  0  0  0
 24 25  1  0  0  0
  8  9  2  0  0  0
  8 13  1  0  0  0
  9 10  1  0  0  0
 10 11  2  0  0  0
 11 12  1  0  0  0
 11 17  1  0  0  0
 12 13  2  0  0  0
 12 15  1  0  0  0
 13 14  1  0  0  0
 15 16  2  0  0  0
 16 17  1  0  0  0
 17  6  1  0  0  0
 25 28  1  0  0  0
 28 31  1  0  0  0
 28 29  1  0  0  0
 22  1  1  0  0  0
  1  2  1  0  0  0
  1  6  1  0  0  0
  2  3  1  0  0  0
  2  4  1  0  0  0
  4 32  1  0  0  0
  4  5  1  0  0  0
 32 33  1  0  0  0
  5  6  1  0  0  0
 30 31  1  0  0  0
 24 26  1  0  0  0
 24 27  1  0  0  0
 14 18  1  0  0  0
 14 19  1  0  0  0
 22 23  1  0  0  0
  3  7  1  0  0  0
 33 34  1  0  0  0
M  END
> <minimizedAffinity>
-8.41230

$$$$
5FOL_SO8_A_1544


 34 36  0  0  0  0  0  0  0  0999 V2000
   14.8552    2.1306   20.2023 C   0  0  0  0  0  0  0  0  0  0  0  0
   16.3629    2.1795   20.3083 C   0  0  0  0  0  0  0  0  0  0  0  0
   16.8776    2.1631   21.6285 O   0  0  0  0  0  0  0  0  0  0  0  0
   16.6418    3.4910   19.5646 C   0  0  0  0  0  0  0  0  0  0  0  0
   15.7709    3.4442   18.4097 O   0  0  0  0  0  0  0  0  0  0  0  0
   14.5614    2.8421   18.8389 C   0  0  0  0  0  0  0  0  0  0  0  0
   16.5164    2.9135   22.1257 H   0  0  0  0  0  0  0  0  0  0  0  0
   10.9291   -0.5827   17.2733 N   0  0  0  0  0  0  0  0  0  0  0  0
   10.9676    0.1209   18.5339 C   0  0  0  0  0  0  0  0  0  0  0  0
   12.0747    1.0399   18.7244 N   0  0  0  0  0  0  0  0  0  0  0  0
   13.0461    1.2074   17.7716 C   0  0  0  0  0  0  0  0  0  0  0  0
   13.0025    0.4681   16.5088 C   0  0  0  0  0  0  0  0  0  0  0  0
   11.8518   -0.4436   16.2954 C   0  0  0  0  0  0  0  0  0  0  0  0
   11.7403   -1.1368   15.1607 N   0  0  0  0  0  0  0  0  0  0  0  0
   14.0591    0.8522   15.7733 N   0  0  0  0  0  0  0  0  0  0  0  0
   14.7508    1.7482   16.5191 C   0  0  0  0  0  0  0  0  0  0  0  0
   14.1452    1.9404   17.7384 N   0  0  0  0  0  0  0  0  0  0  0  0
   10.9741   -1.7401   15.0257 H   0  0  0  0  0  0  0  0  0  0  0  0
   12.4242   -1.0450   14.4585 H   0  0  0  0  0  0  0  0  0  0  0  0
   13.3500    2.4240   22.1505 C   0  0  0  0  0  0  0  0  0  0  0  0
   13.1886    1.2364   22.3042 O   0  0  0  0  0  0  0  0  0  0  0  0
   14.1799    2.9298   21.2185 N   0  0  0  0  0  0  0  0  0  0  0  0
   14.3411    3.9010   21.2232 H   0  0  0  0  0  0  0  0  0  0  0  0
   13.5541    3.8883   24.0607 N   0  0  0  0  0  0  0  0  0  0  0  0
   12.6261    3.4278   23.0234 C   0  0  0  0  0  0  0  0  0  0  0  0
   14.0042    3.0831   24.4961 H   0  0  0  0  0  0  0  0  0  0  0  0
   13.0401    4.4140   24.7677 H   0  0  0  0  0  0  0  0  0  0  0  0
   11.9849    4.6738   22.4096 C   0  0  0  0  0  0  0  0  0  0  0  0
   10.6322    5.0303   23.0355 C   0  0  0  0  0  0  0  0  0  0  0  0
   13.2036    6.3681   20.9960 C   0  0  0  0  0  0  0  0  0  0  0  0
   12.9850    5.8391   22.3974 C   0  0  0  0  0  0  0  0  0  0  0  0
   18.0976    3.6756   19.1841 C   0  0  0  0  0  0  0  0  0  0  0  0
   18.7594    4.3555   20.2365 O   0  0  0  0  0  0  0  0  0  0  0  0
   18.3392    5.2181   20.3787 H   0  0  0  0  0  0  0  0  0  0  0  0
 20 21  2  0  0  0
 20 25  1  0  0  0
 20 22  1  0  0  0
 24 25  1  0  0  0
  8  9  2  0  0  0
  8 13  1  0  0  0
  9 10  1  0  0  0
 10 11  2  0  0  0
 11 12  1  0  0  0
 11 17  1  0  0  0
 12 13  2  0  0  0
 12 15  1  0  0  0
 13 14  1  0  0  0
 15 16  2  0  0  0
 16 17  1  0  0  0
 17  6  1  0  0  0
 25 28  1  0  0  0
 28 31  1  0  0  0
 28 29  1  0  0  0
 22  1  1  0  0  0
  1  2  1  0  0  0
  1  6  1  0  0  0
  2  3  1  0  0  0
  2  4  1  0  0  0
  4 32  1  0  0  0
  4  5  1  0  0  0
 32 33  1  0  0  0
  5  6  1  0  0  0
 30 31  1  0  0  0
 24 26  1  0  0  0
 24 27  1  0  0  0
 14 18  1  0  0  0
 14 19  1  0  0  0
 22 23  1  0  0  0
  3  7  1  0  0  0
 33 34  1  0  0  0
M  END
> <minimizedAffinity>
-8.38855

$$$$
5FOL_SO8_A_1544


 34 36  0  0  0  0  0  0  0  0999 V2000
   15.5779    2.6270   19.3224 C   0  0  0  0  0  0  0  0  0  0  0  0
   15.7922    3.1446   17.9178 C   0  0  0  0  0  0  0  0  0  0  0  0
   16.8599    4.0643   17.7680 O   0  0  0  0  0  0  0  0  0  0  0  0
   14.4158    3.7637   17.6470 C   0  0  0  0  0  0  0  0  0  0  0  0
   13.4749    2.7967   18.1707 O   0  0  0  0  0  0  0  0  0  0  0  0
   14.0548    2.2656   19.3503 C   0  0  0  0  0  0  0  0  0  0  0  0
   16.7146    4.8261   18.3507 H   0  0  0  0  0  0  0  0  0  0  0  0
   10.3448   -1.3112   18.4468 N   0  0  0  0  0  0  0  0  0  0  0  0
   10.2032    0.1231   18.3560 C   0  0  0  0  0  0  0  0  0  0  0  0
   11.3926    0.9062   18.6362 N   0  0  0  0  0  0  0  0  0  0  0  0
   12.5767    0.3168   18.9966 C   0  0  0  0  0  0  0  0  0  0  0  0
   12.6950   -1.1383   19.1057 C   0  0  0  0  0  0  0  0  0  0  0  0
   11.4914   -1.9432   18.7830 C   0  0  0  0  0  0  0  0  0  0  0  0
   11.5324   -3.2755   18.8463 N   0  0  0  0  0  0  0  0  0  0  0  0
   13.9631   -1.4211   19.4479 N   0  0  0  0  0  0  0  0  0  0  0  0
   14.6066   -0.2356   19.5814 C   0  0  0  0  0  0  0  0  0  0  0  0
   13.7547    0.8141   19.3307 N   0  0  0  0  0  0  0  0  0  0  0  0
   10.7299   -3.8035   18.6309 H   0  0  0  0  0  0  0  0  0  0  0  0
   12.3652   -3.7304   19.1084 H   0  0  0  0  0  0  0  0  0  0  0  0
   16.0428    3.3847   21.6369 C   0  0  0  0  0  0  0  0  0  0  0  0
   16.2945    2.2718   22.0344 O   0  0  0  0  0  0  0  0  0  0  0  0
   15.7602    3.6489   20.3471 N   0  0  0  0  0  0  0  0  0  0  0  0
   15.6709    4.5919   20.0787 H   0  0  0  0  0  0  0  0  0  0  0  0
   15.1609    4.2591   23.7086 N   0  0  0  0  0  0  0  0  0  0  0  0
   16.0459    4.5684   22.5816 C   0  0  0  0  0  0  0  0  0  0  0  0
   14.2713    3.9063   23.3555 H   0  0  0  0  0  0  0  0  0  0  0  0
   14.9983    5.1048   24.2552 H   0  0  0  0  0  0  0  0  0  0  0  0
   17.3575    5.0906   23.1711 C   0  0  0  0  0  0  0  0  0  0  0  0
   17.2943    5.3155   24.6857 C   0  0  0  0  0  0  0  0  0  0  0  0
   19.3020    4.8384   21.5870 C   0  0  0  0  0  0  0  0  0  0  0  0
   18.5325    4.2069   22.7275 C   0  0  0  0  0  0  0  0  0  0  0  0
   14.1684    4.0781   16.1847 C   0  0  0  0  0  0  0  0  0  0  0  0
   15.0910    3.3430   15.3998 O   0  0  0  0  0  0  0  0  0  0  0  0
   15.9955    3.5916   15.6466 H   0  0  0  0  0  0  0  0  0  0  0  0
 20 21  2  0  0  0
 20 25  1  0  0  0
 20 22  1  0  0  0
 24 25  1  0  0  0
  8  9  2  0  0  0
  8 13  1  0  0  0
  9 10  1  0  0  0
 10 11  2  0  0  0
 11 12  1  0  0  0
 11 17  1  0  0  0
 12 13  2  0  0  0
 12 15  1  0  0  0
 13 14  1  0  0  0
 15 16  2  0  0  0
 16 17  1  0  0  0
 17  6  1  0  0  0
 25 28  1  0  0  0
 28 31  1  0  0  0
 28 29  1  0  0  0
 22  1  1  0  0  0
  1  2  1  0  0  0
  1  6  1  0  0  0
  2  3  1  0  0  0
  2  4  1  0  0  0
  4 32  1  0  0  0
  4  5  1  0  0  0
 32 33  1  0  0  0
  5  6  1  0  0  0
 30 31  1  0  0  0
 24 26  1  0  0  0
 24 27  1  0  0  0
 14 18  1  0  0  0
 14 19  1  0  0  0
 22 23  1  0  0  0
  3  7  1  0  0  0
 33 34  1  0  0  0
M  END
> <minimizedAffinity>
-8.27088

$$$$
