6C7X_EO7_A_302
  RCSB PDB05261800293D
Coordinates from PDB:6C7X:A:302 Model:1 without hydrogens
 24 26  0  0  0  0            999 V2000
   -1.7740    5.4330   12.6740   C 0  0  0  0  0  0  0  0  0  0  0  0
   -0.7110    7.2380   12.9360   C 0  0  0  0  0  0  0  0  0  0  0  0
   -1.9030    7.3760   13.5970   C 0  0  0  0  0  0  0  0  0  0  0  0
    0.2190    8.2550   12.9210   C 0  0  0  0  0  0  0  0  0  0  0  0
   -1.2950    9.3740   14.1630   C 0  0  0  0  0  0  0  0  0  0  0  0
   -4.8080    3.7940   12.9950   C 0  0  0  0  0  0  0  0  0  0  0  0
   -4.8780    5.3270   12.8520   C 0  0  0  0  0  0  0  0  0  0  0  0
   -4.8430    3.7190   14.4710   C 0  0  0  0  0  0  0  0  0  0  0  0
   -3.9470    5.8100   13.8890   C 0  0  0  0  0  0  0  0  0  0  0  0
   -4.2210    2.4340   14.9440   C 0  0  0  0  0  0  0  0  0  0  0  0
   -0.6450    6.0100   12.3600   N 0  0  0  0  0  0  0  0  0  0  0  0
   -2.2710    8.4620   14.2480   N 0  0  0  0  0  0  0  0  0  0  0  0
   -0.0940    9.3740   13.5840   N 0  0  0  0  0  0  0  0  0  0  0  0
   -2.6120    6.2150   13.4100   N 0  0  0  0  0  0  0  0  0  0  0  0
    1.4330    8.0870   12.2500   N 0  0  0  0  0  0  0  0  0  0  0  0
   -5.3550   -0.1940   16.3290   N 0  0  0  0  0  0  0  0  0  0  0  0
   -5.3180    1.4370   18.2180   O 0  0  0  0  0  0  0  0  0  0  0  0
   -6.8220    1.8380   16.3340   O 0  0  0  0  0  0  0  0  0  0  0  0
   -3.9110    4.7580   14.8290   O 0  0  0  0  0  0  0  0  0  0  0  0
   -5.9140    3.1550   12.4230   O 0  0  0  0  0  0  0  0  0  0  0  0
   -6.1810    5.8570   13.2330   O 0  0  0  0  0  0  0  0  0  0  0  0
   -4.4020    2.1430   16.2740   O 0  0  0  0  0  0  0  0  0  0  0  0
   -5.6260    1.2880   16.8420   S 0  0  0  0  0  0  0  0  0  0  0  0
   -1.6330   10.8340   14.9600  Cl 0  0  0  0  0  0  0  0  0  0  0  0
 15  4  1  0  0  0  0
 11  1  2  0  0  0  0
 11  2  1  0  0  0  0
 20  6  1  0  0  0  0
  1 14  1  0  0  0  0
  7  6  1  0  0  0  0
  7 21  1  0  0  0  0
  7  9  1  0  0  0  0
  4  2  2  0  0  0  0
  4 13  1  0  0  0  0
  2  3  1  0  0  0  0
  6  8  1  0  0  0  0
 14  3  1  0  0  0  0
 14  9  1  0  0  0  0
 13  5  2  0  0  0  0
  3 12  2  0  0  0  0
  9 19  1  0  0  0  0
  5 12  1  0  0  0  0
  5 24  1  0  0  0  0
  8 19  1  0  0  0  0
  8 10  1  0  0  0  0
 10 22  1  0  0  0  0
 22 23  1  0  0  0  0
 16 23  1  0  0  0  0
 18 23  2  0  0  0  0
 23 17  2  0  0  0  0
A    1
C19
A    2
C22
A    3
C21
A    4
C23
A    5
C26
A    6
C4
A    7
C2
A    8
C7
A    9
C16
A   10
C9
A   11
N20
A   12
N28
A   13
N25
A   14
N18
A   15
N24
A   16
N13
A   17
O12
A   18
O14
A   19
O15
A   20
O6
A   21
O1
A   22
O10
A   23
S11
A   24
CL
M  END
>  <InstanceId>
6C7X_EO7_A_302

>  <ChemCompId>
EO7

>  <PdbId>
6C7X

>  <ChainId>
A

>  <ResidueNumber>
302

>  <InsertionCode>


>  <Model>
1

>  <AltIds>


>  <MissingHeavyAtoms>
0

>  <ObservedFormula>
C10 N6 O6 S Cl

>  <Name>
2-chloro-5'-O-sulfamoyladenosine

>  <SystematicName>
[(2~{R},3~{S},4~{R},5~{R})-5-(6-azanyl-2-chloranyl-purin-9-yl)-3,4-bis(oxidanyl)oxolan-2-yl]methyl sulfamate

>  <Synonyms>


>  <Type>
NON-POLYMER

>  <Formula>
C10 H13 Cl N6 O6 S

>  <MolecularWeight>
380.765

>  <ModifiedDate>
2018-05-18

>  <Parent>


>  <OneLetterCode>


>  <SubcomponentList>


>  <AmbiguousFlag>
N

>  <InChI>
InChI=1S/C10H13ClN6O6S/c11-10-15-7(12)4-8(16-10)17(2-14-4)9-6(19)5(18)3(23-9)1-22-24(13,20)21/h2-3,5-6,9,18-19H,1H2,(H2,12,15,16)(H2,13,20,21)/t3-,5-,6-,9-/m1/s1

>  <InChIKey>
JHUGCRSKMUFKHR-UUOKFMHZSA-N

>  <SMILES>
c1nc2c(nc(nc2n1[C@H]3[C@@H]([C@@H]([C@H](O3)COS(=O)(=O)N)O)O)Cl)N

$$$$
