3CDA_8HI_A_2


 51 54  0  0  0  0  0  0  0  0999 V2000
   18.2684   23.8001   15.6324 C   0  0  0  0  0  0  0  0  0  0  0  0
   18.1553   23.5341   14.2807 C   0  0  0  0  0  0  0  0  0  0  0  0
   20.1577   24.4239   14.6519 C   0  0  0  0  0  0  0  0  0  0  0  0
   19.3258   23.9195   13.7065 N   0  0  0  0  0  0  0  0  0  0  0  0
   19.5110   24.3084   15.8808 C   0  0  0  0  0  0  0  0  0  0  0  0
   16.3693   24.4484   17.1819 C   0  0  0  0  0  0  0  0  0  0  0  0
   15.4066   24.0692   18.1220 C   0  0  0  0  0  0  0  0  0  0  0  0
   17.2143   23.4883   16.6435 C   0  0  0  0  0  0  0  0  0  0  0  0
   17.1107   22.1620   17.0584 C   0  0  0  0  0  0  0  0  0  0  0  0
   16.1603   21.7823   17.9999 C   0  0  0  0  0  0  0  0  0  0  0  0
   15.3085   22.7419   18.5326 C   0  0  0  0  0  0  0  0  0  0  0  0
   14.3875   22.3738   19.4388 F   0  0  0  0  0  0  0  0  0  0  0  0
   19.9791   24.7515   17.2290 C   0  0  0  0  0  0  0  0  0  0  0  0
   20.8144   25.7315   19.7223 C   0  0  0  0  0  0  0  0  0  0  0  0
   20.1499   23.8843   18.2997 C   0  0  0  0  0  0  0  0  0  0  0  0
   20.2072   26.1177   17.4244 C   0  0  0  0  0  0  0  0  0  0  0  0
   20.6342   26.6111   18.6580 C   0  0  0  0  0  0  0  0  0  0  0  0
   20.5744   24.3716   19.5375 C   0  0  0  0  0  0  0  0  0  0  0  0
   21.7685   26.2215   14.2378 N   0  0  0  0  0  0  0  0  0  0  0  0
   21.5553   24.9234   14.4600 C   0  0  0  0  0  0  0  0  0  0  0  0
   22.3466   24.0633   14.1156 O   0  0  0  0  0  0  0  0  0  0  0  0
   20.9930   26.8228   14.3169 H   0  0  0  0  0  0  0  0  0  0  0  0
   22.9645   26.7905   13.9111 C   0  0  0  0  0  0  0  0  0  0  0  0
   25.4810   27.9830   13.4961 C   0  0  0  0  0  0  0  0  0  0  0  0
   24.5570   27.8920   12.4478 C   0  0  0  0  0  0  0  0  0  0  0  0
   23.3004   27.3059   12.6518 C   0  0  0  0  0  0  0  0  0  0  0  0
   23.8898   26.8981   14.9483 C   0  0  0  0  0  0  0  0  0  0  0  0
   25.1416   27.4735   14.7474 C   0  0  0  0  0  0  0  0  0  0  0  0
   26.9344   28.6288   13.3003 S   0  0  0  0  0  0  0  0  0  0  0  0
   27.6501   28.0339   12.2152 O   0  0  0  0  0  0  0  0  0  0  0  0
   26.8005   30.0441   13.0719 O   0  0  0  0  0  0  0  0  0  0  0  0
   27.7167   28.4263   14.6807 N   0  0  0  0  0  0  0  0  0  0  0  0
   27.1874   28.8584   15.4380 H   0  0  0  0  0  0  0  0  0  0  0  0
   28.6368   28.8619   14.6173 H   0  0  0  0  0  0  0  0  0  0  0  0
   19.8315   25.2155   11.6428 C   0  0  0  0  0  0  0  0  0  0  0  0
   19.5687   23.8261   12.2255 C   0  0  0  0  0  0  0  0  0  0  0  0
   20.6462   22.8115   11.8807 C   0  0  0  0  0  0  0  0  0  0  0  0
   16.9435   22.9636   13.5837 C   0  0  0  0  0  0  0  0  0  0  0  0
   17.1824   21.5603   13.0699 C   0  0  0  0  0  0  0  0  0  0  0  0
   15.8495   20.9057   12.7037 C   0  0  0  0  0  0  0  0  0  0  0  0
   15.4172   21.3736   11.4359 O   0  0  0  0  0  0  0  0  0  0  0  0
   16.0786   21.1450   10.7641 H   0  0  0  0  0  0  0  0  0  0  0  0
   16.0276   19.4001   12.6196 C   0  0  0  0  0  0  0  0  0  0  0  0
   15.0865   18.6845   13.5719 C   0  0  0  0  0  0  0  0  0  0  0  0
   14.9654   17.3430   13.1435 O   0  0  0  0  0  0  0  0  0  0  0  0
   15.8392   16.9218   13.1485 H   0  0  0  0  0  0  0  0  0  0  0  0
   15.6302   18.7454   14.9902 C   0  0  0  0  0  0  0  0  0  0  0  0
   17.0802   16.8858   15.2349 O   0  0  0  0  0  0  0  0  0  0  0  0
   15.9614   17.3505   15.4390 C   0  0  0  0  0  0  0  0  0  0  0  0
   15.0434   16.6415   16.0836 O   0  0  0  0  0  0  0  0  0  0  0  0
   17.7223   17.3935   14.7789 H   0  0  0  0  0  0  0  0  0  0  0  0
 20 19  1  0  0  0
 19 23  1  0  0  0
  7  6  2  0  0  0
  6  8  1  0  0  0
 11  7  1  0  0  0
  8  1  1  0  0  0
  1  2  2  0  0  0
  1  5  1  0  0  0
 38  2  1  0  0  0
  2  4  1  0  0  0
  5  3  2  0  0  0
  4  3  1  0  0  0
  3 20  1  0  0  0
 15 13  2  0  0  0
 13  5  1  0  0  0
 13 16  1  0  0  0
 18 14  2  0  0  0
 14 17  1  0  0  0
 18 15  1  0  0  0
 23 27  2  0  0  0
 23 26  1  0  0  0
 28 24  2  0  0  0
 25 24  1  0  0  0
 24 29  1  0  0  0
 26 25  2  0  0  0
 36 35  1  0  0  0
 38 39  1  0  0  0
 43 40  1  0  0  0
 40 41  1  0  0  0
 40 39  1  0  0  0
 49 48  1  0  0  0
 50 49  2  0  0  0
 49 47  1  0  0  0
 47 44  1  0  0  0
 45 44  1  0  0  0
 44 43  1  0  0  0
  9  8  2  0  0  0
 10  9  1  0  0  0
 11 10  2  0  0  0
 12 11  1  0  0  0
  4 36  1  0  0  0
 36 37  1  0  0  0
 17 16  2  0  0  0
 20 21  2  0  0  0
 27 28  1  0  0  0
 29 32  1  0  0  0
 29 31  2  0  0  0
 29 30  2  0  0  0
 19 22  1  0  0  0
 48 51  1  0  0  0
 45 46  1  0  0  0
 41 42  1  0  0  0
 32 33  1  0  0  0
 32 34  1  0  0  0
M  END
> <minimizedAffinity>
-9.78013

$$$$
3CDA_8HI_A_2


 51 54  0  0  0  0  0  0  0  0999 V2000
   18.7012   24.1495   15.3441 C   0  0  0  0  0  0  0  0  0  0  0  0
   18.6438   24.0002   13.9712 C   0  0  0  0  0  0  0  0  0  0  0  0
   20.5946   24.9289   14.4914 C   0  0  0  0  0  0  0  0  0  0  0  0
   19.8158   24.4791   13.4759 N   0  0  0  0  0  0  0  0  0  0  0  0
   19.9130   24.6806   15.6811 C   0  0  0  0  0  0  0  0  0  0  0  0
   17.4290   22.3845   16.6459 C   0  0  0  0  0  0  0  0  0  0  0  0
   16.4014   22.0601   17.5365 C   0  0  0  0  0  0  0  0  0  0  0  0
   17.6279   23.7096   16.2850 C   0  0  0  0  0  0  0  0  0  0  0  0
   16.7913   24.7005   16.7954 C   0  0  0  0  0  0  0  0  0  0  0  0
   15.7625   24.3808   17.6746 C   0  0  0  0  0  0  0  0  0  0  0  0
   15.5687   23.0552   18.0427 C   0  0  0  0  0  0  0  0  0  0  0  0
   14.5775   22.7474   18.8958 F   0  0  0  0  0  0  0  0  0  0  0  0
   20.3177   25.0200   17.0790 C   0  0  0  0  0  0  0  0  0  0  0  0
   21.0659   25.8110   19.6653 C   0  0  0  0  0  0  0  0  0  0  0  0
   20.2192   24.1286   18.1389 C   0  0  0  0  0  0  0  0  0  0  0  0
   20.7716   26.3190   17.3300 C   0  0  0  0  0  0  0  0  0  0  0  0
   21.1568   26.7163   18.6113 C   0  0  0  0  0  0  0  0  0  0  0  0
   20.6005   24.5202   19.4238 C   0  0  0  0  0  0  0  0  0  0  0  0
   22.1422   26.7813   14.0773 N   0  0  0  0  0  0  0  0  0  0  0  0
   21.9762   25.4962   14.3949 C   0  0  0  0  0  0  0  0  0  0  0  0
   22.8437   24.6607   14.2114 O   0  0  0  0  0  0  0  0  0  0  0  0
   21.3318   27.3377   14.0231 H   0  0  0  0  0  0  0  0  0  0  0  0
   23.3340   27.3936   13.8207 C   0  0  0  0  0  0  0  0  0  0  0  0
   25.7646   28.5805   13.0397 C   0  0  0  0  0  0  0  0  0  0  0  0
   25.4695   28.3932   14.3957 C   0  0  0  0  0  0  0  0  0  0  0  0
   24.2641   27.7960   14.7887 C   0  0  0  0  0  0  0  0  0  0  0  0
   23.6459   27.5760   12.4742 C   0  0  0  0  0  0  0  0  0  0  0  0
   24.8394   28.1750   12.0805 C   0  0  0  0  0  0  0  0  0  0  0  0
   27.1227   29.2753   12.5489 S   0  0  0  0  0  0  0  0  0  0  0  0
   27.1043   30.6925   12.7350 O   0  0  0  0  0  0  0  0  0  0  0  0
   28.2347   28.7087   13.2667 O   0  0  0  0  0  0  0  0  0  0  0  0
   27.2958   28.9037   11.0027 N   0  0  0  0  0  0  0  0  0  0  0  0
   27.3060   27.8894   10.8959 H   0  0  0  0  0  0  0  0  0  0  0  0
   28.1735   29.2909   10.6562 H   0  0  0  0  0  0  0  0  0  0  0  0
   20.5817   23.1564   11.5117 C   0  0  0  0  0  0  0  0  0  0  0  0
   20.1112   24.5265   12.0022 C   0  0  0  0  0  0  0  0  0  0  0  0
   18.9510   25.0911   11.1994 C   0  0  0  0  0  0  0  0  0  0  0  0
   17.4801   23.4480   13.1833 C   0  0  0  0  0  0  0  0  0  0  0  0
   17.6142   21.9633   12.9225 C   0  0  0  0  0  0  0  0  0  0  0  0
   16.2282   21.3221   12.8375 C   0  0  0  0  0  0  0  0  0  0  0  0
   15.7667   21.3524   11.4962 O   0  0  0  0  0  0  0  0  0  0  0  0
   16.3809   20.8575   10.9316 H   0  0  0  0  0  0  0  0  0  0  0  0
   16.3100   19.8718   13.2798 C   0  0  0  0  0  0  0  0  0  0  0  0
   15.6269   19.6699   14.6203 C   0  0  0  0  0  0  0  0  0  0  0  0
   14.2296   19.6991   14.4096 O   0  0  0  0  0  0  0  0  0  0  0  0
   13.9810   18.9940   13.7916 H   0  0  0  0  0  0  0  0  0  0  0  0
   16.0479   18.3417   15.2281 C   0  0  0  0  0  0  0  0  0  0  0  0
   14.8758   16.9013   13.7543 O   0  0  0  0  0  0  0  0  0  0  0  0
   15.0028   17.3119   14.9052 C   0  0  0  0  0  0  0  0  0  0  0  0
   14.2431   16.8309   15.8811 O   0  0  0  0  0  0  0  0  0  0  0  0
   15.4165   17.2465   13.0714 H   0  0  0  0  0  0  0  0  0  0  0  0
 20 19  1  0  0  0
 19 23  1  0  0  0
  7  6  2  0  0  0
  6  8  1  0  0  0
 11  7  1  0  0  0
  8  1  1  0  0  0
  1  2  2  0  0  0
  1  5  1  0  0  0
 38  2  1  0  0  0
  2  4  1  0  0  0
  5  3  2  0  0  0
  4  3  1  0  0  0
  3 20  1  0  0  0
 15 13  2  0  0  0
 13  5  1  0  0  0
 13 16  1  0  0  0
 18 14  2  0  0  0
 14 17  1  0  0  0
 18 15  1  0  0  0
 23 27  2  0  0  0
 23 26  1  0  0  0
 28 24  2  0  0  0
 25 24  1  0  0  0
 24 29  1  0  0  0
 26 25  2  0  0  0
 36 35  1  0  0  0
 38 39  1  0  0  0
 43 40  1  0  0  0
 40 41  1  0  0  0
 40 39  1  0  0  0
 49 48  1  0  0  0
 50 49  2  0  0  0
 49 47  1  0  0  0
 47 44  1  0  0  0
 45 44  1  0  0  0
 44 43  1  0  0  0
  9  8  2  0  0  0
 10  9  1  0  0  0
 11 10  2  0  0  0
 12 11  1  0  0  0
  4 36  1  0  0  0
 36 37  1  0  0  0
 17 16  2  0  0  0
 20 21  2  0  0  0
 27 28  1  0  0  0
 29 32  1  0  0  0
 29 31  2  0  0  0
 29 30  2  0  0  0
 19 22  1  0  0  0
 48 51  1  0  0  0
 45 46  1  0  0  0
 41 42  1  0  0  0
 32 33  1  0  0  0
 32 34  1  0  0  0
M  END
> <minimizedAffinity>
-9.61844

$$$$
3CDA_8HI_A_2


 51 54  0  0  0  0  0  0  0  0999 V2000
   18.5985   24.3027   15.3656 C   0  0  0  0  0  0  0  0  0  0  0  0
   18.7310   23.8225   14.0763 C   0  0  0  0  0  0  0  0  0  0  0  0
   20.3558   25.2936   14.4436 C   0  0  0  0  0  0  0  0  0  0  0  0
   19.8159   24.4402   13.5379 N   0  0  0  0  0  0  0  0  0  0  0  0
   19.6164   25.1767   15.6189 C   0  0  0  0  0  0  0  0  0  0  0  0
   16.4645   24.6349   16.6937 C   0  0  0  0  0  0  0  0  0  0  0  0
   15.5269   24.1329   17.6011 C   0  0  0  0  0  0  0  0  0  0  0  0
   17.5504   23.8515   16.3292 C   0  0  0  0  0  0  0  0  0  0  0  0
   17.7080   22.5831   16.8846 C   0  0  0  0  0  0  0  0  0  0  0  0
   16.7823   22.0837   17.7942 C   0  0  0  0  0  0  0  0  0  0  0  0
   15.6906   22.8645   18.1526 C   0  0  0  0  0  0  0  0  0  0  0  0
   14.7941   22.3798   19.0280 F   0  0  0  0  0  0  0  0  0  0  0  0
   19.7753   25.9261   16.9021 C   0  0  0  0  0  0  0  0  0  0  0  0
   20.1966   27.2384   19.3464 C   0  0  0  0  0  0  0  0  0  0  0  0
   19.2541   27.1954   17.1132 C   0  0  0  0  0  0  0  0  0  0  0  0
   20.5300   25.3292   17.9174 C   0  0  0  0  0  0  0  0  0  0  0  0
   20.7338   25.9705   19.1401 C   0  0  0  0  0  0  0  0  0  0  0  0
   19.4564   27.8439   18.3332 C   0  0  0  0  0  0  0  0  0  0  0  0
   22.7072   25.8001   14.9043 N   0  0  0  0  0  0  0  0  0  0  0  0
   21.5790   26.1400   14.2786 C   0  0  0  0  0  0  0  0  0  0  0  0
   21.3475   27.2824   13.9239 O   0  0  0  0  0  0  0  0  0  0  0  0
   22.7170   24.9332   15.3709 H   0  0  0  0  0  0  0  0  0  0  0  0
   23.8484   26.5457   14.9556 C   0  0  0  0  0  0  0  0  0  0  0  0
   26.0953   28.2139   15.2651 C   0  0  0  0  0  0  0  0  0  0  0  0
   25.9345   27.4477   14.1041 C   0  0  0  0  0  0  0  0  0  0  0  0
   24.8139   26.6216   13.9426 C   0  0  0  0  0  0  0  0  0  0  0  0
   24.0157   27.3225   16.1011 C   0  0  0  0  0  0  0  0  0  0  0  0
   25.1310   28.1390   16.2678 C   0  0  0  0  0  0  0  0  0  0  0  0
   27.3701   29.1566   15.4970 S   0  0  0  0  0  0  0  0  0  0  0  0
   27.0493   30.5436   15.3670 O   0  0  0  0  0  0  0  0  0  0  0  0
   27.9152   28.9080   16.8062 O   0  0  0  0  0  0  0  0  0  0  0  0
   28.4668   28.7197   14.4176 N   0  0  0  0  0  0  0  0  0  0  0  0
   28.6786   27.7283   14.5303 H   0  0  0  0  0  0  0  0  0  0  0  0
   29.3166   29.2667   14.5556 H   0  0  0  0  0  0  0  0  0  0  0  0
   20.6656   22.7456   11.9253 C   0  0  0  0  0  0  0  0  0  0  0  0
   20.2578   24.2068   12.1197 C   0  0  0  0  0  0  0  0  0  0  0  0
   19.2301   24.6880   11.1089 C   0  0  0  0  0  0  0  0  0  0  0  0
   17.8153   22.8334   13.3959 C   0  0  0  0  0  0  0  0  0  0  0  0
   16.3883   23.3309   13.3156 C   0  0  0  0  0  0  0  0  0  0  0  0
   15.4182   22.1638   13.5056 C   0  0  0  0  0  0  0  0  0  0  0  0
   14.6219   22.0072   12.3418 O   0  0  0  0  0  0  0  0  0  0  0  0
   15.1945   21.8237   11.5805 H   0  0  0  0  0  0  0  0  0  0  0  0
   16.2011   20.8810   13.7225 C   0  0  0  0  0  0  0  0  0  0  0  0
   15.5043   19.9782   14.7244 C   0  0  0  0  0  0  0  0  0  0  0  0
   14.1579   19.8308   14.3200 O   0  0  0  0  0  0  0  0  0  0  0  0
   14.1278   19.4407   13.4324 H   0  0  0  0  0  0  0  0  0  0  0  0
   16.1962   18.6259   14.7811 C   0  0  0  0  0  0  0  0  0  0  0  0
   14.9641   17.0826   13.4693 O   0  0  0  0  0  0  0  0  0  0  0  0
   15.1661   17.5497   14.5875 C   0  0  0  0  0  0  0  0  0  0  0  0
   14.5023   17.0904   15.6408 O   0  0  0  0  0  0  0  0  0  0  0  0
   15.4373   17.4129   12.7311 H   0  0  0  0  0  0  0  0  0  0  0  0
 20 19  1  0  0  0
 19 23  1  0  0  0
  7  6  2  0  0  0
  6  8  1  0  0  0
 11  7  1  0  0  0
  8  1  1  0  0  0
  1  2  2  0  0  0
  1  5  1  0  0  0
 38  2  1  0  0  0
  2  4  1  0  0  0
  5  3  2  0  0  0
  4  3  1  0  0  0
  3 20  1  0  0  0
 15 13  2  0  0  0
 13  5  1  0  0  0
 13 16  1  0  0  0
 18 14  2  0  0  0
 14 17  1  0  0  0
 18 15  1  0  0  0
 23 27  2  0  0  0
 23 26  1  0  0  0
 28 24  2  0  0  0
 25 24  1  0  0  0
 24 29  1  0  0  0
 26 25  2  0  0  0
 36 35  1  0  0  0
 38 39  1  0  0  0
 43 40  1  0  0  0
 40 41  1  0  0  0
 40 39  1  0  0  0
 49 48  1  0  0  0
 50 49  2  0  0  0
 49 47  1  0  0  0
 47 44  1  0  0  0
 45 44  1  0  0  0
 44 43  1  0  0  0
  9  8  2  0  0  0
 10  9  1  0  0  0
 11 10  2  0  0  0
 12 11  1  0  0  0
  4 36  1  0  0  0
 36 37  1  0  0  0
 17 16  2  0  0  0
 20 21  2  0  0  0
 27 28  1  0  0  0
 29 32  1  0  0  0
 29 31  2  0  0  0
 29 30  2  0  0  0
 19 22  1  0  0  0
 48 51  1  0  0  0
 45 46  1  0  0  0
 41 42  1  0  0  0
 32 33  1  0  0  0
 32 34  1  0  0  0
M  END
> <minimizedAffinity>
-9.26330

$$$$
3CDA_8HI_A_2


 51 54  0  0  0  0  0  0  0  0999 V2000
   17.2858   27.1951   17.4481 C   0  0  0  0  0  0  0  0  0  0  0  0
   16.4161   27.3561   16.3859 C   0  0  0  0  0  0  0  0  0  0  0  0
   16.4702   25.2003   16.9232 C   0  0  0  0  0  0  0  0  0  0  0  0
   15.9276   26.1225   16.0893 N   0  0  0  0  0  0  0  0  0  0  0  0
   17.2963   25.8803   17.8159 C   0  0  0  0  0  0  0  0  0  0  0  0
   19.3342   28.6373   17.8379 C   0  0  0  0  0  0  0  0  0  0  0  0
   19.9392   29.7037   18.5096 C   0  0  0  0  0  0  0  0  0  0  0  0
   18.0141   28.3140   18.1177 C   0  0  0  0  0  0  0  0  0  0  0  0
   17.3109   29.0392   19.0778 C   0  0  0  0  0  0  0  0  0  0  0  0
   17.9119   30.0950   19.7544 C   0  0  0  0  0  0  0  0  0  0  0  0
   19.2309   30.4243   19.4682 C   0  0  0  0  0  0  0  0  0  0  0  0
   19.8096   31.4474   20.1188 F   0  0  0  0  0  0  0  0  0  0  0  0
   18.1534   25.3238   18.9063 C   0  0  0  0  0  0  0  0  0  0  0  0
   19.8794   24.2617   20.8472 C   0  0  0  0  0  0  0  0  0  0  0  0
   17.9003   25.5308   20.2556 C   0  0  0  0  0  0  0  0  0  0  0  0
   19.2920   24.6003   18.5367 C   0  0  0  0  0  0  0  0  0  0  0  0
   20.1487   24.0588   19.4962 C   0  0  0  0  0  0  0  0  0  0  0  0
   18.7547   24.9940   21.2210 C   0  0  0  0  0  0  0  0  0  0  0  0
   16.8295   22.9035   16.1529 N   0  0  0  0  0  0  0  0  0  0  0  0
   16.1781   23.7332   16.9697 C   0  0  0  0  0  0  0  0  0  0  0  0
   15.0925   23.4586   17.4497 O   0  0  0  0  0  0  0  0  0  0  0  0
   17.5639   23.2848   15.6195 H   0  0  0  0  0  0  0  0  0  0  0  0
   16.5694   21.5742   15.9904 C   0  0  0  0  0  0  0  0  0  0  0  0
   15.8735   18.8992   15.4552 C   0  0  0  0  0  0  0  0  0  0  0  0
   16.5140   19.2400   16.6529 C   0  0  0  0  0  0  0  0  0  0  0  0
   16.8556   20.5714   16.9267 C   0  0  0  0  0  0  0  0  0  0  0  0
   15.9214   21.2221   14.8074 C   0  0  0  0  0  0  0  0  0  0  0  0
   15.5868   19.8996   14.5291 C   0  0  0  0  0  0  0  0  0  0  0  0
   15.4825   17.3873   15.0956 S   0  0  0  0  0  0  0  0  0  0  0  0
   16.5668   16.4811   15.3116 O   0  0  0  0  0  0  0  0  0  0  0  0
   14.3517   16.9851   15.8909 O   0  0  0  0  0  0  0  0  0  0  0  0
   15.0302   17.3825   13.5613 N   0  0  0  0  0  0  0  0  0  0  0  0
   14.2571   18.0353   13.4327 H   0  0  0  0  0  0  0  0  0  0  0  0
   14.7299   16.4438   13.2983 H   0  0  0  0  0  0  0  0  0  0  0  0
   15.6275   24.9939   13.8915 C   0  0  0  0  0  0  0  0  0  0  0  0
   14.9746   25.8828   14.9512 C   0  0  0  0  0  0  0  0  0  0  0  0
   13.6265   25.3672   15.4267 C   0  0  0  0  0  0  0  0  0  0  0  0
   16.1089   28.6523   15.6750 C   0  0  0  0  0  0  0  0  0  0  0  0
   17.2644   29.1286   14.8216 C   0  0  0  0  0  0  0  0  0  0  0  0
   17.6880   28.0224   13.8540 C   0  0  0  0  0  0  0  0  0  0  0  0
   17.6091   28.4963   12.5190 O   0  0  0  0  0  0  0  0  0  0  0  0
   18.2009   29.2571   12.4104 H   0  0  0  0  0  0  0  0  0  0  0  0
   19.1265   27.6247   14.1334 C   0  0  0  0  0  0  0  0  0  0  0  0
   19.2996   26.1180   14.0674 C   0  0  0  0  0  0  0  0  0  0  0  0
   19.4451   25.7521   12.7099 O   0  0  0  0  0  0  0  0  0  0  0  0
   20.2197   26.2001   12.3355 H   0  0  0  0  0  0  0  0  0  0  0  0
   20.5204   25.6953   14.8685 C   0  0  0  0  0  0  0  0  0  0  0  0
   21.8397   24.1606   13.6338 O   0  0  0  0  0  0  0  0  0  0  0  0
   21.6228   25.3371   13.9128 C   0  0  0  0  0  0  0  0  0  0  0  0
   22.3355   26.3062   13.3524 O   0  0  0  0  0  0  0  0  0  0  0  0
   21.3317   23.4828   14.0342 H   0  0  0  0  0  0  0  0  0  0  0  0
 20 19  1  0  0  0
 19 23  1  0  0  0
  7  6  2  0  0  0
  6  8  1  0  0  0
 11  7  1  0  0  0
  8  1  1  0  0  0
  1  2  2  0  0  0
  1  5  1  0  0  0
 38  2  1  0  0  0
  2  4  1  0  0  0
  5  3  2  0  0  0
  4  3  1  0  0  0
  3 20  1  0  0  0
 15 13  2  0  0  0
 13  5  1  0  0  0
 13 16  1  0  0  0
 18 14  2  0  0  0
 14 17  1  0  0  0
 18 15  1  0  0  0
 23 27  2  0  0  0
 23 26  1  0  0  0
 28 24  2  0  0  0
 25 24  1  0  0  0
 24 29  1  0  0  0
 26 25  2  0  0  0
 36 35  1  0  0  0
 38 39  1  0  0  0
 43 40  1  0  0  0
 40 41  1  0  0  0
 40 39  1  0  0  0
 49 48  1  0  0  0
 50 49  2  0  0  0
 49 47  1  0  0  0
 47 44  1  0  0  0
 45 44  1  0  0  0
 44 43  1  0  0  0
  9  8  2  0  0  0
 10  9  1  0  0  0
 11 10  2  0  0  0
 12 11  1  0  0  0
  4 36  1  0  0  0
 36 37  1  0  0  0
 17 16  2  0  0  0
 20 21  2  0  0  0
 27 28  1  0  0  0
 29 32  1  0  0  0
 29 31  2  0  0  0
 29 30  2  0  0  0
 19 22  1  0  0  0
 48 51  1  0  0  0
 45 46  1  0  0  0
 41 42  1  0  0  0
 32 33  1  0  0  0
 32 34  1  0  0  0
M  END
> <minimizedAffinity>
-8.75503

$$$$
3CDA_8HI_A_2


 51 54  0  0  0  0  0  0  0  0999 V2000
   17.7364   27.1947   17.3221 C   0  0  0  0  0  0  0  0  0  0  0  0
   16.9405   27.3719   16.2060 C   0  0  0  0  0  0  0  0  0  0  0  0
   16.8436   25.2325   16.7998 C   0  0  0  0  0  0  0  0  0  0  0  0
   16.4026   26.1585   15.9120 N   0  0  0  0  0  0  0  0  0  0  0  0
   17.6526   25.8923   17.7229 C   0  0  0  0  0  0  0  0  0  0  0  0
   17.9183   29.1136   18.9691 C   0  0  0  0  0  0  0  0  0  0  0  0
   18.6927   30.1152   19.5619 C   0  0  0  0  0  0  0  0  0  0  0  0
   18.4852   28.2914   18.0056 C   0  0  0  0  0  0  0  0  0  0  0  0
   19.8114   28.4838   17.6229 C   0  0  0  0  0  0  0  0  0  0  0  0
   20.5824   29.4847   18.2037 C   0  0  0  0  0  0  0  0  0  0  0  0
   20.0175   30.3022   19.1746 C   0  0  0  0  0  0  0  0  0  0  0  0
   20.7642   31.2662   19.7387 F   0  0  0  0  0  0  0  0  0  0  0  0
   18.4124   25.3218   18.8764 C   0  0  0  0  0  0  0  0  0  0  0  0
   19.7115   24.2764   21.1334 C   0  0  0  0  0  0  0  0  0  0  0  0
   19.5257   24.5058   18.7271 C   0  0  0  0  0  0  0  0  0  0  0  0
   17.9408   25.5903   20.1656 C   0  0  0  0  0  0  0  0  0  0  0  0
   18.5884   25.0839   21.2934 C   0  0  0  0  0  0  0  0  0  0  0  0
   20.1770   23.9936   19.8511 C   0  0  0  0  0  0  0  0  0  0  0  0
   17.1078   22.9013   16.0978 N   0  0  0  0  0  0  0  0  0  0  0  0
   16.4686   23.7852   16.8658 C   0  0  0  0  0  0  0  0  0  0  0  0
   15.3494   23.5823   17.3025 O   0  0  0  0  0  0  0  0  0  0  0  0
   17.8848   23.2286   15.5895 H   0  0  0  0  0  0  0  0  0  0  0  0
   16.7814   21.5846   15.9534 C   0  0  0  0  0  0  0  0  0  0  0  0
   15.9412   18.9423   15.4643 C   0  0  0  0  0  0  0  0  0  0  0  0
   16.6605   19.2553   16.6243 C   0  0  0  0  0  0  0  0  0  0  0  0
   17.0743   20.5705   16.8754 C   0  0  0  0  0  0  0  0  0  0  0  0
   16.0550   21.2606   14.8084 C   0  0  0  0  0  0  0  0  0  0  0  0
   15.6483   19.9539   14.5525 C   0  0  0  0  0  0  0  0  0  0  0  0
   15.4656   17.4488   15.1307 S   0  0  0  0  0  0  0  0  0  0  0  0
   16.4493   16.4746   15.4865 O   0  0  0  0  0  0  0  0  0  0  0  0
   14.2375   17.1722   15.8295 O   0  0  0  0  0  0  0  0  0  0  0  0
   15.1582   17.4045   13.5615 N   0  0  0  0  0  0  0  0  0  0  0  0
   14.4550   18.1071   13.3328 H   0  0  0  0  0  0  0  0  0  0  0  0
   14.8094   16.4797   13.3094 H   0  0  0  0  0  0  0  0  0  0  0  0
   16.1932   25.0319   13.7026 C   0  0  0  0  0  0  0  0  0  0  0  0
   15.5058   25.9380   14.7252 C   0  0  0  0  0  0  0  0  0  0  0  0
   14.1229   25.4546   15.1293 C   0  0  0  0  0  0  0  0  0  0  0  0
   16.7475   28.6620   15.4455 C   0  0  0  0  0  0  0  0  0  0  0  0
   17.8199   28.8798   14.4000 C   0  0  0  0  0  0  0  0  0  0  0  0
   17.1784   29.2888   13.0732 C   0  0  0  0  0  0  0  0  0  0  0  0
   17.0375   28.1511   12.2373 O   0  0  0  0  0  0  0  0  0  0  0  0
   16.4716   27.4962   12.6753 H   0  0  0  0  0  0  0  0  0  0  0  0
   15.7968   29.8635   13.3312 C   0  0  0  0  0  0  0  0  0  0  0  0
   15.3008   30.6529   12.1332 C   0  0  0  0  0  0  0  0  0  0  0  0
   16.2990   30.6068   11.1335 O   0  0  0  0  0  0  0  0  0  0  0  0
   16.4669   29.6839   10.8867 H   0  0  0  0  0  0  0  0  0  0  0  0
   13.9998   30.0597   11.6171 C   0  0  0  0  0  0  0  0  0  0  0  0
   14.8627   28.2324   10.3775 O   0  0  0  0  0  0  0  0  0  0  0  0
   14.2825   29.3147   10.3435 C   0  0  0  0  0  0  0  0  0  0  0  0
   13.8713   29.8241    9.1893 O   0  0  0  0  0  0  0  0  0  0  0  0
   15.1496   27.8801   11.1970 H   0  0  0  0  0  0  0  0  0  0  0  0
 20 19  1  0  0  0
 19 23  1  0  0  0
  7  6  2  0  0  0
  6  8  1  0  0  0
 11  7  1  0  0  0
  8  1  1  0  0  0
  1  2  2  0  0  0
  1  5  1  0  0  0
 38  2  1  0  0  0
  2  4  1  0  0  0
  5  3  2  0  0  0
  4  3  1  0  0  0
  3 20  1  0  0  0
 15 13  2  0  0  0
 13  5  1  0  0  0
 13 16  1  0  0  0
 18 14  2  0  0  0
 14 17  1  0  0  0
 18 15  1  0  0  0
 23 27  2  0  0  0
 23 26  1  0  0  0
 28 24  2  0  0  0
 25 24  1  0  0  0
 24 29  1  0  0  0
 26 25  2  0  0  0
 36 35  1  0  0  0
 38 39  1  0  0  0
 43 40  1  0  0  0
 40 41  1  0  0  0
 40 39  1  0  0  0
 49 48  1  0  0  0
 50 49  2  0  0  0
 49 47  1  0  0  0
 47 44  1  0  0  0
 45 44  1  0  0  0
 44 43  1  0  0  0
  9  8  2  0  0  0
 10  9  1  0  0  0
 11 10  2  0  0  0
 12 11  1  0  0  0
  4 36  1  0  0  0
 36 37  1  0  0  0
 17 16  2  0  0  0
 20 21  2  0  0  0
 27 28  1  0  0  0
 29 32  1  0  0  0
 29 31  2  0  0  0
 29 30  2  0  0  0
 19 22  1  0  0  0
 48 51  1  0  0  0
 45 46  1  0  0  0
 41 42  1  0  0  0
 32 33  1  0  0  0
 32 34  1  0  0  0
M  END
> <minimizedAffinity>
-8.51715

$$$$
3CDA_8HI_A_2


 51 54  0  0  0  0  0  0  0  0999 V2000
   16.9068   27.6181   16.5867 C   0  0  0  0  0  0  0  0  0  0  0  0
   17.2931   27.3578   17.8880 C   0  0  0  0  0  0  0  0  0  0  0  0
   16.4475   25.4928   17.0245 C   0  0  0  0  0  0  0  0  0  0  0  0
   17.0065   26.0506   18.1275 N   0  0  0  0  0  0  0  0  0  0  0  0
   16.4240   26.4687   16.0302 C   0  0  0  0  0  0  0  0  0  0  0  0
   16.0527   29.8466   15.7309 C   0  0  0  0  0  0  0  0  0  0  0  0
   16.3064   31.0581   15.0810 C   0  0  0  0  0  0  0  0  0  0  0  0
   17.0838   28.9340   15.9026 C   0  0  0  0  0  0  0  0  0  0  0  0
   18.3547   29.2225   15.4089 C   0  0  0  0  0  0  0  0  0  0  0  0
   18.6090   30.4225   14.7541 C   0  0  0  0  0  0  0  0  0  0  0  0
   17.5789   31.3400   14.5898 C   0  0  0  0  0  0  0  0  0  0  0  0
   17.8261   32.5013   13.9611 F   0  0  0  0  0  0  0  0  0  0  0  0
   15.8750   26.3775   14.6432 C   0  0  0  0  0  0  0  0  0  0  0  0
   14.9931   26.1897   11.9860 C   0  0  0  0  0  0  0  0  0  0  0  0
   14.5530   26.0564   14.3663 C   0  0  0  0  0  0  0  0  0  0  0  0
   16.7577   26.5802   13.5772 C   0  0  0  0  0  0  0  0  0  0  0  0
   16.3239   26.5003   12.2531 C   0  0  0  0  0  0  0  0  0  0  0  0
   14.1129   25.9723   13.0437 C   0  0  0  0  0  0  0  0  0  0  0  0
   16.7884   23.2338   16.1423 N   0  0  0  0  0  0  0  0  0  0  0  0
   16.0202   24.0701   16.8425 C   0  0  0  0  0  0  0  0  0  0  0  0
   14.8249   23.8881   16.9929 O   0  0  0  0  0  0  0  0  0  0  0  0
   17.6711   23.5661   15.8602 H   0  0  0  0  0  0  0  0  0  0  0  0
   16.4607   21.9595   15.7820 C   0  0  0  0  0  0  0  0  0  0  0  0
   15.9234   19.2478   15.2481 C   0  0  0  0  0  0  0  0  0  0  0  0
   15.6744   20.2254   14.2770 C   0  0  0  0  0  0  0  0  0  0  0  0
   15.9472   21.5755   14.5358 C   0  0  0  0  0  0  0  0  0  0  0  0
   16.7142   20.9743   16.7353 C   0  0  0  0  0  0  0  0  0  0  0  0
   16.4380   19.6331   16.4840 C   0  0  0  0  0  0  0  0  0  0  0  0
   15.6086   17.6964   14.9992 S   0  0  0  0  0  0  0  0  0  0  0  0
   14.5677   17.2113   15.8504 O   0  0  0  0  0  0  0  0  0  0  0  0
   15.2368   17.5003   13.6221 O   0  0  0  0  0  0  0  0  0  0  0  0
   16.9739   16.9037   15.2566 N   0  0  0  0  0  0  0  0  0  0  0  0
   17.6997   17.2671   14.6389 H   0  0  0  0  0  0  0  0  0  0  0  0
   16.8319   15.9115   15.0674 H   0  0  0  0  0  0  0  0  0  0  0  0
   15.9167   25.0025   20.1044 C   0  0  0  0  0  0  0  0  0  0  0  0
   17.2463   25.4021   19.4628 C   0  0  0  0  0  0  0  0  0  0  0  0
   18.2449   24.2597   19.3780 C   0  0  0  0  0  0  0  0  0  0  0  0
   17.8807   28.3539   18.8588 C   0  0  0  0  0  0  0  0  0  0  0  0
   16.8480   29.3319   19.3758 C   0  0  0  0  0  0  0  0  0  0  0  0
   16.0025   28.6696   20.4647 C   0  0  0  0  0  0  0  0  0  0  0  0
   16.1372   29.3884   21.6806 O   0  0  0  0  0  0  0  0  0  0  0  0
   15.8325   30.3003   21.5525 H   0  0  0  0  0  0  0  0  0  0  0  0
   14.5397   28.6923   20.0582 C   0  0  0  0  0  0  0  0  0  0  0  0
   14.3314   29.5363   18.8137 C   0  0  0  0  0  0  0  0  0  0  0  0
   13.4110   28.8648   17.9771 O   0  0  0  0  0  0  0  0  0  0  0  0
   12.5729   28.7438   18.4501 H   0  0  0  0  0  0  0  0  0  0  0  0
   13.8036   30.9100   19.1945 C   0  0  0  0  0  0  0  0  0  0  0  0
   11.5169   31.2301   18.6566 O   0  0  0  0  0  0  0  0  0  0  0  0
   12.6803   31.2689   18.2637 C   0  0  0  0  0  0  0  0  0  0  0  0
   12.9622   31.6567   17.0263 O   0  0  0  0  0  0  0  0  0  0  0  0
   11.3270   30.9550   19.5319 H   0  0  0  0  0  0  0  0  0  0  0  0
 20 19  1  0  0  0
 19 23  1  0  0  0
  7  6  2  0  0  0
  6  8  1  0  0  0
 11  7  1  0  0  0
  8  1  1  0  0  0
  1  2  2  0  0  0
  1  5  1  0  0  0
 38  2  1  0  0  0
  2  4  1  0  0  0
  5  3  2  0  0  0
  4  3  1  0  0  0
  3 20  1  0  0  0
 15 13  2  0  0  0
 13  5  1  0  0  0
 13 16  1  0  0  0
 18 14  2  0  0  0
 14 17  1  0  0  0
 18 15  1  0  0  0
 23 27  2  0  0  0
 23 26  1  0  0  0
 28 24  2  0  0  0
 25 24  1  0  0  0
 24 29  1  0  0  0
 26 25  2  0  0  0
 36 35  1  0  0  0
 38 39  1  0  0  0
 43 40  1  0  0  0
 40 41  1  0  0  0
 40 39  1  0  0  0
 49 48  1  0  0  0
 50 49  2  0  0  0
 49 47  1  0  0  0
 47 44  1  0  0  0
 45 44  1  0  0  0
 44 43  1  0  0  0
  9  8  2  0  0  0
 10  9  1  0  0  0
 11 10  2  0  0  0
 12 11  1  0  0  0
  4 36  1  0  0  0
 36 37  1  0  0  0
 17 16  2  0  0  0
 20 21  2  0  0  0
 27 28  1  0  0  0
 29 32  1  0  0  0
 29 31  2  0  0  0
 29 30  2  0  0  0
 19 22  1  0  0  0
 48 51  1  0  0  0
 45 46  1  0  0  0
 41 42  1  0  0  0
 32 33  1  0  0  0
 32 34  1  0  0  0
M  END
> <minimizedAffinity>
-8.27513

$$$$
3CDA_8HI_A_2


 51 54  0  0  0  0  0  0  0  0999 V2000
   20.2741   25.3159   18.0402 C   0  0  0  0  0  0  0  0  0  0  0  0
   19.8970   24.5502   16.9531 C   0  0  0  0  0  0  0  0  0  0  0  0
   21.4578   25.9856   16.2880 C   0  0  0  0  0  0  0  0  0  0  0  0
   20.6399   24.9764   15.8973 N   0  0  0  0  0  0  0  0  0  0  0  0
   21.2636   26.1741   17.6549 C   0  0  0  0  0  0  0  0  0  0  0  0
   20.3574   24.3897   20.3989 C   0  0  0  0  0  0  0  0  0  0  0  0
   19.7786   24.2863   21.6672 C   0  0  0  0  0  0  0  0  0  0  0  0
   19.7285   25.1462   19.4202 C   0  0  0  0  0  0  0  0  0  0  0  0
   18.5185   25.7775   19.7023 C   0  0  0  0  0  0  0  0  0  0  0  0
   17.9352   25.6699   20.9599 C   0  0  0  0  0  0  0  0  0  0  0  0
   18.5690   24.9196   21.9424 C   0  0  0  0  0  0  0  0  0  0  0  0
   18.0073   24.8195   23.1588 F   0  0  0  0  0  0  0  0  0  0  0  0
   21.8913   27.1862   18.5577 C   0  0  0  0  0  0  0  0  0  0  0  0
   23.2069   29.0069   20.2395 C   0  0  0  0  0  0  0  0  0  0  0  0
   21.3540   28.4469   18.7798 C   0  0  0  0  0  0  0  0  0  0  0  0
   23.1059   26.8536   19.1665 C   0  0  0  0  0  0  0  0  0  0  0  0
   23.7601   27.7492   20.0136 C   0  0  0  0  0  0  0  0  0  0  0  0
   22.0047   29.3490   19.6241 C   0  0  0  0  0  0  0  0  0  0  0  0
   23.7646   26.4393   15.6019 N   0  0  0  0  0  0  0  0  0  0  0  0
   22.4669   26.7121   15.4552 C   0  0  0  0  0  0  0  0  0  0  0  0
   22.0692   27.7732   15.0076 O   0  0  0  0  0  0  0  0  0  0  0  0
   24.0000   25.6825   16.1860 H   0  0  0  0  0  0  0  0  0  0  0  0
   24.7946   27.1146   15.0154 C   0  0  0  0  0  0  0  0  0  0  0  0
   26.9448   28.3028   13.6401 C   0  0  0  0  0  0  0  0  0  0  0  0
   26.5254   28.8103   14.8760 C   0  0  0  0  0  0  0  0  0  0  0  0
   25.4603   28.2174   15.5675 C   0  0  0  0  0  0  0  0  0  0  0  0
   25.2301   26.6131   13.7896 C   0  0  0  0  0  0  0  0  0  0  0  0
   26.2834   27.2038   13.0968 C   0  0  0  0  0  0  0  0  0  0  0  0
   28.1458   28.9622   12.8089 S   0  0  0  0  0  0  0  0  0  0  0  0
   28.5155   28.1753   11.6742 O   0  0  0  0  0  0  0  0  0  0  0  0
   27.7596   30.2802   12.3771 O   0  0  0  0  0  0  0  0  0  0  0  0
   29.3741   29.1177   13.8218 N   0  0  0  0  0  0  0  0  0  0  0  0
   29.0861   29.6818   14.6213 H   0  0  0  0  0  0  0  0  0  0  0  0
   30.1517   29.5749   13.3455 H   0  0  0  0  0  0  0  0  0  0  0  0
   19.7998   25.4230   13.5975 C   0  0  0  0  0  0  0  0  0  0  0  0
   20.4812   24.4065   14.5148 C   0  0  0  0  0  0  0  0  0  0  0  0
   21.7898   23.8707   13.9582 C   0  0  0  0  0  0  0  0  0  0  0  0
   18.8336   23.4782   16.9447 C   0  0  0  0  0  0  0  0  0  0  0  0
   17.4805   24.0128   16.5279 C   0  0  0  0  0  0  0  0  0  0  0  0
   16.4400   22.8929   16.5778 C   0  0  0  0  0  0  0  0  0  0  0  0
   15.3148   23.2477   15.7898 O   0  0  0  0  0  0  0  0  0  0  0  0
   15.5933   23.3819   14.8704 H   0  0  0  0  0  0  0  0  0  0  0  0
   17.0365   21.6179   16.0086 C   0  0  0  0  0  0  0  0  0  0  0  0
   16.0933   20.4430   16.1942 C   0  0  0  0  0  0  0  0  0  0  0  0
   15.2005   20.4196   15.0986 O   0  0  0  0  0  0  0  0  0  0  0  0
   15.7028   20.3255   14.2741 H   0  0  0  0  0  0  0  0  0  0  0  0
   16.8814   19.1452   16.2689 C   0  0  0  0  0  0  0  0  0  0  0  0
   15.1723   17.5204   16.0249 O   0  0  0  0  0  0  0  0  0  0  0  0
   16.1349   18.0846   15.5108 C   0  0  0  0  0  0  0  0  0  0  0  0
   16.5082   17.7886   14.2722 O   0  0  0  0  0  0  0  0  0  0  0  0
   14.9156   17.7356   16.9000 H   0  0  0  0  0  0  0  0  0  0  0  0
 20 19  1  0  0  0
 19 23  1  0  0  0
  7  6  2  0  0  0
  6  8  1  0  0  0
 11  7  1  0  0  0
  8  1  1  0  0  0
  1  2  2  0  0  0
  1  5  1  0  0  0
 38  2  1  0  0  0
  2  4  1  0  0  0
  5  3  2  0  0  0
  4  3  1  0  0  0
  3 20  1  0  0  0
 15 13  2  0  0  0
 13  5  1  0  0  0
 13 16  1  0  0  0
 18 14  2  0  0  0
 14 17  1  0  0  0
 18 15  1  0  0  0
 23 27  2  0  0  0
 23 26  1  0  0  0
 28 24  2  0  0  0
 25 24  1  0  0  0
 24 29  1  0  0  0
 26 25  2  0  0  0
 36 35  1  0  0  0
 38 39  1  0  0  0
 43 40  1  0  0  0
 40 41  1  0  0  0
 40 39  1  0  0  0
 49 48  1  0  0  0
 50 49  2  0  0  0
 49 47  1  0  0  0
 47 44  1  0  0  0
 45 44  1  0  0  0
 44 43  1  0  0  0
  9  8  2  0  0  0
 10  9  1  0  0  0
 11 10  2  0  0  0
 12 11  1  0  0  0
  4 36  1  0  0  0
 36 37  1  0  0  0
 17 16  2  0  0  0
 20 21  2  0  0  0
 27 28  1  0  0  0
 29 32  1  0  0  0
 29 31  2  0  0  0
 29 30  2  0  0  0
 19 22  1  0  0  0
 48 51  1  0  0  0
 45 46  1  0  0  0
 41 42  1  0  0  0
 32 33  1  0  0  0
 32 34  1  0  0  0
M  END
> <minimizedAffinity>
-8.08069

$$$$
3CDA_8HI_A_2


 51 54  0  0  0  0  0  0  0  0999 V2000
   18.1050   24.3006   15.1952 C   0  0  0  0  0  0  0  0  0  0  0  0
   18.2649   24.5545   16.5444 C   0  0  0  0  0  0  0  0  0  0  0  0
   20.2154   24.8932   15.5345 C   0  0  0  0  0  0  0  0  0  0  0  0
   19.5621   24.9202   16.7230 N   0  0  0  0  0  0  0  0  0  0  0  0
   19.2862   24.5460   14.5558 C   0  0  0  0  0  0  0  0  0  0  0  0
   15.6802   24.7097   14.5779 C   0  0  0  0  0  0  0  0  0  0  0  0
   14.5105   24.2652   13.9545 C   0  0  0  0  0  0  0  0  0  0  0  0
   16.8121   23.9072   14.5593 C   0  0  0  0  0  0  0  0  0  0  0  0
   16.7678   22.6598   13.9394 C   0  0  0  0  0  0  0  0  0  0  0  0
   15.6037   22.2103   13.3258 C   0  0  0  0  0  0  0  0  0  0  0  0
   14.4729   23.0173   13.3369 C   0  0  0  0  0  0  0  0  0  0  0  0
   13.3498   22.5845   12.7400 F   0  0  0  0  0  0  0  0  0  0  0  0
   19.5028   24.3409   13.0915 C   0  0  0  0  0  0  0  0  0  0  0  0
   19.9509   23.8056   10.3736 C   0  0  0  0  0  0  0  0  0  0  0  0
   18.9500   25.1608   12.1169 C   0  0  0  0  0  0  0  0  0  0  0  0
   20.2624   23.2362   12.6924 C   0  0  0  0  0  0  0  0  0  0  0  0
   20.4996   22.9703   11.3431 C   0  0  0  0  0  0  0  0  0  0  0  0
   19.1812   24.8990   10.7649 C   0  0  0  0  0  0  0  0  0  0  0  0
   21.9660   26.5392   15.0613 N   0  0  0  0  0  0  0  0  0  0  0  0
   21.6419   25.2624   15.2726 C   0  0  0  0  0  0  0  0  0  0  0  0
   22.3271   24.3392   14.8691 O   0  0  0  0  0  0  0  0  0  0  0  0
   21.2571   27.2093   15.1945 H   0  0  0  0  0  0  0  0  0  0  0  0
   23.1913   26.9996   14.6773 C   0  0  0  0  0  0  0  0  0  0  0  0
   25.6378   27.9243   13.6349 C   0  0  0  0  0  0  0  0  0  0  0  0
   25.5365   27.5466   14.9795 C   0  0  0  0  0  0  0  0  0  0  0  0
   24.3226   27.0787   15.5008 C   0  0  0  0  0  0  0  0  0  0  0  0
   23.3095   27.3684   13.3380 C   0  0  0  0  0  0  0  0  0  0  0  0
   24.5121   27.8400   12.8186 C   0  0  0  0  0  0  0  0  0  0  0  0
   27.0016   28.4814   13.0043 S   0  0  0  0  0  0  0  0  0  0  0  0
   27.4807   27.6595   11.9373 O   0  0  0  0  0  0  0  0  0  0  0  0
   26.7919   29.8224   12.5238 O   0  0  0  0  0  0  0  0  0  0  0  0
   28.0655   28.5480   14.1969 N   0  0  0  0  0  0  0  0  0  0  0  0
   27.7016   29.1389   14.9445 H   0  0  0  0  0  0  0  0  0  0  0  0
   28.9412   28.9393   13.8499 H   0  0  0  0  0  0  0  0  0  0  0  0
   19.3089   26.3292   18.7589 C   0  0  0  0  0  0  0  0  0  0  0  0
   20.1336   25.2361   18.0775 C   0  0  0  0  0  0  0  0  0  0  0  0
   20.3134   23.9924   18.9320 C   0  0  0  0  0  0  0  0  0  0  0  0
   17.2047   24.4095   17.6097 C   0  0  0  0  0  0  0  0  0  0  0  0
   17.3734   23.1432   18.4211 C   0  0  0  0  0  0  0  0  0  0  0  0
   16.3884   22.0785   17.9359 C   0  0  0  0  0  0  0  0  0  0  0  0
   15.3237   22.6957   17.2298 O   0  0  0  0  0  0  0  0  0  0  0  0
   15.6780   23.1736   16.4636 H   0  0  0  0  0  0  0  0  0  0  0  0
   17.0955   21.1235   16.9907 C   0  0  0  0  0  0  0  0  0  0  0  0
   16.2694   19.8708   16.7604 C   0  0  0  0  0  0  0  0  0  0  0  0
   15.3228   20.1494   15.7483 O   0  0  0  0  0  0  0  0  0  0  0  0
   15.7851   20.4061   14.9351 H   0  0  0  0  0  0  0  0  0  0  0  0
   17.1699   18.7180   16.3471 C   0  0  0  0  0  0  0  0  0  0  0  0
   15.7298   16.8909   15.8905 O   0  0  0  0  0  0  0  0  0  0  0  0
   16.4002   17.8112   15.4293 C   0  0  0  0  0  0  0  0  0  0  0  0
   16.4290   18.0359   14.1217 O   0  0  0  0  0  0  0  0  0  0  0  0
   15.7152   16.7396   16.8151 H   0  0  0  0  0  0  0  0  0  0  0  0
 20 19  1  0  0  0
 19 23  1  0  0  0
  7  6  2  0  0  0
  6  8  1  0  0  0
 11  7  1  0  0  0
  8  1  1  0  0  0
  1  2  2  0  0  0
  1  5  1  0  0  0
 38  2  1  0  0  0
  2  4  1  0  0  0
  5  3  2  0  0  0
  4  3  1  0  0  0
  3 20  1  0  0  0
 15 13  2  0  0  0
 13  5  1  0  0  0
 13 16  1  0  0  0
 18 14  2  0  0  0
 14 17  1  0  0  0
 18 15  1  0  0  0
 23 27  2  0  0  0
 23 26  1  0  0  0
 28 24  2  0  0  0
 25 24  1  0  0  0
 24 29  1  0  0  0
 26 25  2  0  0  0
 36 35  1  0  0  0
 38 39  1  0  0  0
 43 40  1  0  0  0
 40 41  1  0  0  0
 40 39  1  0  0  0
 49 48  1  0  0  0
 50 49  2  0  0  0
 49 47  1  0  0  0
 47 44  1  0  0  0
 45 44  1  0  0  0
 44 43  1  0  0  0
  9  8  2  0  0  0
 10  9  1  0  0  0
 11 10  2  0  0  0
 12 11  1  0  0  0
  4 36  1  0  0  0
 36 37  1  0  0  0
 17 16  2  0  0  0
 20 21  2  0  0  0
 27 28  1  0  0  0
 29 32  1  0  0  0
 29 31  2  0  0  0
 29 30  2  0  0  0
 19 22  1  0  0  0
 48 51  1  0  0  0
 45 46  1  0  0  0
 41 42  1  0  0  0
 32 33  1  0  0  0
 32 34  1  0  0  0
M  END
> <minimizedAffinity>
-8.06430

$$$$
3CDA_8HI_A_2


 51 54  0  0  0  0  0  0  0  0999 V2000
   19.3799   24.9027   15.6140 C   0  0  0  0  0  0  0  0  0  0  0  0
   20.1418   24.5282   14.5233 C   0  0  0  0  0  0  0  0  0  0  0  0
   18.0381   24.7792   13.8521 C   0  0  0  0  0  0  0  0  0  0  0  0
   19.2981   24.4659   13.4591 N   0  0  0  0  0  0  0  0  0  0  0  0
   18.0920   25.1016   15.2067 C   0  0  0  0  0  0  0  0  0  0  0  0
   20.5755   26.2960   17.3625 C   0  0  0  0  0  0  0  0  0  0  0  0
   21.0539   26.4265   18.6696 C   0  0  0  0  0  0  0  0  0  0  0  0
   19.9261   25.1291   16.9855 C   0  0  0  0  0  0  0  0  0  0  0  0
   19.7749   24.0918   17.9040 C   0  0  0  0  0  0  0  0  0  0  0  0
   20.2571   24.2143   19.2025 C   0  0  0  0  0  0  0  0  0  0  0  0
   20.8997   25.3859   19.5825 C   0  0  0  0  0  0  0  0  0  0  0  0
   21.3613   25.5056   20.8385 F   0  0  0  0  0  0  0  0  0  0  0  0
   16.9734   25.4770   16.1238 C   0  0  0  0  0  0  0  0  0  0  0  0
   14.8844   26.3308   17.7914 C   0  0  0  0  0  0  0  0  0  0  0  0
   16.0871   24.5541   16.6626 C   0  0  0  0  0  0  0  0  0  0  0  0
   16.7899   26.8342   16.4081 C   0  0  0  0  0  0  0  0  0  0  0  0
   15.7606   27.2655   17.2461 C   0  0  0  0  0  0  0  0  0  0  0  0
   15.0534   24.9790   17.4998 C   0  0  0  0  0  0  0  0  0  0  0  0
   16.1261   26.0134   12.9474 N   0  0  0  0  0  0  0  0  0  0  0  0
   16.8150   24.8719   12.9948 C   0  0  0  0  0  0  0  0  0  0  0  0
   16.3123   23.7942   12.7297 O   0  0  0  0  0  0  0  0  0  0  0  0
   16.5185   26.7927   13.4033 H   0  0  0  0  0  0  0  0  0  0  0  0
   14.9268   26.1978   12.3239 C   0  0  0  0  0  0  0  0  0  0  0  0
   12.5513   26.8029   10.9391 C   0  0  0  0  0  0  0  0  0  0  0  0
   12.5627   25.8144   11.9310 C   0  0  0  0  0  0  0  0  0  0  0  0
   13.7412   25.5151   12.6279 C   0  0  0  0  0  0  0  0  0  0  0  0
   14.8982   27.1871   11.3421 C   0  0  0  0  0  0  0  0  0  0  0  0
   13.7308   27.4822   10.6430 C   0  0  0  0  0  0  0  0  0  0  0  0
   11.2301   27.1627   10.1066 S   0  0  0  0  0  0  0  0  0  0  0  0
   10.0756   27.2710   10.9425 O   0  0  0  0  0  0  0  0  0  0  0  0
   11.4334   28.4016    9.4016 O   0  0  0  0  0  0  0  0  0  0  0  0
   11.0426   26.0044    9.0195 N   0  0  0  0  0  0  0  0  0  0  0  0
   11.8776   25.9468    8.4366 H   0  0  0  0  0  0  0  0  0  0  0  0
   10.2336   26.2144    8.4349 H   0  0  0  0  0  0  0  0  0  0  0  0
   19.4581   22.5621   11.8640 C   0  0  0  0  0  0  0  0  0  0  0  0
   19.7545   24.0456   12.0894 C   0  0  0  0  0  0  0  0  0  0  0  0
   19.2032   24.9458   10.9962 C   0  0  0  0  0  0  0  0  0  0  0  0
   21.6182   24.2119   14.5347 C   0  0  0  0  0  0  0  0  0  0  0  0
   22.4636   25.3951   14.1154 C   0  0  0  0  0  0  0  0  0  0  0  0
   23.8366   25.3175   14.7850 C   0  0  0  0  0  0  0  0  0  0  0  0
   24.4950   24.1234   14.3930 O   0  0  0  0  0  0  0  0  0  0  0  0
   24.6105   24.1190   13.4300 H   0  0  0  0  0  0  0  0  0  0  0  0
   24.6859   26.4961   14.3432 C   0  0  0  0  0  0  0  0  0  0  0  0
   25.0939   27.3509   15.5296 C   0  0  0  0  0  0  0  0  0  0  0  0
   24.8976   28.7067   15.1816 O   0  0  0  0  0  0  0  0  0  0  0  0
   23.9640   28.8524   14.9626 H   0  0  0  0  0  0  0  0  0  0  0  0
   24.2622   26.9863   16.7487 C   0  0  0  0  0  0  0  0  0  0  0  0
   26.0733   26.0995   17.9952 O   0  0  0  0  0  0  0  0  0  0  0  0
   25.1659   26.9262   17.9473 C   0  0  0  0  0  0  0  0  0  0  0  0
   24.9913   27.7948   18.9353 O   0  0  0  0  0  0  0  0  0  0  0  0
   26.1893   25.4899   17.2931 H   0  0  0  0  0  0  0  0  0  0  0  0
 20 19  1  0  0  0
 19 23  1  0  0  0
  7  6  2  0  0  0
  6  8  1  0  0  0
 11  7  1  0  0  0
  8  1  1  0  0  0
  1  2  2  0  0  0
  1  5  1  0  0  0
 38  2  1  0  0  0
  2  4  1  0  0  0
  5  3  2  0  0  0
  4  3  1  0  0  0
  3 20  1  0  0  0
 15 13  2  0  0  0
 13  5  1  0  0  0
 13 16  1  0  0  0
 18 14  2  0  0  0
 14 17  1  0  0  0
 18 15  1  0  0  0
 23 27  2  0  0  0
 23 26  1  0  0  0
 28 24  2  0  0  0
 25 24  1  0  0  0
 24 29  1  0  0  0
 26 25  2  0  0  0
 36 35  1  0  0  0
 38 39  1  0  0  0
 43 40  1  0  0  0
 40 41  1  0  0  0
 40 39  1  0  0  0
 49 48  1  0  0  0
 50 49  2  0  0  0
 49 47  1  0  0  0
 47 44  1  0  0  0
 45 44  1  0  0  0
 44 43  1  0  0  0
  9  8  2  0  0  0
 10  9  1  0  0  0
 11 10  2  0  0  0
 12 11  1  0  0  0
  4 36  1  0  0  0
 36 37  1  0  0  0
 17 16  2  0  0  0
 20 21  2  0  0  0
 27 28  1  0  0  0
 29 32  1  0  0  0
 29 31  2  0  0  0
 29 30  2  0  0  0
 19 22  1  0  0  0
 48 51  1  0  0  0
 45 46  1  0  0  0
 41 42  1  0  0  0
 32 33  1  0  0  0
 32 34  1  0  0  0
M  END
> <minimizedAffinity>
-8.02139

$$$$
3CDA_8HI_A_2


 51 54  0  0  0  0  0  0  0  0999 V2000
   19.5743   25.1261   15.3680 C   0  0  0  0  0  0  0  0  0  0  0  0
   18.6966   24.8174   16.3902 C   0  0  0  0  0  0  0  0  0  0  0  0
   20.4020   25.9516   17.2530 C   0  0  0  0  0  0  0  0  0  0  0  0
   19.2238   25.3387   17.5298 N   0  0  0  0  0  0  0  0  0  0  0  0
   20.6065   25.8601   15.8777 C   0  0  0  0  0  0  0  0  0  0  0  0
   19.9618   23.6893   13.3153 C   0  0  0  0  0  0  0  0  0  0  0  0
   19.6977   23.4283   11.9675 C   0  0  0  0  0  0  0  0  0  0  0  0
   19.3545   24.7731   13.9335 C   0  0  0  0  0  0  0  0  0  0  0  0
   18.5054   25.6021   13.2027 C   0  0  0  0  0  0  0  0  0  0  0  0
   18.2471   25.3511   11.8597 C   0  0  0  0  0  0  0  0  0  0  0  0
   18.8483   24.2610   11.2429 C   0  0  0  0  0  0  0  0  0  0  0  0
   18.5948   24.0162    9.9464 F   0  0  0  0  0  0  0  0  0  0  0  0
   21.7699   26.3395   15.0714 C   0  0  0  0  0  0  0  0  0  0  0  0
   23.8961   27.3872   13.5695 C   0  0  0  0  0  0  0  0  0  0  0  0
   22.9453   25.6156   14.9241 C   0  0  0  0  0  0  0  0  0  0  0  0
   21.6774   27.6037   14.4798 C   0  0  0  0  0  0  0  0  0  0  0  0
   22.7259   28.1264   13.7215 C   0  0  0  0  0  0  0  0  0  0  0  0
   23.9994   26.1338   14.1688 C   0  0  0  0  0  0  0  0  0  0  0  0
   21.4126   28.0128   18.1060 N   0  0  0  0  0  0  0  0  0  0  0  0
   21.2895   26.6882   18.2066 C   0  0  0  0  0  0  0  0  0  0  0  0
   22.1396   25.9913   18.7321 O   0  0  0  0  0  0  0  0  0  0  0  0
   20.8215   28.4703   17.4653 H   0  0  0  0  0  0  0  0  0  0  0  0
   22.2840   28.7903   18.8111 C   0  0  0  0  0  0  0  0  0  0  0  0
   23.8814   30.4512   20.4288 C   0  0  0  0  0  0  0  0  0  0  0  0
   24.3298   30.0473   19.1652 C   0  0  0  0  0  0  0  0  0  0  0  0
   23.5348   29.2266   18.3536 C   0  0  0  0  0  0  0  0  0  0  0  0
   21.8456   29.2094   20.0665 C   0  0  0  0  0  0  0  0  0  0  0  0
   22.6357   30.0190   20.8781 C   0  0  0  0  0  0  0  0  0  0  0  0
   24.7666   31.3737   21.3949 S   0  0  0  0  0  0  0  0  0  0  0  0
   25.9734   30.7267   21.8057 O   0  0  0  0  0  0  0  0  0  0  0  0
   25.0848   32.6045   20.7191 O   0  0  0  0  0  0  0  0  0  0  0  0
   23.8501   31.7292   22.6568 N   0  0  0  0  0  0  0  0  0  0  0  0
   22.9970   32.1890   22.3386 H   0  0  0  0  0  0  0  0  0  0  0  0
   24.3598   32.3534   23.2821 H   0  0  0  0  0  0  0  0  0  0  0  0
   19.3520   24.1628   19.7196 C   0  0  0  0  0  0  0  0  0  0  0  0
   18.5707   25.1694   18.8736 C   0  0  0  0  0  0  0  0  0  0  0  0
   18.3395   26.4981   19.5739 C   0  0  0  0  0  0  0  0  0  0  0  0
   17.4221   24.0186   16.2589 C   0  0  0  0  0  0  0  0  0  0  0  0
   17.6794   22.5281   16.2094 C   0  0  0  0  0  0  0  0  0  0  0  0
   16.3779   21.7846   15.9047 C   0  0  0  0  0  0  0  0  0  0  0  0
   15.3619   22.7150   15.5651 O   0  0  0  0  0  0  0  0  0  0  0  0
   15.6323   23.2169   14.7803 H   0  0  0  0  0  0  0  0  0  0  0  0
   16.5869   20.8556   14.7220 C   0  0  0  0  0  0  0  0  0  0  0  0
   15.7234   19.6131   14.8438 C   0  0  0  0  0  0  0  0  0  0  0  0
   14.4277   19.9317   14.3775 O   0  0  0  0  0  0  0  0  0  0  0  0
   14.4788   20.2210   13.4531 H   0  0  0  0  0  0  0  0  0  0  0  0
   16.3207   18.4779   14.0280 C   0  0  0  0  0  0  0  0  0  0  0  0
   14.7611   17.1399   12.8456 O   0  0  0  0  0  0  0  0  0  0  0  0
   15.4077   18.1842   12.8717 C   0  0  0  0  0  0  0  0  0  0  0  0
   15.2859   19.0779   11.8984 O   0  0  0  0  0  0  0  0  0  0  0  0
   14.8534   16.5144   13.5371 H   0  0  0  0  0  0  0  0  0  0  0  0
 20 19  1  0  0  0
 19 23  1  0  0  0
  7  6  2  0  0  0
  6  8  1  0  0  0
 11  7  1  0  0  0
  8  1  1  0  0  0
  1  2  2  0  0  0
  1  5  1  0  0  0
 38  2  1  0  0  0
  2  4  1  0  0  0
  5  3  2  0  0  0
  4  3  1  0  0  0
  3 20  1  0  0  0
 15 13  2  0  0  0
 13  5  1  0  0  0
 13 16  1  0  0  0
 18 14  2  0  0  0
 14 17  1  0  0  0
 18 15  1  0  0  0
 23 27  2  0  0  0
 23 26  1  0  0  0
 28 24  2  0  0  0
 25 24  1  0  0  0
 24 29  1  0  0  0
 26 25  2  0  0  0
 36 35  1  0  0  0
 38 39  1  0  0  0
 43 40  1  0  0  0
 40 41  1  0  0  0
 40 39  1  0  0  0
 49 48  1  0  0  0
 50 49  2  0  0  0
 49 47  1  0  0  0
 47 44  1  0  0  0
 45 44  1  0  0  0
 44 43  1  0  0  0
  9  8  2  0  0  0
 10  9  1  0  0  0
 11 10  2  0  0  0
 12 11  1  0  0  0
  4 36  1  0  0  0
 36 37  1  0  0  0
 17 16  2  0  0  0
 20 21  2  0  0  0
 27 28  1  0  0  0
 29 32  1  0  0  0
 29 31  2  0  0  0
 29 30  2  0  0  0
 19 22  1  0  0  0
 48 51  1  0  0  0
 45 46  1  0  0  0
 41 42  1  0  0  0
 32 33  1  0  0  0
 32 34  1  0  0  0
M  END
> <minimizedAffinity>
-7.94626

$$$$
