4TKJ_PLM_A_201
  RCSB PDB12061714443D
Coordinates from PDB:4TKJ:A:201 Model:1 without hydrogens
 18 17  0  0  0  0            999 V2000
    5.9190  -16.6280   -1.6130   C 0  0  0  0  0  0  0  0  0  0  0  0
    4.8960  -16.3970   -0.8780   O 0  0  0  0  0  0  0  0  0  0  0  0
    6.9640  -15.9660   -1.5510   O 0  0  0  0  0  0  0  0  0  0  0  0
    5.7930  -17.7470   -2.6220   C 0  0  0  0  0  0  0  0  0  0  0  0
    7.0600  -18.1650   -3.3150   C 0  0  0  0  0  0  0  0  0  0  0  0
    6.8570  -19.2760   -4.3230   C 0  0  0  0  0  0  0  0  0  0  0  0
    8.1680  -19.7980   -4.8860   C 0  0  0  0  0  0  0  0  0  0  0  0
    8.0220  -20.7780   -6.0440   C 0  0  0  0  0  0  0  0  0  0  0  0
    7.1240  -21.9760   -5.7750   C 0  0  0  0  0  0  0  0  0  0  0  0
    7.5900  -22.8500   -4.6270   C 0  0  0  0  0  0  0  0  0  0  0  0
    6.5640  -23.9270   -4.2070   C 0  0  0  0  0  0  0  0  0  0  0  0
    6.9660  -24.8300   -3.0120   C 0  0  0  0  0  0  0  0  0  0  0  0
    7.4520  -24.1140   -1.7180   C 0  0  0  0  0  0  0  0  0  0  0  0
    6.5660  -23.0380   -1.0500   C 0  0  0  0  0  0  0  0  0  0  0  0
    7.2390  -22.1930    0.1310   C 0  0  0  0  0  0  0  0  0  0  0  0
    8.4800  -21.4610   -0.0780   C 0  0  0  0  0  0  0  0  0  0  0  0
    9.0270  -20.7340    1.1690   C 0  0  0  0  0  0  0  0  0  0  0  0
   10.4320  -20.3010    0.8620   C 0  0  0  0  0  0  0  0  0  0  0  0
  1  2  1  0  0  0  0
  1  3  2  0  0  0  0
  1  4  1  0  0  0  0
  4  5  1  0  0  0  0
  5  6  1  0  0  0  0
  6  7  1  0  0  0  0
  7  8  1  0  0  0  0
  8  9  1  0  0  0  0
  9 10  1  0  0  0  0
 10 11  1  0  0  0  0
 11 12  1  0  0  0  0
 12 13  1  0  0  0  0
 13 14  1  0  0  0  0
 14 15  1  0  0  0  0
 15 16  1  0  0  0  0
 16 17  1  0  0  0  0
 17 18  1  0  0  0  0
A    1
C1
A    2
O1
A    3
O2
A    4
C2
A    5
C3
A    6
C4
A    7
C5
A    8
C6
A    9
C7
A   10
C8
A   11
C9
A   12
CA
A   13
CB
A   14
CC
A   15
CD
A   16
CE
A   17
CF
A   18
CG
M  END
>  <InstanceId>
4TKJ_PLM_A_201

>  <ChemCompId>
PLM

>  <PdbId>
4TKJ

>  <ChainId>
A

>  <ResidueNumber>
201

>  <InsertionCode>


>  <Model>
1

>  <AltIds>


>  <MissingHeavyAtoms>
0

>  <ObservedFormula>
C16 O2

>  <Name>
PALMITIC ACID

>  <SystematicName>
hexadecanoic acid

>  <Synonyms>


>  <Type>
NON-POLYMER

>  <Formula>
C16 H32 O2

>  <MolecularWeight>
256.424

>  <ModifiedDate>
2011-06-04

>  <Parent>


>  <OneLetterCode>


>  <SubcomponentList>


>  <AmbiguousFlag>
N

>  <InChI>
InChI=1S/C16H32O2/c1-2-3-4-5-6-7-8-9-10-11-12-13-14-15-16(17)18/h2-15H2,1H3,(H,17,18)

>  <InChIKey>
IPCSVZSSVZVIGE-UHFFFAOYSA-N

>  <SMILES>
CCCCCCCCCCCCCCCC(=O)O

$$$$
