1ZGE_SDA_A_300
  RCSB PDB12061704523D
Coordinates from PDB:1ZGE:A:300 Model:1 without hydrogens
 13 13  0  0  0  0            999 V2000
   15.3140    2.7660   16.5040   S 0  0  0  0  0  0  0  0  0  0  0  0
   15.7860    1.5240   15.8390   N 0  0  0  0  0  0  0  0  0  0  0  0
   15.9150    2.8960   17.8310   O 0  0  0  0  0  0  0  0  0  0  0  0
   13.8620    2.8830   16.4370   O 0  0  0  0  0  0  0  0  0  0  0  0
   16.0230    4.1120   15.5850   C 0  0  0  0  0  0  0  0  0  0  0  0
   17.3890    4.2370   15.3280   C 0  0  0  0  0  0  0  0  0  0  0  0
   17.9040    5.3060   14.6060   C 0  0  0  0  0  0  0  0  0  0  0  0
   19.5980    5.5600   14.2360  Cl 0  0  0  0  0  0  0  0  0  0  0  0
   17.0380    6.2910   14.1190   C 0  0  0  0  0  0  0  0  0  0  0  0
   17.5580    7.3750   13.3800   N 0  0  0  0  0  0  0  0  0  0  0  0
   15.6850    6.1790   14.3630   C 0  0  0  0  0  0  0  0  0  0  0  0
   14.6580    7.4130   13.7360  Cl 0  0  0  0  0  0  0  0  0  0  0  0
   15.1550    5.1100   15.0860   C 0  0  0  0  0  0  0  0  0  0  0  0
  1  2  1  0  0  0  0
  1  3  2  0  0  0  0
  1  4  2  0  0  0  0
  1  5  1  0  0  0  0
  5  6  1  0  0  0  0
  5 13  2  0  0  0  0
  6  7  2  0  0  0  0
  7  8  1  0  0  0  0
  7  9  1  0  0  0  0
  9 10  1  0  0  0  0
  9 11  2  0  0  0  0
 11 12  1  0  0  0  0
 11 13  1  0  0  0  0
A    1
S1
A    2
N13
A    3
O12
A    4
O11
A    5
C2
A    6
C7
A    7
C6
A    8
CL8
A    9
C5
A   10
N10
A   11
C4
A   12
CL9
A   13
C3
M  END
>  <InstanceId>
1ZGE_SDA_A_300

>  <ChemCompId>
SDA

>  <PdbId>
1ZGE

>  <ChainId>
A

>  <ResidueNumber>
300

>  <InsertionCode>


>  <Model>
1

>  <AltIds>


>  <MissingHeavyAtoms>
0

>  <ObservedFormula>
C6 N2 O2 S Cl2

>  <Name>
4-AMINO-3,5-DICHLOROBENZENESULFONAMIDE

>  <SystematicName>
4-amino-3,5-dichloro-benzenesulfonamide

>  <Synonyms>


>  <Type>
NON-POLYMER

>  <Formula>
C6 H6 Cl2 N2 O2 S

>  <MolecularWeight>
241.095

>  <ModifiedDate>
2011-06-04

>  <Parent>


>  <OneLetterCode>


>  <SubcomponentList>


>  <AmbiguousFlag>
N

>  <InChI>
InChI=1S/C6H6Cl2N2O2S/c7-4-1-3(13(10,11)12)2-5(8)6(4)9/h1-2H,9H2,(H2,10,11,12)

>  <InChIKey>
DVZMRTJKNJKEGV-UHFFFAOYSA-N

>  <SMILES>
c1c(cc(c(c1Cl)N)Cl)S(=O)(=O)N

$$$$
