2WNC_TKT_A_300
  RCSB PDB12061707173D
Coordinates from PDB:2WNC:A:300 Model:1 without hydrogens
 21 24  0  0  0  0            999 V2000
  -72.2180  -51.6000  -72.9270   C 0  0  0  0  0  0  0  0  0  0  0  0
  -73.1540  -50.7690  -75.0260   O 0  0  0  0  0  0  0  0  0  0  0  0
  -70.6700  -44.5530  -73.8420   C 0  0  0  0  0  0  0  0  0  0  0  0
  -72.6550  -50.5780  -73.9230   C 0  0  0  0  0  0  0  0  0  0  0  0
  -71.5630  -51.4310  -71.7280   C 0  0  0  0  0  0  0  0  0  0  0  0
  -72.4460  -49.2390  -73.4180   O 0  0  0  0  0  0  0  0  0  0  0  0
  -69.9780  -47.7650  -73.3350   C 0  0  0  0  0  0  0  0  0  0  0  0
  -70.8180  -47.3390  -72.1030   C 0  0  0  0  0  0  0  0  0  0  0  0
  -71.1260  -45.9070  -73.7410   N 0  0  0  0  0  0  0  0  0  0  0  0
  -71.9140  -46.3630  -72.6140   C 0  0  0  0  0  0  0  0  0  0  0  0
  -73.1770  -47.0530  -73.1350   C 0  0  0  0  0  0  0  0  0  0  0  0
  -70.5930  -47.0150  -74.5390   C 0  0  0  0  0  0  0  0  0  0  0  0
  -71.7370  -47.7920  -75.1820   C 0  0  0  0  0  0  0  0  0  0  0  0
  -72.8620  -48.1360  -74.1820   C 0  0  0  0  0  0  0  0  0  0  0  0
  -72.5080  -55.8510  -72.7620   C 0  0  0  0  0  0  0  0  0  0  0  0
  -71.8770  -53.6680  -71.9070   C 0  0  0  0  0  0  0  0  0  0  0  0
  -72.4530  -53.0640  -73.1150   C 0  0  0  0  0  0  0  0  0  0  0  0
  -73.0200  -53.8480  -74.0950   C 0  0  0  0  0  0  0  0  0  0  0  0
  -73.0560  -55.2470  -73.9010   C 0  0  0  0  0  0  0  0  0  0  0  0
  -71.3830  -52.6580  -71.1420   N 0  0  0  0  0  0  0  0  0  0  0  0
  -71.9120  -55.0570  -71.7660   C 0  0  0  0  0  0  0  0  0  0  0  0
  1  4  1  0  0  0  0
  1  5  2  0  0  0  0
  1 17  1  0  0  0  0
  2  4  2  0  0  0  0
  3  9  1  0  0  0  0
  4  6  1  0  0  0  0
  5 20  1  0  0  0  0
  6 14  1  0  0  0  0
  7  8  1  0  0  0  0
  7 12  1  0  0  0  0
  8 10  1  0  0  0  0
  9 10  1  0  0  0  0
  9 12  1  0  0  0  0
 10 11  1  0  0  0  0
 11 14  1  0  0  0  0
 12 13  1  0  0  0  0
 13 14  1  0  0  0  0
 15 19  2  0  0  0  0
 15 21  1  0  0  0  0
 16 17  1  0  0  0  0
 16 20  1  0  0  0  0
 16 21  2  0  0  0  0
 17 18  2  0  0  0  0
 18 19  1  0  0  0  0
A    1
C12
A    2
O4
A    3
C8
A    4
C9
A    5
C11
A    6
O3
A    7
C7
A    8
C6
A    9
N1
A   10
C5
A   11
C4
A   12
C1
A   13
C2
A   14
C3
A   15
C13
A   16
C15
A   17
C16
A   18
C17
A   19
C18
A   20
N10
A   21
C21
M  END
>  <InstanceId>
2WNC_TKT_A_300

>  <ChemCompId>
TKT

>  <PdbId>
2WNC

>  <ChainId>
A

>  <ResidueNumber>
300

>  <InsertionCode>


>  <Model>
1

>  <AltIds>


>  <MissingHeavyAtoms>
0

>  <ObservedFormula>
C17 N2 O2

>  <Name>
(3-ENDO)-8-METHYL-8-AZABICYCLO[3.2.1]OCT-3-YL 1H-INDOLE-3-CARBOXYLATE

>  <SystematicName>
[(1R,5S)-8-methyl-8-azabicyclo[3.2.1]octan-3-yl] 1H-indole-3-carboxylate

>  <Synonyms>
TROPISETRON

>  <Type>
NON-POLYMER

>  <Formula>
C17 H20 N2 O2

>  <MolecularWeight>
284.353

>  <ModifiedDate>
2011-06-04

>  <Parent>


>  <OneLetterCode>


>  <SubcomponentList>


>  <AmbiguousFlag>
N

>  <InChI>
InChI=1S/C17H20N2O2/c1-19-11-6-7-12(19)9-13(8-11)21-17(20)15-10-18-16-5-3-2-4-14(15)16/h2-5,10-13,18H,6-9H2,1H3/t11-,12+,13+

>  <InChIKey>
ZNRGQMMCGHDTEI-ITGUQSILSA-N

>  <SMILES>
CN1[C@H]2CC[C@@H]1CC(C2)OC(=O)c3c[nH]c4c3cccc4

$$$$
