1EC0_BED_A_501
  RCSB PDB12061702223D
Coordinates from PDB:1EC0:A:501 Model:1 without hydrogens
 50 55  0  0  0  0            999 V2000
   16.5600   22.0740    8.7360   C 0  0  0  0  0  0  0  0  0  0  0  0
   17.9710   21.8820    8.4810   C 0  0  0  0  0  0  0  0  0  0  0  0
   18.6600   20.7120    8.8980   C 0  0  0  0  0  0  0  0  0  0  0  0
   17.9510   19.6690    9.5990   C 0  0  0  0  0  0  0  0  0  0  0  0
   16.5510   19.8160    9.8720   C 0  0  0  0  0  0  0  0  0  0  0  0
   15.8650   21.0100    9.4430   C 0  0  0  0  0  0  0  0  0  0  0  0
    9.8300   23.8680    2.2960   C 0  0  0  0  0  0  0  0  0  0  0  0
    8.8110   22.9360    2.7380   C 0  0  0  0  0  0  0  0  0  0  0  0
    7.4250   23.3290    2.7330   C 0  0  0  0  0  0  0  0  0  0  0  0
    7.0500   24.6440    2.2880   C 0  0  0  0  0  0  0  0  0  0  0  0
    8.0620   25.5710    1.8480   C 0  0  0  0  0  0  0  0  0  0  0  0
    9.4340   25.1850    1.8550   C 0  0  0  0  0  0  0  0  0  0  0  0
   11.3110   23.4870    2.3030   C 0  0  0  0  0  0  0  0  0  0  0  0
   11.7930   23.1120    3.6080   O 0  0  0  0  0  0  0  0  0  0  0  0
   11.8950   24.2250    4.5510   C 0  0  0  0  0  0  0  0  0  0  0  0
   12.9550   23.9760    5.5860   C 0  0  0  0  0  0  0  0  0  0  0  0
   14.2570   23.6220    4.9800   C 0  0  0  0  0  0  0  0  0  0  0  0
   15.1320   22.8490    6.0000   C 0  0  0  0  0  0  0  0  0  0  0  0
   15.1410   21.3470    5.8310   C 0  0  0  0  0  0  0  0  0  0  0  0
   14.1310   20.6550    6.0000   O 0  0  0  0  0  0  0  0  0  0  0  0
   16.3590   20.7900    5.4950   N 0  0  0  0  0  0  0  0  0  0  0  0
   14.7770   23.1250    7.3840   O 0  0  0  0  0  0  0  0  0  0  0  0
   15.8900   23.3530    8.2520   C 0  0  0  0  0  0  0  0  0  0  0  0
   14.8130   24.8770    4.5610   O 0  0  0  0  0  0  0  0  0  0  0  0
   13.1170   25.1020    6.4930   O 0  0  0  0  0  0  0  0  0  0  0  0
   10.6800   24.3210    5.3860   C 0  0  0  0  0  0  0  0  0  0  0  0
   10.2950   23.3310    6.0100   O 0  0  0  0  0  0  0  0  0  0  0  0
   10.0420   25.5140    5.4090   N 0  0  0  0  0  0  0  0  0  0  0  0
    8.8530   25.7180    6.1840   C 0  0  0  0  0  0  0  0  0  0  0  0
    9.1420   26.4450    7.4680   C 0  0  0  0  0  0  0  0  0  0  0  0
    8.0410   27.2850    7.8160   C 0  0  0  0  0  0  0  0  0  0  0  0
   10.3150   26.3960    8.3190   C 0  0  0  0  0  0  0  0  0  0  0  0
   10.3540   27.2030    9.5150   C 0  0  0  0  0  0  0  0  0  0  0  0
    9.2270   28.0440    9.8480   C 0  0  0  0  0  0  0  0  0  0  0  0
    7.7630   26.6090    5.5700   C 0  0  0  0  0  0  0  0  0  0  0  0
    8.4140   27.6650    4.8690   O 0  0  0  0  0  0  0  0  0  0  0  0
    8.0590   28.0920    8.9990   C 0  0  0  0  0  0  0  0  0  0  0  0
    6.9690   27.1580    6.7820   C 0  0  0  0  0  0  0  0  0  0  0  0
   16.6030   19.3700    5.2960   C 0  0  0  0  0  0  0  0  0  0  0  0
   16.5080   18.9380    3.8540   C 0  0  0  0  0  0  0  0  0  0  0  0
   17.4320   17.8860    3.5830   C 0  0  0  0  0  0  0  0  0  0  0  0
   15.6550   19.4350    2.8070   C 0  0  0  0  0  0  0  0  0  0  0  0
   15.7550   18.8480    1.4880   C 0  0  0  0  0  0  0  0  0  0  0  0
   16.6880   17.7930    1.2350   C 0  0  0  0  0  0  0  0  0  0  0  0
   18.0030   18.8550    5.6630   C 0  0  0  0  0  0  0  0  0  0  0  0
   18.9460   19.8890    5.3350   O 0  0  0  0  0  0  0  0  0  0  0  0
   17.5400   17.2960    2.2760   C 0  0  0  0  0  0  0  0  0  0  0  0
   18.1950   17.5570    4.8220   C 0  0  0  0  0  0  0  0  0  0  0  0
   14.5850   21.0660    9.7270   F 0  0  0  0  0  0  0  0  0  0  0  0
    9.1310   21.7320    3.1530   F 0  0  0  0  0  0  0  0  0  0  0  0
  1  2  2  0  0  0  0
  1  6  1  0  0  0  0
  1 23  1  0  0  0  0
  2  3  1  0  0  0  0
  3  4  2  0  0  0  0
  4  5  1  0  0  0  0
  5  6  2  0  0  0  0
  6 49  1  0  0  0  0
  7  8  2  0  0  0  0
  7 12  1  0  0  0  0
  7 13  1  0  0  0  0
  8  9  1  0  0  0  0
  8 50  1  0  0  0  0
  9 10  2  0  0  0  0
 10 11  1  0  0  0  0
 11 12  2  0  0  0  0
 13 14  1  0  0  0  0
 14 15  1  0  0  0  0
 15 16  1  0  0  0  0
 15 26  1  0  0  0  0
 16 17  1  0  0  0  0
 16 25  1  0  0  0  0
 17 18  1  0  0  0  0
 17 24  1  0  0  0  0
 18 19  1  0  0  0  0
 18 22  1  0  0  0  0
 19 20  2  0  0  0  0
 19 21  1  0  0  0  0
 21 39  1  0  0  0  0
 22 23  1  0  0  0  0
 26 27  2  0  0  0  0
 26 28  1  0  0  0  0
 28 29  1  0  0  0  0
 29 30  1  0  0  0  0
 29 35  1  0  0  0  0
 30 31  2  0  0  0  0
 30 32  1  0  0  0  0
 31 37  1  0  0  0  0
 31 38  1  0  0  0  0
 32 33  2  0  0  0  0
 33 34  1  0  0  0  0
 34 37  2  0  0  0  0
 35 36  1  0  0  0  0
 35 38  1  0  0  0  0
 39 40  1  0  0  0  0
 39 45  1  0  0  0  0
 40 41  2  0  0  0  0
 40 42  1  0  0  0  0
 41 47  1  0  0  0  0
 41 48  1  0  0  0  0
 42 43  2  0  0  0  0
 43 44  1  0  0  0  0
 44 47  2  0  0  0  0
 45 46  1  0  0  0  0
 45 48  1  0  0  0  0
A    1
C01
A    2
C02
A    3
C03
A    4
C04
A    5
C05
A    6
C06
A    7
C07
A    8
C08
A    9
C09
A   10
C10
A   11
C11
A   12
C12
A   13
C13
A   14
O14
A   15
C15
A   16
C16
A   17
C17
A   18
C18
A   19
C19
A   20
O20
A   21
N21
A   22
O22
A   23
C23
A   24
O24
A   25
O25
A   26
C26
A   27
O27
A   28
N28
A   29
C29
A   30
C30
A   31
C31
A   32
C32
A   33
C33
A   34
C34
A   35
C35
A   36
O36
A   37
C37
A   38
C38
A   39
C39
A   40
C40
A   41
C41
A   42
C42
A   43
C43
A   44
C44
A   45
C45
A   46
O46
A   47
C47
A   48
C48
A   49
F49
A   50
F50
M  END
>  <InstanceId>
1EC0_BED_A_501

>  <ChemCompId>
BED

>  <PdbId>
1EC0

>  <ChainId>
A

>  <ResidueNumber>
501

>  <InsertionCode>


>  <Model>
1

>  <AltIds>


>  <MissingHeavyAtoms>
0

>  <ObservedFormula>
C38 N2 O8 F2

>  <Name>
N,N-[2,5-O-DI-2-FLUORO-BENZYL-GLUCARYL]-DI-[1-AMINO-INDAN-2-OL]

>  <SystematicName>
(2R,3R,4R,5R)-2,5-bis[(2-fluorophenyl)methoxy]-3,4-dihydroxy-N,N'-bis[(1S,2R)-2-hydroxy-2,3-dihydro-1H-inden-1-yl]hexanediamide

>  <Synonyms>
INHIBITOR BEA403

>  <Type>
NON-POLYMER

>  <Formula>
C38 H38 F2 N2 O8

>  <MolecularWeight>
688.714

>  <ModifiedDate>
2011-06-04

>  <Parent>


>  <OneLetterCode>


>  <SubcomponentList>


>  <AmbiguousFlag>
N

>  <InChI>
InChI=1S/C38H38F2N2O8/c39-27-15-7-3-11-23(27)19-49-35(37(47)41-31-25-13-5-1-9-21(25)17-29(31)43)33(45)34(46)36(50-20-24-12-4-8-16-28(24)40)38(48)42-32-26-14-6-2-10-22(26)18-30(32)44/h1-16,29-36,43-46H,17-20H2,(H,41,47)(H,42,48)/t29-,30-,31+,32+,33-,34-,35-,36-/m1/s1

>  <InChIKey>
LYHLPPXMBKMSSZ-JQFCFGFHSA-N

>  <SMILES>
c1ccc2c(c1)C[C@H]([C@H]2NC(=O)[C@@H]([C@@H]([C@H]([C@H](C(=O)N[C@H]3c4ccccc4C[C@H]3O)OCc5ccccc5F)O)O)OCc6ccccc6F)O

$$$$
