1EC0_BED_A_501


 56 61  0  0  0  0  0  0  0  0999 V2000
   13.8677   22.8154    5.0733 C   0  0  0  0  0  0  0  0  0  0  0  0
   14.3460   22.5406    3.7270 O   0  0  0  0  0  0  0  0  0  0  0  0
   15.0640   23.1547    3.5073 H   0  0  0  0  0  0  0  0  0  0  0  0
   13.3185   24.1869    5.1459 C   0  0  0  0  0  0  0  0  0  0  0  0
   14.3236   25.0107    4.5368 O   0  0  0  0  0  0  0  0  0  0  0  0
   14.4937   24.6990    3.6341 H   0  0  0  0  0  0  0  0  0  0  0  0
   11.9364   24.2500    4.4464 C   0  0  0  0  0  0  0  0  0  0  0  0
   10.7480   24.3284    5.3770 C   0  0  0  0  0  0  0  0  0  0  0  0
   10.4197   23.3915    6.1132 O   0  0  0  0  0  0  0  0  0  0  0  0
   10.0348   25.5102    5.3385 N   0  0  0  0  0  0  0  0  0  0  0  0
   10.3514   26.2114    4.7243 H   0  0  0  0  0  0  0  0  0  0  0  0
    8.8524   25.7999    6.1344 C   0  0  0  0  0  0  0  0  0  0  0  0
    9.1612   26.4586    7.4557 C   0  0  0  0  0  0  0  0  0  0  0  0
    8.1273   27.3729    7.8148 C   0  0  0  0  0  0  0  0  0  0  0  0
   10.2966   26.2788    8.3214 C   0  0  0  0  0  0  0  0  0  0  0  0
   10.3631   27.0382    9.5515 C   0  0  0  0  0  0  0  0  0  0  0  0
    9.3160   27.9509    9.8953 C   0  0  0  0  0  0  0  0  0  0  0  0
    7.8500   26.7994    5.5376 C   0  0  0  0  0  0  0  0  0  0  0  0
    8.6016   27.7919    4.8192 O   0  0  0  0  0  0  0  0  0  0  0  0
    8.1836   28.1329    9.0343 C   0  0  0  0  0  0  0  0  0  0  0  0
    7.0738   27.3789    6.7586 C   0  0  0  0  0  0  0  0  0  0  0  0
    9.2482   28.2016    5.4149 H   0  0  0  0  0  0  0  0  0  0  0  0
   11.7018   23.1357    3.5404 O   0  0  0  0  0  0  0  0  0  0  0  0
   11.1953   23.5067    2.2559 C   0  0  0  0  0  0  0  0  0  0  0  0
    9.7017   23.8036    2.2501 C   0  0  0  0  0  0  0  0  0  0  0  0
    9.2502   25.1201    1.8554 C   0  0  0  0  0  0  0  0  0  0  0  0
    7.8736   25.4693    1.8320 C   0  0  0  0  0  0  0  0  0  0  0  0
    6.8766   24.4972    2.2098 C   0  0  0  0  0  0  0  0  0  0  0  0
    7.2787   23.1801    2.6096 C   0  0  0  0  0  0  0  0  0  0  0  0
    8.6802   22.8399    2.6278 C   0  0  0  0  0  0  0  0  0  0  0  0
    8.9657   21.6171    3.0091 F   0  0  0  0  0  0  0  0  0  0  0  0
   14.9221   22.5692    6.1146 C   0  0  0  0  0  0  0  0  0  0  0  0
   15.1543   21.1178    5.9662 C   0  0  0  0  0  0  0  0  0  0  0  0
   14.2316   20.3319    6.1870 O   0  0  0  0  0  0  0  0  0  0  0  0
   16.3966   20.7279    5.5980 N   0  0  0  0  0  0  0  0  0  0  0  0
   17.0878   21.4118    5.4439 H   0  0  0  0  0  0  0  0  0  0  0  0
   16.7325   19.3446    5.4264 C   0  0  0  0  0  0  0  0  0  0  0  0
   16.6476   18.9246    3.9851 C   0  0  0  0  0  0  0  0  0  0  0  0
   17.6372   17.9349    3.7023 C   0  0  0  0  0  0  0  0  0  0  0  0
   15.7521   19.3758    2.9377 C   0  0  0  0  0  0  0  0  0  0  0  0
   15.8742   18.8142    1.6138 C   0  0  0  0  0  0  0  0  0  0  0  0
   16.8819   17.8122    1.3515 C   0  0  0  0  0  0  0  0  0  0  0  0
   18.1668   18.9246    5.7804 C   0  0  0  0  0  0  0  0  0  0  0  0
   19.0358   19.9815    5.3826 O   0  0  0  0  0  0  0  0  0  0  0  0
   17.7736   17.3638    2.3960 C   0  0  0  0  0  0  0  0  0  0  0  0
   18.4268   17.6498    4.9391 C   0  0  0  0  0  0  0  0  0  0  0  0
   18.9082   20.1672    4.4391 H   0  0  0  0  0  0  0  0  0  0  0  0
   14.4355   22.8849    7.4570 O   0  0  0  0  0  0  0  0  0  0  0  0
   15.4709   23.2562    8.3875 C   0  0  0  0  0  0  0  0  0  0  0  0
   16.3406   22.0756    8.8214 C   0  0  0  0  0  0  0  0  0  0  0  0
   15.7760   20.9476    9.5365 C   0  0  0  0  0  0  0  0  0  0  0  0
   16.6184   19.8435    9.9197 C   0  0  0  0  0  0  0  0  0  0  0  0
   18.0194   19.8593    9.5961 C   0  0  0  0  0  0  0  0  0  0  0  0
   18.5817   20.9801    8.8858 C   0  0  0  0  0  0  0  0  0  0  0  0
   17.7493   22.0720    8.5033 C   0  0  0  0  0  0  0  0  0  0  0  0
   14.4986   20.9099    9.8382 F   0  0  0  0  0  0  0  0  0  0  0  0
 25 26  2  0  0  0
 25 30  1  0  0  0
 25 24  1  0  0  0
 26 27  1  0  0  0
 27 28  2  0  0  0
 28 29  1  0  0  0
 29 30  2  0  0  0
 30 31  1  0  0  0
 50 51  2  0  0  0
 50 55  1  0  0  0
 50 49  1  0  0  0
 51 52  1  0  0  0
 51 56  1  0  0  0
 52 53  2  0  0  0
 53 54  1  0  0  0
 54 55  2  0  0  0
 49 48  1  0  0  0
 48 32  1  0  0  0
 32  1  1  0  0  0
 32 33  1  0  0  0
  1  4  1  0  0  0
  1  2  1  0  0  0
  4  7  1  0  0  0
  4  5  1  0  0  0
  7  8  1  0  0  0
  7 23  1  0  0  0
  8  9  2  0  0  0
  8 10  1  0  0  0
 10 12  1  0  0  0
 23 24  1  0  0  0
 33 34  2  0  0  0
 33 35  1  0  0  0
 35 37  1  0  0  0
 37 38  1  0  0  0
 37 43  1  0  0  0
 38 39  2  0  0  0
 38 40  1  0  0  0
 39 45  1  0  0  0
 39 46  1  0  0  0
 40 41  2  0  0  0
 41 42  1  0  0  0
 42 45  2  0  0  0
 43 44  1  0  0  0
 43 46  1  0  0  0
 12 13  1  0  0  0
 12 18  1  0  0  0
 13 14  2  0  0  0
 13 15  1  0  0  0
 14 20  1  0  0  0
 14 21  1  0  0  0
 15 16  2  0  0  0
 16 17  1  0  0  0
 17 20  2  0  0  0
 18 19  1  0  0  0
 18 21  1  0  0  0
 10 11  1  0  0  0
  5  6  1  0  0  0
  2  3  1  0  0  0
 35 36  1  0  0  0
 44 47  1  0  0  0
 19 22  1  0  0  0
M  END
> <minimizedAffinity>
-13.60108

$$$$
1EC0_BED_A_501


 56 61  0  0  0  0  0  0  0  0999 V2000
   12.8870   23.8596    5.6716 C   0  0  0  0  0  0  0  0  0  0  0  0
   13.0519   24.9878    6.5754 O   0  0  0  0  0  0  0  0  0  0  0  0
   13.3675   25.7578    6.0770 H   0  0  0  0  0  0  0  0  0  0  0  0
   14.1888   23.4976    5.0700 C   0  0  0  0  0  0  0  0  0  0  0  0
   14.7234   24.7407    4.5918 O   0  0  0  0  0  0  0  0  0  0  0  0
   14.7878   25.3694    5.3277 H   0  0  0  0  0  0  0  0  0  0  0  0
   15.0832   22.7821    6.1149 C   0  0  0  0  0  0  0  0  0  0  0  0
   15.1649   21.2798    5.9701 C   0  0  0  0  0  0  0  0  0  0  0  0
   14.2028   20.5386    6.1995 O   0  0  0  0  0  0  0  0  0  0  0  0
   16.3935   20.7818    5.5840 N   0  0  0  0  0  0  0  0  0  0  0  0
   17.1160   21.4310    5.4232 H   0  0  0  0  0  0  0  0  0  0  0  0
   16.7037   19.3733    5.3964 C   0  0  0  0  0  0  0  0  0  0  0  0
   16.6258   18.9249    3.9584 C   0  0  0  0  0  0  0  0  0  0  0  0
   17.5977   17.9153    3.6938 C   0  0  0  0  0  0  0  0  0  0  0  0
   15.7478   19.3721    2.9096 C   0  0  0  0  0  0  0  0  0  0  0  0
   15.8722   18.7791    1.5954 C   0  0  0  0  0  0  0  0  0  0  0  0
   16.8533   17.7671    1.3487 C   0  0  0  0  0  0  0  0  0  0  0  0
   18.1274   18.9280    5.7638 C   0  0  0  0  0  0  0  0  0  0  0  0
   19.0198   20.0024    5.4244 O   0  0  0  0  0  0  0  0  0  0  0  0
   17.7302   17.3198    2.3915 C   0  0  0  0  0  0  0  0  0  0  0  0
   18.3783   17.6333    4.9334 C   0  0  0  0  0  0  0  0  0  0  0  0
   18.9145   20.2261    4.4865 H   0  0  0  0  0  0  0  0  0  0  0  0
   14.6945   23.0623    7.4890 O   0  0  0  0  0  0  0  0  0  0  0  0
   15.7866   23.2681    8.3885 C   0  0  0  0  0  0  0  0  0  0  0  0
   16.4467   21.9772    8.8543 C   0  0  0  0  0  0  0  0  0  0  0  0
   17.8643   21.7945    8.6308 C   0  0  0  0  0  0  0  0  0  0  0  0
   18.5448   20.6144    9.0332 C   0  0  0  0  0  0  0  0  0  0  0  0
   17.8202   19.5514    9.6866 C   0  0  0  0  0  0  0  0  0  0  0  0
   16.4133   19.6887    9.9271 C   0  0  0  0  0  0  0  0  0  0  0  0
   15.7360   20.8931    9.5135 C   0  0  0  0  0  0  0  0  0  0  0  0
   14.4489   20.9393    9.7656 F   0  0  0  0  0  0  0  0  0  0  0  0
   11.8307   24.1102    4.6331 C   0  0  0  0  0  0  0  0  0  0  0  0
   10.6296   24.3056    5.4709 C   0  0  0  0  0  0  0  0  0  0  0  0
   10.2422   23.3882    6.1962 O   0  0  0  0  0  0  0  0  0  0  0  0
   10.0065   25.5034    5.3830 N   0  0  0  0  0  0  0  0  0  0  0  0
   10.3690   26.1891    4.7767 H   0  0  0  0  0  0  0  0  0  0  0  0
    8.8318   25.7998    6.1499 C   0  0  0  0  0  0  0  0  0  0  0  0
    9.1717   26.4511    7.4618 C   0  0  0  0  0  0  0  0  0  0  0  0
    8.1549   27.3853    7.8251 C   0  0  0  0  0  0  0  0  0  0  0  0
   10.3204   26.2563    8.3250 C   0  0  0  0  0  0  0  0  0  0  0  0
   10.4211   27.0151    9.5486 C   0  0  0  0  0  0  0  0  0  0  0  0
    9.3787   27.9535    9.8966 C   0  0  0  0  0  0  0  0  0  0  0  0
    7.8460   26.8157    5.5538 C   0  0  0  0  0  0  0  0  0  0  0  0
    8.6102   27.8237    4.8978 O   0  0  0  0  0  0  0  0  0  0  0  0
    8.2348   28.1467    9.0355 C   0  0  0  0  0  0  0  0  0  0  0  0
    7.0919   27.4011    6.7742 C   0  0  0  0  0  0  0  0  0  0  0  0
    9.2367   28.2150    5.5266 H   0  0  0  0  0  0  0  0  0  0  0  0
   11.6660   22.9595    3.7459 O   0  0  0  0  0  0  0  0  0  0  0  0
   11.2766   23.3022    2.4017 C   0  0  0  0  0  0  0  0  0  0  0  0
    9.8094   23.7181    2.2886 C   0  0  0  0  0  0  0  0  0  0  0  0
    8.7384   22.7916    2.5998 C   0  0  0  0  0  0  0  0  0  0  0  0
    7.3658   23.2171    2.4973 C   0  0  0  0  0  0  0  0  0  0  0  0
    7.0560   24.5593    2.0844 C   0  0  0  0  0  0  0  0  0  0  0  0
    8.1198   25.4809    1.7744 C   0  0  0  0  0  0  0  0  0  0  0  0
    9.4783   25.0626    1.8781 C   0  0  0  0  0  0  0  0  0  0  0  0
    8.9981   21.5629    2.9834 F   0  0  0  0  0  0  0  0  0  0  0  0
 25 26  2  0  0  0
 25 30  1  0  0  0
 25 24  1  0  0  0
 26 27  1  0  0  0
 27 28  2  0  0  0
 28 29  1  0  0  0
 29 30  2  0  0  0
 30 31  1  0  0  0
 50 51  2  0  0  0
 50 55  1  0  0  0
 50 49  1  0  0  0
 51 52  1  0  0  0
 51 56  1  0  0  0
 52 53  2  0  0  0
 53 54  1  0  0  0
 54 55  2  0  0  0
 49 48  1  0  0  0
 48 32  1  0  0  0
 32  1  1  0  0  0
 32 33  1  0  0  0
  1  4  1  0  0  0
  1  2  1  0  0  0
  4  7  1  0  0  0
  4  5  1  0  0  0
  7  8  1  0  0  0
  7 23  1  0  0  0
  8  9  2  0  0  0
  8 10  1  0  0  0
 10 12  1  0  0  0
 23 24  1  0  0  0
 33 34  2  0  0  0
 33 35  1  0  0  0
 35 37  1  0  0  0
 37 38  1  0  0  0
 37 43  1  0  0  0
 38 39  2  0  0  0
 38 40  1  0  0  0
 39 45  1  0  0  0
 39 46  1  0  0  0
 40 41  2  0  0  0
 41 42  1  0  0  0
 42 45  2  0  0  0
 43 44  1  0  0  0
 43 46  1  0  0  0
 12 13  1  0  0  0
 12 18  1  0  0  0
 13 14  2  0  0  0
 13 15  1  0  0  0
 14 20  1  0  0  0
 14 21  1  0  0  0
 15 16  2  0  0  0
 16 17  1  0  0  0
 17 20  2  0  0  0
 18 19  1  0  0  0
 18 21  1  0  0  0
 10 11  1  0  0  0
  5  6  1  0  0  0
  2  3  1  0  0  0
 35 36  1  0  0  0
 44 47  1  0  0  0
 19 22  1  0  0  0
M  END
> <minimizedAffinity>
-13.51315

$$$$
1EC0_BED_A_501


 56 61  0  0  0  0  0  0  0  0999 V2000
   13.0147   23.5956    5.5334 C   0  0  0  0  0  0  0  0  0  0  0  0
   13.2851   24.6534    6.4950 O   0  0  0  0  0  0  0  0  0  0  0  0
   13.6625   25.4196    6.0353 H   0  0  0  0  0  0  0  0  0  0  0  0
   14.2749   23.1560    4.8959 C   0  0  0  0  0  0  0  0  0  0  0  0
   15.1080   24.3246    4.8999 O   0  0  0  0  0  0  0  0  0  0  0  0
   15.2140   24.6429    5.8100 H   0  0  0  0  0  0  0  0  0  0  0  0
   14.8720   21.9480    5.6626 C   0  0  0  0  0  0  0  0  0  0  0  0
   15.5948   22.2939    6.9443 C   0  0  0  0  0  0  0  0  0  0  0  0
   15.6343   23.4448    7.3930 O   0  0  0  0  0  0  0  0  0  0  0  0
   16.2298   21.2427    7.5755 N   0  0  0  0  0  0  0  0  0  0  0  0
   16.1599   20.3538    7.1581 H   0  0  0  0  0  0  0  0  0  0  0  0
   16.9938   21.3461    8.8089 C   0  0  0  0  0  0  0  0  0  0  0  0
   17.0945   20.0458    9.5667 C   0  0  0  0  0  0  0  0  0  0  0  0
   18.3512   19.9495   10.2340 C   0  0  0  0  0  0  0  0  0  0  0  0
   16.1363   18.9780    9.6777 C   0  0  0  0  0  0  0  0  0  0  0  0
   16.4737   17.8178   10.4743 C   0  0  0  0  0  0  0  0  0  0  0  0
   17.7395   17.7391   11.1368 C   0  0  0  0  0  0  0  0  0  0  0  0
   18.4778   21.7178    8.6692 C   0  0  0  0  0  0  0  0  0  0  0  0
   18.9681   21.1031    7.4659 O   0  0  0  0  0  0  0  0  0  0  0  0
   18.6969   18.8012   11.0276 C   0  0  0  0  0  0  0  0  0  0  0  0
   19.1593   21.1734    9.9607 C   0  0  0  0  0  0  0  0  0  0  0  0
   18.8109   20.1467    7.5042 H   0  0  0  0  0  0  0  0  0  0  0  0
   15.7835   21.1512    4.8552 O   0  0  0  0  0  0  0  0  0  0  0  0
   15.1668   20.4559    3.7688 C   0  0  0  0  0  0  0  0  0  0  0  0
   15.9776   19.2704    3.2626 C   0  0  0  0  0  0  0  0  0  0  0  0
   16.8320   18.5591    4.1882 C   0  0  0  0  0  0  0  0  0  0  0  0
   17.6205   17.4485    3.7851 C   0  0  0  0  0  0  0  0  0  0  0  0
   17.5846   16.9983    2.4147 C   0  0  0  0  0  0  0  0  0  0  0  0
   16.7530   17.6747    1.4622 C   0  0  0  0  0  0  0  0  0  0  0  0
   15.9574   18.8004    1.8865 C   0  0  0  0  0  0  0  0  0  0  0  0
   15.2274   19.3669    0.9546 F   0  0  0  0  0  0  0  0  0  0  0  0
   11.9757   23.9939    4.5241 C   0  0  0  0  0  0  0  0  0  0  0  0
   10.7841   24.1744    5.3786 C   0  0  0  0  0  0  0  0  0  0  0  0
   10.3907   23.2367    6.0741 O   0  0  0  0  0  0  0  0  0  0  0  0
   10.1757   25.3824    5.3387 N   0  0  0  0  0  0  0  0  0  0  0  0
   10.5421   26.0847    4.7542 H   0  0  0  0  0  0  0  0  0  0  0  0
    9.0112   25.6661    6.1258 C   0  0  0  0  0  0  0  0  0  0  0  0
    9.3680   26.3016    7.4409 C   0  0  0  0  0  0  0  0  0  0  0  0
    8.3541   27.2285    7.8303 C   0  0  0  0  0  0  0  0  0  0  0  0
   10.5293   26.0989    8.2853 C   0  0  0  0  0  0  0  0  0  0  0  0
   10.6453   26.8424    9.5169 C   0  0  0  0  0  0  0  0  0  0  0  0
    9.6056   27.7736    9.8914 C   0  0  0  0  0  0  0  0  0  0  0  0
    8.0147   26.6868    5.5565 C   0  0  0  0  0  0  0  0  0  0  0  0
    8.7672   27.7050    4.9027 O   0  0  0  0  0  0  0  0  0  0  0  0
    8.4493   27.9747    9.0490 C   0  0  0  0  0  0  0  0  0  0  0  0
    7.2764   27.2547    6.7947 C   0  0  0  0  0  0  0  0  0  0  0  0
    9.4015   28.0899    5.5275 H   0  0  0  0  0  0  0  0  0  0  0  0
   11.7539   22.9387    3.5363 O   0  0  0  0  0  0  0  0  0  0  0  0
   11.3029   23.4166    2.2541 C   0  0  0  0  0  0  0  0  0  0  0  0
    9.8113   23.7528    2.2288 C   0  0  0  0  0  0  0  0  0  0  0  0
    8.8112   22.7662    2.5876 C   0  0  0  0  0  0  0  0  0  0  0  0
    7.4141   23.1171    2.5676 C   0  0  0  0  0  0  0  0  0  0  0  0
    7.0093   24.4443    2.1900 C   0  0  0  0  0  0  0  0  0  0  0  0
    8.0025   25.4256    1.8326 C   0  0  0  0  0  0  0  0  0  0  0  0
    9.3854   25.0811    1.8546 C   0  0  0  0  0  0  0  0  0  0  0  0
    9.1583   21.5499    2.9403 F   0  0  0  0  0  0  0  0  0  0  0  0
 25 26  2  0  0  0
 25 30  1  0  0  0
 25 24  1  0  0  0
 26 27  1  0  0  0
 27 28  2  0  0  0
 28 29  1  0  0  0
 29 30  2  0  0  0
 30 31  1  0  0  0
 50 51  2  0  0  0
 50 55  1  0  0  0
 50 49  1  0  0  0
 51 52  1  0  0  0
 51 56  1  0  0  0
 52 53  2  0  0  0
 53 54  1  0  0  0
 54 55  2  0  0  0
 49 48  1  0  0  0
 48 32  1  0  0  0
 32  1  1  0  0  0
 32 33  1  0  0  0
  1  4  1  0  0  0
  1  2  1  0  0  0
  4  7  1  0  0  0
  4  5  1  0  0  0
  7  8  1  0  0  0
  7 23  1  0  0  0
  8  9  2  0  0  0
  8 10  1  0  0  0
 10 12  1  0  0  0
 23 24  1  0  0  0
 33 34  2  0  0  0
 33 35  1  0  0  0
 35 37  1  0  0  0
 37 38  1  0  0  0
 37 43  1  0  0  0
 38 39  2  0  0  0
 38 40  1  0  0  0
 39 45  1  0  0  0
 39 46  1  0  0  0
 40 41  2  0  0  0
 41 42  1  0  0  0
 42 45  2  0  0  0
 43 44  1  0  0  0
 43 46  1  0  0  0
 12 13  1  0  0  0
 12 18  1  0  0  0
 13 14  2  0  0  0
 13 15  1  0  0  0
 14 20  1  0  0  0
 14 21  1  0  0  0
 15 16  2  0  0  0
 16 17  1  0  0  0
 17 20  2  0  0  0
 18 19  1  0  0  0
 18 21  1  0  0  0
 10 11  1  0  0  0
  5  6  1  0  0  0
  2  3  1  0  0  0
 35 36  1  0  0  0
 44 47  1  0  0  0
 19 22  1  0  0  0
M  END
> <minimizedAffinity>
-12.73153

$$$$
1EC0_BED_A_501


 56 61  0  0  0  0  0  0  0  0999 V2000
   13.9478   22.1813    5.2806 C   0  0  0  0  0  0  0  0  0  0  0  0
   14.3037   23.3132    6.1226 O   0  0  0  0  0  0  0  0  0  0  0  0
   13.6076   23.4566    6.7828 H   0  0  0  0  0  0  0  0  0  0  0  0
   12.6937   22.4675    4.5504 C   0  0  0  0  0  0  0  0  0  0  0  0
   11.7700   21.4727    5.0163 O   0  0  0  0  0  0  0  0  0  0  0  0
   11.6896   21.5327    5.9810 H   0  0  0  0  0  0  0  0  0  0  0  0
   12.2404   23.9268    4.8123 C   0  0  0  0  0  0  0  0  0  0  0  0
   11.0421   24.0742    5.7217 C   0  0  0  0  0  0  0  0  0  0  0  0
   10.7415   23.2225    6.5653 O   0  0  0  0  0  0  0  0  0  0  0  0
   10.2873   25.2156    5.5364 N   0  0  0  0  0  0  0  0  0  0  0  0
   10.5837   25.8480    4.8426 H   0  0  0  0  0  0  0  0  0  0  0  0
    9.0886   25.5565    6.2863 C   0  0  0  0  0  0  0  0  0  0  0  0
    9.3703   26.2970    7.5698 C   0  0  0  0  0  0  0  0  0  0  0  0
    8.3313   27.2335    7.8477 C   0  0  0  0  0  0  0  0  0  0  0  0
   10.4860   26.1709    8.4698 C   0  0  0  0  0  0  0  0  0  0  0  0
   10.5277   27.0065    9.6507 C   0  0  0  0  0  0  0  0  0  0  0  0
    9.4758   27.9403    9.9131 C   0  0  0  0  0  0  0  0  0  0  0  0
    8.1021   26.5175    5.6058 C   0  0  0  0  0  0  0  0  0  0  0  0
    8.8718   27.4617    4.8428 O   0  0  0  0  0  0  0  0  0  0  0  0
    8.3630   28.0690    9.0177 C   0  0  0  0  0  0  0  0  0  0  0  0
    7.3010   27.1741    6.7704 C   0  0  0  0  0  0  0  0  0  0  0  0
    9.5063   27.9075    5.4254 H   0  0  0  0  0  0  0  0  0  0  0  0
   11.9486   24.6635    3.5917 O   0  0  0  0  0  0  0  0  0  0  0  0
   11.4204   23.8693    2.5266 C   0  0  0  0  0  0  0  0  0  0  0  0
    9.9073   23.9665    2.3839 C   0  0  0  0  0  0  0  0  0  0  0  0
    9.3243   25.2110    1.9321 C   0  0  0  0  0  0  0  0  0  0  0  0
    7.9215   25.3754    1.7815 C   0  0  0  0  0  0  0  0  0  0  0  0
    7.0309   24.2810    2.0829 C   0  0  0  0  0  0  0  0  0  0  0  0
    7.5647   23.0294    2.5354 C   0  0  0  0  0  0  0  0  0  0  0  0
    8.9914   22.8772    2.6828 C   0  0  0  0  0  0  0  0  0  0  0  0
    9.3994   21.7037    3.1053 F   0  0  0  0  0  0  0  0  0  0  0  0
   13.8747   20.8956    6.0541 C   0  0  0  0  0  0  0  0  0  0  0  0
   14.5840   21.2560    7.2989 C   0  0  0  0  0  0  0  0  0  0  0  0
   13.9455   21.7117    8.2488 O   0  0  0  0  0  0  0  0  0  0  0  0
   15.9240   21.0695    7.3195 N   0  0  0  0  0  0  0  0  0  0  0  0
   16.3699   20.7064    6.5204 H   0  0  0  0  0  0  0  0  0  0  0  0
   16.7115   21.3871    8.4749 C   0  0  0  0  0  0  0  0  0  0  0  0
   16.9486   20.1788    9.3377 C   0  0  0  0  0  0  0  0  0  0  0  0
   18.2341   20.2594    9.9542 C   0  0  0  0  0  0  0  0  0  0  0  0
   16.0929   19.0358    9.5902 C   0  0  0  0  0  0  0  0  0  0  0  0
   16.5555   17.9873   10.4676 C   0  0  0  0  0  0  0  0  0  0  0  0
   17.8594   18.0916   11.0819 C   0  0  0  0  0  0  0  0  0  0  0  0
   18.1484   21.8712    8.2298 C   0  0  0  0  0  0  0  0  0  0  0  0
   18.6674   21.1374    7.1241 O   0  0  0  0  0  0  0  0  0  0  0  0
   18.7111   19.2309   10.8293 C   0  0  0  0  0  0  0  0  0  0  0  0
   18.9128   21.5224    9.5316 C   0  0  0  0  0  0  0  0  0  0  0  0
   18.6050   20.1872    7.3086 H   0  0  0  0  0  0  0  0  0  0  0  0
   14.5632   19.8097    5.3574 O   0  0  0  0  0  0  0  0  0  0  0  0
   15.2322   20.2159    4.1477 C   0  0  0  0  0  0  0  0  0  0  0  0
   16.0826   19.1054    3.5294 C   0  0  0  0  0  0  0  0  0  0  0  0
   16.0454   18.8331    2.1057 C   0  0  0  0  0  0  0  0  0  0  0  0
   16.8687   17.7893    1.5506 C   0  0  0  0  0  0  0  0  0  0  0  0
   17.7263   17.0152    2.4069 C   0  0  0  0  0  0  0  0  0  0  0  0
   17.7637   17.2847    3.8222 C   0  0  0  0  0  0  0  0  0  0  0  0
   16.9520   18.3188    4.3728 C   0  0  0  0  0  0  0  0  0  0  0  0
   15.2736   19.5306    1.3045 F   0  0  0  0  0  0  0  0  0  0  0  0
 25 26  2  0  0  0
 25 30  1  0  0  0
 25 24  1  0  0  0
 26 27  1  0  0  0
 27 28  2  0  0  0
 28 29  1  0  0  0
 29 30  2  0  0  0
 30 31  1  0  0  0
 50 51  2  0  0  0
 50 55  1  0  0  0
 50 49  1  0  0  0
 51 52  1  0  0  0
 51 56  1  0  0  0
 52 53  2  0  0  0
 53 54  1  0  0  0
 54 55  2  0  0  0
 49 48  1  0  0  0
 48 32  1  0  0  0
 32  1  1  0  0  0
 32 33  1  0  0  0
  1  4  1  0  0  0
  1  2  1  0  0  0
  4  7  1  0  0  0
  4  5  1  0  0  0
  7  8  1  0  0  0
  7 23  1  0  0  0
  8  9  2  0  0  0
  8 10  1  0  0  0
 10 12  1  0  0  0
 23 24  1  0  0  0
 33 34  2  0  0  0
 33 35  1  0  0  0
 35 37  1  0  0  0
 37 38  1  0  0  0
 37 43  1  0  0  0
 38 39  2  0  0  0
 38 40  1  0  0  0
 39 45  1  0  0  0
 39 46  1  0  0  0
 40 41  2  0  0  0
 41 42  1  0  0  0
 42 45  2  0  0  0
 43 44  1  0  0  0
 43 46  1  0  0  0
 12 13  1  0  0  0
 12 18  1  0  0  0
 13 14  2  0  0  0
 13 15  1  0  0  0
 14 20  1  0  0  0
 14 21  1  0  0  0
 15 16  2  0  0  0
 16 17  1  0  0  0
 17 20  2  0  0  0
 18 19  1  0  0  0
 18 21  1  0  0  0
 10 11  1  0  0  0
  5  6  1  0  0  0
  2  3  1  0  0  0
 35 36  1  0  0  0
 44 47  1  0  0  0
 19 22  1  0  0  0
M  END
> <minimizedAffinity>
-12.46773

$$$$
1EC0_BED_A_501


 56 61  0  0  0  0  0  0  0  0999 V2000
   12.9585   22.3352    6.4760 C   0  0  0  0  0  0  0  0  0  0  0  0
   12.8384   23.1243    7.6924 O   0  0  0  0  0  0  0  0  0  0  0  0
   13.2985   23.9703    7.5758 H   0  0  0  0  0  0  0  0  0  0  0  0
   14.3812   22.0346    6.2053 C   0  0  0  0  0  0  0  0  0  0  0  0
   15.0904   23.1883    6.6806 O   0  0  0  0  0  0  0  0  0  0  0  0
   14.8865   23.3296    7.6184 H   0  0  0  0  0  0  0  0  0  0  0  0
   14.7911   20.7085    6.8960 C   0  0  0  0  0  0  0  0  0  0  0  0
   15.3417   20.8562    8.2958 C   0  0  0  0  0  0  0  0  0  0  0  0
   15.0788   21.8285    9.0122 O   0  0  0  0  0  0  0  0  0  0  0  0
   16.1783   19.8428    8.7197 N   0  0  0  0  0  0  0  0  0  0  0  0
   16.3469   19.1019    8.0938 H   0  0  0  0  0  0  0  0  0  0  0  0
   16.8300   19.7845   10.0188 C   0  0  0  0  0  0  0  0  0  0  0  0
   16.9397   18.3873   10.5763 C   0  0  0  0  0  0  0  0  0  0  0  0
   18.1398   18.2412   11.3327 C   0  0  0  0  0  0  0  0  0  0  0  0
   16.0366   17.2756   10.4362 C   0  0  0  0  0  0  0  0  0  0  0  0
   16.3708   16.0206   11.0747 C   0  0  0  0  0  0  0  0  0  0  0  0
   17.5795   15.8930   11.8299 C   0  0  0  0  0  0  0  0  0  0  0  0
   18.2974   20.2359   10.0726 C   0  0  0  0  0  0  0  0  0  0  0  0
   18.9198   19.8380    8.8396 O   0  0  0  0  0  0  0  0  0  0  0  0
   18.4819   16.9986   11.9707 C   0  0  0  0  0  0  0  0  0  0  0  0
   18.8983   19.5257   11.3230 C   0  0  0  0  0  0  0  0  0  0  0  0
   18.8136   18.8816    8.7177 H   0  0  0  0  0  0  0  0  0  0  0  0
   15.7608   19.9400    6.1301 O   0  0  0  0  0  0  0  0  0  0  0  0
   15.9361   20.3759    4.7798 C   0  0  0  0  0  0  0  0  0  0  0  0
   16.4315   19.2818    3.8435 C   0  0  0  0  0  0  0  0  0  0  0  0
   17.4280   18.3484    4.3213 C   0  0  0  0  0  0  0  0  0  0  0  0
   17.9398   17.3071    3.5020 C   0  0  0  0  0  0  0  0  0  0  0  0
   17.4661   17.1566    2.1474 C   0  0  0  0  0  0  0  0  0  0  0  0
   16.4797   18.0603    1.6311 C   0  0  0  0  0  0  0  0  0  0  0  0
   15.9689   19.1123    2.4752 C   0  0  0  0  0  0  0  0  0  0  0  0
   15.0727   19.8991    1.9274 F   0  0  0  0  0  0  0  0  0  0  0  0
   12.2821   22.9873    5.3038 C   0  0  0  0  0  0  0  0  0  0  0  0
   12.0679   24.3591    5.8087 C   0  0  0  0  0  0  0  0  0  0  0  0
   12.9693   25.1917    5.6993 O   0  0  0  0  0  0  0  0  0  0  0  0
   10.8716   24.6235    6.3830 N   0  0  0  0  0  0  0  0  0  0  0  0
   10.1992   23.9068    6.4419 H   0  0  0  0  0  0  0  0  0  0  0  0
   10.5578   25.9203    6.9082 C   0  0  0  0  0  0  0  0  0  0  0  0
    9.1732   26.3593    6.5198 C   0  0  0  0  0  0  0  0  0  0  0  0
    8.5969   27.1475    7.5617 C   0  0  0  0  0  0  0  0  0  0  0  0
    8.4195   26.0921    5.3102 C   0  0  0  0  0  0  0  0  0  0  0  0
    7.0872   26.6305    5.1749 C   0  0  0  0  0  0  0  0  0  0  0  0
    6.5254   27.4272    6.2416 C   0  0  0  0  0  0  0  0  0  0  0  0
   10.5027   26.0606    8.4366 C   0  0  0  0  0  0  0  0  0  0  0  0
    9.9359   24.8623    8.9591 O   0  0  0  0  0  0  0  0  0  0  0  0
    7.2775   27.6924    7.4464 C   0  0  0  0  0  0  0  0  0  0  0  0
    9.5682   27.2701    8.6913 C   0  0  0  0  0  0  0  0  0  0  0  0
    9.0684   24.7108    8.5525 H   0  0  0  0  0  0  0  0  0  0  0  0
   11.0077   22.3417    4.9916 O   0  0  0  0  0  0  0  0  0  0  0  0
   10.7742   22.1481    3.5830 C   0  0  0  0  0  0  0  0  0  0  0  0
    9.7329   23.1096    3.0088 C   0  0  0  0  0  0  0  0  0  0  0  0
   10.1261   24.3476    2.3644 C   0  0  0  0  0  0  0  0  0  0  0  0
    9.1225   25.2265    1.8206 C   0  0  0  0  0  0  0  0  0  0  0  0
    7.7305   24.8789    1.9177 C   0  0  0  0  0  0  0  0  0  0  0  0
    7.3386   23.6489    2.5583 C   0  0  0  0  0  0  0  0  0  0  0  0
    8.3302   22.7767    3.0944 C   0  0  0  0  0  0  0  0  0  0  0  0
   11.3915   24.6826    2.2602 F   0  0  0  0  0  0  0  0  0  0  0  0
 25 26  2  0  0  0
 25 30  1  0  0  0
 25 24  1  0  0  0
 26 27  1  0  0  0
 27 28  2  0  0  0
 28 29  1  0  0  0
 29 30  2  0  0  0
 30 31  1  0  0  0
 50 51  2  0  0  0
 50 55  1  0  0  0
 50 49  1  0  0  0
 51 52  1  0  0  0
 51 56  1  0  0  0
 52 53  2  0  0  0
 53 54  1  0  0  0
 54 55  2  0  0  0
 49 48  1  0  0  0
 48 32  1  0  0  0
 32  1  1  0  0  0
 32 33  1  0  0  0
  1  4  1  0  0  0
  1  2  1  0  0  0
  4  7  1  0  0  0
  4  5  1  0  0  0
  7  8  1  0  0  0
  7 23  1  0  0  0
  8  9  2  0  0  0
  8 10  1  0  0  0
 10 12  1  0  0  0
 23 24  1  0  0  0
 33 34  2  0  0  0
 33 35  1  0  0  0
 35 37  1  0  0  0
 37 38  1  0  0  0
 37 43  1  0  0  0
 38 39  2  0  0  0
 38 40  1  0  0  0
 39 45  1  0  0  0
 39 46  1  0  0  0
 40 41  2  0  0  0
 41 42  1  0  0  0
 42 45  2  0  0  0
 43 44  1  0  0  0
 43 46  1  0  0  0
 12 13  1  0  0  0
 12 18  1  0  0  0
 13 14  2  0  0  0
 13 15  1  0  0  0
 14 20  1  0  0  0
 14 21  1  0  0  0
 15 16  2  0  0  0
 16 17  1  0  0  0
 17 20  2  0  0  0
 18 19  1  0  0  0
 18 21  1  0  0  0
 10 11  1  0  0  0
  5  6  1  0  0  0
  2  3  1  0  0  0
 35 36  1  0  0  0
 44 47  1  0  0  0
 19 22  1  0  0  0
M  END
> <minimizedAffinity>
-12.16407

$$$$
1EC0_BED_A_501


 56 61  0  0  0  0  0  0  0  0999 V2000
   14.5162   23.2305    6.5144 C   0  0  0  0  0  0  0  0  0  0  0  0
   14.2563   22.4548    5.3112 O   0  0  0  0  0  0  0  0  0  0  0  0
   14.0023   21.5516    5.5574 H   0  0  0  0  0  0  0  0  0  0  0  0
   15.6455   22.6392    7.2645 C   0  0  0  0  0  0  0  0  0  0  0  0
   15.5101   23.1640    8.5934 O   0  0  0  0  0  0  0  0  0  0  0  0
   14.6361   22.9326    8.9449 H   0  0  0  0  0  0  0  0  0  0  0  0
   15.5921   21.0918    7.1847 C   0  0  0  0  0  0  0  0  0  0  0  0
   15.7743   20.3735    8.5020 C   0  0  0  0  0  0  0  0  0  0  0  0
   14.9791   20.4976    9.4400 O   0  0  0  0  0  0  0  0  0  0  0  0
   16.9015   19.5822    8.6012 N   0  0  0  0  0  0  0  0  0  0  0  0
   17.4930   19.5345    7.8156 H   0  0  0  0  0  0  0  0  0  0  0  0
   17.2834   18.8137    9.7756 C   0  0  0  0  0  0  0  0  0  0  0  0
   18.2472   17.6930    9.4757 C   0  0  0  0  0  0  0  0  0  0  0  0
   19.1457   17.4981   10.5660 C   0  0  0  0  0  0  0  0  0  0  0  0
   18.3499   16.8676    8.3014 C   0  0  0  0  0  0  0  0  0  0  0  0
   19.3738   15.8460    8.2540 C   0  0  0  0  0  0  0  0  0  0  0  0
   20.2662   15.6651    9.3579 C   0  0  0  0  0  0  0  0  0  0  0  0
   18.0475   19.5696   10.8732 C   0  0  0  0  0  0  0  0  0  0  0  0
   18.8984   20.5309   10.2268 O   0  0  0  0  0  0  0  0  0  0  0  0
   20.1671   16.4865   10.5292 C   0  0  0  0  0  0  0  0  0  0  0  0
   18.8363   18.4737   11.6514 C   0  0  0  0  0  0  0  0  0  0  0  0
   19.4777   20.0767    9.5950 H   0  0  0  0  0  0  0  0  0  0  0  0
   16.5589   20.5329    6.2516 O   0  0  0  0  0  0  0  0  0  0  0  0
   16.0267   20.2031    4.9662 C   0  0  0  0  0  0  0  0  0  0  0  0
   16.7922   19.0967    4.2530 C   0  0  0  0  0  0  0  0  0  0  0  0
   17.8333   18.3912    4.9681 C   0  0  0  0  0  0  0  0  0  0  0  0
   18.5916   17.3528    4.3647 C   0  0  0  0  0  0  0  0  0  0  0  0
   18.3334   16.9729    2.9969 C   0  0  0  0  0  0  0  0  0  0  0  0
   17.3118   17.6462    2.2492 C   0  0  0  0  0  0  0  0  0  0  0  0
   16.5495   18.6983    2.8756 C   0  0  0  0  0  0  0  0  0  0  0  0
   15.6369   19.2672    2.1235 F   0  0  0  0  0  0  0  0  0  0  0  0
   13.2892   23.3903    7.3663 C   0  0  0  0  0  0  0  0  0  0  0  0
   12.2718   22.6870    6.5583 C   0  0  0  0  0  0  0  0  0  0  0  0
   12.0299   21.5013    6.7888 O   0  0  0  0  0  0  0  0  0  0  0  0
   11.6592   23.3995    5.5847 N   0  0  0  0  0  0  0  0  0  0  0  0
   11.9073   24.3430    5.4526 H   0  0  0  0  0  0  0  0  0  0  0  0
   10.6579   22.8161    4.7403 C   0  0  0  0  0  0  0  0  0  0  0  0
    9.7038   23.8501    4.2100 C   0  0  0  0  0  0  0  0  0  0  0  0
    9.2715   23.4928    2.8969 C   0  0  0  0  0  0  0  0  0  0  0  0
    9.2170   25.0681    4.8281 C   0  0  0  0  0  0  0  0  0  0  0  0
    8.2954   25.9089    4.1022 C   0  0  0  0  0  0  0  0  0  0  0  0
    7.8703   25.5259    2.7753 C   0  0  0  0  0  0  0  0  0  0  0  0
   11.1391   22.1532    3.4411 C   0  0  0  0  0  0  0  0  0  0  0  0
   12.2139   22.9367    2.9301 O   0  0  0  0  0  0  0  0  0  0  0  0
    8.3563   24.3121    2.1605 C   0  0  0  0  0  0  0  0  0  0  0  0
    9.9163   22.2067    2.4910 C   0  0  0  0  0  0  0  0  0  0  0  0
   11.9181   23.8528    2.8110 H   0  0  0  0  0  0  0  0  0  0  0  0
   12.9352   24.7985    7.5396 O   0  0  0  0  0  0  0  0  0  0  0  0
   12.4844   25.1343    8.8663 C   0  0  0  0  0  0  0  0  0  0  0  0
   11.0261   25.5930    8.9072 C   0  0  0  0  0  0  0  0  0  0  0  0
   10.6578   26.8819    9.4599 C   0  0  0  0  0  0  0  0  0  0  0  0
    9.2768   27.2921    9.4718 C   0  0  0  0  0  0  0  0  0  0  0  0
    8.2622   26.4239    8.9383 C   0  0  0  0  0  0  0  0  0  0  0  0
    8.6271   25.1423    8.3892 C   0  0  0  0  0  0  0  0  0  0  0  0
    9.9932   24.7361    8.3739 C   0  0  0  0  0  0  0  0  0  0  0  0
   11.5681   27.6927    9.9479 F   0  0  0  0  0  0  0  0  0  0  0  0
 25 26  2  0  0  0
 25 30  1  0  0  0
 25 24  1  0  0  0
 26 27  1  0  0  0
 27 28  2  0  0  0
 28 29  1  0  0  0
 29 30  2  0  0  0
 30 31  1  0  0  0
 50 51  2  0  0  0
 50 55  1  0  0  0
 50 49  1  0  0  0
 51 52  1  0  0  0
 51 56  1  0  0  0
 52 53  2  0  0  0
 53 54  1  0  0  0
 54 55  2  0  0  0
 49 48  1  0  0  0
 48 32  1  0  0  0
 32  1  1  0  0  0
 32 33  1  0  0  0
  1  4  1  0  0  0
  1  2  1  0  0  0
  4  7  1  0  0  0
  4  5  1  0  0  0
  7  8  1  0  0  0
  7 23  1  0  0  0
  8  9  2  0  0  0
  8 10  1  0  0  0
 10 12  1  0  0  0
 23 24  1  0  0  0
 33 34  2  0  0  0
 33 35  1  0  0  0
 35 37  1  0  0  0
 37 38  1  0  0  0
 37 43  1  0  0  0
 38 39  2  0  0  0
 38 40  1  0  0  0
 39 45  1  0  0  0
 39 46  1  0  0  0
 40 41  2  0  0  0
 41 42  1  0  0  0
 42 45  2  0  0  0
 43 44  1  0  0  0
 43 46  1  0  0  0
 12 13  1  0  0  0
 12 18  1  0  0  0
 13 14  2  0  0  0
 13 15  1  0  0  0
 14 20  1  0  0  0
 14 21  1  0  0  0
 15 16  2  0  0  0
 16 17  1  0  0  0
 17 20  2  0  0  0
 18 19  1  0  0  0
 18 21  1  0  0  0
 10 11  1  0  0  0
  5  6  1  0  0  0
  2  3  1  0  0  0
 35 36  1  0  0  0
 44 47  1  0  0  0
 19 22  1  0  0  0
M  END
> <minimizedAffinity>
-12.15438

$$$$
1EC0_BED_A_501


 56 61  0  0  0  0  0  0  0  0999 V2000
   13.7185   22.8386    5.2564 C   0  0  0  0  0  0  0  0  0  0  0  0
   14.1605   22.7468    3.8733 O   0  0  0  0  0  0  0  0  0  0  0  0
   14.7877   23.4627    3.6861 H   0  0  0  0  0  0  0  0  0  0  0  0
   13.0121   24.1189    5.4788 C   0  0  0  0  0  0  0  0  0  0  0  0
   13.6000   25.0243    4.5331 O   0  0  0  0  0  0  0  0  0  0  0  0
   13.4994   24.6664    3.6372 H   0  0  0  0  0  0  0  0  0  0  0  0
   11.4834   23.9260    5.3071 C   0  0  0  0  0  0  0  0  0  0  0  0
   10.9852   23.9772    3.8810 C   0  0  0  0  0  0  0  0  0  0  0  0
   11.7482   23.9234    2.9101 O   0  0  0  0  0  0  0  0  0  0  0  0
    9.6192   24.1098    3.7288 N   0  0  0  0  0  0  0  0  0  0  0  0
    9.0734   24.1512    4.5471 H   0  0  0  0  0  0  0  0  0  0  0  0
    8.9238   24.1932    2.4541 C   0  0  0  0  0  0  0  0  0  0  0  0
    7.4408   23.9386    2.5583 C   0  0  0  0  0  0  0  0  0  0  0  0
    6.7278   24.7274    1.6078 C   0  0  0  0  0  0  0  0  0  0  0  0
    6.7264   23.0576    3.4439 C   0  0  0  0  0  0  0  0  0  0  0  0
    5.2839   22.9909    3.3475 C   0  0  0  0  0  0  0  0  0  0  0  0
    4.5858   23.7897    2.3873 C   0  0  0  0  0  0  0  0  0  0  0  0
    8.9364   25.5596    1.7522 C   0  0  0  0  0  0  0  0  0  0  0  0
    8.8770   26.5718    2.7709 O   0  0  0  0  0  0  0  0  0  0  0  0
    5.2947   24.6692    1.5039 C   0  0  0  0  0  0  0  0  0  0  0  0
    7.6886   25.5516    0.8184 C   0  0  0  0  0  0  0  0  0  0  0  0
    8.0931   26.4283    3.3239 H   0  0  0  0  0  0  0  0  0  0  0  0
   10.6962   24.8805    6.0733 O   0  0  0  0  0  0  0  0  0  0  0  0
   10.6539   24.6272    7.4798 C   0  0  0  0  0  0  0  0  0  0  0  0
   10.0025   25.7450    8.2831 C   0  0  0  0  0  0  0  0  0  0  0  0
    8.6210   26.0840    8.0199 C   0  0  0  0  0  0  0  0  0  0  0  0
    7.9511   27.1184    8.7261 C   0  0  0  0  0  0  0  0  0  0  0  0
    8.6502   27.8681    9.7415 C   0  0  0  0  0  0  0  0  0  0  0  0
   10.0213   27.5674   10.0345 C   0  0  0  0  0  0  0  0  0  0  0  0
   10.6881   26.5137    9.3097 C   0  0  0  0  0  0  0  0  0  0  0  0
   11.9424   26.3036    9.6335 F   0  0  0  0  0  0  0  0  0  0  0  0
   14.8443   22.6337    6.2298 C   0  0  0  0  0  0  0  0  0  0  0  0
   15.0948   21.1840    6.0948 C   0  0  0  0  0  0  0  0  0  0  0  0
   14.2307   20.3844    6.4577 O   0  0  0  0  0  0  0  0  0  0  0  0
   16.2886   20.8114    5.5783 N   0  0  0  0  0  0  0  0  0  0  0  0
   16.9348   21.5059    5.3148 H   0  0  0  0  0  0  0  0  0  0  0  0
   16.6370   19.4314    5.4046 C   0  0  0  0  0  0  0  0  0  0  0  0
   16.5668   19.0158    3.9613 C   0  0  0  0  0  0  0  0  0  0  0  0
   17.5666   18.0350    3.6829 C   0  0  0  0  0  0  0  0  0  0  0  0
   15.6759   19.4633    2.9085 C   0  0  0  0  0  0  0  0  0  0  0  0
   15.8129   18.9073    1.5836 C   0  0  0  0  0  0  0  0  0  0  0  0
   16.8307   17.9143    1.3259 C   0  0  0  0  0  0  0  0  0  0  0  0
   18.0719   19.0219    5.7685 C   0  0  0  0  0  0  0  0  0  0  0  0
   18.9353   20.0871    5.3811 O   0  0  0  0  0  0  0  0  0  0  0  0
   17.7179   17.4695    2.3759 C   0  0  0  0  0  0  0  0  0  0  0  0
   18.3488   17.7521    4.9249 C   0  0  0  0  0  0  0  0  0  0  0  0
   18.8137   20.2750    4.4372 H   0  0  0  0  0  0  0  0  0  0  0  0
   14.4413   22.9683    7.5952 O   0  0  0  0  0  0  0  0  0  0  0  0
   15.5392   23.2821    8.4739 C   0  0  0  0  0  0  0  0  0  0  0  0
   16.3595   22.0547    8.8728 C   0  0  0  0  0  0  0  0  0  0  0  0
   15.7556   20.9442    9.5831 C   0  0  0  0  0  0  0  0  0  0  0  0
   16.5512   19.7953    9.9330 C   0  0  0  0  0  0  0  0  0  0  0  0
   17.9446   19.7488    9.5808 C   0  0  0  0  0  0  0  0  0  0  0  0
   18.5460   20.8522    8.8751 C   0  0  0  0  0  0  0  0  0  0  0  0
   17.7598   21.9885    8.5255 C   0  0  0  0  0  0  0  0  0  0  0  0
   14.4841   20.9631    9.9105 F   0  0  0  0  0  0  0  0  0  0  0  0
 25 26  2  0  0  0
 25 30  1  0  0  0
 25 24  1  0  0  0
 26 27  1  0  0  0
 27 28  2  0  0  0
 28 29  1  0  0  0
 29 30  2  0  0  0
 30 31  1  0  0  0
 50 51  2  0  0  0
 50 55  1  0  0  0
 50 49  1  0  0  0
 51 52  1  0  0  0
 51 56  1  0  0  0
 52 53  2  0  0  0
 53 54  1  0  0  0
 54 55  2  0  0  0
 49 48  1  0  0  0
 48 32  1  0  0  0
 32  1  1  0  0  0
 32 33  1  0  0  0
  1  4  1  0  0  0
  1  2  1  0  0  0
  4  7  1  0  0  0
  4  5  1  0  0  0
  7  8  1  0  0  0
  7 23  1  0  0  0
  8  9  2  0  0  0
  8 10  1  0  0  0
 10 12  1  0  0  0
 23 24  1  0  0  0
 33 34  2  0  0  0
 33 35  1  0  0  0
 35 37  1  0  0  0
 37 38  1  0  0  0
 37 43  1  0  0  0
 38 39  2  0  0  0
 38 40  1  0  0  0
 39 45  1  0  0  0
 39 46  1  0  0  0
 40 41  2  0  0  0
 41 42  1  0  0  0
 42 45  2  0  0  0
 43 44  1  0  0  0
 43 46  1  0  0  0
 12 13  1  0  0  0
 12 18  1  0  0  0
 13 14  2  0  0  0
 13 15  1  0  0  0
 14 20  1  0  0  0
 14 21  1  0  0  0
 15 16  2  0  0  0
 16 17  1  0  0  0
 17 20  2  0  0  0
 18 19  1  0  0  0
 18 21  1  0  0  0
 10 11  1  0  0  0
  5  6  1  0  0  0
  2  3  1  0  0  0
 35 36  1  0  0  0
 44 47  1  0  0  0
 19 22  1  0  0  0
M  END
> <minimizedAffinity>
-12.13779

$$$$
1EC0_BED_A_501


 56 61  0  0  0  0  0  0  0  0999 V2000
   13.2324   24.5967    5.6728 C   0  0  0  0  0  0  0  0  0  0  0  0
   12.0916   25.2653    5.0659 O   0  0  0  0  0  0  0  0  0  0  0  0
   11.3804   24.6222    4.9190 H   0  0  0  0  0  0  0  0  0  0  0  0
   13.7544   23.5562    4.7604 C   0  0  0  0  0  0  0  0  0  0  0  0
   15.0518   23.2356    5.2836 O   0  0  0  0  0  0  0  0  0  0  0  0
   14.9664   22.9475    6.2058 H   0  0  0  0  0  0  0  0  0  0  0  0
   12.7782   22.3532    4.7026 C   0  0  0  0  0  0  0  0  0  0  0  0
   13.3509   21.0373    5.1770 C   0  0  0  0  0  0  0  0  0  0  0  0
   12.8473   20.3903    6.1019 O   0  0  0  0  0  0  0  0  0  0  0  0
   14.4902   20.6105    4.5240 N   0  0  0  0  0  0  0  0  0  0  0  0
   14.8383   21.1795    3.7999 H   0  0  0  0  0  0  0  0  0  0  0  0
   15.2161   19.3859    4.8222 C   0  0  0  0  0  0  0  0  0  0  0  0
   15.8618   18.7577    3.6125 C   0  0  0  0  0  0  0  0  0  0  0  0
   17.0883   18.1239    3.9701 C   0  0  0  0  0  0  0  0  0  0  0  0
   15.4100   18.7333    2.2464 C   0  0  0  0  0  0  0  0  0  0  0  0
   16.2197   18.0571    1.2557 C   0  0  0  0  0  0  0  0  0  0  0  0
   17.4473   17.4265    1.6334 C   0  0  0  0  0  0  0  0  0  0  0  0
   16.4234   19.5143    5.7634 C   0  0  0  0  0  0  0  0  0  0  0  0
   17.0515   20.7788    5.4944 O   0  0  0  0  0  0  0  0  0  0  0  0
   17.9008   17.4497    2.9937 C   0  0  0  0  0  0  0  0  0  0  0  0
   17.3323   18.2924    5.4322 C   0  0  0  0  0  0  0  0  0  0  0  0
   17.2866   20.8296    4.5547 H   0  0  0  0  0  0  0  0  0  0  0  0
   12.2238   22.1289    3.3760 O   0  0  0  0  0  0  0  0  0  0  0  0
   10.8462   21.7464    3.3612 C   0  0  0  0  0  0  0  0  0  0  0  0
    9.9090   22.8540    2.8989 C   0  0  0  0  0  0  0  0  0  0  0  0
    8.4818   22.6741    3.0521 C   0  0  0  0  0  0  0  0  0  0  0  0
    7.5488   23.6619    2.6381 C   0  0  0  0  0  0  0  0  0  0  0  0
    8.0160   24.8907    2.0435 C   0  0  0  0  0  0  0  0  0  0  0  0
    9.4222   25.1112    1.8707 C   0  0  0  0  0  0  0  0  0  0  0  0
   10.3577   24.0993    2.2965 C   0  0  0  0  0  0  0  0  0  0  0  0
   11.6255   24.3753    2.1000 F   0  0  0  0  0  0  0  0  0  0  0  0
   12.9147   24.0505    7.0357 C   0  0  0  0  0  0  0  0  0  0  0  0
   12.2109   25.1911    7.6573 C   0  0  0  0  0  0  0  0  0  0  0  0
   12.8333   25.9569    8.3948 O   0  0  0  0  0  0  0  0  0  0  0  0
   10.8929   25.3248    7.3817 N   0  0  0  0  0  0  0  0  0  0  0  0
   10.4585   24.6709    6.7877 H   0  0  0  0  0  0  0  0  0  0  0  0
   10.1125   26.3942    7.9325 C   0  0  0  0  0  0  0  0  0  0  0  0
    8.8555   26.6318    7.1424 C   0  0  0  0  0  0  0  0  0  0  0  0
    7.8021   27.0531    8.0094 C   0  0  0  0  0  0  0  0  0  0  0  0
    8.6122   26.4900    5.7200 C   0  0  0  0  0  0  0  0  0  0  0  0
    7.2987   26.7786    5.1961 C   0  0  0  0  0  0  0  0  0  0  0  0
    6.2485   27.2055    6.0924 C   0  0  0  0  0  0  0  0  0  0  0  0
    9.5479   26.1909    9.3463 C   0  0  0  0  0  0  0  0  0  0  0  0
    9.1694   24.8225    9.4664 O   0  0  0  0  0  0  0  0  0  0  0  0
    6.4924   27.3461    7.5094 C   0  0  0  0  0  0  0  0  0  0  0  0
    8.3063   27.1153    9.4152 C   0  0  0  0  0  0  0  0  0  0  0  0
    8.5411   24.5978    8.7624 H   0  0  0  0  0  0  0  0  0  0  0  0
   14.1301   23.7202    7.7788 O   0  0  0  0  0  0  0  0  0  0  0  0
   14.0330   22.5152    8.5626 C   0  0  0  0  0  0  0  0  0  0  0  0
   15.3796   21.8187    8.7633 C   0  0  0  0  0  0  0  0  0  0  0  0
   16.6263   22.4819    8.4346 C   0  0  0  0  0  0  0  0  0  0  0  0
   17.8800   21.8048    8.6479 C   0  0  0  0  0  0  0  0  0  0  0  0
   17.8968   20.4708    9.1844 C   0  0  0  0  0  0  0  0  0  0  0  0
   16.6581   19.8105    9.5110 C   0  0  0  0  0  0  0  0  0  0  0  0
   15.4170   20.4798    9.3034 C   0  0  0  0  0  0  0  0  0  0  0  0
   16.6349   23.7015    7.9482 F   0  0  0  0  0  0  0  0  0  0  0  0
 25 26  2  0  0  0
 25 30  1  0  0  0
 25 24  1  0  0  0
 26 27  1  0  0  0
 27 28  2  0  0  0
 28 29  1  0  0  0
 29 30  2  0  0  0
 30 31  1  0  0  0
 50 51  2  0  0  0
 50 55  1  0  0  0
 50 49  1  0  0  0
 51 52  1  0  0  0
 51 56  1  0  0  0
 52 53  2  0  0  0
 53 54  1  0  0  0
 54 55  2  0  0  0
 49 48  1  0  0  0
 48 32  1  0  0  0
 32  1  1  0  0  0
 32 33  1  0  0  0
  1  4  1  0  0  0
  1  2  1  0  0  0
  4  7  1  0  0  0
  4  5  1  0  0  0
  7  8  1  0  0  0
  7 23  1  0  0  0
  8  9  2  0  0  0
  8 10  1  0  0  0
 10 12  1  0  0  0
 23 24  1  0  0  0
 33 34  2  0  0  0
 33 35  1  0  0  0
 35 37  1  0  0  0
 37 38  1  0  0  0
 37 43  1  0  0  0
 38 39  2  0  0  0
 38 40  1  0  0  0
 39 45  1  0  0  0
 39 46  1  0  0  0
 40 41  2  0  0  0
 41 42  1  0  0  0
 42 45  2  0  0  0
 43 44  1  0  0  0
 43 46  1  0  0  0
 12 13  1  0  0  0
 12 18  1  0  0  0
 13 14  2  0  0  0
 13 15  1  0  0  0
 14 20  1  0  0  0
 14 21  1  0  0  0
 15 16  2  0  0  0
 16 17  1  0  0  0
 17 20  2  0  0  0
 18 19  1  0  0  0
 18 21  1  0  0  0
 10 11  1  0  0  0
  5  6  1  0  0  0
  2  3  1  0  0  0
 35 36  1  0  0  0
 44 47  1  0  0  0
 19 22  1  0  0  0
M  END
> <minimizedAffinity>
-12.02246

$$$$
1EC0_BED_A_501


 56 61  0  0  0  0  0  0  0  0999 V2000
   14.7795   22.7055    5.3997 C   0  0  0  0  0  0  0  0  0  0  0  0
   15.3819   22.8235    4.0806 O   0  0  0  0  0  0  0  0  0  0  0  0
   16.1495   23.4146    4.1274 H   0  0  0  0  0  0  0  0  0  0  0  0
   14.2968   24.0269    5.8564 C   0  0  0  0  0  0  0  0  0  0  0  0
   14.0192   24.7474    4.6466 O   0  0  0  0  0  0  0  0  0  0  0  0
   13.3760   24.2521    4.1157 H   0  0  0  0  0  0  0  0  0  0  0  0
   13.0707   23.8577    6.7900 C   0  0  0  0  0  0  0  0  0  0  0  0
   11.9556   22.9998    6.2376 C   0  0  0  0  0  0  0  0  0  0  0  0
   11.6508   21.9093    6.7331 O   0  0  0  0  0  0  0  0  0  0  0  0
   11.3087   23.5023    5.1260 N   0  0  0  0  0  0  0  0  0  0  0  0
   11.6080   24.3750    4.7826 H   0  0  0  0  0  0  0  0  0  0  0  0
   10.2196   22.8429    4.4227 C   0  0  0  0  0  0  0  0  0  0  0  0
    9.1328   23.7871    3.9731 C   0  0  0  0  0  0  0  0  0  0  0  0
    8.5659   23.3496    2.7397 C   0  0  0  0  0  0  0  0  0  0  0  0
    8.6474   24.9861    4.6037 C   0  0  0  0  0  0  0  0  0  0  0  0
    7.5819   25.7282    3.9647 C   0  0  0  0  0  0  0  0  0  0  0  0
    7.0254   25.2736    2.7273 C   0  0  0  0  0  0  0  0  0  0  0  0
   10.5750   22.1545    3.0961 C   0  0  0  0  0  0  0  0  0  0  0  0
   11.5874   22.9467    2.4532 O   0  0  0  0  0  0  0  0  0  0  0  0
    7.5074   24.0797    2.0959 C   0  0  0  0  0  0  0  0  0  0  0  0
    9.2391   22.0946    2.2955 C   0  0  0  0  0  0  0  0  0  0  0  0
   11.2659   23.8553    2.3435 H   0  0  0  0  0  0  0  0  0  0  0  0
   12.4799   25.1246    7.1946 O   0  0  0  0  0  0  0  0  0  0  0  0
   12.0623   25.1796    8.5609 C   0  0  0  0  0  0  0  0  0  0  0  0
   10.7020   25.8349    8.7585 C   0  0  0  0  0  0  0  0  0  0  0  0
   10.6329   27.1228    9.4138 C   0  0  0  0  0  0  0  0  0  0  0  0
    9.3988   27.7897    9.6370 C   0  0  0  0  0  0  0  0  0  0  0  0
    8.1629   27.1828    9.2057 C   0  0  0  0  0  0  0  0  0  0  0  0
    8.1837   25.9061    8.5533 C   0  0  0  0  0  0  0  0  0  0  0  0
    9.4445   25.2412    8.3329 C   0  0  0  0  0  0  0  0  0  0  0  0
    9.3779   24.0755    7.7339 F   0  0  0  0  0  0  0  0  0  0  0  0
   15.7047   22.0634    6.3940 C   0  0  0  0  0  0  0  0  0  0  0  0
   15.6183   20.6405    6.0056 C   0  0  0  0  0  0  0  0  0  0  0  0
   14.5439   20.0478    6.1150 O   0  0  0  0  0  0  0  0  0  0  0  0
   16.7516   20.0567    5.5521 N   0  0  0  0  0  0  0  0  0  0  0  0
   17.5770   20.5905    5.4969 H   0  0  0  0  0  0  0  0  0  0  0  0
   16.7816   18.6808    5.1497 C   0  0  0  0  0  0  0  0  0  0  0  0
   16.5728   18.5281    3.6686 C   0  0  0  0  0  0  0  0  0  0  0  0
   17.3221   17.4158    3.1785 C   0  0  0  0  0  0  0  0  0  0  0  0
   15.7672   19.3184    2.7581 C   0  0  0  0  0  0  0  0  0  0  0  0
   15.7335   18.9673    1.3585 C   0  0  0  0  0  0  0  0  0  0  0  0
   16.4984   17.8361    0.8858 C   0  0  0  0  0  0  0  0  0  0  0  0
   18.1026   17.9231    5.3493 C   0  0  0  0  0  0  0  0  0  0  0  0
   19.1657   18.8292    5.0684 O   0  0  0  0  0  0  0  0  0  0  0  0
   17.3009   17.0498    1.7941 C   0  0  0  0  0  0  0  0  0  0  0  0
   18.0644   16.7767    4.3076 C   0  0  0  0  0  0  0  0  0  0  0  0
   19.0566   19.1885    4.1740 H   0  0  0  0  0  0  0  0  0  0  0  0
   15.2379   22.2586    7.7660 O   0  0  0  0  0  0  0  0  0  0  0  0
   16.2942   22.3370    8.7428 C   0  0  0  0  0  0  0  0  0  0  0  0
   16.7323   20.9682    9.2653 C   0  0  0  0  0  0  0  0  0  0  0  0
   18.1318   20.6589    9.4843 C   0  0  0  0  0  0  0  0  0  0  0  0
   18.5125   19.3650    9.9907 C   0  0  0  0  0  0  0  0  0  0  0  0
   17.5064   18.3784   10.2774 C   0  0  0  0  0  0  0  0  0  0  0  0
   16.1150   18.6846   10.0597 C   0  0  0  0  0  0  0  0  0  0  0  0
   15.7363   19.9652    9.5615 C   0  0  0  0  0  0  0  0  0  0  0  0
   19.0670   21.5461    9.2340 F   0  0  0  0  0  0  0  0  0  0  0  0
 25 26  2  0  0  0
 25 30  1  0  0  0
 25 24  1  0  0  0
 26 27  1  0  0  0
 27 28  2  0  0  0
 28 29  1  0  0  0
 29 30  2  0  0  0
 30 31  1  0  0  0
 50 51  2  0  0  0
 50 55  1  0  0  0
 50 49  1  0  0  0
 51 52  1  0  0  0
 51 56  1  0  0  0
 52 53  2  0  0  0
 53 54  1  0  0  0
 54 55  2  0  0  0
 49 48  1  0  0  0
 48 32  1  0  0  0
 32  1  1  0  0  0
 32 33  1  0  0  0
  1  4  1  0  0  0
  1  2  1  0  0  0
  4  7  1  0  0  0
  4  5  1  0  0  0
  7  8  1  0  0  0
  7 23  1  0  0  0
  8  9  2  0  0  0
  8 10  1  0  0  0
 10 12  1  0  0  0
 23 24  1  0  0  0
 33 34  2  0  0  0
 33 35  1  0  0  0
 35 37  1  0  0  0
 37 38  1  0  0  0
 37 43  1  0  0  0
 38 39  2  0  0  0
 38 40  1  0  0  0
 39 45  1  0  0  0
 39 46  1  0  0  0
 40 41  2  0  0  0
 41 42  1  0  0  0
 42 45  2  0  0  0
 43 44  1  0  0  0
 43 46  1  0  0  0
 12 13  1  0  0  0
 12 18  1  0  0  0
 13 14  2  0  0  0
 13 15  1  0  0  0
 14 20  1  0  0  0
 14 21  1  0  0  0
 15 16  2  0  0  0
 16 17  1  0  0  0
 17 20  2  0  0  0
 18 19  1  0  0  0
 18 21  1  0  0  0
 10 11  1  0  0  0
  5  6  1  0  0  0
  2  3  1  0  0  0
 35 36  1  0  0  0
 44 47  1  0  0  0
 19 22  1  0  0  0
M  END
> <minimizedAffinity>
-11.96308

$$$$
1EC0_BED_A_501


 56 61  0  0  0  0  0  0  0  0999 V2000
   14.1657   22.9774    4.7261 C   0  0  0  0  0  0  0  0  0  0  0  0
   15.5820   23.0979    4.4159 O   0  0  0  0  0  0  0  0  0  0  0  0
   16.0997   22.6046    5.0714 H   0  0  0  0  0  0  0  0  0  0  0  0
   13.8851   23.5695    6.0522 C   0  0  0  0  0  0  0  0  0  0  0  0
   13.2607   24.8283    5.7604 O   0  0  0  0  0  0  0  0  0  0  0  0
   12.4707   24.6793    5.2175 H   0  0  0  0  0  0  0  0  0  0  0  0
   13.0100   22.6074    6.8960 C   0  0  0  0  0  0  0  0  0  0  0  0
   11.5248   22.8850    6.8533 C   0  0  0  0  0  0  0  0  0  0  0  0
   10.7085   22.0607    6.4272 O   0  0  0  0  0  0  0  0  0  0  0  0
   11.1361   24.1315    7.3026 N   0  0  0  0  0  0  0  0  0  0  0  0
   11.8416   24.7387    7.6233 H   0  0  0  0  0  0  0  0  0  0  0  0
    9.7657   24.6176    7.3390 C   0  0  0  0  0  0  0  0  0  0  0  0
    9.5616   25.7761    8.2830 C   0  0  0  0  0  0  0  0  0  0  0  0
    8.5705   26.6679    7.7767 C   0  0  0  0  0  0  0  0  0  0  0  0
   10.2090   26.0559    9.5373 C   0  0  0  0  0  0  0  0  0  0  0  0
    9.8340   27.2493   10.2651 C   0  0  0  0  0  0  0  0  0  0  0  0
    8.8372   28.1322    9.7413 C   0  0  0  0  0  0  0  0  0  0  0  0
    9.2095   25.2043    6.0328 C   0  0  0  0  0  0  0  0  0  0  0  0
   10.2881   25.8821    5.3671 O   0  0  0  0  0  0  0  0  0  0  0  0
    8.1907   27.8567    8.4912 C   0  0  0  0  0  0  0  0  0  0  0  0
    8.0587   26.1598    6.4707 C   0  0  0  0  0  0  0  0  0  0  0  0
   10.6659   26.5496    5.9608 H   0  0  0  0  0  0  0  0  0  0  0  0
   13.3996   22.5593    8.2972 O   0  0  0  0  0  0  0  0  0  0  0  0
   14.6451   23.1960    8.5930 C   0  0  0  0  0  0  0  0  0  0  0  0
   15.7814   22.2195    8.8658 C   0  0  0  0  0  0  0  0  0  0  0  0
   17.0919   22.4992    8.3208 C   0  0  0  0  0  0  0  0  0  0  0  0
   18.1962   21.6305    8.5297 C   0  0  0  0  0  0  0  0  0  0  0  0
   18.0291   20.4258    9.3059 C   0  0  0  0  0  0  0  0  0  0  0  0
   16.7471   20.1077    9.8640 C   0  0  0  0  0  0  0  0  0  0  0  0
   15.6353   20.9997    9.6440 C   0  0  0  0  0  0  0  0  0  0  0  0
   14.4959   20.6355   10.1839 F   0  0  0  0  0  0  0  0  0  0  0  0
   13.6771   21.5607    4.6211 C   0  0  0  0  0  0  0  0  0  0  0  0
   14.7452   20.9363    3.8135 C   0  0  0  0  0  0  0  0  0  0  0  0
   14.8327   21.2053    2.6145 O   0  0  0  0  0  0  0  0  0  0  0  0
   15.5767   20.0795    4.4502 N   0  0  0  0  0  0  0  0  0  0  0  0
   15.4438   19.9068    5.4103 H   0  0  0  0  0  0  0  0  0  0  0  0
   16.6462   19.4165    3.7629 C   0  0  0  0  0  0  0  0  0  0  0  0
   17.4564   18.5548    4.6912 C   0  0  0  0  0  0  0  0  0  0  0  0
   17.9324   17.3996    3.9998 C   0  0  0  0  0  0  0  0  0  0  0  0
   17.7787   18.7466    6.0918 C   0  0  0  0  0  0  0  0  0  0  0  0
   18.5821   17.7600    6.7732 C   0  0  0  0  0  0  0  0  0  0  0  0
   19.0544   16.5999    6.0525 C   0  0  0  0  0  0  0  0  0  0  0  0
   16.2567   18.4059    2.6738 C   0  0  0  0  0  0  0  0  0  0  0  0
   15.0885   17.7221    3.1187 O   0  0  0  0  0  0  0  0  0  0  0  0
   18.7323   16.4100    4.6569 C   0  0  0  0  0  0  0  0  0  0  0  0
   17.4622   17.4369    2.5814 C   0  0  0  0  0  0  0  0  0  0  0  0
   15.2615   17.3142    3.9816 H   0  0  0  0  0  0  0  0  0  0  0  0
   12.3902   21.4860    3.9306 O   0  0  0  0  0  0  0  0  0  0  0  0
   12.2292   22.4555    2.8769 C   0  0  0  0  0  0  0  0  0  0  0  0
   10.7991   22.9846    2.7606 C   0  0  0  0  0  0  0  0  0  0  0  0
   10.5299   24.3279    2.2857 C   0  0  0  0  0  0  0  0  0  0  0  0
    9.1710   24.7931    2.1737 C   0  0  0  0  0  0  0  0  0  0  0  0
    8.0807   23.9278    2.5346 C   0  0  0  0  0  0  0  0  0  0  0  0
    8.3471   22.5926    3.0073 C   0  0  0  0  0  0  0  0  0  0  0  0
    9.6907   22.1296    3.1160 C   0  0  0  0  0  0  0  0  0  0  0  0
   11.5098   25.1333    1.9460 F   0  0  0  0  0  0  0  0  0  0  0  0
 25 26  2  0  0  0
 25 30  1  0  0  0
 25 24  1  0  0  0
 26 27  1  0  0  0
 27 28  2  0  0  0
 28 29  1  0  0  0
 29 30  2  0  0  0
 30 31  1  0  0  0
 50 51  2  0  0  0
 50 55  1  0  0  0
 50 49  1  0  0  0
 51 52  1  0  0  0
 51 56  1  0  0  0
 52 53  2  0  0  0
 53 54  1  0  0  0
 54 55  2  0  0  0
 49 48  1  0  0  0
 48 32  1  0  0  0
 32  1  1  0  0  0
 32 33  1  0  0  0
  1  4  1  0  0  0
  1  2  1  0  0  0
  4  7  1  0  0  0
  4  5  1  0  0  0
  7  8  1  0  0  0
  7 23  1  0  0  0
  8  9  2  0  0  0
  8 10  1  0  0  0
 10 12  1  0  0  0
 23 24  1  0  0  0
 33 34  2  0  0  0
 33 35  1  0  0  0
 35 37  1  0  0  0
 37 38  1  0  0  0
 37 43  1  0  0  0
 38 39  2  0  0  0
 38 40  1  0  0  0
 39 45  1  0  0  0
 39 46  1  0  0  0
 40 41  2  0  0  0
 41 42  1  0  0  0
 42 45  2  0  0  0
 43 44  1  0  0  0
 43 46  1  0  0  0
 12 13  1  0  0  0
 12 18  1  0  0  0
 13 14  2  0  0  0
 13 15  1  0  0  0
 14 20  1  0  0  0
 14 21  1  0  0  0
 15 16  2  0  0  0
 16 17  1  0  0  0
 17 20  2  0  0  0
 18 19  1  0  0  0
 18 21  1  0  0  0
 10 11  1  0  0  0
  5  6  1  0  0  0
  2  3  1  0  0  0
 35 36  1  0  0  0
 44 47  1  0  0  0
 19 22  1  0  0  0
M  END
> <minimizedAffinity>
-11.71930

$$$$
