4B35_4ME_A_1351


 14 15  0  0  0  0  0  0  0  0999 V2000
   19.6709    7.8073   -2.5748 C   0  0  0  0  0  0  0  0  0  0  0  0
   18.4485    7.7056   -1.9290 C   0  0  0  0  0  0  0  0  0  0  0  0
   17.9957    6.4629   -1.5140 C   0  0  0  0  0  0  0  0  0  0  0  0
   18.7380    5.3246   -1.7244 C   0  0  0  0  0  0  0  0  0  0  0  0
   19.9620    5.4284   -2.3757 C   0  0  0  0  0  0  0  0  0  0  0  0
   20.4317    6.6689   -2.7927 C   0  0  0  0  0  0  0  0  0  0  0  0
   21.6141    6.4677   -3.3703 C   0  0  0  0  0  0  0  0  0  0  0  0
   21.8796    5.1635   -3.3117 C   0  0  0  0  0  0  0  0  0  0  0  0
   20.8727    4.5279   -2.7020 N   0  0  0  0  0  0  0  0  0  0  0  0
   20.8194    3.5605   -2.5272 H   0  0  0  0  0  0  0  0  0  0  0  0
   20.1327    9.1891   -3.0155 C   0  0  0  0  0  0  0  0  0  0  0  0
   20.3625   10.0814   -2.1991 O   0  0  0  0  0  0  0  0  0  0  0  0
   21.4840   10.1043   -4.6541 C   0  0  0  0  0  0  0  0  0  0  0  0
   20.2864    9.3886   -4.3418 O   0  0  0  0  0  0  0  0  0  0  0  0
 13 14  1  0  0  0
 14 11  1  0  0  0
 11 12  2  0  0  0
 11  1  1  0  0  0
  1  2  1  0  0  0
  1  6  2  0  0  0
  2  3  2  0  0  0
  3  4  1  0  0  0
  4  5  2  0  0  0
  5  6  1  0  0  0
  5  9  1  0  0  0
  6  7  1  0  0  0
  7  8  2  0  0  0
  8  9  1  0  0  0
  9 10  1  0  0  0
M  END
> <minimizedAffinity>
-5.11836

$$$$
4B35_4ME_A_1351


 14 15  0  0  0  0  0  0  0  0999 V2000
   20.4668    6.0574   -3.0060 C   0  0  0  0  0  0  0  0  0  0  0  0
   19.5539    5.2413   -2.3563 C   0  0  0  0  0  0  0  0  0  0  0  0
   18.5294    5.8135   -1.6182 C   0  0  0  0  0  0  0  0  0  0  0  0
   18.3948    7.1785   -1.5204 C   0  0  0  0  0  0  0  0  0  0  0  0
   19.3139    7.9951   -2.1697 C   0  0  0  0  0  0  0  0  0  0  0  0
   20.3433    7.4356   -2.9183 C   0  0  0  0  0  0  0  0  0  0  0  0
   21.0530    8.4416   -3.4246 C   0  0  0  0  0  0  0  0  0  0  0  0
   20.4915    9.5802   -3.0207 C   0  0  0  0  0  0  0  0  0  0  0  0
   19.4275    9.3090   -2.2564 N   0  0  0  0  0  0  0  0  0  0  0  0
   18.8342    9.9710   -1.8334 H   0  0  0  0  0  0  0  0  0  0  0  0
   21.5773    5.3911   -3.8057 C   0  0  0  0  0  0  0  0  0  0  0  0
   22.5835    4.9407   -3.2578 O   0  0  0  0  0  0  0  0  0  0  0  0
   22.4670    5.9282   -5.8718 C   0  0  0  0  0  0  0  0  0  0  0  0
   21.4045    5.3095   -5.1422 O   0  0  0  0  0  0  0  0  0  0  0  0
 13 14  1  0  0  0
 14 11  1  0  0  0
 11 12  2  0  0  0
 11  1  1  0  0  0
  1  2  1  0  0  0
  1  6  2  0  0  0
  2  3  2  0  0  0
  3  4  1  0  0  0
  4  5  2  0  0  0
  5  6  1  0  0  0
  5  9  1  0  0  0
  6  7  1  0  0  0
  7  8  2  0  0  0
  8  9  1  0  0  0
  9 10  1  0  0  0
M  END
> <minimizedAffinity>
-5.01920

$$$$
4B35_4ME_A_1351


 14 15  0  0  0  0  0  0  0  0999 V2000
   20.9283    7.5217   -2.9656 C   0  0  0  0  0  0  0  0  0  0  0  0
   22.0577    6.9949   -3.5725 C   0  0  0  0  0  0  0  0  0  0  0  0
   22.2111    5.6196   -3.6551 C   0  0  0  0  0  0  0  0  0  0  0  0
   21.2609    4.7627   -3.1512 C   0  0  0  0  0  0  0  0  0  0  0  0
   20.1308    5.2933   -2.5395 C   0  0  0  0  0  0  0  0  0  0  0  0
   19.9606    6.6707   -2.4543 C   0  0  0  0  0  0  0  0  0  0  0  0
   18.8021    6.8862   -1.8351 C   0  0  0  0  0  0  0  0  0  0  0  0
   18.2647    5.7004   -1.5518 C   0  0  0  0  0  0  0  0  0  0  0  0
   19.0739    4.7267   -1.9839 N   0  0  0  0  0  0  0  0  0  0  0  0
   18.9109    3.7592   -1.9025 H   0  0  0  0  0  0  0  0  0  0  0  0
   20.7971    9.0365   -2.8943 C   0  0  0  0  0  0  0  0  0  0  0  0
   19.7331    9.6026   -3.1449 O   0  0  0  0  0  0  0  0  0  0  0  0
   22.3010   10.6741   -3.5310 C   0  0  0  0  0  0  0  0  0  0  0  0
   21.8987    9.7298   -2.5358 O   0  0  0  0  0  0  0  0  0  0  0  0
 13 14  1  0  0  0
 14 11  1  0  0  0
 11 12  2  0  0  0
 11  1  1  0  0  0
  1  2  1  0  0  0
  1  6  2  0  0  0
  2  3  2  0  0  0
  3  4  1  0  0  0
  4  5  2  0  0  0
  5  6  1  0  0  0
  5  9  1  0  0  0
  6  7  1  0  0  0
  7  8  2  0  0  0
  8  9  1  0  0  0
  9 10  1  0  0  0
M  END
> <minimizedAffinity>
-4.70110

$$$$
4B35_4ME_A_1351


 14 15  0  0  0  0  0  0  0  0999 V2000
   21.3193    7.2986   -3.5677 C   0  0  0  0  0  0  0  0  0  0  0  0
   21.8899    8.4924   -3.9810 C   0  0  0  0  0  0  0  0  0  0  0  0
   21.3307    9.6942   -3.5752 C   0  0  0  0  0  0  0  0  0  0  0  0
   20.2212    9.7285   -2.7636 C   0  0  0  0  0  0  0  0  0  0  0  0
   19.6482    8.5299   -2.3534 C   0  0  0  0  0  0  0  0  0  0  0  0
   20.2014    7.3168   -2.7478 C   0  0  0  0  0  0  0  0  0  0  0  0
   19.4601    6.3523   -2.2072 C   0  0  0  0  0  0  0  0  0  0  0  0
   18.4916    6.9313   -1.4989 C   0  0  0  0  0  0  0  0  0  0  0  0
   18.6070    8.2613   -1.5851 N   0  0  0  0  0  0  0  0  0  0  0  0
   18.0200    8.9230   -1.1527 H   0  0  0  0  0  0  0  0  0  0  0  0
   21.9623    6.0005   -4.0351 C   0  0  0  0  0  0  0  0  0  0  0  0
   22.8981    5.4884   -3.4208 O   0  0  0  0  0  0  0  0  0  0  0  0
   22.4613    4.8343   -5.9690 C   0  0  0  0  0  0  0  0  0  0  0  0
   21.4540    5.4326   -5.1495 O   0  0  0  0  0  0  0  0  0  0  0  0
 13 14  1  0  0  0
 14 11  1  0  0  0
 11 12  2  0  0  0
 11  1  1  0  0  0
  1  2  1  0  0  0
  1  6  2  0  0  0
  2  3  2  0  0  0
  3  4  1  0  0  0
  4  5  2  0  0  0
  5  6  1  0  0  0
  5  9  1  0  0  0
  6  7  1  0  0  0
  7  8  2  0  0  0
  8  9  1  0  0  0
  9 10  1  0  0  0
M  END
> <minimizedAffinity>
-4.37765

$$$$
4B35_4ME_A_1351


 14 15  0  0  0  0  0  0  0  0999 V2000
   21.3046    8.0317   -4.1406 C   0  0  0  0  0  0  0  0  0  0  0  0
   20.8430    9.2836   -3.7652 C   0  0  0  0  0  0  0  0  0  0  0  0
   19.9137    9.3913   -2.7422 C   0  0  0  0  0  0  0  0  0  0  0  0
   19.4419    8.2794   -2.0849 C   0  0  0  0  0  0  0  0  0  0  0  0
   19.9034    7.0244   -2.4657 C   0  0  0  0  0  0  0  0  0  0  0  0
   20.8397    6.9012   -3.4862 C   0  0  0  0  0  0  0  0  0  0  0  0
   21.0992    5.6032   -3.6272 C   0  0  0  0  0  0  0  0  0  0  0  0
   20.3673    4.9417   -2.7317 C   0  0  0  0  0  0  0  0  0  0  0  0
   19.6385    5.8088   -2.0198 N   0  0  0  0  0  0  0  0  0  0  0  0
   19.0152    5.5815   -1.2925 H   0  0  0  0  0  0  0  0  0  0  0  0
   22.3240    7.9553   -5.2684 C   0  0  0  0  0  0  0  0  0  0  0  0
   23.5332    8.0273   -5.0486 O   0  0  0  0  0  0  0  0  0  0  0  0
   22.2993    6.5907   -7.1355 C   0  0  0  0  0  0  0  0  0  0  0  0
   21.8417    7.7970   -6.5193 O   0  0  0  0  0  0  0  0  0  0  0  0
 13 14  1  0  0  0
 14 11  1  0  0  0
 11 12  2  0  0  0
 11  1  1  0  0  0
  1  2  1  0  0  0
  1  6  2  0  0  0
  2  3  2  0  0  0
  3  4  1  0  0  0
  4  5  2  0  0  0
  5  6  1  0  0  0
  5  9  1  0  0  0
  6  7  1  0  0  0
  7  8  2  0  0  0
  8  9  1  0  0  0
  9 10  1  0  0  0
M  END
> <minimizedAffinity>
-4.13886

$$$$
4B35_4ME_A_1351


 14 15  0  0  0  0  0  0  0  0999 V2000
   21.4003    7.9555   -2.5223 C   0  0  0  0  0  0  0  0  0  0  0  0
   22.4198    8.8624   -2.2777 C   0  0  0  0  0  0  0  0  0  0  0  0
   23.7388    8.4393   -2.3312 C   0  0  0  0  0  0  0  0  0  0  0  0
   24.0599    7.1356   -2.6284 C   0  0  0  0  0  0  0  0  0  0  0  0
   23.0357    6.2269   -2.8697 C   0  0  0  0  0  0  0  0  0  0  0  0
   21.7082    6.6380   -2.8251 C   0  0  0  0  0  0  0  0  0  0  0  0
   20.9575    5.5737   -3.1001 C   0  0  0  0  0  0  0  0  0  0  0  0
   21.7744    4.5436   -3.3161 C   0  0  0  0  0  0  0  0  0  0  0  0
   23.0441    4.9418   -3.1784 N   0  0  0  0  0  0  0  0  0  0  0  0
   23.8433    4.3775   -3.2877 H   0  0  0  0  0  0  0  0  0  0  0  0
   19.9654    8.4588   -2.4535 C   0  0  0  0  0  0  0  0  0  0  0  0
   19.4707    9.1192   -3.3670 O   0  0  0  0  0  0  0  0  0  0  0  0
   18.0689    7.4065   -1.6505 C   0  0  0  0  0  0  0  0  0  0  0  0
   19.2579    8.1408   -1.3485 O   0  0  0  0  0  0  0  0  0  0  0  0
 13 14  1  0  0  0
 14 11  1  0  0  0
 11 12  2  0  0  0
 11  1  1  0  0  0
  1  2  1  0  0  0
  1  6  2  0  0  0
  2  3  2  0  0  0
  3  4  1  0  0  0
  4  5  2  0  0  0
  5  6  1  0  0  0
  5  9  1  0  0  0
  6  7  1  0  0  0
  7  8  2  0  0  0
  8  9  1  0  0  0
  9 10  1  0  0  0
M  END
> <minimizedAffinity>
-4.05634

$$$$
4B35_4ME_A_1351


 14 15  0  0  0  0  0  0  0  0999 V2000
   20.9997    7.0384   -3.6246 C   0  0  0  0  0  0  0  0  0  0  0  0
   20.1510    7.0531   -2.5287 C   0  0  0  0  0  0  0  0  0  0  0  0
   19.6055    8.2541   -2.1023 C   0  0  0  0  0  0  0  0  0  0  0  0
   19.8844    9.4354   -2.7485 C   0  0  0  0  0  0  0  0  0  0  0  0
   20.7390    9.4189   -3.8451 C   0  0  0  0  0  0  0  0  0  0  0  0
   21.2891    8.2211   -4.2878 C   0  0  0  0  0  0  0  0  0  0  0  0
   22.0494    8.5039   -5.3432 C   0  0  0  0  0  0  0  0  0  0  0  0
   21.9742    9.8164   -5.5597 C   0  0  0  0  0  0  0  0  0  0  0  0
   21.1720   10.3760   -4.6471 N   0  0  0  0  0  0  0  0  0  0  0  0
   20.9444   11.3318   -4.5840 H   0  0  0  0  0  0  0  0  0  0  0  0
   21.5786    5.7001   -4.0614 C   0  0  0  0  0  0  0  0  0  0  0  0
   22.2252    4.9952   -3.2865 O   0  0  0  0  0  0  0  0  0  0  0  0
   22.5074    4.7850   -5.9715 C   0  0  0  0  0  0  0  0  0  0  0  0
   21.3437    5.3182   -5.3348 O   0  0  0  0  0  0  0  0  0  0  0  0
 13 14  1  0  0  0
 14 11  1  0  0  0
 11 12  2  0  0  0
 11  1  1  0  0  0
  1  2  1  0  0  0
  1  6  2  0  0  0
  2  3  2  0  0  0
  3  4  1  0  0  0
  4  5  2  0  0  0
  5  6  1  0  0  0
  5  9  1  0  0  0
  6  7  1  0  0  0
  7  8  2  0  0  0
  8  9  1  0  0  0
  9 10  1  0  0  0
M  END
> <minimizedAffinity>
-4.02557

$$$$
4B35_4ME_A_1351


 14 15  0  0  0  0  0  0  0  0999 V2000
   21.3248    8.2039   -5.5291 C   0  0  0  0  0  0  0  0  0  0  0  0
   21.8080    7.0055   -6.0309 C   0  0  0  0  0  0  0  0  0  0  0  0
   21.7178    5.8560   -5.2614 C   0  0  0  0  0  0  0  0  0  0  0  0
   21.1520    5.8772   -4.0082 C   0  0  0  0  0  0  0  0  0  0  0  0
   20.6715    7.0811   -3.5054 C   0  0  0  0  0  0  0  0  0  0  0  0
   20.7500    8.2410   -4.2680 C   0  0  0  0  0  0  0  0  0  0  0  0
   20.2136    9.2229   -3.5467 C   0  0  0  0  0  0  0  0  0  0  0  0
   19.8089    8.7034   -2.3885 C   0  0  0  0  0  0  0  0  0  0  0  0
   20.0854    7.3948   -2.3631 N   0  0  0  0  0  0  0  0  0  0  0  0
   19.8874    6.7751   -1.6242 H   0  0  0  0  0  0  0  0  0  0  0  0
   21.4428    9.4437   -6.4044 C   0  0  0  0  0  0  0  0  0  0  0  0
   20.5862    9.7230   -7.2432 O   0  0  0  0  0  0  0  0  0  0  0  0
   22.1775   11.5735   -5.8818 C   0  0  0  0  0  0  0  0  0  0  0  0
   22.5257   10.2269   -6.2129 O   0  0  0  0  0  0  0  0  0  0  0  0
 13 14  1  0  0  0
 14 11  1  0  0  0
 11 12  2  0  0  0
 11  1  1  0  0  0
  1  2  1  0  0  0
  1  6  2  0  0  0
  2  3  2  0  0  0
  3  4  1  0  0  0
  4  5  2  0  0  0
  5  6  1  0  0  0
  5  9  1  0  0  0
  6  7  1  0  0  0
  7  8  2  0  0  0
  8  9  1  0  0  0
  9 10  1  0  0  0
M  END
> <minimizedAffinity>
-4.02137

$$$$
4B35_4ME_A_1351


 14 15  0  0  0  0  0  0  0  0999 V2000
   21.7634    6.5390   -2.7014 C   0  0  0  0  0  0  0  0  0  0  0  0
   23.0257    6.2299   -2.2192 C   0  0  0  0  0  0  0  0  0  0  0  0
   23.8945    7.2529   -1.8720 C   0  0  0  0  0  0  0  0  0  0  0  0
   23.5282    8.5730   -1.9905 C   0  0  0  0  0  0  0  0  0  0  0  0
   22.2630    8.8808   -2.4780 C   0  0  0  0  0  0  0  0  0  0  0  0
   21.3788    7.8653   -2.8249 C   0  0  0  0  0  0  0  0  0  0  0  0
   20.2580    8.4468   -3.2463 C   0  0  0  0  0  0  0  0  0  0  0  0
   20.4258    9.7657   -3.1603 C   0  0  0  0  0  0  0  0  0  0  0  0
   21.6491   10.0321   -2.6886 N   0  0  0  0  0  0  0  0  0  0  0  0
   22.0253   10.9273   -2.5269 H   0  0  0  0  0  0  0  0  0  0  0  0
   20.8393    5.3878   -3.0722 C   0  0  0  0  0  0  0  0  0  0  0  0
   20.6787    5.0430   -4.2430 O   0  0  0  0  0  0  0  0  0  0  0  0
   18.8285    5.1128   -1.9631 C   0  0  0  0  0  0  0  0  0  0  0  0
   20.2101    4.7572   -2.0577 O   0  0  0  0  0  0  0  0  0  0  0  0
 13 14  1  0  0  0
 14 11  1  0  0  0
 11 12  2  0  0  0
 11  1  1  0  0  0
  1  2  1  0  0  0
  1  6  2  0  0  0
  2  3  2  0  0  0
  3  4  1  0  0  0
  4  5  2  0  0  0
  5  6  1  0  0  0
  5  9  1  0  0  0
  6  7  1  0  0  0
  7  8  2  0  0  0
  8  9  1  0  0  0
  9 10  1  0  0  0
M  END
> <minimizedAffinity>
-3.96152

$$$$
4B35_4ME_A_1351


 14 15  0  0  0  0  0  0  0  0999 V2000
   21.3732    6.7248   -4.3475 C   0  0  0  0  0  0  0  0  0  0  0  0
   21.1043    5.4287   -3.9359 C   0  0  0  0  0  0  0  0  0  0  0  0
   20.2649    5.2153   -2.8535 C   0  0  0  0  0  0  0  0  0  0  0  0
   19.6860    6.2650   -2.1798 C   0  0  0  0  0  0  0  0  0  0  0  0
   19.9602    7.5643   -2.5920 C   0  0  0  0  0  0  0  0  0  0  0  0
   20.7957    7.7936   -3.6795 C   0  0  0  0  0  0  0  0  0  0  0  0
   20.8693    9.1121   -3.8476 C   0  0  0  0  0  0  0  0  0  0  0  0
   20.1090    9.6848   -2.9154 C   0  0  0  0  0  0  0  0  0  0  0  0
   19.5510    8.7405   -2.1496 N   0  0  0  0  0  0  0  0  0  0  0  0
   18.9430    8.8945   -1.3907 H   0  0  0  0  0  0  0  0  0  0  0  0
   22.3001    6.9174   -5.5394 C   0  0  0  0  0  0  0  0  0  0  0  0
   21.8810    6.8640   -6.6957 O   0  0  0  0  0  0  0  0  0  0  0  0
   24.0486    8.4091   -5.7968 C   0  0  0  0  0  0  0  0  0  0  0  0
   23.6011    7.1576   -5.2702 O   0  0  0  0  0  0  0  0  0  0  0  0
 13 14  1  0  0  0
 14 11  1  0  0  0
 11 12  2  0  0  0
 11  1  1  0  0  0
  1  2  1  0  0  0
  1  6  2  0  0  0
  2  3  2  0  0  0
  3  4  1  0  0  0
  4  5  2  0  0  0
  5  6  1  0  0  0
  5  9  1  0  0  0
  6  7  1  0  0  0
  7  8  2  0  0  0
  8  9  1  0  0  0
  9 10  1  0  0  0
M  END
> <minimizedAffinity>
-3.94914

$$$$
