2VHJ_ADP_A_1301


 34 36  0  0  0  0  0  0  0  0999 V2000
   84.1562   49.8573    3.4514 C   0  0  0  0  0  0  0  0  0  0  0  0
   84.6206   51.1716    3.1280 O   0  0  0  0  0  0  0  0  0  0  0  0
   85.1566   48.8606    2.8787 C   0  0  0  0  0  0  0  0  0  0  0  0
   84.4714   47.9810    1.9910 O   0  0  0  0  0  0  0  0  0  0  0  0
   86.2115   49.6678    2.1442 C   0  0  0  0  0  0  0  0  0  0  0  0
   86.3391   49.2870    0.7631 O   0  0  0  0  0  0  0  0  0  0  0  0
   85.7732   51.1229    2.2804 C   0  0  0  0  0  0  0  0  0  0  0  0
   84.0444   48.4976    1.2897 H   0  0  0  0  0  0  0  0  0  0  0  0
   85.4899   49.4156    0.3124 H   0  0  0  0  0  0  0  0  0  0  0  0
   86.8399   51.9312    2.9051 N   0  0  0  0  0  0  0  0  0  0  0  0
   87.3345   51.7188    4.1369 C   0  0  0  0  0  0  0  0  0  0  0  0
   88.2993   52.6302    4.4196 N   0  0  0  0  0  0  0  0  0  0  0  0
   88.4216   53.4484    3.3608 C   0  0  0  0  0  0  0  0  0  0  0  0
   89.2553   54.6207    3.0142 C   0  0  0  0  0  0  0  0  0  0  0  0
   90.1639   55.0913    3.8998 N   0  0  0  0  0  0  0  0  0  0  0  0
   89.0746   55.1902    1.7971 N   0  0  0  0  0  0  0  0  0  0  0  0
   88.1653   54.7175    0.9148 C   0  0  0  0  0  0  0  0  0  0  0  0
   87.3745   53.6513    1.1723 N   0  0  0  0  0  0  0  0  0  0  0  0
   87.4547   52.9852    2.3559 C   0  0  0  0  0  0  0  0  0  0  0  0
   90.2699   54.6541    4.7755 H   0  0  0  0  0  0  0  0  0  0  0  0
   90.7189   55.8708    3.6684 H   0  0  0  0  0  0  0  0  0  0  0  0
   83.9343   49.7162    4.9484 C   0  0  0  0  0  0  0  0  0  0  0  0
   82.9194   48.7396    5.1761 O   0  0  0  0  0  0  0  0  0  0  0  0
   81.3608   49.1018    4.9991 P   0  0  0  0  0  0  0  0  0  0  0  0
   80.5427   48.1459    5.8395 O   0  0  0  0  0  0  0  0  0  0  0  0
   81.1697   50.5798    5.2159 O   0  0  0  0  0  0  0  0  0  0  0  0
   80.2318   50.8035    5.1104 H   0  0  0  0  0  0  0  0  0  0  0  0
   81.0852   48.8158    3.4306 O   0  0  0  0  0  0  0  0  0  0  0  0
   80.9136   47.3009    2.8922 P   0  0  0  0  0  0  0  0  0  0  0  0
   81.0427   47.4006    1.3889 O   0  0  0  0  0  0  0  0  0  0  0  0
   82.0562   46.5985    3.5742 O   0  0  0  0  0  0  0  0  0  0  0  0
   79.5546   46.8292    3.3666 O   0  0  0  0  0  0  0  0  0  0  0  0
   82.0564   45.6618    3.3224 H   0  0  0  0  0  0  0  0  0  0  0  0
   79.4051   45.9191    3.0660 H   0  0  0  0  0  0  0  0  0  0  0  0
 29 30  2  0  0  0
 29 31  1  0  0  0
 29 32  1  0  0  0
 29 28  1  0  0  0
 24 25  2  0  0  0
 24 26  1  0  0  0
 24 28  1  0  0  0
 24 23  1  0  0  0
 23 22  1  0  0  0
 22  1  1  0  0  0
  1  2  1  0  0  0
  1  3  1  0  0  0
  2  7  1  0  0  0
  3  4  1  0  0  0
  3  5  1  0  0  0
  5  6  1  0  0  0
  5  7  1  0  0  0
  7 10  1  0  0  0
 10 11  1  0  0  0
 10 19  1  0  0  0
 11 12  2  0  0  0
 12 13  1  0  0  0
 13 14  1  0  0  0
 13 19  2  0  0  0
 14 15  1  0  0  0
 14 16  2  0  0  0
 16 17  1  0  0  0
 17 18  2  0  0  0
 18 19  1  0  0  0
 31 33  1  0  0  0
 32 34  1  0  0  0
 26 27  1  0  0  0
  4  8  1  0  0  0
  6  9  1  0  0  0
 15 20  1  0  0  0
 15 21  1  0  0  0
M  END
> <minimizedAffinity>
-10.23530

$$$$
2VHJ_ADP_A_1301


 34 36  0  0  0  0  0  0  0  0999 V2000
   83.9564   49.2565    2.9510 C   0  0  0  0  0  0  0  0  0  0  0  0
   84.3871   50.5727    2.5909 O   0  0  0  0  0  0  0  0  0  0  0  0
   85.1535   48.3243    2.8093 C   0  0  0  0  0  0  0  0  0  0  0  0
   84.8185   47.2823    1.8965 O   0  0  0  0  0  0  0  0  0  0  0  0
   86.3051   49.1627    2.2849 C   0  0  0  0  0  0  0  0  0  0  0  0
   86.8467   48.6527    1.0540 O   0  0  0  0  0  0  0  0  0  0  0  0
   85.7320   50.5647    2.1004 C   0  0  0  0  0  0  0  0  0  0  0  0
   84.5668   47.6686    1.0431 H   0  0  0  0  0  0  0  0  0  0  0  0
   86.1515   48.6348    0.3777 H   0  0  0  0  0  0  0  0  0  0  0  0
   86.5116   51.5515    2.8749 N   0  0  0  0  0  0  0  0  0  0  0  0
   86.7987   51.4380    4.1833 C   0  0  0  0  0  0  0  0  0  0  0  0
   87.5254   52.5059    4.5992 N   0  0  0  0  0  0  0  0  0  0  0  0
   87.7004   53.3248    3.5484 C   0  0  0  0  0  0  0  0  0  0  0  0
   88.3720   54.6218    3.3119 C   0  0  0  0  0  0  0  0  0  0  0  0
   89.0078   55.2505    4.3277 N   0  0  0  0  0  0  0  0  0  0  0  0
   88.3252   55.1417    2.0605 N   0  0  0  0  0  0  0  0  0  0  0  0
   87.6884   54.5109    1.0479 C   0  0  0  0  0  0  0  0  0  0  0  0
   87.0568   53.3250    1.2005 N   0  0  0  0  0  0  0  0  0  0  0  0
   87.0289   52.6922    2.4045 C   0  0  0  0  0  0  0  0  0  0  0  0
   89.0229   54.8452    5.2248 H   0  0  0  0  0  0  0  0  0  0  0  0
   89.4552   56.1130    4.1696 H   0  0  0  0  0  0  0  0  0  0  0  0
   83.3334   49.2527    4.3374 C   0  0  0  0  0  0  0  0  0  0  0  0
   82.5896   48.0470    4.5076 O   0  0  0  0  0  0  0  0  0  0  0  0
   81.4986   47.5813    3.4191 P   0  0  0  0  0  0  0  0  0  0  0  0
   80.9060   48.8126    2.7696 O   0  0  0  0  0  0  0  0  0  0  0  0
   82.1078   46.5315    2.5275 O   0  0  0  0  0  0  0  0  0  0  0  0
   81.4542   46.2473    1.8695 H   0  0  0  0  0  0  0  0  0  0  0  0
   80.3692   46.8435    4.3125 O   0  0  0  0  0  0  0  0  0  0  0  0
   80.0882   47.3182    5.8324 P   0  0  0  0  0  0  0  0  0  0  0  0
   78.7611   46.6939    6.2005 O   0  0  0  0  0  0  0  0  0  0  0  0
   81.2738   46.7450    6.5601 O   0  0  0  0  0  0  0  0  0  0  0  0
   80.0753   48.8328    5.8126 O   0  0  0  0  0  0  0  0  0  0  0  0
   81.2146   46.9695    7.5019 H   0  0  0  0  0  0  0  0  0  0  0  0
   79.9091   49.1665    6.7081 H   0  0  0  0  0  0  0  0  0  0  0  0
 29 30  2  0  0  0
 29 31  1  0  0  0
 29 32  1  0  0  0
 29 28  1  0  0  0
 24 25  2  0  0  0
 24 26  1  0  0  0
 24 28  1  0  0  0
 24 23  1  0  0  0
 23 22  1  0  0  0
 22  1  1  0  0  0
  1  2  1  0  0  0
  1  3  1  0  0  0
  2  7  1  0  0  0
  3  4  1  0  0  0
  3  5  1  0  0  0
  5  6  1  0  0  0
  5  7  1  0  0  0
  7 10  1  0  0  0
 10 11  1  0  0  0
 10 19  1  0  0  0
 11 12  2  0  0  0
 12 13  1  0  0  0
 13 14  1  0  0  0
 13 19  2  0  0  0
 14 15  1  0  0  0
 14 16  2  0  0  0
 16 17  1  0  0  0
 17 18  2  0  0  0
 18 19  1  0  0  0
 31 33  1  0  0  0
 32 34  1  0  0  0
 26 27  1  0  0  0
  4  8  1  0  0  0
  6  9  1  0  0  0
 15 20  1  0  0  0
 15 21  1  0  0  0
M  END
> <minimizedAffinity>
-8.66014

$$$$
