4MPN_PV0_A_501
  RCSB PDB12061713463D
Coordinates from PDB:4MPN:A:501 Model:1 without hydrogens
 22 24  0  0  0  0            999 V2000
   16.4750    1.8240  -37.5840   C 0  0  0  0  0  0  0  0  0  0  0  0
   16.3120    0.5580  -38.1370   C 0  0  0  0  0  0  0  0  0  0  0  0
   11.6470    2.3790  -38.8840   O 0  0  0  0  0  0  0  0  0  0  0  0
   11.4780    3.0250  -37.6780   C 0  0  0  0  0  0  0  0  0  0  0  0
   10.7980    4.2320  -37.6030   C 0  0  0  0  0  0  0  0  0  0  0  0
   10.6460    4.8540  -36.3670   C 0  0  0  0  0  0  0  0  0  0  0  0
    9.9800    6.0520  -36.2640   O 0  0  0  0  0  0  0  0  0  0  0  0
   11.1780    4.2870  -35.2250   C 0  0  0  0  0  0  0  0  0  0  0  0
   11.8670    3.0980  -35.2990   C 0  0  0  0  0  0  0  0  0  0  0  0
   12.0110    2.4650  -36.5280   C 0  0  0  0  0  0  0  0  0  0  0  0
   12.8760    0.9530  -36.6190   S 0  0  0  0  0  0  0  0  0  0  0  0
   14.2410    1.3390  -37.3990   N 0  0  0  0  0  0  0  0  0  0  0  0
   15.2100    2.2950  -37.0040   C 0  0  0  0  0  0  0  0  0  0  0  0
   14.8710    0.1550  -37.9280   C 0  0  0  0  0  0  0  0  0  0  0  0
   17.4180   -0.0860  -38.7550   C 0  0  0  0  0  0  0  0  0  0  0  0
   18.6450    0.5860  -38.7870   C 0  0  0  0  0  0  0  0  0  0  0  0
   18.7850    1.8590  -38.2250   C 0  0  0  0  0  0  0  0  0  0  0  0
   17.7120    2.4780  -37.6220   C 0  0  0  0  0  0  0  0  0  0  0  0
   17.8050    3.7220  -37.0620   O 0  0  0  0  0  0  0  0  0  0  0  0
   19.7410    0.0040  -39.3780   O 0  0  0  0  0  0  0  0  0  0  0  0
   13.1870    0.5400  -35.2580   O 0  0  0  0  0  0  0  0  0  0  0  0
   12.1930   -0.1290  -37.2970   O 0  0  0  0  0  0  0  0  0  0  0  0
 20 16  1  0  0  0  0
  3  4  1  0  0  0  0
 16 15  2  0  0  0  0
 16 17  1  0  0  0  0
 15  2  1  0  0  0  0
 17 18  2  0  0  0  0
  2 14  1  0  0  0  0
  2  1  2  0  0  0  0
 14 12  1  0  0  0  0
  4  5  2  0  0  0  0
  4 10  1  0  0  0  0
 18  1  1  0  0  0  0
 18 19  1  0  0  0  0
  5  6  1  0  0  0  0
  1 13  1  0  0  0  0
 12 13  1  0  0  0  0
 12 11  1  0  0  0  0
 22 11  2  0  0  0  0
 11 10  1  0  0  0  0
 11 21  2  0  0  0  0
 10  9  2  0  0  0  0
  6  7  1  0  0  0  0
  6  8  2  0  0  0  0
  9  8  1  0  0  0  0
A    1
C12
A    2
C13
A    3
O01
A    4
C02
A    5
C03
A    6
C04
A    7
O05
A    8
C06
A    9
C07
A   10
C08
A   11
S09
A   12
N10
A   13
C11
A   14
C14
A   15
C15
A   16
C16
A   17
C17
A   18
C18
A   19
O19
A   20
O20
A   21
O21
A   22
O22
M  END
>  <InstanceId>
4MPN_PV0_A_501

>  <ChemCompId>
PV0

>  <PdbId>
4MPN

>  <ChainId>
A

>  <ResidueNumber>
501

>  <InsertionCode>


>  <Model>
1

>  <AltIds>


>  <MissingHeavyAtoms>
0

>  <ObservedFormula>
C14 N O6 S

>  <Name>
2-[(2,4-dihydroxyphenyl)sulfonyl]-2,3-dihydro-1H-isoindole-4,6-diol

>  <SystematicName>
2-[2,4-bis(oxidanyl)phenyl]sulfonyl-1,3-dihydroisoindole-4,6-diol

>  <Synonyms>


>  <Type>
NON-POLYMER

>  <Formula>
C14 H13 N O6 S

>  <MolecularWeight>
323.321

>  <ModifiedDate>
2013-12-27

>  <Parent>


>  <OneLetterCode>


>  <SubcomponentList>


>  <AmbiguousFlag>
N

>  <InChI>
InChI=1S/C14H13NO6S/c16-9-1-2-14(13(19)4-9)22(20,21)15-6-8-3-10(17)5-12(18)11(8)7-15/h1-5,16-19H,6-7H2

>  <InChIKey>
SVUZJWAAXPEMKJ-UHFFFAOYSA-N

>  <SMILES>
c1cc(c(cc1O)O)S(=O)(=O)N2Cc3cc(cc(c3C2)O)O

$$$$
