5WEX_8JS_A_303


 25 26  0  0  0  0  0  0  0  0999 V2000
   -0.7930    5.5684   83.4343 N   0  0  0  0  0  0  0  0  0  0  0  0
   -1.2464    6.4313   83.2963 H   0  0  0  0  0  0  0  0  0  0  0  0
   -0.4879    3.8115   85.1183 C   0  0  0  0  0  0  0  0  0  0  0  0
   -2.6035    4.9080   84.7544 C   0  0  0  0  0  0  0  0  0  0  0  0
   -1.0775    3.0291   86.0958 C   0  0  0  0  0  0  0  0  0  0  0  0
   -3.1803    4.1343   85.7400 C   0  0  0  0  0  0  0  0  0  0  0  0
   -1.2618    4.7459   84.4577 C   0  0  0  0  0  0  0  0  0  0  0  0
   -2.4386    3.1954   86.4150 C   0  0  0  0  0  0  0  0  0  0  0  0
   -2.2507    0.8793   87.8063 N   0  0  0  0  0  0  0  0  0  0  0  0
   -3.1102    2.9523   88.8484 O   0  0  0  0  0  0  0  0  0  0  0  0
   -4.4967    1.8270   87.1603 O   0  0  0  0  0  0  0  0  0  0  0  0
   -3.1762    2.1726   87.6577 S   0  0  0  0  0  0  0  0  0  0  0  0
   -2.3015    0.3249   86.9517 H   0  0  0  0  0  0  0  0  0  0  0  0
   -2.5739    0.3188   88.5949 H   0  0  0  0  0  0  0  0  0  0  0  0
    0.2350    5.2654   82.6227 C   0  0  0  0  0  0  0  0  0  0  0  0
    1.9858    5.7245   82.7294 S   0  0  0  0  0  0  0  0  0  0  0  0
   -0.1642    4.4661   81.5600 N   0  0  0  0  0  0  0  0  0  0  0  0
   -0.4475    4.9420   80.7461 H   0  0  0  0  0  0  0  0  0  0  0  0
    0.9688    2.3968   81.2709 C   0  0  0  0  0  0  0  0  0  0  0  0
   -1.3544    2.2812   81.6672 C   0  0  0  0  0  0  0  0  0  0  0  0
    1.0276    1.0408   81.2041 C   0  0  0  0  0  0  0  0  0  0  0  0
   -1.2904    0.8996   81.6145 C   0  0  0  0  0  0  0  0  0  0  0  0
   -0.2150    3.0530   81.5002 C   0  0  0  0  0  0  0  0  0  0  0  0
   -0.1024    0.2630   81.3740 C   0  0  0  0  0  0  0  0  0  0  0  0
   -0.0199   -1.1149   81.3042 F   0  0  0  0  0  0  0  0  0  0  0  0
 16 15  2  0  0  0
 19 21  2  0  0  0
 19 23  1  0  0  0
 17 15  1  0  0  0
 17 23  1  0  0  0
 15  1  1  0  0  0
 21 24  1  0  0  0
 23 20  2  0  0  0
  1  7  1  0  0  0
 24 25  1  0  0  0
 24 22  2  0  0  0
  7  3  2  0  0  0
  7  4  1  0  0  0
 20 22  1  0  0  0
  3  5  1  0  0  0
  4  6  2  0  0  0
  5  8  2  0  0  0
  6  8  1  0  0  0
  8 12  1  0  0  0
  9 12  1  0  0  0
 11 12  2  0  0  0
 12 10  2  0  0  0
  9 13  1  0  0  0
  9 14  1  0  0  0
 17 18  1  0  0  0
  1  2  1  0  0  0
M  END
> <minimizedAffinity>
-8.12915

$$$$
5WEX_8JS_A_303


 25 26  0  0  0  0  0  0  0  0999 V2000
   -0.6370    5.7478   83.6773 N   0  0  0  0  0  0  0  0  0  0  0  0
   -0.8366    6.7108   83.7214 H   0  0  0  0  0  0  0  0  0  0  0  0
   -2.6718    4.9997   84.8245 C   0  0  0  0  0  0  0  0  0  0  0  0
   -0.5276    3.9538   85.1695 C   0  0  0  0  0  0  0  0  0  0  0  0
   -3.2309    4.1225   85.7373 C   0  0  0  0  0  0  0  0  0  0  0  0
   -1.0952    3.0737   86.0672 C   0  0  0  0  0  0  0  0  0  0  0  0
   -1.3212    4.9031   84.5504 C   0  0  0  0  0  0  0  0  0  0  0  0
   -2.4350    3.1438   86.3627 C   0  0  0  0  0  0  0  0  0  0  0  0
   -2.3217    0.6882   87.4994 N   0  0  0  0  0  0  0  0  0  0  0  0
   -2.9856    2.6882   88.7960 O   0  0  0  0  0  0  0  0  0  0  0  0
   -4.5335    1.8291   87.0917 O   0  0  0  0  0  0  0  0  0  0  0  0
   -3.1678    2.0423   87.5391 S   0  0  0  0  0  0  0  0  0  0  0  0
   -2.4555    0.2299   86.5981 H   0  0  0  0  0  0  0  0  0  0  0  0
   -2.6366    0.0685   88.2459 H   0  0  0  0  0  0  0  0  0  0  0  0
    0.2762    5.3390   82.7795 C   0  0  0  0  0  0  0  0  0  0  0  0
    2.0548    5.6770   82.6814 S   0  0  0  0  0  0  0  0  0  0  0  0
   -0.2861    4.5260   81.8045 N   0  0  0  0  0  0  0  0  0  0  0  0
   -0.8654    4.9776   81.1490 H   0  0  0  0  0  0  0  0  0  0  0  0
   -1.2586    2.3576   81.7662 C   0  0  0  0  0  0  0  0  0  0  0  0
    1.0578    2.4827   81.3348 C   0  0  0  0  0  0  0  0  0  0  0  0
   -1.2168    1.0079   81.6138 C   0  0  0  0  0  0  0  0  0  0  0  0
    1.0961    1.1097   81.1643 C   0  0  0  0  0  0  0  0  0  0  0  0
   -0.1310    3.1295   81.6349 C   0  0  0  0  0  0  0  0  0  0  0  0
   -0.0369    0.3550   81.3099 C   0  0  0  0  0  0  0  0  0  0  0  0
   -0.0171   -1.0186   81.1571 F   0  0  0  0  0  0  0  0  0  0  0  0
 16 15  2  0  0  0
 19 21  2  0  0  0
 19 23  1  0  0  0
 17 15  1  0  0  0
 17 23  1  0  0  0
 15  1  1  0  0  0
 21 24  1  0  0  0
 23 20  2  0  0  0
  1  7  1  0  0  0
 24 25  1  0  0  0
 24 22  2  0  0  0
  7  3  2  0  0  0
  7  4  1  0  0  0
 20 22  1  0  0  0
  3  5  1  0  0  0
  4  6  2  0  0  0
  5  8  2  0  0  0
  6  8  1  0  0  0
  8 12  1  0  0  0
  9 12  1  0  0  0
 11 12  2  0  0  0
 12 10  2  0  0  0
  9 13  1  0  0  0
  9 14  1  0  0  0
 17 18  1  0  0  0
  1  2  1  0  0  0
M  END
> <minimizedAffinity>
-8.06328

$$$$
5WEX_8JS_A_303


 25 26  0  0  0  0  0  0  0  0999 V2000
   -0.9845    6.3933   84.0699 N   0  0  0  0  0  0  0  0  0  0  0  0
   -1.2420    7.2754   84.4231 H   0  0  0  0  0  0  0  0  0  0  0  0
   -0.3997    4.2891   85.1862 C   0  0  0  0  0  0  0  0  0  0  0  0
   -2.6377    5.1842   85.1931 C   0  0  0  0  0  0  0  0  0  0  0  0
   -0.8467    3.2031   85.9183 C   0  0  0  0  0  0  0  0  0  0  0  0
   -3.0726    4.1059   85.9352 C   0  0  0  0  0  0  0  0  0  0  0  0
   -1.3049    5.2708   84.8321 C   0  0  0  0  0  0  0  0  0  0  0  0
   -2.1982    3.1121   86.3026 C   0  0  0  0  0  0  0  0  0  0  0  0
   -4.3474    1.7023   87.1561 N   0  0  0  0  0  0  0  0  0  0  0  0
   -2.2354    0.5851   86.5133 O   0  0  0  0  0  0  0  0  0  0  0  0
   -2.2788    1.9072   88.5841 O   0  0  0  0  0  0  0  0  0  0  0  0
   -2.7516    1.7062   87.2252 S   0  0  0  0  0  0  0  0  0  0  0  0
   -4.7118    2.5064   87.6670 H   0  0  0  0  0  0  0  0  0  0  0  0
   -4.7038    0.8433   87.5752 H   0  0  0  0  0  0  0  0  0  0  0  0
   -0.3484    6.3553   82.8862 C   0  0  0  0  0  0  0  0  0  0  0  0
    1.3943    6.0332   82.5031 S   0  0  0  0  0  0  0  0  0  0  0  0
   -1.2130    6.5979   81.8273 N   0  0  0  0  0  0  0  0  0  0  0  0
   -1.3895    5.8340   81.2319 H   0  0  0  0  0  0  0  0  0  0  0  0
   -1.0984    8.8176   80.9850 C   0  0  0  0  0  0  0  0  0  0  0  0
   -3.2312    8.0441   81.6333 C   0  0  0  0  0  0  0  0  0  0  0  0
   -1.6373   10.0130   80.6285 C   0  0  0  0  0  0  0  0  0  0  0  0
   -3.7813    9.2565   81.2552 C   0  0  0  0  0  0  0  0  0  0  0  0
   -1.8724    7.8058   81.4966 C   0  0  0  0  0  0  0  0  0  0  0  0
   -2.9917   10.2579   80.7569 C   0  0  0  0  0  0  0  0  0  0  0  0
   -3.5195   11.4803   80.3863 F   0  0  0  0  0  0  0  0  0  0  0  0
 16 15  2  0  0  0
 19 21  2  0  0  0
 19 23  1  0  0  0
 17 15  1  0  0  0
 17 23  1  0  0  0
 15  1  1  0  0  0
 21 24  1  0  0  0
 23 20  2  0  0  0
  1  7  1  0  0  0
 24 25  1  0  0  0
 24 22  2  0  0  0
  7  3  2  0  0  0
  7  4  1  0  0  0
 20 22  1  0  0  0
  3  5  1  0  0  0
  4  6  2  0  0  0
  5  8  2  0  0  0
  6  8  1  0  0  0
  8 12  1  0  0  0
  9 12  1  0  0  0
 11 12  2  0  0  0
 12 10  2  0  0  0
  9 13  1  0  0  0
  9 14  1  0  0  0
 17 18  1  0  0  0
  1  2  1  0  0  0
M  END
> <minimizedAffinity>
-7.04739

$$$$
5WEX_8JS_A_303


 25 26  0  0  0  0  0  0  0  0999 V2000
   -1.1731    6.3840   83.7406 N   0  0  0  0  0  0  0  0  0  0  0  0
   -1.5973    7.2713   83.7851 H   0  0  0  0  0  0  0  0  0  0  0  0
   -2.8978    5.4408   85.2075 C   0  0  0  0  0  0  0  0  0  0  0  0
   -0.8118    4.3165   84.7662 C   0  0  0  0  0  0  0  0  0  0  0  0
   -3.2662    4.4001   86.0419 C   0  0  0  0  0  0  0  0  0  0  0  0
   -1.1924    3.2761   85.5880 C   0  0  0  0  0  0  0  0  0  0  0  0
   -1.6700    5.3851   84.5767 C   0  0  0  0  0  0  0  0  0  0  0  0
   -2.4062    3.3014   86.2310 C   0  0  0  0  0  0  0  0  0  0  0  0
   -2.0724    0.6909   86.8708 N   0  0  0  0  0  0  0  0  0  0  0  0
   -2.4593    2.4123   88.6055 O   0  0  0  0  0  0  0  0  0  0  0  0
   -4.3188    1.8107   87.1160 O   0  0  0  0  0  0  0  0  0  0  0  0
   -2.8908    1.9886   87.3153 S   0  0  0  0  0  0  0  0  0  0  0  0
   -2.3849    0.3918   85.9471 H   0  0  0  0  0  0  0  0  0  0  0  0
   -2.2327   -0.0590   87.5433 H   0  0  0  0  0  0  0  0  0  0  0  0
   -0.1551    6.2201   82.8780 C   0  0  0  0  0  0  0  0  0  0  0  0
   -0.1038    5.3762   81.2741 S   0  0  0  0  0  0  0  0  0  0  0  0
    1.0105    6.8204   83.3348 N   0  0  0  0  0  0  0  0  0  0  0  0
    1.8055    6.2411   83.3759 H   0  0  0  0  0  0  0  0  0  0  0  0
    1.2499    9.1150   82.7634 C   0  0  0  0  0  0  0  0  0  0  0  0
    1.3222    8.5871   85.0620 C   0  0  0  0  0  0  0  0  0  0  0  0
    1.4193   10.4309   83.0575 C   0  0  0  0  0  0  0  0  0  0  0  0
    1.4790    9.9294   85.3611 C   0  0  0  0  0  0  0  0  0  0  0  0
    1.1992    8.1606   83.7488 C   0  0  0  0  0  0  0  0  0  0  0  0
    1.5382   10.8659   84.3642 C   0  0  0  0  0  0  0  0  0  0  0  0
    1.7078   12.2093   84.6412 F   0  0  0  0  0  0  0  0  0  0  0  0
 16 15  2  0  0  0
 19 21  2  0  0  0
 19 23  1  0  0  0
 17 15  1  0  0  0
 17 23  1  0  0  0
 15  1  1  0  0  0
 21 24  1  0  0  0
 23 20  2  0  0  0
  1  7  1  0  0  0
 24 25  1  0  0  0
 24 22  2  0  0  0
  7  3  2  0  0  0
  7  4  1  0  0  0
 20 22  1  0  0  0
  3  5  1  0  0  0
  4  6  2  0  0  0
  5  8  2  0  0  0
  6  8  1  0  0  0
  8 12  1  0  0  0
  9 12  1  0  0  0
 11 12  2  0  0  0
 12 10  2  0  0  0
  9 13  1  0  0  0
  9 14  1  0  0  0
 17 18  1  0  0  0
  1  2  1  0  0  0
M  END
> <minimizedAffinity>
-6.70089

$$$$
5WEX_8JS_A_303


 25 26  0  0  0  0  0  0  0  0999 V2000
    0.0115    4.7680   82.4822 N   0  0  0  0  0  0  0  0  0  0  0  0
   -0.4816    5.6011   82.6611 H   0  0  0  0  0  0  0  0  0  0  0  0
    2.0329    3.8683   81.4237 C   0  0  0  0  0  0  0  0  0  0  0  0
    1.9374    6.0849   82.3658 C   0  0  0  0  0  0  0  0  0  0  0  0
    3.3571    4.0844   81.0850 C   0  0  0  0  0  0  0  0  0  0  0  0
    3.2535    6.2980   82.0120 C   0  0  0  0  0  0  0  0  0  0  0  0
    1.3364    4.8763   82.0619 C   0  0  0  0  0  0  0  0  0  0  0  0
    3.9743    5.3157   81.3773 C   0  0  0  0  0  0  0  0  0  0  0  0
    6.5355    5.2404   82.2548 N   0  0  0  0  0  0  0  0  0  0  0  0
    5.9365    4.5900   79.9439 O   0  0  0  0  0  0  0  0  0  0  0  0
    5.7909    6.9620   80.5690 O   0  0  0  0  0  0  0  0  0  0  0  0
    5.6740    5.5647   80.9494 S   0  0  0  0  0  0  0  0  0  0  0  0
    6.3440    5.9408   82.9712 H   0  0  0  0  0  0  0  0  0  0  0  0
    7.5279    5.2568   82.0199 H   0  0  0  0  0  0  0  0  0  0  0  0
   -0.6396    3.6055   82.6602 C   0  0  0  0  0  0  0  0  0  0  0  0
   -1.6757    2.6563   81.5143 S   0  0  0  0  0  0  0  0  0  0  0  0
   -0.4435    3.0939   83.9359 N   0  0  0  0  0  0  0  0  0  0  0  0
    0.4763    2.8176   84.1522 H   0  0  0  0  0  0  0  0  0  0  0  0
   -1.3153    1.7667   85.7045 C   0  0  0  0  0  0  0  0  0  0  0  0
   -2.4017    3.8203   85.2923 C   0  0  0  0  0  0  0  0  0  0  0  0
   -2.1813    1.5092   86.7196 C   0  0  0  0  0  0  0  0  0  0  0  0
   -3.2733    3.5640   86.3365 C   0  0  0  0  0  0  0  0  0  0  0  0
   -1.4002    2.9197   84.9643 C   0  0  0  0  0  0  0  0  0  0  0  0
   -3.1800    2.4034   87.0567 C   0  0  0  0  0  0  0  0  0  0  0  0
   -4.0490    2.1227   88.0942 F   0  0  0  0  0  0  0  0  0  0  0  0
 16 15  2  0  0  0
 19 21  2  0  0  0
 19 23  1  0  0  0
 17 15  1  0  0  0
 17 23  1  0  0  0
 15  1  1  0  0  0
 21 24  1  0  0  0
 23 20  2  0  0  0
  1  7  1  0  0  0
 24 25  1  0  0  0
 24 22  2  0  0  0
  7  3  2  0  0  0
  7  4  1  0  0  0
 20 22  1  0  0  0
  3  5  1  0  0  0
  4  6  2  0  0  0
  5  8  2  0  0  0
  6  8  1  0  0  0
  8 12  1  0  0  0
  9 12  1  0  0  0
 11 12  2  0  0  0
 12 10  2  0  0  0
  9 13  1  0  0  0
  9 14  1  0  0  0
 17 18  1  0  0  0
  1  2  1  0  0  0
M  END
> <minimizedAffinity>
-6.57596

$$$$
5WEX_8JS_A_303


 25 26  0  0  0  0  0  0  0  0999 V2000
    0.9876    3.7081   82.7749 N   0  0  0  0  0  0  0  0  0  0  0  0
    1.7828    3.1312   82.7102 H   0  0  0  0  0  0  0  0  0  0  0  0
    0.5828    5.6258   84.2495 C   0  0  0  0  0  0  0  0  0  0  0  0
    2.0052    5.7583   82.3080 C   0  0  0  0  0  0  0  0  0  0  0  0
    0.8251    6.9649   84.5012 C   0  0  0  0  0  0  0  0  0  0  0  0
    2.2533    7.0889   82.5739 C   0  0  0  0  0  0  0  0  0  0  0  0
    1.1794    5.0367   83.1515 C   0  0  0  0  0  0  0  0  0  0  0  0
    1.6747    7.7049   83.6569 C   0  0  0  0  0  0  0  0  0  0  0  0
    1.3748    9.7162   85.4458 N   0  0  0  0  0  0  0  0  0  0  0  0
    3.3766    9.5534   84.0008 O   0  0  0  0  0  0  0  0  0  0  0  0
    1.2297   10.1520   82.9661 O   0  0  0  0  0  0  0  0  0  0  0  0
    1.9580    9.4207   83.9885 S   0  0  0  0  0  0  0  0  0  0  0  0
    0.3594    9.6199   85.4316 H   0  0  0  0  0  0  0  0  0  0  0  0
    1.6224   10.6654   85.7252 H   0  0  0  0  0  0  0  0  0  0  0  0
   -0.2072    3.1598   82.4938 C   0  0  0  0  0  0  0  0  0  0  0  0
   -1.3122    3.4215   81.0804 S   0  0  0  0  0  0  0  0  0  0  0  0
   -0.6007    2.2521   83.4678 N   0  0  0  0  0  0  0  0  0  0  0  0
   -0.3133    1.3207   83.3296 H   0  0  0  0  0  0  0  0  0  0  0  0
   -1.1938    1.6286   85.6834 C   0  0  0  0  0  0  0  0  0  0  0  0
   -2.2521    3.5474   84.8084 C   0  0  0  0  0  0  0  0  0  0  0  0
   -1.8731    1.7826   86.8502 C   0  0  0  0  0  0  0  0  0  0  0  0
   -2.9316    3.7123   86.0029 C   0  0  0  0  0  0  0  0  0  0  0  0
   -1.3633    2.4979   84.6346 C   0  0  0  0  0  0  0  0  0  0  0  0
   -2.7578    2.8287   87.0342 C   0  0  0  0  0  0  0  0  0  0  0  0
   -3.4369    2.9681   88.2299 F   0  0  0  0  0  0  0  0  0  0  0  0
 16 15  2  0  0  0
 19 21  2  0  0  0
 19 23  1  0  0  0
 17 15  1  0  0  0
 17 23  1  0  0  0
 15  1  1  0  0  0
 21 24  1  0  0  0
 23 20  2  0  0  0
  1  7  1  0  0  0
 24 25  1  0  0  0
 24 22  2  0  0  0
  7  3  2  0  0  0
  7  4  1  0  0  0
 20 22  1  0  0  0
  3  5  1  0  0  0
  4  6  2  0  0  0
  5  8  2  0  0  0
  6  8  1  0  0  0
  8 12  1  0  0  0
  9 12  1  0  0  0
 11 12  2  0  0  0
 12 10  2  0  0  0
  9 13  1  0  0  0
  9 14  1  0  0  0
 17 18  1  0  0  0
  1  2  1  0  0  0
M  END
> <minimizedAffinity>
-6.29290

$$$$
5WEX_8JS_A_303


 25 26  0  0  0  0  0  0  0  0999 V2000
   -0.5784    6.7056   84.4222 N   0  0  0  0  0  0  0  0  0  0  0  0
   -0.3310    7.4312   85.0399 H   0  0  0  0  0  0  0  0  0  0  0  0
   -2.5169    5.4321   85.2198 C   0  0  0  0  0  0  0  0  0  0  0  0
   -0.2736    4.5518   85.2736 C   0  0  0  0  0  0  0  0  0  0  0  0
   -2.9759    4.2594   85.7935 C   0  0  0  0  0  0  0  0  0  0  0  0
   -0.7409    3.3802   85.8320 C   0  0  0  0  0  0  0  0  0  0  0  0
   -1.1655    5.5636   84.9652 C   0  0  0  0  0  0  0  0  0  0  0  0
   -2.0787    3.2181   86.0987 C   0  0  0  0  0  0  0  0  0  0  0  0
   -2.2748    1.7869   88.3897 N   0  0  0  0  0  0  0  0  0  0  0  0
   -4.1020    1.8218   86.7217 O   0  0  0  0  0  0  0  0  0  0  0  0
   -2.0235    0.6380   86.1587 O   0  0  0  0  0  0  0  0  0  0  0  0
   -2.6855    1.7329   86.8470 S   0  0  0  0  0  0  0  0  0  0  0  0
   -1.2603    1.7229   88.4739 H   0  0  0  0  0  0  0  0  0  0  0  0
   -2.7069    1.0063   88.8841 H   0  0  0  0  0  0  0  0  0  0  0  0
   -0.3265    6.8852   83.1139 C   0  0  0  0  0  0  0  0  0  0  0  0
   -1.4534    6.8842   81.6935 S   0  0  0  0  0  0  0  0  0  0  0  0
    1.0220    7.1126   82.8742 N   0  0  0  0  0  0  0  0  0  0  0  0
    1.4166    7.8875   83.3358 H   0  0  0  0  0  0  0  0  0  0  0  0
    2.1344    5.0652   82.4052 C   0  0  0  0  0  0  0  0  0  0  0  0
    2.5293    6.8470   80.9096 C   0  0  0  0  0  0  0  0  0  0  0  0
    2.9553    4.2662   81.6743 C   0  0  0  0  0  0  0  0  0  0  0  0
    3.3527    6.0275   80.1572 C   0  0  0  0  0  0  0  0  0  0  0  0
    1.9004    6.3702   82.0493 C   0  0  0  0  0  0  0  0  0  0  0  0
    3.5828    4.7315   80.5339 C   0  0  0  0  0  0  0  0  0  0  0  0
    4.4123    3.9012   79.8039 F   0  0  0  0  0  0  0  0  0  0  0  0
 16 15  2  0  0  0
 19 21  2  0  0  0
 19 23  1  0  0  0
 17 15  1  0  0  0
 17 23  1  0  0  0
 15  1  1  0  0  0
 21 24  1  0  0  0
 23 20  2  0  0  0
  1  7  1  0  0  0
 24 25  1  0  0  0
 24 22  2  0  0  0
  7  3  2  0  0  0
  7  4  1  0  0  0
 20 22  1  0  0  0
  3  5  1  0  0  0
  4  6  2  0  0  0
  5  8  2  0  0  0
  6  8  1  0  0  0
  8 12  1  0  0  0
  9 12  1  0  0  0
 11 12  2  0  0  0
 12 10  2  0  0  0
  9 13  1  0  0  0
  9 14  1  0  0  0
 17 18  1  0  0  0
  1  2  1  0  0  0
M  END
> <minimizedAffinity>
-6.29218

$$$$
5WEX_8JS_A_303


 25 26  0  0  0  0  0  0  0  0999 V2000
   -0.9454    5.9606   81.6838 N   0  0  0  0  0  0  0  0  0  0  0  0
   -1.7426    6.1363   81.1335 H   0  0  0  0  0  0  0  0  0  0  0  0
   -0.9150    3.5468   82.1180 C   0  0  0  0  0  0  0  0  0  0  0  0
   -1.1166    5.1803   83.8789 C   0  0  0  0  0  0  0  0  0  0  0  0
   -0.9910    2.5389   83.0632 C   0  0  0  0  0  0  0  0  0  0  0  0
   -1.1771    4.1703   84.8164 C   0  0  0  0  0  0  0  0  0  0  0  0
   -0.9781    4.8607   82.5399 C   0  0  0  0  0  0  0  0  0  0  0  0
   -1.1181    2.8534   84.4297 C   0  0  0  0  0  0  0  0  0  0  0  0
   -2.6281    1.7215   86.3724 N   0  0  0  0  0  0  0  0  0  0  0  0
   -1.2455    0.3544   84.8423 O   0  0  0  0  0  0  0  0  0  0  0  0
   -0.1110    1.7366   86.5278 O   0  0  0  0  0  0  0  0  0  0  0  0
   -1.2297    1.5480   85.6203 S   0  0  0  0  0  0  0  0  0  0  0  0
   -2.6117    2.5770   86.9276 H   0  0  0  0  0  0  0  0  0  0  0  0
   -2.7862    0.9215   86.9851 H   0  0  0  0  0  0  0  0  0  0  0  0
    0.0987    6.7979   81.5572 C   0  0  0  0  0  0  0  0  0  0  0  0
    1.6891    6.5677   80.7177 S   0  0  0  0  0  0  0  0  0  0  0  0
   -0.1391    8.0171   82.1774 N   0  0  0  0  0  0  0  0  0  0  0  0
   -0.9341    8.5091   81.8691 H   0  0  0  0  0  0  0  0  0  0  0  0
    1.2130    9.8388   82.8864 C   0  0  0  0  0  0  0  0  0  0  0  0
    0.7956    8.1512   84.4818 C   0  0  0  0  0  0  0  0  0  0  0  0
    1.9540   10.5215   83.7983 C   0  0  0  0  0  0  0  0  0  0  0  0
    1.5375    8.8552   85.4144 C   0  0  0  0  0  0  0  0  0  0  0  0
    0.6182    8.6412   83.1973 C   0  0  0  0  0  0  0  0  0  0  0  0
    2.1324   10.0429   85.0828 C   0  0  0  0  0  0  0  0  0  0  0  0
    2.8882   10.7543   85.9954 F   0  0  0  0  0  0  0  0  0  0  0  0
 16 15  2  0  0  0
 19 21  2  0  0  0
 19 23  1  0  0  0
 17 15  1  0  0  0
 17 23  1  0  0  0
 15  1  1  0  0  0
 21 24  1  0  0  0
 23 20  2  0  0  0
  1  7  1  0  0  0
 24 25  1  0  0  0
 24 22  2  0  0  0
  7  3  2  0  0  0
  7  4  1  0  0  0
 20 22  1  0  0  0
  3  5  1  0  0  0
  4  6  2  0  0  0
  5  8  2  0  0  0
  6  8  1  0  0  0
  8 12  1  0  0  0
  9 12  1  0  0  0
 11 12  2  0  0  0
 12 10  2  0  0  0
  9 13  1  0  0  0
  9 14  1  0  0  0
 17 18  1  0  0  0
  1  2  1  0  0  0
M  END
> <minimizedAffinity>
-6.20191

$$$$
5WEX_8JS_A_303


 25 26  0  0  0  0  0  0  0  0999 V2000
   -0.0626    5.0456   82.5884 N   0  0  0  0  0  0  0  0  0  0  0  0
   -0.6562    5.8309   82.5747 H   0  0  0  0  0  0  0  0  0  0  0  0
    2.0236    6.3336   82.6590 C   0  0  0  0  0  0  0  0  0  0  0  0
    1.8214    4.2543   81.4566 C   0  0  0  0  0  0  0  0  0  0  0  0
    3.3390    6.4316   82.2406 C   0  0  0  0  0  0  0  0  0  0  0  0
    3.1377    4.3519   81.0556 C   0  0  0  0  0  0  0  0  0  0  0  0
    1.2784    5.2407   82.2605 C   0  0  0  0  0  0  0  0  0  0  0  0
    3.9055    5.4265   81.4336 C   0  0  0  0  0  0  0  0  0  0  0  0
    5.9366    7.1383   80.9049 N   0  0  0  0  0  0  0  0  0  0  0  0
    6.3443    4.9094   81.8988 O   0  0  0  0  0  0  0  0  0  0  0  0
    5.6278    5.0329   79.5515 O   0  0  0  0  0  0  0  0  0  0  0  0
    5.5854    5.5801   80.8966 S   0  0  0  0  0  0  0  0  0  0  0  0
    5.3910    7.6137   80.1861 H   0  0  0  0  0  0  0  0  0  0  0  0
    6.9310    7.2638   80.7155 H   0  0  0  0  0  0  0  0  0  0  0  0
   -0.6016    3.8601   82.9219 C   0  0  0  0  0  0  0  0  0  0  0  0
   -1.5439    2.6789   81.9198 S   0  0  0  0  0  0  0  0  0  0  0  0
   -0.3582    3.5375   84.2501 N   0  0  0  0  0  0  0  0  0  0  0  0
    0.5743    3.6304   84.5518 H   0  0  0  0  0  0  0  0  0  0  0  0
   -2.3253    3.9331   85.5243 C   0  0  0  0  0  0  0  0  0  0  0  0
   -1.2288    1.8757   85.8879 C   0  0  0  0  0  0  0  0  0  0  0  0
   -3.2706    3.5943   86.4398 C   0  0  0  0  0  0  0  0  0  0  0  0
   -2.2009    1.5251   86.8087 C   0  0  0  0  0  0  0  0  0  0  0  0
   -1.2826    3.0919   85.2248 C   0  0  0  0  0  0  0  0  0  0  0  0
   -3.2276    2.3819   87.1024 C   0  0  0  0  0  0  0  0  0  0  0  0
   -4.2006    2.0562   88.0285 F   0  0  0  0  0  0  0  0  0  0  0  0
 16 15  2  0  0  0
 19 21  2  0  0  0
 19 23  1  0  0  0
 17 15  1  0  0  0
 17 23  1  0  0  0
 15  1  1  0  0  0
 21 24  1  0  0  0
 23 20  2  0  0  0
  1  7  1  0  0  0
 24 25  1  0  0  0
 24 22  2  0  0  0
  7  3  2  0  0  0
  7  4  1  0  0  0
 20 22  1  0  0  0
  3  5  1  0  0  0
  4  6  2  0  0  0
  5  8  2  0  0  0
  6  8  1  0  0  0
  8 12  1  0  0  0
  9 12  1  0  0  0
 11 12  2  0  0  0
 12 10  2  0  0  0
  9 13  1  0  0  0
  9 14  1  0  0  0
 17 18  1  0  0  0
  1  2  1  0  0  0
M  END
> <minimizedAffinity>
-6.09313

$$$$
5WEX_8JS_A_303


 25 26  0  0  0  0  0  0  0  0999 V2000
   -1.0405    4.9572   80.8994 N   0  0  0  0  0  0  0  0  0  0  0  0
   -1.9016    5.1971   80.4868 H   0  0  0  0  0  0  0  0  0  0  0  0
   -1.2597    2.7368   81.9182 C   0  0  0  0  0  0  0  0  0  0  0  0
   -0.9104    4.7345   83.2211 C   0  0  0  0  0  0  0  0  0  0  0  0
   -1.2974    1.9976   83.0875 C   0  0  0  0  0  0  0  0  0  0  0  0
   -0.9347    3.9887   84.3812 C   0  0  0  0  0  0  0  0  0  0  0  0
   -1.0649    4.1020   82.0003 C   0  0  0  0  0  0  0  0  0  0  0  0
   -1.1276    2.6293   84.3342 C   0  0  0  0  0  0  0  0  0  0  0  0
   -2.5521    2.0570   86.5655 N   0  0  0  0  0  0  0  0  0  0  0  0
   -1.2650    0.3170   85.3666 O   0  0  0  0  0  0  0  0  0  0  0  0
   -0.0304    2.0487   86.5975 O   0  0  0  0  0  0  0  0  0  0  0  0
   -1.1955    1.6665   85.8183 S   0  0  0  0  0  0  0  0  0  0  0  0
   -2.4972    3.0236   86.8868 H   0  0  0  0  0  0  0  0  0  0  0  0
   -2.6891    1.4399   87.3660 H   0  0  0  0  0  0  0  0  0  0  0  0
    0.0767    5.4769   80.3619 C   0  0  0  0  0  0  0  0  0  0  0  0
    0.5412    7.2050   80.0696 S   0  0  0  0  0  0  0  0  0  0  0  0
    0.9845    4.4898   80.0028 N   0  0  0  0  0  0  0  0  0  0  0  0
    0.5963    3.6320   79.7151 H   0  0  0  0  0  0  0  0  0  0  0  0
    3.0161    4.5850   78.7728 C   0  0  0  0  0  0  0  0  0  0  0  0
    3.2038    4.6251   81.1245 C   0  0  0  0  0  0  0  0  0  0  0  0
    4.3682    4.6618   78.6608 C   0  0  0  0  0  0  0  0  0  0  0  0
    4.5799    4.7191   81.0090 C   0  0  0  0  0  0  0  0  0  0  0  0
    2.3980    4.5620   79.9983 C   0  0  0  0  0  0  0  0  0  0  0  0
    5.1793    4.7298   79.7781 C   0  0  0  0  0  0  0  0  0  0  0  0
    6.5524    4.8094   79.6416 F   0  0  0  0  0  0  0  0  0  0  0  0
 16 15  2  0  0  0
 19 21  2  0  0  0
 19 23  1  0  0  0
 17 15  1  0  0  0
 17 23  1  0  0  0
 15  1  1  0  0  0
 21 24  1  0  0  0
 23 20  2  0  0  0
  1  7  1  0  0  0
 24 25  1  0  0  0
 24 22  2  0  0  0
  7  3  2  0  0  0
  7  4  1  0  0  0
 20 22  1  0  0  0
  3  5  1  0  0  0
  4  6  2  0  0  0
  5  8  2  0  0  0
  6  8  1  0  0  0
  8 12  1  0  0  0
  9 12  1  0  0  0
 11 12  2  0  0  0
 12 10  2  0  0  0
  9 13  1  0  0  0
  9 14  1  0  0  0
 17 18  1  0  0  0
  1  2  1  0  0  0
M  END
> <minimizedAffinity>
-6.05647

$$$$
