5WEX_8JS_A_303
  RCSB PDB12061720083D
Coordinates from PDB:5WEX:A:303 Model:1 without hydrogens
 21 22  0  0  0  0            999 V2000
    1.6950    9.4390   82.6240   C 0  0  0  0  0  0  0  0  0  0  0  0
    0.9620    8.5830   84.6970   C 0  0  0  0  0  0  0  0  0  0  0  0
   -2.3480    5.0820   84.9110   C 0  0  0  0  0  0  0  0  0  0  0  0
   -0.1750    4.0400   84.9620   C 0  0  0  0  0  0  0  0  0  0  0  0
    2.6530   10.1640   83.2590   C 0  0  0  0  0  0  0  0  0  0  0  0
    1.9280    9.3340   85.3440   C 0  0  0  0  0  0  0  0  0  0  0  0
   -2.8580    4.0220   85.6400   C 0  0  0  0  0  0  0  0  0  0  0  0
   -0.6940    2.9800   85.6760   C 0  0  0  0  0  0  0  0  0  0  0  0
    0.8290    8.6310   83.3180   C 0  0  0  0  0  0  0  0  0  0  0  0
   -1.0070    5.0770   84.5790   C 0  0  0  0  0  0  0  0  0  0  0  0
    2.7900   10.1260   84.6340   C 0  0  0  0  0  0  0  0  0  0  0  0
   -2.0230    2.9550   86.0230   C 0  0  0  0  0  0  0  0  0  0  0  0
   -0.9720    6.8990   82.9800   C 0  0  0  0  0  0  0  0  0  0  0  0
   -2.1590    0.2650   86.3070   N 0  0  0  0  0  0  0  0  0  0  0  0
   -0.1370    7.9260   82.5610   N 0  0  0  0  0  0  0  0  0  0  0  0
   -0.3700    6.1000   83.8780   N 0  0  0  0  0  0  0  0  0  0  0  0
   -2.1250    1.7760   88.2660   O 0  0  0  0  0  0  0  0  0  0  0  0
   -4.1370    1.7300   86.8560   O 0  0  0  0  0  0  0  0  0  0  0  0
    3.7700   10.8730   85.2600   F 0  0  0  0  0  0  0  0  0  0  0  0
   -2.6460    6.8290   82.2870   S 0  0  0  0  0  0  0  0  0  0  0  0
   -2.6930    1.6170   86.9690   S 0  0  0  0  0  0  0  0  0  0  0  0
 20 13  2  0  0  0  0
  1  5  2  0  0  0  0
  1  9  1  0  0  0  0
 15 13  1  0  0  0  0
 15  9  1  0  0  0  0
 13 16  1  0  0  0  0
  5 11  1  0  0  0  0
  9  2  2  0  0  0  0
 16 10  1  0  0  0  0
 11 19  1  0  0  0  0
 11  6  2  0  0  0  0
 10  3  2  0  0  0  0
 10  4  1  0  0  0  0
  2  6  1  0  0  0  0
  3  7  1  0  0  0  0
  4  8  2  0  0  0  0
  7 12  2  0  0  0  0
  8 12  1  0  0  0  0
 12 21  1  0  0  0  0
 14 21  1  0  0  0  0
 18 21  2  0  0  0  0
 21 17  2  0  0  0  0
A    1
C16
A    2
C21
A    3
C5
A    4
C13
A    5
C17
A    6
C20
A    7
C6
A    8
C12
A    9
C15
A   10
C4
A   11
C18
A   12
C7
A   13
C2
A   14
N10
A   15
N14
A   16
N3
A   17
O9
A   18
O11
A   19
F19
A   20
S1
A   21
S8
M  END
>  <InstanceId>
5WEX_8JS_A_303

>  <ChemCompId>
8JS

>  <PdbId>
5WEX

>  <ChainId>
A

>  <ResidueNumber>
303

>  <InsertionCode>


>  <Model>
1

>  <AltIds>


>  <MissingHeavyAtoms>
0

>  <ObservedFormula>
C13 N3 O2 S2 F

>  <Name>
4-{[(4-fluorophenyl)carbamothioyl]amino}benzene-1-sulfonamide

>  <SystematicName>
1-(4-fluorophenyl)-3-(4-sulfamoylphenyl)thiourea

>  <Synonyms>


>  <Type>
NON-POLYMER

>  <Formula>
C13 H12 F N3 O2 S2

>  <MolecularWeight>
325.382

>  <ModifiedDate>
2017-10-06

>  <Parent>


>  <OneLetterCode>


>  <SubcomponentList>


>  <AmbiguousFlag>
N

>  <InChI>
InChI=1S/C13H12FN3O2S2/c14-9-1-3-10(4-2-9)16-13(20)17-11-5-7-12(8-6-11)21(15,18)19/h1-8H,(H2,15,18,19)(H2,16,17,20)

>  <InChIKey>
VUDOFEJVAFMLEC-UHFFFAOYSA-N

>  <SMILES>
c1cc(ccc1NC(=S)Nc2ccc(cc2)S(=O)(=O)N)F

$$$$
