1QBQ_HFP_B_2001
  RCSB PDB12061703453D
Coordinates from PDB:1QBQ:B:2001 Model:1 without hydrogens
 20 19  0  0  0  0            999 V2000
  197.7660  126.0930   32.6320   P 0  0  0  0  0  0  0  0  0  0  0  0
  198.9400  126.9520   32.6260   O 0  0  0  0  0  0  0  0  0  0  0  0
  198.0850  124.6460   33.1350   O 0  0  0  0  0  0  0  0  0  0  0  0
  196.6260  126.6790   33.4890   O 0  0  0  0  0  0  0  0  0  0  0  0
  197.1530  125.9630   30.9050   C 0  0  0  0  0  0  0  0  0  0  0  0
  197.3570  127.2210   30.2330   O 0  0  0  0  0  0  0  0  0  0  0  0
  195.6740  125.6470   30.9190   C 0  0  0  0  0  0  0  0  0  0  0  0
  195.1050  124.7900   30.0580   C 0  0  0  0  0  0  0  0  0  0  0  0
  195.9350  124.0970   29.0060   C 0  0  0  0  0  0  0  0  0  0  0  0
  193.6120  124.5120   30.1220   C 0  0  0  0  0  0  0  0  0  0  0  0
  193.1310  124.2850   31.5860   C 0  0  0  0  0  0  0  0  0  0  0  0
  191.9070  123.3810   31.6060   C 0  0  0  0  0  0  0  0  0  0  0  0
  191.0900  123.3030   32.6730   C 0  0  0  0  0  0  0  0  0  0  0  0
  191.3850  124.1140   33.9120   C 0  0  0  0  0  0  0  0  0  0  0  0
  189.8710  122.3880   32.6710   C 0  0  0  0  0  0  0  0  0  0  0  0
  188.7720  122.9300   31.7860   C 0  0  0  0  0  0  0  0  0  0  0  0
  187.5110  122.0950   31.9720   C 0  0  0  0  0  0  0  0  0  0  0  0
  186.3380  122.3820   31.3550   C 0  0  0  0  0  0  0  0  0  0  0  0
  186.2070  123.5610   30.4170   C 0  0  0  0  0  0  0  0  0  0  0  0
  185.1120  121.5150   31.5740   C 0  0  0  0  0  0  0  0  0  0  0  0
  1  2  2  0  0  0  0
  1  3  1  0  0  0  0
  1  4  1  0  0  0  0
  1  5  1  0  0  0  0
  5  6  1  0  0  0  0
  5  7  1  0  0  0  0
  7  8  1  0  0  0  0
  8  9  1  0  0  0  0
  8 10  1  0  0  0  0
 10 11  1  0  0  0  0
 11 12  1  0  0  0  0
 12 13  1  0  0  0  0
 13 14  1  0  0  0  0
 13 15  1  0  0  0  0
 15 16  1  0  0  0  0
 16 17  1  0  0  0  0
 17 18  1  0  0  0  0
 18 19  1  0  0  0  0
 18 20  1  0  0  0  0
A    1
P
A    2
O1P
A    3
O2P
A    4
O3P
A    5
C1
A    6
O1
A    7
C2
A    8
C3
A    9
C4
A   10
C5
A   11
C6
A   12
C7
A   13
C8
A   14
C9
A   15
C10
A   16
C11
A   17
C12
A   18
C13
A   19
C14
A   20
C15
M  END
>  <InstanceId>
1QBQ_HFP_B_2001

>  <ChemCompId>
HFP

>  <PdbId>
1QBQ

>  <ChainId>
B

>  <ResidueNumber>
2001

>  <InsertionCode>


>  <Model>
1

>  <AltIds>


>  <MissingHeavyAtoms>
0

>  <ObservedFormula>
C15 O4 P

>  <Name>
ALPHA-HYDROXYFARNESYLPHOSPHONIC ACID

>  <SystematicName>
[(1S)-1-hydroxy-3,7,11-trimethyl-dodecyl]phosphonic acid

>  <Synonyms>


>  <Type>
NON-POLYMER

>  <Formula>
C15 H33 O4 P

>  <MolecularWeight>
308.394

>  <ModifiedDate>
2011-06-04

>  <Parent>


>  <OneLetterCode>


>  <SubcomponentList>


>  <AmbiguousFlag>
N

>  <InChI>
InChI=1S/C15H33O4P/c1-12(2)7-5-8-13(3)9-6-10-14(4)11-15(16)20(17,18)19/h12-16H,5-11H2,1-4H3,(H2,17,18,19)/t13-,14-,15+/m1/s1

>  <InChIKey>
IJNCEETVCWDDQB-KFWWJZLASA-N

>  <SMILES>
CC(C)CCCC(C)CCCC(C)C[C@@H](O)P(=O)(O)O

$$$$
