2AVM_2NC_B_300


 70 69  0  0  0  0  0  0  0  0999 V2000
   14.3744   22.7424   16.7776 C   0  0  0  0  0  0  0  0  0  0  0  0
   14.3260   21.3505   17.3977 C   0  0  0  0  0  0  0  0  0  0  0  0
   15.3233   20.6104   17.4760 O   0  0  0  0  0  0  0  0  0  0  0  0
   13.1600   20.9191   17.8078 N   0  0  0  0  0  0  0  0  0  0  0  0
   12.3824   21.5193   17.7418 H   0  0  0  0  0  0  0  0  0  0  0  0
   12.9686   19.5681   18.3646 C   0  0  0  0  0  0  0  0  0  0  0  0
   11.5807   19.0916   17.9898 C   0  0  0  0  0  0  0  0  0  0  0  0
   10.5830   19.7411   18.3009 O   0  0  0  0  0  0  0  0  0  0  0  0
   11.5071   17.9113   17.4339 N   0  0  0  0  0  0  0  0  0  0  0  0
   12.3475   17.4237   17.2755 H   0  0  0  0  0  0  0  0  0  0  0  0
   10.2693   17.2744   17.0360 C   0  0  0  0  0  0  0  0  0  0  0  0
   10.1187   15.9428   17.7618 C   0  0  0  0  0  0  0  0  0  0  0  0
   10.2525   15.8779   18.9908 O   0  0  0  0  0  0  0  0  0  0  0  0
    9.9029   14.8602   17.0099 N   0  0  0  0  0  0  0  0  0  0  0  0
    9.8013   14.9504   16.0348 H   0  0  0  0  0  0  0  0  0  0  0  0
    9.8454   13.9720   17.4307 H   0  0  0  0  0  0  0  0  0  0  0  0
   10.2447   17.0883   15.5290 C   0  0  0  0  0  0  0  0  0  0  0  0
   11.2920   17.8940   14.7659 C   0  0  0  0  0  0  0  0  0  0  0  0
   10.7091   18.8961   13.7884 C   0  0  0  0  0  0  0  0  0  0  0  0
    9.6139   19.6721   14.3697 N   0  0  0  0  0  0  0  0  0  0  0  0
    8.8173   19.1362   14.5876 H   0  0  0  0  0  0  0  0  0  0  0  0
    9.4921   20.9368   14.6539 C   0  0  0  0  0  0  0  0  0  0  0  0
   10.2350   21.4017   15.6387 N   0  0  0  0  0  0  0  0  0  0  0  0
    8.6718   21.7546   13.9994 N   0  0  0  0  0  0  0  0  0  0  0  0
   10.8427   20.7981   16.1241 H   0  0  0  0  0  0  0  0  0  0  0  0
   10.1822   22.3524   15.8887 H   0  0  0  0  0  0  0  0  0  0  0  0
    8.1162   21.4093   13.2637 H   0  0  0  0  0  0  0  0  0  0  0  0
    8.6204   22.7050   14.2509 H   0  0  0  0  0  0  0  0  0  0  0  0
   13.2558   19.5533   19.8477 C   0  0  0  0  0  0  0  0  0  0  0  0
   13.2660   18.1751   20.4644 C   0  0  0  0  0  0  0  0  0  0  0  0
   11.9862   17.8125   21.1954 C   0  0  0  0  0  0  0  0  0  0  0  0
   11.1506   18.6660   21.3967 O   0  0  0  0  0  0  0  0  0  0  0  0
   11.8412   16.5737   21.5910 N   0  0  0  0  0  0  0  0  0  0  0  0
   12.5464   15.9121   21.4059 H   0  0  0  0  0  0  0  0  0  0  0  0
   11.0270   16.3032   22.0738 H   0  0  0  0  0  0  0  0  0  0  0  0
   15.6199   23.4696   17.1552 N   0  0  0  0  0  0  0  0  0  0  0  0
   15.5529   24.3998   16.7421 H   0  0  0  0  0  0  0  0  0  0  0  0
   15.9540   23.6527   18.5152 C   0  0  0  0  0  0  0  0  0  0  0  0
   17.4217   23.7660   18.8646 C   0  0  0  0  0  0  0  0  0  0  0  0
   18.9601   24.6255   17.1774 C   0  0  0  0  0  0  0  0  0  0  0  0
   19.2530   23.5002   16.7825 O   0  0  0  0  0  0  0  0  0  0  0  0
   18.0705   24.8337   18.1117 N   0  0  0  0  0  0  0  0  0  0  0  0
   17.8241   25.7640   18.3192 H   0  0  0  0  0  0  0  0  0  0  0  0
   19.7056   25.8318   16.6342 C   0  0  0  0  0  0  0  0  0  0  0  0
   21.6974   26.6844   17.7929 C   0  0  0  0  0  0  0  0  0  0  0  0
   21.0792   27.6668   18.2348 O   0  0  0  0  0  0  0  0  0  0  0  0
   21.0949   25.7548   17.0639 N   0  0  0  0  0  0  0  0  0  0  0  0
   21.6184   24.9649   16.7971 H   0  0  0  0  0  0  0  0  0  0  0  0
   23.1952   26.5308   18.1380 C   0  0  0  0  0  0  0  0  0  0  0  0
   23.3270   24.8743   19.9222 C   0  0  0  0  0  0  0  0  0  0  0  0
   22.8379   25.6542   20.7274 O   0  0  0  0  0  0  0  0  0  0  0  0
   23.8213   23.5116   20.3268 C   0  0  0  0  0  0  0  0  0  0  0  0
   23.5230   25.2186   18.6551 N   0  0  0  0  0  0  0  0  0  0  0  0
   23.9080   24.5529   18.0404 H   0  0  0  0  0  0  0  0  0  0  0  0
   23.9964   26.8783   16.8692 C   0  0  0  0  0  0  0  0  0  0  0  0
   23.9419   25.7587   16.0025 O   0  0  0  0  0  0  0  0  0  0  0  0
   25.4513   27.1944   17.2841 C   0  0  0  0  0  0  0  0  0  0  0  0
   24.3055   24.9816   16.4549 H   0  0  0  0  0  0  0  0  0  0  0  0
   19.5546   25.9694   15.1147 C   0  0  0  0  0  0  0  0  0  0  0  0
   18.1495   25.6210   14.6920 C   0  0  0  0  0  0  0  0  0  0  0  0
   19.9763   27.3326   14.5744 C   0  0  0  0  0  0  0  0  0  0  0  0
   21.2792   27.3792   13.8241 C   0  0  0  0  0  0  0  0  0  0  0  0
   17.6866   23.9298   20.3631 C   0  0  0  0  0  0  0  0  0  0  0  0
   19.1170   23.9414   20.7659 C   0  0  0  0  0  0  0  0  0  0  0  0
   19.4956   22.9763   21.8705 C   0  0  0  0  0  0  0  0  0  0  0  0
   20.2188   21.7408   21.3720 C   0  0  0  0  0  0  0  0  0  0  0  0
   14.0797   22.7227   15.3034 C   0  0  0  0  0  0  0  0  0  0  0  0
   15.3245   22.2175   14.5889 C   0  0  0  0  0  0  0  0  0  0  0  0
   14.7802   21.4754   13.3797 C   0  0  0  0  0  0  0  0  0  0  0  0
   13.9834   20.2754   13.8833 C   0  0  0  0  0  0  0  0  0  0  0  0
 50 51  2  0  0  0
 50 52  1  0  0  0
 53 49  1  0  0  0
 49 45  1  0  0  0
 49 55  1  0  0  0
 45 46  2  0  0  0
 55 56  1  0  0  0
 55 57  1  0  0  0
 47 44  1  0  0  0
 44 40  1  0  0  0
 44 59  1  0  0  0
 40 41  2  0  0  0
 59 61  1  0  0  0
 59 60  1  0  0  0
 61 62  1  0  0  0
 42 39  1  0  0  0
 39 38  1  0  0  0
 39 63  1  0  0  0
 63 64  1  0  0  0
 64 65  1  0  0  0
 65 66  1  0  0  0
 36  1  1  0  0  0
  1  2  1  0  0  0
  1 67  1  0  0  0
  2  3  2  0  0  0
 67 68  1  0  0  0
 68 69  1  0  0  0
 69 70  1  0  0  0
  4  6  1  0  0  0
  6  7  1  0  0  0
  6 29  1  0  0  0
  7  8  2  0  0  0
 29 30  1  0  0  0
 30 31  1  0  0  0
 31 32  2  0  0  0
 31 33  1  0  0  0
  9 11  1  0  0  0
 11 12  1  0  0  0
 11 17  1  0  0  0
 12 13  2  0  0  0
 17 18  1  0  0  0
 18 19  1  0  0  0
 19 20  1  0  0  0
 20 22  1  0  0  0
 22 23  1  0  0  0
 22 24  2  0  0  0
 50 53  1  0  0  0
 45 47  1  0  0  0
 40 42  1  0  0  0
 38 36  1  0  0  0
  2  4  1  0  0  0
  7  9  1  0  0  0
 12 14  1  0  0  0
 53 54  1  0  0  0
 56 58  1  0  0  0
 47 48  1  0  0  0
 42 43  1  0  0  0
 36 37  1  0  0  0
  4  5  1  0  0  0
 33 34  1  0  0  0
 33 35  1  0  0  0
  9 10  1  0  0  0
 20 21  1  0  0  0
 23 25  1  0  0  0
 23 26  1  0  0  0
 24 27  1  0  0  0
 24 28  1  0  0  0
 14 15  1  0  0  0
 14 16  1  0  0  0
M  CHG 1  24   1
M  END
> <minimizedAffinity>
-8.90762

$$$$
2AVM_2NC_B_300


 70 69  0  0  0  0  0  0  0  0999 V2000
   15.3866   21.8587   16.6628 C   0  0  0  0  0  0  0  0  0  0  0  0
   16.8430   22.2332   16.4124 C   0  0  0  0  0  0  0  0  0  0  0  0
   17.7925   21.4794   16.6927 O   0  0  0  0  0  0  0  0  0  0  0  0
   17.0788   23.4277   15.9313 N   0  0  0  0  0  0  0  0  0  0  0  0
   16.3156   24.0094   15.7116 H   0  0  0  0  0  0  0  0  0  0  0  0
   18.4447   23.9335   15.7066 C   0  0  0  0  0  0  0  0  0  0  0  0
   18.8318   24.7982   16.8883 C   0  0  0  0  0  0  0  0  0  0  0  0
   18.0240   25.5756   17.3953 O   0  0  0  0  0  0  0  0  0  0  0  0
   20.0874   24.7541   17.2479 N   0  0  0  0  0  0  0  0  0  0  0  0
   20.6881   24.1535   16.7502 H   0  0  0  0  0  0  0  0  0  0  0  0
   20.6519   25.5314   18.3310 C   0  0  0  0  0  0  0  0  0  0  0  0
   21.8493   26.3267   17.8245 C   0  0  0  0  0  0  0  0  0  0  0  0
   23.0022   25.9771   18.1092 O   0  0  0  0  0  0  0  0  0  0  0  0
   21.5924   27.4354   17.1253 N   0  0  0  0  0  0  0  0  0  0  0  0
   20.6622   27.6819   16.9175 H   0  0  0  0  0  0  0  0  0  0  0  0
   22.3333   28.0061   16.8176 H   0  0  0  0  0  0  0  0  0  0  0  0
   21.0421   24.6144   19.4768 C   0  0  0  0  0  0  0  0  0  0  0  0
   20.5293   25.0464   20.8475 C   0  0  0  0  0  0  0  0  0  0  0  0
   19.5423   24.0788   21.4711 C   0  0  0  0  0  0  0  0  0  0  0  0
   18.1788   24.2765   20.9794 N   0  0  0  0  0  0  0  0  0  0  0  0
   17.7084   25.0313   21.4016 H   0  0  0  0  0  0  0  0  0  0  0  0
   17.4692   23.6443   20.0897 C   0  0  0  0  0  0  0  0  0  0  0  0
   16.4985   24.3215   19.5091 N   0  0  0  0  0  0  0  0  0  0  0  0
   17.6872   22.3763   19.7513 N   0  0  0  0  0  0  0  0  0  0  0  0
   16.3357   25.2599   19.7583 H   0  0  0  0  0  0  0  0  0  0  0  0
   15.9365   23.8888   18.8264 H   0  0  0  0  0  0  0  0  0  0  0  0
   18.4116   21.8689   20.1837 H   0  0  0  0  0  0  0  0  0  0  0  0
   17.1241   21.9454   19.0683 H   0  0  0  0  0  0  0  0  0  0  0  0
   18.5478   24.6231   14.3665 C   0  0  0  0  0  0  0  0  0  0  0  0
   18.4987   26.1305   14.4384 C   0  0  0  0  0  0  0  0  0  0  0  0
   19.8505   26.8037   14.2861 C   0  0  0  0  0  0  0  0  0  0  0  0
   20.8595   26.1350   14.3298 O   0  0  0  0  0  0  0  0  0  0  0  0
   19.8689   28.1014   14.1192 N   0  0  0  0  0  0  0  0  0  0  0  0
   19.0240   28.6059   14.0897 H   0  0  0  0  0  0  0  0  0  0  0  0
   20.7276   28.5732   14.0232 H   0  0  0  0  0  0  0  0  0  0  0  0
   15.1111   21.6624   18.1149 N   0  0  0  0  0  0  0  0  0  0  0  0
   15.5639   22.4334   18.6059 H   0  0  0  0  0  0  0  0  0  0  0  0
   13.7812   21.6060   18.5868 C   0  0  0  0  0  0  0  0  0  0  0  0
   13.1749   20.2369   18.8043 C   0  0  0  0  0  0  0  0  0  0  0  0
   11.3706   19.3248   17.4390 C   0  0  0  0  0  0  0  0  0  0  0  0
   10.5339   19.4948   18.3217 O   0  0  0  0  0  0  0  0  0  0  0  0
   12.6165   19.6963   17.5701 N   0  0  0  0  0  0  0  0  0  0  0  0
   13.2122   19.6063   16.7914 H   0  0  0  0  0  0  0  0  0  0  0  0
   10.9872   18.5823   16.1711 C   0  0  0  0  0  0  0  0  0  0  0  0
   10.0124   16.3656   16.5869 C   0  0  0  0  0  0  0  0  0  0  0  0
   11.1222   15.8119   16.5206 O   0  0  0  0  0  0  0  0  0  0  0  0
    9.8843   17.6806   16.4731 N   0  0  0  0  0  0  0  0  0  0  0  0
    8.9894   18.0709   16.6005 H   0  0  0  0  0  0  0  0  0  0  0  0
    8.7616   15.4971   16.8462 C   0  0  0  0  0  0  0  0  0  0  0  0
    8.0620   14.2991   14.8412 C   0  0  0  0  0  0  0  0  0  0  0  0
    7.4860   15.2885   14.4110 O   0  0  0  0  0  0  0  0  0  0  0  0
    8.0060   12.9707   14.1361 C   0  0  0  0  0  0  0  0  0  0  0  0
    8.7061   14.3220   16.0018 N   0  0  0  0  0  0  0  0  0  0  0  0
    9.1660   13.5047   16.3014 H   0  0  0  0  0  0  0  0  0  0  0  0
    8.7515   15.1433   18.3453 C   0  0  0  0  0  0  0  0  0  0  0  0
    9.5455   16.1020   19.0219 O   0  0  0  0  0  0  0  0  0  0  0  0
    9.3293   13.7196   18.5128 C   0  0  0  0  0  0  0  0  0  0  0  0
   10.4443   16.0929   18.6572 H   0  0  0  0  0  0  0  0  0  0  0  0
   10.6808   19.5372   15.0114 C   0  0  0  0  0  0  0  0  0  0  0  0
   10.5878   18.7754   13.7132 C   0  0  0  0  0  0  0  0  0  0  0  0
    9.4462   20.4048   15.2371 C   0  0  0  0  0  0  0  0  0  0  0  0
    9.0567   21.3184   14.1073 C   0  0  0  0  0  0  0  0  0  0  0  0
   14.1373   19.2321   19.4423 C   0  0  0  0  0  0  0  0  0  0  0  0
   13.5199   17.9724   19.9326 C   0  0  0  0  0  0  0  0  0  0  0  0
   12.4665   18.1336   21.0093 C   0  0  0  0  0  0  0  0  0  0  0  0
   11.9676   16.8161   21.5687 C   0  0  0  0  0  0  0  0  0  0  0  0
   14.4295   22.7810   15.9600 C   0  0  0  0  0  0  0  0  0  0  0  0
   13.6032   21.9433   14.9952 C   0  0  0  0  0  0  0  0  0  0  0  0
   14.6153   21.4496   13.9751 C   0  0  0  0  0  0  0  0  0  0  0  0
   13.9949   20.2724   13.2283 C   0  0  0  0  0  0  0  0  0  0  0  0
 50 51  2  0  0  0
 50 52  1  0  0  0
 53 49  1  0  0  0
 49 45  1  0  0  0
 49 55  1  0  0  0
 45 46  2  0  0  0
 55 56  1  0  0  0
 55 57  1  0  0  0
 47 44  1  0  0  0
 44 40  1  0  0  0
 44 59  1  0  0  0
 40 41  2  0  0  0
 59 61  1  0  0  0
 59 60  1  0  0  0
 61 62  1  0  0  0
 42 39  1  0  0  0
 39 38  1  0  0  0
 39 63  1  0  0  0
 63 64  1  0  0  0
 64 65  1  0  0  0
 65 66  1  0  0  0
 36  1  1  0  0  0
  1  2  1  0  0  0
  1 67  1  0  0  0
  2  3  2  0  0  0
 67 68  1  0  0  0
 68 69  1  0  0  0
 69 70  1  0  0  0
  4  6  1  0  0  0
  6  7  1  0  0  0
  6 29  1  0  0  0
  7  8  2  0  0  0
 29 30  1  0  0  0
 30 31  1  0  0  0
 31 32  2  0  0  0
 31 33  1  0  0  0
  9 11  1  0  0  0
 11 12  1  0  0  0
 11 17  1  0  0  0
 12 13  2  0  0  0
 17 18  1  0  0  0
 18 19  1  0  0  0
 19 20  1  0  0  0
 20 22  1  0  0  0
 22 23  1  0  0  0
 22 24  2  0  0  0
 50 53  1  0  0  0
 45 47  1  0  0  0
 40 42  1  0  0  0
 38 36  1  0  0  0
  2  4  1  0  0  0
  7  9  1  0  0  0
 12 14  1  0  0  0
 53 54  1  0  0  0
 56 58  1  0  0  0
 47 48  1  0  0  0
 42 43  1  0  0  0
 36 37  1  0  0  0
  4  5  1  0  0  0
 33 34  1  0  0  0
 33 35  1  0  0  0
  9 10  1  0  0  0
 20 21  1  0  0  0
 23 25  1  0  0  0
 23 26  1  0  0  0
 24 27  1  0  0  0
 24 28  1  0  0  0
 14 15  1  0  0  0
 14 16  1  0  0  0
M  CHG 1  24   1
M  END
> <minimizedAffinity>
-8.72875

$$$$
2AVM_2NC_B_300


 70 69  0  0  0  0  0  0  0  0999 V2000
   19.4485   24.3124   16.8669 C   0  0  0  0  0  0  0  0  0  0  0  0
   20.2635   25.0424   17.9286 C   0  0  0  0  0  0  0  0  0  0  0  0
   20.4476   26.2729   17.9117 O   0  0  0  0  0  0  0  0  0  0  0  0
   20.8282   24.3111   18.8560 N   0  0  0  0  0  0  0  0  0  0  0  0
   20.6687   23.3396   18.8564 H   0  0  0  0  0  0  0  0  0  0  0  0
   21.6940   24.8888   19.8995 C   0  0  0  0  0  0  0  0  0  0  0  0
   22.9414   24.0366   20.0077 C   0  0  0  0  0  0  0  0  0  0  0  0
   22.8801   22.8108   19.9201 O   0  0  0  0  0  0  0  0  0  0  0  0
   24.0445   24.6662   20.3150 N   0  0  0  0  0  0  0  0  0  0  0  0
   24.0001   25.6426   20.4324 H   0  0  0  0  0  0  0  0  0  0  0  0
   25.3279   24.0203   20.4938 C   0  0  0  0  0  0  0  0  0  0  0  0
   25.8279   24.2528   21.9146 C   0  0  0  0  0  0  0  0  0  0  0  0
   26.2830   23.3150   22.5824 O   0  0  0  0  0  0  0  0  0  0  0  0
   25.6922   25.4841   22.4143 N   0  0  0  0  0  0  0  0  0  0  0  0
   25.3262   26.2055   21.8531 H   0  0  0  0  0  0  0  0  0  0  0  0
   25.9582   25.6702   23.3437 H   0  0  0  0  0  0  0  0  0  0  0  0
   26.3173   24.5429   19.4672 C   0  0  0  0  0  0  0  0  0  0  0  0
   25.9962   24.1753   18.0215 C   0  0  0  0  0  0  0  0  0  0  0  0
   25.7584   25.3698   17.1183 C   0  0  0  0  0  0  0  0  0  0  0  0
   24.3862   25.8698   17.2022 N   0  0  0  0  0  0  0  0  0  0  0  0
   23.7046   25.2092   16.9409 H   0  0  0  0  0  0  0  0  0  0  0  0
   23.8949   27.0221   17.5567 C   0  0  0  0  0  0  0  0  0  0  0  0
   24.5213   27.6671   18.5208 N   0  0  0  0  0  0  0  0  0  0  0  0
   22.8167   27.5590   16.9917 N   0  0  0  0  0  0  0  0  0  0  0  0
   25.3193   27.2714   18.9401 H   0  0  0  0  0  0  0  0  0  0  0  0
   24.1911   28.5445   18.8214 H   0  0  0  0  0  0  0  0  0  0  0  0
   22.3476   27.0788   16.2716 H   0  0  0  0  0  0  0  0  0  0  0  0
   22.4880   28.4365   17.2937 H   0  0  0  0  0  0  0  0  0  0  0  0
   20.9353   25.0543   21.1953 C   0  0  0  0  0  0  0  0  0  0  0  0
   21.2880   26.3038   21.9660 C   0  0  0  0  0  0  0  0  0  0  0  0
   21.7448   27.4612   21.0968 C   0  0  0  0  0  0  0  0  0  0  0  0
   22.9199   27.7525   21.0587 O   0  0  0  0  0  0  0  0  0  0  0  0
   20.8327   28.1114   20.4203 N   0  0  0  0  0  0  0  0  0  0  0  0
   19.8883   27.8402   20.4809 H   0  0  0  0  0  0  0  0  0  0  0  0
   21.0910   28.8718   19.8508 H   0  0  0  0  0  0  0  0  0  0  0  0
   17.9858   24.3939   17.1440 N   0  0  0  0  0  0  0  0  0  0  0  0
   17.5807   23.5076   16.8428 H   0  0  0  0  0  0  0  0  0  0  0  0
   17.5211   24.6272   18.4571 C   0  0  0  0  0  0  0  0  0  0  0  0
   16.6675   23.5540   19.0967 C   0  0  0  0  0  0  0  0  0  0  0  0
   14.8767   22.6751   17.6923 C   0  0  0  0  0  0  0  0  0  0  0  0
   14.0885   23.5488   18.0441 O   0  0  0  0  0  0  0  0  0  0  0  0
   16.1178   22.6422   18.0998 N   0  0  0  0  0  0  0  0  0  0  0  0
   16.7159   21.9632   17.7118 H   0  0  0  0  0  0  0  0  0  0  0  0
   14.3925   21.5323   16.8175 C   0  0  0  0  0  0  0  0  0  0  0  0
   13.6851   19.9033   18.5154 C   0  0  0  0  0  0  0  0  0  0  0  0
   14.8502   19.7399   18.9135 O   0  0  0  0  0  0  0  0  0  0  0  0
   13.3944   20.7701   17.5547 N   0  0  0  0  0  0  0  0  0  0  0  0
   12.4465   20.9064   17.3261 H   0  0  0  0  0  0  0  0  0  0  0  0
   12.5494   19.1008   19.1877 C   0  0  0  0  0  0  0  0  0  0  0  0
   10.6992   18.7586   17.6370 C   0  0  0  0  0  0  0  0  0  0  0  0
   10.2854   19.8934   17.8286 O   0  0  0  0  0  0  0  0  0  0  0  0
    9.9599   17.7724   16.7735 C   0  0  0  0  0  0  0  0  0  0  0  0
   11.7877   18.3056   18.2473 N   0  0  0  0  0  0  0  0  0  0  0  0
   12.0901   17.3893   18.0520 H   0  0  0  0  0  0  0  0  0  0  0  0
   13.1874   18.2448   20.2980 C   0  0  0  0  0  0  0  0  0  0  0  0
   13.8042   17.1274   19.6828 O   0  0  0  0  0  0  0  0  0  0  0  0
   12.0722   17.8024   21.2724 C   0  0  0  0  0  0  0  0  0  0  0  0
   13.1413   16.6279   19.1808 H   0  0  0  0  0  0  0  0  0  0  0  0
   13.8879   22.0204   15.4545 C   0  0  0  0  0  0  0  0  0  0  0  0
   14.8767   21.6697   14.3711 C   0  0  0  0  0  0  0  0  0  0  0  0
   12.4847   21.5331   15.1061 C   0  0  0  0  0  0  0  0  0  0  0  0
   12.4000   20.3160   14.2261 C   0  0  0  0  0  0  0  0  0  0  0  0
   17.3857   22.7726   20.1995 C   0  0  0  0  0  0  0  0  0  0  0  0
   18.2080   21.6225   19.7417 C   0  0  0  0  0  0  0  0  0  0  0  0
   19.6224   21.5709   20.2818 C   0  0  0  0  0  0  0  0  0  0  0  0
   19.6909   21.5543   21.7960 C   0  0  0  0  0  0  0  0  0  0  0  0
   19.8470   24.7027   15.4708 C   0  0  0  0  0  0  0  0  0  0  0  0
   18.5802   25.0745   14.7143 C   0  0  0  0  0  0  0  0  0  0  0  0
   18.8897   26.4406   14.1252 C   0  0  0  0  0  0  0  0  0  0  0  0
   20.4067   26.5924   14.0604 C   0  0  0  0  0  0  0  0  0  0  0  0
 50 51  2  0  0  0
 50 52  1  0  0  0
 53 49  1  0  0  0
 49 45  1  0  0  0
 49 55  1  0  0  0
 45 46  2  0  0  0
 55 56  1  0  0  0
 55 57  1  0  0  0
 47 44  1  0  0  0
 44 40  1  0  0  0
 44 59  1  0  0  0
 40 41  2  0  0  0
 59 61  1  0  0  0
 59 60  1  0  0  0
 61 62  1  0  0  0
 42 39  1  0  0  0
 39 38  1  0  0  0
 39 63  1  0  0  0
 63 64  1  0  0  0
 64 65  1  0  0  0
 65 66  1  0  0  0
 36  1  1  0  0  0
  1  2  1  0  0  0
  1 67  1  0  0  0
  2  3  2  0  0  0
 67 68  1  0  0  0
 68 69  1  0  0  0
 69 70  1  0  0  0
  4  6  1  0  0  0
  6  7  1  0  0  0
  6 29  1  0  0  0
  7  8  2  0  0  0
 29 30  1  0  0  0
 30 31  1  0  0  0
 31 32  2  0  0  0
 31 33  1  0  0  0
  9 11  1  0  0  0
 11 12  1  0  0  0
 11 17  1  0  0  0
 12 13  2  0  0  0
 17 18  1  0  0  0
 18 19  1  0  0  0
 19 20  1  0  0  0
 20 22  1  0  0  0
 22 23  1  0  0  0
 22 24  2  0  0  0
 50 53  1  0  0  0
 45 47  1  0  0  0
 40 42  1  0  0  0
 38 36  1  0  0  0
  2  4  1  0  0  0
  7  9  1  0  0  0
 12 14  1  0  0  0
 53 54  1  0  0  0
 56 58  1  0  0  0
 47 48  1  0  0  0
 42 43  1  0  0  0
 36 37  1  0  0  0
  4  5  1  0  0  0
 33 34  1  0  0  0
 33 35  1  0  0  0
  9 10  1  0  0  0
 20 21  1  0  0  0
 23 25  1  0  0  0
 23 26  1  0  0  0
 24 27  1  0  0  0
 24 28  1  0  0  0
 14 15  1  0  0  0
 14 16  1  0  0  0
M  CHG 1  24   1
M  END
> <minimizedAffinity>
-8.42740

$$$$
2AVM_2NC_B_300


 70 69  0  0  0  0  0  0  0  0999 V2000
   18.2050   23.6414   16.2282 C   0  0  0  0  0  0  0  0  0  0  0  0
   18.6988   24.4808   17.4011 C   0  0  0  0  0  0  0  0  0  0  0  0
   17.9398   24.9244   18.2817 O   0  0  0  0  0  0  0  0  0  0  0  0
   19.9734   24.7784   17.4282 N   0  0  0  0  0  0  0  0  0  0  0  0
   20.5600   24.4158   16.7257 H   0  0  0  0  0  0  0  0  0  0  0  0
   20.5623   25.6365   18.4717 C   0  0  0  0  0  0  0  0  0  0  0  0
   21.4241   26.6830   17.7964 C   0  0  0  0  0  0  0  0  0  0  0  0
   20.9165   27.6216   17.1837 O   0  0  0  0  0  0  0  0  0  0  0  0
   22.7119   26.4613   17.8036 N   0  0  0  0  0  0  0  0  0  0  0  0
   23.0373   25.6522   18.2604 H   0  0  0  0  0  0  0  0  0  0  0  0
   23.6909   27.3287   17.1832 C   0  0  0  0  0  0  0  0  0  0  0  0
   24.1542   26.7220   15.8642 C   0  0  0  0  0  0  0  0  0  0  0  0
   23.4308   25.9281   15.2487 O   0  0  0  0  0  0  0  0  0  0  0  0
   25.3841   27.0358   15.4480 N   0  0  0  0  0  0  0  0  0  0  0  0
   25.9310   27.6717   15.9637 H   0  0  0  0  0  0  0  0  0  0  0  0
   25.7437   26.6313   14.6257 H   0  0  0  0  0  0  0  0  0  0  0  0
   24.8578   27.5513   18.1293 C   0  0  0  0  0  0  0  0  0  0  0  0
   24.6428   27.0299   19.5471 C   0  0  0  0  0  0  0  0  0  0  0  0
   25.6812   26.0214   19.9987 C   0  0  0  0  0  0  0  0  0  0  0  0
   25.3947   24.6701   19.5174 N   0  0  0  0  0  0  0  0  0  0  0  0
   25.7998   24.4638   18.6442 H   0  0  0  0  0  0  0  0  0  0  0  0
   24.7058   23.6885   20.0241 C   0  0  0  0  0  0  0  0  0  0  0  0
   24.3239   23.8128   21.2797 N   0  0  0  0  0  0  0  0  0  0  0  0
   24.3779   22.5978   19.3365 N   0  0  0  0  0  0  0  0  0  0  0  0
   24.5656   24.6192   21.7902 H   0  0  0  0  0  0  0  0  0  0  0  0
   23.7970   23.0993   21.7070 H   0  0  0  0  0  0  0  0  0  0  0  0
   24.6622   22.5031   18.3987 H   0  0  0  0  0  0  0  0  0  0  0  0
   23.8509   21.8854   19.7655 H   0  0  0  0  0  0  0  0  0  0  0  0
   21.2837   24.8049   19.5063 C   0  0  0  0  0  0  0  0  0  0  0  0
   20.8815   25.1009   20.9312 C   0  0  0  0  0  0  0  0  0  0  0  0
   21.5330   26.3411   21.5154 C   0  0  0  0  0  0  0  0  0  0  0  0
   22.5653   26.2359   22.1403 O   0  0  0  0  0  0  0  0  0  0  0  0
   20.9371   27.4899   21.3225 N   0  0  0  0  0  0  0  0  0  0  0  0
   20.0988   27.5294   20.8079 H   0  0  0  0  0  0  0  0  0  0  0  0
   21.3272   28.3149   21.6920 H   0  0  0  0  0  0  0  0  0  0  0  0
   16.7986   23.1892   16.4292 N   0  0  0  0  0  0  0  0  0  0  0  0
   16.2990   23.3920   15.5634 H   0  0  0  0  0  0  0  0  0  0  0  0
   16.5221   21.8421   16.7514 C   0  0  0  0  0  0  0  0  0  0  0  0
   16.3093   21.5026   18.2103 C   0  0  0  0  0  0  0  0  0  0  0  0
   14.0274   20.9249   18.8518 C   0  0  0  0  0  0  0  0  0  0  0  0
   13.7317   22.0937   19.0853 O   0  0  0  0  0  0  0  0  0  0  0  0
   15.1977   20.5749   18.3875 N   0  0  0  0  0  0  0  0  0  0  0  0
   15.3371   19.6314   18.1435 H   0  0  0  0  0  0  0  0  0  0  0  0
   13.0427   19.8181   19.1851 C   0  0  0  0  0  0  0  0  0  0  0  0
   11.2810   19.3065   17.5506 C   0  0  0  0  0  0  0  0  0  0  0  0
   10.4311   19.9425   18.1953 O   0  0  0  0  0  0  0  0  0  0  0  0
   12.5465   19.2443   17.9420 N   0  0  0  0  0  0  0  0  0  0  0  0
   13.1895   18.7823   17.3568 H   0  0  0  0  0  0  0  0  0  0  0  0
   10.8521   18.6062   16.2423 C   0  0  0  0  0  0  0  0  0  0  0  0
   12.2741   19.1473   14.3371 C   0  0  0  0  0  0  0  0  0  0  0  0
   11.6379   20.1667   14.1097 O   0  0  0  0  0  0  0  0  0  0  0  0
   13.3882   18.6821   13.4386 C   0  0  0  0  0  0  0  0  0  0  0  0
   11.9633   18.3480   15.3505 N   0  0  0  0  0  0  0  0  0  0  0  0
   12.5121   17.5449   15.5022 H   0  0  0  0  0  0  0  0  0  0  0  0
   10.1039   17.3184   16.6352 C   0  0  0  0  0  0  0  0  0  0  0  0
   10.1123   17.2269   18.0492 O   0  0  0  0  0  0  0  0  0  0  0  0
   10.8331   16.1169   15.9924 C   0  0  0  0  0  0  0  0  0  0  0  0
   11.0287   17.2208   18.3673 H   0  0  0  0  0  0  0  0  0  0  0  0
   13.6458   18.7720   20.1298 C   0  0  0  0  0  0  0  0  0  0  0  0
   13.6228   19.2723   21.5523 C   0  0  0  0  0  0  0  0  0  0  0  0
   13.0022   17.3934   20.0144 C   0  0  0  0  0  0  0  0  0  0  0  0
   11.9986   17.0343   21.0758 C   0  0  0  0  0  0  0  0  0  0  0  0
   17.5646   20.9743   18.9087 C   0  0  0  0  0  0  0  0  0  0  0  0
   18.1470   21.8655   19.9455 C   0  0  0  0  0  0  0  0  0  0  0  0
   19.5690   21.5480   20.3602 C   0  0  0  0  0  0  0  0  0  0  0  0
   19.8031   21.6630   21.8534 C   0  0  0  0  0  0  0  0  0  0  0  0
   18.4712   24.2981   14.9022 C   0  0  0  0  0  0  0  0  0  0  0  0
   17.7382   25.6315   14.8903 C   0  0  0  0  0  0  0  0  0  0  0  0
   18.5121   26.4690   13.8859 C   0  0  0  0  0  0  0  0  0  0  0  0
   19.9978   26.1771   14.0753 C   0  0  0  0  0  0  0  0  0  0  0  0
 50 51  2  0  0  0
 50 52  1  0  0  0
 53 49  1  0  0  0
 49 45  1  0  0  0
 49 55  1  0  0  0
 45 46  2  0  0  0
 55 56  1  0  0  0
 55 57  1  0  0  0
 47 44  1  0  0  0
 44 40  1  0  0  0
 44 59  1  0  0  0
 40 41  2  0  0  0
 59 61  1  0  0  0
 59 60  1  0  0  0
 61 62  1  0  0  0
 42 39  1  0  0  0
 39 38  1  0  0  0
 39 63  1  0  0  0
 63 64  1  0  0  0
 64 65  1  0  0  0
 65 66  1  0  0  0
 36  1  1  0  0  0
  1  2  1  0  0  0
  1 67  1  0  0  0
  2  3  2  0  0  0
 67 68  1  0  0  0
 68 69  1  0  0  0
 69 70  1  0  0  0
  4  6  1  0  0  0
  6  7  1  0  0  0
  6 29  1  0  0  0
  7  8  2  0  0  0
 29 30  1  0  0  0
 30 31  1  0  0  0
 31 32  2  0  0  0
 31 33  1  0  0  0
  9 11  1  0  0  0
 11 12  1  0  0  0
 11 17  1  0  0  0
 12 13  2  0  0  0
 17 18  1  0  0  0
 18 19  1  0  0  0
 19 20  1  0  0  0
 20 22  1  0  0  0
 22 23  1  0  0  0
 22 24  2  0  0  0
 50 53  1  0  0  0
 45 47  1  0  0  0
 40 42  1  0  0  0
 38 36  1  0  0  0
  2  4  1  0  0  0
  7  9  1  0  0  0
 12 14  1  0  0  0
 53 54  1  0  0  0
 56 58  1  0  0  0
 47 48  1  0  0  0
 42 43  1  0  0  0
 36 37  1  0  0  0
  4  5  1  0  0  0
 33 34  1  0  0  0
 33 35  1  0  0  0
  9 10  1  0  0  0
 20 21  1  0  0  0
 23 25  1  0  0  0
 23 26  1  0  0  0
 24 27  1  0  0  0
 24 28  1  0  0  0
 14 15  1  0  0  0
 14 16  1  0  0  0
M  CHG 1  24   1
M  END
> <minimizedAffinity>
-8.40296

$$$$
2AVM_2NC_B_300


 70 69  0  0  0  0  0  0  0  0999 V2000
   15.3644   21.3083   17.9440 C   0  0  0  0  0  0  0  0  0  0  0  0
   14.5107   21.6458   16.7268 C   0  0  0  0  0  0  0  0  0  0  0  0
   13.9811   22.7594   16.5605 O   0  0  0  0  0  0  0  0  0  0  0  0
   14.2971   20.6864   15.8621 N   0  0  0  0  0  0  0  0  0  0  0  0
   14.7272   19.8127   16.0073 H   0  0  0  0  0  0  0  0  0  0  0  0
   13.4365   20.8660   14.6792 C   0  0  0  0  0  0  0  0  0  0  0  0
   12.0259   20.4592   15.0514 C   0  0  0  0  0  0  0  0  0  0  0  0
   11.0708   21.1979   14.8145 O   0  0  0  0  0  0  0  0  0  0  0  0
   11.9068   19.3517   15.7346 N   0  0  0  0  0  0  0  0  0  0  0  0
   12.7268   18.8477   15.9414 H   0  0  0  0  0  0  0  0  0  0  0  0
   10.6466   18.8181   16.2072 C   0  0  0  0  0  0  0  0  0  0  0  0
   10.3367   19.3776   17.5905 C   0  0  0  0  0  0  0  0  0  0  0  0
   10.4800   18.6750   18.5996 O   0  0  0  0  0  0  0  0  0  0  0  0
    9.8504   20.6202   17.6500 N   0  0  0  0  0  0  0  0  0  0  0  0
    9.7504   21.1497   16.8261 H   0  0  0  0  0  0  0  0  0  0  0  0
    9.5919   21.0066   18.5179 H   0  0  0  0  0  0  0  0  0  0  0  0
   10.7016   17.3006   16.2244 C   0  0  0  0  0  0  0  0  0  0  0  0
    9.7138   16.6121   15.2872 C   0  0  0  0  0  0  0  0  0  0  0  0
    9.2421   15.2559   15.7745 C   0  0  0  0  0  0  0  0  0  0  0  0
    9.9343   14.8267   16.9897 N   0  0  0  0  0  0  0  0  0  0  0  0
   10.8891   14.6280   16.8554 H   0  0  0  0  0  0  0  0  0  0  0  0
    9.5278   14.6575   18.2148 C   0  0  0  0  0  0  0  0  0  0  0  0
    9.4967   13.4200   18.6680 N   0  0  0  0  0  0  0  0  0  0  0  0
    9.1589   15.6622   19.0051 N   0  0  0  0  0  0  0  0  0  0  0  0
    9.7693   12.6752   18.0848 H   0  0  0  0  0  0  0  0  0  0  0  0
    9.2009   13.2406   19.5898 H   0  0  0  0  0  0  0  0  0  0  0  0
    9.1814   16.5871   18.6684 H   0  0  0  0  0  0  0  0  0  0  0  0
    8.8634   15.4808   19.9265 H   0  0  0  0  0  0  0  0  0  0  0  0
   14.0045   20.1337   13.4862 C   0  0  0  0  0  0  0  0  0  0  0  0
   12.9642   19.5040   12.5912 C   0  0  0  0  0  0  0  0  0  0  0  0
   12.8615   17.9956   12.7245 C   0  0  0  0  0  0  0  0  0  0  0  0
   13.8210   17.3626   13.1062 O   0  0  0  0  0  0  0  0  0  0  0  0
   11.7234   17.4326   12.4080 N   0  0  0  0  0  0  0  0  0  0  0  0
   10.9688   17.9860   12.1021 H   0  0  0  0  0  0  0  0  0  0  0  0
   11.6217   16.4557   12.4760 H   0  0  0  0  0  0  0  0  0  0  0  0
   16.5634   22.1898   18.0361 N   0  0  0  0  0  0  0  0  0  0  0  0
   16.6772   22.6263   17.1213 H   0  0  0  0  0  0  0  0  0  0  0  0
   16.6119   23.2295   18.9908 C   0  0  0  0  0  0  0  0  0  0  0  0
   17.9773   23.7022   19.4396 C   0  0  0  0  0  0  0  0  0  0  0  0
   19.1684   24.4234   17.4363 C   0  0  0  0  0  0  0  0  0  0  0  0
   19.2893   23.2745   17.0199 O   0  0  0  0  0  0  0  0  0  0  0  0
   18.5197   24.7089   18.5342 N   0  0  0  0  0  0  0  0  0  0  0  0
   18.3898   25.6576   18.7632 H   0  0  0  0  0  0  0  0  0  0  0  0
   19.8602   25.5639   16.7107 C   0  0  0  0  0  0  0  0  0  0  0  0
   21.6232   26.7533   17.9412 C   0  0  0  0  0  0  0  0  0  0  0  0
   20.8474   27.6674   18.2652 O   0  0  0  0  0  0  0  0  0  0  0  0
   21.2088   25.7056   17.2416 N   0  0  0  0  0  0  0  0  0  0  0  0
   21.8517   24.9798   17.0709 H   0  0  0  0  0  0  0  0  0  0  0  0
   23.0959   26.8289   18.4012 C   0  0  0  0  0  0  0  0  0  0  0  0
   24.4392   27.1969   16.4000 C   0  0  0  0  0  0  0  0  0  0  0  0
   24.2400   26.0530   16.0159 O   0  0  0  0  0  0  0  0  0  0  0  0
   25.3574   28.1383   15.6682 C   0  0  0  0  0  0  0  0  0  0  0  0
   23.9162   27.6482   17.5336 N   0  0  0  0  0  0  0  0  0  0  0  0
   24.0938   28.5804   17.7959 H   0  0  0  0  0  0  0  0  0  0  0  0
   23.0966   27.3327   19.8568 C   0  0  0  0  0  0  0  0  0  0  0  0
   24.2992   28.0524   20.0653 O   0  0  0  0  0  0  0  0  0  0  0  0
   23.0075   26.1080   20.7953 C   0  0  0  0  0  0  0  0  0  0  0  0
   25.0572   27.4745   19.8852 H   0  0  0  0  0  0  0  0  0  0  0  0
   19.8309   25.3838   15.1884 C   0  0  0  0  0  0  0  0  0  0  0  0
   18.6016   26.0343   14.6054 C   0  0  0  0  0  0  0  0  0  0  0  0
   21.0989   25.8611   14.4868 C   0  0  0  0  0  0  0  0  0  0  0  0
   21.0795   27.2693   13.9581 C   0  0  0  0  0  0  0  0  0  0  0  0
   18.0095   24.2075   20.8840 C   0  0  0  0  0  0  0  0  0  0  0  0
   19.2318   23.8669   21.6575 C   0  0  0  0  0  0  0  0  0  0  0  0
   19.8676   22.5324   21.3258 C   0  0  0  0  0  0  0  0  0  0  0  0
   21.2740   22.6538   20.7735 C   0  0  0  0  0  0  0  0  0  0  0  0
   14.5518   21.2175   19.2056 C   0  0  0  0  0  0  0  0  0  0  0  0
   13.9145   19.8365   19.2477 C   0  0  0  0  0  0  0  0  0  0  0  0
   13.8012   19.5274   20.7311 C   0  0  0  0  0  0  0  0  0  0  0  0
   13.1669   18.1473   20.8773 C   0  0  0  0  0  0  0  0  0  0  0  0
 50 51  2  0  0  0
 50 52  1  0  0  0
 53 49  1  0  0  0
 49 45  1  0  0  0
 49 55  1  0  0  0
 45 46  2  0  0  0
 55 56  1  0  0  0
 55 57  1  0  0  0
 47 44  1  0  0  0
 44 40  1  0  0  0
 44 59  1  0  0  0
 40 41  2  0  0  0
 59 61  1  0  0  0
 59 60  1  0  0  0
 61 62  1  0  0  0
 42 39  1  0  0  0
 39 38  1  0  0  0
 39 63  1  0  0  0
 63 64  1  0  0  0
 64 65  1  0  0  0
 65 66  1  0  0  0
 36  1  1  0  0  0
  1  2  1  0  0  0
  1 67  1  0  0  0
  2  3  2  0  0  0
 67 68  1  0  0  0
 68 69  1  0  0  0
 69 70  1  0  0  0
  4  6  1  0  0  0
  6  7  1  0  0  0
  6 29  1  0  0  0
  7  8  2  0  0  0
 29 30  1  0  0  0
 30 31  1  0  0  0
 31 32  2  0  0  0
 31 33  1  0  0  0
  9 11  1  0  0  0
 11 12  1  0  0  0
 11 17  1  0  0  0
 12 13  2  0  0  0
 17 18  1  0  0  0
 18 19  1  0  0  0
 19 20  1  0  0  0
 20 22  1  0  0  0
 22 23  1  0  0  0
 22 24  2  0  0  0
 50 53  1  0  0  0
 45 47  1  0  0  0
 40 42  1  0  0  0
 38 36  1  0  0  0
  2  4  1  0  0  0
  7  9  1  0  0  0
 12 14  1  0  0  0
 53 54  1  0  0  0
 56 58  1  0  0  0
 47 48  1  0  0  0
 42 43  1  0  0  0
 36 37  1  0  0  0
  4  5  1  0  0  0
 33 34  1  0  0  0
 33 35  1  0  0  0
  9 10  1  0  0  0
 20 21  1  0  0  0
 23 25  1  0  0  0
 23 26  1  0  0  0
 24 27  1  0  0  0
 24 28  1  0  0  0
 14 15  1  0  0  0
 14 16  1  0  0  0
M  CHG 1  24   1
M  END
> <minimizedAffinity>
-8.22355

$$$$
2AVM_2NC_B_300


 70 69  0  0  0  0  0  0  0  0999 V2000
   13.0914   19.6850   18.5314 C   0  0  0  0  0  0  0  0  0  0  0  0
   11.7239   19.3753   17.9329 C   0  0  0  0  0  0  0  0  0  0  0  0
   10.6603   19.7930   18.4253 O   0  0  0  0  0  0  0  0  0  0  0  0
   11.6936   18.5882   16.8873 N   0  0  0  0  0  0  0  0  0  0  0  0
   12.5448   18.2701   16.5084 H   0  0  0  0  0  0  0  0  0  0  0  0
   10.4321   18.1608   16.2564 C   0  0  0  0  0  0  0  0  0  0  0  0
   10.3039   16.6604   16.4186 C   0  0  0  0  0  0  0  0  0  0  0  0
   11.0098   16.0476   17.2188 O   0  0  0  0  0  0  0  0  0  0  0  0
    9.4984   16.0573   15.5849 N   0  0  0  0  0  0  0  0  0  0  0  0
    9.0158   16.6107   14.9291 H   0  0  0  0  0  0  0  0  0  0  0  0
    9.2698   14.6279   15.5635 C   0  0  0  0  0  0  0  0  0  0  0  0
   10.3968   13.9374   14.8047 C   0  0  0  0  0  0  0  0  0  0  0  0
   11.2373   13.2580   15.4084 O   0  0  0  0  0  0  0  0  0  0  0  0
   10.4660   14.1525   13.4882 N   0  0  0  0  0  0  0  0  0  0  0  0
    9.7790   14.6985   13.0419 H   0  0  0  0  0  0  0  0  0  0  0  0
   11.2039   13.7651   12.9642 H   0  0  0  0  0  0  0  0  0  0  0  0
    7.9185   14.3297   14.9380 C   0  0  0  0  0  0  0  0  0  0  0  0
    7.0235   13.4030   15.7555 C   0  0  0  0  0  0  0  0  0  0  0  0
    6.2868   14.0945   16.8862 C   0  0  0  0  0  0  0  0  0  0  0  0
    6.8831   13.8186   18.1932 N   0  0  0  0  0  0  0  0  0  0  0  0
    6.7747   12.8869   18.4921 H   0  0  0  0  0  0  0  0  0  0  0  0
    7.5298   14.5709   19.0362 C   0  0  0  0  0  0  0  0  0  0  0  0
    6.8066   15.3225   19.8423 N   0  0  0  0  0  0  0  0  0  0  0  0
    8.8576   14.6020   19.1145 N   0  0  0  0  0  0  0  0  0  0  0  0
    5.8240   15.3009   19.7859 H   0  0  0  0  0  0  0  0  0  0  0  0
    7.2492   15.9055   20.5007 H   0  0  0  0  0  0  0  0  0  0  0  0
    9.3994   14.0413   18.5134 H   0  0  0  0  0  0  0  0  0  0  0  0
    9.2983   15.1856   19.7736 H   0  0  0  0  0  0  0  0  0  0  0  0
   10.3562   18.6441   14.8272 C   0  0  0  0  0  0  0  0  0  0  0  0
    9.4298   19.8177   14.6170 C   0  0  0  0  0  0  0  0  0  0  0  0
    9.8185   21.0623   15.3939 C   0  0  0  0  0  0  0  0  0  0  0  0
   10.8468   21.6409   15.1201 O   0  0  0  0  0  0  0  0  0  0  0  0
    9.0161   21.4595   16.3482 N   0  0  0  0  0  0  0  0  0  0  0  0
    8.1898   20.9587   16.5368 H   0  0  0  0  0  0  0  0  0  0  0  0
    9.2388   22.2592   16.8775 H   0  0  0  0  0  0  0  0  0  0  0  0
   13.6267   20.9854   18.0361 N   0  0  0  0  0  0  0  0  0  0  0  0
   13.4612   21.6704   18.7734 H   0  0  0  0  0  0  0  0  0  0  0  0
   14.9856   21.1038   17.6699 C   0  0  0  0  0  0  0  0  0  0  0  0
   15.5510   22.4998   17.5261 C   0  0  0  0  0  0  0  0  0  0  0  0
   17.2711   23.5461   18.9040 C   0  0  0  0  0  0  0  0  0  0  0  0
   16.4939   24.3899   19.3421 O   0  0  0  0  0  0  0  0  0  0  0  0
   16.8921   22.5952   18.0916 N   0  0  0  0  0  0  0  0  0  0  0  0
   17.5492   21.9039   17.8475 H   0  0  0  0  0  0  0  0  0  0  0  0
   18.7496   23.6388   19.2378 C   0  0  0  0  0  0  0  0  0  0  0  0
   19.6639   24.7921   17.2704 C   0  0  0  0  0  0  0  0  0  0  0  0
   19.4570   23.8102   16.5386 O   0  0  0  0  0  0  0  0  0  0  0  0
   19.3126   24.7919   18.5491 N   0  0  0  0  0  0  0  0  0  0  0  0
   19.4400   25.6213   19.0640 H   0  0  0  0  0  0  0  0  0  0  0  0
   20.3122   26.0533   16.6579 C   0  0  0  0  0  0  0  0  0  0  0  0
   21.9216   27.1267   18.1420 C   0  0  0  0  0  0  0  0  0  0  0  0
   21.0326   27.7377   18.7182 O   0  0  0  0  0  0  0  0  0  0  0  0
   23.3769   27.3452   18.4571 C   0  0  0  0  0  0  0  0  0  0  0  0
   21.6548   26.2907   17.1458 N   0  0  0  0  0  0  0  0  0  0  0  0
   22.4021   25.8114   16.7204 H   0  0  0  0  0  0  0  0  0  0  0  0
   20.2638   25.8964   15.1264 C   0  0  0  0  0  0  0  0  0  0  0  0
   21.4220   25.1845   14.7272 O   0  0  0  0  0  0  0  0  0  0  0  0
   20.2280   27.3063   14.4941 C   0  0  0  0  0  0  0  0  0  0  0  0
   22.2131   25.6673   15.0137 H   0  0  0  0  0  0  0  0  0  0  0  0
   19.0011   23.6618   20.7500 C   0  0  0  0  0  0  0  0  0  0  0  0
   19.4026   22.2923   21.2374 C   0  0  0  0  0  0  0  0  0  0  0  0
   20.0018   24.7252   21.1923 C   0  0  0  0  0  0  0  0  0  0  0  0
   21.4561   24.3506   21.1056 C   0  0  0  0  0  0  0  0  0  0  0  0
   15.5372   23.0242   16.0883 C   0  0  0  0  0  0  0  0  0  0  0  0
   15.5246   21.9860   15.0251 C   0  0  0  0  0  0  0  0  0  0  0  0
   14.2382   21.8736   14.2329 C   0  0  0  0  0  0  0  0  0  0  0  0
   13.9406   20.4644   13.7602 C   0  0  0  0  0  0  0  0  0  0  0  0
   13.1116   19.5248   20.0262 C   0  0  0  0  0  0  0  0  0  0  0  0
   13.5196   18.0913   20.3329 C   0  0  0  0  0  0  0  0  0  0  0  0
   12.4567   17.6050   21.3039 C   0  0  0  0  0  0  0  0  0  0  0  0
   11.3885   16.8675   20.5017 C   0  0  0  0  0  0  0  0  0  0  0  0
 50 51  2  0  0  0
 50 52  1  0  0  0
 53 49  1  0  0  0
 49 45  1  0  0  0
 49 55  1  0  0  0
 45 46  2  0  0  0
 55 56  1  0  0  0
 55 57  1  0  0  0
 47 44  1  0  0  0
 44 40  1  0  0  0
 44 59  1  0  0  0
 40 41  2  0  0  0
 59 61  1  0  0  0
 59 60  1  0  0  0
 61 62  1  0  0  0
 42 39  1  0  0  0
 39 38  1  0  0  0
 39 63  1  0  0  0
 63 64  1  0  0  0
 64 65  1  0  0  0
 65 66  1  0  0  0
 36  1  1  0  0  0
  1  2  1  0  0  0
  1 67  1  0  0  0
  2  3  2  0  0  0
 67 68  1  0  0  0
 68 69  1  0  0  0
 69 70  1  0  0  0
  4  6  1  0  0  0
  6  7  1  0  0  0
  6 29  1  0  0  0
  7  8  2  0  0  0
 29 30  1  0  0  0
 30 31  1  0  0  0
 31 32  2  0  0  0
 31 33  1  0  0  0
  9 11  1  0  0  0
 11 12  1  0  0  0
 11 17  1  0  0  0
 12 13  2  0  0  0
 17 18  1  0  0  0
 18 19  1  0  0  0
 19 20  1  0  0  0
 20 22  1  0  0  0
 22 23  1  0  0  0
 22 24  2  0  0  0
 50 53  1  0  0  0
 45 47  1  0  0  0
 40 42  1  0  0  0
 38 36  1  0  0  0
  2  4  1  0  0  0
  7  9  1  0  0  0
 12 14  1  0  0  0
 53 54  1  0  0  0
 56 58  1  0  0  0
 47 48  1  0  0  0
 42 43  1  0  0  0
 36 37  1  0  0  0
  4  5  1  0  0  0
 33 34  1  0  0  0
 33 35  1  0  0  0
  9 10  1  0  0  0
 20 21  1  0  0  0
 23 25  1  0  0  0
 23 26  1  0  0  0
 24 27  1  0  0  0
 24 28  1  0  0  0
 14 15  1  0  0  0
 14 16  1  0  0  0
M  CHG 1  24   1
M  END
> <minimizedAffinity>
-8.17482

$$$$
2AVM_2NC_B_300


 70 69  0  0  0  0  0  0  0  0999 V2000
   15.6037   20.8692   17.9750 C   0  0  0  0  0  0  0  0  0  0  0  0
   15.1207   20.9224   16.5300 C   0  0  0  0  0  0  0  0  0  0  0  0
   15.7061   21.5726   15.6452 O   0  0  0  0  0  0  0  0  0  0  0  0
   14.0086   20.2920   16.2481 N   0  0  0  0  0  0  0  0  0  0  0  0
   13.5607   19.7794   16.9594 H   0  0  0  0  0  0  0  0  0  0  0  0
   13.4024   20.3213   14.9050 C   0  0  0  0  0  0  0  0  0  0  0  0
   12.2596   21.3151   14.9208 C   0  0  0  0  0  0  0  0  0  0  0  0
   12.4575   22.5032   15.1723 O   0  0  0  0  0  0  0  0  0  0  0  0
   11.0606   20.8170   14.7733 N   0  0  0  0  0  0  0  0  0  0  0  0
   10.9789   19.8449   14.6404 H   0  0  0  0  0  0  0  0  0  0  0  0
    9.8445   21.6023   14.7926 C   0  0  0  0  0  0  0  0  0  0  0  0
    9.0154   21.2378   16.0184 C   0  0  0  0  0  0  0  0  0  0  0  0
    8.7489   20.0550   16.2681 O   0  0  0  0  0  0  0  0  0  0  0  0
    8.5464   22.2461   16.7584 N   0  0  0  0  0  0  0  0  0  0  0  0
    8.7797   23.1748   16.5294 H   0  0  0  0  0  0  0  0  0  0  0  0
    7.9675   22.0606   17.5327 H   0  0  0  0  0  0  0  0  0  0  0  0
    9.0632   21.3773   13.5100 C   0  0  0  0  0  0  0  0  0  0  0  0
    7.9041   22.3441   13.2868 C   0  0  0  0  0  0  0  0  0  0  0  0
    7.9445   23.0595   11.9504 C   0  0  0  0  0  0  0  0  0  0  0  0
    6.8026   22.7218   11.1007 N   0  0  0  0  0  0  0  0  0  0  0  0
    5.9781   22.5244   11.6011 H   0  0  0  0  0  0  0  0  0  0  0  0
    6.6694   22.6327    9.8088 C   0  0  0  0  0  0  0  0  0  0  0  0
    6.8099   21.4354    9.2753 N   0  0  0  0  0  0  0  0  0  0  0  0
    6.3979   23.6772    9.0309 N   0  0  0  0  0  0  0  0  0  0  0  0
    7.0109   20.6612    9.8493 H   0  0  0  0  0  0  0  0  0  0  0  0
    6.7140   21.3155    8.3028 H   0  0  0  0  0  0  0  0  0  0  0  0
    6.2926   24.5722    9.4274 H   0  0  0  0  0  0  0  0  0  0  0  0
    6.3023   23.5553    8.0586 H   0  0  0  0  0  0  0  0  0  0  0  0
   13.0155   18.9303   14.4604 C   0  0  0  0  0  0  0  0  0  0  0  0
   13.4126   18.5990   13.0418 C   0  0  0  0  0  0  0  0  0  0  0  0
   13.2812   17.1290   12.6876 C   0  0  0  0  0  0  0  0  0  0  0  0
   14.2655   16.4231   12.6914 O   0  0  0  0  0  0  0  0  0  0  0  0
   12.0909   16.6809   12.3801 N   0  0  0  0  0  0  0  0  0  0  0  0
   11.3178   17.2904   12.3899 H   0  0  0  0  0  0  0  0  0  0  0  0
   11.9684   15.7343   12.1388 H   0  0  0  0  0  0  0  0  0  0  0  0
   16.7824   21.7556   18.1938 N   0  0  0  0  0  0  0  0  0  0  0  0
   17.1026   22.0505   17.2713 H   0  0  0  0  0  0  0  0  0  0  0  0
   16.6588   22.9265   18.9738 C   0  0  0  0  0  0  0  0  0  0  0  0
   17.9338   23.5758   19.4656 C   0  0  0  0  0  0  0  0  0  0  0  0
   19.0693   24.4175   17.4771 C   0  0  0  0  0  0  0  0  0  0  0  0
   19.3189   23.2875   17.0661 O   0  0  0  0  0  0  0  0  0  0  0  0
   18.3780   24.6335   18.5647 N   0  0  0  0  0  0  0  0  0  0  0  0
   18.1436   25.5631   18.7889 H   0  0  0  0  0  0  0  0  0  0  0  0
   19.6450   25.6245   16.7577 C   0  0  0  0  0  0  0  0  0  0  0  0
   21.7415   26.6230   17.5606 C   0  0  0  0  0  0  0  0  0  0  0  0
   21.1430   27.5774   18.0835 O   0  0  0  0  0  0  0  0  0  0  0  0
   21.0879   25.6412   16.9544 N   0  0  0  0  0  0  0  0  0  0  0  0
   21.6095   24.8776   16.6169 H   0  0  0  0  0  0  0  0  0  0  0  0
   23.2821   26.5677   17.6572 C   0  0  0  0  0  0  0  0  0  0  0  0
   24.8680   25.6055   19.2396 C   0  0  0  0  0  0  0  0  0  0  0  0
   25.5539   26.6178   19.2184 O   0  0  0  0  0  0  0  0  0  0  0  0
   25.2800   24.3754   20.0026 C   0  0  0  0  0  0  0  0  0  0  0  0
   23.7552   25.5072   18.5224 N   0  0  0  0  0  0  0  0  0  0  0  0
   23.2287   24.6774   18.5812 H   0  0  0  0  0  0  0  0  0  0  0  0
   23.8276   26.4414   16.2223 C   0  0  0  0  0  0  0  0  0  0  0  0
   24.8206   25.4307   16.2239 O   0  0  0  0  0  0  0  0  0  0  0  0
   24.4196   27.8067   15.8050 C   0  0  0  0  0  0  0  0  0  0  0  0
   25.5197   25.6652   16.8541 H   0  0  0  0  0  0  0  0  0  0  0  0
   19.2408   25.6643   15.2793 C   0  0  0  0  0  0  0  0  0  0  0  0
   17.7699   25.3682   15.1280 C   0  0  0  0  0  0  0  0  0  0  0  0
   19.6233   26.9601   14.5704 C   0  0  0  0  0  0  0  0  0  0  0  0
   20.9235   26.9486   13.8141 C   0  0  0  0  0  0  0  0  0  0  0  0
   17.8444   24.0976   20.9017 C   0  0  0  0  0  0  0  0  0  0  0  0
   18.9693   23.7175   21.7953 C   0  0  0  0  0  0  0  0  0  0  0  0
   20.0488   22.8625   21.1639 C   0  0  0  0  0  0  0  0  0  0  0  0
   20.0902   21.4462   21.7026 C   0  0  0  0  0  0  0  0  0  0  0  0
   14.4837   21.0573   18.9602 C   0  0  0  0  0  0  0  0  0  0  0  0
   14.4191   19.8115   19.8315 C   0  0  0  0  0  0  0  0  0  0  0  0
   12.9642   19.3805   19.7517 C   0  0  0  0  0  0  0  0  0  0  0  0
   12.6247   18.6295   21.0359 C   0  0  0  0  0  0  0  0  0  0  0  0
 50 51  2  0  0  0
 50 52  1  0  0  0
 53 49  1  0  0  0
 49 45  1  0  0  0
 49 55  1  0  0  0
 45 46  2  0  0  0
 55 56  1  0  0  0
 55 57  1  0  0  0
 47 44  1  0  0  0
 44 40  1  0  0  0
 44 59  1  0  0  0
 40 41  2  0  0  0
 59 61  1  0  0  0
 59 60  1  0  0  0
 61 62  1  0  0  0
 42 39  1  0  0  0
 39 38  1  0  0  0
 39 63  1  0  0  0
 63 64  1  0  0  0
 64 65  1  0  0  0
 65 66  1  0  0  0
 36  1  1  0  0  0
  1  2  1  0  0  0
  1 67  1  0  0  0
  2  3  2  0  0  0
 67 68  1  0  0  0
 68 69  1  0  0  0
 69 70  1  0  0  0
  4  6  1  0  0  0
  6  7  1  0  0  0
  6 29  1  0  0  0
  7  8  2  0  0  0
 29 30  1  0  0  0
 30 31  1  0  0  0
 31 32  2  0  0  0
 31 33  1  0  0  0
  9 11  1  0  0  0
 11 12  1  0  0  0
 11 17  1  0  0  0
 12 13  2  0  0  0
 17 18  1  0  0  0
 18 19  1  0  0  0
 19 20  1  0  0  0
 20 22  1  0  0  0
 22 23  1  0  0  0
 22 24  2  0  0  0
 50 53  1  0  0  0
 45 47  1  0  0  0
 40 42  1  0  0  0
 38 36  1  0  0  0
  2  4  1  0  0  0
  7  9  1  0  0  0
 12 14  1  0  0  0
 53 54  1  0  0  0
 56 58  1  0  0  0
 47 48  1  0  0  0
 42 43  1  0  0  0
 36 37  1  0  0  0
  4  5  1  0  0  0
 33 34  1  0  0  0
 33 35  1  0  0  0
  9 10  1  0  0  0
 20 21  1  0  0  0
 23 25  1  0  0  0
 23 26  1  0  0  0
 24 27  1  0  0  0
 24 28  1  0  0  0
 14 15  1  0  0  0
 14 16  1  0  0  0
M  CHG 1  24   1
M  END
> <minimizedAffinity>
-8.14068

$$$$
2AVM_2NC_B_300


 70 69  0  0  0  0  0  0  0  0999 V2000
   17.7841   22.2026   18.6828 C   0  0  0  0  0  0  0  0  0  0  0  0
   16.8073   21.0514   18.4707 C   0  0  0  0  0  0  0  0  0  0  0  0
   17.0136   20.1308   17.6593 O   0  0  0  0  0  0  0  0  0  0  0  0
   15.6857   21.0874   19.1448 N   0  0  0  0  0  0  0  0  0  0  0  0
   15.5408   21.8209   19.7852 H   0  0  0  0  0  0  0  0  0  0  0  0
   14.6320   20.0702   18.9802 C   0  0  0  0  0  0  0  0  0  0  0  0
   13.6351   20.5790   17.9599 C   0  0  0  0  0  0  0  0  0  0  0  0
   13.5456   21.7798   17.7066 O   0  0  0  0  0  0  0  0  0  0  0  0
   12.8115   19.6923   17.4670 N   0  0  0  0  0  0  0  0  0  0  0  0
   12.9045   18.7597   17.7683 H   0  0  0  0  0  0  0  0  0  0  0  0
   11.7709   19.9929   16.5063 C   0  0  0  0  0  0  0  0  0  0  0  0
   10.4291   20.1083   17.2196 C   0  0  0  0  0  0  0  0  0  0  0  0
   10.2271   19.5038   18.2809 O   0  0  0  0  0  0  0  0  0  0  0  0
    9.4796   20.8300   16.6181 N   0  0  0  0  0  0  0  0  0  0  0  0
    9.6768   21.2975   15.7745 H   0  0  0  0  0  0  0  0  0  0  0  0
    8.5824   20.8943   17.0184 H   0  0  0  0  0  0  0  0  0  0  0  0
   11.7348   18.9213   15.4309 C   0  0  0  0  0  0  0  0  0  0  0  0
   12.0629   19.4128   14.0241 C   0  0  0  0  0  0  0  0  0  0  0  0
   13.5459   19.5881   13.7609 C   0  0  0  0  0  0  0  0  0  0  0  0
   13.9357   20.9953   13.6735 N   0  0  0  0  0  0  0  0  0  0  0  0
   13.8998   21.3630   12.7609 H   0  0  0  0  0  0  0  0  0  0  0  0
   14.3209   21.8540   14.5730 C   0  0  0  0  0  0  0  0  0  0  0  0
   15.4508   21.5948   15.2007 N   0  0  0  0  0  0  0  0  0  0  0  0
   13.6366   22.9561   14.8681 N   0  0  0  0  0  0  0  0  0  0  0  0
   15.9587   20.7797   14.9836 H   0  0  0  0  0  0  0  0  0  0  0  0
   15.7868   22.2161   15.8864 H   0  0  0  0  0  0  0  0  0  0  0  0
   12.7926   23.1514   14.4005 H   0  0  0  0  0  0  0  0  0  0  0  0
   13.9742   23.5762   15.5542 H   0  0  0  0  0  0  0  0  0  0  0  0
   14.0281   19.7023   20.3152 C   0  0  0  0  0  0  0  0  0  0  0  0
   13.5117   18.2857   20.3939 C   0  0  0  0  0  0  0  0  0  0  0  0
   12.0489   18.1789   20.7843 C   0  0  0  0  0  0  0  0  0  0  0  0
   11.5918   18.9440   21.6044 O   0  0  0  0  0  0  0  0  0  0  0  0
   11.3335   17.2432   20.2141 N   0  0  0  0  0  0  0  0  0  0  0  0
   11.7461   16.6427   19.5521 H   0  0  0  0  0  0  0  0  0  0  0  0
   10.3826   17.1399   20.4472 H   0  0  0  0  0  0  0  0  0  0  0  0
   17.3705   23.4206   17.9291 N   0  0  0  0  0  0  0  0  0  0  0  0
   17.6333   24.2229   18.5016 H   0  0  0  0  0  0  0  0  0  0  0  0
   17.8772   23.6634   16.6333 C   0  0  0  0  0  0  0  0  0  0  0  0
   18.8529   24.8080   16.4682 C   0  0  0  0  0  0  0  0  0  0  0  0
   20.5947   25.7413   17.8988 C   0  0  0  0  0  0  0  0  0  0  0  0
   20.2426   26.8969   17.6782 O   0  0  0  0  0  0  0  0  0  0  0  0
   19.9606   24.7077   17.4118 N   0  0  0  0  0  0  0  0  0  0  0  0
   20.2468   23.8103   17.6981 H   0  0  0  0  0  0  0  0  0  0  0  0
   21.8602   25.4790   18.6961 C   0  0  0  0  0  0  0  0  0  0  0  0
   24.2069   25.9044   18.1053 C   0  0  0  0  0  0  0  0  0  0  0  0
   24.5563   24.7724   18.4784 O   0  0  0  0  0  0  0  0  0  0  0  0
   22.9376   26.2867   18.1415 N   0  0  0  0  0  0  0  0  0  0  0  0
   22.7099   27.1700   17.7711 H   0  0  0  0  0  0  0  0  0  0  0  0
   25.2785   26.8694   17.5519 C   0  0  0  0  0  0  0  0  0  0  0  0
   26.8884   27.4522   19.2879 C   0  0  0  0  0  0  0  0  0  0  0  0
   26.1152   28.2626   19.7790 O   0  0  0  0  0  0  0  0  0  0  0  0
   28.2929   27.2751   19.7986 C   0  0  0  0  0  0  0  0  0  0  0  0
   26.5562   26.7364   18.2204 N   0  0  0  0  0  0  0  0  0  0  0  0
   27.2068   26.0870   17.8678 H   0  0  0  0  0  0  0  0  0  0  0  0
   25.3812   26.6203   16.0354 C   0  0  0  0  0  0  0  0  0  0  0  0
   24.2903   25.7992   15.6566 O   0  0  0  0  0  0  0  0  0  0  0  0
   26.7312   25.9252   15.7470 C   0  0  0  0  0  0  0  0  0  0  0  0
   24.3199   24.9701   16.1593 H   0  0  0  0  0  0  0  0  0  0  0  0
   21.6546   25.7037   20.1987 C   0  0  0  0  0  0  0  0  0  0  0  0
   22.3732   24.6419   20.9926 C   0  0  0  0  0  0  0  0  0  0  0  0
   22.0351   27.1040   20.6703 C   0  0  0  0  0  0  0  0  0  0  0  0
   20.9701   27.8746   21.4015 C   0  0  0  0  0  0  0  0  0  0  0  0
   19.3786   24.9671   15.0396 C   0  0  0  0  0  0  0  0  0  0  0  0
   18.8554   26.1377   14.2884 C   0  0  0  0  0  0  0  0  0  0  0  0
   19.7305   27.3742   14.3076 C   0  0  0  0  0  0  0  0  0  0  0  0
   21.2047   27.0742   14.1219 C   0  0  0  0  0  0  0  0  0  0  0  0
   18.0873   22.4353   20.1369 C   0  0  0  0  0  0  0  0  0  0  0  0
   19.2707   21.5546   20.5099 C   0  0  0  0  0  0  0  0  0  0  0  0
   19.7962   22.1684   21.7969 C   0  0  0  0  0  0  0  0  0  0  0  0
   19.1251   23.5267   21.9787 C   0  0  0  0  0  0  0  0  0  0  0  0
 50 51  2  0  0  0
 50 52  1  0  0  0
 53 49  1  0  0  0
 49 45  1  0  0  0
 49 55  1  0  0  0
 45 46  2  0  0  0
 55 56  1  0  0  0
 55 57  1  0  0  0
 47 44  1  0  0  0
 44 40  1  0  0  0
 44 59  1  0  0  0
 40 41  2  0  0  0
 59 61  1  0  0  0
 59 60  1  0  0  0
 61 62  1  0  0  0
 42 39  1  0  0  0
 39 38  1  0  0  0
 39 63  1  0  0  0
 63 64  1  0  0  0
 64 65  1  0  0  0
 65 66  1  0  0  0
 36  1  1  0  0  0
  1  2  1  0  0  0
  1 67  1  0  0  0
  2  3  2  0  0  0
 67 68  1  0  0  0
 68 69  1  0  0  0
 69 70  1  0  0  0
  4  6  1  0  0  0
  6  7  1  0  0  0
  6 29  1  0  0  0
  7  8  2  0  0  0
 29 30  1  0  0  0
 30 31  1  0  0  0
 31 32  2  0  0  0
 31 33  1  0  0  0
  9 11  1  0  0  0
 11 12  1  0  0  0
 11 17  1  0  0  0
 12 13  2  0  0  0
 17 18  1  0  0  0
 18 19  1  0  0  0
 19 20  1  0  0  0
 20 22  1  0  0  0
 22 23  1  0  0  0
 22 24  2  0  0  0
 50 53  1  0  0  0
 45 47  1  0  0  0
 40 42  1  0  0  0
 38 36  1  0  0  0
  2  4  1  0  0  0
  7  9  1  0  0  0
 12 14  1  0  0  0
 53 54  1  0  0  0
 56 58  1  0  0  0
 47 48  1  0  0  0
 42 43  1  0  0  0
 36 37  1  0  0  0
  4  5  1  0  0  0
 33 34  1  0  0  0
 33 35  1  0  0  0
  9 10  1  0  0  0
 20 21  1  0  0  0
 23 25  1  0  0  0
 23 26  1  0  0  0
 24 27  1  0  0  0
 24 28  1  0  0  0
 14 15  1  0  0  0
 14 16  1  0  0  0
M  CHG 1  24   1
M  END
> <minimizedAffinity>
-8.06538

$$$$
2AVM_2NC_B_300


 70 69  0  0  0  0  0  0  0  0999 V2000
   14.8538   21.5232   17.2957 C   0  0  0  0  0  0  0  0  0  0  0  0
   13.7227   21.6137   16.2776 C   0  0  0  0  0  0  0  0  0  0  0  0
   13.3435   22.6905   15.7825 O   0  0  0  0  0  0  0  0  0  0  0  0
   13.1048   20.5013   15.9703 N   0  0  0  0  0  0  0  0  0  0  0  0
   13.4205   19.6580   16.3683 H   0  0  0  0  0  0  0  0  0  0  0  0
   11.9540   20.4648   15.0503 C   0  0  0  0  0  0  0  0  0  0  0  0
   10.8790   19.5949   15.6678 C   0  0  0  0  0  0  0  0  0  0  0  0
    9.7151   19.9866   15.7459 O   0  0  0  0  0  0  0  0  0  0  0  0
   11.2833   18.4768   16.2099 N   0  0  0  0  0  0  0  0  0  0  0  0
   12.2431   18.2630   16.1632 H   0  0  0  0  0  0  0  0  0  0  0  0
   10.4107   17.5321   16.8748 C   0  0  0  0  0  0  0  0  0  0  0  0
   10.8093   17.4060   18.3404 C   0  0  0  0  0  0  0  0  0  0  0  0
   10.3849   18.2115   19.1790 O   0  0  0  0  0  0  0  0  0  0  0  0
   11.6750   16.4386   18.6551 N   0  0  0  0  0  0  0  0  0  0  0  0
   11.9909   15.8158   17.9611 H   0  0  0  0  0  0  0  0  0  0  0  0
   11.9971   16.3484   19.5810 H   0  0  0  0  0  0  0  0  0  0  0  0
   10.4689   16.1889   16.1686 C   0  0  0  0  0  0  0  0  0  0  0  0
    9.1160   15.5154   15.9583 C   0  0  0  0  0  0  0  0  0  0  0  0
    8.8117   14.4150   16.9562 C   0  0  0  0  0  0  0  0  0  0  0  0
    8.2278   14.9293   18.1949 N   0  0  0  0  0  0  0  0  0  0  0  0
    8.7581   15.6417   18.6198 H   0  0  0  0  0  0  0  0  0  0  0  0
    7.1403   14.6242   18.8423 C   0  0  0  0  0  0  0  0  0  0  0  0
    6.4761   13.5638   18.4274 N   0  0  0  0  0  0  0  0  0  0  0  0
    6.6919   15.3220   19.8825 N   0  0  0  0  0  0  0  0  0  0  0  0
    6.8063   13.0461   17.6578 H   0  0  0  0  0  0  0  0  0  0  0  0
    5.6499   13.2895   18.8870 H   0  0  0  0  0  0  0  0  0  0  0  0
    7.1866   16.1142   20.1938 H   0  0  0  0  0  0  0  0  0  0  0  0
    5.8655   15.0461   20.3408 H   0  0  0  0  0  0  0  0  0  0  0  0
   12.3861   20.0379   13.6671 C   0  0  0  0  0  0  0  0  0  0  0  0
   13.4993   19.0179   13.6515 C   0  0  0  0  0  0  0  0  0  0  0  0
   13.0742   17.6423   13.1711 C   0  0  0  0  0  0  0  0  0  0  0  0
   11.9135   17.3089   13.2646 O   0  0  0  0  0  0  0  0  0  0  0  0
   13.9973   16.8586   12.6751 N   0  0  0  0  0  0  0  0  0  0  0  0
   14.9293   17.1707   12.6179 H   0  0  0  0  0  0  0  0  0  0  0  0
   13.7599   15.9569   12.3593 H   0  0  0  0  0  0  0  0  0  0  0  0
   15.8645   22.6001   17.0919 N   0  0  0  0  0  0  0  0  0  0  0  0
   15.5914   23.1023   16.2472 H   0  0  0  0  0  0  0  0  0  0  0  0
   16.0796   23.5743   18.0916 C   0  0  0  0  0  0  0  0  0  0  0  0
   17.4984   23.7754   18.5770 C   0  0  0  0  0  0  0  0  0  0  0  0
   19.0412   24.7314   16.9467 C   0  0  0  0  0  0  0  0  0  0  0  0
   19.3374   23.6307   16.4899 O   0  0  0  0  0  0  0  0  0  0  0  0
   18.1479   24.8849   17.8881 N   0  0  0  0  0  0  0  0  0  0  0  0
   17.8991   25.8016   18.1469 H   0  0  0  0  0  0  0  0  0  0  0  0
   19.7864   25.9676   16.4753 C   0  0  0  0  0  0  0  0  0  0  0  0
   21.7737   26.7450   17.6931 C   0  0  0  0  0  0  0  0  0  0  0  0
   21.1512   27.6919   18.2015 O   0  0  0  0  0  0  0  0  0  0  0  0
   21.1756   25.8661   16.9004 N   0  0  0  0  0  0  0  0  0  0  0  0
   21.7024   25.0987   16.5799 H   0  0  0  0  0  0  0  0  0  0  0  0
   23.2717   26.5735   18.0286 C   0  0  0  0  0  0  0  0  0  0  0  0
   23.7958   25.0336   19.8450 C   0  0  0  0  0  0  0  0  0  0  0  0
   23.7201   25.9313   20.6720 O   0  0  0  0  0  0  0  0  0  0  0  0
   24.2186   23.6377   20.2155 C   0  0  0  0  0  0  0  0  0  0  0  0
   23.5852   25.2610   18.5541 N   0  0  0  0  0  0  0  0  0  0  0  0
   23.6447   24.5045   17.9268 H   0  0  0  0  0  0  0  0  0  0  0  0
   24.0683   26.8995   16.7513 C   0  0  0  0  0  0  0  0  0  0  0  0
   23.9572   25.7904   15.8766 O   0  0  0  0  0  0  0  0  0  0  0  0
   25.5403   27.1541   17.1478 C   0  0  0  0  0  0  0  0  0  0  0  0
   24.2959   24.9956   16.3177 H   0  0  0  0  0  0  0  0  0  0  0  0
   19.6360   26.1938   14.9664 C   0  0  0  0  0  0  0  0  0  0  0  0
   18.2187   25.9169   14.5317 C   0  0  0  0  0  0  0  0  0  0  0  0
   20.1024   27.5695   14.4999 C   0  0  0  0  0  0  0  0  0  0  0  0
   21.3574   27.6034   13.6712 C   0  0  0  0  0  0  0  0  0  0  0  0
   17.6114   23.9466   20.0938 C   0  0  0  0  0  0  0  0  0  0  0  0
   18.4959   22.9741   20.7867 C   0  0  0  0  0  0  0  0  0  0  0  0
   19.6358   23.5755   21.5830 C   0  0  0  0  0  0  0  0  0  0  0  0
   20.2558   24.7927   20.9259 C   0  0  0  0  0  0  0  0  0  0  0  0
   14.3463   21.3953   18.7051 C   0  0  0  0  0  0  0  0  0  0  0  0
   14.5810   19.9602   19.1534 C   0  0  0  0  0  0  0  0  0  0  0  0
   13.2787   19.5676   19.8308 C   0  0  0  0  0  0  0  0  0  0  0  0
   13.6110   19.0585   21.2304 C   0  0  0  0  0  0  0  0  0  0  0  0
 50 51  2  0  0  0
 50 52  1  0  0  0
 53 49  1  0  0  0
 49 45  1  0  0  0
 49 55  1  0  0  0
 45 46  2  0  0  0
 55 56  1  0  0  0
 55 57  1  0  0  0
 47 44  1  0  0  0
 44 40  1  0  0  0
 44 59  1  0  0  0
 40 41  2  0  0  0
 59 61  1  0  0  0
 59 60  1  0  0  0
 61 62  1  0  0  0
 42 39  1  0  0  0
 39 38  1  0  0  0
 39 63  1  0  0  0
 63 64  1  0  0  0
 64 65  1  0  0  0
 65 66  1  0  0  0
 36  1  1  0  0  0
  1  2  1  0  0  0
  1 67  1  0  0  0
  2  3  2  0  0  0
 67 68  1  0  0  0
 68 69  1  0  0  0
 69 70  1  0  0  0
  4  6  1  0  0  0
  6  7  1  0  0  0
  6 29  1  0  0  0
  7  8  2  0  0  0
 29 30  1  0  0  0
 30 31  1  0  0  0
 31 32  2  0  0  0
 31 33  1  0  0  0
  9 11  1  0  0  0
 11 12  1  0  0  0
 11 17  1  0  0  0
 12 13  2  0  0  0
 17 18  1  0  0  0
 18 19  1  0  0  0
 19 20  1  0  0  0
 20 22  1  0  0  0
 22 23  1  0  0  0
 22 24  2  0  0  0
 50 53  1  0  0  0
 45 47  1  0  0  0
 40 42  1  0  0  0
 38 36  1  0  0  0
  2  4  1  0  0  0
  7  9  1  0  0  0
 12 14  1  0  0  0
 53 54  1  0  0  0
 56 58  1  0  0  0
 47 48  1  0  0  0
 42 43  1  0  0  0
 36 37  1  0  0  0
  4  5  1  0  0  0
 33 34  1  0  0  0
 33 35  1  0  0  0
  9 10  1  0  0  0
 20 21  1  0  0  0
 23 25  1  0  0  0
 23 26  1  0  0  0
 24 27  1  0  0  0
 24 28  1  0  0  0
 14 15  1  0  0  0
 14 16  1  0  0  0
M  CHG 1  24   1
M  END
> <minimizedAffinity>
-8.05820

$$$$
2AVM_2NC_B_300


 70 69  0  0  0  0  0  0  0  0999 V2000
   20.2550   25.7879   16.8427 C   0  0  0  0  0  0  0  0  0  0  0  0
   21.4200   26.5262   17.4923 C   0  0  0  0  0  0  0  0  0  0  0  0
   21.4569   27.7649   17.6043 O   0  0  0  0  0  0  0  0  0  0  0  0
   22.4368   25.8047   17.8913 N   0  0  0  0  0  0  0  0  0  0  0  0
   22.3890   24.8257   17.7986 H   0  0  0  0  0  0  0  0  0  0  0  0
   23.6505   26.4041   18.4742 C   0  0  0  0  0  0  0  0  0  0  0  0
   24.8446   25.9422   17.6651 C   0  0  0  0  0  0  0  0  0  0  0  0
   24.7336   25.6747   16.4692 O   0  0  0  0  0  0  0  0  0  0  0  0
   25.9480   25.7343   18.3335 N   0  0  0  0  0  0  0  0  0  0  0  0
   25.9398   25.9103   19.3021 H   0  0  0  0  0  0  0  0  0  0  0  0
   27.1819   25.2619   17.7415 C   0  0  0  0  0  0  0  0  0  0  0  0
   27.9057   24.3460   18.7212 C   0  0  0  0  0  0  0  0  0  0  0  0
   29.1112   24.1022   18.5808 O   0  0  0  0  0  0  0  0  0  0  0  0
   27.1709   23.7801   19.6825 N   0  0  0  0  0  0  0  0  0  0  0  0
   26.2143   23.9982   19.7637 H   0  0  0  0  0  0  0  0  0  0  0  0
   27.5860   23.1450   20.3098 H   0  0  0  0  0  0  0  0  0  0  0  0
   28.0501   26.4429   17.3442 C   0  0  0  0  0  0  0  0  0  0  0  0
   27.9928   26.8125   15.8650 C   0  0  0  0  0  0  0  0  0  0  0  0
   27.5314   28.2325   15.6002 C   0  0  0  0  0  0  0  0  0  0  0  0
   26.0851   28.3222   15.4002 N   0  0  0  0  0  0  0  0  0  0  0  0
   25.7301   27.6661   14.7577 H   0  0  0  0  0  0  0  0  0  0  0  0
   25.1781   29.1047   15.9101 C   0  0  0  0  0  0  0  0  0  0  0  0
   23.9208   28.7369   15.7624 N   0  0  0  0  0  0  0  0  0  0  0  0
   25.4680   30.2276   16.5620 N   0  0  0  0  0  0  0  0  0  0  0  0
   23.7043   27.9063   15.2803 H   0  0  0  0  0  0  0  0  0  0  0  0
   23.1984   29.2929   16.1341 H   0  0  0  0  0  0  0  0  0  0  0  0
   26.4063   30.5039   16.6734 H   0  0  0  0  0  0  0  0  0  0  0  0
   24.7441   30.7822   16.9330 H   0  0  0  0  0  0  0  0  0  0  0  0
   23.7415   26.1022   19.9517 C   0  0  0  0  0  0  0  0  0  0  0  0
   23.3482   27.2534   20.8460 C   0  0  0  0  0  0  0  0  0  0  0  0
   21.9266   27.1734   21.3718 C   0  0  0  0  0  0  0  0  0  0  0  0
   21.6881   26.4993   22.3495 O   0  0  0  0  0  0  0  0  0  0  0  0
   21.0019   27.8413   20.7306 N   0  0  0  0  0  0  0  0  0  0  0  0
   21.2406   28.3770   19.9399 H   0  0  0  0  0  0  0  0  0  0  0  0
   20.0675   27.8081   21.0390 H   0  0  0  0  0  0  0  0  0  0  0  0
   19.1670   25.5069   17.8226 N   0  0  0  0  0  0  0  0  0  0  0  0
   18.2960   25.8133   17.3892 H   0  0  0  0  0  0  0  0  0  0  0  0
   18.9483   24.1912   18.2871 C   0  0  0  0  0  0  0  0  0  0  0  0
   17.5657   23.8524   18.7997 C   0  0  0  0  0  0  0  0  0  0  0  0
   15.5269   22.8948   17.8627 C   0  0  0  0  0  0  0  0  0  0  0  0
   14.8047   23.5248   18.6306 O   0  0  0  0  0  0  0  0  0  0  0  0
   16.8259   23.0352   17.8445 N   0  0  0  0  0  0  0  0  0  0  0  0
   17.3342   22.5624   17.1464 H   0  0  0  0  0  0  0  0  0  0  0  0
   14.9194   21.8464   16.9475 C   0  0  0  0  0  0  0  0  0  0  0  0
   13.9988   20.0837   18.3905 C   0  0  0  0  0  0  0  0  0  0  0  0
   15.1223   19.5934   18.5902 O   0  0  0  0  0  0  0  0  0  0  0  0
   13.8382   21.1768   17.6570 N   0  0  0  0  0  0  0  0  0  0  0  0
   12.9334   21.5587   17.5880 H   0  0  0  0  0  0  0  0  0  0  0  0
   12.7691   19.4191   19.0480 C   0  0  0  0  0  0  0  0  0  0  0  0
   10.7967   19.0055   17.6757 C   0  0  0  0  0  0  0  0  0  0  0  0
   10.2912   20.0629   18.0252 O   0  0  0  0  0  0  0  0  0  0  0  0
   10.0692   18.0218   16.7994 C   0  0  0  0  0  0  0  0  0  0  0  0
   11.9905   18.6287   18.1175 N   0  0  0  0  0  0  0  0  0  0  0  0
   12.3626   17.7748   17.7986 H   0  0  0  0  0  0  0  0  0  0  0  0
   13.2794   18.5878   20.2400 C   0  0  0  0  0  0  0  0  0  0  0  0
   13.6909   17.3261   19.7436 O   0  0  0  0  0  0  0  0  0  0  0  0
   12.1264   18.4394   21.2585 C   0  0  0  0  0  0  0  0  0  0  0  0
   12.9447   16.8948   19.2985 H   0  0  0  0  0  0  0  0  0  0  0  0
   14.4789   22.4370   15.6029 C   0  0  0  0  0  0  0  0  0  0  0  0
   14.9632   21.5736   14.4652 C   0  0  0  0  0  0  0  0  0  0  0  0
   12.9785   22.6959   15.5053 C   0  0  0  0  0  0  0  0  0  0  0  0
   12.1522   21.6054   14.8801 C   0  0  0  0  0  0  0  0  0  0  0  0
   17.5659   23.1938   20.1813 C   0  0  0  0  0  0  0  0  0  0  0  0
   18.1524   24.0044   21.2801 C   0  0  0  0  0  0  0  0  0  0  0  0
   19.5606   23.6285   21.6932 C   0  0  0  0  0  0  0  0  0  0  0  0
   19.8275   22.1372   21.6427 C   0  0  0  0  0  0  0  0  0  0  0  0
   19.8003   26.4443   15.5688 C   0  0  0  0  0  0  0  0  0  0  0  0
   18.3489   26.0504   15.3373 C   0  0  0  0  0  0  0  0  0  0  0  0
   18.4188   25.0256   14.2175 C   0  0  0  0  0  0  0  0  0  0  0  0
   17.7289   23.7531   14.7003 C   0  0  0  0  0  0  0  0  0  0  0  0
 50 51  2  0  0  0
 50 52  1  0  0  0
 53 49  1  0  0  0
 49 45  1  0  0  0
 49 55  1  0  0  0
 45 46  2  0  0  0
 55 56  1  0  0  0
 55 57  1  0  0  0
 47 44  1  0  0  0
 44 40  1  0  0  0
 44 59  1  0  0  0
 40 41  2  0  0  0
 59 61  1  0  0  0
 59 60  1  0  0  0
 61 62  1  0  0  0
 42 39  1  0  0  0
 39 38  1  0  0  0
 39 63  1  0  0  0
 63 64  1  0  0  0
 64 65  1  0  0  0
 65 66  1  0  0  0
 36  1  1  0  0  0
  1  2  1  0  0  0
  1 67  1  0  0  0
  2  3  2  0  0  0
 67 68  1  0  0  0
 68 69  1  0  0  0
 69 70  1  0  0  0
  4  6  1  0  0  0
  6  7  1  0  0  0
  6 29  1  0  0  0
  7  8  2  0  0  0
 29 30  1  0  0  0
 30 31  1  0  0  0
 31 32  2  0  0  0
 31 33  1  0  0  0
  9 11  1  0  0  0
 11 12  1  0  0  0
 11 17  1  0  0  0
 12 13  2  0  0  0
 17 18  1  0  0  0
 18 19  1  0  0  0
 19 20  1  0  0  0
 20 22  1  0  0  0
 22 23  1  0  0  0
 22 24  2  0  0  0
 50 53  1  0  0  0
 45 47  1  0  0  0
 40 42  1  0  0  0
 38 36  1  0  0  0
  2  4  1  0  0  0
  7  9  1  0  0  0
 12 14  1  0  0  0
 53 54  1  0  0  0
 56 58  1  0  0  0
 47 48  1  0  0  0
 42 43  1  0  0  0
 36 37  1  0  0  0
  4  5  1  0  0  0
 33 34  1  0  0  0
 33 35  1  0  0  0
  9 10  1  0  0  0
 20 21  1  0  0  0
 23 25  1  0  0  0
 23 26  1  0  0  0
 24 27  1  0  0  0
 24 28  1  0  0  0
 14 15  1  0  0  0
 14 16  1  0  0  0
M  CHG 1  24   1
M  END
> <minimizedAffinity>
-7.97969

$$$$
