2H21_SAM_A_801


 33 35  0  0  0  0  0  0  0  0999 V2000
   71.6853  128.6617   53.0234 C   0  0  0  0  0  0  0  0  0  0  0  0
   72.5990  129.3429   52.1199 O   0  0  0  0  0  0  0  0  0  0  0  0
   72.5534  127.6434   53.7349 C   0  0  0  0  0  0  0  0  0  0  0  0
   71.8246  126.5150   54.1957 O   0  0  0  0  0  0  0  0  0  0  0  0
   73.5862  127.3002   52.7053 C   0  0  0  0  0  0  0  0  0  0  0  0
   73.2117  126.3188   51.7600 O   0  0  0  0  0  0  0  0  0  0  0  0
   73.8544  128.6935   52.1376 C   0  0  0  0  0  0  0  0  0  0  0  0
   71.3859  126.0849   53.4450 H   0  0  0  0  0  0  0  0  0  0  0  0
   72.4142  126.6096   51.2906 H   0  0  0  0  0  0  0  0  0  0  0  0
   74.8405  129.4826   52.9347 N   0  0  0  0  0  0  0  0  0  0  0  0
   74.6578  130.5964   53.7499 C   0  0  0  0  0  0  0  0  0  0  0  0
   75.7529  131.0432   54.3189 N   0  0  0  0  0  0  0  0  0  0  0  0
   76.7369  130.1721   53.8515 C   0  0  0  0  0  0  0  0  0  0  0  0
   78.1444  130.0766   54.0830 C   0  0  0  0  0  0  0  0  0  0  0  0
   78.8154  130.9190   54.8682 N   0  0  0  0  0  0  0  0  0  0  0  0
   78.8404  129.0736   53.4581 N   0  0  0  0  0  0  0  0  0  0  0  0
   78.1741  128.2108   52.6508 C   0  0  0  0  0  0  0  0  0  0  0  0
   76.8536  128.1952   52.3562 N   0  0  0  0  0  0  0  0  0  0  0  0
   76.1877  129.2043   52.9959 C   0  0  0  0  0  0  0  0  0  0  0  0
   78.3397  131.6477   55.3285 H   0  0  0  0  0  0  0  0  0  0  0  0
   79.7868  130.8125   54.9880 H   0  0  0  0  0  0  0  0  0  0  0  0
   70.9930  129.6608   53.9446 C   0  0  0  0  0  0  0  0  0  0  0  0
   69.1894  129.6353   53.9531 S   0  0  0  0  0  0  0  0  0  0  0  0
   68.9035  131.3813   54.1825 C   0  0  0  0  0  0  0  0  0  0  0  0
   68.9177  129.3926   52.4296 C   0  0  0  0  0  0  0  0  0  0  0  0
   68.9411  130.5990   51.5392 C   0  0  0  0  0  0  0  0  0  0  0  0
   70.8907  131.1773   50.1341 N   0  0  0  0  0  0  0  0  0  0  0  0
   69.6457  130.4003   50.1694 C   0  0  0  0  0  0  0  0  0  0  0  0
   71.3495  131.0436   49.2330 H   0  0  0  0  0  0  0  0  0  0  0  0
   71.5096  130.8618   50.8810 H   0  0  0  0  0  0  0  0  0  0  0  0
   68.7182  130.8068   48.9711 C   0  0  0  0  0  0  0  0  0  0  0  0
   68.8785  130.2749   47.8502 O   0  0  0  0  0  0  0  0  0  0  0  0
   67.8211  131.6615   49.1412 O   0  0  0  0  0  0  0  0  0  0  0  0
 27 28  1  0  0  0
 28 31  1  0  0  0
 28 26  1  0  0  0
 31 32  2  0  0  0
 31 33  1  0  0  0
 26 25  1  0  0  0
 25 23  1  0  0  0
 23 24  1  0  0  0
 23 22  1  0  0  0
 22  1  1  0  0  0
  1  2  1  0  0  0
  1  3  1  0  0  0
  2  7  1  0  0  0
  3  4  1  0  0  0
  3  5  1  0  0  0
  5  6  1  0  0  0
  5  7  1  0  0  0
  7 10  1  0  0  0
 10 11  1  0  0  0
 10 19  1  0  0  0
 11 12  2  0  0  0
 12 13  1  0  0  0
 13 14  1  0  0  0
 13 19  2  0  0  0
 14 15  1  0  0  0
 14 16  2  0  0  0
 16 17  1  0  0  0
 17 18  2  0  0  0
 18 19  1  0  0  0
 27 29  1  0  0  0
 27 30  1  0  0  0
  4  8  1  0  0  0
  6  9  1  0  0  0
 15 20  1  0  0  0
 15 21  1  0  0  0
M  CHG 1  23   1
M  CHG 1  33  -1
M  END
> <minimizedAffinity>
-8.66875

$$$$
2H21_SAM_A_801


 33 35  0  0  0  0  0  0  0  0999 V2000
   72.1617  126.2727   50.0461 C   0  0  0  0  0  0  0  0  0  0  0  0
   71.1997  126.4818   51.1167 O   0  0  0  0  0  0  0  0  0  0  0  0
   71.4899  126.8588   48.8205 C   0  0  0  0  0  0  0  0  0  0  0  0
   71.9356  126.2715   47.6067 O   0  0  0  0  0  0  0  0  0  0  0  0
   70.0342  126.6287   49.0894 C   0  0  0  0  0  0  0  0  0  0  0  0
   69.5390  125.3499   48.7479 O   0  0  0  0  0  0  0  0  0  0  0  0
   69.9906  126.9765   50.5769 C   0  0  0  0  0  0  0  0  0  0  0  0
   71.7698  125.3161   47.6298 H   0  0  0  0  0  0  0  0  0  0  0  0
   70.0376  124.6710   49.2291 H   0  0  0  0  0  0  0  0  0  0  0  0
   69.8586  128.4400   50.8435 N   0  0  0  0  0  0  0  0  0  0  0  0
   69.5616  129.4917   49.9808 C   0  0  0  0  0  0  0  0  0  0  0  0
   69.5140  130.6719   50.5533 N   0  0  0  0  0  0  0  0  0  0  0  0
   69.8014  130.3932   51.8895 C   0  0  0  0  0  0  0  0  0  0  0  0
   69.9007  131.2124   53.0568 C   0  0  0  0  0  0  0  0  0  0  0  0
   69.7247  132.5335   53.0405 N   0  0  0  0  0  0  0  0  0  0  0  0
   70.2016  130.6098   54.2515 N   0  0  0  0  0  0  0  0  0  0  0  0
   70.3896  129.2669   54.2852 C   0  0  0  0  0  0  0  0  0  0  0  0
   70.3207  128.3892   53.2577 N   0  0  0  0  0  0  0  0  0  0  0  0
   70.0167  129.0196   52.0824 C   0  0  0  0  0  0  0  0  0  0  0  0
   69.5079  132.9908   52.1960 H   0  0  0  0  0  0  0  0  0  0  0  0
   69.8114  133.0520   53.8728 H   0  0  0  0  0  0  0  0  0  0  0  0
   73.5050  126.9038   50.3974 C   0  0  0  0  0  0  0  0  0  0  0  0
   74.6045  125.9307   51.4450 S   0  0  0  0  0  0  0  0  0  0  0  0
   76.1222  126.1887   50.5434 C   0  0  0  0  0  0  0  0  0  0  0  0
   74.7165  126.8890   52.6790 C   0  0  0  0  0  0  0  0  0  0  0  0
   75.0438  128.3240   52.3918 C   0  0  0  0  0  0  0  0  0  0  0  0
   73.1733  129.8972   52.0237 N   0  0  0  0  0  0  0  0  0  0  0  0
   74.0905  129.3654   53.0390 C   0  0  0  0  0  0  0  0  0  0  0  0
   72.5495  130.5803   52.4534 H   0  0  0  0  0  0  0  0  0  0  0  0
   72.6225  129.1342   51.6301 H   0  0  0  0  0  0  0  0  0  0  0  0
   74.8811  130.5356   53.7223 C   0  0  0  0  0  0  0  0  0  0  0  0
   76.0964  130.6962   53.4727 O   0  0  0  0  0  0  0  0  0  0  0  0
   74.2929  131.3043   54.5144 O   0  0  0  0  0  0  0  0  0  0  0  0
 27 28  1  0  0  0
 28 31  1  0  0  0
 28 26  1  0  0  0
 31 32  2  0  0  0
 31 33  1  0  0  0
 26 25  1  0  0  0
 25 23  1  0  0  0
 23 24  1  0  0  0
 23 22  1  0  0  0
 22  1  1  0  0  0
  1  2  1  0  0  0
  1  3  1  0  0  0
  2  7  1  0  0  0
  3  4  1  0  0  0
  3  5  1  0  0  0
  5  6  1  0  0  0
  5  7  1  0  0  0
  7 10  1  0  0  0
 10 11  1  0  0  0
 10 19  1  0  0  0
 11 12  2  0  0  0
 12 13  1  0  0  0
 13 14  1  0  0  0
 13 19  2  0  0  0
 14 15  1  0  0  0
 14 16  2  0  0  0
 16 17  1  0  0  0
 17 18  2  0  0  0
 18 19  1  0  0  0
 27 29  1  0  0  0
 27 30  1  0  0  0
  4  8  1  0  0  0
  6  9  1  0  0  0
 15 20  1  0  0  0
 15 21  1  0  0  0
M  CHG 1  23   1
M  CHG 1  33  -1
M  END
> <minimizedAffinity>
-8.26883

$$$$
2H21_SAM_A_801


 33 35  0  0  0  0  0  0  0  0999 V2000
   72.0592  126.5367   51.1783 C   0  0  0  0  0  0  0  0  0  0  0  0
   72.9700  127.4503   50.5068 O   0  0  0  0  0  0  0  0  0  0  0  0
   72.9338  125.8024   52.1747 C   0  0  0  0  0  0  0  0  0  0  0  0
   72.4392  124.5130   52.5059 O   0  0  0  0  0  0  0  0  0  0  0  0
   74.2676  125.7672   51.4933 C   0  0  0  0  0  0  0  0  0  0  0  0
   74.4556  124.7226   50.5602 O   0  0  0  0  0  0  0  0  0  0  0  0
   74.2965  127.1811   50.9142 C   0  0  0  0  0  0  0  0  0  0  0  0
   72.3637  123.9788   51.6998 H   0  0  0  0  0  0  0  0  0  0  0  0
   73.7750  124.7781   49.8712 H   0  0  0  0  0  0  0  0  0  0  0  0
   74.7654  128.2139   51.8857 N   0  0  0  0  0  0  0  0  0  0  0  0
   74.0565  129.1978   52.5698 C   0  0  0  0  0  0  0  0  0  0  0  0
   74.7863  129.9440   53.3658 N   0  0  0  0  0  0  0  0  0  0  0  0
   76.0716  129.4275   53.2022 C   0  0  0  0  0  0  0  0  0  0  0  0
   77.3371  129.7615   53.7774 C   0  0  0  0  0  0  0  0  0  0  0  0
   77.5030  130.7490   54.6571 N   0  0  0  0  0  0  0  0  0  0  0  0
   78.4368  129.0355   53.3976 N   0  0  0  0  0  0  0  0  0  0  0  0
   78.2870  128.0306   52.4988 C   0  0  0  0  0  0  0  0  0  0  0  0
   77.1509  127.6191   51.8899 N   0  0  0  0  0  0  0  0  0  0  0  0
   76.0732  128.3598   52.2911 C   0  0  0  0  0  0  0  0  0  0  0  0
   76.7299  131.2856   54.9464 H   0  0  0  0  0  0  0  0  0  0  0  0
   78.3986  130.9418   55.0175 H   0  0  0  0  0  0  0  0  0  0  0  0
   70.8914  127.2976   51.7976 C   0  0  0  0  0  0  0  0  0  0  0  0
   69.9279  128.3412   50.6859 S   0  0  0  0  0  0  0  0  0  0  0  0
   68.3173  128.0737   51.4051 C   0  0  0  0  0  0  0  0  0  0  0  0
   70.3573  129.7549   51.2061 C   0  0  0  0  0  0  0  0  0  0  0  0
   69.2554  130.6910   51.6043 C   0  0  0  0  0  0  0  0  0  0  0  0
   69.8315  132.5550   53.1219 N   0  0  0  0  0  0  0  0  0  0  0  0
   69.3034  131.1861   53.0757 C   0  0  0  0  0  0  0  0  0  0  0  0
   69.8611  132.8755   54.0898 H   0  0  0  0  0  0  0  0  0  0  0  0
   69.2273  133.1710   52.5780 H   0  0  0  0  0  0  0  0  0  0  0  0
   70.1666  130.2405   53.9823 C   0  0  0  0  0  0  0  0  0  0  0  0
   69.6533  129.2133   54.4786 O   0  0  0  0  0  0  0  0  0  0  0  0
   71.3657  130.5172   54.2055 O   0  0  0  0  0  0  0  0  0  0  0  0
 27 28  1  0  0  0
 28 31  1  0  0  0
 28 26  1  0  0  0
 31 32  2  0  0  0
 31 33  1  0  0  0
 26 25  1  0  0  0
 25 23  1  0  0  0
 23 24  1  0  0  0
 23 22  1  0  0  0
 22  1  1  0  0  0
  1  2  1  0  0  0
  1  3  1  0  0  0
  2  7  1  0  0  0
  3  4  1  0  0  0
  3  5  1  0  0  0
  5  6  1  0  0  0
  5  7  1  0  0  0
  7 10  1  0  0  0
 10 11  1  0  0  0
 10 19  1  0  0  0
 11 12  2  0  0  0
 12 13  1  0  0  0
 13 14  1  0  0  0
 13 19  2  0  0  0
 14 15  1  0  0  0
 14 16  2  0  0  0
 16 17  1  0  0  0
 17 18  2  0  0  0
 18 19  1  0  0  0
 27 29  1  0  0  0
 27 30  1  0  0  0
  4  8  1  0  0  0
  6  9  1  0  0  0
 15 20  1  0  0  0
 15 21  1  0  0  0
M  CHG 1  23   1
M  CHG 1  33  -1
M  END
> <minimizedAffinity>
-8.14369

$$$$
2H21_SAM_A_801


 33 35  0  0  0  0  0  0  0  0999 V2000
   74.2490  126.6206   52.0040 C   0  0  0  0  0  0  0  0  0  0  0  0
   73.4444  126.5142   53.2109 O   0  0  0  0  0  0  0  0  0  0  0  0
   73.2819  127.1295   50.9539 C   0  0  0  0  0  0  0  0  0  0  0  0
   73.6494  126.7605   49.6327 O   0  0  0  0  0  0  0  0  0  0  0  0
   71.9722  126.5461   51.3884 C   0  0  0  0  0  0  0  0  0  0  0  0
   71.7214  125.2183   50.9743 O   0  0  0  0  0  0  0  0  0  0  0  0
   72.0872  126.7549   52.8979 C   0  0  0  0  0  0  0  0  0  0  0  0
   73.7023  125.7940   49.5699 H   0  0  0  0  0  0  0  0  0  0  0  0
   72.4254  124.6383   51.3043 H   0  0  0  0  0  0  0  0  0  0  0  0
   71.6818  128.1215   53.3434 N   0  0  0  0  0  0  0  0  0  0  0  0
   72.4435  129.1648   53.8630 C   0  0  0  0  0  0  0  0  0  0  0  0
   71.7626  130.2505   54.1466 N   0  0  0  0  0  0  0  0  0  0  0  0
   70.4557  129.9115   53.7962 C   0  0  0  0  0  0  0  0  0  0  0  0
   69.2190  130.6275   53.8348 C   0  0  0  0  0  0  0  0  0  0  0  0
   69.1122  131.8795   54.2793 N   0  0  0  0  0  0  0  0  0  0  0  0
   68.0842  129.9908   53.4016 N   0  0  0  0  0  0  0  0  0  0  0  0
   68.1738  128.7143   52.9513 C   0  0  0  0  0  0  0  0  0  0  0  0
   69.2776  127.9367   52.8634 N   0  0  0  0  0  0  0  0  0  0  0  0
   70.3915  128.6002   53.2996 C   0  0  0  0  0  0  0  0  0  0  0  0
   69.9114  132.3593   54.5960 H   0  0  0  0  0  0  0  0  0  0  0  0
   68.2341  132.3246   54.2909 H   0  0  0  0  0  0  0  0  0  0  0  0
   75.4599  127.5173   52.2405 C   0  0  0  0  0  0  0  0  0  0  0  0
   77.0671  126.8417   51.7781 S   0  0  0  0  0  0  0  0  0  0  0  0
   77.0134  127.2082   50.0329 C   0  0  0  0  0  0  0  0  0  0  0  0
   78.0040  127.9437   52.3793 C   0  0  0  0  0  0  0  0  0  0  0  0
   77.3415  129.1900   52.8859 C   0  0  0  0  0  0  0  0  0  0  0  0
   77.1223  130.7904   54.7568 N   0  0  0  0  0  0  0  0  0  0  0  0
   78.0569  129.8862   54.0758 C   0  0  0  0  0  0  0  0  0  0  0  0
   77.5966  131.2450   55.5371 H   0  0  0  0  0  0  0  0  0  0  0  0
   76.3269  130.2565   55.1069 H   0  0  0  0  0  0  0  0  0  0  0  0
   79.3321  130.6732   53.6110 C   0  0  0  0  0  0  0  0  0  0  0  0
   80.3210  130.7632   54.3719 O   0  0  0  0  0  0  0  0  0  0  0  0
   79.3553  131.2078   52.4806 O   0  0  0  0  0  0  0  0  0  0  0  0
 27 28  1  0  0  0
 28 31  1  0  0  0
 28 26  1  0  0  0
 31 32  2  0  0  0
 31 33  1  0  0  0
 26 25  1  0  0  0
 25 23  1  0  0  0
 23 24  1  0  0  0
 23 22  1  0  0  0
 22  1  1  0  0  0
  1  2  1  0  0  0
  1  3  1  0  0  0
  2  7  1  0  0  0
  3  4  1  0  0  0
  3  5  1  0  0  0
  5  6  1  0  0  0
  5  7  1  0  0  0
  7 10  1  0  0  0
 10 11  1  0  0  0
 10 19  1  0  0  0
 11 12  2  0  0  0
 12 13  1  0  0  0
 13 14  1  0  0  0
 13 19  2  0  0  0
 14 15  1  0  0  0
 14 16  2  0  0  0
 16 17  1  0  0  0
 17 18  2  0  0  0
 18 19  1  0  0  0
 27 29  1  0  0  0
 27 30  1  0  0  0
  4  8  1  0  0  0
  6  9  1  0  0  0
 15 20  1  0  0  0
 15 21  1  0  0  0
M  CHG 1  23   1
M  CHG 1  33  -1
M  END
> <minimizedAffinity>
-7.99560

$$$$
2H21_SAM_A_801


 33 35  0  0  0  0  0  0  0  0999 V2000
   73.2777  126.2395   52.1568 C   0  0  0  0  0  0  0  0  0  0  0  0
   72.1925  126.2616   53.1249 O   0  0  0  0  0  0  0  0  0  0  0  0
   72.7598  127.0655   50.9964 C   0  0  0  0  0  0  0  0  0  0  0  0
   73.3499  126.7120   49.7540 O   0  0  0  0  0  0  0  0  0  0  0  0
   71.2822  126.8221   51.0400 C   0  0  0  0  0  0  0  0  0  0  0  0
   70.8325  125.6445   50.4010 O   0  0  0  0  0  0  0  0  0  0  0  0
   71.0579  126.8787   52.5506 C   0  0  0  0  0  0  0  0  0  0  0  0
   73.1828  125.7740   49.5719 H   0  0  0  0  0  0  0  0  0  0  0  0
   71.2691  124.8745   50.7977 H   0  0  0  0  0  0  0  0  0  0  0  0
   70.8942  128.2665   53.0775 N   0  0  0  0  0  0  0  0  0  0  0  0
   71.3955  128.8583   54.2338 C   0  0  0  0  0  0  0  0  0  0  0  0
   71.0622  130.1179   54.3921 N   0  0  0  0  0  0  0  0  0  0  0  0
   70.2825  130.3883   53.2676 C   0  0  0  0  0  0  0  0  0  0  0  0
   69.6128  131.5636   52.8051 C   0  0  0  0  0  0  0  0  0  0  0  0
   69.6228  132.7199   53.4680 N   0  0  0  0  0  0  0  0  0  0  0  0
   68.9177  131.4951   51.6249 N   0  0  0  0  0  0  0  0  0  0  0  0
   68.8923  130.3244   50.9400 C   0  0  0  0  0  0  0  0  0  0  0  0
   69.4834  129.1527   51.2695 N   0  0  0  0  0  0  0  0  0  0  0  0
   70.1701  129.2542   52.4481 C   0  0  0  0  0  0  0  0  0  0  0  0
   70.1142  132.7959   54.3177 H   0  0  0  0  0  0  0  0  0  0  0  0
   69.1387  133.4979   53.1080 H   0  0  0  0  0  0  0  0  0  0  0  0
   74.5681  126.7599   52.7813 C   0  0  0  0  0  0  0  0  0  0  0  0
   75.2967  128.2264   52.0249 S   0  0  0  0  0  0  0  0  0  0  0  0
   74.5398  129.4619   53.0658 C   0  0  0  0  0  0  0  0  0  0  0  0
   76.7622  128.1063   52.5649 C   0  0  0  0  0  0  0  0  0  0  0  0
   77.8083  128.9218   51.8651 C   0  0  0  0  0  0  0  0  0  0  0  0
   79.5690  130.6420   52.0886 N   0  0  0  0  0  0  0  0  0  0  0  0
   78.2786  130.1923   52.6247 C   0  0  0  0  0  0  0  0  0  0  0  0
   79.8735  131.4762   52.5905 H   0  0  0  0  0  0  0  0  0  0  0  0
   79.4681  130.8595   51.0972 H   0  0  0  0  0  0  0  0  0  0  0  0
   78.3904  129.9414   54.1694 C   0  0  0  0  0  0  0  0  0  0  0  0
   79.3171  129.2324   54.6205 O   0  0  0  0  0  0  0  0  0  0  0  0
   77.5520  130.4517   54.9446 O   0  0  0  0  0  0  0  0  0  0  0  0
 27 28  1  0  0  0
 28 31  1  0  0  0
 28 26  1  0  0  0
 31 32  2  0  0  0
 31 33  1  0  0  0
 26 25  1  0  0  0
 25 23  1  0  0  0
 23 24  1  0  0  0
 23 22  1  0  0  0
 22  1  1  0  0  0
  1  2  1  0  0  0
  1  3  1  0  0  0
  2  7  1  0  0  0
  3  4  1  0  0  0
  3  5  1  0  0  0
  5  6  1  0  0  0
  5  7  1  0  0  0
  7 10  1  0  0  0
 10 11  1  0  0  0
 10 19  1  0  0  0
 11 12  2  0  0  0
 12 13  1  0  0  0
 13 14  1  0  0  0
 13 19  2  0  0  0
 14 15  1  0  0  0
 14 16  2  0  0  0
 16 17  1  0  0  0
 17 18  2  0  0  0
 18 19  1  0  0  0
 27 29  1  0  0  0
 27 30  1  0  0  0
  4  8  1  0  0  0
  6  9  1  0  0  0
 15 20  1  0  0  0
 15 21  1  0  0  0
M  CHG 1  23   1
M  CHG 1  33  -1
M  END
> <minimizedAffinity>
-7.77494

$$$$
2H21_SAM_A_801


 33 35  0  0  0  0  0  0  0  0999 V2000
   74.2992  126.6457   52.1134 C   0  0  0  0  0  0  0  0  0  0  0  0
   73.4484  126.5204   53.2864 O   0  0  0  0  0  0  0  0  0  0  0  0
   73.3720  127.1654   51.0331 C   0  0  0  0  0  0  0  0  0  0  0  0
   73.7922  126.8153   49.7226 O   0  0  0  0  0  0  0  0  0  0  0  0
   72.0485  126.5718   51.4082 C   0  0  0  0  0  0  0  0  0  0  0  0
   71.8191  125.2490   50.9671 O   0  0  0  0  0  0  0  0  0  0  0  0
   72.1035  126.7608   52.9237 C   0  0  0  0  0  0  0  0  0  0  0  0
   73.8512  125.8499   49.6490 H   0  0  0  0  0  0  0  0  0  0  0  0
   72.5119  124.6669   51.3166 H   0  0  0  0  0  0  0  0  0  0  0  0
   71.6758  128.1200   53.3711 N   0  0  0  0  0  0  0  0  0  0  0  0
   72.4151  129.1635   53.9216 C   0  0  0  0  0  0  0  0  0  0  0  0
   71.7185  130.2414   54.1968 N   0  0  0  0  0  0  0  0  0  0  0  0
   70.4244  129.8965   53.8072 C   0  0  0  0  0  0  0  0  0  0  0  0
   69.1818  130.6032   53.8186 C   0  0  0  0  0  0  0  0  0  0  0  0
   69.0534  131.8499   54.2721 N   0  0  0  0  0  0  0  0  0  0  0  0
   68.0641  129.9626   53.3480 N   0  0  0  0  0  0  0  0  0  0  0  0
   68.1756  128.6914   52.8880 C   0  0  0  0  0  0  0  0  0  0  0  0
   69.2872  127.9226   52.8231 N   0  0  0  0  0  0  0  0  0  0  0  0
   70.3837  128.5897   53.2963 C   0  0  0  0  0  0  0  0  0  0  0  0
   69.8400  132.3323   54.6154 H   0  0  0  0  0  0  0  0  0  0  0  0
   68.1720  132.2885   54.2637 H   0  0  0  0  0  0  0  0  0  0  0  0
   75.4964  127.5431   52.4090 C   0  0  0  0  0  0  0  0  0  0  0  0
   76.8909  127.4294   51.2706 S   0  0  0  0  0  0  0  0  0  0  0  0
   78.0527  128.4344   52.1778 C   0  0  0  0  0  0  0  0  0  0  0  0
   77.3465  125.9573   51.5511 C   0  0  0  0  0  0  0  0  0  0  0  0
   78.8233  125.6965   51.5531 C   0  0  0  0  0  0  0  0  0  0  0  0
   78.0638  123.5166   52.4368 N   0  0  0  0  0  0  0  0  0  0  0  0
   79.2536  124.3165   52.1214 C   0  0  0  0  0  0  0  0  0  0  0  0
   78.3515  122.6118   52.8095 H   0  0  0  0  0  0  0  0  0  0  0  0
   77.5142  123.3760   51.5891 H   0  0  0  0  0  0  0  0  0  0  0  0
   80.1601  124.4656   53.3932 C   0  0  0  0  0  0  0  0  0  0  0  0
   80.8985  125.4676   53.5186 O   0  0  0  0  0  0  0  0  0  0  0  0
   80.1409  123.5816   54.2777 O   0  0  0  0  0  0  0  0  0  0  0  0
 27 28  1  0  0  0
 28 31  1  0  0  0
 28 26  1  0  0  0
 31 32  2  0  0  0
 31 33  1  0  0  0
 26 25  1  0  0  0
 25 23  1  0  0  0
 23 24  1  0  0  0
 23 22  1  0  0  0
 22  1  1  0  0  0
  1  2  1  0  0  0
  1  3  1  0  0  0
  2  7  1  0  0  0
  3  4  1  0  0  0
  3  5  1  0  0  0
  5  6  1  0  0  0
  5  7  1  0  0  0
  7 10  1  0  0  0
 10 11  1  0  0  0
 10 19  1  0  0  0
 11 12  2  0  0  0
 12 13  1  0  0  0
 13 14  1  0  0  0
 13 19  2  0  0  0
 14 15  1  0  0  0
 14 16  2  0  0  0
 16 17  1  0  0  0
 17 18  2  0  0  0
 18 19  1  0  0  0
 27 29  1  0  0  0
 27 30  1  0  0  0
  4  8  1  0  0  0
  6  9  1  0  0  0
 15 20  1  0  0  0
 15 21  1  0  0  0
M  CHG 1  23   1
M  CHG 1  33  -1
M  END
> <minimizedAffinity>
-7.67148

$$$$
2H21_SAM_A_801


 33 35  0  0  0  0  0  0  0  0999 V2000
   72.7597  126.3616   52.1437 C   0  0  0  0  0  0  0  0  0  0  0  0
   71.3922  126.6172   52.5677 O   0  0  0  0  0  0  0  0  0  0  0  0
   72.7715  126.7354   50.6750 C   0  0  0  0  0  0  0  0  0  0  0  0
   73.7656  126.0447   49.9324 O   0  0  0  0  0  0  0  0  0  0  0  0
   71.3757  126.4175   50.2333 C   0  0  0  0  0  0  0  0  0  0  0  0
   71.1309  125.0694   49.8870 O   0  0  0  0  0  0  0  0  0  0  0  0
   70.5997  126.9386   51.4422 C   0  0  0  0  0  0  0  0  0  0  0  0
   73.6232  125.0886   50.0127 H   0  0  0  0  0  0  0  0  0  0  0  0
   71.3367  124.4987   50.6438 H   0  0  0  0  0  0  0  0  0  0  0  0
   70.3333  128.4073   51.3920 N   0  0  0  0  0  0  0  0  0  0  0  0
   70.1646  129.2575   50.3024 C   0  0  0  0  0  0  0  0  0  0  0  0
   69.9327  130.5105   50.6173 N   0  0  0  0  0  0  0  0  0  0  0  0
   69.9500  130.5003   52.0120 C   0  0  0  0  0  0  0  0  0  0  0  0
   69.7575  131.5185   52.9969 C   0  0  0  0  0  0  0  0  0  0  0  0
   69.5152  132.7934   52.6933 N   0  0  0  0  0  0  0  0  0  0  0  0
   69.8356  131.1672   54.3203 N   0  0  0  0  0  0  0  0  0  0  0  0
   70.0873  129.8750   54.6472 C   0  0  0  0  0  0  0  0  0  0  0  0
   70.2835  128.8271   53.8139 N   0  0  0  0  0  0  0  0  0  0  0  0
   70.1967  129.2088   52.5032 C   0  0  0  0  0  0  0  0  0  0  0  0
   69.4542  133.0721   51.7510 H   0  0  0  0  0  0  0  0  0  0  0  0
   69.3972  133.4566   53.4113 H   0  0  0  0  0  0  0  0  0  0  0  0
   73.7464  127.1420   53.0060 C   0  0  0  0  0  0  0  0  0  0  0  0
   74.2727  128.7486   52.3773 S   0  0  0  0  0  0  0  0  0  0  0  0
   73.6416  129.7670   53.6991 C   0  0  0  0  0  0  0  0  0  0  0  0
   75.8110  128.6552   52.6576 C   0  0  0  0  0  0  0  0  0  0  0  0
   76.4590  129.8587   53.2744 C   0  0  0  0  0  0  0  0  0  0  0  0
   78.1829  130.6828   54.8423 N   0  0  0  0  0  0  0  0  0  0  0  0
   77.8663  129.6159   53.8851 C   0  0  0  0  0  0  0  0  0  0  0  0
   79.1076  130.5190   55.2405 H   0  0  0  0  0  0  0  0  0  0  0  0
   77.4874  130.6876   55.5885 H   0  0  0  0  0  0  0  0  0  0  0  0
   78.9762  129.5318   52.7795 C   0  0  0  0  0  0  0  0  0  0  0  0
   79.0197  130.3926   51.8729 O   0  0  0  0  0  0  0  0  0  0  0  0
   79.8142  128.6038   52.8089 O   0  0  0  0  0  0  0  0  0  0  0  0
 27 28  1  0  0  0
 28 31  1  0  0  0
 28 26  1  0  0  0
 31 32  2  0  0  0
 31 33  1  0  0  0
 26 25  1  0  0  0
 25 23  1  0  0  0
 23 24  1  0  0  0
 23 22  1  0  0  0
 22  1  1  0  0  0
  1  2  1  0  0  0
  1  3  1  0  0  0
  2  7  1  0  0  0
  3  4  1  0  0  0
  3  5  1  0  0  0
  5  6  1  0  0  0
  5  7  1  0  0  0
  7 10  1  0  0  0
 10 11  1  0  0  0
 10 19  1  0  0  0
 11 12  2  0  0  0
 12 13  1  0  0  0
 13 14  1  0  0  0
 13 19  2  0  0  0
 14 15  1  0  0  0
 14 16  2  0  0  0
 16 17  1  0  0  0
 17 18  2  0  0  0
 18 19  1  0  0  0
 27 29  1  0  0  0
 27 30  1  0  0  0
  4  8  1  0  0  0
  6  9  1  0  0  0
 15 20  1  0  0  0
 15 21  1  0  0  0
M  CHG 1  23   1
M  CHG 1  33  -1
M  END
> <minimizedAffinity>
-7.62080

$$$$
2H21_SAM_A_801


 33 35  0  0  0  0  0  0  0  0999 V2000
   69.0136  128.4724   53.3092 C   0  0  0  0  0  0  0  0  0  0  0  0
   69.8860  127.7761   54.2416 O   0  0  0  0  0  0  0  0  0  0  0  0
   69.7420  129.7678   53.0123 C   0  0  0  0  0  0  0  0  0  0  0  0
   68.8706  130.8218   52.6297 O   0  0  0  0  0  0  0  0  0  0  0  0
   70.4783  130.0426   54.2879 C   0  0  0  0  0  0  0  0  0  0  0  0
   69.7365  130.6929   55.2998 O   0  0  0  0  0  0  0  0  0  0  0  0
   70.9484  128.6273   54.6219 C   0  0  0  0  0  0  0  0  0  0  0  0
   68.2240  130.9790   53.3355 H   0  0  0  0  0  0  0  0  0  0  0  0
   68.9552  130.1618   55.5199 H   0  0  0  0  0  0  0  0  0  0  0  0
   72.2084  128.2367   53.9217 N   0  0  0  0  0  0  0  0  0  0  0  0
   72.5468  127.0579   53.2625 C   0  0  0  0  0  0  0  0  0  0  0  0
   73.7516  127.0491   52.7419 N   0  0  0  0  0  0  0  0  0  0  0  0
   74.2563  128.3055   53.0770 C   0  0  0  0  0  0  0  0  0  0  0  0
   75.5013  128.9576   52.8154 C   0  0  0  0  0  0  0  0  0  0  0  0
   76.4977  128.3873   52.1383 N   0  0  0  0  0  0  0  0  0  0  0  0
   75.6828  130.2302   53.2933 N   0  0  0  0  0  0  0  0  0  0  0  0
   74.6811  130.8236   53.9895 C   0  0  0  0  0  0  0  0  0  0  0  0
   73.4655  130.3158   54.2979 N   0  0  0  0  0  0  0  0  0  0  0  0
   73.3144  129.0486   53.8056 C   0  0  0  0  0  0  0  0  0  0  0  0
   76.3932  127.4745   51.7844 H   0  0  0  0  0  0  0  0  0  0  0  0
   77.3381  128.8788   51.9920 H   0  0  0  0  0  0  0  0  0  0  0  0
   68.7318  127.6070   52.0854 C   0  0  0  0  0  0  0  0  0  0  0  0
   69.8233  127.8342   50.6675 S   0  0  0  0  0  0  0  0  0  0  0  0
   69.7297  126.1835   49.9972 C   0  0  0  0  0  0  0  0  0  0  0  0
   68.8875  128.6842   49.7425 C   0  0  0  0  0  0  0  0  0  0  0  0
   69.5526  129.4879   48.6652 C   0  0  0  0  0  0  0  0  0  0  0  0
   70.6147  131.2944   49.9760 N   0  0  0  0  0  0  0  0  0  0  0  0
   69.6263  131.0172   48.9267 C   0  0  0  0  0  0  0  0  0  0  0  0
   70.6594  132.2994   50.1440 H   0  0  0  0  0  0  0  0  0  0  0  0
   71.5304  130.9584   49.6778 H   0  0  0  0  0  0  0  0  0  0  0  0
   68.2296  131.6093   49.3266 C   0  0  0  0  0  0  0  0  0  0  0  0
   68.1242  132.3220   50.3493 O   0  0  0  0  0  0  0  0  0  0  0  0
   67.2260  131.3666   48.6208 O   0  0  0  0  0  0  0  0  0  0  0  0
 27 28  1  0  0  0
 28 31  1  0  0  0
 28 26  1  0  0  0
 31 32  2  0  0  0
 31 33  1  0  0  0
 26 25  1  0  0  0
 25 23  1  0  0  0
 23 24  1  0  0  0
 23 22  1  0  0  0
 22  1  1  0  0  0
  1  2  1  0  0  0
  1  3  1  0  0  0
  2  7  1  0  0  0
  3  4  1  0  0  0
  3  5  1  0  0  0
  5  6  1  0  0  0
  5  7  1  0  0  0
  7 10  1  0  0  0
 10 11  1  0  0  0
 10 19  1  0  0  0
 11 12  2  0  0  0
 12 13  1  0  0  0
 13 14  1  0  0  0
 13 19  2  0  0  0
 14 15  1  0  0  0
 14 16  2  0  0  0
 16 17  1  0  0  0
 17 18  2  0  0  0
 18 19  1  0  0  0
 27 29  1  0  0  0
 27 30  1  0  0  0
  4  8  1  0  0  0
  6  9  1  0  0  0
 15 20  1  0  0  0
 15 21  1  0  0  0
M  CHG 1  23   1
M  CHG 1  33  -1
M  END
> <minimizedAffinity>
-7.56745

$$$$
2H21_SAM_A_801


 33 35  0  0  0  0  0  0  0  0999 V2000
   72.5357  126.3458   50.9044 C   0  0  0  0  0  0  0  0  0  0  0  0
   73.4815  127.2714   50.3010 O   0  0  0  0  0  0  0  0  0  0  0  0
   73.3341  125.6498   51.9884 C   0  0  0  0  0  0  0  0  0  0  0  0
   72.8423  124.3538   52.2971 O   0  0  0  0  0  0  0  0  0  0  0  0
   74.7243  125.6374   51.4303 C   0  0  0  0  0  0  0  0  0  0  0  0
   75.0204  124.5832   50.5368 O   0  0  0  0  0  0  0  0  0  0  0  0
   74.7719  127.0423   50.8307 C   0  0  0  0  0  0  0  0  0  0  0  0
   72.8525  123.8051   51.4973 H   0  0  0  0  0  0  0  0  0  0  0  0
   74.4036  124.6106   49.7887 H   0  0  0  0  0  0  0  0  0  0  0  0
   75.1266  128.1019   51.8215 N   0  0  0  0  0  0  0  0  0  0  0  0
   74.3273  129.0499   52.4548 C   0  0  0  0  0  0  0  0  0  0  0  0
   74.9677  129.8362   53.2881 N   0  0  0  0  0  0  0  0  0  0  0  0
   76.2857  129.3871   53.2061 C   0  0  0  0  0  0  0  0  0  0  0  0
   77.4948  129.7891   53.8542 C   0  0  0  0  0  0  0  0  0  0  0  0
   77.5555  130.7872   54.7355 N   0  0  0  0  0  0  0  0  0  0  0  0
   78.6519  129.1202   53.5466 N   0  0  0  0  0  0  0  0  0  0  0  0
   78.6093  128.1054   52.6474 C   0  0  0  0  0  0  0  0  0  0  0  0
   77.5352  127.6327   51.9738 N   0  0  0  0  0  0  0  0  0  0  0  0
   76.3981  128.3175   52.3041 C   0  0  0  0  0  0  0  0  0  0  0  0
   76.7394  131.2836   54.9739 H   0  0  0  0  0  0  0  0  0  0  0  0
   78.4163  131.0280   55.1480 H   0  0  0  0  0  0  0  0  0  0  0  0
   71.2992  127.0868   51.4025 C   0  0  0  0  0  0  0  0  0  0  0  0
   70.1722  127.7146   50.1418 S   0  0  0  0  0  0  0  0  0  0  0  0
   69.8095  126.1720   49.3225 C   0  0  0  0  0  0  0  0  0  0  0  0
   68.9094  127.9929   51.0259 C   0  0  0  0  0  0  0  0  0  0  0  0
   68.8901  129.2845   51.7877 C   0  0  0  0  0  0  0  0  0  0  0  0
   70.2131  131.3195   52.2547 N   0  0  0  0  0  0  0  0  0  0  0  0
   69.7554  130.4246   51.1847 C   0  0  0  0  0  0  0  0  0  0  0  0
   70.7806  132.0662   51.8538 H   0  0  0  0  0  0  0  0  0  0  0  0
   70.7712  130.7905   52.9248 H   0  0  0  0  0  0  0  0  0  0  0  0
   68.9729  131.2377   50.0948 C   0  0  0  0  0  0  0  0  0  0  0  0
   68.1607  132.1238   50.4414 O   0  0  0  0  0  0  0  0  0  0  0  0
   69.1644  130.9969   48.8825 O   0  0  0  0  0  0  0  0  0  0  0  0
 27 28  1  0  0  0
 28 31  1  0  0  0
 28 26  1  0  0  0
 31 32  2  0  0  0
 31 33  1  0  0  0
 26 25  1  0  0  0
 25 23  1  0  0  0
 23 24  1  0  0  0
 23 22  1  0  0  0
 22  1  1  0  0  0
  1  2  1  0  0  0
  1  3  1  0  0  0
  2  7  1  0  0  0
  3  4  1  0  0  0
  3  5  1  0  0  0
  5  6  1  0  0  0
  5  7  1  0  0  0
  7 10  1  0  0  0
 10 11  1  0  0  0
 10 19  1  0  0  0
 11 12  2  0  0  0
 12 13  1  0  0  0
 13 14  1  0  0  0
 13 19  2  0  0  0
 14 15  1  0  0  0
 14 16  2  0  0  0
 16 17  1  0  0  0
 17 18  2  0  0  0
 18 19  1  0  0  0
 27 29  1  0  0  0
 27 30  1  0  0  0
  4  8  1  0  0  0
  6  9  1  0  0  0
 15 20  1  0  0  0
 15 21  1  0  0  0
M  CHG 1  23   1
M  CHG 1  33  -1
M  END
> <minimizedAffinity>
-7.53394

$$$$
2H21_SAM_A_801


 33 35  0  0  0  0  0  0  0  0999 V2000
   72.7833  125.9696   51.7462 C   0  0  0  0  0  0  0  0  0  0  0  0
   71.4608  126.2218   52.2964 O   0  0  0  0  0  0  0  0  0  0  0  0
   72.6992  126.4812   50.3221 C   0  0  0  0  0  0  0  0  0  0  0  0
   73.6107  125.8369   49.4441 O   0  0  0  0  0  0  0  0  0  0  0  0
   71.2642  126.2461   49.9617 C   0  0  0  0  0  0  0  0  0  0  0  0
   70.9472  124.9445   49.5116 O   0  0  0  0  0  0  0  0  0  0  0  0
   70.5988  126.6711   51.2702 C   0  0  0  0  0  0  0  0  0  0  0  0
   73.4411  124.8819   49.4459 H   0  0  0  0  0  0  0  0  0  0  0  0
   71.1885  124.2987   50.1940 H   0  0  0  0  0  0  0  0  0  0  0  0
   70.3812  128.1447   51.3773 N   0  0  0  0  0  0  0  0  0  0  0  0
   70.1598  129.0990   50.3879 C   0  0  0  0  0  0  0  0  0  0  0  0
   69.9968  130.3223   50.8348 N   0  0  0  0  0  0  0  0  0  0  0  0
   70.1201  130.1792   52.2168 C   0  0  0  0  0  0  0  0  0  0  0  0
   70.0394  131.1042   53.3038 C   0  0  0  0  0  0  0  0  0  0  0  0
   69.8195  132.4085   53.1397 N   0  0  0  0  0  0  0  0  0  0  0  0
   70.2059  130.6268   54.5787 N   0  0  0  0  0  0  0  0  0  0  0  0
   70.4362  129.3028   54.7636 C   0  0  0  0  0  0  0  0  0  0  0  0
   70.5313  128.3338   53.8240 N   0  0  0  0  0  0  0  0  0  0  0  0
   70.3581  128.8405   52.5653 C   0  0  0  0  0  0  0  0  0  0  0  0
   69.6966  132.7769   52.2350 H   0  0  0  0  0  0  0  0  0  0  0  0
   69.7801  133.0035   53.9230 H   0  0  0  0  0  0  0  0  0  0  0  0
   73.8581  126.6363   52.5986 C   0  0  0  0  0  0  0  0  0  0  0  0
   74.6897  128.0648   51.8767 S   0  0  0  0  0  0  0  0  0  0  0  0
   74.2783  129.2679   53.1281 C   0  0  0  0  0  0  0  0  0  0  0  0
   76.1801  127.6862   52.1749 C   0  0  0  0  0  0  0  0  0  0  0  0
   77.1539  127.8360   51.0443 C   0  0  0  0  0  0  0  0  0  0  0  0
   76.3302  126.7262   48.9951 N   0  0  0  0  0  0  0  0  0  0  0  0
   77.2796  126.6032   50.1079 C   0  0  0  0  0  0  0  0  0  0  0  0
   76.4165  125.9147   48.3833 H   0  0  0  0  0  0  0  0  0  0  0  0
   76.5343  127.5741   48.4661 H   0  0  0  0  0  0  0  0  0  0  0  0
   77.0412  125.2576   50.8785 C   0  0  0  0  0  0  0  0  0  0  0  0
   77.8640  124.8792   51.7416 O   0  0  0  0  0  0  0  0  0  0  0  0
   76.0286  124.5679   50.6271 O   0  0  0  0  0  0  0  0  0  0  0  0
 27 28  1  0  0  0
 28 31  1  0  0  0
 28 26  1  0  0  0
 31 32  2  0  0  0
 31 33  1  0  0  0
 26 25  1  0  0  0
 25 23  1  0  0  0
 23 24  1  0  0  0
 23 22  1  0  0  0
 22  1  1  0  0  0
  1  2  1  0  0  0
  1  3  1  0  0  0
  2  7  1  0  0  0
  3  4  1  0  0  0
  3  5  1  0  0  0
  5  6  1  0  0  0
  5  7  1  0  0  0
  7 10  1  0  0  0
 10 11  1  0  0  0
 10 19  1  0  0  0
 11 12  2  0  0  0
 12 13  1  0  0  0
 13 14  1  0  0  0
 13 19  2  0  0  0
 14 15  1  0  0  0
 14 16  2  0  0  0
 16 17  1  0  0  0
 17 18  2  0  0  0
 18 19  1  0  0  0
 27 29  1  0  0  0
 27 30  1  0  0  0
  4  8  1  0  0  0
  6  9  1  0  0  0
 15 20  1  0  0  0
 15 21  1  0  0  0
M  CHG 1  23   1
M  CHG 1  33  -1
M  END
> <minimizedAffinity>
-7.49078

$$$$
