6GHH_TDA_A_201


 16 15  0  0  0  0  0  0  0  0999 V2000
   37.1786  -49.3924  110.9681 C   0  0  0  0  0  0  0  0  0  0  0  0
   36.3555  -48.3693  111.6675 C   0  0  0  0  0  0  0  0  0  0  0  0
   34.8704  -48.5341  111.7221 C   0  0  0  0  0  0  0  0  0  0  0  0
   34.1779  -48.2616  113.0222 C   0  0  0  0  0  0  0  0  0  0  0  0
   33.2453  -46.6706  114.5378 O   0  0  0  0  0  0  0  0  0  0  0  0
   34.1565  -45.8474  112.7657 O   0  0  0  0  0  0  0  0  0  0  0  0
   33.8595  -46.8602  113.4569 C   0  0  0  0  0  0  0  0  0  0  0  0
   33.0088  -47.4000  115.0764 H   0  0  0  0  0  0  0  0  0  0  0  0
   37.9586  -50.3950  111.7366 C   0  0  0  0  0  0  0  0  0  0  0  0
   39.3796  -50.1025  112.0744 C   0  0  0  0  0  0  0  0  0  0  0  0
   40.2866  -49.5285  111.0453 C   0  0  0  0  0  0  0  0  0  0  0  0
   41.3869  -50.3972  110.5725 C   0  0  0  0  0  0  0  0  0  0  0  0
   41.7064  -51.6619  111.2551 C   0  0  0  0  0  0  0  0  0  0  0  0
   43.0554  -52.1745  110.9814 C   0  0  0  0  0  0  0  0  0  0  0  0
   44.0439  -51.2796  110.3589 C   0  0  0  0  0  0  0  0  0  0  0  0
   45.0638  -51.9252  109.4975 C   0  0  0  0  0  0  0  0  0  0  0  0
  5  7  1  0  0  0
  6  7  2  0  0  0
  7  4  1  0  0  0
  4  3  1  0  0  0
  3  2  1  0  0  0
  2  1  1  0  0  0
  1  9  1  0  0  0
  9 10  1  0  0  0
 10 11  1  0  0  0
 11 12  1  0  0  0
 12 13  1  0  0  0
 13 14  1  0  0  0
 14 15  1  0  0  0
 15 16  1  0  0  0
  5  8  1  0  0  0
M  END
> <minimizedAffinity>
-6.24172

$$$$
6GHH_TDA_A_201


 16 15  0  0  0  0  0  0  0  0999 V2000
   40.0100  -51.2947  111.9669 C   0  0  0  0  0  0  0  0  0  0  0  0
   40.9625  -50.6426  111.0283 C   0  0  0  0  0  0  0  0  0  0  0  0
   41.8191  -51.4916  110.1445 C   0  0  0  0  0  0  0  0  0  0  0  0
   43.1482  -51.9400  110.6703 C   0  0  0  0  0  0  0  0  0  0  0  0
   44.7333  -50.2571  110.0760 O   0  0  0  0  0  0  0  0  0  0  0  0
   45.2204  -52.2607  109.4464 O   0  0  0  0  0  0  0  0  0  0  0  0
   44.4311  -51.4774  110.0422 C   0  0  0  0  0  0  0  0  0  0  0  0
   44.1701  -49.6468  110.5099 H   0  0  0  0  0  0  0  0  0  0  0  0
   38.6506  -50.7369  112.1789 C   0  0  0  0  0  0  0  0  0  0  0  0
   38.2441  -49.5157  111.4292 C   0  0  0  0  0  0  0  0  0  0  0  0
   36.8295  -49.3374  111.0072 C   0  0  0  0  0  0  0  0  0  0  0  0
   36.0769  -48.2418  111.6568 C   0  0  0  0  0  0  0  0  0  0  0  0
   34.6081  -48.1762  111.5802 C   0  0  0  0  0  0  0  0  0  0  0  0
   33.9155  -48.6912  112.7687 C   0  0  0  0  0  0  0  0  0  0  0  0
   32.5893  -49.3084  112.6077 C   0  0  0  0  0  0  0  0  0  0  0  0
   31.5017  -48.7579  113.4522 C   0  0  0  0  0  0  0  0  0  0  0  0
  5  7  1  0  0  0
  6  7  2  0  0  0
  7  4  1  0  0  0
  4  3  1  0  0  0
  3  2  1  0  0  0
  2  1  1  0  0  0
  1  9  1  0  0  0
  9 10  1  0  0  0
 10 11  1  0  0  0
 11 12  1  0  0  0
 12 13  1  0  0  0
 13 14  1  0  0  0
 14 15  1  0  0  0
 15 16  1  0  0  0
  5  8  1  0  0  0
M  END
> <minimizedAffinity>
-6.23025

$$$$
6GHH_TDA_A_201


 16 15  0  0  0  0  0  0  0  0999 V2000
   36.5921  -48.8036  112.2220 C   0  0  0  0  0  0  0  0  0  0  0  0
   35.2206  -48.4625  111.7571 C   0  0  0  0  0  0  0  0  0  0  0  0
   34.9531  -47.1031  111.1951 C   0  0  0  0  0  0  0  0  0  0  0  0
   35.0729  -45.9247  112.1122 C   0  0  0  0  0  0  0  0  0  0  0  0
   36.5014  -44.0276  112.3541 O   0  0  0  0  0  0  0  0  0  0  0  0
   35.3150  -44.0781  110.5546 O   0  0  0  0  0  0  0  0  0  0  0  0
   35.6569  -44.6249  111.6389 C   0  0  0  0  0  0  0  0  0  0  0  0
   36.7783  -44.4047  113.1659 H   0  0  0  0  0  0  0  0  0  0  0  0
   37.6056  -49.3327  111.2750 C   0  0  0  0  0  0  0  0  0  0  0  0
   38.9918  -48.7892  111.3201 C   0  0  0  0  0  0  0  0  0  0  0  0
   40.1511  -49.6841  111.0625 C   0  0  0  0  0  0  0  0  0  0  0  0
   40.1470  -50.9908  111.7563 C   0  0  0  0  0  0  0  0  0  0  0  0
   41.0787  -52.0625  111.3684 C   0  0  0  0  0  0  0  0  0  0  0  0
   42.1993  -51.6174  110.5295 C   0  0  0  0  0  0  0  0  0  0  0  0
   43.5706  -51.9761  110.9252 C   0  0  0  0  0  0  0  0  0  0  0  0
   44.6542  -51.5317  110.0156 C   0  0  0  0  0  0  0  0  0  0  0  0
  5  7  1  0  0  0
  6  7  2  0  0  0
  7  4  1  0  0  0
  4  3  1  0  0  0
  3  2  1  0  0  0
  2  1  1  0  0  0
  1  9  1  0  0  0
  9 10  1  0  0  0
 10 11  1  0  0  0
 11 12  1  0  0  0
 12 13  1  0  0  0
 13 14  1  0  0  0
 14 15  1  0  0  0
 15 16  1  0  0  0
  5  8  1  0  0  0
M  END
> <minimizedAffinity>
-6.13617

$$$$
6GHH_TDA_A_201


 16 15  0  0  0  0  0  0  0  0999 V2000
   39.2426  -51.0754  112.2519 C   0  0  0  0  0  0  0  0  0  0  0  0
   40.4820  -51.5089  111.5523 C   0  0  0  0  0  0  0  0  0  0  0  0
   41.4223  -50.4766  111.0178 C   0  0  0  0  0  0  0  0  0  0  0  0
   42.4532  -50.9101  110.0211 C   0  0  0  0  0  0  0  0  0  0  0  0
   44.8383  -50.8143  110.0242 O   0  0  0  0  0  0  0  0  0  0  0  0
   43.9663  -52.3739  111.2306 O   0  0  0  0  0  0  0  0  0  0  0  0
   43.8074  -51.3887  110.4587 C   0  0  0  0  0  0  0  0  0  0  0  0
   44.7577  -50.0792  109.4487 H   0  0  0  0  0  0  0  0  0  0  0  0
   38.9270  -49.6340  112.4152 C   0  0  0  0  0  0  0  0  0  0  0  0
   38.1817  -48.9292  111.3351 C   0  0  0  0  0  0  0  0  0  0  0  0
   36.8725  -49.4567  110.8674 C   0  0  0  0  0  0  0  0  0  0  0  0
   35.6779  -48.6450  111.1882 C   0  0  0  0  0  0  0  0  0  0  0  0
   35.1608  -48.5607  112.5641 C   0  0  0  0  0  0  0  0  0  0  0  0
   35.3729  -47.2600  113.2127 C   0  0  0  0  0  0  0  0  0  0  0  0
   35.5441  -46.0649  112.3714 C   0  0  0  0  0  0  0  0  0  0  0  0
   34.3286  -45.2493  112.1337 C   0  0  0  0  0  0  0  0  0  0  0  0
  5  7  1  0  0  0
  6  7  2  0  0  0
  7  4  1  0  0  0
  4  3  1  0  0  0
  3  2  1  0  0  0
  2  1  1  0  0  0
  1  9  1  0  0  0
  9 10  1  0  0  0
 10 11  1  0  0  0
 11 12  1  0  0  0
 12 13  1  0  0  0
 13 14  1  0  0  0
 14 15  1  0  0  0
 15 16  1  0  0  0
  5  8  1  0  0  0
M  END
> <minimizedAffinity>
-5.84244

$$$$
6GHH_TDA_A_201


 16 15  0  0  0  0  0  0  0  0999 V2000
   36.0751  -48.4391  112.7948 C   0  0  0  0  0  0  0  0  0  0  0  0
   34.8239  -47.9300  113.4182 C   0  0  0  0  0  0  0  0  0  0  0  0
   33.5028  -48.3213  112.8376 C   0  0  0  0  0  0  0  0  0  0  0  0
   32.2758  -47.6286  113.3463 C   0  0  0  0  0  0  0  0  0  0  0  0
   29.9323  -48.0043  113.6015 O   0  0  0  0  0  0  0  0  0  0  0  0
   30.7039  -48.2495  111.6033 O   0  0  0  0  0  0  0  0  0  0  0  0
   30.9129  -47.9671  112.8149 C   0  0  0  0  0  0  0  0  0  0  0  0
   30.0511  -47.8004  114.5083 H   0  0  0  0  0  0  0  0  0  0  0  0
   36.1179  -48.7879  111.3524 C   0  0  0  0  0  0  0  0  0  0  0  0
   37.2213  -49.6528  110.8492 C   0  0  0  0  0  0  0  0  0  0  0  0
   38.5550  -49.6157  111.5058 C   0  0  0  0  0  0  0  0  0  0  0  0
   39.0542  -50.8911  112.0654 C   0  0  0  0  0  0  0  0  0  0  0  0
   40.3489  -51.4524  111.6460 C   0  0  0  0  0  0  0  0  0  0  0  0
   41.2486  -50.4861  111.0022 C   0  0  0  0  0  0  0  0  0  0  0  0
   42.2954  -50.9834  110.0953 C   0  0  0  0  0  0  0  0  0  0  0  0
   43.4240  -51.7072  110.7290 C   0  0  0  0  0  0  0  0  0  0  0  0
  5  7  1  0  0  0
  6  7  2  0  0  0
  7  4  1  0  0  0
  4  3  1  0  0  0
  3  2  1  0  0  0
  2  1  1  0  0  0
  1  9  1  0  0  0
  9 10  1  0  0  0
 10 11  1  0  0  0
 11 12  1  0  0  0
 12 13  1  0  0  0
 13 14  1  0  0  0
 14 15  1  0  0  0
 15 16  1  0  0  0
  5  8  1  0  0  0
M  END
> <minimizedAffinity>
-5.61671

$$$$
6GHH_TDA_A_201


 16 15  0  0  0  0  0  0  0  0999 V2000
   38.4356  -49.4508  112.0189 C   0  0  0  0  0  0  0  0  0  0  0  0
   39.8726  -49.3600  111.6442 C   0  0  0  0  0  0  0  0  0  0  0  0
   40.5623  -50.5625  111.0841 C   0  0  0  0  0  0  0  0  0  0  0  0
   41.9512  -50.3934  110.5486 C   0  0  0  0  0  0  0  0  0  0  0  0
   44.2230  -51.1259  110.5369 O   0  0  0  0  0  0  0  0  0  0  0  0
   42.8153  -52.4681  111.4670 O   0  0  0  0  0  0  0  0  0  0  0  0
   43.0387  -51.3745  110.8791 C   0  0  0  0  0  0  0  0  0  0  0  0
   44.4252  -50.3230  110.0982 H   0  0  0  0  0  0  0  0  0  0  0  0
   37.4071  -49.7989  111.0065 C   0  0  0  0  0  0  0  0  0  0  0  0
   36.1608  -48.9866  110.9318 C   0  0  0  0  0  0  0  0  0  0  0  0
   36.0118  -47.7722  111.7768 C   0  0  0  0  0  0  0  0  0  0  0  0
   34.6296  -47.3268  112.0597 C   0  0  0  0  0  0  0  0  0  0  0  0
   33.8705  -47.8734  113.1965 C   0  0  0  0  0  0  0  0  0  0  0  0
   33.0144  -49.0184  112.8595 C   0  0  0  0  0  0  0  0  0  0  0  0
   31.5531  -48.8567  112.9210 C   0  0  0  0  0  0  0  0  0  0  0  0
   31.0487  -47.7690  113.7938 C   0  0  0  0  0  0  0  0  0  0  0  0
  5  7  1  0  0  0
  6  7  2  0  0  0
  7  4  1  0  0  0
  4  3  1  0  0  0
  3  2  1  0  0  0
  2  1  1  0  0  0
  1  9  1  0  0  0
  9 10  1  0  0  0
 10 11  1  0  0  0
 11 12  1  0  0  0
 12 13  1  0  0  0
 13 14  1  0  0  0
 14 15  1  0  0  0
 15 16  1  0  0  0
  5  8  1  0  0  0
M  END
> <minimizedAffinity>
-5.35003

$$$$
6GHH_TDA_A_201


 16 15  0  0  0  0  0  0  0  0999 V2000
   36.7324  -48.6874  111.5277 C   0  0  0  0  0  0  0  0  0  0  0  0
   37.4730  -49.8862  111.0504 C   0  0  0  0  0  0  0  0  0  0  0  0
   38.6442  -50.3856  111.8342 C   0  0  0  0  0  0  0  0  0  0  0  0
   40.0163  -49.9897  111.3816 C   0  0  0  0  0  0  0  0  0  0  0  0
   40.7965  -52.2347  111.1600 O   0  0  0  0  0  0  0  0  0  0  0  0
   42.3131  -50.7059  111.0554 O   0  0  0  0  0  0  0  0  0  0  0  0
   41.0959  -51.0134  111.1795 C   0  0  0  0  0  0  0  0  0  0  0  0
   39.9022  -52.4993  111.2495 H   0  0  0  0  0  0  0  0  0  0  0  0
   36.2044  -48.6227  112.9138 C   0  0  0  0  0  0  0  0  0  0  0  0
   34.7963  -48.1888  113.1325 C   0  0  0  0  0  0  0  0  0  0  0  0
   33.7643  -48.4596  112.0967 C   0  0  0  0  0  0  0  0  0  0  0  0
   33.0014  -47.2933  111.6001 C   0  0  0  0  0  0  0  0  0  0  0  0
   33.4188  -46.5696  110.3879 C   0  0  0  0  0  0  0  0  0  0  0  0
   33.9251  -45.2132  110.6358 C   0  0  0  0  0  0  0  0  0  0  0  0
   35.2963  -45.0473  111.1434 C   0  0  0  0  0  0  0  0  0  0  0  0
   35.4265  -44.5302  112.5272 C   0  0  0  0  0  0  0  0  0  0  0  0
  5  7  1  0  0  0
  6  7  2  0  0  0
  7  4  1  0  0  0
  4  3  1  0  0  0
  3  2  1  0  0  0
  2  1  1  0  0  0
  1  9  1  0  0  0
  9 10  1  0  0  0
 10 11  1  0  0  0
 11 12  1  0  0  0
 12 13  1  0  0  0
 13 14  1  0  0  0
 14 15  1  0  0  0
 15 16  1  0  0  0
  5  8  1  0  0  0
M  END
> <minimizedAffinity>
-5.27490

$$$$
6GHH_TDA_A_201


 16 15  0  0  0  0  0  0  0  0999 V2000
   36.3842  -48.7416  111.3313 C   0  0  0  0  0  0  0  0  0  0  0  0
   37.3808  -49.7562  110.8945 C   0  0  0  0  0  0  0  0  0  0  0  0
   38.5298  -50.0898  111.7912 C   0  0  0  0  0  0  0  0  0  0  0  0
   39.9128  -49.7661  111.3154 C   0  0  0  0  0  0  0  0  0  0  0  0
   42.1627  -50.4952  110.9919 O   0  0  0  0  0  0  0  0  0  0  0  0
   40.7124  -52.0586  111.3090 O   0  0  0  0  0  0  0  0  0  0  0  0
   40.9700  -50.8273  111.2126 C   0  0  0  0  0  0  0  0  0  0  0  0
   42.3901  -49.5895  110.9144 H   0  0  0  0  0  0  0  0  0  0  0  0
   36.0223  -48.6000  112.7641 C   0  0  0  0  0  0  0  0  0  0  0  0
   34.6387  -48.1809  113.1233 C   0  0  0  0  0  0  0  0  0  0  0  0
   33.4856  -48.6392  112.3039 C   0  0  0  0  0  0  0  0  0  0  0  0
   32.3052  -49.1400  113.0419 C   0  0  0  0  0  0  0  0  0  0  0  0
   31.0459  -48.3781  113.0727 C   0  0  0  0  0  0  0  0  0  0  0  0
   31.1945  -46.9489  112.7676 C   0  0  0  0  0  0  0  0  0  0  0  0
   31.4432  -46.0079  113.8713 C   0  0  0  0  0  0  0  0  0  0  0  0
   32.5156  -45.0073  113.6523 C   0  0  0  0  0  0  0  0  0  0  0  0
  5  7  1  0  0  0
  6  7  2  0  0  0
  7  4  1  0  0  0
  4  3  1  0  0  0
  3  2  1  0  0  0
  2  1  1  0  0  0
  1  9  1  0  0  0
  9 10  1  0  0  0
 10 11  1  0  0  0
 11 12  1  0  0  0
 12 13  1  0  0  0
 13 14  1  0  0  0
 14 15  1  0  0  0
 15 16  1  0  0  0
  5  8  1  0  0  0
M  END
> <minimizedAffinity>
-5.11134

$$$$
6GHH_TDA_A_201


 16 15  0  0  0  0  0  0  0  0999 V2000
   40.1418  -51.8940  111.9322 C   0  0  0  0  0  0  0  0  0  0  0  0
   39.4076  -50.6549  112.3050 C   0  0  0  0  0  0  0  0  0  0  0  0
   39.5414  -49.4367  111.4485 C   0  0  0  0  0  0  0  0  0  0  0  0
   38.3619  -48.5200  111.3369 C   0  0  0  0  0  0  0  0  0  0  0  0
   36.1142  -48.6624  112.1279 O   0  0  0  0  0  0  0  0  0  0  0  0
   36.5907  -49.9186  110.4418 O   0  0  0  0  0  0  0  0  0  0  0  0
   36.9604  -49.0561  111.2850 C   0  0  0  0  0  0  0  0  0  0  0  0
   36.3542  -48.0225  112.7689 H   0  0  0  0  0  0  0  0  0  0  0  0
   41.1098  -51.8939  110.8065 C   0  0  0  0  0  0  0  0  0  0  0  0
   42.5405  -51.5843  111.0821 C   0  0  0  0  0  0  0  0  0  0  0  0
   43.1964  -50.4326  110.4080 C   0  0  0  0  0  0  0  0  0  0  0  0
   44.5266  -50.6837  109.8109 C   0  0  0  0  0  0  0  0  0  0  0  0
   45.2155  -51.9711  109.9986 C   0  0  0  0  0  0  0  0  0  0  0  0
   45.3839  -52.7538  108.7671 C   0  0  0  0  0  0  0  0  0  0  0  0
   46.2102  -52.2027  107.6812 C   0  0  0  0  0  0  0  0  0  0  0  0
   47.6782  -52.3456  107.8355 C   0  0  0  0  0  0  0  0  0  0  0  0
  5  7  1  0  0  0
  6  7  2  0  0  0
  7  4  1  0  0  0
  4  3  1  0  0  0
  3  2  1  0  0  0
  2  1  1  0  0  0
  1  9  1  0  0  0
  9 10  1  0  0  0
 10 11  1  0  0  0
 11 12  1  0  0  0
 12 13  1  0  0  0
 13 14  1  0  0  0
 14 15  1  0  0  0
 15 16  1  0  0  0
  5  8  1  0  0  0
M  END
> <minimizedAffinity>
-5.00439

$$$$
6GHH_TDA_A_201


 16 15  0  0  0  0  0  0  0  0999 V2000
   41.9120  -52.6084  111.7155 C   0  0  0  0  0  0  0  0  0  0  0  0
   43.3961  -52.5237  111.6556 C   0  0  0  0  0  0  0  0  0  0  0  0
   44.0701  -52.3807  110.3286 C   0  0  0  0  0  0  0  0  0  0  0  0
   44.6596  -51.0491  109.9769 C   0  0  0  0  0  0  0  0  0  0  0  0
   42.8319  -50.0813  108.7850 O   0  0  0  0  0  0  0  0  0  0  0  0
   44.7930  -49.6301  108.0114 O   0  0  0  0  0  0  0  0  0  0  0  0
   44.0798  -50.2059  108.8782 C   0  0  0  0  0  0  0  0  0  0  0  0
   42.2716  -50.4954  109.4116 H   0  0  0  0  0  0  0  0  0  0  0  0
   41.0655  -51.5595  111.0933 C   0  0  0  0  0  0  0  0  0  0  0  0
   39.7857  -51.1767  111.7525 C   0  0  0  0  0  0  0  0  0  0  0  0
   39.2057  -49.8266  111.5251 C   0  0  0  0  0  0  0  0  0  0  0  0
   37.7714  -49.6584  111.8464 C   0  0  0  0  0  0  0  0  0  0  0  0
   36.7786  -49.4027  110.7898 C   0  0  0  0  0  0  0  0  0  0  0  0
   35.6733  -48.5249  111.1961 C   0  0  0  0  0  0  0  0  0  0  0  0
   35.2047  -48.5698  112.5904 C   0  0  0  0  0  0  0  0  0  0  0  0
   33.7363  -48.5214  112.7917 C   0  0  0  0  0  0  0  0  0  0  0  0
  5  7  1  0  0  0
  6  7  2  0  0  0
  7  4  1  0  0  0
  4  3  1  0  0  0
  3  2  1  0  0  0
  2  1  1  0  0  0
  1  9  1  0  0  0
  9 10  1  0  0  0
 10 11  1  0  0  0
 11 12  1  0  0  0
 12 13  1  0  0  0
 13 14  1  0  0  0
 14 15  1  0  0  0
 15 16  1  0  0  0
  5  8  1  0  0  0
M  END
> <minimizedAffinity>
-4.97508

$$$$
