2VOT_NHV_A_1865
  RCSB PDB12061707073D
Coordinates from PDB:2VOT:A:1865 Model:1 without hydrogens
 22 24  0  0  0  0            999 V2000
   27.5020   50.0970   -3.5970   O 0  0  0  0  0  0  0  0  0  0  0  0
   26.4220   49.7350   -2.7520   C 0  0  0  0  0  0  0  0  0  0  0  0
   26.7500   48.4360   -1.9860   C 0  0  0  0  0  0  0  0  0  0  0  0
   27.8340   48.6540   -0.8990   C 0  0  0  0  0  0  0  0  0  0  0  0
   27.4810   49.7890   -0.1050   O 0  0  0  0  0  0  0  0  0  0  0  0
   28.0520   47.4130    0.0070   C 0  0  0  0  0  0  0  0  0  0  0  0
   29.4270   47.3370    0.4010   O 0  0  0  0  0  0  0  0  0  0  0  0
   28.2260   44.8710   -0.2940   O 0  0  0  0  0  0  0  0  0  0  0  0
   27.3290   47.3400   -2.7950   N 0  3  0  0  0  0  0  0  0  0  0  0
   27.6530   47.2770   -4.1000   C 0  0  0  0  0  0  0  0  0  0  0  0
   28.3390   46.0860   -4.2550   C 0  0  0  0  0  0  0  0  0  0  0  0
   28.3380   45.4180   -3.0680   N 0  0  0  0  0  0  0  0  0  0  0  0
   27.7570   46.2560   -2.1820   C 0  0  0  0  0  0  0  0  0  0  0  0
   28.8700   45.5700   -5.5530   C 0  0  0  0  0  0  0  0  0  0  0  0
   30.3190   45.7090   -5.6290   N 0  0  0  0  0  0  0  0  0  0  0  0
   30.9860   46.8960   -5.8490   C 0  0  0  0  0  0  0  0  0  0  0  0
   30.3300   48.0360   -6.3370   C 0  0  0  0  0  0  0  0  0  0  0  0
   31.0630   49.2340   -6.5470   C 0  0  0  0  0  0  0  0  0  0  0  0
   32.4430   49.3190   -6.2740   C 0  0  0  0  0  0  0  0  0  0  0  0
   33.1140   48.1760   -5.7890   C 0  0  0  0  0  0  0  0  0  0  0  0
   32.3760   46.9850   -5.5880   C 0  0  0  0  0  0  0  0  0  0  0  0
   27.6020   46.1130   -0.6840   C 0  0  0  0  0  0  0  0  0  0  0  0
  1  2  1  0  0  0  0
  2  3  1  0  0  0  0
  3  4  1  0  0  0  0
  3  9  1  0  0  0  0
  4  5  1  0  0  0  0
  4  6  1  0  0  0  0
  6  7  1  0  0  0  0
  6 22  1  0  0  0  0
  8 22  1  0  0  0  0
  9 10  1  0  0  0  0
  9 13  2  0  0  0  0
 10 11  2  0  0  0  0
 11 12  1  0  0  0  0
 11 14  1  0  0  0  0
 12 13  1  0  0  0  0
 13 22  1  0  0  0  0
 14 15  1  0  0  0  0
 15 16  1  0  0  0  0
 16 17  1  0  0  0  0
 16 21  2  0  0  0  0
 17 18  2  0  0  0  0
 18 19  1  0  0  0  0
 19 20  2  0  0  0  0
 20 21  1  0  0  0  0
M  CHG  1   9   1
A    1
O6B
A    2
C6B
A    3
C5B
A    4
C4B
A    5
O4B
A    6
C3B
A    7
O3B
A    8
O2B
A    9
N1B
A   10
C8B
A   11
C7B
A   12
N2B
A   13
C1B
A   14
C7
A   15
N1
A   16
C1
A   17
C6
A   18
C5
A   19
C4
A   20
C3
A   21
C2
A   22
C20
M  END
>  <InstanceId>
2VOT_NHV_A_1865

>  <ChemCompId>
NHV

>  <PdbId>
2VOT

>  <ChainId>
A

>  <ResidueNumber>
1865

>  <InsertionCode>


>  <Model>
1

>  <AltIds>


>  <MissingHeavyAtoms>
0

>  <ObservedFormula>
C15 N3 O4

>  <Name>
(5R,6R,7S,8R)-6,7,8-trihydroxy-5-(hydroxymethyl)-2-[(phenylamino)methyl]-5,6,7,8-tetrahydro-1H-imidazo[1,2-a]pyridin-4-ium

>  <SystematicName>
(5R,6R,7S,8R)-5-(hydroxymethyl)-2-(phenylazanylmethyl)-5,6,7,8-tetrahydro-1H-imidazo[2,1-f]pyridin-4-ium-6,7,8-triol

>  <Synonyms>


>  <Type>
non-polymer

>  <Formula>
C15 H20 N3 O4

>  <MolecularWeight>
306.337

>  <ModifiedDate>
2011-06-04

>  <Parent>


>  <OneLetterCode>


>  <SubcomponentList>


>  <AmbiguousFlag>


>  <InChI>
InChI=1S/C15H19N3O4/c19-8-11-12(20)13(21)14(22)15-17-10(7-18(11)15)6-16-9-4-2-1-3-5-9/h1-5,7,11-14,16,19-22H,6,8H2/p+1/t11-,12-,13+,14+/m1/s1

>  <InChIKey>
ADKWVGPRAQKVKB-MQYQWHSLSA-O

>  <SMILES>
c1ccc(cc1)NCc2c[n+]3c([nH]2)[C@H]([C@H]([C@@H]([C@H]3CO)O)O)O

$$$$
