4Q8X_7FH_A_304
  RCSB PDB12061714223D
Coordinates from PDB:4Q8X:A:304 Model:1 without hydrogens
 12 12  0  0  0  0            999 V2000
   14.6090    1.0950   17.2000   S 0  0  0  0  0  0  0  0  0  0  0  0
   15.2590    2.2950   16.1860   C 0  0  0  0  0  0  0  0  0  0  0  0
   14.4300    3.2880   15.6600   C 0  0  0  0  0  0  0  0  0  0  0  0
   14.9450    4.2350   14.8090   C 0  0  0  0  0  0  0  0  0  0  0  0
   16.2610    4.1950   14.4630   C 0  0  0  0  0  0  0  0  0  0  0  0
   16.8020    5.1890   13.5760   C 0  0  0  0  0  0  0  0  0  0  0  0
   17.1880    6.2480   14.2790   F 0  0  0  0  0  0  0  0  0  0  0  0
   17.8460    4.6830   12.9270   F 0  0  0  0  0  0  0  0  0  0  0  0
   15.8710    5.5540   12.7000   F 0  0  0  0  0  0  0  0  0  0  0  0
   17.0910    3.2060   14.9920   C 0  0  0  0  0  0  0  0  0  0  0  0
   16.5790    2.2700   15.8610   N 0  0  0  0  0  0  0  0  0  0  0  0
   17.3500    1.3080   16.3190   O 0  0  0  0  0  0  0  0  0  0  0  0
  9  6  1  0  0  0  0
  8  6  1  0  0  0  0
  6  7  1  0  0  0  0
  6  5  1  0  0  0  0
  5  4  1  0  0  0  0
  5 10  2  0  0  0  0
  4  3  2  0  0  0  0
 10 11  1  0  0  0  0
  3  2  1  0  0  0  0
 11  2  1  0  0  0  0
 11 12  1  0  0  0  0
  2  1  2  0  0  0  0
A    1
S1
A    2
C1
A    3
C2
A    4
C3
A    5
C4
A    6
C6
A    7
F1
A    8
F2
A    9
F3
A   10
C5
A   11
N1
A   12
O1
M  END
>  <InstanceId>
4Q8X_7FH_A_304

>  <ChemCompId>
7FH

>  <PdbId>
4Q8X

>  <ChainId>
A

>  <ResidueNumber>
304

>  <InsertionCode>


>  <Model>
1

>  <AltIds>


>  <MissingHeavyAtoms>
0

>  <ObservedFormula>
C6 N O S F3

>  <Name>
1-hydroxy-5-(trifluoromethyl)pyridine-2(1H)-thione

>  <SystematicName>
1-oxidanyl-5-(trifluoromethyl)pyridine-2-thione

>  <Synonyms>


>  <Type>
NON-POLYMER

>  <Formula>
C6 H4 F3 N O S

>  <MolecularWeight>
195.162

>  <ModifiedDate>
2015-03-06

>  <Parent>


>  <OneLetterCode>


>  <SubcomponentList>


>  <AmbiguousFlag>
N

>  <InChI>
InChI=1S/C6H4F3NOS/c7-6(8,9)4-1-2-5(12)10(11)3-4/h1-3,11H

>  <InChIKey>
CWWMSAVJLUCBNA-UHFFFAOYSA-N

>  <SMILES>
C1=CC(=S)N(C=C1C(F)(F)F)O

$$$$
