1Y0L_HAN_H_501
  RCSB PDB12061704423D
Coordinates from PDB:1Y0L:H:501 Model:1 without hydrogens
 19 20  0  0  0  0            999 V2000
   19.5170   87.8010   41.9100   N 0  0  0  0  0  0  0  0  0  0  0  0
   20.9480   88.0010   42.0070   C 0  0  0  0  0  0  0  0  0  0  0  0
   21.5000   88.6390   41.0400   N 0  0  0  0  0  0  0  0  0  0  0  0
   20.5170   89.6430   38.8940   C 0  0  0  0  0  0  0  0  0  0  0  0
   19.3020   89.8230   38.1630   C 0  0  0  0  0  0  0  0  0  0  0  0
   18.0440   89.3080   38.7000   C 0  0  0  0  0  0  0  0  0  0  0  0
   18.0250   88.6240   39.9460   C 0  0  0  0  0  0  0  0  0  0  0  0
   20.4760   88.9440   40.1580   C 0  0  0  0  0  0  0  0  0  0  0  0
   19.2520   88.4450   40.6710   C 0  0  0  0  0  0  0  0  0  0  0  0
   19.4010   90.5710   36.8170   C 0  0  0  0  0  0  0  0  0  0  0  0
   16.6870   89.4570   37.9790   C 0  0  0  0  0  0  0  0  0  0  0  0
   21.7100   87.5220   43.0950   N 0  0  0  0  0  0  0  0  0  0  0  0
   18.5970   87.1100   42.8440   C 0  0  0  0  0  0  0  0  0  0  0  0
   17.9990   88.0270   43.9220   C 0  0  0  0  0  0  0  0  0  0  0  0
   18.3940   87.6030   45.3440   C 0  0  0  0  0  0  0  0  0  0  0  0
   17.7340   86.2770   45.7950   C 0  0  0  0  0  0  0  0  0  0  0  0
   16.8770   86.4180   47.0600   C 0  0  0  0  0  0  0  0  0  0  0  0
   15.7960   85.7900   47.1170   O 0  0  0  0  0  0  0  0  0  0  0  0
   17.2780   87.1510   48.0050   O 0  0  0  0  0  0  0  0  0  0  0  0
  1  2  1  0  0  0  0
  1  9  1  0  0  0  0
  1 13  1  0  0  0  0
  2  3  2  0  0  0  0
  2 12  1  0  0  0  0
  3  8  1  0  0  0  0
  4  5  2  0  0  0  0
  4  8  1  0  0  0  0
  5  6  1  0  0  0  0
  5 10  1  0  0  0  0
  6  7  2  0  0  0  0
  6 11  1  0  0  0  0
  7  9  1  0  0  0  0
  8  9  2  0  0  0  0
 13 14  1  0  0  0  0
 14 15  1  0  0  0  0
 15 16  1  0  0  0  0
 16 17  1  0  0  0  0
 17 18  2  0  0  0  0
 17 19  1  0  0  0  0
A    1
N1
A    2
C2
A    3
N3
A    4
C4
A    5
C5
A    6
C6
A    7
C7
A    8
C9
A    9
C8
A   10
C10
A   11
C11
A   12
N12
A   13
C13
A   14
C14
A   15
C15
A   16
C16
A   17
C17
A   18
O18
A   19
O19
M  END
>  <InstanceId>
1Y0L_HAN_H_501

>  <ChemCompId>
HAN

>  <PdbId>
1Y0L

>  <ChainId>
H

>  <ResidueNumber>
501

>  <InsertionCode>


>  <Model>
1

>  <AltIds>


>  <MissingHeavyAtoms>
0

>  <ObservedFormula>
C14 N3 O2

>  <Name>
2-AMINO-5,6-DIMETHYL-BENZIMIDAZOLE-1-PENTANOIC ACID

>  <SystematicName>
5-(2-amino-5,6-dimethyl-benzimidazol-1-yl)pentanoic acid

>  <Synonyms>


>  <Type>
NON-POLYMER

>  <Formula>
C14 H19 N3 O2

>  <MolecularWeight>
261.32

>  <ModifiedDate>
2011-06-04

>  <Parent>


>  <OneLetterCode>


>  <SubcomponentList>


>  <AmbiguousFlag>
N

>  <InChI>
InChI=1S/C14H19N3O2/c1-9-7-11-12(8-10(9)2)17(14(15)16-11)6-4-3-5-13(18)19/h7-8H,3-6H2,1-2H3,(H2,15,16)(H,18,19)

>  <InChIKey>
ONFQTORHROMJSV-UHFFFAOYSA-N

>  <SMILES>
Cc1cc2c(cc1C)n(c(n2)N)CCCCC(=O)O

$$$$
