1Y0L_HAN_H_501


 22 23  0  0  0  0  0  0  0  0999 V2000
   19.3421   87.5680   42.7723 N   0  0  0  0  0  0  0  0  0  0  0  0
   20.7657   87.7512   42.9648 C   0  0  0  0  0  0  0  0  0  0  0  0
   21.3951   88.3492   42.0198 N   0  0  0  0  0  0  0  0  0  0  0  0
   20.5832   89.2954   39.7782 C   0  0  0  0  0  0  0  0  0  0  0  0
   19.4261   89.4681   38.9569 C   0  0  0  0  0  0  0  0  0  0  0  0
   18.1250   88.9886   39.4189 C   0  0  0  0  0  0  0  0  0  0  0  0
   18.0066   88.3464   40.6815 C   0  0  0  0  0  0  0  0  0  0  0  0
   20.4413   88.6391   41.0577 C   0  0  0  0  0  0  0  0  0  0  0  0
   19.1761   88.1744   41.4976 C   0  0  0  0  0  0  0  0  0  0  0  0
   19.6325   90.1698   37.5982 C   0  0  0  0  0  0  0  0  0  0  0  0
   16.8252   89.1326   38.5984 C   0  0  0  0  0  0  0  0  0  0  0  0
   21.4407   87.2978   44.1192 N   0  0  0  0  0  0  0  0  0  0  0  0
   20.9412   86.8410   44.8340 H   0  0  0  0  0  0  0  0  0  0  0  0
   22.4109   87.4386   44.2092 H   0  0  0  0  0  0  0  0  0  0  0  0
   18.3471   86.9211   43.6598 C   0  0  0  0  0  0  0  0  0  0  0  0
   17.8579   87.8191   44.8065 C   0  0  0  0  0  0  0  0  0  0  0  0
   16.5398   87.3269   45.4214 C   0  0  0  0  0  0  0  0  0  0  0  0
   16.6524   85.9288   46.0770 C   0  0  0  0  0  0  0  0  0  0  0  0
   15.7821   84.8621   45.3994 C   0  0  0  0  0  0  0  0  0  0  0  0
   16.3012   84.1501   44.5106 O   0  0  0  0  0  0  0  0  0  0  0  0
   14.5788   84.7246   45.7518 O   0  0  0  0  0  0  0  0  0  0  0  0
   14.2208   85.2743   46.4209 H   0  0  0  0  0  0  0  0  0  0  0  0
  1  2  1  0  0  0
  1  9  1  0  0  0
  1 15  1  0  0  0
  2  3  2  0  0  0
  2 12  1  0  0  0
  3  8  1  0  0  0
  4  5  2  0  0  0
  4  8  1  0  0  0
  5  6  1  0  0  0
  5 10  1  0  0  0
  6  7  2  0  0  0
  6 11  1  0  0  0
  7  9  1  0  0  0
  8  9  2  0  0  0
 15 16  1  0  0  0
 16 17  1  0  0  0
 17 18  1  0  0  0
 18 19  1  0  0  0
 19 20  2  0  0  0
 19 21  1  0  0  0
 12 13  1  0  0  0
 12 14  1  0  0  0
 21 22  1  0  0  0
M  END
> <minimizedAffinity>
-8.82631

$$$$
1Y0L_HAN_H_501


 22 23  0  0  0  0  0  0  0  0999 V2000
   19.4053   88.8274   40.9798 N   0  0  0  0  0  0  0  0  0  0  0  0
   18.0052   88.5258   40.7650 C   0  0  0  0  0  0  0  0  0  0  0  0
   17.4366   87.7991   41.6569 N   0  0  0  0  0  0  0  0  0  0  0  0
   18.3462   86.7342   43.8059 C   0  0  0  0  0  0  0  0  0  0  0  0
   19.5210   86.5909   44.6075 C   0  0  0  0  0  0  0  0  0  0  0  0
   20.7664   87.2377   44.1993 C   0  0  0  0  0  0  0  0  0  0  0  0
   20.8151   88.0061   43.0043 C   0  0  0  0  0  0  0  0  0  0  0  0
   18.4173   87.5187   42.5945 C   0  0  0  0  0  0  0  0  0  0  0  0
   19.6301   88.1409   42.2039 C   0  0  0  0  0  0  0  0  0  0  0  0
   19.3932   85.7390   45.8877 C   0  0  0  0  0  0  0  0  0  0  0  0
   22.0807   87.1361   45.0030 C   0  0  0  0  0  0  0  0  0  0  0  0
   17.2917   88.9921   39.6393 N   0  0  0  0  0  0  0  0  0  0  0  0
   17.7447   89.5486   38.9653 H   0  0  0  0  0  0  0  0  0  0  0  0
   16.3412   88.7606   39.5285 H   0  0  0  0  0  0  0  0  0  0  0  0
   20.3359   89.6242   40.1460 C   0  0  0  0  0  0  0  0  0  0  0  0
   21.0884   88.7995   39.0904 C   0  0  0  0  0  0  0  0  0  0  0  0
   20.6708   89.1538   37.6559 C   0  0  0  0  0  0  0  0  0  0  0  0
   20.5822   90.6784   37.4010 C   0  0  0  0  0  0  0  0  0  0  0  0
   19.1825   91.1501   36.9850 C   0  0  0  0  0  0  0  0  0  0  0  0
   18.2015   90.4340   37.2866 O   0  0  0  0  0  0  0  0  0  0  0  0
   19.0525   92.2379   36.3599 O   0  0  0  0  0  0  0  0  0  0  0  0
   19.8081   92.7505   36.1494 H   0  0  0  0  0  0  0  0  0  0  0  0
  1  2  1  0  0  0
  1  9  1  0  0  0
  1 15  1  0  0  0
  2  3  2  0  0  0
  2 12  1  0  0  0
  3  8  1  0  0  0
  4  5  2  0  0  0
  4  8  1  0  0  0
  5  6  1  0  0  0
  5 10  1  0  0  0
  6  7  2  0  0  0
  6 11  1  0  0  0
  7  9  1  0  0  0
  8  9  2  0  0  0
 15 16  1  0  0  0
 16 17  1  0  0  0
 17 18  1  0  0  0
 18 19  1  0  0  0
 19 20  2  0  0  0
 19 21  1  0  0  0
 12 13  1  0  0  0
 12 14  1  0  0  0
 21 22  1  0  0  0
M  END
> <minimizedAffinity>
-8.67122

$$$$
1Y0L_HAN_H_501


 22 23  0  0  0  0  0  0  0  0999 V2000
   19.2162   87.8358   42.1746 N   0  0  0  0  0  0  0  0  0  0  0  0
   20.6380   87.9384   42.4303 C   0  0  0  0  0  0  0  0  0  0  0  0
   21.3414   88.4996   41.5154 N   0  0  0  0  0  0  0  0  0  0  0  0
   20.6842   89.4896   39.2422 C   0  0  0  0  0  0  0  0  0  0  0  0
   19.5763   89.7270   38.3709 C   0  0  0  0  0  0  0  0  0  0  0  0
   18.2311   89.3219   38.7738 C   0  0  0  0  0  0  0  0  0  0  0  0
   18.0208   88.6878   40.0285 C   0  0  0  0  0  0  0  0  0  0  0  0
   20.4490   88.8427   40.5127 C   0  0  0  0  0  0  0  0  0  0  0  0
   19.1414   88.4502   40.8952 C   0  0  0  0  0  0  0  0  0  0  0  0
   19.8819   90.4156   37.0242 C   0  0  0  0  0  0  0  0  0  0  0  0
   16.9790   89.5388   37.8969 C   0  0  0  0  0  0  0  0  0  0  0  0
   21.2346   87.4479   43.6124 N   0  0  0  0  0  0  0  0  0  0  0  0
   20.6788   87.0202   44.3034 H   0  0  0  0  0  0  0  0  0  0  0  0
   22.2062   87.5337   43.7456 H   0  0  0  0  0  0  0  0  0  0  0  0
   18.1480   87.2463   43.0158 C   0  0  0  0  0  0  0  0  0  0  0  0
   18.0006   87.9118   44.3927 C   0  0  0  0  0  0  0  0  0  0  0  0
   17.6598   86.9059   45.5017 C   0  0  0  0  0  0  0  0  0  0  0  0
   17.7563   85.4302   45.0431 C   0  0  0  0  0  0  0  0  0  0  0  0
   19.1537   84.8224   45.2231 C   0  0  0  0  0  0  0  0  0  0  0  0
   20.0370   85.5186   45.7720 O   0  0  0  0  0  0  0  0  0  0  0  0
   19.3775   83.6472   44.8231 O   0  0  0  0  0  0  0  0  0  0  0  0
   18.6937   83.1527   44.4159 H   0  0  0  0  0  0  0  0  0  0  0  0
  1  2  1  0  0  0
  1  9  1  0  0  0
  1 15  1  0  0  0
  2  3  2  0  0  0
  2 12  1  0  0  0
  3  8  1  0  0  0
  4  5  2  0  0  0
  4  8  1  0  0  0
  5  6  1  0  0  0
  5 10  1  0  0  0
  6  7  2  0  0  0
  6 11  1  0  0  0
  7  9  1  0  0  0
  8  9  2  0  0  0
 15 16  1  0  0  0
 16 17  1  0  0  0
 17 18  1  0  0  0
 18 19  1  0  0  0
 19 20  2  0  0  0
 19 21  1  0  0  0
 12 13  1  0  0  0
 12 14  1  0  0  0
 21 22  1  0  0  0
M  END
> <minimizedAffinity>
-8.63035

$$$$
1Y0L_HAN_H_501


 22 23  0  0  0  0  0  0  0  0999 V2000
   19.3023   87.4434   42.9487 N   0  0  0  0  0  0  0  0  0  0  0  0
   20.7204   87.6184   43.1841 C   0  0  0  0  0  0  0  0  0  0  0  0
   21.3761   88.2388   42.2720 N   0  0  0  0  0  0  0  0  0  0  0  0
   20.6265   89.2434   40.0340 C   0  0  0  0  0  0  0  0  0  0  0  0
   19.4924   89.4395   39.1865 C   0  0  0  0  0  0  0  0  0  0  0  0
   18.1785   88.9514   39.6009 C   0  0  0  0  0  0  0  0  0  0  0  0
   18.0250   88.2776   40.8432 C   0  0  0  0  0  0  0  0  0  0  0  0
   20.4491   88.5552   41.2921 C   0  0  0  0  0  0  0  0  0  0  0  0
   19.1717   88.0823   41.6859 C   0  0  0  0  0  0  0  0  0  0  0  0
   19.7364   90.1750   37.8522 C   0  0  0  0  0  0  0  0  0  0  0  0
   16.9015   89.1190   38.7496 C   0  0  0  0  0  0  0  0  0  0  0  0
   21.3634   87.1343   44.3444 N   0  0  0  0  0  0  0  0  0  0  0  0
   20.8440   86.6606   45.0336 H   0  0  0  0  0  0  0  0  0  0  0  0
   22.3310   87.2706   44.4641 H   0  0  0  0  0  0  0  0  0  0  0  0
   18.2827   86.7763   43.7924 C   0  0  0  0  0  0  0  0  0  0  0  0
   17.4991   87.7373   44.6996 C   0  0  0  0  0  0  0  0  0  0  0  0
   18.3767   88.3677   45.7906 C   0  0  0  0  0  0  0  0  0  0  0  0
   18.1128   87.7881   47.2019 C   0  0  0  0  0  0  0  0  0  0  0  0
   19.3848   87.3149   47.9180 C   0  0  0  0  0  0  0  0  0  0  0  0
   20.4452   87.2427   47.2574 O   0  0  0  0  0  0  0  0  0  0  0  0
   19.3354   87.0172   49.1428 O   0  0  0  0  0  0  0  0  0  0  0  0
   18.5249   87.0823   49.6084 H   0  0  0  0  0  0  0  0  0  0  0  0
  1  2  1  0  0  0
  1  9  1  0  0  0
  1 15  1  0  0  0
  2  3  2  0  0  0
  2 12  1  0  0  0
  3  8  1  0  0  0
  4  5  2  0  0  0
  4  8  1  0  0  0
  5  6  1  0  0  0
  5 10  1  0  0  0
  6  7  2  0  0  0
  6 11  1  0  0  0
  7  9  1  0  0  0
  8  9  2  0  0  0
 15 16  1  0  0  0
 16 17  1  0  0  0
 17 18  1  0  0  0
 18 19  1  0  0  0
 19 20  2  0  0  0
 19 21  1  0  0  0
 12 13  1  0  0  0
 12 14  1  0  0  0
 21 22  1  0  0  0
M  END
> <minimizedAffinity>
-8.46485

$$$$
1Y0L_HAN_H_501


 22 23  0  0  0  0  0  0  0  0999 V2000
   19.4699   87.7049   43.6689 N   0  0  0  0  0  0  0  0  0  0  0  0
   18.0931   87.3807   43.9795 C   0  0  0  0  0  0  0  0  0  0  0  0
   17.2438   87.5376   43.0304 N   0  0  0  0  0  0  0  0  0  0  0  0
   17.5332   88.3581   40.6174 C   0  0  0  0  0  0  0  0  0  0  0  0
   18.4982   88.8243   39.6717 C   0  0  0  0  0  0  0  0  0  0  0  0
   19.9047   88.9286   40.0552 C   0  0  0  0  0  0  0  0  0  0  0  0
   20.3162   88.5719   41.3683 C   0  0  0  0  0  0  0  0  0  0  0  0
   17.9722   88.0017   41.9471 C   0  0  0  0  0  0  0  0  0  0  0  0
   19.3381   88.1081   42.3124 C   0  0  0  0  0  0  0  0  0  0  0  0
   17.9770   89.1969   38.2679 C   0  0  0  0  0  0  0  0  0  0  0  0
   21.0125   89.4216   39.0997 C   0  0  0  0  0  0  0  0  0  0  0  0
   17.6893   86.9222   45.2525 N   0  0  0  0  0  0  0  0  0  0  0  0
   18.3551   86.8079   45.9686 H   0  0  0  0  0  0  0  0  0  0  0  0
   16.7418   86.7168   45.4240 H   0  0  0  0  0  0  0  0  0  0  0  0
   20.6716   87.6380   44.5336 C   0  0  0  0  0  0  0  0  0  0  0  0
   21.6156   86.4727   44.1996 C   0  0  0  0  0  0  0  0  0  0  0  0
   21.8900   85.5689   45.4103 C   0  0  0  0  0  0  0  0  0  0  0  0
   20.6016   85.0317   46.0801 C   0  0  0  0  0  0  0  0  0  0  0  0
   19.9145   83.9164   45.2811 C   0  0  0  0  0  0  0  0  0  0  0  0
   18.7271   84.0873   44.9246 O   0  0  0  0  0  0  0  0  0  0  0  0
   20.5550   82.8665   45.0004 O   0  0  0  0  0  0  0  0  0  0  0  0
   21.4432   82.7701   45.2826 H   0  0  0  0  0  0  0  0  0  0  0  0
  1  2  1  0  0  0
  1  9  1  0  0  0
  1 15  1  0  0  0
  2  3  2  0  0  0
  2 12  1  0  0  0
  3  8  1  0  0  0
  4  5  2  0  0  0
  4  8  1  0  0  0
  5  6  1  0  0  0
  5 10  1  0  0  0
  6  7  2  0  0  0
  6 11  1  0  0  0
  7  9  1  0  0  0
  8  9  2  0  0  0
 15 16  1  0  0  0
 16 17  1  0  0  0
 17 18  1  0  0  0
 18 19  1  0  0  0
 19 20  2  0  0  0
 19 21  1  0  0  0
 12 13  1  0  0  0
 12 14  1  0  0  0
 21 22  1  0  0  0
M  END
> <minimizedAffinity>
-8.21220

$$$$
1Y0L_HAN_H_501


 22 23  0  0  0  0  0  0  0  0999 V2000
   19.1584   87.5027   42.9369 N   0  0  0  0  0  0  0  0  0  0  0  0
   20.5766   87.6040   43.2115 C   0  0  0  0  0  0  0  0  0  0  0  0
   21.2955   88.1476   42.2980 N   0  0  0  0  0  0  0  0  0  0  0  0
   20.6753   89.1028   39.9995 C   0  0  0  0  0  0  0  0  0  0  0  0
   19.5811   89.3301   39.1085 C   0  0  0  0  0  0  0  0  0  0  0  0
   18.2285   88.9367   39.4983 C   0  0  0  0  0  0  0  0  0  0  0  0
   17.9976   88.3240   40.7600 C   0  0  0  0  0  0  0  0  0  0  0  0
   20.4191   88.4776   41.2769 C   0  0  0  0  0  0  0  0  0  0  0  0
   19.1045   88.0964   41.6466 C   0  0  0  0  0  0  0  0  0  0  0  0
   19.9089   89.9955   37.7554 C   0  0  0  0  0  0  0  0  0  0  0  0
   16.9902   89.1440   38.5999 C   0  0  0  0  0  0  0  0  0  0  0  0
   21.1541   87.1307   44.4100 N   0  0  0  0  0  0  0  0  0  0  0  0
   20.5867   86.7164   45.0997 H   0  0  0  0  0  0  0  0  0  0  0  0
   22.1241   87.2150   44.5559 H   0  0  0  0  0  0  0  0  0  0  0  0
   18.0757   86.9310   43.7719 C   0  0  0  0  0  0  0  0  0  0  0  0
   17.7194   87.7836   44.9994 C   0  0  0  0  0  0  0  0  0  0  0  0
   16.5714   87.1826   45.8233 C   0  0  0  0  0  0  0  0  0  0  0  0
   16.9693   86.8554   47.2834 C   0  0  0  0  0  0  0  0  0  0  0  0
   15.7679   86.6102   48.2059 C   0  0  0  0  0  0  0  0  0  0  0  0
   14.9077   85.7739   47.8498 O   0  0  0  0  0  0  0  0  0  0  0  0
   15.6770   87.2456   49.2917 O   0  0  0  0  0  0  0  0  0  0  0  0
   16.3387   87.8652   49.5288 H   0  0  0  0  0  0  0  0  0  0  0  0
  1  2  1  0  0  0
  1  9  1  0  0  0
  1 15  1  0  0  0
  2  3  2  0  0  0
  2 12  1  0  0  0
  3  8  1  0  0  0
  4  5  2  0  0  0
  4  8  1  0  0  0
  5  6  1  0  0  0
  5 10  1  0  0  0
  6  7  2  0  0  0
  6 11  1  0  0  0
  7  9  1  0  0  0
  8  9  2  0  0  0
 15 16  1  0  0  0
 16 17  1  0  0  0
 17 18  1  0  0  0
 18 19  1  0  0  0
 19 20  2  0  0  0
 19 21  1  0  0  0
 12 13  1  0  0  0
 12 14  1  0  0  0
 21 22  1  0  0  0
M  END
> <minimizedAffinity>
-8.10504

$$$$
1Y0L_HAN_H_501


 22 23  0  0  0  0  0  0  0  0999 V2000
   19.7098   88.0375   42.5117 N   0  0  0  0  0  0  0  0  0  0  0  0
   18.4413   87.6335   43.0818 C   0  0  0  0  0  0  0  0  0  0  0  0
   17.4150   87.7405   42.3190 N   0  0  0  0  0  0  0  0  0  0  0  0
   17.1787   88.5765   39.9055 C   0  0  0  0  0  0  0  0  0  0  0  0
   17.9115   89.0983   38.7948 C   0  0  0  0  0  0  0  0  0  0  0  0
   19.3575   89.2846   38.8971 C   0  0  0  0  0  0  0  0  0  0  0  0
   20.0380   88.9525   40.1001 C   0  0  0  0  0  0  0  0  0  0  0  0
   17.8893   88.2463   41.1195 C   0  0  0  0  0  0  0  0  0  0  0  0
   19.2919   88.4324   41.2119 C   0  0  0  0  0  0  0  0  0  0  0  0
   17.1050   89.4398   37.5243 C   0  0  0  0  0  0  0  0  0  0  0  0
   20.2267   89.8415   37.7491 C   0  0  0  0  0  0  0  0  0  0  0  0
   18.3215   87.1521   44.4039 N   0  0  0  0  0  0  0  0  0  0  0  0
   19.1202   87.0769   44.9746 H   0  0  0  0  0  0  0  0  0  0  0  0
   17.4394   86.8918   44.7549 H   0  0  0  0  0  0  0  0  0  0  0  0
   21.0593   88.0409   43.1240 C   0  0  0  0  0  0  0  0  0  0  0  0
   21.3911   86.7619   43.9079 C   0  0  0  0  0  0  0  0  0  0  0  0
   22.2176   87.0410   45.1716 C   0  0  0  0  0  0  0  0  0  0  0  0
   21.6699   86.3295   46.4330 C   0  0  0  0  0  0  0  0  0  0  0  0
   22.6477   85.3125   47.0365 C   0  0  0  0  0  0  0  0  0  0  0  0
   23.3218   84.6031   46.2564 O   0  0  0  0  0  0  0  0  0  0  0  0
   22.7527   85.2181   48.2899 O   0  0  0  0  0  0  0  0  0  0  0  0
   22.2330   85.7645   48.8461 H   0  0  0  0  0  0  0  0  0  0  0  0
  1  2  1  0  0  0
  1  9  1  0  0  0
  1 15  1  0  0  0
  2  3  2  0  0  0
  2 12  1  0  0  0
  3  8  1  0  0  0
  4  5  2  0  0  0
  4  8  1  0  0  0
  5  6  1  0  0  0
  5 10  1  0  0  0
  6  7  2  0  0  0
  6 11  1  0  0  0
  7  9  1  0  0  0
  8  9  2  0  0  0
 15 16  1  0  0  0
 16 17  1  0  0  0
 17 18  1  0  0  0
 18 19  1  0  0  0
 19 20  2  0  0  0
 19 21  1  0  0  0
 12 13  1  0  0  0
 12 14  1  0  0  0
 21 22  1  0  0  0
M  END
> <minimizedAffinity>
-8.03237

$$$$
1Y0L_HAN_H_501


 22 23  0  0  0  0  0  0  0  0999 V2000
   18.7894   86.5272   44.6394 N   0  0  0  0  0  0  0  0  0  0  0  0
   20.1756   86.4890   45.0570 C   0  0  0  0  0  0  0  0  0  0  0  0
   21.0238   87.0354   44.2639 N   0  0  0  0  0  0  0  0  0  0  0  0
   20.7174   88.2039   42.0011 C   0  0  0  0  0  0  0  0  0  0  0  0
   19.7410   88.5865   41.0299 C   0  0  0  0  0  0  0  0  0  0  0  0
   18.3295   88.2806   41.2543 C   0  0  0  0  0  0  0  0  0  0  0  0
   17.9242   87.5992   42.4342 C   0  0  0  0  0  0  0  0  0  0  0  0
   20.2846   87.5112   43.1931 C   0  0  0  0  0  0  0  0  0  0  0  0
   18.9137   87.2157   43.4022 C   0  0  0  0  0  0  0  0  0  0  0  0
   20.2558   89.3187   39.7730 C   0  0  0  0  0  0  0  0  0  0  0  0
   17.2094   88.6559   40.2603 C   0  0  0  0  0  0  0  0  0  0  0  0
   20.5892   85.8830   46.2634 N   0  0  0  0  0  0  0  0  0  0  0  0
   19.9241   85.4687   46.8594 H   0  0  0  0  0  0  0  0  0  0  0  0
   21.5426   85.8747   46.5085 H   0  0  0  0  0  0  0  0  0  0  0  0
   17.5863   85.9892   45.3172 C   0  0  0  0  0  0  0  0  0  0  0  0
   16.5394   87.0572   45.6691 C   0  0  0  0  0  0  0  0  0  0  0  0
   16.7048   87.5992   47.0962 C   0  0  0  0  0  0  0  0  0  0  0  0
   18.0097   88.4076   47.2987 C   0  0  0  0  0  0  0  0  0  0  0  0
   18.8038   87.9885   48.5430 C   0  0  0  0  0  0  0  0  0  0  0  0
   20.0114   87.6911   48.4036 O   0  0  0  0  0  0  0  0  0  0  0  0
   18.2303   87.9576   49.6661 O   0  0  0  0  0  0  0  0  0  0  0  0
   17.3244   88.1864   49.7360 H   0  0  0  0  0  0  0  0  0  0  0  0
  1  2  1  0  0  0
  1  9  1  0  0  0
  1 15  1  0  0  0
  2  3  2  0  0  0
  2 12  1  0  0  0
  3  8  1  0  0  0
  4  5  2  0  0  0
  4  8  1  0  0  0
  5  6  1  0  0  0
  5 10  1  0  0  0
  6  7  2  0  0  0
  6 11  1  0  0  0
  7  9  1  0  0  0
  8  9  2  0  0  0
 15 16  1  0  0  0
 16 17  1  0  0  0
 17 18  1  0  0  0
 18 19  1  0  0  0
 19 20  2  0  0  0
 19 21  1  0  0  0
 12 13  1  0  0  0
 12 14  1  0  0  0
 21 22  1  0  0  0
M  END
> <minimizedAffinity>
-7.79406

$$$$
1Y0L_HAN_H_501


 22 23  0  0  0  0  0  0  0  0999 V2000
   18.0929   89.2125   38.0063 N   0  0  0  0  0  0  0  0  0  0  0  0
   16.7389   88.6989   38.0141 C   0  0  0  0  0  0  0  0  0  0  0  0
   16.3100   88.2431   39.1344 N   0  0  0  0  0  0  0  0  0  0  0  0
   17.4408   88.0501   41.4287 C   0  0  0  0  0  0  0  0  0  0  0  0
   18.6554   88.3120   42.1351 C   0  0  0  0  0  0  0  0  0  0  0  0
   19.7848   88.9284   41.4416 C   0  0  0  0  0  0  0  0  0  0  0  0
   19.6811   89.2646   40.0644 C   0  0  0  0  0  0  0  0  0  0  0  0
   17.3565   88.3986   40.0289 C   0  0  0  0  0  0  0  0  0  0  0  0
   18.4574   88.9939   39.3625 C   0  0  0  0  0  0  0  0  0  0  0  0
   18.6956   87.9162   43.6260 C   0  0  0  0  0  0  0  0  0  0  0  0
   21.1320   89.2461   42.1254 C   0  0  0  0  0  0  0  0  0  0  0  0
   15.9243   88.6870   36.8609 N   0  0  0  0  0  0  0  0  0  0  0  0
   16.2704   89.0410   36.0099 H   0  0  0  0  0  0  0  0  0  0  0  0
   15.0100   88.3247   36.9077 H   0  0  0  0  0  0  0  0  0  0  0  0
   18.8732   89.7945   36.8888 C   0  0  0  0  0  0  0  0  0  0  0  0
   19.4160   91.2030   37.1751 C   0  0  0  0  0  0  0  0  0  0  0  0
   20.9113   91.2004   37.5244 C   0  0  0  0  0  0  0  0  0  0  0  0
   21.6857   90.0142   36.8995 C   0  0  0  0  0  0  0  0  0  0  0  0
   22.6732   89.3489   37.8673 C   0  0  0  0  0  0  0  0  0  0  0  0
   22.3483   88.2592   38.3900 O   0  0  0  0  0  0  0  0  0  0  0  0
   23.7791   89.9056   38.1085 O   0  0  0  0  0  0  0  0  0  0  0  0
   23.9916   90.7218   37.7003 H   0  0  0  0  0  0  0  0  0  0  0  0
  1  2  1  0  0  0
  1  9  1  0  0  0
  1 15  1  0  0  0
  2  3  2  0  0  0
  2 12  1  0  0  0
  3  8  1  0  0  0
  4  5  2  0  0  0
  4  8  1  0  0  0
  5  6  1  0  0  0
  5 10  1  0  0  0
  6  7  2  0  0  0
  6 11  1  0  0  0
  7  9  1  0  0  0
  8  9  2  0  0  0
 15 16  1  0  0  0
 16 17  1  0  0  0
 17 18  1  0  0  0
 18 19  1  0  0  0
 19 20  2  0  0  0
 19 21  1  0  0  0
 12 13  1  0  0  0
 12 14  1  0  0  0
 21 22  1  0  0  0
M  END
> <minimizedAffinity>
-7.78985

$$$$
1Y0L_HAN_H_501


 22 23  0  0  0  0  0  0  0  0999 V2000
   20.2557   86.9377   44.1338 N   0  0  0  0  0  0  0  0  0  0  0  0
   19.0355   86.4087   44.7070 C   0  0  0  0  0  0  0  0  0  0  0  0
   17.9616   86.5945   44.0295 N   0  0  0  0  0  0  0  0  0  0  0  0
   17.5555   87.7776   41.7901 C   0  0  0  0  0  0  0  0  0  0  0  0
   18.2048   88.4864   40.7323 C   0  0  0  0  0  0  0  0  0  0  0  0
   19.6492   88.7047   40.7789 C   0  0  0  0  0  0  0  0  0  0  0  0
   20.4110   88.2179   41.8760 C   0  0  0  0  0  0  0  0  0  0  0  0
   18.3480   87.2921   42.8965 C   0  0  0  0  0  0  0  0  0  0  0  0
   19.7484   87.5102   42.9358 C   0  0  0  0  0  0  0  0  0  0  0  0
   17.3129   88.9883   39.5774 C   0  0  0  0  0  0  0  0  0  0  0  0
   20.4314   89.4585   39.6819 C   0  0  0  0  0  0  0  0  0  0  0  0
   19.0099   85.7289   45.9444 N   0  0  0  0  0  0  0  0  0  0  0  0
   19.8439   85.5957   46.4502 H   0  0  0  0  0  0  0  0  0  0  0  0
   18.1580   85.3883   46.3013 H   0  0  0  0  0  0  0  0  0  0  0  0
   21.6400   86.8949   44.6611 C   0  0  0  0  0  0  0  0  0  0  0  0
   21.7370   87.1296   46.1764 C   0  0  0  0  0  0  0  0  0  0  0  0
   22.8130   86.2590   46.8415 C   0  0  0  0  0  0  0  0  0  0  0  0
   22.5869   86.0565   48.3597 C   0  0  0  0  0  0  0  0  0  0  0  0
   23.6592   86.7213   49.2332 C   0  0  0  0  0  0  0  0  0  0  0  0
   23.7865   87.9648   49.1724 O   0  0  0  0  0  0  0  0  0  0  0  0
   24.3769   86.0092   49.9876 O   0  0  0  0  0  0  0  0  0  0  0  0
   24.2558   85.0804   50.0094 H   0  0  0  0  0  0  0  0  0  0  0  0
  1  2  1  0  0  0
  1  9  1  0  0  0
  1 15  1  0  0  0
  2  3  2  0  0  0
  2 12  1  0  0  0
  3  8  1  0  0  0
  4  5  2  0  0  0
  4  8  1  0  0  0
  5  6  1  0  0  0
  5 10  1  0  0  0
  6  7  2  0  0  0
  6 11  1  0  0  0
  7  9  1  0  0  0
  8  9  2  0  0  0
 15 16  1  0  0  0
 16 17  1  0  0  0
 17 18  1  0  0  0
 18 19  1  0  0  0
 19 20  2  0  0  0
 19 21  1  0  0  0
 12 13  1  0  0  0
 12 14  1  0  0  0
 21 22  1  0  0  0
M  END
> <minimizedAffinity>
-7.57211

$$$$
