1HPX_KNI_B_900


 50 53  0  0  0  0  0  0  0  0999 V2000
    5.4638   -0.3025   14.3828 C   0  0  0  0  0  0  0  0  0  0  0  0
    3.6894    0.0835   12.7484 C   0  0  0  0  0  0  0  0  0  0  0  0
    3.5713   -1.1096   12.5159 O   0  0  0  0  0  0  0  0  0  0  0  0
    4.5508    0.5716   13.6390 N   0  0  0  0  0  0  0  0  0  0  0  0
    4.5752    1.5422   13.8020 H   0  0  0  0  0  0  0  0  0  0  0  0
    2.8837    1.1144   11.9981 C   0  0  0  0  0  0  0  0  0  0  0  0
    3.7785    3.0523   10.9035 C   0  0  0  0  0  0  0  0  0  0  0  0
    3.0685    3.7880   11.5636 O   0  0  0  0  0  0  0  0  0  0  0  0
    3.7112    1.7349   10.9761 N   0  0  0  0  0  0  0  0  0  0  0  0
    4.2178    1.1771   10.3425 H   0  0  0  0  0  0  0  0  0  0  0  0
    4.7591    3.6005    9.9358 C   0  0  0  0  0  0  0  0  0  0  0  0
    4.9288    4.9652   10.2037 O   0  0  0  0  0  0  0  0  0  0  0  0
    8.2419    5.8343    7.7085 C   0  0  0  0  0  0  0  0  0  0  0  0
    7.1466    5.5492    8.5027 C   0  0  0  0  0  0  0  0  0  0  0  0
    7.2669    5.5915    9.9035 C   0  0  0  0  0  0  0  0  0  0  0  0
    8.5029    5.9233   10.4010 C   0  0  0  0  0  0  0  0  0  0  0  0
    9.5676    6.2033    9.4834 C   0  0  0  0  0  0  0  0  0  0  0  0
    6.1555    5.3024   10.7633 C   0  0  0  0  0  0  0  0  0  0  0  0
    6.3741    5.3672   12.1350 C   0  0  0  0  0  0  0  0  0  0  0  0
    7.6104    5.6980   12.6419 C   0  0  0  0  0  0  0  0  0  0  0  0
    8.6917    5.9810   11.8088 C   0  0  0  0  0  0  0  0  0  0  0  0
    9.4385    6.1530    8.1571 N   0  0  0  0  0  0  0  0  0  0  0  0
    1.6401    0.5108   11.3915 C   0  0  0  0  0  0  0  0  0  0  0  0
    0.2525    1.3083   12.2447 S   0  0  0  0  0  0  0  0  0  0  0  0
   -0.1968    2.4172   10.8640 C   0  0  0  0  0  0  0  0  0  0  0  0
    4.8668   -0.6163   15.7616 C   0  0  0  0  0  0  0  0  0  0  0  0
    5.1788    0.4468   16.5917 O   0  0  0  0  0  0  0  0  0  0  0  0
    6.1425    0.5429   16.6457 H   0  0  0  0  0  0  0  0  0  0  0  0
    5.4885   -1.8757   16.3593 C   0  0  0  0  0  0  0  0  0  0  0  0
    6.5113   -1.7928   17.0313 O   0  0  0  0  0  0  0  0  0  0  0  0
    4.8369   -3.0191   16.0673 N   0  0  0  0  0  0  0  0  0  0  0  0
    3.5975   -3.0357   15.2836 C   0  0  0  0  0  0  0  0  0  0  0  0
    5.4422   -4.3142   16.4174 C   0  0  0  0  0  0  0  0  0  0  0  0
    4.4433   -5.4416   16.1608 C   0  0  0  0  0  0  0  0  0  0  0  0
    3.2404   -4.7866   14.9625 S   0  0  0  0  0  0  0  0  0  0  0  0
    6.6776   -4.4798   15.5835 C   0  0  0  0  0  0  0  0  0  0  0  0
    6.6556   -4.2431   14.3811 O   0  0  0  0  0  0  0  0  0  0  0  0
    7.7546   -4.8888   16.2427 N   0  0  0  0  0  0  0  0  0  0  0  0
    7.6520   -5.1874   17.1752 H   0  0  0  0  0  0  0  0  0  0  0  0
    9.0934   -4.9144   15.6382 C   0  0  0  0  0  0  0  0  0  0  0  0
    9.5438   -3.5190   15.1918 C   0  0  0  0  0  0  0  0  0  0  0  0
    9.1376   -5.8922   14.4618 C   0  0  0  0  0  0  0  0  0  0  0  0
   10.0614   -5.3669   16.7247 C   0  0  0  0  0  0  0  0  0  0  0  0
    6.8635    0.3315   14.4303 C   0  0  0  0  0  0  0  0  0  0  0  0
    7.4045    0.6464   13.0502 C   0  0  0  0  0  0  0  0  0  0  0  0
    8.3950    1.1924   10.5023 C   0  0  0  0  0  0  0  0  0  0  0  0
    7.3887    1.9344   12.5533 C   0  0  0  0  0  0  0  0  0  0  0  0
    7.9243   -0.3572   12.2573 C   0  0  0  0  0  0  0  0  0  0  0  0
    7.8859    2.1995   11.2890 C   0  0  0  0  0  0  0  0  0  0  0  0
    8.4115   -0.0824   10.9967 C   0  0  0  0  0  0  0  0  0  0  0  0
 13 14  1  0  0  0
 13 22  2  0  0  0
 14 15  2  0  0  0
 15 16  1  0  0  0
 15 18  1  0  0  0
 16 17  2  0  0  0
 16 21  1  0  0  0
 17 22  1  0  0  0
 18 19  2  0  0  0
 18 12  1  0  0  0
 19 20  1  0  0  0
 20 21  2  0  0  0
 11  7  1  0  0  0
 11 12  1  0  0  0
  7  9  1  0  0  0
  7  8  2  0  0  0
 23  6  1  0  0  0
 23 24  1  0  0  0
  2  6  1  0  0  0
  2  4  1  0  0  0
  2  3  2  0  0  0
  1 26  1  0  0  0
  1 44  1  0  0  0
  1  4  1  0  0  0
 26 29  1  0  0  0
 26 27  1  0  0  0
 44 45  1  0  0  0
 29 31  1  0  0  0
 29 30  2  0  0  0
 33 34  1  0  0  0
 33 36  1  0  0  0
 33 31  1  0  0  0
 34 35  1  0  0  0
 32 31  1  0  0  0
 32 35  1  0  0  0
 36 38  1  0  0  0
 36 37  2  0  0  0
 40 41  1  0  0  0
 40 42  1  0  0  0
 40 43  1  0  0  0
 40 38  1  0  0  0
  6  9  1  0  0  0
 25 24  1  0  0  0
 45 47  2  0  0  0
 45 48  1  0  0  0
 47 49  1  0  0  0
 49 46  2  0  0  0
 46 50  1  0  0  0
 50 48  2  0  0  0
  9 10  1  0  0  0
  4  5  1  0  0  0
 27 28  1  0  0  0
 38 39  1  0  0  0
M  END
> <minimizedAffinity>
-9.90945

$$$$
1HPX_KNI_B_900


 50 53  0  0  0  0  0  0  0  0999 V2000
    5.4620   -0.1549   14.3446 C   0  0  0  0  0  0  0  0  0  0  0  0
    3.8840    0.3093   12.5382 C   0  0  0  0  0  0  0  0  0  0  0  0
    3.9142   -0.8460   12.1434 O   0  0  0  0  0  0  0  0  0  0  0  0
    4.5714    0.7374   13.5953 N   0  0  0  0  0  0  0  0  0  0  0  0
    4.4795    1.6751   13.8807 H   0  0  0  0  0  0  0  0  0  0  0  0
    3.0848    1.3659   11.8174 C   0  0  0  0  0  0  0  0  0  0  0  0
    3.9032    3.5161   11.1384 C   0  0  0  0  0  0  0  0  0  0  0  0
    3.0269    4.0799   11.7672 O   0  0  0  0  0  0  0  0  0  0  0  0
    3.9755    2.2016   11.0284 N   0  0  0  0  0  0  0  0  0  0  0  0
    4.6280    1.7906   10.4163 H   0  0  0  0  0  0  0  0  0  0  0  0
    4.9449    4.2868   10.4175 C   0  0  0  0  0  0  0  0  0  0  0  0
    5.4025    3.5132    9.3427 O   0  0  0  0  0  0  0  0  0  0  0  0
    7.1833    1.3730    6.1480 C   0  0  0  0  0  0  0  0  0  0  0  0
    6.5855    2.0535    7.1926 C   0  0  0  0  0  0  0  0  0  0  0  0
    7.0390    3.3381    7.5426 C   0  0  0  0  0  0  0  0  0  0  0  0
    8.0770    3.8434    6.7992 C   0  0  0  0  0  0  0  0  0  0  0  0
    8.6183    3.0505    5.7352 C   0  0  0  0  0  0  0  0  0  0  0  0
    6.4465    4.0778    8.6196 C   0  0  0  0  0  0  0  0  0  0  0  0
    6.9662    5.3386    8.8917 C   0  0  0  0  0  0  0  0  0  0  0  0
    8.0074    5.8519    8.1520 C   0  0  0  0  0  0  0  0  0  0  0  0
    8.5839    5.1360    7.1039 C   0  0  0  0  0  0  0  0  0  0  0  0
    8.1806    1.8309    5.4198 N   0  0  0  0  0  0  0  0  0  0  0  0
    2.0119    0.7529   10.9502 C   0  0  0  0  0  0  0  0  0  0  0  0
    0.5600    0.5883   12.0246 S   0  0  0  0  0  0  0  0  0  0  0  0
   -0.0047    2.3152   11.8332 C   0  0  0  0  0  0  0  0  0  0  0  0
    4.8531   -0.4521   15.7219 C   0  0  0  0  0  0  0  0  0  0  0  0
    5.2289    0.5803   16.5643 O   0  0  0  0  0  0  0  0  0  0  0  0
    6.1968    0.6202   16.6151 H   0  0  0  0  0  0  0  0  0  0  0  0
    5.4036   -1.7528   16.3005 C   0  0  0  0  0  0  0  0  0  0  0  0
    6.3885   -1.7284   17.0312 O   0  0  0  0  0  0  0  0  0  0  0  0
    4.7373   -2.8631   15.9254 N   0  0  0  0  0  0  0  0  0  0  0  0
    3.5444   -2.8101   15.0740 C   0  0  0  0  0  0  0  0  0  0  0  0
    5.2844   -4.1891   16.2546 C   0  0  0  0  0  0  0  0  0  0  0  0
    4.2699   -5.2740   15.8963 C   0  0  0  0  0  0  0  0  0  0  0  0
    3.1562   -4.5349   14.6612 S   0  0  0  0  0  0  0  0  0  0  0  0
    6.5600   -4.3594   15.4845 C   0  0  0  0  0  0  0  0  0  0  0  0
    6.6064   -4.0985   14.2880 O   0  0  0  0  0  0  0  0  0  0  0  0
    7.5931   -4.8001   16.1917 N   0  0  0  0  0  0  0  0  0  0  0  0
    7.4358   -5.1154   17.1110 H   0  0  0  0  0  0  0  0  0  0  0  0
    8.9619   -4.8369   15.6591 C   0  0  0  0  0  0  0  0  0  0  0  0
    9.9590   -5.3825   16.6876 C   0  0  0  0  0  0  0  0  0  0  0  0
    9.3938   -3.4491   15.1799 C   0  0  0  0  0  0  0  0  0  0  0  0
    8.9553   -5.8109   14.4871 C   0  0  0  0  0  0  0  0  0  0  0  0
    6.8753    0.4478   14.3958 C   0  0  0  0  0  0  0  0  0  0  0  0
    7.4275    0.7490   13.0171 C   0  0  0  0  0  0  0  0  0  0  0  0
    8.4497    1.3359   10.4908 C   0  0  0  0  0  0  0  0  0  0  0  0
    7.8991   -0.2592   12.2003 C   0  0  0  0  0  0  0  0  0  0  0  0
    7.4722    2.0476   12.5502 C   0  0  0  0  0  0  0  0  0  0  0  0
    8.4015    0.0384   10.9453 C   0  0  0  0  0  0  0  0  0  0  0  0
    7.9805    2.3332   11.3004 C   0  0  0  0  0  0  0  0  0  0  0  0
 13 14  1  0  0  0
 13 22  2  0  0  0
 14 15  2  0  0  0
 15 16  1  0  0  0
 15 18  1  0  0  0
 16 17  2  0  0  0
 16 21  1  0  0  0
 17 22  1  0  0  0
 18 19  2  0  0  0
 18 12  1  0  0  0
 19 20  1  0  0  0
 20 21  2  0  0  0
 11  7  1  0  0  0
 11 12  1  0  0  0
  7  9  1  0  0  0
  7  8  2  0  0  0
 23  6  1  0  0  0
 23 24  1  0  0  0
  2  6  1  0  0  0
  2  4  1  0  0  0
  2  3  2  0  0  0
  1 26  1  0  0  0
  1 44  1  0  0  0
  1  4  1  0  0  0
 26 29  1  0  0  0
 26 27  1  0  0  0
 44 45  1  0  0  0
 29 31  1  0  0  0
 29 30  2  0  0  0
 33 34  1  0  0  0
 33 36  1  0  0  0
 33 31  1  0  0  0
 34 35  1  0  0  0
 32 31  1  0  0  0
 32 35  1  0  0  0
 36 38  1  0  0  0
 36 37  2  0  0  0
 40 41  1  0  0  0
 40 42  1  0  0  0
 40 43  1  0  0  0
 40 38  1  0  0  0
  6  9  1  0  0  0
 25 24  1  0  0  0
 45 47  2  0  0  0
 45 48  1  0  0  0
 47 49  1  0  0  0
 49 46  2  0  0  0
 46 50  1  0  0  0
 50 48  2  0  0  0
  9 10  1  0  0  0
  4  5  1  0  0  0
 27 28  1  0  0  0
 38 39  1  0  0  0
M  END
> <minimizedAffinity>
-9.32441

$$$$
1HPX_KNI_B_900


 50 53  0  0  0  0  0  0  0  0999 V2000
    6.1980    3.9197   10.9837 C   0  0  0  0  0  0  0  0  0  0  0  0
    3.9210    3.2500   11.5628 C   0  0  0  0  0  0  0  0  0  0  0  0
    3.6127    4.3862   11.8878 O   0  0  0  0  0  0  0  0  0  0  0  0
    5.1258    2.9255   11.0978 N   0  0  0  0  0  0  0  0  0  0  0  0
    5.3011    1.9962   10.8241 H   0  0  0  0  0  0  0  0  0  0  0  0
    2.9547    2.1011   11.7084 C   0  0  0  0  0  0  0  0  0  0  0  0
    3.5803    0.0415   12.7671 C   0  0  0  0  0  0  0  0  0  0  0  0
    3.4447   -0.5693   11.7232 O   0  0  0  0  0  0  0  0  0  0  0  0
    3.2907    1.3245   12.8909 N   0  0  0  0  0  0  0  0  0  0  0  0
    3.3022    1.7518   13.7777 H   0  0  0  0  0  0  0  0  0  0  0  0
    4.0582   -0.6382   13.9952 C   0  0  0  0  0  0  0  0  0  0  0  0
    4.7274   -1.8105   13.6197 O   0  0  0  0  0  0  0  0  0  0  0  0
    7.4329   -3.5906   16.3526 C   0  0  0  0  0  0  0  0  0  0  0  0
    6.5660   -2.9913   15.4576 C   0  0  0  0  0  0  0  0  0  0  0  0
    5.2868   -3.5376   15.2486 C   0  0  0  0  0  0  0  0  0  0  0  0
    4.9778   -4.6638   15.9706 C   0  0  0  0  0  0  0  0  0  0  0  0
    5.9536   -5.1979   16.8741 C   0  0  0  0  0  0  0  0  0  0  0  0
    4.3574   -2.9469   14.3291 C   0  0  0  0  0  0  0  0  0  0  0  0
    3.1181   -3.5617   14.1887 C   0  0  0  0  0  0  0  0  0  0  0  0
    2.8008   -4.6917   14.9079 C   0  0  0  0  0  0  0  0  0  0  0  0
    3.7013   -5.2668   15.8033 C   0  0  0  0  0  0  0  0  0  0  0  0
    7.1650   -4.6711   17.0565 N   0  0  0  0  0  0  0  0  0  0  0  0
    1.5257    2.5838   11.7687 C   0  0  0  0  0  0  0  0  0  0  0  0
    0.5679    1.3733   10.8165 S   0  0  0  0  0  0  0  0  0  0  0  0
   -0.9367    2.4003   10.6779 C   0  0  0  0  0  0  0  0  0  0  0  0
    6.7656    3.9030    9.5576 C   0  0  0  0  0  0  0  0  0  0  0  0
    8.0312    4.4611    9.6169 O   0  0  0  0  0  0  0  0  0  0  0  0
    7.9690    5.3685    9.9540 H   0  0  0  0  0  0  0  0  0  0  0  0
    5.9204    4.7571    8.6164 C   0  0  0  0  0  0  0  0  0  0  0  0
    5.2272    5.6622    9.0689 O   0  0  0  0  0  0  0  0  0  0  0  0
    6.0031    4.4128    7.3157 N   0  0  0  0  0  0  0  0  0  0  0  0
    6.8822    3.3376    6.8448 C   0  0  0  0  0  0  0  0  0  0  0  0
    5.0910    5.0281    6.3382 C   0  0  0  0  0  0  0  0  0  0  0  0
    5.4982    4.6256    4.9216 C   0  0  0  0  0  0  0  0  0  0  0  0
    6.4741    3.0990    5.0919 S   0  0  0  0  0  0  0  0  0  0  0  0
    3.7009    4.5651    6.6584 C   0  0  0  0  0  0  0  0  0  0  0  0
    3.4283    3.3703    6.6719 O   0  0  0  0  0  0  0  0  0  0  0  0
    2.8283    5.5313    6.9170 N   0  0  0  0  0  0  0  0  0  0  0  0
    3.0941    6.4644    6.7499 H   0  0  0  0  0  0  0  0  0  0  0  0
    1.4821    5.2658    7.4422 C   0  0  0  0  0  0  0  0  0  0  0  0
    1.5298    4.6210    8.8320 C   0  0  0  0  0  0  0  0  0  0  0  0
    0.6862    4.3888    6.4730 C   0  0  0  0  0  0  0  0  0  0  0  0
    0.7948    6.6164    7.6027 C   0  0  0  0  0  0  0  0  0  0  0  0
    7.2454    3.6799   12.0830 C   0  0  0  0  0  0  0  0  0  0  0  0
    7.4690    2.2068   12.3596 C   0  0  0  0  0  0  0  0  0  0  0  0
    7.9022   -0.5045   12.8415 C   0  0  0  0  0  0  0  0  0  0  0  0
    7.2280    1.6697   13.6084 C   0  0  0  0  0  0  0  0  0  0  0  0
    7.9241    1.3691   11.3610 C   0  0  0  0  0  0  0  0  0  0  0  0
    7.4411    0.3217   13.8400 C   0  0  0  0  0  0  0  0  0  0  0  0
    8.1387    0.0288   11.6047 C   0  0  0  0  0  0  0  0  0  0  0  0
 13 14  1  0  0  0
 13 22  2  0  0  0
 14 15  2  0  0  0
 15 16  1  0  0  0
 15 18  1  0  0  0
 16 17  2  0  0  0
 16 21  1  0  0  0
 17 22  1  0  0  0
 18 19  2  0  0  0
 18 12  1  0  0  0
 19 20  1  0  0  0
 20 21  2  0  0  0
 11  7  1  0  0  0
 11 12  1  0  0  0
  7  9  1  0  0  0
  7  8  2  0  0  0
 23  6  1  0  0  0
 23 24  1  0  0  0
  2  6  1  0  0  0
  2  4  1  0  0  0
  2  3  2  0  0  0
  1 26  1  0  0  0
  1 44  1  0  0  0
  1  4  1  0  0  0
 26 29  1  0  0  0
 26 27  1  0  0  0
 44 45  1  0  0  0
 29 31  1  0  0  0
 29 30  2  0  0  0
 33 34  1  0  0  0
 33 36  1  0  0  0
 33 31  1  0  0  0
 34 35  1  0  0  0
 32 31  1  0  0  0
 32 35  1  0  0  0
 36 38  1  0  0  0
 36 37  2  0  0  0
 40 41  1  0  0  0
 40 42  1  0  0  0
 40 43  1  0  0  0
 40 38  1  0  0  0
  6  9  1  0  0  0
 25 24  1  0  0  0
 45 47  2  0  0  0
 45 48  1  0  0  0
 47 49  1  0  0  0
 49 46  2  0  0  0
 46 50  1  0  0  0
 50 48  2  0  0  0
  9 10  1  0  0  0
  4  5  1  0  0  0
 27 28  1  0  0  0
 38 39  1  0  0  0
M  END
> <minimizedAffinity>
-8.52449

$$$$
1HPX_KNI_B_900


 50 53  0  0  0  0  0  0  0  0999 V2000
    4.1103    3.6852    9.8298 C   0  0  0  0  0  0  0  0  0  0  0  0
    5.5807    2.1644   11.0520 C   0  0  0  0  0  0  0  0  0  0  0  0
    6.1649    1.8263   10.0341 O   0  0  0  0  0  0  0  0  0  0  0  0
    4.5975    3.0624   11.0649 N   0  0  0  0  0  0  0  0  0  0  0  0
    4.1879    3.3141   11.9241 H   0  0  0  0  0  0  0  0  0  0  0  0
    5.9069    1.5455   12.3881 C   0  0  0  0  0  0  0  0  0  0  0  0
    4.0077    0.1582   12.8601 C   0  0  0  0  0  0  0  0  0  0  0  0
    3.3709    1.1161   13.2576 O   0  0  0  0  0  0  0  0  0  0  0  0
    5.2738    0.2407   12.4920 N   0  0  0  0  0  0  0  0  0  0  0  0
    5.7852   -0.5758   12.2893 H   0  0  0  0  0  0  0  0  0  0  0  0
    3.3982   -1.1919   12.7935 C   0  0  0  0  0  0  0  0  0  0  0  0
    4.4158   -2.1439   12.9387 O   0  0  0  0  0  0  0  0  0  0  0  0
    7.7093   -3.9590   14.8921 C   0  0  0  0  0  0  0  0  0  0  0  0
    6.6503   -3.3522   14.2426 C   0  0  0  0  0  0  0  0  0  0  0  0
    5.3295   -3.6835   14.5952 C   0  0  0  0  0  0  0  0  0  0  0  0
    5.1786   -4.6162   15.5914 C   0  0  0  0  0  0  0  0  0  0  0  0
    6.3489   -5.1780   16.1986 C   0  0  0  0  0  0  0  0  0  0  0  0
    4.2029   -3.0773   13.9461 C   0  0  0  0  0  0  0  0  0  0  0  0
    2.9361   -3.4724   14.3621 C   0  0  0  0  0  0  0  0  0  0  0  0
    2.7762   -4.4076   15.3594 C   0  0  0  0  0  0  0  0  0  0  0  0
    3.8692   -4.9969   15.9929 C   0  0  0  0  0  0  0  0  0  0  0  0
    7.5950   -4.8574   15.8484 N   0  0  0  0  0  0  0  0  0  0  0  0
    7.3977    1.4396   12.6000 C   0  0  0  0  0  0  0  0  0  0  0  0
    7.8137   -0.2887   12.2402 S   0  0  0  0  0  0  0  0  0  0  0  0
    9.0258    0.0859   10.9255 C   0  0  0  0  0  0  0  0  0  0  0  0
    5.0867    4.7840    9.3877 C   0  0  0  0  0  0  0  0  0  0  0  0
    4.9017    5.8596   10.2396 O   0  0  0  0  0  0  0  0  0  0  0  0
    3.9838    6.1669   10.1777 H   0  0  0  0  0  0  0  0  0  0  0  0
    4.7837    5.2537    7.9674 C   0  0  0  0  0  0  0  0  0  0  0  0
    3.9321    6.1157    7.7771 O   0  0  0  0  0  0  0  0  0  0  0  0
    5.5003    4.6386    7.0054 N   0  0  0  0  0  0  0  0  0  0  0  0
    6.5280    3.6388    7.3131 C   0  0  0  0  0  0  0  0  0  0  0  0
    5.1635    4.8600    5.5899 C   0  0  0  0  0  0  0  0  0  0  0  0
    6.2214    4.2143    4.6963 C   0  0  0  0  0  0  0  0  0  0  0  0
    7.0339    2.9432    5.7142 S   0  0  0  0  0  0  0  0  0  0  0  0
    3.8078    4.2667    5.3462 C   0  0  0  0  0  0  0  0  0  0  0  0
    3.6249    3.0601    5.4591 O   0  0  0  0  0  0  0  0  0  0  0  0
    2.8619    5.1356    5.0116 N   0  0  0  0  0  0  0  0  0  0  0  0
    3.1231    6.0630    4.8091 H   0  0  0  0  0  0  0  0  0  0  0  0
    1.4410    4.7706    4.9310 C   0  0  0  0  0  0  0  0  0  0  0  0
    0.5715    5.9571    4.5004 C   0  0  0  0  0  0  0  0  0  0  0  0
    0.9508    4.2052    6.2660 C   0  0  0  0  0  0  0  0  0  0  0  0
    1.3168    3.7111    3.8427 C   0  0  0  0  0  0  0  0  0  0  0  0
    2.6645    4.1680   10.0289 C   0  0  0  0  0  0  0  0  0  0  0  0
    1.7453    3.0633   10.5096 C   0  0  0  0  0  0  0  0  0  0  0  0
    0.0364    1.0544   11.4126 C   0  0  0  0  0  0  0  0  0  0  0  0
    1.6016    1.8914    9.7940 C   0  0  0  0  0  0  0  0  0  0  0  0
    1.0268    3.2110   11.6793 C   0  0  0  0  0  0  0  0  0  0  0  0
    0.7546    0.8960   10.2501 C   0  0  0  0  0  0  0  0  0  0  0  0
    0.1813    2.2151   12.1210 C   0  0  0  0  0  0  0  0  0  0  0  0
 13 14  1  0  0  0
 13 22  2  0  0  0
 14 15  2  0  0  0
 15 16  1  0  0  0
 15 18  1  0  0  0
 16 17  2  0  0  0
 16 21  1  0  0  0
 17 22  1  0  0  0
 18 19  2  0  0  0
 18 12  1  0  0  0
 19 20  1  0  0  0
 20 21  2  0  0  0
 11  7  1  0  0  0
 11 12  1  0  0  0
  7  9  1  0  0  0
  7  8  2  0  0  0
 23  6  1  0  0  0
 23 24  1  0  0  0
  2  6  1  0  0  0
  2  4  1  0  0  0
  2  3  2  0  0  0
  1 26  1  0  0  0
  1 44  1  0  0  0
  1  4  1  0  0  0
 26 29  1  0  0  0
 26 27  1  0  0  0
 44 45  1  0  0  0
 29 31  1  0  0  0
 29 30  2  0  0  0
 33 34  1  0  0  0
 33 36  1  0  0  0
 33 31  1  0  0  0
 34 35  1  0  0  0
 32 31  1  0  0  0
 32 35  1  0  0  0
 36 38  1  0  0  0
 36 37  2  0  0  0
 40 41  1  0  0  0
 40 42  1  0  0  0
 40 43  1  0  0  0
 40 38  1  0  0  0
  6  9  1  0  0  0
 25 24  1  0  0  0
 45 47  2  0  0  0
 45 48  1  0  0  0
 47 49  1  0  0  0
 49 46  2  0  0  0
 46 50  1  0  0  0
 50 48  2  0  0  0
  9 10  1  0  0  0
  4  5  1  0  0  0
 27 28  1  0  0  0
 38 39  1  0  0  0
M  END
> <minimizedAffinity>
-8.29632

$$$$
1HPX_KNI_B_900


 50 53  0  0  0  0  0  0  0  0999 V2000
    5.0554   -0.4590   12.4753 C   0  0  0  0  0  0  0  0  0  0  0  0
    6.9646    0.7274   11.5182 C   0  0  0  0  0  0  0  0  0  0  0  0
    7.5729   -0.3109   11.3098 O   0  0  0  0  0  0  0  0  0  0  0  0
    5.7453    0.7641   12.0523 N   0  0  0  0  0  0  0  0  0  0  0  0
    5.2964    1.6329   12.1660 H   0  0  0  0  0  0  0  0  0  0  0  0
    7.5792    2.0721   11.2204 C   0  0  0  0  0  0  0  0  0  0  0  0
    7.0302    2.3727    8.9047 C   0  0  0  0  0  0  0  0  0  0  0  0
    7.9174    1.6114    8.5662 O   0  0  0  0  0  0  0  0  0  0  0  0
    6.8312    2.7296   10.1610 N   0  0  0  0  0  0  0  0  0  0  0  0
    6.1808    3.4360   10.3785 H   0  0  0  0  0  0  0  0  0  0  0  0
    6.1213    2.9822    7.9042 C   0  0  0  0  0  0  0  0  0  0  0  0
    5.3627    3.9727    8.5417 O   0  0  0  0  0  0  0  0  0  0  0  0
    2.4100    3.8080   11.5769 C   0  0  0  0  0  0  0  0  0  0  0  0
    3.3908    3.8635   10.6039 C   0  0  0  0  0  0  0  0  0  0  0  0
    3.0281    3.9237    9.2462 C   0  0  0  0  0  0  0  0  0  0  0  0
    1.6826    3.9231    8.9725 C   0  0  0  0  0  0  0  0  0  0  0  0
    0.7532    3.8665   10.0619 C   0  0  0  0  0  0  0  0  0  0  0  0
    4.0141    3.9821    8.2059 C   0  0  0  0  0  0  0  0  0  0  0  0
    3.5571    4.0360    6.8936 C   0  0  0  0  0  0  0  0  0  0  0  0
    2.2100    4.0346    6.6106 C   0  0  0  0  0  0  0  0  0  0  0  0
    1.2497    3.9796    7.6196 C   0  0  0  0  0  0  0  0  0  0  0  0
    1.1137    3.8038   11.3443 N   0  0  0  0  0  0  0  0  0  0  0  0
    7.6400    2.9386   12.4550 C   0  0  0  0  0  0  0  0  0  0  0  0
    6.8284    4.4933   11.9926 S   0  0  0  0  0  0  0  0  0  0  0  0
    8.3414    5.5151   12.0594 C   0  0  0  0  0  0  0  0  0  0  0  0
    6.0827   -1.5758   12.7062 C   0  0  0  0  0  0  0  0  0  0  0  0
    5.5794   -2.7208   12.1125 O   0  0  0  0  0  0  0  0  0  0  0  0
    4.7266   -2.9462   12.5162 H   0  0  0  0  0  0  0  0  0  0  0  0
    6.2642   -1.8608   14.1946 C   0  0  0  0  0  0  0  0  0  0  0  0
    7.2479   -1.4264   14.7847 O   0  0  0  0  0  0  0  0  0  0  0  0
    5.2912   -2.6124   14.7474 N   0  0  0  0  0  0  0  0  0  0  0  0
    4.1250   -3.0683   13.9840 C   0  0  0  0  0  0  0  0  0  0  0  0
    5.4506   -3.1186   16.1201 C   0  0  0  0  0  0  0  0  0  0  0  0
    4.1524   -3.7761   16.5862 C   0  0  0  0  0  0  0  0  0  0  0  0
    3.2405   -4.2189   15.0748 S   0  0  0  0  0  0  0  0  0  0  0  0
    6.5867   -4.0976   16.1155 C   0  0  0  0  0  0  0  0  0  0  0  0
    6.4017   -5.2671   15.7990 O   0  0  0  0  0  0  0  0  0  0  0  0
    7.7645   -3.5992   16.4704 N   0  0  0  0  0  0  0  0  0  0  0  0
    7.7990   -2.6877   16.8409 H   0  0  0  0  0  0  0  0  0  0  0  0
    9.0190   -4.3516   16.3332 C   0  0  0  0  0  0  0  0  0  0  0  0
    9.0985   -5.0867   14.9906 C   0  0  0  0  0  0  0  0  0  0  0  0
    9.1893   -5.3360   17.4926 C   0  0  0  0  0  0  0  0  0  0  0  0
   10.1512   -3.3317   16.3488 C   0  0  0  0  0  0  0  0  0  0  0  0
    3.9570   -0.8116   11.4592 C   0  0  0  0  0  0  0  0  0  0  0  0
    2.6008   -0.2661   11.8587 C   0  0  0  0  0  0  0  0  0  0  0  0
    0.1199    0.7501   12.6228 C   0  0  0  0  0  0  0  0  0  0  0  0
    1.6222   -0.0233   10.9155 C   0  0  0  0  0  0  0  0  0  0  0  0
    2.3179    0.0030   13.1830 C   0  0  0  0  0  0  0  0  0  0  0  0
    0.3910    0.4774   11.3021 C   0  0  0  0  0  0  0  0  0  0  0  0
    1.0897    0.5074   13.5559 C   0  0  0  0  0  0  0  0  0  0  0  0
 13 14  1  0  0  0
 13 22  2  0  0  0
 14 15  2  0  0  0
 15 16  1  0  0  0
 15 18  1  0  0  0
 16 17  2  0  0  0
 16 21  1  0  0  0
 17 22  1  0  0  0
 18 19  2  0  0  0
 18 12  1  0  0  0
 19 20  1  0  0  0
 20 21  2  0  0  0
 11  7  1  0  0  0
 11 12  1  0  0  0
  7  9  1  0  0  0
  7  8  2  0  0  0
 23  6  1  0  0  0
 23 24  1  0  0  0
  2  6  1  0  0  0
  2  4  1  0  0  0
  2  3  2  0  0  0
  1 26  1  0  0  0
  1 44  1  0  0  0
  1  4  1  0  0  0
 26 29  1  0  0  0
 26 27  1  0  0  0
 44 45  1  0  0  0
 29 31  1  0  0  0
 29 30  2  0  0  0
 33 34  1  0  0  0
 33 36  1  0  0  0
 33 31  1  0  0  0
 34 35  1  0  0  0
 32 31  1  0  0  0
 32 35  1  0  0  0
 36 38  1  0  0  0
 36 37  2  0  0  0
 40 41  1  0  0  0
 40 42  1  0  0  0
 40 43  1  0  0  0
 40 38  1  0  0  0
  6  9  1  0  0  0
 25 24  1  0  0  0
 45 47  2  0  0  0
 45 48  1  0  0  0
 47 49  1  0  0  0
 49 46  2  0  0  0
 46 50  1  0  0  0
 50 48  2  0  0  0
  9 10  1  0  0  0
  4  5  1  0  0  0
 27 28  1  0  0  0
 38 39  1  0  0  0
M  END
> <minimizedAffinity>
-8.29102

$$$$
1HPX_KNI_B_900


 50 53  0  0  0  0  0  0  0  0999 V2000
    4.3142    2.2949   11.3451 C   0  0  0  0  0  0  0  0  0  0  0  0
    3.8128    0.0018   12.0228 C   0  0  0  0  0  0  0  0  0  0  0  0
    3.0771   -0.1769   11.0645 O   0  0  0  0  0  0  0  0  0  0  0  0
    4.4683    1.1410   12.2371 N   0  0  0  0  0  0  0  0  0  0  0  0
    5.0706    1.2102   13.0128 H   0  0  0  0  0  0  0  0  0  0  0  0
    4.0024   -1.0598   13.0773 C   0  0  0  0  0  0  0  0  0  0  0  0
    6.2838   -1.7638   13.3090 C   0  0  0  0  0  0  0  0  0  0  0  0
    6.0862   -2.7338   12.6010 O   0  0  0  0  0  0  0  0  0  0  0  0
    5.3236   -0.9315   13.6705 N   0  0  0  0  0  0  0  0  0  0  0  0
    5.5015   -0.2292   14.3371 H   0  0  0  0  0  0  0  0  0  0  0  0
    7.6347   -1.4698   13.8451 C   0  0  0  0  0  0  0  0  0  0  0  0
    7.6798   -1.8859   15.1821 O   0  0  0  0  0  0  0  0  0  0  0  0
    5.6794   -4.9018   17.3868 C   0  0  0  0  0  0  0  0  0  0  0  0
    6.3119   -3.9038   16.6687 C   0  0  0  0  0  0  0  0  0  0  0  0
    7.5962   -4.1273   16.1404 C   0  0  0  0  0  0  0  0  0  0  0  0
    8.1505   -5.3600   16.3822 C   0  0  0  0  0  0  0  0  0  0  0  0
    7.4018   -6.3212   17.1368 C   0  0  0  0  0  0  0  0  0  0  0  0
    8.2871   -3.1186   15.3899 C   0  0  0  0  0  0  0  0  0  0  0  0
    9.5544   -3.4329   14.9113 C   0  0  0  0  0  0  0  0  0  0  0  0
   10.1176   -4.6660   15.1503 C   0  0  0  0  0  0  0  0  0  0  0  0
    9.4479   -5.6485   15.8778 C   0  0  0  0  0  0  0  0  0  0  0  0
    6.1868   -6.0914   17.6360 N   0  0  0  0  0  0  0  0  0  0  0  0
    2.9275   -0.9879   14.1347 C   0  0  0  0  0  0  0  0  0  0  0  0
    3.3649   -2.2581   15.3531 S   0  0  0  0  0  0  0  0  0  0  0  0
    3.0659   -3.6814   14.2475 C   0  0  0  0  0  0  0  0  0  0  0  0
    5.6875    2.9271   11.0796 C   0  0  0  0  0  0  0  0  0  0  0  0
    6.0429    3.6230   12.2224 O   0  0  0  0  0  0  0  0  0  0  0  0
    5.3777    4.3048   12.4058 H   0  0  0  0  0  0  0  0  0  0  0  0
    5.6232    3.9235    9.9251 C   0  0  0  0  0  0  0  0  0  0  0  0
    5.0867    5.0144   10.0883 O   0  0  0  0  0  0  0  0  0  0  0  0
    6.1719    3.4879    8.7734 N   0  0  0  0  0  0  0  0  0  0  0  0
    6.8271    2.1805    8.6636 C   0  0  0  0  0  0  0  0  0  0  0  0
    5.9996    4.2723    7.5401 C   0  0  0  0  0  0  0  0  0  0  0  0
    6.8597    3.6820    6.4237 C   0  0  0  0  0  0  0  0  0  0  0  0
    7.1873    1.9560    6.8984 S   0  0  0  0  0  0  0  0  0  0  0  0
    4.5438    4.2422    7.1810 C   0  0  0  0  0  0  0  0  0  0  0  0
    3.8320    3.3103    7.5373 O   0  0  0  0  0  0  0  0  0  0  0  0
    4.1147    5.2782    6.4708 N   0  0  0  0  0  0  0  0  0  0  0  0
    4.7778    5.9105    6.1106 H   0  0  0  0  0  0  0  0  0  0  0  0
    2.6911    5.5202    6.2000 C   0  0  0  0  0  0  0  0  0  0  0  0
    1.9418    5.9767    7.4568 C   0  0  0  0  0  0  0  0  0  0  0  0
    2.0326    4.2717    5.6089 C   0  0  0  0  0  0  0  0  0  0  0  0
    2.6192    6.6671    5.1991 C   0  0  0  0  0  0  0  0  0  0  0  0
    3.2746    3.2653   11.9289 C   0  0  0  0  0  0  0  0  0  0  0  0
    1.8887    3.0427   11.3577 C   0  0  0  0  0  0  0  0  0  0  0  0
   -0.6476    2.6358   10.2749 C   0  0  0  0  0  0  0  0  0  0  0  0
    0.9058    2.4110   12.0932 C   0  0  0  0  0  0  0  0  0  0  0  0
    1.5823    3.4681   10.0805 C   0  0  0  0  0  0  0  0  0  0  0  0
   -0.3529    2.2158   11.5512 C   0  0  0  0  0  0  0  0  0  0  0  0
    0.3266    3.2629    9.5485 C   0  0  0  0  0  0  0  0  0  0  0  0
 13 14  1  0  0  0
 13 22  2  0  0  0
 14 15  2  0  0  0
 15 16  1  0  0  0
 15 18  1  0  0  0
 16 17  2  0  0  0
 16 21  1  0  0  0
 17 22  1  0  0  0
 18 19  2  0  0  0
 18 12  1  0  0  0
 19 20  1  0  0  0
 20 21  2  0  0  0
 11  7  1  0  0  0
 11 12  1  0  0  0
  7  9  1  0  0  0
  7  8  2  0  0  0
 23  6  1  0  0  0
 23 24  1  0  0  0
  2  6  1  0  0  0
  2  4  1  0  0  0
  2  3  2  0  0  0
  1 26  1  0  0  0
  1 44  1  0  0  0
  1  4  1  0  0  0
 26 29  1  0  0  0
 26 27  1  0  0  0
 44 45  1  0  0  0
 29 31  1  0  0  0
 29 30  2  0  0  0
 33 34  1  0  0  0
 33 36  1  0  0  0
 33 31  1  0  0  0
 34 35  1  0  0  0
 32 31  1  0  0  0
 32 35  1  0  0  0
 36 38  1  0  0  0
 36 37  2  0  0  0
 40 41  1  0  0  0
 40 42  1  0  0  0
 40 43  1  0  0  0
 40 38  1  0  0  0
  6  9  1  0  0  0
 25 24  1  0  0  0
 45 47  2  0  0  0
 45 48  1  0  0  0
 47 49  1  0  0  0
 49 46  2  0  0  0
 46 50  1  0  0  0
 50 48  2  0  0  0
  9 10  1  0  0  0
  4  5  1  0  0  0
 27 28  1  0  0  0
 38 39  1  0  0  0
M  END
> <minimizedAffinity>
-8.11822

$$$$
1HPX_KNI_B_900


 50 53  0  0  0  0  0  0  0  0999 V2000
    1.9899    3.7883    8.8104 C   0  0  0  0  0  0  0  0  0  0  0  0
    4.1014    3.8710   10.0365 C   0  0  0  0  0  0  0  0  0  0  0  0
    4.7259    3.4008    9.0982 O   0  0  0  0  0  0  0  0  0  0  0  0
    2.7930    4.1148    9.9933 N   0  0  0  0  0  0  0  0  0  0  0  0
    2.3543    4.5239   10.7740 H   0  0  0  0  0  0  0  0  0  0  0  0
    4.7712    4.1750   11.3533 C   0  0  0  0  0  0  0  0  0  0  0  0
    4.8227    1.9363   12.2132 C   0  0  0  0  0  0  0  0  0  0  0  0
    3.6128    1.9285   12.3445 O   0  0  0  0  0  0  0  0  0  0  0  0
    5.4949    3.0026   11.8177 N   0  0  0  0  0  0  0  0  0  0  0  0
    6.4792    3.0034   11.8374 H   0  0  0  0  0  0  0  0  0  0  0  0
    5.6344    0.7354   12.5257 C   0  0  0  0  0  0  0  0  0  0  0  0
    5.3838    0.3659   13.8537 O   0  0  0  0  0  0  0  0  0  0  0  0
    7.9818   -2.5914   15.4230 C   0  0  0  0  0  0  0  0  0  0  0  0
    7.1513   -1.6095   14.9152 C   0  0  0  0  0  0  0  0  0  0  0  0
    5.8300   -1.9278   14.5529 C   0  0  0  0  0  0  0  0  0  0  0  0
    5.4441   -3.2330   14.7343 C   0  0  0  0  0  0  0  0  0  0  0  0
    6.3884   -4.1670   15.2726 C   0  0  0  0  0  0  0  0  0  0  0  0
    4.9363   -0.9390   14.0223 C   0  0  0  0  0  0  0  0  0  0  0  0
    3.6503   -1.3513   13.6905 C   0  0  0  0  0  0  0  0  0  0  0  0
    3.2559   -2.6581   13.8682 C   0  0  0  0  0  0  0  0  0  0  0  0
    4.1218   -3.6206   14.3852 C   0  0  0  0  0  0  0  0  0  0  0  0
    7.6403   -3.8502   15.6057 N   0  0  0  0  0  0  0  0  0  0  0  0
    5.6902    5.3677   11.2445 C   0  0  0  0  0  0  0  0  0  0  0  0
    7.3563    4.7215   11.5543 S   0  0  0  0  0  0  0  0  0  0  0  0
    7.9667    4.9676    9.8500 C   0  0  0  0  0  0  0  0  0  0  0  0
    2.0519    4.9505    7.8096 C   0  0  0  0  0  0  0  0  0  0  0  0
    0.7638    5.1578    7.3463 O   0  0  0  0  0  0  0  0  0  0  0  0
    0.4401    4.3496    6.9186 H   0  0  0  0  0  0  0  0  0  0  0  0
    2.9304    4.6015    6.6111 C   0  0  0  0  0  0  0  0  0  0  0  0
    3.0520    3.4318    6.2623 O   0  0  0  0  0  0  0  0  0  0  0  0
    3.5339    5.6566    6.0283 N   0  0  0  0  0  0  0  0  0  0  0  0
    3.3131    7.0336    6.4818 C   0  0  0  0  0  0  0  0  0  0  0  0
    4.5557    5.4330    4.9929 C   0  0  0  0  0  0  0  0  0  0  0  0
    4.9522    6.7646    4.3571 C   0  0  0  0  0  0  0  0  0  0  0  0
    4.5005    8.0525    5.5609 S   0  0  0  0  0  0  0  0  0  0  0  0
    5.7307    4.7702    5.6482 C   0  0  0  0  0  0  0  0  0  0  0  0
    6.1189    5.1366    6.7514 O   0  0  0  0  0  0  0  0  0  0  0  0
    6.2878    3.7881    4.9506 N   0  0  0  0  0  0  0  0  0  0  0  0
    6.0024    3.6504    4.0185 H   0  0  0  0  0  0  0  0  0  0  0  0
    7.3131    2.8980    5.5120 C   0  0  0  0  0  0  0  0  0  0  0  0
    6.7249    1.9338    6.5484 C   0  0  0  0  0  0  0  0  0  0  0  0
    8.4572    3.7087    6.1249 C   0  0  0  0  0  0  0  0  0  0  0  0
    7.8389    2.0472    4.3622 C   0  0  0  0  0  0  0  0  0  0  0  0
    0.5659    3.4020    9.2419 C   0  0  0  0  0  0  0  0  0  0  0  0
    0.5541    2.2979   10.2798 C   0  0  0  0  0  0  0  0  0  0  0  0
    0.5578    0.2506   12.1719 C   0  0  0  0  0  0  0  0  0  0  0  0
    0.0566    2.5158   11.5491 C   0  0  0  0  0  0  0  0  0  0  0  0
    1.0472    1.0452    9.9736 C   0  0  0  0  0  0  0  0  0  0  0  0
    0.0574    1.4937   12.4827 C   0  0  0  0  0  0  0  0  0  0  0  0
    1.0486    0.0361   10.9136 C   0  0  0  0  0  0  0  0  0  0  0  0
 13 14  1  0  0  0
 13 22  2  0  0  0
 14 15  2  0  0  0
 15 16  1  0  0  0
 15 18  1  0  0  0
 16 17  2  0  0  0
 16 21  1  0  0  0
 17 22  1  0  0  0
 18 19  2  0  0  0
 18 12  1  0  0  0
 19 20  1  0  0  0
 20 21  2  0  0  0
 11  7  1  0  0  0
 11 12  1  0  0  0
  7  9  1  0  0  0
  7  8  2  0  0  0
 23  6  1  0  0  0
 23 24  1  0  0  0
  2  6  1  0  0  0
  2  4  1  0  0  0
  2  3  2  0  0  0
  1 26  1  0  0  0
  1 44  1  0  0  0
  1  4  1  0  0  0
 26 29  1  0  0  0
 26 27  1  0  0  0
 44 45  1  0  0  0
 29 31  1  0  0  0
 29 30  2  0  0  0
 33 34  1  0  0  0
 33 36  1  0  0  0
 33 31  1  0  0  0
 34 35  1  0  0  0
 32 31  1  0  0  0
 32 35  1  0  0  0
 36 38  1  0  0  0
 36 37  2  0  0  0
 40 41  1  0  0  0
 40 42  1  0  0  0
 40 43  1  0  0  0
 40 38  1  0  0  0
  6  9  1  0  0  0
 25 24  1  0  0  0
 45 47  2  0  0  0
 45 48  1  0  0  0
 47 49  1  0  0  0
 49 46  2  0  0  0
 46 50  1  0  0  0
 50 48  2  0  0  0
  9 10  1  0  0  0
  4  5  1  0  0  0
 27 28  1  0  0  0
 38 39  1  0  0  0
M  END
> <minimizedAffinity>
-8.09988

$$$$
1HPX_KNI_B_900


 50 53  0  0  0  0  0  0  0  0999 V2000
    6.2185    3.7856    9.3459 C   0  0  0  0  0  0  0  0  0  0  0  0
    5.9357    2.2890   11.2561 C   0  0  0  0  0  0  0  0  0  0  0  0
    6.6184    2.9973   11.9798 O   0  0  0  0  0  0  0  0  0  0  0  0
    5.6669    2.5871    9.9864 N   0  0  0  0  0  0  0  0  0  0  0  0
    5.0839    1.9889    9.4654 H   0  0  0  0  0  0  0  0  0  0  0  0
    5.3726    0.9776   11.7441 C   0  0  0  0  0  0  0  0  0  0  0  0
    6.7952   -0.4326   13.0637 C   0  0  0  0  0  0  0  0  0  0  0  0
    6.9349   -1.2080   12.1361 O   0  0  0  0  0  0  0  0  0  0  0  0
    5.9944    0.6166   13.0078 N   0  0  0  0  0  0  0  0  0  0  0  0
    5.8199    1.1505   13.8164 H   0  0  0  0  0  0  0  0  0  0  0  0
    7.5052   -0.6405   14.3488 C   0  0  0  0  0  0  0  0  0  0  0  0
    6.7691   -1.5512   15.1181 O   0  0  0  0  0  0  0  0  0  0  0  0
    4.8257   -4.7275   17.1408 C   0  0  0  0  0  0  0  0  0  0  0  0
    5.4378   -3.6820   16.4746 C   0  0  0  0  0  0  0  0  0  0  0  0
    6.8379   -3.6600   16.3417 C   0  0  0  0  0  0  0  0  0  0  0  0
    7.5215   -4.7115   16.9005 C   0  0  0  0  0  0  0  0  0  0  0  0
    6.7828   -5.7440   17.5654 C   0  0  0  0  0  0  0  0  0  0  0  0
    7.5122   -2.5940   15.6584 C   0  0  0  0  0  0  0  0  0  0  0  0
    8.8991   -2.6595   15.5817 C   0  0  0  0  0  0  0  0  0  0  0  0
    9.5920   -3.7096   16.1402 C   0  0  0  0  0  0  0  0  0  0  0  0
    8.9392   -4.7476   16.8033 C   0  0  0  0  0  0  0  0  0  0  0  0
    5.4549   -5.7470   17.6880 N   0  0  0  0  0  0  0  0  0  0  0  0
    3.8703    1.0367   11.8800 C   0  0  0  0  0  0  0  0  0  0  0  0
    3.3361   -0.6859   12.0721 S   0  0  0  0  0  0  0  0  0  0  0  0
    2.5523   -0.4521   13.7057 C   0  0  0  0  0  0  0  0  0  0  0  0
    5.2599    4.2706    8.2496 C   0  0  0  0  0  0  0  0  0  0  0  0
    5.8145    5.4143    7.7008 O   0  0  0  0  0  0  0  0  0  0  0  0
    5.9186    6.0869    8.3920 H   0  0  0  0  0  0  0  0  0  0  0  0
    3.8985    4.6427    8.8310 C   0  0  0  0  0  0  0  0  0  0  0  0
    3.7183    4.5968   10.0434 O   0  0  0  0  0  0  0  0  0  0  0  0
    2.9702    4.9875    7.9164 N   0  0  0  0  0  0  0  0  0  0  0  0
    3.2701    5.0520    6.4823 C   0  0  0  0  0  0  0  0  0  0  0  0
    1.5708    5.1757    8.3316 C   0  0  0  0  0  0  0  0  0  0  0  0
    0.7549    5.7405    7.1697 C   0  0  0  0  0  0  0  0  0  0  0  0
    1.6761    5.3233    5.6567 S   0  0  0  0  0  0  0  0  0  0  0  0
    1.0431    3.8426    8.7714 C   0  0  0  0  0  0  0  0  0  0  0  0
    1.1219    2.8661    8.0349 O   0  0  0  0  0  0  0  0  0  0  0  0
    0.5054    3.8192    9.9847 N   0  0  0  0  0  0  0  0  0  0  0  0
    0.3580    4.6731   10.4521 H   0  0  0  0  0  0  0  0  0  0  0  0
    0.1212    2.5718   10.6590 C   0  0  0  0  0  0  0  0  0  0  0  0
    0.8324    1.3555   10.0555 C   0  0  0  0  0  0  0  0  0  0  0  0
   -1.3964    2.3789   10.6170 C   0  0  0  0  0  0  0  0  0  0  0  0
    0.5890    2.6874   12.1047 C   0  0  0  0  0  0  0  0  0  0  0  0
    7.6466    3.4990    8.8543 C   0  0  0  0  0  0  0  0  0  0  0  0
    8.5783    4.6760    9.0618 C   0  0  0  0  0  0  0  0  0  0  0  0
   10.2851    6.8406    9.4776 C   0  0  0  0  0  0  0  0  0  0  0  0
    9.5843    4.9587    8.1595 C   0  0  0  0  0  0  0  0  0  0  0  0
    8.4391    5.4915   10.1672 C   0  0  0  0  0  0  0  0  0  0  0  0
   10.4257    6.0376    8.3696 C   0  0  0  0  0  0  0  0  0  0  0  0
    9.2871    6.5601   10.3694 C   0  0  0  0  0  0  0  0  0  0  0  0
 13 14  1  0  0  0
 13 22  2  0  0  0
 14 15  2  0  0  0
 15 16  1  0  0  0
 15 18  1  0  0  0
 16 17  2  0  0  0
 16 21  1  0  0  0
 17 22  1  0  0  0
 18 19  2  0  0  0
 18 12  1  0  0  0
 19 20  1  0  0  0
 20 21  2  0  0  0
 11  7  1  0  0  0
 11 12  1  0  0  0
  7  9  1  0  0  0
  7  8  2  0  0  0
 23  6  1  0  0  0
 23 24  1  0  0  0
  2  6  1  0  0  0
  2  4  1  0  0  0
  2  3  2  0  0  0
  1 26  1  0  0  0
  1 44  1  0  0  0
  1  4  1  0  0  0
 26 29  1  0  0  0
 26 27  1  0  0  0
 44 45  1  0  0  0
 29 31  1  0  0  0
 29 30  2  0  0  0
 33 34  1  0  0  0
 33 36  1  0  0  0
 33 31  1  0  0  0
 34 35  1  0  0  0
 32 31  1  0  0  0
 32 35  1  0  0  0
 36 38  1  0  0  0
 36 37  2  0  0  0
 40 41  1  0  0  0
 40 42  1  0  0  0
 40 43  1  0  0  0
 40 38  1  0  0  0
  6  9  1  0  0  0
 25 24  1  0  0  0
 45 47  2  0  0  0
 45 48  1  0  0  0
 47 49  1  0  0  0
 49 46  2  0  0  0
 46 50  1  0  0  0
 50 48  2  0  0  0
  9 10  1  0  0  0
  4  5  1  0  0  0
 27 28  1  0  0  0
 38 39  1  0  0  0
M  END
> <minimizedAffinity>
-7.98721

$$$$
1HPX_KNI_B_900


 50 53  0  0  0  0  0  0  0  0999 V2000
    2.0785    3.7926    8.7776 C   0  0  0  0  0  0  0  0  0  0  0  0
    4.1779    3.8773   10.0241 C   0  0  0  0  0  0  0  0  0  0  0  0
    4.8180    3.4423    9.0793 O   0  0  0  0  0  0  0  0  0  0  0  0
    2.8661    4.1007    9.9758 N   0  0  0  0  0  0  0  0  0  0  0  0
    2.4142    4.4818   10.7630 H   0  0  0  0  0  0  0  0  0  0  0  0
    4.8315    4.1574   11.3543 C   0  0  0  0  0  0  0  0  0  0  0  0
    4.8240    1.9099   12.1926 C   0  0  0  0  0  0  0  0  0  0  0  0
    3.6119    1.9238   12.3003 O   0  0  0  0  0  0  0  0  0  0  0  0
    5.5238    2.9670   11.8209 N   0  0  0  0  0  0  0  0  0  0  0  0
    6.5074    2.9489   11.8597 H   0  0  0  0  0  0  0  0  0  0  0  0
    5.6067    0.6908   12.5088 C   0  0  0  0  0  0  0  0  0  0  0  0
    4.8287   -0.1324   13.3334 O   0  0  0  0  0  0  0  0  0  0  0  0
    2.9983   -3.8028   14.3992 C   0  0  0  0  0  0  0  0  0  0  0  0
    3.5755   -2.5993   14.0385 C   0  0  0  0  0  0  0  0  0  0  0  0
    4.9071   -2.3249   14.3993 C   0  0  0  0  0  0  0  0  0  0  0  0
    5.5622   -3.3021   15.1072 C   0  0  0  0  0  0  0  0  0  0  0  0
    4.8660   -4.5141   15.4236 C   0  0  0  0  0  0  0  0  0  0  0  0
    5.5432   -1.0888   14.0450 C   0  0  0  0  0  0  0  0  0  0  0  0
    6.8613   -0.9087   14.4496 C   0  0  0  0  0  0  0  0  0  0  0  0
    7.5249   -1.8829   15.1606 C   0  0  0  0  0  0  0  0  0  0  0  0
    6.9098   -3.0856   15.5047 C   0  0  0  0  0  0  0  0  0  0  0  0
    3.6008   -4.7565   15.0790 N   0  0  0  0  0  0  0  0  0  0  0  0
    5.7758    5.3321   11.2706 C   0  0  0  0  0  0  0  0  0  0  0  0
    7.3408    4.7429   11.9728 S   0  0  0  0  0  0  0  0  0  0  0  0
    8.4034    5.9126   11.0561 C   0  0  0  0  0  0  0  0  0  0  0  0
    2.1861    4.9529    7.7785 C   0  0  0  0  0  0  0  0  0  0  0  0
    0.9089    5.2033    7.3066 O   0  0  0  0  0  0  0  0  0  0  0  0
    0.5615    4.4067    6.8757 H   0  0  0  0  0  0  0  0  0  0  0  0
    3.0609    4.5760    6.5859 C   0  0  0  0  0  0  0  0  0  0  0  0
    3.1724    3.3995    6.2572 O   0  0  0  0  0  0  0  0  0  0  0  0
    3.6729    5.6158    5.9848 N   0  0  0  0  0  0  0  0  0  0  0  0
    3.4640    7.0022    6.4146 C   0  0  0  0  0  0  0  0  0  0  0  0
    4.6921    5.3658    4.9528 C   0  0  0  0  0  0  0  0  0  0  0  0
    5.0994    6.6829    4.2941 C   0  0  0  0  0  0  0  0  0  0  0  0
    4.6594    7.9951    5.4758 S   0  0  0  0  0  0  0  0  0  0  0  0
    5.8618    4.7045    5.6189 C   0  0  0  0  0  0  0  0  0  0  0  0
    6.3200    5.1516    6.6640 O   0  0  0  0  0  0  0  0  0  0  0  0
    6.3350    3.6317    4.9967 N   0  0  0  0  0  0  0  0  0  0  0  0
    5.9990    3.4225    4.0953 H   0  0  0  0  0  0  0  0  0  0  0  0
    7.3394    2.7437    5.5977 C   0  0  0  0  0  0  0  0  0  0  0  0
    6.7233    1.8188    6.6534 C   0  0  0  0  0  0  0  0  0  0  0  0
    8.4870    3.5556    6.2025 C   0  0  0  0  0  0  0  0  0  0  0  0
    7.8679    1.8523    4.4804 C   0  0  0  0  0  0  0  0  0  0  0  0
    0.6381    3.4389    9.1817 C   0  0  0  0  0  0  0  0  0  0  0  0
    0.5813    2.3363   10.2198 C   0  0  0  0  0  0  0  0  0  0  0  0
    0.5021    0.2912   12.1125 C   0  0  0  0  0  0  0  0  0  0  0  0
    0.0724    2.5688   11.4820 C   0  0  0  0  0  0  0  0  0  0  0  0
    1.0438    1.0702    9.9210 C   0  0  0  0  0  0  0  0  0  0  0  0
    0.0320    1.5479   12.4159 C   0  0  0  0  0  0  0  0  0  0  0  0
    1.0042    0.0622   10.8613 C   0  0  0  0  0  0  0  0  0  0  0  0
 13 14  1  0  0  0
 13 22  2  0  0  0
 14 15  2  0  0  0
 15 16  1  0  0  0
 15 18  1  0  0  0
 16 17  2  0  0  0
 16 21  1  0  0  0
 17 22  1  0  0  0
 18 19  2  0  0  0
 18 12  1  0  0  0
 19 20  1  0  0  0
 20 21  2  0  0  0
 11  7  1  0  0  0
 11 12  1  0  0  0
  7  9  1  0  0  0
  7  8  2  0  0  0
 23  6  1  0  0  0
 23 24  1  0  0  0
  2  6  1  0  0  0
  2  4  1  0  0  0
  2  3  2  0  0  0
  1 26  1  0  0  0
  1 44  1  0  0  0
  1  4  1  0  0  0
 26 29  1  0  0  0
 26 27  1  0  0  0
 44 45  1  0  0  0
 29 31  1  0  0  0
 29 30  2  0  0  0
 33 34  1  0  0  0
 33 36  1  0  0  0
 33 31  1  0  0  0
 34 35  1  0  0  0
 32 31  1  0  0  0
 32 35  1  0  0  0
 36 38  1  0  0  0
 36 37  2  0  0  0
 40 41  1  0  0  0
 40 42  1  0  0  0
 40 43  1  0  0  0
 40 38  1  0  0  0
  6  9  1  0  0  0
 25 24  1  0  0  0
 45 47  2  0  0  0
 45 48  1  0  0  0
 47 49  1  0  0  0
 49 46  2  0  0  0
 46 50  1  0  0  0
 50 48  2  0  0  0
  9 10  1  0  0  0
  4  5  1  0  0  0
 27 28  1  0  0  0
 38 39  1  0  0  0
M  END
> <minimizedAffinity>
-7.90737

$$$$
1HPX_KNI_B_900


 50 53  0  0  0  0  0  0  0  0999 V2000
    5.9988    4.1333    9.9861 C   0  0  0  0  0  0  0  0  0  0  0  0
    3.8732    3.6965   11.1085 C   0  0  0  0  0  0  0  0  0  0  0  0
    4.0432    4.6099   11.9012 O   0  0  0  0  0  0  0  0  0  0  0  0
    4.7386    3.3993   10.1411 N   0  0  0  0  0  0  0  0  0  0  0  0
    4.5275    2.6695    9.5149 H   0  0  0  0  0  0  0  0  0  0  0  0
    2.6683    2.7934   11.1962 C   0  0  0  0  0  0  0  0  0  0  0  0
    2.5418    0.7096   12.3776 C   0  0  0  0  0  0  0  0  0  0  0  0
    2.1840    0.1277   11.3704 O   0  0  0  0  0  0  0  0  0  0  0  0
    2.7256    2.0171   12.4242 N   0  0  0  0  0  0  0  0  0  0  0  0
    2.9002    2.4626   13.2846 H   0  0  0  0  0  0  0  0  0  0  0  0
    2.7668   -0.0238   13.6465 C   0  0  0  0  0  0  0  0  0  0  0  0
    2.6967   -1.3978   13.3812 O   0  0  0  0  0  0  0  0  0  0  0  0
    3.2559   -3.7493   16.8619 C   0  0  0  0  0  0  0  0  0  0  0  0
    3.0502   -2.9779   15.7330 C   0  0  0  0  0  0  0  0  0  0  0  0
    4.0590   -2.8805   14.7578 C   0  0  0  0  0  0  0  0  0  0  0  0
    5.2149   -3.5801   15.0020 C   0  0  0  0  0  0  0  0  0  0  0  0
    5.3175   -4.3514   16.2055 C   0  0  0  0  0  0  0  0  0  0  0  0
    3.8860   -2.0909   13.5725 C   0  0  0  0  0  0  0  0  0  0  0  0
    4.9420   -2.0544   12.6684 C   0  0  0  0  0  0  0  0  0  0  0  0
    6.1045   -2.7520   12.9064 C   0  0  0  0  0  0  0  0  0  0  0  0
    6.2746   -3.5213   14.0564 C   0  0  0  0  0  0  0  0  0  0  0  0
    4.3534   -4.4287   17.1236 N   0  0  0  0  0  0  0  0  0  0  0  0
    1.3813    3.5780   11.1141 C   0  0  0  0  0  0  0  0  0  0  0  0
    0.4751    2.8712    9.7110 S   0  0  0  0  0  0  0  0  0  0  0  0
   -0.8971    2.1890   10.7057 C   0  0  0  0  0  0  0  0  0  0  0  0
    5.8419    5.2004    8.8940 C   0  0  0  0  0  0  0  0  0  0  0  0
    4.6195    5.8169    9.1000 O   0  0  0  0  0  0  0  0  0  0  0  0
    3.9109    5.1569    9.0433 H   0  0  0  0  0  0  0  0  0  0  0  0
    5.8203    4.5697    7.5042 C   0  0  0  0  0  0  0  0  0  0  0  0
    5.2110    3.5216    7.3179 O   0  0  0  0  0  0  0  0  0  0  0  0
    6.5187    5.2435    6.5686 N   0  0  0  0  0  0  0  0  0  0  0  0
    7.1956    6.5117    6.8590 C   0  0  0  0  0  0  0  0  0  0  0  0
    6.7376    4.6390    5.2447 C   0  0  0  0  0  0  0  0  0  0  0  0
    7.3838    5.6584    4.3077 C   0  0  0  0  0  0  0  0  0  0  0  0
    8.1741    6.8986    5.3796 S   0  0  0  0  0  0  0  0  0  0  0  0
    7.6154    3.4375    5.4322 C   0  0  0  0  0  0  0  0  0  0  0  0
    8.7786    3.5649    5.7966 O   0  0  0  0  0  0  0  0  0  0  0  0
    7.0378    2.2697    5.1784 N   0  0  0  0  0  0  0  0  0  0  0  0
    6.1468    2.2650    4.7596 H   0  0  0  0  0  0  0  0  0  0  0  0
    7.6732    0.9838    5.4967 C   0  0  0  0  0  0  0  0  0  0  0  0
    7.9535    0.8427    6.9970 C   0  0  0  0  0  0  0  0  0  0  0  0
    8.9627    0.8035    4.6926 C   0  0  0  0  0  0  0  0  0  0  0  0
    6.6753   -0.1069    5.1270 C   0  0  0  0  0  0  0  0  0  0  0  0
    7.1481    3.1425    9.7403 C   0  0  0  0  0  0  0  0  0  0  0  0
    7.4296    2.2700   10.9470 C   0  0  0  0  0  0  0  0  0  0  0  0
    7.9299    0.6875   13.1867 C   0  0  0  0  0  0  0  0  0  0  0  0
    7.7194    0.9275   10.8060 C   0  0  0  0  0  0  0  0  0  0  0  0
    7.3979    2.8051   12.2193 C   0  0  0  0  0  0  0  0  0  0  0  0
    7.9711    0.1481   11.9220 C   0  0  0  0  0  0  0  0  0  0  0  0
    7.6444    2.0177   13.3244 C   0  0  0  0  0  0  0  0  0  0  0  0
 13 14  1  0  0  0
 13 22  2  0  0  0
 14 15  2  0  0  0
 15 16  1  0  0  0
 15 18  1  0  0  0
 16 17  2  0  0  0
 16 21  1  0  0  0
 17 22  1  0  0  0
 18 19  2  0  0  0
 18 12  1  0  0  0
 19 20  1  0  0  0
 20 21  2  0  0  0
 11  7  1  0  0  0
 11 12  1  0  0  0
  7  9  1  0  0  0
  7  8  2  0  0  0
 23  6  1  0  0  0
 23 24  1  0  0  0
  2  6  1  0  0  0
  2  4  1  0  0  0
  2  3  2  0  0  0
  1 26  1  0  0  0
  1 44  1  0  0  0
  1  4  1  0  0  0
 26 29  1  0  0  0
 26 27  1  0  0  0
 44 45  1  0  0  0
 29 31  1  0  0  0
 29 30  2  0  0  0
 33 34  1  0  0  0
 33 36  1  0  0  0
 33 31  1  0  0  0
 34 35  1  0  0  0
 32 31  1  0  0  0
 32 35  1  0  0  0
 36 38  1  0  0  0
 36 37  2  0  0  0
 40 41  1  0  0  0
 40 42  1  0  0  0
 40 43  1  0  0  0
 40 38  1  0  0  0
  6  9  1  0  0  0
 25 24  1  0  0  0
 45 47  2  0  0  0
 45 48  1  0  0  0
 47 49  1  0  0  0
 49 46  2  0  0  0
 46 50  1  0  0  0
 50 48  2  0  0  0
  9 10  1  0  0  0
  4  5  1  0  0  0
 27 28  1  0  0  0
 38 39  1  0  0  0
M  END
> <minimizedAffinity>
-7.86851

$$$$
