4ARA_C56_A_600
  RCSB PDB12061711433D
Coordinates from PDB:4ARA:A:600 Model:1 without hydrogens
 25 26  0  0  0  0            999 V2000
   29.8760   21.6360   10.1220   O 0  0  0  0  0  0  0  0  0  0  0  0
   30.6870   22.5270   10.3670   C 0  0  0  0  0  0  0  0  0  0  0  0
   31.9140   22.6630    9.4820   C 0  0  0  0  0  0  0  0  0  0  0  0
   33.0160   23.5610    9.7150   C 0  0  0  0  0  0  0  0  0  0  0  0
   32.9010   24.3180   10.8320   O 0  0  0  0  0  0  0  0  0  0  0  0
   33.9140   25.2190   11.2320   C 0  0  0  0  0  0  0  0  0  0  0  0
   34.1080   23.6420    8.8460   C 0  0  0  0  0  0  0  0  0  0  0  0
   34.2550   22.8580    7.6570   C 0  0  0  0  0  0  0  0  0  0  0  0
   35.4040   23.1030    6.8940   N 0  0  0  0  0  0  0  0  0  0  0  0
   36.3660   24.1690    7.2730   C 0  0  0  0  0  0  0  0  0  0  0  0
   35.8290   22.5700    5.5750   C 0  0  0  0  0  0  0  0  0  0  0  0
   33.1490   21.9700    7.4410   C 0  0  0  0  0  0  0  0  0  0  0  0
   32.9420   21.0030    6.3370   N 0  3  0  0  0  0  0  0  0  0  0  0
   33.8560   20.3320    5.9120   O 0  5  0  0  0  0  0  0  0  0  0  0
   31.7990   20.7170    6.0450   O 0  0  0  0  0  0  0  0  0  0  0  0
   32.0520   21.9090    8.3410   C 0  0  0  0  0  0  0  0  0  0  0  0
   30.4170   23.3790   11.4710   N 0  0  0  0  0  0  0  0  0  0  0  0
   29.1870   23.2480   12.3060   C 0  0  0  0  0  0  0  0  0  0  0  0
   29.2510   22.1710   13.4720   C 0  0  0  0  0  0  0  0  0  0  0  0
   27.9610   22.2320   14.3610   C 0  0  0  0  0  0  0  0  0  0  0  0
   27.4530   20.8030   14.5250   C 0  0  0  0  0  0  0  0  0  0  0  0
   28.1630   20.0070   13.4280   C 0  0  0  0  0  0  0  0  0  0  0  0
   29.2830   20.8110   12.8330   N 0  0  0  0  0  0  0  0  0  0  0  0
   30.5340   19.9950   12.8690   C 0  0  0  0  0  0  0  0  0  0  0  0
   30.6140   18.8700   11.8460   C 0  0  0  0  0  0  0  0  0  0  0  0
  1  2  2  0  0  0  0
  2  3  1  0  0  0  0
  2 17  1  0  0  0  0
  3  4  1  0  0  0  0
  3 16  2  0  0  0  0
  4  5  1  0  0  0  0
  4  7  2  0  0  0  0
  5  6  1  0  0  0  0
  7  8  1  0  0  0  0
  8  9  1  0  0  0  0
  8 12  2  0  0  0  0
  9 10  1  0  0  0  0
  9 11  1  0  0  0  0
 12 13  1  0  0  0  0
 12 16  1  0  0  0  0
 13 14  1  0  0  0  0
 13 15  2  0  0  0  0
 17 18  1  0  0  0  0
 19 20  1  0  0  0  0
 19 23  1  0  0  0  0
 19 18  1  0  0  0  0
 20 21  1  0  0  0  0
 21 22  1  0  0  0  0
 22 23  1  0  0  0  0
 23 24  1  0  0  0  0
 24 25  1  0  0  0  0
M  CHG  2  13   1  14  -1
A    1
O16
A    2
C15
A    3
C2
A    4
C3
A    5
O13
A    6
C14
A    7
C4
A    8
C5
A    9
N10
A   10
C12
A   11
C11
A   12
C6
A   13
N7
A   14
O9
A   15
O8
A   16
C1
A   17
N17
A   18
C18
A   19
C05
A   20
C06
A   21
C07
A   22
C08
A   23
N09
A   24
C10
A   25
C13
M  END
>  <InstanceId>
4ARA_C56_A_600

>  <ChemCompId>
C56

>  <PdbId>
4ARA

>  <ChainId>
A

>  <ResidueNumber>
600

>  <InsertionCode>


>  <Model>
1

>  <AltIds>


>  <MissingHeavyAtoms>
0

>  <ObservedFormula>
C17 N4 O4

>  <Name>
4-(DIMETHYLAMINO)-N-{[(2R)-1-ETHYLPYRROLIDIN-2-YL]METHYL}-2-METHOXY-5-NITROBENZAMIDE

>  <SystematicName>
4-(dimethylamino)-N-[[(2R)-1-ethylpyrrolidin-2-yl]methyl]-2-methoxy-5-nitro-benzamide

>  <Synonyms>


>  <Type>
NON-POLYMER

>  <Formula>
C17 H26 N4 O4

>  <MolecularWeight>
350.413

>  <ModifiedDate>
2014-09-05

>  <Parent>


>  <OneLetterCode>


>  <SubcomponentList>


>  <AmbiguousFlag>
N

>  <InChI>
InChI=1S/C17H26N4O4/c1-5-20-8-6-7-12(20)11-18-17(22)13-9-15(21(23)24)14(19(2)3)10-16(13)25-4/h9-10,12H,5-8,11H2,1-4H3,(H,18,22)/t12-/m1/s1

>  <InChIKey>
AFNPLUMDSLEAPD-GFCCVEGCSA-N

>  <SMILES>
CCN1CCC[C@@H]1CNC(=O)c2cc(c(cc2OC)N(C)C)[N+](=O)[O-]

$$$$
