4ARA_C56_A_600


 26 27  0  0  0  0  0  0  0  0999 V2000
   31.7166   22.7611    9.7142 C   0  0  0  0  0  0  0  0  0  0  0  0
   32.8584   23.5841   10.0209 C   0  0  0  0  0  0  0  0  0  0  0  0
   33.9579   23.6829    9.1632 C   0  0  0  0  0  0  0  0  0  0  0  0
   34.0744   22.9911    7.9150 C   0  0  0  0  0  0  0  0  0  0  0  0
   32.9289   22.1770    7.6261 C   0  0  0  0  0  0  0  0  0  0  0  0
   31.8252   22.0958    8.5162 C   0  0  0  0  0  0  0  0  0  0  0  0
   29.3994   22.3857   10.0417 O   0  0  0  0  0  0  0  0  0  0  0  0
   30.4796   22.6127   10.5831 C   0  0  0  0  0  0  0  0  0  0  0  0
   30.4969   22.7243   11.9990 N   0  0  0  0  0  0  0  0  0  0  0  0
   31.3572   22.8843   12.4502 H   0  0  0  0  0  0  0  0  0  0  0  0
   29.2625   22.6088   12.8300 C   0  0  0  0  0  0  0  0  0  0  0  0
   29.0085   21.1921   13.5024 C   0  0  0  0  0  0  0  0  0  0  0  0
   28.0207   21.3171   14.7135 C   0  0  0  0  0  0  0  0  0  0  0  0
   26.9614   20.2315   14.5510 C   0  0  0  0  0  0  0  0  0  0  0  0
   27.0806   19.7836   13.0928 C   0  0  0  0  0  0  0  0  0  0  0  0
   28.3431   20.3160   12.4784 N   0  0  0  0  0  0  0  0  0  0  0  0
   29.0940   19.1816   11.8606 C   0  0  0  0  0  0  0  0  0  0  0  0
   30.5796   19.1211   12.1890 C   0  0  0  0  0  0  0  0  0  0  0  0
   35.2379   23.2420    7.1763 N   0  0  0  0  0  0  0  0  0  0  0  0
   36.2575   24.2108    7.6529 C   0  0  0  0  0  0  0  0  0  0  0  0
   35.6364   22.8134    5.8118 C   0  0  0  0  0  0  0  0  0  0  0  0
   32.6827   21.3130    6.4472 N   0  0  0  0  0  0  0  0  0  0  0  0
   33.3329   20.3089    6.2593 O   0  0  0  0  0  0  0  0  0  0  0  0
   31.6589   21.4931    5.8203 O   0  0  0  0  0  0  0  0  0  0  0  0
   32.7730   24.2532   11.1952 O   0  0  0  0  0  0  0  0  0  0  0  0
   33.8579   24.9974   11.7121 C   0  0  0  0  0  0  0  0  0  0  0  0
  7  8  2  0  0  0
  8  1  1  0  0  0
  8  9  1  0  0  0
  1  2  1  0  0  0
  1  6  2  0  0  0
  2 25  1  0  0  0
  2  3  2  0  0  0
 25 26  1  0  0  0
  3  4  1  0  0  0
  4 19  1  0  0  0
  4  5  2  0  0  0
 19 20  1  0  0  0
 19 21  1  0  0  0
  5 22  1  0  0  0
  5  6  1  0  0  0
 22 23  1  0  0  0
 22 24  2  0  0  0
  9 11  1  0  0  0
 12 13  1  0  0  0
 12 16  1  0  0  0
 12 11  1  0  0  0
 13 14  1  0  0  0
 14 15  1  0  0  0
 15 16  1  0  0  0
 16 17  1  0  0  0
 17 18  1  0  0  0
  9 10  1  0  0  0
M  CHG 1  22   1
M  CHG 1  23  -1
M  END
> <minimizedAffinity>
-9.07950

$$$$
4ARA_C56_A_600


 26 27  0  0  0  0  0  0  0  0999 V2000
   31.4187   22.9031   10.1196 C   0  0  0  0  0  0  0  0  0  0  0  0
   32.6769   23.5922   10.2513 C   0  0  0  0  0  0  0  0  0  0  0  0
   33.6756   23.5132    9.2764 C   0  0  0  0  0  0  0  0  0  0  0  0
   33.5672   22.7536    8.0676 C   0  0  0  0  0  0  0  0  0  0  0  0
   32.3086   22.0745    7.9533 C   0  0  0  0  0  0  0  0  0  0  0  0
   31.3114   22.1731    8.9598 C   0  0  0  0  0  0  0  0  0  0  0  0
   29.2951   22.2386   10.9358 O   0  0  0  0  0  0  0  0  0  0  0  0
   30.2798   22.9505   11.1234 C   0  0  0  0  0  0  0  0  0  0  0  0
   30.2840   23.7793   12.2770 N   0  0  0  0  0  0  0  0  0  0  0  0
   31.0741   24.3394   12.4537 H   0  0  0  0  0  0  0  0  0  0  0  0
   29.1382   23.8347   13.2316 C   0  0  0  0  0  0  0  0  0  0  0  0
   29.2127   22.8354   14.4642 C   0  0  0  0  0  0  0  0  0  0  0  0
   28.2735   21.6001   14.2402 C   0  0  0  0  0  0  0  0  0  0  0  0
   29.0861   20.3476   14.5529 C   0  0  0  0  0  0  0  0  0  0  0  0
   30.5437   20.8125   14.5365 C   0  0  0  0  0  0  0  0  0  0  0  0
   30.6196   22.3122   14.5406 N   0  0  0  0  0  0  0  0  0  0  0  0
   31.5217   22.7461   15.6497 C   0  0  0  0  0  0  0  0  0  0  0  0
   32.6804   23.6452   15.2404 C   0  0  0  0  0  0  0  0  0  0  0  0
   34.6606   22.8230    7.1946 N   0  0  0  0  0  0  0  0  0  0  0  0
   35.7384   23.8258    7.3901 C   0  0  0  0  0  0  0  0  0  0  0  0
   34.9209   22.1376    5.9035 C   0  0  0  0  0  0  0  0  0  0  0  0
   31.8299   21.1924    6.8626 N   0  0  0  0  0  0  0  0  0  0  0  0
   31.3328   21.6509    5.8582 O   0  0  0  0  0  0  0  0  0  0  0  0
   32.1754   20.0289    6.8859 O   0  0  0  0  0  0  0  0  0  0  0  0
   32.8049   24.3220   11.3849 O   0  0  0  0  0  0  0  0  0  0  0  0
   33.9427   25.1228   11.6339 C   0  0  0  0  0  0  0  0  0  0  0  0
  7  8  2  0  0  0
  8  1  1  0  0  0
  8  9  1  0  0  0
  1  2  1  0  0  0
  1  6  2  0  0  0
  2 25  1  0  0  0
  2  3  2  0  0  0
 25 26  1  0  0  0
  3  4  1  0  0  0
  4 19  1  0  0  0
  4  5  2  0  0  0
 19 20  1  0  0  0
 19 21  1  0  0  0
  5 22  1  0  0  0
  5  6  1  0  0  0
 22 23  1  0  0  0
 22 24  2  0  0  0
  9 11  1  0  0  0
 12 13  1  0  0  0
 12 16  1  0  0  0
 12 11  1  0  0  0
 13 14  1  0  0  0
 14 15  1  0  0  0
 15 16  1  0  0  0
 16 17  1  0  0  0
 17 18  1  0  0  0
  9 10  1  0  0  0
M  CHG 1  22   1
M  CHG 1  23  -1
M  END
> <minimizedAffinity>
-8.97229

$$$$
4ARA_C56_A_600


 26 27  0  0  0  0  0  0  0  0999 V2000
   29.1585   21.1589   11.9227 C   0  0  0  0  0  0  0  0  0  0  0  0
   28.6049   21.7762   13.1006 C   0  0  0  0  0  0  0  0  0  0  0  0
   27.9971   21.0324   14.1162 C   0  0  0  0  0  0  0  0  0  0  0  0
   27.8545   19.6079   14.1004 C   0  0  0  0  0  0  0  0  0  0  0  0
   28.4111   19.0103   12.9208 C   0  0  0  0  0  0  0  0  0  0  0  0
   29.0233   19.7911   11.9046 C   0  0  0  0  0  0  0  0  0  0  0  0
   29.2367   22.0563    9.7303 O   0  0  0  0  0  0  0  0  0  0  0  0
   29.8471   21.8930   10.7850 C   0  0  0  0  0  0  0  0  0  0  0  0
   31.1694   22.4050   10.8677 N   0  0  0  0  0  0  0  0  0  0  0  0
   31.6644   22.3019   11.7124 H   0  0  0  0  0  0  0  0  0  0  0  0
   31.8382   23.0931    9.7247 C   0  0  0  0  0  0  0  0  0  0  0  0
   33.1971   22.4420    9.2214 C   0  0  0  0  0  0  0  0  0  0  0  0
   32.9214   21.1280    8.4118 C   0  0  0  0  0  0  0  0  0  0  0  0
   33.7321   21.2092    7.1222 C   0  0  0  0  0  0  0  0  0  0  0  0
   34.1142   22.6850    6.9925 C   0  0  0  0  0  0  0  0  0  0  0  0
   33.8446   23.4152    8.2766 N   0  0  0  0  0  0  0  0  0  0  0  0
   35.0823   24.1457    8.6847 C   0  0  0  0  0  0  0  0  0  0  0  0
   36.1905   24.1940    7.6415 C   0  0  0  0  0  0  0  0  0  0  0  0
   27.2462   19.0357   15.2252 N   0  0  0  0  0  0  0  0  0  0  0  0
   25.7884   18.7533   15.2510 C   0  0  0  0  0  0  0  0  0  0  0  0
   27.7755   18.7623   16.5852 C   0  0  0  0  0  0  0  0  0  0  0  0
   28.4491   17.5785   12.5398 N   0  0  0  0  0  0  0  0  0  0  0  0
   28.2390   17.2274   11.4001 O   0  0  0  0  0  0  0  0  0  0  0  0
   28.9406   16.7980   13.3290 O   0  0  0  0  0  0  0  0  0  0  0  0
   28.7296   23.1240   13.1433 O   0  0  0  0  0  0  0  0  0  0  0  0
   29.3722   23.7817   14.2168 C   0  0  0  0  0  0  0  0  0  0  0  0
  7  8  2  0  0  0
  8  1  1  0  0  0
  8  9  1  0  0  0
  1  2  1  0  0  0
  1  6  2  0  0  0
  2 25  1  0  0  0
  2  3  2  0  0  0
 25 26  1  0  0  0
  3  4  1  0  0  0
  4 19  1  0  0  0
  4  5  2  0  0  0
 19 20  1  0  0  0
 19 21  1  0  0  0
  5 22  1  0  0  0
  5  6  1  0  0  0
 22 23  1  0  0  0
 22 24  2  0  0  0
  9 11  1  0  0  0
 12 13  1  0  0  0
 12 16  1  0  0  0
 12 11  1  0  0  0
 13 14  1  0  0  0
 14 15  1  0  0  0
 15 16  1  0  0  0
 16 17  1  0  0  0
 17 18  1  0  0  0
  9 10  1  0  0  0
M  CHG 1  22   1
M  CHG 1  23  -1
M  END
> <minimizedAffinity>
-8.82598

$$$$
4ARA_C56_A_600


 26 27  0  0  0  0  0  0  0  0999 V2000
   33.8120   23.5912    8.9839 C   0  0  0  0  0  0  0  0  0  0  0  0
   33.9903   22.8219    7.7792 C   0  0  0  0  0  0  0  0  0  0  0  0
   35.0818   23.0136    6.9271 C   0  0  0  0  0  0  0  0  0  0  0  0
   36.1193   23.9757    7.1461 C   0  0  0  0  0  0  0  0  0  0  0  0
   35.9255   24.7322    8.3497 C   0  0  0  0  0  0  0  0  0  0  0  0
   34.8066   24.5157    9.1972 C   0  0  0  0  0  0  0  0  0  0  0  0
   32.7915   23.8899   11.1022 O   0  0  0  0  0  0  0  0  0  0  0  0
   32.6654   23.4333    9.9676 C   0  0  0  0  0  0  0  0  0  0  0  0
   31.4443   22.7801    9.6517 N   0  0  0  0  0  0  0  0  0  0  0  0
   31.3185   22.4278    8.7410 H   0  0  0  0  0  0  0  0  0  0  0  0
   30.3445   22.6066   10.6455 C   0  0  0  0  0  0  0  0  0  0  0  0
   29.7802   21.1303   10.8057 C   0  0  0  0  0  0  0  0  0  0  0  0
   30.9176   20.0713   10.5979 C   0  0  0  0  0  0  0  0  0  0  0  0
   30.8327   19.0792   11.7536 C   0  0  0  0  0  0  0  0  0  0  0  0
   29.9703   19.7780   12.8067 C   0  0  0  0  0  0  0  0  0  0  0  0
   29.2914   20.9817   12.2192 N   0  0  0  0  0  0  0  0  0  0  0  0
   27.8267   20.8941   12.5006 C   0  0  0  0  0  0  0  0  0  0  0  0
   26.9589   20.4481   11.3317 C   0  0  0  0  0  0  0  0  0  0  0  0
   37.1503   23.9986    6.1980 N   0  0  0  0  0  0  0  0  0  0  0  0
   37.2122   22.9954    5.1047 C   0  0  0  0  0  0  0  0  0  0  0  0
   38.3981   24.8008    6.1355 C   0  0  0  0  0  0  0  0  0  0  0  0
   36.7707   25.8146    8.9072 N   0  0  0  0  0  0  0  0  0  0  0  0
   36.3263   26.9264    9.0884 O   0  0  0  0  0  0  0  0  0  0  0  0
   37.8298   25.5005    9.4103 O   0  0  0  0  0  0  0  0  0  0  0  0
   33.0244   21.9010    7.5492 O   0  0  0  0  0  0  0  0  0  0  0  0
   33.3300   20.5841    7.1366 C   0  0  0  0  0  0  0  0  0  0  0  0
  7  8  2  0  0  0
  8  1  1  0  0  0
  8  9  1  0  0  0
  1  2  1  0  0  0
  1  6  2  0  0  0
  2 25  1  0  0  0
  2  3  2  0  0  0
 25 26  1  0  0  0
  3  4  1  0  0  0
  4 19  1  0  0  0
  4  5  2  0  0  0
 19 20  1  0  0  0
 19 21  1  0  0  0
  5 22  1  0  0  0
  5  6  1  0  0  0
 22 23  1  0  0  0
 22 24  2  0  0  0
  9 11  1  0  0  0
 12 13  1  0  0  0
 12 16  1  0  0  0
 12 11  1  0  0  0
 13 14  1  0  0  0
 14 15  1  0  0  0
 15 16  1  0  0  0
 16 17  1  0  0  0
 17 18  1  0  0  0
  9 10  1  0  0  0
M  CHG 1  22   1
M  CHG 1  23  -1
M  END
> <minimizedAffinity>
-8.55527

$$$$
4ARA_C56_A_600


 26 27  0  0  0  0  0  0  0  0999 V2000
   31.8418   22.4993    9.6141 C   0  0  0  0  0  0  0  0  0  0  0  0
   32.5832   22.2425    8.4060 C   0  0  0  0  0  0  0  0  0  0  0  0
   33.7781   22.9047    8.1098 C   0  0  0  0  0  0  0  0  0  0  0  0
   34.3846   23.8929    8.9499 C   0  0  0  0  0  0  0  0  0  0  0  0
   33.6331   24.1356   10.1478 C   0  0  0  0  0  0  0  0  0  0  0  0
   32.4216   23.4474   10.4230 C   0  0  0  0  0  0  0  0  0  0  0  0
   29.5155   22.0940    9.4099 O   0  0  0  0  0  0  0  0  0  0  0  0
   30.5477   21.8126   10.0156 C   0  0  0  0  0  0  0  0  0  0  0  0
   30.4583   20.8566   11.0623 N   0  0  0  0  0  0  0  0  0  0  0  0
   31.2793   20.6038   11.5431 H   0  0  0  0  0  0  0  0  0  0  0  0
   29.1690   20.2200   11.4620 C   0  0  0  0  0  0  0  0  0  0  0  0
   28.1334   21.1617   12.2132 C   0  0  0  0  0  0  0  0  0  0  0  0
   26.7279   20.4752   12.3189 C   0  0  0  0  0  0  0  0  0  0  0  0
   26.2618   20.6119   13.7649 C   0  0  0  0  0  0  0  0  0  0  0  0
   27.5241   20.9737   14.5503 C   0  0  0  0  0  0  0  0  0  0  0  0
   28.6346   21.3599   13.6163 N   0  0  0  0  0  0  0  0  0  0  0  0
   29.1794   22.6858   14.0375 C   0  0  0  0  0  0  0  0  0  0  0  0
   29.4104   23.6877   12.9144 C   0  0  0  0  0  0  0  0  0  0  0  0
   35.6010   24.4228    8.5007 N   0  0  0  0  0  0  0  0  0  0  0  0
   36.1461   24.0719    7.1646 C   0  0  0  0  0  0  0  0  0  0  0  0
   36.6346   25.2221    9.2059 C   0  0  0  0  0  0  0  0  0  0  0  0
   33.9289   25.0831   11.2484 N   0  0  0  0  0  0  0  0  0  0  0  0
   34.1665   26.2492   11.0246 O   0  0  0  0  0  0  0  0  0  0  0  0
   33.6794   24.7266   12.3816 O   0  0  0  0  0  0  0  0  0  0  0  0
   32.0334   21.3085    7.5940 O   0  0  0  0  0  0  0  0  0  0  0  0
   31.7825   21.5615    6.2261 C   0  0  0  0  0  0  0  0  0  0  0  0
  7  8  2  0  0  0
  8  1  1  0  0  0
  8  9  1  0  0  0
  1  2  1  0  0  0
  1  6  2  0  0  0
  2 25  1  0  0  0
  2  3  2  0  0  0
 25 26  1  0  0  0
  3  4  1  0  0  0
  4 19  1  0  0  0
  4  5  2  0  0  0
 19 20  1  0  0  0
 19 21  1  0  0  0
  5 22  1  0  0  0
  5  6  1  0  0  0
 22 23  1  0  0  0
 22 24  2  0  0  0
  9 11  1  0  0  0
 12 13  1  0  0  0
 12 16  1  0  0  0
 12 11  1  0  0  0
 13 14  1  0  0  0
 14 15  1  0  0  0
 15 16  1  0  0  0
 16 17  1  0  0  0
 17 18  1  0  0  0
  9 10  1  0  0  0
M  CHG 1  22   1
M  CHG 1  23  -1
M  END
> <minimizedAffinity>
-8.42408

$$$$
4ARA_C56_A_600


 26 27  0  0  0  0  0  0  0  0999 V2000
   30.0621   21.1259   11.5431 C   0  0  0  0  0  0  0  0  0  0  0  0
   29.8576   19.7913   12.0453 C   0  0  0  0  0  0  0  0  0  0  0  0
   29.5142   19.5405   13.3769 C   0  0  0  0  0  0  0  0  0  0  0  0
   29.3355   20.5555   14.3708 C   0  0  0  0  0  0  0  0  0  0  0  0
   29.5429   21.8775   13.8533 C   0  0  0  0  0  0  0  0  0  0  0  0
   29.8910   22.1028   12.4949 C   0  0  0  0  0  0  0  0  0  0  0  0
   29.6086   22.1134    9.4367 O   0  0  0  0  0  0  0  0  0  0  0  0
   30.4204   21.4822   10.1107 C   0  0  0  0  0  0  0  0  0  0  0  0
   31.6498   21.1232    9.4964 N   0  0  0  0  0  0  0  0  0  0  0  0
   32.3198   20.6365   10.0288 H   0  0  0  0  0  0  0  0  0  0  0  0
   31.9660   21.4546    8.0761 C   0  0  0  0  0  0  0  0  0  0  0  0
   33.5084   21.4823    7.6966 C   0  0  0  0  0  0  0  0  0  0  0  0
   33.8831   20.2598    6.7893 C   0  0  0  0  0  0  0  0  0  0  0  0
   34.6834   20.7982    5.6075 C   0  0  0  0  0  0  0  0  0  0  0  0
   34.4114   22.3039    5.6042 C   0  0  0  0  0  0  0  0  0  0  0  0
   33.7548   22.7247    6.8874 N   0  0  0  0  0  0  0  0  0  0  0  0
   34.5278   23.8606    7.4743 C   0  0  0  0  0  0  0  0  0  0  0  0
   34.5054   23.9544    8.9940 C   0  0  0  0  0  0  0  0  0  0  0  0
   28.9590   20.1123   15.6452 N   0  0  0  0  0  0  0  0  0  0  0  0
   27.7075   19.3401   15.8523 C   0  0  0  0  0  0  0  0  0  0  0  0
   29.5254   20.4075   16.9856 C   0  0  0  0  0  0  0  0  0  0  0  0
   29.4590   23.1734   14.5676 N   0  0  0  0  0  0  0  0  0  0  0  0
   30.3357   23.5308   15.3226 O   0  0  0  0  0  0  0  0  0  0  0  0
   28.6280   23.9731   14.1889 O   0  0  0  0  0  0  0  0  0  0  0  0
   30.0168   18.8111   11.1245 O   0  0  0  0  0  0  0  0  0  0  0  0
   29.6125   17.4795   11.3727 C   0  0  0  0  0  0  0  0  0  0  0  0
  7  8  2  0  0  0
  8  1  1  0  0  0
  8  9  1  0  0  0
  1  2  1  0  0  0
  1  6  2  0  0  0
  2 25  1  0  0  0
  2  3  2  0  0  0
 25 26  1  0  0  0
  3  4  1  0  0  0
  4 19  1  0  0  0
  4  5  2  0  0  0
 19 20  1  0  0  0
 19 21  1  0  0  0
  5 22  1  0  0  0
  5  6  1  0  0  0
 22 23  1  0  0  0
 22 24  2  0  0  0
  9 11  1  0  0  0
 12 13  1  0  0  0
 12 16  1  0  0  0
 12 11  1  0  0  0
 13 14  1  0  0  0
 14 15  1  0  0  0
 15 16  1  0  0  0
 16 17  1  0  0  0
 17 18  1  0  0  0
  9 10  1  0  0  0
M  CHG 1  22   1
M  CHG 1  23  -1
M  END
> <minimizedAffinity>
-8.18990

$$$$
4ARA_C56_A_600


 26 27  0  0  0  0  0  0  0  0999 V2000
   33.1708   23.3505    9.4115 C   0  0  0  0  0  0  0  0  0  0  0  0
   34.3556   24.0952    9.0696 C   0  0  0  0  0  0  0  0  0  0  0  0
   35.0901   23.8353    7.9089 C   0  0  0  0  0  0  0  0  0  0  0  0
   34.7601   22.8216    6.9532 C   0  0  0  0  0  0  0  0  0  0  0  0
   33.5781   22.0906    7.3097 C   0  0  0  0  0  0  0  0  0  0  0  0
   32.8511   22.3766    8.4957 C   0  0  0  0  0  0  0  0  0  0  0  0
   32.7711   24.2421   11.5710 O   0  0  0  0  0  0  0  0  0  0  0  0
   32.3107   23.5810   10.6421 C   0  0  0  0  0  0  0  0  0  0  0  0
   30.9930   23.0705   10.7858 N   0  0  0  0  0  0  0  0  0  0  0  0
   30.6011   22.5575   10.0426 H   0  0  0  0  0  0  0  0  0  0  0  0
   30.1791   23.2810   12.0189 C   0  0  0  0  0  0  0  0  0  0  0  0
   29.4016   22.0071   12.5633 C   0  0  0  0  0  0  0  0  0  0  0  0
   28.8562   21.1365   11.3790 C   0  0  0  0  0  0  0  0  0  0  0  0
   29.2434   19.6885   11.6622 C   0  0  0  0  0  0  0  0  0  0  0  0
   30.3325   19.7770   12.7332 C   0  0  0  0  0  0  0  0  0  0  0  0
   30.3888   21.1598   13.3160 N   0  0  0  0  0  0  0  0  0  0  0  0
   30.3088   21.0590   14.8045 C   0  0  0  0  0  0  0  0  0  0  0  0
   28.9180   20.8103   15.3722 C   0  0  0  0  0  0  0  0  0  0  0  0
   35.5974   22.7325    5.8337 N   0  0  0  0  0  0  0  0  0  0  0  0
   36.1083   21.4218    5.3578 C   0  0  0  0  0  0  0  0  0  0  0  0
   36.2680   23.7876    5.0327 C   0  0  0  0  0  0  0  0  0  0  0  0
   32.9304   20.9709    6.5860 N   0  0  0  0  0  0  0  0  0  0  0  0
   31.9822   21.1609    5.8573 O   0  0  0  0  0  0  0  0  0  0  0  0
   33.5223   19.9121    6.5400 O   0  0  0  0  0  0  0  0  0  0  0  0
   34.6889   25.0638    9.9554 O   0  0  0  0  0  0  0  0  0  0  0  0
   35.2351   26.2999    9.5411 C   0  0  0  0  0  0  0  0  0  0  0  0
  7  8  2  0  0  0
  8  1  1  0  0  0
  8  9  1  0  0  0
  1  2  1  0  0  0
  1  6  2  0  0  0
  2 25  1  0  0  0
  2  3  2  0  0  0
 25 26  1  0  0  0
  3  4  1  0  0  0
  4 19  1  0  0  0
  4  5  2  0  0  0
 19 20  1  0  0  0
 19 21  1  0  0  0
  5 22  1  0  0  0
  5  6  1  0  0  0
 22 23  1  0  0  0
 22 24  2  0  0  0
  9 11  1  0  0  0
 12 13  1  0  0  0
 12 16  1  0  0  0
 12 11  1  0  0  0
 13 14  1  0  0  0
 14 15  1  0  0  0
 15 16  1  0  0  0
 16 17  1  0  0  0
 17 18  1  0  0  0
  9 10  1  0  0  0
M  CHG 1  22   1
M  CHG 1  23  -1
M  END
> <minimizedAffinity>
-8.18892

$$$$
4ARA_C56_A_600


 26 27  0  0  0  0  0  0  0  0999 V2000
   33.4627   22.7125    8.4798 C   0  0  0  0  0  0  0  0  0  0  0  0
   34.0259   23.7576    9.2956 C   0  0  0  0  0  0  0  0  0  0  0  0
   35.1302   24.5101    8.8851 C   0  0  0  0  0  0  0  0  0  0  0  0
   35.8139   24.3298    7.6401 C   0  0  0  0  0  0  0  0  0  0  0  0
   35.2397   23.2856    6.8412 C   0  0  0  0  0  0  0  0  0  0  0  0
   34.1167   22.5370    7.2836 C   0  0  0  0  0  0  0  0  0  0  0  0
   31.2849   21.8601    8.0944 O   0  0  0  0  0  0  0  0  0  0  0  0
   32.2580   21.8627    8.8458 C   0  0  0  0  0  0  0  0  0  0  0  0
   32.1876   21.0644   10.0185 N   0  0  0  0  0  0  0  0  0  0  0  0
   32.9666   21.0381   10.6200 H   0  0  0  0  0  0  0  0  0  0  0  0
   30.9796   20.2639   10.3752 C   0  0  0  0  0  0  0  0  0  0  0  0
   29.9367   20.9738   11.3406 C   0  0  0  0  0  0  0  0  0  0  0  0
   28.5828   21.2458   10.5983 C   0  0  0  0  0  0  0  0  0  0  0  0
   27.4593   20.7535   11.5051 C   0  0  0  0  0  0  0  0  0  0  0  0
   28.1497   19.8478   12.5269 C   0  0  0  0  0  0  0  0  0  0  0  0
   29.6398   20.0232   12.4663 N   0  0  0  0  0  0  0  0  0  0  0  0
   30.1478   20.3084   13.8421 C   0  0  0  0  0  0  0  0  0  0  0  0
   30.1445   21.7747   14.2526 C   0  0  0  0  0  0  0  0  0  0  0  0
   36.8805   25.2026    7.3894 N   0  0  0  0  0  0  0  0  0  0  0  0
   37.8590   25.5465    8.4523 C   0  0  0  0  0  0  0  0  0  0  0  0
   37.1845   26.0562    6.2133 C   0  0  0  0  0  0  0  0  0  0  0  0
   35.6681   22.8002    5.5079 N   0  0  0  0  0  0  0  0  0  0  0  0
   35.8461   23.5682    4.5888 O   0  0  0  0  0  0  0  0  0  0  0  0
   36.0785   21.6606    5.4280 O   0  0  0  0  0  0  0  0  0  0  0  0
   33.3957   23.9522   10.4783 O   0  0  0  0  0  0  0  0  0  0  0  0
   33.8299   24.9271   11.4052 C   0  0  0  0  0  0  0  0  0  0  0  0
  7  8  2  0  0  0
  8  1  1  0  0  0
  8  9  1  0  0  0
  1  2  1  0  0  0
  1  6  2  0  0  0
  2 25  1  0  0  0
  2  3  2  0  0  0
 25 26  1  0  0  0
  3  4  1  0  0  0
  4 19  1  0  0  0
  4  5  2  0  0  0
 19 20  1  0  0  0
 19 21  1  0  0  0
  5 22  1  0  0  0
  5  6  1  0  0  0
 22 23  1  0  0  0
 22 24  2  0  0  0
  9 11  1  0  0  0
 12 13  1  0  0  0
 12 16  1  0  0  0
 12 11  1  0  0  0
 13 14  1  0  0  0
 14 15  1  0  0  0
 15 16  1  0  0  0
 16 17  1  0  0  0
 17 18  1  0  0  0
  9 10  1  0  0  0
M  CHG 1  22   1
M  CHG 1  23  -1
M  END
> <minimizedAffinity>
-8.17976

$$$$
4ARA_C56_A_600


 26 27  0  0  0  0  0  0  0  0999 V2000
   32.7933   22.7054    9.2059 C   0  0  0  0  0  0  0  0  0  0  0  0
   33.6485   23.6932    9.8125 C   0  0  0  0  0  0  0  0  0  0  0  0
   34.7787   24.1998    9.1642 C   0  0  0  0  0  0  0  0  0  0  0  0
   35.2077   23.8016    7.8575 C   0  0  0  0  0  0  0  0  0  0  0  0
   34.3447   22.8180    7.2690 C   0  0  0  0  0  0  0  0  0  0  0  0
   33.2024   22.3211    7.9512 C   0  0  0  0  0  0  0  0  0  0  0  0
   31.1248   21.0365    9.4263 O   0  0  0  0  0  0  0  0  0  0  0  0
   31.5422   22.1180    9.8359 C   0  0  0  0  0  0  0  0  0  0  0  0
   30.8168   22.7522   10.8796 N   0  0  0  0  0  0  0  0  0  0  0  0
   31.1496   23.6083   11.2340 H   0  0  0  0  0  0  0  0  0  0  0  0
   29.5701   22.1724   11.4600 C   0  0  0  0  0  0  0  0  0  0  0  0
   29.2455   22.5846   12.9594 C   0  0  0  0  0  0  0  0  0  0  0  0
   28.1056   21.6860   13.5521 C   0  0  0  0  0  0  0  0  0  0  0  0
   28.5743   21.1991   14.9197 C   0  0  0  0  0  0  0  0  0  0  0  0
   30.0840   21.4475   14.9273 C   0  0  0  0  0  0  0  0  0  0  0  0
   30.4798   22.3293   13.7781 N   0  0  0  0  0  0  0  0  0  0  0  0
   31.2810   23.4755   14.3040 C   0  0  0  0  0  0  0  0  0  0  0  0
   30.9139   23.9455   15.7050 C   0  0  0  0  0  0  0  0  0  0  0  0
   36.3475   24.4455    7.3590 N   0  0  0  0  0  0  0  0  0  0  0  0
   37.2818   25.1641    8.2623 C   0  0  0  0  0  0  0  0  0  0  0  0
   36.7827   24.7144    5.9652 C   0  0  0  0  0  0  0  0  0  0  0  0
   34.4605   22.1596    5.9462 N   0  0  0  0  0  0  0  0  0  0  0  0
   35.3223   21.3372    5.7288 O   0  0  0  0  0  0  0  0  0  0  0  0
   33.5283   22.2723    5.1769 O   0  0  0  0  0  0  0  0  0  0  0  0
   33.2635   24.0909   11.0485 O   0  0  0  0  0  0  0  0  0  0  0  0
   34.0016   25.0397   11.7922 C   0  0  0  0  0  0  0  0  0  0  0  0
  7  8  2  0  0  0
  8  1  1  0  0  0
  8  9  1  0  0  0
  1  2  1  0  0  0
  1  6  2  0  0  0
  2 25  1  0  0  0
  2  3  2  0  0  0
 25 26  1  0  0  0
  3  4  1  0  0  0
  4 19  1  0  0  0
  4  5  2  0  0  0
 19 20  1  0  0  0
 19 21  1  0  0  0
  5 22  1  0  0  0
  5  6  1  0  0  0
 22 23  1  0  0  0
 22 24  2  0  0  0
  9 11  1  0  0  0
 12 13  1  0  0  0
 12 16  1  0  0  0
 12 11  1  0  0  0
 13 14  1  0  0  0
 14 15  1  0  0  0
 15 16  1  0  0  0
 16 17  1  0  0  0
 17 18  1  0  0  0
  9 10  1  0  0  0
M  CHG 1  22   1
M  CHG 1  23  -1
M  END
> <minimizedAffinity>
-8.13542

$$$$
4ARA_C56_A_600


 26 27  0  0  0  0  0  0  0  0999 V2000
   30.3158   20.4371   11.0374 C   0  0  0  0  0  0  0  0  0  0  0  0
   29.5865   21.5236   11.6396 C   0  0  0  0  0  0  0  0  0  0  0  0
   28.6389   21.3176   12.6465 C   0  0  0  0  0  0  0  0  0  0  0  0
   28.2898   20.0348   13.1781 C   0  0  0  0  0  0  0  0  0  0  0  0
   29.0255   18.9653   12.5671 C   0  0  0  0  0  0  0  0  0  0  0  0
   29.9831   19.2041   11.5458 C   0  0  0  0  0  0  0  0  0  0  0  0
   31.2162   19.9705    8.8951 O   0  0  0  0  0  0  0  0  0  0  0  0
   31.3696   20.5786    9.9526 C   0  0  0  0  0  0  0  0  0  0  0  0
   32.5354   21.3784   10.0903 N   0  0  0  0  0  0  0  0  0  0  0  0
   32.6628   21.8890   10.9222 H   0  0  0  0  0  0  0  0  0  0  0  0
   33.5747   21.4752    9.0236 C   0  0  0  0  0  0  0  0  0  0  0  0
   33.4819   22.7479    8.0775 C   0  0  0  0  0  0  0  0  0  0  0  0
   34.4048   23.9023    8.6009 C   0  0  0  0  0  0  0  0  0  0  0  0
   35.2145   24.4121    7.4128 C   0  0  0  0  0  0  0  0  0  0  0  0
   35.0834   23.3178    6.3515 C   0  0  0  0  0  0  0  0  0  0  0  0
   34.0002   22.3471    6.7248 N   0  0  0  0  0  0  0  0  0  0  0  0
   33.0594   22.2083    5.5725 C   0  0  0  0  0  0  0  0  0  0  0  0
   31.6347   21.8093    5.9322 C   0  0  0  0  0  0  0  0  0  0  0  0
   27.3406   20.0309   14.2083 N   0  0  0  0  0  0  0  0  0  0  0  0
   25.9879   20.6107   14.0100 C   0  0  0  0  0  0  0  0  0  0  0  0
   27.4622   19.6683   15.6430 C   0  0  0  0  0  0  0  0  0  0  0  0
   28.9392   17.5108   12.8388 N   0  0  0  0  0  0  0  0  0  0  0  0
   28.0826   17.0588   13.5657 O   0  0  0  0  0  0  0  0  0  0  0  0
   29.5776   16.7651   12.1248 O   0  0  0  0  0  0  0  0  0  0  0  0
   29.8999   22.7497   11.1576 O   0  0  0  0  0  0  0  0  0  0  0  0
   30.6122   23.6964   11.9286 C   0  0  0  0  0  0  0  0  0  0  0  0
  7  8  2  0  0  0
  8  1  1  0  0  0
  8  9  1  0  0  0
  1  2  1  0  0  0
  1  6  2  0  0  0
  2 25  1  0  0  0
  2  3  2  0  0  0
 25 26  1  0  0  0
  3  4  1  0  0  0
  4 19  1  0  0  0
  4  5  2  0  0  0
 19 20  1  0  0  0
 19 21  1  0  0  0
  5 22  1  0  0  0
  5  6  1  0  0  0
 22 23  1  0  0  0
 22 24  2  0  0  0
  9 11  1  0  0  0
 12 13  1  0  0  0
 12 16  1  0  0  0
 12 11  1  0  0  0
 13 14  1  0  0  0
 14 15  1  0  0  0
 15 16  1  0  0  0
 16 17  1  0  0  0
 17 18  1  0  0  0
  9 10  1  0  0  0
M  CHG 1  22   1
M  CHG 1  23  -1
M  END
> <minimizedAffinity>
-8.05149

$$$$
