5E2R_520_A_302


 29 31  0  0  0  0  0  0  0  0999 V2000
   -3.8205    6.1815   13.7289 C   0  0  0  0  0  0  0  0  0  0  0  0
   -3.6779    6.7130   15.0055 C   0  0  0  0  0  0  0  0  0  0  0  0
   -2.9205    7.8632   15.2018 C   0  0  0  0  0  0  0  0  0  0  0  0
   -3.1993    6.7933   12.6474 C   0  0  0  0  0  0  0  0  0  0  0  0
   -2.4423    7.9429   12.8430 C   0  0  0  0  0  0  0  0  0  0  0  0
   -2.3062    8.4801   14.1189 C   0  0  0  0  0  0  0  0  0  0  0  0
   -1.5743    9.6491   14.2959 C   0  0  0  0  0  0  0  0  0  0  0  0
   -2.0429   10.8537   13.7834 C   0  0  0  0  0  0  0  0  0  0  0  0
   -1.3361   12.0286   14.0181 C   0  0  0  0  0  0  0  0  0  0  0  0
   -0.1627   12.0004   14.7623 C   0  0  0  0  0  0  0  0  0  0  0  0
    0.3121   10.7944   15.2667 C   0  0  0  0  0  0  0  0  0  0  0  0
   -0.3947    9.6195   15.0320 C   0  0  0  0  0  0  0  0  0  0  0  0
    1.5321   13.2034   16.2419 O   0  0  0  0  0  0  0  0  0  0  0  0
    1.3272   13.9367   13.9106 O   0  0  0  0  0  0  0  0  0  0  0  0
    0.6880   13.4996   15.1189 S   0  0  0  0  0  0  0  0  0  0  0  0
   -0.4004   14.5756   15.5513 N   0  0  0  0  0  0  0  0  0  0  0  0
   -0.8582   14.2700   16.4100 H   0  0  0  0  0  0  0  0  0  0  0  0
   -1.0956   14.6724   14.8112 H   0  0  0  0  0  0  0  0  0  0  0  0
   -4.6907    4.9855   13.5118 C   0  0  0  0  0  0  0  0  0  0  0  0
   -5.1265    4.7377   12.3966 O   0  0  0  0  0  0  0  0  0  0  0  0
   -6.2314    4.2034   15.3198 C   0  0  0  0  0  0  0  0  0  0  0  0
   -6.5283    3.3617   16.3864 C   0  0  0  0  0  0  0  0  0  0  0  0
   -5.6050    2.4056   16.7970 C   0  0  0  0  0  0  0  0  0  0  0  0
   -5.8934    1.5812   17.8456 N   0  0  0  0  0  0  0  0  0  0  0  0
   -4.3837    2.2939   16.1405 C   0  0  0  0  0  0  0  0  0  0  0  0
   -4.0868    3.1352   15.0751 C   0  0  0  0  0  0  0  0  0  0  0  0
   -5.0106    4.0904   14.6635 C   0  0  0  0  0  0  0  0  0  0  0  0
   -5.2387    0.9052   18.1348 H   0  0  0  0  0  0  0  0  0  0  0  0
   -6.7562    1.6625   18.3128 H   0  0  0  0  0  0  0  0  0  0  0  0
 24 23  1  0  0  0
 23 25  2  0  0  0
 23 22  1  0  0  0
 25 26  1  0  0  0
 22 21  2  0  0  0
 26 27  2  0  0  0
 21 27  1  0  0  0
 27 19  1  0  0  0
 20 19  2  0  0  0
 19  1  1  0  0  0
  1  2  2  0  0  0
  1  4  1  0  0  0
  2  3  1  0  0  0
  4  5  2  0  0  0
  3  6  2  0  0  0
  5  6  1  0  0  0
  6  7  1  0  0  0
  7  8  2  0  0  0
  7 12  1  0  0  0
  8  9  1  0  0  0
 12 11  2  0  0  0
  9 10  2  0  0  0
 11 10  1  0  0  0
 10 15  1  0  0  0
 15 13  2  0  0  0
 15 16  1  0  0  0
 15 14  2  0  0  0
 24 28  1  0  0  0
 24 29  1  0  0  0
 16 17  1  0  0  0
 16 18  1  0  0  0
M  END
> <minimizedAffinity>
-8.63130

$$$$
5E2R_520_A_302


 29 31  0  0  0  0  0  0  0  0999 V2000
   -2.6181    8.0887   12.9013 C   0  0  0  0  0  0  0  0  0  0  0  0
   -2.5726    7.9909   14.2874 C   0  0  0  0  0  0  0  0  0  0  0  0
   -3.1573    6.9045   14.9298 C   0  0  0  0  0  0  0  0  0  0  0  0
   -3.2558    7.1054   12.1554 C   0  0  0  0  0  0  0  0  0  0  0  0
   -3.8403    6.0193   12.7970 C   0  0  0  0  0  0  0  0  0  0  0  0
   -3.7876    5.9166   14.1832 C   0  0  0  0  0  0  0  0  0  0  0  0
   -4.3466    4.8084   14.8100 C   0  0  0  0  0  0  0  0  0  0  0  0
   -3.5559    3.7094   15.1268 C   0  0  0  0  0  0  0  0  0  0  0  0
   -4.1093    2.6309   15.8091 C   0  0  0  0  0  0  0  0  0  0  0  0
   -5.4504    2.6494   16.1736 C   0  0  0  0  0  0  0  0  0  0  0  0
   -6.2444    3.7439   15.8482 C   0  0  0  0  0  0  0  0  0  0  0  0
   -5.6910    4.8224   15.1659 C   0  0  0  0  0  0  0  0  0  0  0  0
   -5.7920    1.5913   18.4698 O   0  0  0  0  0  0  0  0  0  0  0  0
   -7.5204    1.2165   16.7707 O   0  0  0  0  0  0  0  0  0  0  0  0
   -6.1274    1.3154   17.1013 S   0  0  0  0  0  0  0  0  0  0  0  0
   -5.3863   -0.0134   16.6383 N   0  0  0  0  0  0  0  0  0  0  0  0
   -4.3953    0.0513   16.8708 H   0  0  0  0  0  0  0  0  0  0  0  0
   -5.4922   -0.1282   15.6303 H   0  0  0  0  0  0  0  0  0  0  0  0
   -1.9298    9.2216   12.2104 C   0  0  0  0  0  0  0  0  0  0  0  0
   -1.6792    9.1508   11.0158 O   0  0  0  0  0  0  0  0  0  0  0  0
   -2.4206   11.5389   13.0126 C   0  0  0  0  0  0  0  0  0  0  0  0
   -2.0800   12.6714   13.7447 C   0  0  0  0  0  0  0  0  0  0  0  0
   -0.8832   12.7088   14.4529 C   0  0  0  0  0  0  0  0  0  0  0  0
   -0.5459   13.8205   15.1689 N   0  0  0  0  0  0  0  0  0  0  0  0
   -0.0270   11.6129   14.4263 C   0  0  0  0  0  0  0  0  0  0  0  0
   -0.3670   10.4817   13.6945 C   0  0  0  0  0  0  0  0  0  0  0  0
   -1.5644   10.4434   12.9874 C   0  0  0  0  0  0  0  0  0  0  0  0
    0.3014   13.8452   15.6695 H   0  0  0  0  0  0  0  0  0  0  0  0
   -1.1500   14.5977   15.1850 H   0  0  0  0  0  0  0  0  0  0  0  0
 24 23  1  0  0  0
 23 25  2  0  0  0
 23 22  1  0  0  0
 25 26  1  0  0  0
 22 21  2  0  0  0
 26 27  2  0  0  0
 21 27  1  0  0  0
 27 19  1  0  0  0
 20 19  2  0  0  0
 19  1  1  0  0  0
  1  2  2  0  0  0
  1  4  1  0  0  0
  2  3  1  0  0  0
  4  5  2  0  0  0
  3  6  2  0  0  0
  5  6  1  0  0  0
  6  7  1  0  0  0
  7  8  2  0  0  0
  7 12  1  0  0  0
  8  9  1  0  0  0
 12 11  2  0  0  0
  9 10  2  0  0  0
 11 10  1  0  0  0
 10 15  1  0  0  0
 15 13  2  0  0  0
 15 16  1  0  0  0
 15 14  2  0  0  0
 24 28  1  0  0  0
 24 29  1  0  0  0
 16 17  1  0  0  0
 16 18  1  0  0  0
M  END
> <minimizedAffinity>
-8.55412

$$$$
5E2R_520_A_302


 29 31  0  0  0  0  0  0  0  0999 V2000
   -2.7706    7.8070   12.3928 C   0  0  0  0  0  0  0  0  0  0  0  0
   -2.5643    7.7476   13.7663 C   0  0  0  0  0  0  0  0  0  0  0  0
   -3.1624    6.7422   14.5189 C   0  0  0  0  0  0  0  0  0  0  0  0
   -3.5821    6.8670   11.7702 C   0  0  0  0  0  0  0  0  0  0  0  0
   -4.1800    5.8618   12.5219 C   0  0  0  0  0  0  0  0  0  0  0  0
   -3.9671    5.7969   13.8949 C   0  0  0  0  0  0  0  0  0  0  0  0
   -4.5436    4.7669   14.6299 C   0  0  0  0  0  0  0  0  0  0  0  0
   -3.7915    3.6522   14.9837 C   0  0  0  0  0  0  0  0  0  0  0  0
   -4.3579    2.6554   15.7715 C   0  0  0  0  0  0  0  0  0  0  0  0
   -5.6735    2.7709   16.2043 C   0  0  0  0  0  0  0  0  0  0  0  0
   -6.4297    3.8807   15.8424 C   0  0  0  0  0  0  0  0  0  0  0  0
   -5.8634    4.8776   15.0547 C   0  0  0  0  0  0  0  0  0  0  0  0
   -6.1767    2.0397   18.5961 O   0  0  0  0  0  0  0  0  0  0  0  0
   -7.7085    1.3004   16.8294 O   0  0  0  0  0  0  0  0  0  0  0  0
   -6.3619    1.5435   17.2616 S   0  0  0  0  0  0  0  0  0  0  0  0
   -5.5065    0.2160   17.0732 N   0  0  0  0  0  0  0  0  0  0  0  0
   -4.5478    0.3830   17.3790 H   0  0  0  0  0  0  0  0  0  0  0  0
   -5.5076   -0.0524   16.0892 H   0  0  0  0  0  0  0  0  0  0  0  0
   -2.0718    8.8473   11.5778 C   0  0  0  0  0  0  0  0  0  0  0  0
   -1.0277    8.5768   11.0019 O   0  0  0  0  0  0  0  0  0  0  0  0
   -3.5294   10.5134   10.4143 C   0  0  0  0  0  0  0  0  0  0  0  0
   -4.0873   11.7836   10.3156 C   0  0  0  0  0  0  0  0  0  0  0  0
   -3.7830   12.7535   11.2653 C   0  0  0  0  0  0  0  0  0  0  0  0
   -4.3269   14.0013   11.1680 N   0  0  0  0  0  0  0  0  0  0  0  0
   -2.9187   12.4517   12.3125 C   0  0  0  0  0  0  0  0  0  0  0  0
   -2.3609   11.1828   12.4109 C   0  0  0  0  0  0  0  0  0  0  0  0
   -2.6661   10.2123   11.4621 C   0  0  0  0  0  0  0  0  0  0  0  0
   -4.1104   14.6865   11.8410 H   0  0  0  0  0  0  0  0  0  0  0  0
   -4.9358   14.2163   10.4249 H   0  0  0  0  0  0  0  0  0  0  0  0
 24 23  1  0  0  0
 23 25  2  0  0  0
 23 22  1  0  0  0
 25 26  1  0  0  0
 22 21  2  0  0  0
 26 27  2  0  0  0
 21 27  1  0  0  0
 27 19  1  0  0  0
 20 19  2  0  0  0
 19  1  1  0  0  0
  1  2  2  0  0  0
  1  4  1  0  0  0
  2  3  1  0  0  0
  4  5  2  0  0  0
  3  6  2  0  0  0
  5  6  1  0  0  0
  6  7  1  0  0  0
  7  8  2  0  0  0
  7 12  1  0  0  0
  8  9  1  0  0  0
 12 11  2  0  0  0
  9 10  2  0  0  0
 11 10  1  0  0  0
 10 15  1  0  0  0
 15 13  2  0  0  0
 15 16  1  0  0  0
 15 14  2  0  0  0
 24 28  1  0  0  0
 24 29  1  0  0  0
 16 17  1  0  0  0
 16 18  1  0  0  0
M  END
> <minimizedAffinity>
-8.33173

$$$$
5E2R_520_A_302


 29 31  0  0  0  0  0  0  0  0999 V2000
   -4.0112    4.6035   13.6182 C   0  0  0  0  0  0  0  0  0  0  0  0
   -4.2067    4.5719   12.2422 C   0  0  0  0  0  0  0  0  0  0  0  0
   -3.1140    4.5907   11.3815 C   0  0  0  0  0  0  0  0  0  0  0  0
   -2.7236    4.6630   14.1365 C   0  0  0  0  0  0  0  0  0  0  0  0
   -1.6312    4.6817   13.2768 C   0  0  0  0  0  0  0  0  0  0  0  0
   -1.8259    4.6415   11.9001 C   0  0  0  0  0  0  0  0  0  0  0  0
   -0.7240    4.6267   11.0522 C   0  0  0  0  0  0  0  0  0  0  0  0
    0.4409    5.2988   11.4050 C   0  0  0  0  0  0  0  0  0  0  0  0
    1.5591    5.2277   10.5806 C   0  0  0  0  0  0  0  0  0  0  0  0
    1.5138    4.4874    9.4052 C   0  0  0  0  0  0  0  0  0  0  0  0
    0.3457    3.8231    9.0465 C   0  0  0  0  0  0  0  0  0  0  0  0
   -0.7725    3.8942    9.8708 C   0  0  0  0  0  0  0  0  0  0  0  0
    2.5006    3.7787    7.1619 O   0  0  0  0  0  0  0  0  0  0  0  0
    3.5843    5.6281    8.3535 O   0  0  0  0  0  0  0  0  0  0  0  0
    2.9535    4.3400    8.4034 S   0  0  0  0  0  0  0  0  0  0  0  0
    3.9302    3.3088    9.1188 N   0  0  0  0  0  0  0  0  0  0  0  0
    3.4868    2.3910    9.1571 H   0  0  0  0  0  0  0  0  0  0  0  0
    4.1291    3.6301   10.0663 H   0  0  0  0  0  0  0  0  0  0  0  0
   -5.1842    4.5141   14.5406 C   0  0  0  0  0  0  0  0  0  0  0  0
   -5.9780    5.4410   14.6159 O   0  0  0  0  0  0  0  0  0  0  0  0
   -4.6252    2.1427   15.1049 C   0  0  0  0  0  0  0  0  0  0  0  0
   -4.8099    0.9983   15.8734 C   0  0  0  0  0  0  0  0  0  0  0  0
   -5.7541    0.9903   16.8950 C   0  0  0  0  0  0  0  0  0  0  0  0
   -5.9390   -0.1328   17.6478 N   0  0  0  0  0  0  0  0  0  0  0  0
   -6.5144    2.1279   17.1455 C   0  0  0  0  0  0  0  0  0  0  0  0
   -6.3303    3.2712   16.3775 C   0  0  0  0  0  0  0  0  0  0  0  0
   -5.3851    3.2798   15.3567 C   0  0  0  0  0  0  0  0  0  0  0  0
   -6.6077   -0.1366   18.3703 H   0  0  0  0  0  0  0  0  0  0  0  0
   -5.4036   -0.9393   17.4683 H   0  0  0  0  0  0  0  0  0  0  0  0
 24 23  1  0  0  0
 23 25  2  0  0  0
 23 22  1  0  0  0
 25 26  1  0  0  0
 22 21  2  0  0  0
 26 27  2  0  0  0
 21 27  1  0  0  0
 27 19  1  0  0  0
 20 19  2  0  0  0
 19  1  1  0  0  0
  1  2  2  0  0  0
  1  4  1  0  0  0
  2  3  1  0  0  0
  4  5  2  0  0  0
  3  6  2  0  0  0
  5  6  1  0  0  0
  6  7  1  0  0  0
  7  8  2  0  0  0
  7 12  1  0  0  0
  8  9  1  0  0  0
 12 11  2  0  0  0
  9 10  2  0  0  0
 11 10  1  0  0  0
 10 15  1  0  0  0
 15 13  2  0  0  0
 15 16  1  0  0  0
 15 14  2  0  0  0
 24 28  1  0  0  0
 24 29  1  0  0  0
 16 17  1  0  0  0
 16 18  1  0  0  0
M  END
> <minimizedAffinity>
-8.24351

$$$$
5E2R_520_A_302


 29 31  0  0  0  0  0  0  0  0999 V2000
   -2.4904    8.1244   13.1291 C   0  0  0  0  0  0  0  0  0  0  0  0
   -2.7036    8.0698   14.5018 C   0  0  0  0  0  0  0  0  0  0  0  0
   -3.2679    6.9352   15.0757 C   0  0  0  0  0  0  0  0  0  0  0  0
   -2.8489    7.0488   12.3264 C   0  0  0  0  0  0  0  0  0  0  0  0
   -3.4128    5.9146   12.8994 C   0  0  0  0  0  0  0  0  0  0  0  0
   -3.6186    5.8560   14.2739 C   0  0  0  0  0  0  0  0  0  0  0  0
   -4.1521    4.7027   14.8384 C   0  0  0  0  0  0  0  0  0  0  0  0
   -3.3201    3.6474   15.1953 C   0  0  0  0  0  0  0  0  0  0  0  0
   -3.8541    2.5229   15.8161 C   0  0  0  0  0  0  0  0  0  0  0  0
   -5.2170    2.4519   16.0791 C   0  0  0  0  0  0  0  0  0  0  0  0
   -6.0515    3.5027   15.7134 C   0  0  0  0  0  0  0  0  0  0  0  0
   -5.5175    4.6273   15.0926 C   0  0  0  0  0  0  0  0  0  0  0  0
   -5.4057   -0.0889   16.2095 O   0  0  0  0  0  0  0  0  0  0  0  0
   -5.4974    1.1727   18.3106 O   0  0  0  0  0  0  0  0  0  0  0  0
   -5.8762    1.0598   16.9310 S   0  0  0  0  0  0  0  0  0  0  0  0
   -7.4607    1.1364   16.8177 N   0  0  0  0  0  0  0  0  0  0  0  0
   -7.7358    1.0566   15.8387 H   0  0  0  0  0  0  0  0  0  0  0  0
   -7.7855    2.0285   17.1905 H   0  0  0  0  0  0  0  0  0  0  0  0
   -1.8213    9.3169   12.5250 C   0  0  0  0  0  0  0  0  0  0  0  0
   -2.4523   10.0738   11.8012 O   0  0  0  0  0  0  0  0  0  0  0  0
    0.5445    8.5473   12.7794 C   0  0  0  0  0  0  0  0  0  0  0  0
    1.8849    8.8014   13.0503 C   0  0  0  0  0  0  0  0  0  0  0  0
    2.2992   10.0915   13.3653 C   0  0  0  0  0  0  0  0  0  0  0  0
    3.6134   10.3419   13.6347 N   0  0  0  0  0  0  0  0  0  0  0  0
    1.3709   11.1264   13.4107 C   0  0  0  0  0  0  0  0  0  0  0  0
    0.0317   10.8725   13.1405 C   0  0  0  0  0  0  0  0  0  0  0  0
   -0.3826    9.5827   12.8241 C   0  0  0  0  0  0  0  0  0  0  0  0
    3.9048   11.2555   13.8574 H   0  0  0  0  0  0  0  0  0  0  0  0
    4.2700    9.6089   13.6062 H   0  0  0  0  0  0  0  0  0  0  0  0
 24 23  1  0  0  0
 23 25  2  0  0  0
 23 22  1  0  0  0
 25 26  1  0  0  0
 22 21  2  0  0  0
 26 27  2  0  0  0
 21 27  1  0  0  0
 27 19  1  0  0  0
 20 19  2  0  0  0
 19  1  1  0  0  0
  1  2  2  0  0  0
  1  4  1  0  0  0
  2  3  1  0  0  0
  4  5  2  0  0  0
  3  6  2  0  0  0
  5  6  1  0  0  0
  6  7  1  0  0  0
  7  8  2  0  0  0
  7 12  1  0  0  0
  8  9  1  0  0  0
 12 11  2  0  0  0
  9 10  2  0  0  0
 11 10  1  0  0  0
 10 15  1  0  0  0
 15 13  2  0  0  0
 15 16  1  0  0  0
 15 14  2  0  0  0
 24 28  1  0  0  0
 24 29  1  0  0  0
 16 17  1  0  0  0
 16 18  1  0  0  0
M  END
> <minimizedAffinity>
-8.14357

$$$$
5E2R_520_A_302


 29 31  0  0  0  0  0  0  0  0999 V2000
   -2.2504    4.0327    9.9354 C   0  0  0  0  0  0  0  0  0  0  0  0
   -2.0060    2.7582   10.4341 C   0  0  0  0  0  0  0  0  0  0  0  0
   -2.6396    2.3304   11.5963 C   0  0  0  0  0  0  0  0  0  0  0  0
   -3.1216    4.8851   10.6020 C   0  0  0  0  0  0  0  0  0  0  0  0
   -3.7552    4.4579   11.7634 C   0  0  0  0  0  0  0  0  0  0  0  0
   -3.5175    3.1799   12.2583 C   0  0  0  0  0  0  0  0  0  0  0  0
   -4.1833    2.7530   13.4020 C   0  0  0  0  0  0  0  0  0  0  0  0
   -4.0095    1.4557   13.8710 C   0  0  0  0  0  0  0  0  0  0  0  0
   -4.6303    1.0557   15.0499 C   0  0  0  0  0  0  0  0  0  0  0  0
   -5.4242    1.9496   15.7586 C   0  0  0  0  0  0  0  0  0  0  0  0
   -5.6067    3.2444   15.2848 C   0  0  0  0  0  0  0  0  0  0  0  0
   -4.9859    3.6444   14.1059 C   0  0  0  0  0  0  0  0  0  0  0  0
   -5.4004    0.3122   17.7149 O   0  0  0  0  0  0  0  0  0  0  0  0
   -6.1501    2.6056   18.1539 O   0  0  0  0  0  0  0  0  0  0  0  0
   -6.1472    1.4616   17.2875 S   0  0  0  0  0  0  0  0  0  0  0  0
   -7.6485    1.0294   16.9899 N   0  0  0  0  0  0  0  0  0  0  0  0
   -7.6526    0.2162   16.3742 H   0  0  0  0  0  0  0  0  0  0  0  0
   -8.1410    1.8002   16.5385 H   0  0  0  0  0  0  0  0  0  0  0  0
   -1.6210    4.4640    8.6498 C   0  0  0  0  0  0  0  0  0  0  0  0
   -2.3092    4.6190    7.6511 O   0  0  0  0  0  0  0  0  0  0  0  0
    0.4448    5.5715    9.5216 C   0  0  0  0  0  0  0  0  0  0  0  0
    1.8165    5.7972    9.4765 C   0  0  0  0  0  0  0  0  0  0  0  0
    2.5944    5.1676    8.5102 C   0  0  0  0  0  0  0  0  0  0  0  0
    3.9399    5.3905    8.4625 N   0  0  0  0  0  0  0  0  0  0  0  0
    1.9982    4.3136    7.5882 C   0  0  0  0  0  0  0  0  0  0  0  0
    0.6278    4.0885    7.6329 C   0  0  0  0  0  0  0  0  0  0  0  0
   -0.1502    4.7169    8.6000 C   0  0  0  0  0  0  0  0  0  0  0  0
    4.4889    4.9441    7.7780 H   0  0  0  0  0  0  0  0  0  0  0  0
    4.3616    5.9978    9.1127 H   0  0  0  0  0  0  0  0  0  0  0  0
 24 23  1  0  0  0
 23 25  2  0  0  0
 23 22  1  0  0  0
 25 26  1  0  0  0
 22 21  2  0  0  0
 26 27  2  0  0  0
 21 27  1  0  0  0
 27 19  1  0  0  0
 20 19  2  0  0  0
 19  1  1  0  0  0
  1  2  2  0  0  0
  1  4  1  0  0  0
  2  3  1  0  0  0
  4  5  2  0  0  0
  3  6  2  0  0  0
  5  6  1  0  0  0
  6  7  1  0  0  0
  7  8  2  0  0  0
  7 12  1  0  0  0
  8  9  1  0  0  0
 12 11  2  0  0  0
  9 10  2  0  0  0
 11 10  1  0  0  0
 10 15  1  0  0  0
 15 13  2  0  0  0
 15 16  1  0  0  0
 15 14  2  0  0  0
 24 28  1  0  0  0
 24 29  1  0  0  0
 16 17  1  0  0  0
 16 18  1  0  0  0
M  END
> <minimizedAffinity>
-8.11561

$$$$
5E2R_520_A_302


 29 31  0  0  0  0  0  0  0  0999 V2000
   -3.4519    4.4356   14.6123 C   0  0  0  0  0  0  0  0  0  0  0  0
   -2.1398    4.6603   14.2115 C   0  0  0  0  0  0  0  0  0  0  0  0
   -1.6458    5.9585   14.1359 C   0  0  0  0  0  0  0  0  0  0  0  0
   -4.2754    5.5085   14.9297 C   0  0  0  0  0  0  0  0  0  0  0  0
   -3.7822    6.8061   14.8544 C   0  0  0  0  0  0  0  0  0  0  0  0
   -2.4669    7.0311   14.4616 C   0  0  0  0  0  0  0  0  0  0  0  0
   -1.9761    8.3314   14.4229 C   0  0  0  0  0  0  0  0  0  0  0  0
   -1.0695    8.7672   15.3829 C   0  0  0  0  0  0  0  0  0  0  0  0
   -0.5361   10.0493   15.3013 C   0  0  0  0  0  0  0  0  0  0  0  0
   -0.9082   10.8953   14.2632 C   0  0  0  0  0  0  0  0  0  0  0  0
   -1.8226   10.4638   13.3083 C   0  0  0  0  0  0  0  0  0  0  0  0
   -2.3561    9.1816   13.3899 C   0  0  0  0  0  0  0  0  0  0  0  0
   -1.1568   13.3064   13.4676 O   0  0  0  0  0  0  0  0  0  0  0  0
    0.2499   12.8914   15.4332 O   0  0  0  0  0  0  0  0  0  0  0  0
   -0.1747   12.4892   14.1227 S   0  0  0  0  0  0  0  0  0  0  0  0
    1.1001   12.3476   13.1825 N   0  0  0  0  0  0  0  0  0  0  0  0
    0.8042   12.0617   12.2492 H   0  0  0  0  0  0  0  0  0  0  0  0
    1.7313   11.6456   13.5690 H   0  0  0  0  0  0  0  0  0  0  0  0
   -3.9581    3.0367   14.7583 C   0  0  0  0  0  0  0  0  0  0  0  0
   -4.1328    2.5600   15.8706 O   0  0  0  0  0  0  0  0  0  0  0  0
   -4.7378    2.8575   12.3888 C   0  0  0  0  0  0  0  0  0  0  0  0
   -5.0105    2.1062   11.2505 C   0  0  0  0  0  0  0  0  0  0  0  0
   -4.8059    0.7302   11.2588 C   0  0  0  0  0  0  0  0  0  0  0  0
   -5.0761   -0.0088   10.1439 N   0  0  0  0  0  0  0  0  0  0  0  0
   -4.3299    0.1067   12.4076 C   0  0  0  0  0  0  0  0  0  0  0  0
   -4.0580    0.8571   13.5449 C   0  0  0  0  0  0  0  0  0  0  0  0
   -4.2612    2.2334   13.5365 C   0  0  0  0  0  0  0  0  0  0  0  0
   -4.9307   -0.9825   10.1515 H   0  0  0  0  0  0  0  0  0  0  0  0
   -5.4164    0.4317    9.3319 H   0  0  0  0  0  0  0  0  0  0  0  0
 24 23  1  0  0  0
 23 25  2  0  0  0
 23 22  1  0  0  0
 25 26  1  0  0  0
 22 21  2  0  0  0
 26 27  2  0  0  0
 21 27  1  0  0  0
 27 19  1  0  0  0
 20 19  2  0  0  0
 19  1  1  0  0  0
  1  2  2  0  0  0
  1  4  1  0  0  0
  2  3  1  0  0  0
  4  5  2  0  0  0
  3  6  2  0  0  0
  5  6  1  0  0  0
  6  7  1  0  0  0
  7  8  2  0  0  0
  7 12  1  0  0  0
  8  9  1  0  0  0
 12 11  2  0  0  0
  9 10  2  0  0  0
 11 10  1  0  0  0
 10 15  1  0  0  0
 15 13  2  0  0  0
 15 16  1  0  0  0
 15 14  2  0  0  0
 24 28  1  0  0  0
 24 29  1  0  0  0
 16 17  1  0  0  0
 16 18  1  0  0  0
M  END
> <minimizedAffinity>
-8.04700

$$$$
5E2R_520_A_302


 29 31  0  0  0  0  0  0  0  0999 V2000
   -4.7429    5.9768   14.4212 C   0  0  0  0  0  0  0  0  0  0  0  0
   -3.9990    6.0071   13.2471 C   0  0  0  0  0  0  0  0  0  0  0  0
   -2.8507    6.7882   13.1686 C   0  0  0  0  0  0  0  0  0  0  0  0
   -4.3454    6.7339   15.5160 C   0  0  0  0  0  0  0  0  0  0  0  0
   -3.1977    7.5148   15.4381 C   0  0  0  0  0  0  0  0  0  0  0  0
   -2.4484    7.5389   14.2665 C   0  0  0  0  0  0  0  0  0  0  0  0
   -1.2843    8.2976   14.2129 C   0  0  0  0  0  0  0  0  0  0  0  0
   -0.3905    8.1364   13.1601 C   0  0  0  0  0  0  0  0  0  0  0  0
    0.7404    8.9425   13.0813 C   0  0  0  0  0  0  0  0  0  0  0  0
    0.9789    9.9073   14.0528 C   0  0  0  0  0  0  0  0  0  0  0  0
    0.0907   10.0623   15.1118 C   0  0  0  0  0  0  0  0  0  0  0  0
   -1.0403    9.2562   15.1906 C   0  0  0  0  0  0  0  0  0  0  0  0
    3.2983   10.2814   13.0583 O   0  0  0  0  0  0  0  0  0  0  0  0
    1.8975   12.2533   13.4637 O   0  0  0  0  0  0  0  0  0  0  0  0
    2.3717   10.9740   13.9088 S   0  0  0  0  0  0  0  0  0  0  0  0
    3.0069   11.1292   15.3585 N   0  0  0  0  0  0  0  0  0  0  0  0
    3.3458   10.2225   15.6801 H   0  0  0  0  0  0  0  0  0  0  0  0
    2.2982   11.4760   16.0049 H   0  0  0  0  0  0  0  0  0  0  0  0
   -5.9373    5.0838   14.5247 C   0  0  0  0  0  0  0  0  0  0  0  0
   -6.9751    5.3775   13.9488 O   0  0  0  0  0  0  0  0  0  0  0  0
   -6.6760    3.6350   16.4246 C   0  0  0  0  0  0  0  0  0  0  0  0
   -6.5947    2.4580   17.1611 C   0  0  0  0  0  0  0  0  0  0  0  0
   -5.6852    1.4703   16.7971 C   0  0  0  0  0  0  0  0  0  0  0  0
   -5.6018    0.3162   17.5206 N   0  0  0  0  0  0  0  0  0  0  0  0
   -4.8561    1.6623   15.6968 C   0  0  0  0  0  0  0  0  0  0  0  0
   -4.9370    2.8385   14.9613 C   0  0  0  0  0  0  0  0  0  0  0  0
   -5.8474    3.8257   15.3243 C   0  0  0  0  0  0  0  0  0  0  0  0
   -4.9575   -0.3817   17.2616 H   0  0  0  0  0  0  0  0  0  0  0  0
   -6.1858    0.1815   18.3016 H   0  0  0  0  0  0  0  0  0  0  0  0
 24 23  1  0  0  0
 23 25  2  0  0  0
 23 22  1  0  0  0
 25 26  1  0  0  0
 22 21  2  0  0  0
 26 27  2  0  0  0
 21 27  1  0  0  0
 27 19  1  0  0  0
 20 19  2  0  0  0
 19  1  1  0  0  0
  1  2  2  0  0  0
  1  4  1  0  0  0
  2  3  1  0  0  0
  4  5  2  0  0  0
  3  6  2  0  0  0
  5  6  1  0  0  0
  6  7  1  0  0  0
  7  8  2  0  0  0
  7 12  1  0  0  0
  8  9  1  0  0  0
 12 11  2  0  0  0
  9 10  2  0  0  0
 11 10  1  0  0  0
 10 15  1  0  0  0
 15 13  2  0  0  0
 15 16  1  0  0  0
 15 14  2  0  0  0
 24 28  1  0  0  0
 24 29  1  0  0  0
 16 17  1  0  0  0
 16 18  1  0  0  0
M  END
> <minimizedAffinity>
-7.98250

$$$$
5E2R_520_A_302


 29 31  0  0  0  0  0  0  0  0999 V2000
   -2.4164    7.4753   12.4565 C   0  0  0  0  0  0  0  0  0  0  0  0
   -2.5408    7.6486   13.8303 C   0  0  0  0  0  0  0  0  0  0  0  0
   -3.2139    6.7013   14.5949 C   0  0  0  0  0  0  0  0  0  0  0  0
   -2.9719    6.3594   11.8432 C   0  0  0  0  0  0  0  0  0  0  0  0
   -3.6446    5.4123   12.6070 C   0  0  0  0  0  0  0  0  0  0  0  0
   -3.7621    5.5809   13.9827 C   0  0  0  0  0  0  0  0  0  0  0  0
   -4.4080    4.6096   14.7395 C   0  0  0  0  0  0  0  0  0  0  0  0
   -3.7239    3.4704   15.1489 C   0  0  0  0  0  0  0  0  0  0  0  0
   -4.3590    2.5335   15.9576 C   0  0  0  0  0  0  0  0  0  0  0  0
   -5.6754    2.7333   16.3559 C   0  0  0  0  0  0  0  0  0  0  0  0
   -6.3637    3.8675   15.9385 C   0  0  0  0  0  0  0  0  0  0  0  0
   -5.7286    4.8045   15.1299 C   0  0  0  0  0  0  0  0  0  0  0  0
   -6.4510    2.2115   18.7297 O   0  0  0  0  0  0  0  0  0  0  0  0
   -7.7229    1.2382   16.8723 O   0  0  0  0  0  0  0  0  0  0  0  0
   -6.4502    1.5823   17.4390 S   0  0  0  0  0  0  0  0  0  0  0  0
   -5.5343    0.2832   17.4905 N   0  0  0  0  0  0  0  0  0  0  0  0
   -4.6278    0.5219   17.8926 H   0  0  0  0  0  0  0  0  0  0  0  0
   -5.4026   -0.0776   16.5455 H   0  0  0  0  0  0  0  0  0  0  0  0
   -1.6339    8.4598   11.6483 C   0  0  0  0  0  0  0  0  0  0  0  0
   -2.0344    9.6084   11.5244 O   0  0  0  0  0  0  0  0  0  0  0  0
    0.6398    7.4250   11.7652 C   0  0  0  0  0  0  0  0  0  0  0  0
    1.8260    7.0212   11.1616 C   0  0  0  0  0  0  0  0  0  0  0  0
    2.0181    7.2242    9.7989 C   0  0  0  0  0  0  0  0  0  0  0  0
    3.1827    6.8317    9.2057 N   0  0  0  0  0  0  0  0  0  0  0  0
    1.0230    7.8332    9.0413 C   0  0  0  0  0  0  0  0  0  0  0  0
   -0.1619    8.2370    9.6444 C   0  0  0  0  0  0  0  0  0  0  0  0
   -0.3548    8.0328   11.0069 C   0  0  0  0  0  0  0  0  0  0  0  0
    3.3170    6.9762    8.2412 H   0  0  0  0  0  0  0  0  0  0  0  0
    3.8887    6.4040    9.7423 H   0  0  0  0  0  0  0  0  0  0  0  0
 24 23  1  0  0  0
 23 25  2  0  0  0
 23 22  1  0  0  0
 25 26  1  0  0  0
 22 21  2  0  0  0
 26 27  2  0  0  0
 21 27  1  0  0  0
 27 19  1  0  0  0
 20 19  2  0  0  0
 19  1  1  0  0  0
  1  2  2  0  0  0
  1  4  1  0  0  0
  2  3  1  0  0  0
  4  5  2  0  0  0
  3  6  2  0  0  0
  5  6  1  0  0  0
  6  7  1  0  0  0
  7  8  2  0  0  0
  7 12  1  0  0  0
  8  9  1  0  0  0
 12 11  2  0  0  0
  9 10  2  0  0  0
 11 10  1  0  0  0
 10 15  1  0  0  0
 15 13  2  0  0  0
 15 16  1  0  0  0
 15 14  2  0  0  0
 24 28  1  0  0  0
 24 29  1  0  0  0
 16 17  1  0  0  0
 16 18  1  0  0  0
M  END
> <minimizedAffinity>
-7.88179

$$$$
5E2R_520_A_302


 29 31  0  0  0  0  0  0  0  0999 V2000
   -1.1937    9.6305   13.7233 C   0  0  0  0  0  0  0  0  0  0  0  0
   -2.1397    9.4887   14.7320 C   0  0  0  0  0  0  0  0  0  0  0  0
   -2.6911    8.2402   15.0012 C   0  0  0  0  0  0  0  0  0  0  0  0
   -0.8034    8.5264   12.9758 C   0  0  0  0  0  0  0  0  0  0  0  0
   -1.3540    7.2784   13.2444 C   0  0  0  0  0  0  0  0  0  0  0  0
   -2.2944    7.1344   14.2592 C   0  0  0  0  0  0  0  0  0  0  0  0
   -2.8122    5.8749   14.5401 C   0  0  0  0  0  0  0  0  0  0  0  0
   -4.1851    5.6934   14.6646 C   0  0  0  0  0  0  0  0  0  0  0  0
   -4.6988    4.4194   14.8841 C   0  0  0  0  0  0  0  0  0  0  0  0
   -3.8429    3.3287   14.9801 C   0  0  0  0  0  0  0  0  0  0  0  0
   -2.4688    3.5108   14.8657 C   0  0  0  0  0  0  0  0  0  0  0  0
   -1.9550    4.7848   14.6463 C   0  0  0  0  0  0  0  0  0  0  0  0
   -5.7784    1.8921   15.8159 O   0  0  0  0  0  0  0  0  0  0  0  0
   -4.4880    1.0676   13.9003 O   0  0  0  0  0  0  0  0  0  0  0  0
   -4.5023    1.7094   15.1838 S   0  0  0  0  0  0  0  0  0  0  0  0
   -3.5369    0.9209   16.1715 N   0  0  0  0  0  0  0  0  0  0  0  0
   -3.5431    1.3729   17.0858 H   0  0  0  0  0  0  0  0  0  0  0  0
   -2.5885    0.9261   15.7961 H   0  0  0  0  0  0  0  0  0  0  0  0
   -0.5533   10.9596   13.4826 C   0  0  0  0  0  0  0  0  0  0  0  0
   -0.6149   11.4796   12.3777 O   0  0  0  0  0  0  0  0  0  0  0  0
    1.1631   11.0039   15.3009 C   0  0  0  0  0  0  0  0  0  0  0  0
    1.8196   11.6556   16.3395 C   0  0  0  0  0  0  0  0  0  0  0  0
    1.4625   12.9557   16.6821 C   0  0  0  0  0  0  0  0  0  0  0  0
    2.1034   13.5953   17.7031 N   0  0  0  0  0  0  0  0  0  0  0  0
    0.4468   13.6023   15.9855 C   0  0  0  0  0  0  0  0  0  0  0  0
   -0.2095   12.9512   14.9482 C   0  0  0  0  0  0  0  0  0  0  0  0
    0.1484   11.6515   14.6046 C   0  0  0  0  0  0  0  0  0  0  0  0
    1.8493   14.5154   17.9441 H   0  0  0  0  0  0  0  0  0  0  0  0
    2.8198   13.1366   18.1986 H   0  0  0  0  0  0  0  0  0  0  0  0
 24 23  1  0  0  0
 23 25  2  0  0  0
 23 22  1  0  0  0
 25 26  1  0  0  0
 22 21  2  0  0  0
 26 27  2  0  0  0
 21 27  1  0  0  0
 27 19  1  0  0  0
 20 19  2  0  0  0
 19  1  1  0  0  0
  1  2  2  0  0  0
  1  4  1  0  0  0
  2  3  1  0  0  0
  4  5  2  0  0  0
  3  6  2  0  0  0
  5  6  1  0  0  0
  6  7  1  0  0  0
  7  8  2  0  0  0
  7 12  1  0  0  0
  8  9  1  0  0  0
 12 11  2  0  0  0
  9 10  2  0  0  0
 11 10  1  0  0  0
 10 15  1  0  0  0
 15 13  2  0  0  0
 15 16  1  0  0  0
 15 14  2  0  0  0
 24 28  1  0  0  0
 24 29  1  0  0  0
 16 17  1  0  0  0
 16 18  1  0  0  0
M  END
> <minimizedAffinity>
-7.81606

$$$$
