2HNX_PLM_A_135
  RCSB PDB12061705493D
Coordinates from PDB:2HNX:A:135 Model:1 without hydrogens
 18 17  0  0  0  0            999 V2000
   26.2330   48.3590   15.4780   C 0  0  0  0  0  0  0  0  0  0  0  0
   26.4050   49.5320   15.0820   O 0  0  0  0  0  0  0  0  0  0  0  0
   26.9170   47.4610   14.9330   O 0  0  0  0  0  0  0  0  0  0  0  0
   25.2380   48.0670   16.5860   C 0  0  0  0  0  0  0  0  0  0  0  0
   25.4140   46.6810   17.2120   C 0  0  0  0  0  0  0  0  0  0  0  0
   25.0650   46.7170   18.7000   C 0  0  0  0  0  0  0  0  0  0  0  0
   26.0510   45.9340   19.5640   C 0  0  0  0  0  0  0  0  0  0  0  0
   25.5740   45.9000   21.0160   C 0  0  0  0  0  0  0  0  0  0  0  0
   26.7110   45.7960   22.0350   C 0  0  0  0  0  0  0  0  0  0  0  0
   26.6710   47.0280   22.9370   C 0  0  0  0  0  0  0  0  0  0  0  0
   27.9860   47.3890   23.6280   C 0  0  0  0  0  0  0  0  0  0  0  0
   29.2110   47.5290   22.7240   C 0  0  0  0  0  0  0  0  0  0  0  0
   28.9680   48.4640   21.5430   C 0  0  0  0  0  0  0  0  0  0  0  0
   30.1730   48.4630   20.6190   C 0  0  0  0  0  0  0  0  0  0  0  0
   30.1480   49.6910   19.7130   C 0  0  0  0  0  0  0  0  0  0  0  0
   31.0070   49.4950   18.4690   C 0  0  0  0  0  0  0  0  0  0  0  0
   30.5450   48.3090   17.6230   C 0  0  0  0  0  0  0  0  0  0  0  0
   29.1260   48.5050   17.1040   C 0  0  0  0  0  0  0  0  0  0  0  0
  1  2  1  0  0  0  0
  1  3  2  0  0  0  0
  1  4  1  0  0  0  0
  4  5  1  0  0  0  0
  5  6  1  0  0  0  0
  6  7  1  0  0  0  0
  7  8  1  0  0  0  0
  8  9  1  0  0  0  0
  9 10  1  0  0  0  0
 10 11  1  0  0  0  0
 11 12  1  0  0  0  0
 12 13  1  0  0  0  0
 13 14  1  0  0  0  0
 14 15  1  0  0  0  0
 15 16  1  0  0  0  0
 16 17  1  0  0  0  0
 17 18  1  0  0  0  0
A    1
C1
A    2
O1
A    3
O2
A    4
C2
A    5
C3
A    6
C4
A    7
C5
A    8
C6
A    9
C7
A   10
C8
A   11
C9
A   12
CA
A   13
CB
A   14
CC
A   15
CD
A   16
CE
A   17
CF
A   18
CG
M  END
>  <InstanceId>
2HNX_PLM_A_135

>  <ChemCompId>
PLM

>  <PdbId>
2HNX

>  <ChainId>
A

>  <ResidueNumber>
135

>  <InsertionCode>


>  <Model>
1

>  <AltIds>


>  <MissingHeavyAtoms>
0

>  <ObservedFormula>
C16 O2

>  <Name>
PALMITIC ACID

>  <SystematicName>
hexadecanoic acid

>  <Synonyms>


>  <Type>
NON-POLYMER

>  <Formula>
C16 H32 O2

>  <MolecularWeight>
256.424

>  <ModifiedDate>
2011-06-04

>  <Parent>


>  <OneLetterCode>


>  <SubcomponentList>


>  <AmbiguousFlag>
N

>  <InChI>
InChI=1S/C16H32O2/c1-2-3-4-5-6-7-8-9-10-11-12-13-14-15-16(17)18/h2-15H2,1H3,(H,17,18)

>  <InChIKey>
IPCSVZSSVZVIGE-UHFFFAOYSA-N

>  <SMILES>
CCCCCCCCCCCCCCCC(=O)O

$$$$
