2HNX_PLM_A_135


 19 18  0  0  0  0  0  0  0  0999 V2000
   28.1390   46.9700   22.7523 C   0  0  0  0  0  0  0  0  0  0  0  0
   28.6271   48.2619   22.0931 C   0  0  0  0  0  0  0  0  0  0  0  0
   29.9921   48.1298   21.4177 C   0  0  0  0  0  0  0  0  0  0  0  0
   30.1014   49.1047   20.2474 C   0  0  0  0  0  0  0  0  0  0  0  0
   31.3922   48.9347   19.4460 C   0  0  0  0  0  0  0  0  0  0  0  0
   31.3686   47.6189   18.6637 C   0  0  0  0  0  0  0  0  0  0  0  0
   32.7476   47.1375   18.2517 C   0  0  0  0  0  0  0  0  0  0  0  0
   33.7675   47.7428   18.6464 O   0  0  0  0  0  0  0  0  0  0  0  0
   32.9204   46.1306   17.5254 O   0  0  0  0  0  0  0  0  0  0  0  0
   33.6813   48.5002   19.1912 H   0  0  0  0  0  0  0  0  0  0  0  0
   26.9037   47.2883   23.5925 C   0  0  0  0  0  0  0  0  0  0  0  0
   25.5856   46.7040   23.0845 C   0  0  0  0  0  0  0  0  0  0  0  0
   25.3104   46.8516   21.5878 C   0  0  0  0  0  0  0  0  0  0  0  0
   24.9086   45.5349   20.9299 C   0  0  0  0  0  0  0  0  0  0  0  0
   25.5102   45.4407   19.5389 C   0  0  0  0  0  0  0  0  0  0  0  0
   27.0147   45.1996   19.6267 C   0  0  0  0  0  0  0  0  0  0  0  0
   27.8087   46.3357   18.9919 C   0  0  0  0  0  0  0  0  0  0  0  0
   26.9706   47.1550   18.0111 C   0  0  0  0  0  0  0  0  0  0  0  0
   27.6381   48.4813   17.6695 C   0  0  0  0  0  0  0  0  0  0  0  0
  7  8  1  0  0  0
  7  9  2  0  0  0
  7  6  1  0  0  0
  6  5  1  0  0  0
  5  4  1  0  0  0
  4  3  1  0  0  0
  3  2  1  0  0  0
  2  1  1  0  0  0
  1 11  1  0  0  0
 11 12  1  0  0  0
 12 13  1  0  0  0
 13 14  1  0  0  0
 14 15  1  0  0  0
 15 16  1  0  0  0
 16 17  1  0  0  0
 17 18  1  0  0  0
 18 19  1  0  0  0
  8 10  1  0  0  0
M  END
> <minimizedAffinity>
-5.55922

$$$$
2HNX_PLM_A_135


 19 18  0  0  0  0  0  0  0  0999 V2000
   25.7440   46.1092   22.0572 C   0  0  0  0  0  0  0  0  0  0  0  0
   26.2106   45.7998   20.6330 C   0  0  0  0  0  0  0  0  0  0  0  0
   25.6950   46.7897   19.5884 C   0  0  0  0  0  0  0  0  0  0  0  0
   26.3449   46.5178   18.2336 C   0  0  0  0  0  0  0  0  0  0  0  0
   27.8337   46.8640   18.2042 C   0  0  0  0  0  0  0  0  0  0  0  0
   28.0355   48.3328   17.8227 C   0  0  0  0  0  0  0  0  0  0  0  0
   28.1453   48.5575   16.3259 C   0  0  0  0  0  0  0  0  0  0  0  0
   27.2205   49.1269   15.7072 O   0  0  0  0  0  0  0  0  0  0  0  0
   29.1478   48.2012   15.6631 O   0  0  0  0  0  0  0  0  0  0  0  0
   26.4538   49.4088   16.1661 H   0  0  0  0  0  0  0  0  0  0  0  0
   26.3374   47.4505   22.4837 C   0  0  0  0  0  0  0  0  0  0  0  0
   27.5617   47.3759   23.3961 C   0  0  0  0  0  0  0  0  0  0  0  0
   28.9251   47.3991   22.7049 C   0  0  0  0  0  0  0  0  0  0  0  0
   28.9886   48.4066   21.5607 C   0  0  0  0  0  0  0  0  0  0  0  0
   30.2847   48.2386   20.7877 C   0  0  0  0  0  0  0  0  0  0  0  0
   30.6878   49.5578   20.1345 C   0  0  0  0  0  0  0  0  0  0  0  0
   31.6506   49.3437   18.9722 C   0  0  0  0  0  0  0  0  0  0  0  0
   31.6013   47.9155   18.4304 C   0  0  0  0  0  0  0  0  0  0  0  0
   32.9746   47.2561   18.4523 C   0  0  0  0  0  0  0  0  0  0  0  0
  7  8  1  0  0  0
  7  9  2  0  0  0
  7  6  1  0  0  0
  6  5  1  0  0  0
  5  4  1  0  0  0
  4  3  1  0  0  0
  3  2  1  0  0  0
  2  1  1  0  0  0
  1 11  1  0  0  0
 11 12  1  0  0  0
 12 13  1  0  0  0
 13 14  1  0  0  0
 14 15  1  0  0  0
 15 16  1  0  0  0
 16 17  1  0  0  0
 17 18  1  0  0  0
 18 19  1  0  0  0
  8 10  1  0  0  0
M  END
> <minimizedAffinity>
-5.55480

$$$$
2HNX_PLM_A_135


 19 18  0  0  0  0  0  0  0  0999 V2000
   28.6949   48.3744   22.4310 C   0  0  0  0  0  0  0  0  0  0  0  0
   29.6911   48.0372   21.3193 C   0  0  0  0  0  0  0  0  0  0  0  0
   29.9215   49.1817   20.3324 C   0  0  0  0  0  0  0  0  0  0  0  0
   29.6620   48.7101   18.9033 C   0  0  0  0  0  0  0  0  0  0  0  0
   30.9464   48.4855   18.1051 C   0  0  0  0  0  0  0  0  0  0  0  0
   31.3190   47.0006   18.0948 C   0  0  0  0  0  0  0  0  0  0  0  0
   32.8165   46.7547   18.0958 C   0  0  0  0  0  0  0  0  0  0  0  0
   33.2884   45.7535   17.5151 O   0  0  0  0  0  0  0  0  0  0  0  0
   33.6263   47.5310   18.6551 O   0  0  0  0  0  0  0  0  0  0  0  0
   32.7166   45.1486   17.0848 H   0  0  0  0  0  0  0  0  0  0  0  0
   28.1577   47.0697   23.0160 C   0  0  0  0  0  0  0  0  0  0  0  0
   26.6914   47.0888   23.4481 C   0  0  0  0  0  0  0  0  0  0  0  0
   25.6610   47.3126   22.3410 C   0  0  0  0  0  0  0  0  0  0  0  0
   25.2283   46.0136   21.6675 C   0  0  0  0  0  0  0  0  0  0  0  0
   25.1735   46.1988   20.1614 C   0  0  0  0  0  0  0  0  0  0  0  0
   26.4757   46.8127   19.6545 C   0  0  0  0  0  0  0  0  0  0  0  0
   27.3594   45.7788   18.9662 C   0  0  0  0  0  0  0  0  0  0  0  0
   28.1603   44.9411   19.9625 C   0  0  0  0  0  0  0  0  0  0  0  0
   27.8839   43.4518   19.7979 C   0  0  0  0  0  0  0  0  0  0  0  0
  7  8  1  0  0  0
  7  9  2  0  0  0
  7  6  1  0  0  0
  6  5  1  0  0  0
  5  4  1  0  0  0
  4  3  1  0  0  0
  3  2  1  0  0  0
  2  1  1  0  0  0
  1 11  1  0  0  0
 11 12  1  0  0  0
 12 13  1  0  0  0
 13 14  1  0  0  0
 14 15  1  0  0  0
 15 16  1  0  0  0
 16 17  1  0  0  0
 17 18  1  0  0  0
 18 19  1  0  0  0
  8 10  1  0  0  0
M  END
> <minimizedAffinity>
-5.49835

$$$$
2HNX_PLM_A_135


 19 18  0  0  0  0  0  0  0  0999 V2000
   29.1516   47.5794   21.2001 C   0  0  0  0  0  0  0  0  0  0  0  0
   30.1600   48.6212   20.7106 C   0  0  0  0  0  0  0  0  0  0  0  0
   29.6058   49.5549   19.6344 C   0  0  0  0  0  0  0  0  0  0  0  0
   30.4293   49.4362   18.3539 C   0  0  0  0  0  0  0  0  0  0  0  0
   30.4796   48.0101   17.8052 C   0  0  0  0  0  0  0  0  0  0  0  0
   29.0987   47.5792   17.3040 C   0  0  0  0  0  0  0  0  0  0  0  0
   28.6533   48.3169   16.0548 C   0  0  0  0  0  0  0  0  0  0  0  0
   29.1667   48.0442   14.9483 O   0  0  0  0  0  0  0  0  0  0  0  0
   27.7655   49.2015   16.0755 O   0  0  0  0  0  0  0  0  0  0  0  0
   29.8338   47.3888   14.8901 H   0  0  0  0  0  0  0  0  0  0  0  0
   28.2758   48.2174   22.2767 C   0  0  0  0  0  0  0  0  0  0  0  0
   27.7884   47.2781   23.3800 C   0  0  0  0  0  0  0  0  0  0  0  0
   26.2734   47.1464   23.5382 C   0  0  0  0  0  0  0  0  0  0  0  0
   25.5315   47.2438   22.2085 C   0  0  0  0  0  0  0  0  0  0  0  0
   25.3698   45.8630   21.5978 C   0  0  0  0  0  0  0  0  0  0  0  0
   25.0181   45.9757   20.1169 C   0  0  0  0  0  0  0  0  0  0  0  0
   26.0033   46.8645   19.3665 C   0  0  0  0  0  0  0  0  0  0  0  0
   25.4306   47.3860   18.0489 C   0  0  0  0  0  0  0  0  0  0  0  0
   24.8066   46.2679   17.2232 C   0  0  0  0  0  0  0  0  0  0  0  0
  7  8  1  0  0  0
  7  9  2  0  0  0
  7  6  1  0  0  0
  6  5  1  0  0  0
  5  4  1  0  0  0
  4  3  1  0  0  0
  3  2  1  0  0  0
  2  1  1  0  0  0
  1 11  1  0  0  0
 11 12  1  0  0  0
 12 13  1  0  0  0
 13 14  1  0  0  0
 14 15  1  0  0  0
 15 16  1  0  0  0
 16 17  1  0  0  0
 17 18  1  0  0  0
 18 19  1  0  0  0
  8 10  1  0  0  0
M  END
> <minimizedAffinity>
-5.44759

$$$$
2HNX_PLM_A_135


 19 18  0  0  0  0  0  0  0  0999 V2000
   28.0923   48.2895   18.2314 C   0  0  0  0  0  0  0  0  0  0  0  0
   29.4571   48.8252   17.7929 C   0  0  0  0  0  0  0  0  0  0  0  0
   30.0900   49.7900   18.7957 C   0  0  0  0  0  0  0  0  0  0  0  0
   31.5486   49.4134   19.0460 C   0  0  0  0  0  0  0  0  0  0  0  0
   31.7527   47.9116   19.2462 C   0  0  0  0  0  0  0  0  0  0  0  0
   32.9440   47.4175   18.4213 C   0  0  0  0  0  0  0  0  0  0  0  0
   32.7069   46.0686   17.7676 C   0  0  0  0  0  0  0  0  0  0  0  0
   33.6657   45.4271   17.2866 O   0  0  0  0  0  0  0  0  0  0  0  0
   31.5696   45.5467   17.6934 O   0  0  0  0  0  0  0  0  0  0  0  0
   34.5320   45.7824   17.3220 H   0  0  0  0  0  0  0  0  0  0  0  0
   28.3055   46.9958   19.0148 C   0  0  0  0  0  0  0  0  0  0  0  0
   28.3085   47.1332   20.5373 C   0  0  0  0  0  0  0  0  0  0  0  0
   27.2836   46.2901   21.2964 C   0  0  0  0  0  0  0  0  0  0  0  0
   25.8598   46.8177   21.1468 C   0  0  0  0  0  0  0  0  0  0  0  0
   25.0250   45.8453   20.3323 C   0  0  0  0  0  0  0  0  0  0  0  0
   24.5294   46.5138   19.0529 C   0  0  0  0  0  0  0  0  0  0  0  0
   25.0677   45.8208   17.8063 C   0  0  0  0  0  0  0  0  0  0  0  0
   24.5904   46.4881   16.5169 C   0  0  0  0  0  0  0  0  0  0  0  0
   25.7587   46.9499   15.6548 C   0  0  0  0  0  0  0  0  0  0  0  0
  7  8  1  0  0  0
  7  9  2  0  0  0
  7  6  1  0  0  0
  6  5  1  0  0  0
  5  4  1  0  0  0
  4  3  1  0  0  0
  3  2  1  0  0  0
  2  1  1  0  0  0
  1 11  1  0  0  0
 11 12  1  0  0  0
 12 13  1  0  0  0
 13 14  1  0  0  0
 14 15  1  0  0  0
 15 16  1  0  0  0
 16 17  1  0  0  0
 17 18  1  0  0  0
 18 19  1  0  0  0
  8 10  1  0  0  0
M  END
> <minimizedAffinity>
-5.43854

$$$$
2HNX_PLM_A_135


 19 18  0  0  0  0  0  0  0  0999 V2000
   27.2903   46.2712   19.3473 C   0  0  0  0  0  0  0  0  0  0  0  0
   25.8768   46.5403   19.8683 C   0  0  0  0  0  0  0  0  0  0  0  0
   24.9014   47.0063   18.7873 C   0  0  0  0  0  0  0  0  0  0  0  0
   24.6612   45.8903   17.7731 C   0  0  0  0  0  0  0  0  0  0  0  0
   24.8652   46.3423   16.3269 C   0  0  0  0  0  0  0  0  0  0  0  0
   24.9250   47.8699   16.2457 C   0  0  0  0  0  0  0  0  0  0  0  0
   25.8785   48.3804   15.1811 C   0  0  0  0  0  0  0  0  0  0  0  0
   26.7075   49.2741   15.4575 O   0  0  0  0  0  0  0  0  0  0  0  0
   25.8842   47.9315   14.0108 O   0  0  0  0  0  0  0  0  0  0  0  0
   26.7357   49.6361   16.3213 H   0  0  0  0  0  0  0  0  0  0  0  0
   27.7656   47.4985   18.5721 C   0  0  0  0  0  0  0  0  0  0  0  0
   28.7378   47.2245   17.4246 C   0  0  0  0  0  0  0  0  0  0  0  0
   29.8670   48.2378   17.2358 C   0  0  0  0  0  0  0  0  0  0  0  0
   31.0262   48.0152   18.2027 C   0  0  0  0  0  0  0  0  0  0  0  0
   31.3982   49.3213   18.8821 C   0  0  0  0  0  0  0  0  0  0  0  0
   30.4830   49.5777   20.0763 C   0  0  0  0  0  0  0  0  0  0  0  0
   30.3316   48.3383   20.9507 C   0  0  0  0  0  0  0  0  0  0  0  0
   29.0929   48.4030   21.8436 C   0  0  0  0  0  0  0  0  0  0  0  0
   29.1117   47.3190   22.9140 C   0  0  0  0  0  0  0  0  0  0  0  0
  7  8  1  0  0  0
  7  9  2  0  0  0
  7  6  1  0  0  0
  6  5  1  0  0  0
  5  4  1  0  0  0
  4  3  1  0  0  0
  3  2  1  0  0  0
  2  1  1  0  0  0
  1 11  1  0  0  0
 11 12  1  0  0  0
 12 13  1  0  0  0
 13 14  1  0  0  0
 14 15  1  0  0  0
 15 16  1  0  0  0
 16 17  1  0  0  0
 17 18  1  0  0  0
 18 19  1  0  0  0
  8 10  1  0  0  0
M  END
> <minimizedAffinity>
-5.38924

$$$$
2HNX_PLM_A_135


 19 18  0  0  0  0  0  0  0  0999 V2000
   25.3832   46.8531   21.3637 C   0  0  0  0  0  0  0  0  0  0  0  0
   24.9218   45.6105   20.5990 C   0  0  0  0  0  0  0  0  0  0  0  0
   26.0275   44.9492   19.7761 C   0  0  0  0  0  0  0  0  0  0  0  0
   27.0129   46.0003   19.2702 C   0  0  0  0  0  0  0  0  0  0  0  0
   28.3567   45.4061   18.8478 C   0  0  0  0  0  0  0  0  0  0  0  0
   28.4148   43.9147   19.1889 C   0  0  0  0  0  0  0  0  0  0  0  0
   29.4888   43.1627   18.4247 C   0  0  0  0  0  0  0  0  0  0  0  0
   30.2593   42.3844   19.0272 O   0  0  0  0  0  0  0  0  0  0  0  0
   29.6392   43.2775   17.1856 O   0  0  0  0  0  0  0  0  0  0  0  0
   30.1797   42.2705   19.9538 H   0  0  0  0  0  0  0  0  0  0  0  0
   25.5814   46.4767   22.8307 C   0  0  0  0  0  0  0  0  0  0  0  0
   26.7835   47.1171   23.5248 C   0  0  0  0  0  0  0  0  0  0  0  0
   28.1215   47.0190   22.7916 C   0  0  0  0  0  0  0  0  0  0  0  0
   28.6977   48.3852   22.4316 C   0  0  0  0  0  0  0  0  0  0  0  0
   29.0498   48.4313   20.9552 C   0  0  0  0  0  0  0  0  0  0  0  0
   30.5639   48.4916   20.7724 C   0  0  0  0  0  0  0  0  0  0  0  0
   30.9839   49.6770   19.9109 C   0  0  0  0  0  0  0  0  0  0  0  0
   31.8142   49.2521   18.7002 C   0  0  0  0  0  0  0  0  0  0  0  0
   32.1825   47.7749   18.7592 C   0  0  0  0  0  0  0  0  0  0  0  0
  7  8  1  0  0  0
  7  9  2  0  0  0
  7  6  1  0  0  0
  6  5  1  0  0  0
  5  4  1  0  0  0
  4  3  1  0  0  0
  3  2  1  0  0  0
  2  1  1  0  0  0
  1 11  1  0  0  0
 11 12  1  0  0  0
 12 13  1  0  0  0
 13 14  1  0  0  0
 14 15  1  0  0  0
 15 16  1  0  0  0
 16 17  1  0  0  0
 17 18  1  0  0  0
 18 19  1  0  0  0
  8 10  1  0  0  0
M  END
> <minimizedAffinity>
-5.29940

$$$$
2HNX_PLM_A_135


 19 18  0  0  0  0  0  0  0  0999 V2000
   29.3507   47.7393   22.2457 C   0  0  0  0  0  0  0  0  0  0  0  0
   28.2440   46.6857   22.3286 C   0  0  0  0  0  0  0  0  0  0  0  0
   26.9337   47.2151   22.9117 C   0  0  0  0  0  0  0  0  0  0  0  0
   25.7479   46.4412   22.3402 C   0  0  0  0  0  0  0  0  0  0  0  0
   25.8286   46.2565   20.8247 C   0  0  0  0  0  0  0  0  0  0  0  0
   24.5716   45.5561   20.3019 C   0  0  0  0  0  0  0  0  0  0  0  0
   24.3286   44.1997   20.9375 C   0  0  0  0  0  0  0  0  0  0  0  0
   25.1395   43.2664   20.7543 O   0  0  0  0  0  0  0  0  0  0  0  0
   23.3352   43.9650   21.6651 O   0  0  0  0  0  0  0  0  0  0  0  0
   25.8952   43.4011   20.2169 H   0  0  0  0  0  0  0  0  0  0  0  0
   29.0232   48.7014   21.1054 C   0  0  0  0  0  0  0  0  0  0  0  0
   30.0029   48.6995   19.9319 C   0  0  0  0  0  0  0  0  0  0  0  0
   30.0618   47.4183   19.0997 C   0  0  0  0  0  0  0  0  0  0  0  0
   28.6887   46.9738   18.6044 C   0  0  0  0  0  0  0  0  0  0  0  0
   28.3894   47.6060   17.2566 C   0  0  0  0  0  0  0  0  0  0  0  0
   27.1991   48.5546   17.3680 C   0  0  0  0  0  0  0  0  0  0  0  0
   26.0394   48.1153   16.4815 C   0  0  0  0  0  0  0  0  0  0  0  0
   25.0504   47.2142   17.2201 C   0  0  0  0  0  0  0  0  0  0  0  0
   24.8503   45.8866   16.4998 C   0  0  0  0  0  0  0  0  0  0  0  0
  7  8  1  0  0  0
  7  9  2  0  0  0
  7  6  1  0  0  0
  6  5  1  0  0  0
  5  4  1  0  0  0
  4  3  1  0  0  0
  3  2  1  0  0  0
  2  1  1  0  0  0
  1 11  1  0  0  0
 11 12  1  0  0  0
 12 13  1  0  0  0
 13 14  1  0  0  0
 14 15  1  0  0  0
 15 16  1  0  0  0
 16 17  1  0  0  0
 17 18  1  0  0  0
 18 19  1  0  0  0
  8 10  1  0  0  0
M  END
> <minimizedAffinity>
-5.23964

$$$$
2HNX_PLM_A_135


 19 18  0  0  0  0  0  0  0  0999 V2000
   25.7130   47.6701   17.0362 C   0  0  0  0  0  0  0  0  0  0  0  0
   26.9887   48.4320   16.6698 C   0  0  0  0  0  0  0  0  0  0  0  0
   28.1228   48.2533   17.6792 C   0  0  0  0  0  0  0  0  0  0  0  0
   29.2833   47.4910   17.0437 C   0  0  0  0  0  0  0  0  0  0  0  0
   30.1802   46.8011   18.0717 C   0  0  0  0  0  0  0  0  0  0  0  0
   31.3853   47.6828   18.4097 C   0  0  0  0  0  0  0  0  0  0  0  0
   32.7182   46.9869   18.2041 C   0  0  0  0  0  0  0  0  0  0  0  0
   33.7776   47.5387   18.5722 O   0  0  0  0  0  0  0  0  0  0  0  0
   32.8118   45.8521   17.6799 O   0  0  0  0  0  0  0  0  0  0  0  0
   33.7507   48.3873   18.9686 H   0  0  0  0  0  0  0  0  0  0  0  0
   25.8975   47.0474   18.4187 C   0  0  0  0  0  0  0  0  0  0  0  0
   24.6159   46.8124   19.2183 C   0  0  0  0  0  0  0  0  0  0  0  0
   24.7611   46.0101   20.5116 C   0  0  0  0  0  0  0  0  0  0  0  0
   25.6376   46.7115   21.5449 C   0  0  0  0  0  0  0  0  0  0  0  0
   26.7478   45.7833   22.0050 C   0  0  0  0  0  0  0  0  0  0  0  0
   28.0534   46.1228   21.2911 C   0  0  0  0  0  0  0  0  0  0  0  0
   28.2975   47.6267   21.2414 C   0  0  0  0  0  0  0  0  0  0  0  0
   28.6567   48.2042   22.6101 C   0  0  0  0  0  0  0  0  0  0  0  0
   29.8517   47.4891   23.2281 C   0  0  0  0  0  0  0  0  0  0  0  0
  7  8  1  0  0  0
  7  9  2  0  0  0
  7  6  1  0  0  0
  6  5  1  0  0  0
  5  4  1  0  0  0
  4  3  1  0  0  0
  3  2  1  0  0  0
  2  1  1  0  0  0
  1 11  1  0  0  0
 11 12  1  0  0  0
 12 13  1  0  0  0
 13 14  1  0  0  0
 14 15  1  0  0  0
 15 16  1  0  0  0
 16 17  1  0  0  0
 17 18  1  0  0  0
 18 19  1  0  0  0
  8 10  1  0  0  0
M  END
> <minimizedAffinity>
-5.08689

$$$$
2HNX_PLM_A_135


 19 18  0  0  0  0  0  0  0  0999 V2000
   30.0700   49.7310   18.4447 C   0  0  0  0  0  0  0  0  0  0  0  0
   30.5563   49.6322   19.8923 C   0  0  0  0  0  0  0  0  0  0  0  0
   30.3548   48.2510   20.5157 C   0  0  0  0  0  0  0  0  0  0  0  0
   29.4403   48.3475   21.7348 C   0  0  0  0  0  0  0  0  0  0  0  0
   28.2731   47.3614   21.6865 C   0  0  0  0  0  0  0  0  0  0  0  0
   27.4200   47.4774   22.9524 C   0  0  0  0  0  0  0  0  0  0  0  0
   26.1200   46.6981   22.8771 C   0  0  0  0  0  0  0  0  0  0  0  0
   25.7333   46.0263   23.8576 O   0  0  0  0  0  0  0  0  0  0  0  0
   25.3898   46.7029   21.8582 O   0  0  0  0  0  0  0  0  0  0  0  0
   26.2505   45.9965   24.6384 H   0  0  0  0  0  0  0  0  0  0  0  0
   30.3622   48.4070   17.7412 C   0  0  0  0  0  0  0  0  0  0  0  0
   29.1748   47.7538   17.0339 C   0  0  0  0  0  0  0  0  0  0  0  0
   28.8589   46.3115   17.4305 C   0  0  0  0  0  0  0  0  0  0  0  0
   27.5682   46.1908   18.2353 C   0  0  0  0  0  0  0  0  0  0  0  0
   26.8247   47.5148   18.2322 C   0  0  0  0  0  0  0  0  0  0  0  0
   25.3219   47.2792   18.1072 C   0  0  0  0  0  0  0  0  0  0  0  0
   24.9085   47.0104   16.6648 C   0  0  0  0  0  0  0  0  0  0  0  0
   25.4507   48.0623   15.6977 C   0  0  0  0  0  0  0  0  0  0  0  0
   25.8911   47.4415   14.3778 C   0  0  0  0  0  0  0  0  0  0  0  0
  7  8  1  0  0  0
  7  9  2  0  0  0
  7  6  1  0  0  0
  6  5  1  0  0  0
  5  4  1  0  0  0
  4  3  1  0  0  0
  3  2  1  0  0  0
  2  1  1  0  0  0
  1 11  1  0  0  0
 11 12  1  0  0  0
 12 13  1  0  0  0
 13 14  1  0  0  0
 14 15  1  0  0  0
 15 16  1  0  0  0
 16 17  1  0  0  0
 17 18  1  0  0  0
 18 19  1  0  0  0
  8 10  1  0  0  0
M  END
> <minimizedAffinity>
-5.06884

$$$$
