6D50_GCB_A_903
  RCSB PDB10131806203D
Coordinates from PDB:6D50:A:903 Model:1 without hydrogens
 13 13  0  0  0  0            999 V2000
   19.0270   -9.5620  -22.6980   C 0  0  0  0  0  0  0  0  0  0  0  0
   17.7060   -8.7100  -22.7750   C 0  0  0  0  0  0  0  0  0  0  0  0
   16.6050   -9.3740  -23.4280   C 0  0  0  0  0  0  0  0  0  0  0  0
   16.9540   -9.7970  -24.7790   C 0  0  0  0  0  0  0  0  0  0  0  0
   18.0920  -10.7690  -24.6900   C 0  0  0  0  0  0  0  0  0  0  0  0
   18.5690  -11.1940  -26.0310   C 0  0  0  0  0  0  0  0  0  0  0  0
   19.7400   -9.6550  -21.7550   O 0  0  0  0  0  0  0  0  0  0  0  0
   17.2750   -8.3550  -21.4220   O 0  0  0  0  0  0  0  0  0  0  0  0
   15.4400   -8.4970  -23.5280   O 0  0  0  0  0  0  0  0  0  0  0  0
   15.9580  -10.4430  -25.4580   O 0  0  0  0  0  0  0  0  0  0  0  0
   19.3090  -10.2700  -23.9760   O 0  0  0  0  0  0  0  0  0  0  0  0
   18.2250  -12.3240  -26.4420   O 0  0  0  0  0  0  0  0  0  0  0  0
   19.3040  -10.4490  -26.7230   O 0  0  0  0  0  0  0  0  0  0  0  0
  1  2  1  0  0  0  0
  1  7  2  0  0  0  0
  1 11  1  0  0  0  0
  2  3  1  0  0  0  0
  2  8  1  0  0  0  0
  3  4  1  0  0  0  0
  3  9  1  0  0  0  0
  4  5  1  0  0  0  0
  4 10  1  0  0  0  0
  5  6  1  0  0  0  0
  5 11  1  0  0  0  0
  6 12  1  0  0  0  0
  6 13  2  0  0  0  0
A    1
C1
A    2
C2
A    3
C3
A    4
C4
A    5
C5
A    6
C6
A    7
O1
A    8
O2
A    9
O3
A   10
O4
A   11
O5
A   12
O6A
A   13
O6B
M  END
>  <InstanceId>
6D50_GCB_A_903

>  <ChemCompId>
GCB

>  <PdbId>
6D50

>  <ChainId>
A

>  <ResidueNumber>
903

>  <InsertionCode>


>  <Model>
1

>  <AltIds>


>  <MissingHeavyAtoms>
0

>  <ObservedFormula>
C6 O7

>  <Name>
D-SACCHARIC ACID 1,5-LACTONE

>  <SystematicName>
(2S,3S,4S,5R)-3,4,5-trihydroxy-6-oxo-oxane-2-carboxylic acid

>  <Synonyms>
D-GLUCARO-1,5-LACTONE

>  <Type>
NON-POLYMER

>  <Formula>
C6 H8 O7

>  <MolecularWeight>
192.124

>  <ModifiedDate>
2018-02-02

>  <Parent>


>  <OneLetterCode>


>  <SubcomponentList>


>  <AmbiguousFlag>
N

>  <InChI>
InChI=1S/C6H8O7/c7-1-2(8)4(5(10)11)13-6(12)3(1)9/h1-4,7-9H,(H,10,11)/t1-,2-,3+,4-/m0/s1

>  <InChIKey>
YLKFQNUGXOLRNI-QDQPNEQZSA-N

>  <SMILES>
[C@@H]1([C@@H]([C@H](OC(=O)[C@@H]1O)C(=O)O)O)O

$$$$
