5G2B_LQY_A_1003


 42 46  0  0  0  0  0  0  0  0999 V2000
   27.7946   12.8986   -0.5146 C   0  0  0  0  0  0  0  0  0  0  0  0
   27.4160   11.5795   -0.2292 C   0  0  0  0  0  0  0  0  0  0  0  0
   27.1128   10.7076   -1.2680 C   0  0  0  0  0  0  0  0  0  0  0  0
   27.1589   11.1437   -2.6018 C   0  0  0  0  0  0  0  0  0  0  0  0
   27.5473   12.4563   -2.8706 C   0  0  0  0  0  0  0  0  0  0  0  0
   27.8682   13.3468   -1.8418 C   0  0  0  0  0  0  0  0  0  0  0  0
   26.2445   10.8612   -4.7488 N   0  0  0  0  0  0  0  0  0  0  0  0
   25.7246   10.0895   -5.7719 N   0  0  0  0  0  0  0  0  0  0  0  0
   25.5658    8.0693   -6.8781 O   0  0  0  0  0  0  0  0  0  0  0  0
   26.7222   10.2618   -3.7148 C   0  0  0  0  0  0  0  0  0  0  0  0
   26.0467    8.7678   -6.0039 C   0  0  0  0  0  0  0  0  0  0  0  0
   27.0497    8.1752   -5.0312 C   0  0  0  0  0  0  0  0  0  0  0  0
   27.1603    6.6485   -4.9760 C   0  0  0  0  0  0  0  0  0  0  0  0
   26.0384    6.0328   -4.1869 C   0  0  0  0  0  0  0  0  0  0  0  0
   25.2999    6.7116   -3.2999 C   0  0  0  0  0  0  0  0  0  0  0  0
   25.4180    8.2015   -3.0956 C   0  0  0  0  0  0  0  0  0  0  0  0
   26.7554    8.7472   -3.6205 C   0  0  0  0  0  0  0  0  0  0  0  0
   24.7882   10.9305   -6.5413 C   0  0  0  0  0  0  0  0  0  0  0  0
   23.5187   11.2810   -5.6349 C   0  0  0  0  0  0  0  0  0  0  0  0
   22.5256   12.3466   -6.0864 C   0  0  0  0  0  0  0  0  0  0  0  0
   23.1278   13.7130   -6.3844 C   0  0  0  0  0  0  0  0  0  0  0  0
   23.6934   13.9023   -7.7991 C   0  0  0  0  0  0  0  0  0  0  0  0
   24.8337   12.9740   -8.2920 C   0  0  0  0  0  0  0  0  0  0  0  0
   25.5744   12.1620   -7.2235 C   0  0  0  0  0  0  0  0  0  0  0  0
   28.3598   14.7006   -2.2264 C   0  0  0  0  0  0  0  0  0  0  0  0
   29.7260   14.9448   -2.3386 C   0  0  0  0  0  0  0  0  0  0  0  0
   30.2055   16.1428   -2.8328 C   0  0  0  0  0  0  0  0  0  0  0  0
   29.3296   17.1508   -3.2332 C   0  0  0  0  0  0  0  0  0  0  0  0
   27.9574   16.9293   -3.0871 C   0  0  0  0  0  0  0  0  0  0  0  0
   27.4837   15.7228   -2.5927 C   0  0  0  0  0  0  0  0  0  0  0  0
   30.9357   18.9688   -3.4142 N   0  0  0  0  0  0  0  0  0  0  0  0
   29.2444   18.8443   -4.8909 O   0  0  0  0  0  0  0  0  0  0  0  0
   29.8212   18.4037   -3.8974 C   0  0  0  0  0  0  0  0  0  0  0  0
   31.5564   18.4194   -2.8830 H   0  0  0  0  0  0  0  0  0  0  0  0
   31.2575   20.3616   -3.6478 C   0  0  0  0  0  0  0  0  0  0  0  0
   32.1284   20.1723   -5.8860 N   0  0  0  0  0  0  0  0  0  0  0  0
   33.3377   21.3267   -4.3807 O   0  0  0  0  0  0  0  0  0  0  0  0
   32.3367   20.6590   -4.6751 C   0  0  0  0  0  0  0  0  0  0  0  0
   32.7886   20.3283   -6.5995 H   0  0  0  0  0  0  0  0  0  0  0  0
   31.3132   19.6536   -6.0746 H   0  0  0  0  0  0  0  0  0  0  0  0
   29.1536   13.4432    1.3848 C   0  0  0  0  0  0  0  0  0  0  0  0
   28.1485   13.8171    0.4375 O   0  0  0  0  0  0  0  0  0  0  0  0
 41 42  1  0  0  0
 31 33  1  0  0  0
 31 35  1  0  0  0
 42  1  1  0  0  0
  1  2  2  0  0  0
  1  6  1  0  0  0
 36 38  1  0  0  0
 32 33  2  0  0  0
  2  3  1  0  0  0
  7  8  1  0  0  0
  7 10  2  0  0  0
 37 38  2  0  0  0
  3  4  2  0  0  0
  8 18  1  0  0  0
  8 11  1  0  0  0
  9 11  2  0  0  0
  4  5  1  0  0  0
  4 10  1  0  0  0
  5  6  2  0  0  0
  6 25  1  0  0  0
 25 26  2  0  0  0
 25 30  1  0  0  0
 26 27  1  0  0  0
 27 28  2  0  0  0
 28 29  1  0  0  0
 28 33  1  0  0  0
 29 30  2  0  0  0
 35 38  1  0  0  0
 10 17  1  0  0  0
 18 19  1  0  0  0
 18 24  1  0  0  0
 19 20  1  0  0  0
 20 21  1  0  0  0
 21 22  1  0  0  0
 22 23  1  0  0  0
 23 24  1  0  0  0
 11 12  1  0  0  0
 12 13  1  0  0  0
 12 17  1  0  0  0
 13 14  1  0  0  0
 14 15  2  0  0  0
 15 16  1  0  0  0
 16 17  1  0  0  0
 31 34  1  0  0  0
 36 39  1  0  0  0
 36 40  1  0  0  0
M  END
> <minimizedAffinity>
-11.55830

$$$$
5G2B_LQY_A_1003


 42 46  0  0  0  0  0  0  0  0999 V2000
   27.8135   12.8470   -1.0512 C   0  0  0  0  0  0  0  0  0  0  0  0
   27.4612   11.5680   -0.5988 C   0  0  0  0  0  0  0  0  0  0  0  0
   27.2328   10.5492   -1.5161 C   0  0  0  0  0  0  0  0  0  0  0  0
   27.3284   10.7962   -2.8950 C   0  0  0  0  0  0  0  0  0  0  0  0
   27.6899   12.0715   -3.3296 C   0  0  0  0  0  0  0  0  0  0  0  0
   27.9359   13.1079   -2.4241 C   0  0  0  0  0  0  0  0  0  0  0  0
   26.8760   10.1517   -5.1097 N   0  0  0  0  0  0  0  0  0  0  0  0
   26.4428    9.2485   -6.0634 N   0  0  0  0  0  0  0  0  0  0  0  0
   26.1020    7.0728   -6.7561 O   0  0  0  0  0  0  0  0  0  0  0  0
   26.9706    9.7525   -3.8898 C   0  0  0  0  0  0  0  0  0  0  0  0
   26.5154    7.8760   -5.9393 C   0  0  0  0  0  0  0  0  0  0  0  0
   27.1245    7.3842   -4.6391 C   0  0  0  0  0  0  0  0  0  0  0  0
   26.8878    5.9192   -4.2600 C   0  0  0  0  0  0  0  0  0  0  0  0
   25.5127    5.7015   -3.6926 C   0  0  0  0  0  0  0  0  0  0  0  0
   24.7597    6.6846   -3.1833 C   0  0  0  0  0  0  0  0  0  0  0  0
   25.1481    8.1407   -3.2495 C   0  0  0  0  0  0  0  0  0  0  0  0
   26.6542    8.3210   -3.4967 C   0  0  0  0  0  0  0  0  0  0  0  0
   25.9054   10.0167   -7.2022 C   0  0  0  0  0  0  0  0  0  0  0  0
   25.7649   11.5547   -6.7888 C   0  0  0  0  0  0  0  0  0  0  0  0
   25.4839   12.6114   -7.8520 C   0  0  0  0  0  0  0  0  0  0  0  0
   26.4744   12.6512   -9.0078 C   0  0  0  0  0  0  0  0  0  0  0  0
   26.1962   11.6788  -10.1628 C   0  0  0  0  0  0  0  0  0  0  0  0
   26.1500   10.1549   -9.8787 C   0  0  0  0  0  0  0  0  0  0  0  0
   26.7360    9.6828   -8.5434 C   0  0  0  0  0  0  0  0  0  0  0  0
   28.4046   14.4115   -2.9748 C   0  0  0  0  0  0  0  0  0  0  0  0
   27.6170   15.5521   -2.8431 C   0  0  0  0  0  0  0  0  0  0  0  0
   28.0865   16.7983   -3.2117 C   0  0  0  0  0  0  0  0  0  0  0  0
   29.3704   16.9510   -3.7334 C   0  0  0  0  0  0  0  0  0  0  0  0
   30.1532   15.8062   -3.9059 C   0  0  0  0  0  0  0  0  0  0  0  0
   29.6757   14.5588   -3.5308 C   0  0  0  0  0  0  0  0  0  0  0  0
   31.0363   18.6749   -3.3200 N   0  0  0  0  0  0  0  0  0  0  0  0
   29.4718   19.0133   -4.8995 O   0  0  0  0  0  0  0  0  0  0  0  0
   29.9508   18.3065   -4.0135 C   0  0  0  0  0  0  0  0  0  0  0  0
   31.5946   17.9788   -2.9043 H   0  0  0  0  0  0  0  0  0  0  0  0
   31.4152   20.0639   -3.1619 C   0  0  0  0  0  0  0  0  0  0  0  0
   32.3453   20.5045   -5.3402 N   0  0  0  0  0  0  0  0  0  0  0  0
   33.5848   21.0365   -3.5397 O   0  0  0  0  0  0  0  0  0  0  0  0
   32.5477   20.5755   -4.0361 C   0  0  0  0  0  0  0  0  0  0  0  0
   33.0391   20.8192   -5.9638 H   0  0  0  0  0  0  0  0  0  0  0  0
   31.5008   20.1371   -5.6880 H   0  0  0  0  0  0  0  0  0  0  0  0
   28.8905   13.6451    0.9373 C   0  0  0  0  0  0  0  0  0  0  0  0
   28.0951   13.9016   -0.2242 O   0  0  0  0  0  0  0  0  0  0  0  0
 41 42  1  0  0  0
 31 33  1  0  0  0
 31 35  1  0  0  0
 42  1  1  0  0  0
  1  2  2  0  0  0
  1  6  1  0  0  0
 36 38  1  0  0  0
 32 33  2  0  0  0
  2  3  1  0  0  0
  7  8  1  0  0  0
  7 10  2  0  0  0
 37 38  2  0  0  0
  3  4  2  0  0  0
  8 18  1  0  0  0
  8 11  1  0  0  0
  9 11  2  0  0  0
  4  5  1  0  0  0
  4 10  1  0  0  0
  5  6  2  0  0  0
  6 25  1  0  0  0
 25 26  2  0  0  0
 25 30  1  0  0  0
 26 27  1  0  0  0
 27 28  2  0  0  0
 28 29  1  0  0  0
 28 33  1  0  0  0
 29 30  2  0  0  0
 35 38  1  0  0  0
 10 17  1  0  0  0
 18 19  1  0  0  0
 18 24  1  0  0  0
 19 20  1  0  0  0
 20 21  1  0  0  0
 21 22  1  0  0  0
 22 23  1  0  0  0
 23 24  1  0  0  0
 11 12  1  0  0  0
 12 13  1  0  0  0
 12 17  1  0  0  0
 13 14  1  0  0  0
 14 15  2  0  0  0
 15 16  1  0  0  0
 16 17  1  0  0  0
 31 34  1  0  0  0
 36 39  1  0  0  0
 36 40  1  0  0  0
M  END
> <minimizedAffinity>
-11.47627

$$$$
5G2B_LQY_A_1003


 42 46  0  0  0  0  0  0  0  0999 V2000
   27.6145   11.8424   -0.9464 C   0  0  0  0  0  0  0  0  0  0  0  0
   27.7858   13.0329   -0.2264 C   0  0  0  0  0  0  0  0  0  0  0  0
   27.7942   14.2504   -0.8964 C   0  0  0  0  0  0  0  0  0  0  0  0
   27.6566   14.2971   -2.2930 C   0  0  0  0  0  0  0  0  0  0  0  0
   27.4768   13.1048   -2.9946 C   0  0  0  0  0  0  0  0  0  0  0  0
   27.4532   11.8700   -2.3396 C   0  0  0  0  0  0  0  0  0  0  0  0
   26.6790   16.1112   -3.4236 N   0  0  0  0  0  0  0  0  0  0  0  0
   26.7402   17.2471   -4.2102 N   0  0  0  0  0  0  0  0  0  0  0  0
   27.8945   19.0909   -4.9835 O   0  0  0  0  0  0  0  0  0  0  0  0
   27.7840   15.5773   -3.0359 C   0  0  0  0  0  0  0  0  0  0  0  0
   27.8157   18.1100   -4.2659 C   0  0  0  0  0  0  0  0  0  0  0  0
   28.9853   17.7302   -3.3764 C   0  0  0  0  0  0  0  0  0  0  0  0
   30.3350   18.3942   -3.6654 C   0  0  0  0  0  0  0  0  0  0  0  0
   31.0301   17.7642   -4.8402 C   0  0  0  0  0  0  0  0  0  0  0  0
   30.7421   16.5397   -5.2991 C   0  0  0  0  0  0  0  0  0  0  0  0
   29.5936   15.7119   -4.7784 C   0  0  0  0  0  0  0  0  0  0  0  0
   29.1276   16.1865   -3.3929 C   0  0  0  0  0  0  0  0  0  0  0  0
   25.4705   17.3508   -4.9539 C   0  0  0  0  0  0  0  0  0  0  0  0
   24.6782   15.9660   -4.8515 C   0  0  0  0  0  0  0  0  0  0  0  0
   23.2244   15.8796   -5.3041 C   0  0  0  0  0  0  0  0  0  0  0  0
   22.2770   16.8718   -4.6433 C   0  0  0  0  0  0  0  0  0  0  0  0
   22.2042   18.2621   -5.2906 C   0  0  0  0  0  0  0  0  0  0  0  0
   23.4914   19.1210   -5.3928 C   0  0  0  0  0  0  0  0  0  0  0  0
   24.6804   18.6899   -4.5267 C   0  0  0  0  0  0  0  0  0  0  0  0
   27.1653   10.6578   -3.1581 C   0  0  0  0  0  0  0  0  0  0  0  0
   28.2045    9.8299   -3.5746 C   0  0  0  0  0  0  0  0  0  0  0  0
   27.9575    8.6263   -4.2069 C   0  0  0  0  0  0  0  0  0  0  0  0
   26.6515    8.2040   -4.4513 C   0  0  0  0  0  0  0  0  0  0  0  0
   25.6033    9.0470   -4.0722 C   0  0  0  0  0  0  0  0  0  0  0  0
   25.8593   10.2526   -3.4354 C   0  0  0  0  0  0  0  0  0  0  0  0
   27.0462    6.4508   -6.0909 N   0  0  0  0  0  0  0  0  0  0  0  0
   25.5505    6.1038   -4.4481 O   0  0  0  0  0  0  0  0  0  0  0  0
   26.3555    6.8437   -5.0123 C   0  0  0  0  0  0  0  0  0  0  0  0
   27.9056    6.8874   -6.2910 H   0  0  0  0  0  0  0  0  0  0  0  0
   26.5701    5.4046   -6.9723 C   0  0  0  0  0  0  0  0  0  0  0  0
   28.5400    4.1003   -6.5010 N   0  0  0  0  0  0  0  0  0  0  0  0
   26.6977    3.0108   -7.1938 O   0  0  0  0  0  0  0  0  0  0  0  0
   27.2810    4.0637   -6.9011 C   0  0  0  0  0  0  0  0  0  0  0  0
   29.0591    3.2666   -6.4324 H   0  0  0  0  0  0  0  0  0  0  0  0
   28.9588    4.9612   -6.2715 H   0  0  0  0  0  0  0  0  0  0  0  0
   26.5163   10.3578    0.5835 C   0  0  0  0  0  0  0  0  0  0  0  0
   27.5540   10.6011   -0.3711 O   0  0  0  0  0  0  0  0  0  0  0  0
 41 42  1  0  0  0
 31 33  1  0  0  0
 31 35  1  0  0  0
 42  1  1  0  0  0
  1  2  2  0  0  0
  1  6  1  0  0  0
 36 38  1  0  0  0
 32 33  2  0  0  0
  2  3  1  0  0  0
  7  8  1  0  0  0
  7 10  2  0  0  0
 37 38  2  0  0  0
  3  4  2  0  0  0
  8 18  1  0  0  0
  8 11  1  0  0  0
  9 11  2  0  0  0
  4  5  1  0  0  0
  4 10  1  0  0  0
  5  6  2  0  0  0
  6 25  1  0  0  0
 25 26  2  0  0  0
 25 30  1  0  0  0
 26 27  1  0  0  0
 27 28  2  0  0  0
 28 29  1  0  0  0
 28 33  1  0  0  0
 29 30  2  0  0  0
 35 38  1  0  0  0
 10 17  1  0  0  0
 18 19  1  0  0  0
 18 24  1  0  0  0
 19 20  1  0  0  0
 20 21  1  0  0  0
 21 22  1  0  0  0
 22 23  1  0  0  0
 23 24  1  0  0  0
 11 12  1  0  0  0
 12 13  1  0  0  0
 12 17  1  0  0  0
 13 14  1  0  0  0
 14 15  2  0  0  0
 15 16  1  0  0  0
 16 17  1  0  0  0
 31 34  1  0  0  0
 36 39  1  0  0  0
 36 40  1  0  0  0
M  END
> <minimizedAffinity>
-11.38775

$$$$
5G2B_LQY_A_1003


 42 46  0  0  0  0  0  0  0  0999 V2000
   27.5936   12.0658   -2.3212 C   0  0  0  0  0  0  0  0  0  0  0  0
   27.0551   10.7740   -2.3983 C   0  0  0  0  0  0  0  0  0  0  0  0
   26.4790   10.3352   -3.5844 C   0  0  0  0  0  0  0  0  0  0  0  0
   26.4097   11.1843   -4.7006 C   0  0  0  0  0  0  0  0  0  0  0  0
   26.9590   12.4635   -4.6118 C   0  0  0  0  0  0  0  0  0  0  0  0
   27.5540   12.9211   -3.4324 C   0  0  0  0  0  0  0  0  0  0  0  0
   26.0313    9.6356   -6.4280 N   0  0  0  0  0  0  0  0  0  0  0  0
   25.4732    9.2500   -7.6332 N   0  0  0  0  0  0  0  0  0  0  0  0
   23.8078    9.4328   -9.2215 O   0  0  0  0  0  0  0  0  0  0  0  0
   25.6913   10.7748   -5.9349 C   0  0  0  0  0  0  0  0  0  0  0  0
   24.2875    9.7373   -8.1443 C   0  0  0  0  0  0  0  0  0  0  0  0
   23.5933   10.7685   -7.2737 C   0  0  0  0  0  0  0  0  0  0  0  0
   22.5078   11.6277   -7.9289 C   0  0  0  0  0  0  0  0  0  0  0  0
   23.0941   12.7332   -8.7623 C   0  0  0  0  0  0  0  0  0  0  0  0
   24.3470   13.1826   -8.6171 C   0  0  0  0  0  0  0  0  0  0  0  0
   25.3545   12.5368   -7.6987 C   0  0  0  0  0  0  0  0  0  0  0  0
   24.6777   11.6680   -6.6267 C   0  0  0  0  0  0  0  0  0  0  0  0
   26.3664    8.2480   -8.2448 C   0  0  0  0  0  0  0  0  0  0  0  0
   27.8233    8.3666   -7.5971 C   0  0  0  0  0  0  0  0  0  0  0  0
   28.8666    7.2843   -7.8540 C   0  0  0  0  0  0  0  0  0  0  0  0
   28.4389    5.8688   -7.4909 C   0  0  0  0  0  0  0  0  0  0  0  0
   27.6524    5.1089   -8.5684 C   0  0  0  0  0  0  0  0  0  0  0  0
   26.3091    5.6905   -9.0807 C   0  0  0  0  0  0  0  0  0  0  0  0
   25.6668    6.7952   -8.2342 C   0  0  0  0  0  0  0  0  0  0  0  0
   28.1947   14.2669   -3.4574 C   0  0  0  0  0  0  0  0  0  0  0  0
   27.4626   15.3986   -3.1083 C   0  0  0  0  0  0  0  0  0  0  0  0
   28.0653   16.6356   -2.9813 C   0  0  0  0  0  0  0  0  0  0  0  0
   29.4330   16.7887   -3.2038 C   0  0  0  0  0  0  0  0  0  0  0  0
   30.1682   15.6657   -3.5931 C   0  0  0  0  0  0  0  0  0  0  0  0
   29.5564   14.4267   -3.7159 C   0  0  0  0  0  0  0  0  0  0  0  0
   30.0695   19.0343   -3.8893 N   0  0  0  0  0  0  0  0  0  0  0  0
   30.6846   18.2882   -1.8592 O   0  0  0  0  0  0  0  0  0  0  0  0
   30.1330   18.0901   -2.9410 C   0  0  0  0  0  0  0  0  0  0  0  0
   29.3453   18.9927   -4.5549 H   0  0  0  0  0  0  0  0  0  0  0  0
   31.0314   20.1144   -3.9675 C   0  0  0  0  0  0  0  0  0  0  0  0
   33.4268   20.3691   -4.0034 N   0  0  0  0  0  0  0  0  0  0  0  0
   32.4885   19.0249   -5.5440 O   0  0  0  0  0  0  0  0  0  0  0  0
   32.3853   19.7918   -4.5767 C   0  0  0  0  0  0  0  0  0  0  0  0
   34.3337   20.2028   -4.3486 H   0  0  0  0  0  0  0  0  0  0  0  0
   33.2958   20.9655   -3.2311 H   0  0  0  0  0  0  0  0  0  0  0  0
   27.5564   12.4183    0.0506 C   0  0  0  0  0  0  0  0  0  0  0  0
   28.2147   12.5719   -1.2105 O   0  0  0  0  0  0  0  0  0  0  0  0
 41 42  1  0  0  0
 31 33  1  0  0  0
 31 35  1  0  0  0
 42  1  1  0  0  0
  1  2  2  0  0  0
  1  6  1  0  0  0
 36 38  1  0  0  0
 32 33  2  0  0  0
  2  3  1  0  0  0
  7  8  1  0  0  0
  7 10  2  0  0  0
 37 38  2  0  0  0
  3  4  2  0  0  0
  8 18  1  0  0  0
  8 11  1  0  0  0
  9 11  2  0  0  0
  4  5  1  0  0  0
  4 10  1  0  0  0
  5  6  2  0  0  0
  6 25  1  0  0  0
 25 26  2  0  0  0
 25 30  1  0  0  0
 26 27  1  0  0  0
 27 28  2  0  0  0
 28 29  1  0  0  0
 28 33  1  0  0  0
 29 30  2  0  0  0
 35 38  1  0  0  0
 10 17  1  0  0  0
 18 19  1  0  0  0
 18 24  1  0  0  0
 19 20  1  0  0  0
 20 21  1  0  0  0
 21 22  1  0  0  0
 22 23  1  0  0  0
 23 24  1  0  0  0
 11 12  1  0  0  0
 12 13  1  0  0  0
 12 17  1  0  0  0
 13 14  1  0  0  0
 14 15  2  0  0  0
 15 16  1  0  0  0
 16 17  1  0  0  0
 31 34  1  0  0  0
 36 39  1  0  0  0
 36 40  1  0  0  0
M  END
> <minimizedAffinity>
-10.46250

$$$$
5G2B_LQY_A_1003


 42 46  0  0  0  0  0  0  0  0999 V2000
   28.1337   13.0074   -0.7914 C   0  0  0  0  0  0  0  0  0  0  0  0
   27.8980   11.6727   -0.4338 C   0  0  0  0  0  0  0  0  0  0  0  0
   27.5936   10.7377   -1.4159 C   0  0  0  0  0  0  0  0  0  0  0  0
   27.4961   11.1236   -2.7624 C   0  0  0  0  0  0  0  0  0  0  0  0
   27.7434   12.4533   -3.1040 C   0  0  0  0  0  0  0  0  0  0  0  0
   28.0629   13.4079   -2.1339 C   0  0  0  0  0  0  0  0  0  0  0  0
   26.8226   10.6692   -4.9681 N   0  0  0  0  0  0  0  0  0  0  0  0
   26.3076    9.8439   -5.9512 N   0  0  0  0  0  0  0  0  0  0  0  0
   25.9364    7.7308   -6.8038 O   0  0  0  0  0  0  0  0  0  0  0  0
   27.0542   10.1642   -3.8072 C   0  0  0  0  0  0  0  0  0  0  0  0
   26.4191    8.4684   -5.9635 C   0  0  0  0  0  0  0  0  0  0  0  0
   27.1725    7.8787   -4.7853 C   0  0  0  0  0  0  0  0  0  0  0  0
   27.0055    6.3793   -4.5215 C   0  0  0  0  0  0  0  0  0  0  0  0
   25.7030    6.0717   -3.8364 C   0  0  0  0  0  0  0  0  0  0  0  0
   24.9900    6.9827   -3.1621 C   0  0  0  0  0  0  0  0  0  0  0  0
   25.3414    8.4494   -3.1328 C   0  0  0  0  0  0  0  0  0  0  0  0
   26.8089    8.6945   -3.5180 C   0  0  0  0  0  0  0  0  0  0  0  0
   25.6374   10.6962   -6.9513 C   0  0  0  0  0  0  0  0  0  0  0  0
   26.4287   10.6137   -8.3381 C   0  0  0  0  0  0  0  0  0  0  0  0
   25.8092   11.1853   -9.6090 C   0  0  0  0  0  0  0  0  0  0  0  0
   24.4312   10.6425   -9.9624 C   0  0  0  0  0  0  0  0  0  0  0  0
   23.2422   11.3414   -9.2879 C   0  0  0  0  0  0  0  0  0  0  0  0
   23.1522   11.3633   -7.7398 C   0  0  0  0  0  0  0  0  0  0  0  0
   24.0555   10.3846   -6.9811 C   0  0  0  0  0  0  0  0  0  0  0  0
   28.3999   14.7830   -2.6006 C   0  0  0  0  0  0  0  0  0  0  0  0
   29.6758   15.0678   -3.0799 C   0  0  0  0  0  0  0  0  0  0  0  0
   29.9741   16.2893   -3.6530 C   0  0  0  0  0  0  0  0  0  0  0  0
   29.0004   17.2808   -3.7659 C   0  0  0  0  0  0  0  0  0  0  0  0
   27.7278   17.0178   -3.2517 C   0  0  0  0  0  0  0  0  0  0  0  0
   27.4354   15.7879   -2.6802 C   0  0  0  0  0  0  0  0  0  0  0  0
   28.2574   19.0840   -5.2199 N   0  0  0  0  0  0  0  0  0  0  0  0
   30.3468   19.1303   -4.3900 O   0  0  0  0  0  0  0  0  0  0  0  0
   29.2620   18.5612   -4.5040 C   0  0  0  0  0  0  0  0  0  0  0  0
   27.3331   18.8215   -5.0056 H   0  0  0  0  0  0  0  0  0  0  0  0
   28.4867   20.0229   -6.2987 C   0  0  0  0  0  0  0  0  0  0  0  0
   29.3332   22.0386   -5.2865 N   0  0  0  0  0  0  0  0  0  0  0  0
   27.3508   22.1450   -6.3446 O   0  0  0  0  0  0  0  0  0  0  0  0
   28.3407   21.4997   -5.9729 C   0  0  0  0  0  0  0  0  0  0  0  0
   29.3020   22.9917   -5.0419 H   0  0  0  0  0  0  0  0  0  0  0  0
   30.1037   21.4869   -5.0197 H   0  0  0  0  0  0  0  0  0  0  0  0
   29.0056   13.5871    1.3661 C   0  0  0  0  0  0  0  0  0  0  0  0
   28.4775   13.9897    0.0987 O   0  0  0  0  0  0  0  0  0  0  0  0
 41 42  1  0  0  0
 31 33  1  0  0  0
 31 35  1  0  0  0
 42  1  1  0  0  0
  1  2  2  0  0  0
  1  6  1  0  0  0
 36 38  1  0  0  0
 32 33  2  0  0  0
  2  3  1  0  0  0
  7  8  1  0  0  0
  7 10  2  0  0  0
 37 38  2  0  0  0
  3  4  2  0  0  0
  8 18  1  0  0  0
  8 11  1  0  0  0
  9 11  2  0  0  0
  4  5  1  0  0  0
  4 10  1  0  0  0
  5  6  2  0  0  0
  6 25  1  0  0  0
 25 26  2  0  0  0
 25 30  1  0  0  0
 26 27  1  0  0  0
 27 28  2  0  0  0
 28 29  1  0  0  0
 28 33  1  0  0  0
 29 30  2  0  0  0
 35 38  1  0  0  0
 10 17  1  0  0  0
 18 19  1  0  0  0
 18 24  1  0  0  0
 19 20  1  0  0  0
 20 21  1  0  0  0
 21 22  1  0  0  0
 22 23  1  0  0  0
 23 24  1  0  0  0
 11 12  1  0  0  0
 12 13  1  0  0  0
 12 17  1  0  0  0
 13 14  1  0  0  0
 14 15  2  0  0  0
 15 16  1  0  0  0
 16 17  1  0  0  0
 31 34  1  0  0  0
 36 39  1  0  0  0
 36 40  1  0  0  0
M  END
> <minimizedAffinity>
-10.39441

$$$$
5G2B_LQY_A_1003


 42 46  0  0  0  0  0  0  0  0999 V2000
   27.6864   11.6655   -1.3896 C   0  0  0  0  0  0  0  0  0  0  0  0
   27.7479   12.8054   -0.5762 C   0  0  0  0  0  0  0  0  0  0  0  0
   27.7341   14.0687   -1.1550 C   0  0  0  0  0  0  0  0  0  0  0  0
   27.6834   14.2135   -2.5507 C   0  0  0  0  0  0  0  0  0  0  0  0
   27.6122   13.0700   -3.3465 C   0  0  0  0  0  0  0  0  0  0  0  0
   27.6127   11.7898   -2.7850 C   0  0  0  0  0  0  0  0  0  0  0  0
   26.6764   16.0913   -3.5431 N   0  0  0  0  0  0  0  0  0  0  0  0
   26.7197   17.2866   -4.2374 N   0  0  0  0  0  0  0  0  0  0  0  0
   27.8411   19.2082   -4.8538 O   0  0  0  0  0  0  0  0  0  0  0  0
   27.7895   15.5505   -3.1895 C   0  0  0  0  0  0  0  0  0  0  0  0
   27.7776   18.1725   -4.2162 C   0  0  0  0  0  0  0  0  0  0  0  0
   28.9488   17.7470   -3.3497 C   0  0  0  0  0  0  0  0  0  0  0  0
   30.2865   18.4584   -3.5745 C   0  0  0  0  0  0  0  0  0  0  0  0
   31.0021   17.9368   -4.7895 C   0  0  0  0  0  0  0  0  0  0  0  0
   30.7423   16.7469   -5.3457 C   0  0  0  0  0  0  0  0  0  0  0  0
   29.6075   15.8580   -4.9011 C   0  0  0  0  0  0  0  0  0  0  0  0
   29.1228   16.2125   -3.4865 C   0  0  0  0  0  0  0  0  0  0  0  0
   25.4530   17.4234   -4.9810 C   0  0  0  0  0  0  0  0  0  0  0  0
   24.6464   16.0445   -4.9180 C   0  0  0  0  0  0  0  0  0  0  0  0
   23.1930   15.9853   -5.3762 C   0  0  0  0  0  0  0  0  0  0  0  0
   22.2540   16.9689   -4.6912 C   0  0  0  0  0  0  0  0  0  0  0  0
   22.1971   18.3768   -5.3008 C   0  0  0  0  0  0  0  0  0  0  0  0
   23.4933   19.2250   -5.3766 C   0  0  0  0  0  0  0  0  0  0  0  0
   24.6754   18.7585   -4.5197 C   0  0  0  0  0  0  0  0  0  0  0  0
   27.4423   10.6300   -3.7059 C   0  0  0  0  0  0  0  0  0  0  0  0
   26.4071   10.6201   -4.6370 C   0  0  0  0  0  0  0  0  0  0  0  0
   26.3114    9.6314   -5.5976 C   0  0  0  0  0  0  0  0  0  0  0  0
   27.2532    8.6053   -5.6611 C   0  0  0  0  0  0  0  0  0  0  0  0
   28.2732    8.5854   -4.7058 C   0  0  0  0  0  0  0  0  0  0  0  0
   28.3640    9.5832   -3.7462 C   0  0  0  0  0  0  0  0  0  0  0  0
   26.9660    8.0378   -8.0091 N   0  0  0  0  0  0  0  0  0  0  0  0
   27.5599    6.4299   -6.5536 O   0  0  0  0  0  0  0  0  0  0  0  0
   27.2483    7.5994   -6.7750 C   0  0  0  0  0  0  0  0  0  0  0  0
   27.0808    8.9942   -8.2125 H   0  0  0  0  0  0  0  0  0  0  0  0
   26.4975    7.1508   -9.0539 C   0  0  0  0  0  0  0  0  0  0  0  0
   24.3024    7.8485   -9.7603 N   0  0  0  0  0  0  0  0  0  0  0  0
   26.0068    8.1162  -11.2041 O   0  0  0  0  0  0  0  0  0  0  0  0
   25.5745    7.7460  -10.1038 C   0  0  0  0  0  0  0  0  0  0  0  0
   23.6502    8.2257  -10.3941 H   0  0  0  0  0  0  0  0  0  0  0  0
   24.0069    7.5477   -8.8707 H   0  0  0  0  0  0  0  0  0  0  0  0
   26.4861    9.9638   -0.2002 C   0  0  0  0  0  0  0  0  0  0  0  0
   27.6555   10.3830   -0.9103 O   0  0  0  0  0  0  0  0  0  0  0  0
 41 42  1  0  0  0
 31 33  1  0  0  0
 31 35  1  0  0  0
 42  1  1  0  0  0
  1  2  2  0  0  0
  1  6  1  0  0  0
 36 38  1  0  0  0
 32 33  2  0  0  0
  2  3  1  0  0  0
  7  8  1  0  0  0
  7 10  2  0  0  0
 37 38  2  0  0  0
  3  4  2  0  0  0
  8 18  1  0  0  0
  8 11  1  0  0  0
  9 11  2  0  0  0
  4  5  1  0  0  0
  4 10  1  0  0  0
  5  6  2  0  0  0
  6 25  1  0  0  0
 25 26  2  0  0  0
 25 30  1  0  0  0
 26 27  1  0  0  0
 27 28  2  0  0  0
 28 29  1  0  0  0
 28 33  1  0  0  0
 29 30  2  0  0  0
 35 38  1  0  0  0
 10 17  1  0  0  0
 18 19  1  0  0  0
 18 24  1  0  0  0
 19 20  1  0  0  0
 20 21  1  0  0  0
 21 22  1  0  0  0
 22 23  1  0  0  0
 23 24  1  0  0  0
 11 12  1  0  0  0
 12 13  1  0  0  0
 12 17  1  0  0  0
 13 14  1  0  0  0
 14 15  2  0  0  0
 15 16  1  0  0  0
 16 17  1  0  0  0
 31 34  1  0  0  0
 36 39  1  0  0  0
 36 40  1  0  0  0
M  END
> <minimizedAffinity>
-10.30529

$$$$
5G2B_LQY_A_1003


 42 46  0  0  0  0  0  0  0  0999 V2000
   27.8454   12.8231   -1.2379 C   0  0  0  0  0  0  0  0  0  0  0  0
   27.4423   11.4905   -1.0752 C   0  0  0  0  0  0  0  0  0  0  0  0
   27.0270   10.7546   -2.1785 C   0  0  0  0  0  0  0  0  0  0  0  0
   26.9844   11.3423   -3.4530 C   0  0  0  0  0  0  0  0  0  0  0  0
   27.3983   12.6663   -3.6008 C   0  0  0  0  0  0  0  0  0  0  0  0
   27.8311   13.4213   -2.5067 C   0  0  0  0  0  0  0  0  0  0  0  0
   26.8963    9.4243   -4.8089 N   0  0  0  0  0  0  0  0  0  0  0  0
   26.4962    8.7349   -5.9391 N   0  0  0  0  0  0  0  0  0  0  0  0
   24.9996    8.4140   -7.6674 O   0  0  0  0  0  0  0  0  0  0  0  0
   26.4299   10.6089   -4.6199 C   0  0  0  0  0  0  0  0  0  0  0  0
   25.3411    8.9896   -6.6499 C   0  0  0  0  0  0  0  0  0  0  0  0
   24.4905   10.1204   -6.1012 C   0  0  0  0  0  0  0  0  0  0  0  0
   23.4248   10.7138   -7.0275 C   0  0  0  0  0  0  0  0  0  0  0  0
   24.0199   11.6570   -8.0358 C   0  0  0  0  0  0  0  0  0  0  0  0
   25.2172   12.2378   -7.8871 C   0  0  0  0  0  0  0  0  0  0  0  0
   26.1632   11.9027   -6.7609 C   0  0  0  0  0  0  0  0  0  0  0  0
   25.4371   11.2337   -5.5831 C   0  0  0  0  0  0  0  0  0  0  0  0
   27.5148    7.7071   -6.2257 C   0  0  0  0  0  0  0  0  0  0  0  0
   26.8772    6.2546   -6.0261 C   0  0  0  0  0  0  0  0  0  0  0  0
   27.6262    5.0162   -6.5069 C   0  0  0  0  0  0  0  0  0  0  0  0
   28.0198    5.0240   -7.9778 C   0  0  0  0  0  0  0  0  0  0  0  0
   29.3415    5.7290   -8.3144 C   0  0  0  0  0  0  0  0  0  0  0  0
   29.5121    7.2303   -7.9653 C   0  0  0  0  0  0  0  0  0  0  0  0
   28.2359    8.0125   -7.6352 C   0  0  0  0  0  0  0  0  0  0  0  0
   28.3402   14.7969   -2.7730 C   0  0  0  0  0  0  0  0  0  0  0  0
   29.6728   14.9956   -3.1242 C   0  0  0  0  0  0  0  0  0  0  0  0
   30.1368   16.2363   -3.5177 C   0  0  0  0  0  0  0  0  0  0  0  0
   29.2792   17.3342   -3.5717 C   0  0  0  0  0  0  0  0  0  0  0  0
   27.9491   17.1525   -3.1829 C   0  0  0  0  0  0  0  0  0  0  0  0
   27.4902   15.9032   -2.7916 C   0  0  0  0  0  0  0  0  0  0  0  0
   28.8528   19.3481   -4.8678 N   0  0  0  0  0  0  0  0  0  0  0  0
   30.8361   19.1030   -3.8368 O   0  0  0  0  0  0  0  0  0  0  0  0
   29.7261   18.6564   -4.1236 C   0  0  0  0  0  0  0  0  0  0  0  0
   27.8919   19.1536   -4.7782 H   0  0  0  0  0  0  0  0  0  0  0  0
   29.2761   20.3726   -5.8001 C   0  0  0  0  0  0  0  0  0  0  0  0
   30.2072   22.1125   -4.4181 N   0  0  0  0  0  0  0  0  0  0  0  0
   28.4406   22.6287   -5.7117 O   0  0  0  0  0  0  0  0  0  0  0  0
   29.2713   21.8073   -5.2998 C   0  0  0  0  0  0  0  0  0  0  0  0
   30.2607   23.0253   -4.0530 H   0  0  0  0  0  0  0  0  0  0  0  0
   30.8510   21.4272   -4.1263 H   0  0  0  0  0  0  0  0  0  0  0  0
   28.6485   12.9789    1.0164 C   0  0  0  0  0  0  0  0  0  0  0  0
   28.3061   13.6140   -0.2192 O   0  0  0  0  0  0  0  0  0  0  0  0
 41 42  1  0  0  0
 31 33  1  0  0  0
 31 35  1  0  0  0
 42  1  1  0  0  0
  1  2  2  0  0  0
  1  6  1  0  0  0
 36 38  1  0  0  0
 32 33  2  0  0  0
  2  3  1  0  0  0
  7  8  1  0  0  0
  7 10  2  0  0  0
 37 38  2  0  0  0
  3  4  2  0  0  0
  8 18  1  0  0  0
  8 11  1  0  0  0
  9 11  2  0  0  0
  4  5  1  0  0  0
  4 10  1  0  0  0
  5  6  2  0  0  0
  6 25  1  0  0  0
 25 26  2  0  0  0
 25 30  1  0  0  0
 26 27  1  0  0  0
 27 28  2  0  0  0
 28 29  1  0  0  0
 28 33  1  0  0  0
 29 30  2  0  0  0
 35 38  1  0  0  0
 10 17  1  0  0  0
 18 19  1  0  0  0
 18 24  1  0  0  0
 19 20  1  0  0  0
 20 21  1  0  0  0
 21 22  1  0  0  0
 22 23  1  0  0  0
 23 24  1  0  0  0
 11 12  1  0  0  0
 12 13  1  0  0  0
 12 17  1  0  0  0
 13 14  1  0  0  0
 14 15  2  0  0  0
 15 16  1  0  0  0
 16 17  1  0  0  0
 31 34  1  0  0  0
 36 39  1  0  0  0
 36 40  1  0  0  0
M  END
> <minimizedAffinity>
-10.28103

$$$$
5G2B_LQY_A_1003


 42 46  0  0  0  0  0  0  0  0999 V2000
   24.4438   13.4139   -7.0094 C   0  0  0  0  0  0  0  0  0  0  0  0
   24.3528   14.5706   -6.2230 C   0  0  0  0  0  0  0  0  0  0  0  0
   25.2451   14.7660   -5.1756 C   0  0  0  0  0  0  0  0  0  0  0  0
   26.2232   13.8021   -4.8826 C   0  0  0  0  0  0  0  0  0  0  0  0
   26.3078   12.6610   -5.6805 C   0  0  0  0  0  0  0  0  0  0  0  0
   25.4283   12.4498   -6.7464 C   0  0  0  0  0  0  0  0  0  0  0  0
   27.8712   14.9718   -3.6822 N   0  0  0  0  0  0  0  0  0  0  0  0
   28.7886   15.0957   -2.6548 N   0  0  0  0  0  0  0  0  0  0  0  0
   29.5061   14.5470   -0.5301 O   0  0  0  0  0  0  0  0  0  0  0  0
   27.1050   13.9378   -3.6947 C   0  0  0  0  0  0  0  0  0  0  0  0
   28.6849   14.4749   -1.4266 C   0  0  0  0  0  0  0  0  0  0  0  0
   27.4523   13.6066   -1.2526 C   0  0  0  0  0  0  0  0  0  0  0  0
   27.4587   12.5969   -0.1009 C   0  0  0  0  0  0  0  0  0  0  0  0
   28.2678   11.3737   -0.4315 C   0  0  0  0  0  0  0  0  0  0  0  0
   28.5761   11.0079   -1.6821 C   0  0  0  0  0  0  0  0  0  0  0  0
   28.2668   11.8563   -2.8904 C   0  0  0  0  0  0  0  0  0  0  0  0
   27.1681   12.8904   -2.5979 C   0  0  0  0  0  0  0  0  0  0  0  0
   29.8649   15.9930   -3.1156 C   0  0  0  0  0  0  0  0  0  0  0  0
   30.4346   15.4676   -4.5140 C   0  0  0  0  0  0  0  0  0  0  0  0
   31.3671   16.3469   -5.3405 C   0  0  0  0  0  0  0  0  0  0  0  0
   30.8257   17.7283   -5.6826 C   0  0  0  0  0  0  0  0  0  0  0  0
   31.0417   18.8151   -4.6200 C   0  0  0  0  0  0  0  0  0  0  0  0
   30.4477   18.6190   -3.2009 C   0  0  0  0  0  0  0  0  0  0  0  0
   29.3812   17.5295   -3.0427 C   0  0  0  0  0  0  0  0  0  0  0  0
   25.6507   11.2478   -7.5996 C   0  0  0  0  0  0  0  0  0  0  0  0
   25.0839   10.0250   -7.2499 C   0  0  0  0  0  0  0  0  0  0  0  0
   25.1504    8.9326   -8.0935 C   0  0  0  0  0  0  0  0  0  0  0  0
   25.7945    9.0220   -9.3267 C   0  0  0  0  0  0  0  0  0  0  0  0
   26.4005   10.2341   -9.6685 C   0  0  0  0  0  0  0  0  0  0  0  0
   26.3270   11.3272   -8.8174 C   0  0  0  0  0  0  0  0  0  0  0  0
   25.4593    6.6717   -9.8571 N   0  0  0  0  0  0  0  0  0  0  0  0
   25.9472    8.1139  -11.5119 O   0  0  0  0  0  0  0  0  0  0  0  0
   25.7629    7.8934  -10.3156 C   0  0  0  0  0  0  0  0  0  0  0  0
   24.9745    6.5901   -9.0041 H   0  0  0  0  0  0  0  0  0  0  0  0
   25.8210    5.4669  -10.5752 C   0  0  0  0  0  0  0  0  0  0  0  0
   27.7526    5.0207   -9.2062 N   0  0  0  0  0  0  0  0  0  0  0  0
   26.5261    3.2666   -9.8988 O   0  0  0  0  0  0  0  0  0  0  0  0
   26.7379    4.4866   -9.8632 C   0  0  0  0  0  0  0  0  0  0  0  0
   28.3854    4.4418   -8.7228 H   0  0  0  0  0  0  0  0  0  0  0  0
   27.8758    5.9975   -9.2002 H   0  0  0  0  0  0  0  0  0  0  0  0
   23.6730   14.0664   -9.1846 C   0  0  0  0  0  0  0  0  0  0  0  0
   23.6361   13.1527   -8.0841 O   0  0  0  0  0  0  0  0  0  0  0  0
 41 42  1  0  0  0
 31 33  1  0  0  0
 31 35  1  0  0  0
 42  1  1  0  0  0
  1  2  2  0  0  0
  1  6  1  0  0  0
 36 38  1  0  0  0
 32 33  2  0  0  0
  2  3  1  0  0  0
  7  8  1  0  0  0
  7 10  2  0  0  0
 37 38  2  0  0  0
  3  4  2  0  0  0
  8 18  1  0  0  0
  8 11  1  0  0  0
  9 11  2  0  0  0
  4  5  1  0  0  0
  4 10  1  0  0  0
  5  6  2  0  0  0
  6 25  1  0  0  0
 25 26  2  0  0  0
 25 30  1  0  0  0
 26 27  1  0  0  0
 27 28  2  0  0  0
 28 29  1  0  0  0
 28 33  1  0  0  0
 29 30  2  0  0  0
 35 38  1  0  0  0
 10 17  1  0  0  0
 18 19  1  0  0  0
 18 24  1  0  0  0
 19 20  1  0  0  0
 20 21  1  0  0  0
 21 22  1  0  0  0
 22 23  1  0  0  0
 23 24  1  0  0  0
 11 12  1  0  0  0
 12 13  1  0  0  0
 12 17  1  0  0  0
 13 14  1  0  0  0
 14 15  2  0  0  0
 15 16  1  0  0  0
 16 17  1  0  0  0
 31 34  1  0  0  0
 36 39  1  0  0  0
 36 40  1  0  0  0
M  END
> <minimizedAffinity>
-10.27285

$$$$
5G2B_LQY_A_1003


 42 46  0  0  0  0  0  0  0  0999 V2000
   23.7267   12.3275   -6.7157 C   0  0  0  0  0  0  0  0  0  0  0  0
   23.6619   13.6399   -6.2276 C   0  0  0  0  0  0  0  0  0  0  0  0
   24.7627   14.1930   -5.5845 C   0  0  0  0  0  0  0  0  0  0  0  0
   25.9327   13.4396   -5.3976 C   0  0  0  0  0  0  0  0  0  0  0  0
   25.9857   12.1384   -5.8979 C   0  0  0  0  0  0  0  0  0  0  0  0
   24.8945   11.5663   -6.5585 C   0  0  0  0  0  0  0  0  0  0  0  0
   27.5739   13.1686   -3.7368 N   0  0  0  0  0  0  0  0  0  0  0  0
   28.5666   13.6449   -2.9000 N   0  0  0  0  0  0  0  0  0  0  0  0
   30.2238   15.1807   -2.4260 O   0  0  0  0  0  0  0  0  0  0  0  0
   27.0727   13.9725   -4.6080 C   0  0  0  0  0  0  0  0  0  0  0  0
   29.3736   14.7306   -3.1728 C   0  0  0  0  0  0  0  0  0  0  0  0
   29.1026   15.4087   -4.5032 C   0  0  0  0  0  0  0  0  0  0  0  0
   29.6668   16.8185   -4.7033 C   0  0  0  0  0  0  0  0  0  0  0  0
   28.8344   17.8599   -4.0084 C   0  0  0  0  0  0  0  0  0  0  0  0
   27.5624   17.6631   -3.6392 C   0  0  0  0  0  0  0  0  0  0  0  0
   26.8670   16.3293   -3.7522 C   0  0  0  0  0  0  0  0  0  0  0  0
   27.5722   15.3986   -4.7514 C   0  0  0  0  0  0  0  0  0  0  0  0
   28.5919   12.7911   -1.6973 C   0  0  0  0  0  0  0  0  0  0  0  0
   28.2588   13.6762   -0.4082 C   0  0  0  0  0  0  0  0  0  0  0  0
   27.9610   13.0031    0.9274 C   0  0  0  0  0  0  0  0  0  0  0  0
   26.8305   11.9833    0.9045 C   0  0  0  0  0  0  0  0  0  0  0  0
   27.2205   10.5596    0.4826 C   0  0  0  0  0  0  0  0  0  0  0  0
   27.8442   10.3261   -0.9180 C   0  0  0  0  0  0  0  0  0  0  0  0
   27.7060   11.4649   -1.9346 C   0  0  0  0  0  0  0  0  0  0  0  0
   25.0728   10.2048   -7.1387 C   0  0  0  0  0  0  0  0  0  0  0  0
   24.8742    9.9913   -8.5002 C   0  0  0  0  0  0  0  0  0  0  0  0
   25.1724    8.7778   -9.0902 C   0  0  0  0  0  0  0  0  0  0  0  0
   25.6813    7.7230   -8.3337 C   0  0  0  0  0  0  0  0  0  0  0  0
   25.8466    7.9159   -6.9594 C   0  0  0  0  0  0  0  0  0  0  0  0
   25.5474    9.1379   -6.3750 C   0  0  0  0  0  0  0  0  0  0  0  0
   26.5132    5.4433   -8.1649 N   0  0  0  0  0  0  0  0  0  0  0  0
   26.1017    6.3164  -10.1959 O   0  0  0  0  0  0  0  0  0  0  0  0
   26.1389    6.4444   -8.9728 C   0  0  0  0  0  0  0  0  0  0  0  0
   26.1961    5.4397   -7.2328 H   0  0  0  0  0  0  0  0  0  0  0  0
   27.3690    4.3661   -8.6178 C   0  0  0  0  0  0  0  0  0  0  0  0
   28.4491    3.9040   -6.5144 N   0  0  0  0  0  0  0  0  0  0  0  0
   27.6753    2.1594   -7.7054 O   0  0  0  0  0  0  0  0  0  0  0  0
   27.8506    3.3780   -7.5689 C   0  0  0  0  0  0  0  0  0  0  0  0
   28.7855    3.3197   -5.7969 H   0  0  0  0  0  0  0  0  0  0  0  0
   28.5587    4.8800   -6.4465 H   0  0  0  0  0  0  0  0  0  0  0  0
   21.3749   11.9034   -6.9163 C   0  0  0  0  0  0  0  0  0  0  0  0
   22.7095   11.7117   -7.3952 O   0  0  0  0  0  0  0  0  0  0  0  0
 41 42  1  0  0  0
 31 33  1  0  0  0
 31 35  1  0  0  0
 42  1  1  0  0  0
  1  2  2  0  0  0
  1  6  1  0  0  0
 36 38  1  0  0  0
 32 33  2  0  0  0
  2  3  1  0  0  0
  7  8  1  0  0  0
  7 10  2  0  0  0
 37 38  2  0  0  0
  3  4  2  0  0  0
  8 18  1  0  0  0
  8 11  1  0  0  0
  9 11  2  0  0  0
  4  5  1  0  0  0
  4 10  1  0  0  0
  5  6  2  0  0  0
  6 25  1  0  0  0
 25 26  2  0  0  0
 25 30  1  0  0  0
 26 27  1  0  0  0
 27 28  2  0  0  0
 28 29  1  0  0  0
 28 33  1  0  0  0
 29 30  2  0  0  0
 35 38  1  0  0  0
 10 17  1  0  0  0
 18 19  1  0  0  0
 18 24  1  0  0  0
 19 20  1  0  0  0
 20 21  1  0  0  0
 21 22  1  0  0  0
 22 23  1  0  0  0
 23 24  1  0  0  0
 11 12  1  0  0  0
 12 13  1  0  0  0
 12 17  1  0  0  0
 13 14  1  0  0  0
 14 15  2  0  0  0
 15 16  1  0  0  0
 16 17  1  0  0  0
 31 34  1  0  0  0
 36 39  1  0  0  0
 36 40  1  0  0  0
M  END
> <minimizedAffinity>
-10.23604

$$$$
5G2B_LQY_A_1003


 42 46  0  0  0  0  0  0  0  0999 V2000
   27.0382   10.6767   -2.3121 C   0  0  0  0  0  0  0  0  0  0  0  0
   26.7636    9.3066   -2.2014 C   0  0  0  0  0  0  0  0  0  0  0  0
   26.7885    8.5031   -3.3351 C   0  0  0  0  0  0  0  0  0  0  0  0
   27.0629    9.0568   -4.5959 C   0  0  0  0  0  0  0  0  0  0  0  0
   27.3443   10.4200   -4.6887 C   0  0  0  0  0  0  0  0  0  0  0  0
   27.3365   11.2444   -3.5597 C   0  0  0  0  0  0  0  0  0  0  0  0
   26.5889    8.8594   -6.8897 N   0  0  0  0  0  0  0  0  0  0  0  0
   26.3865    8.1261   -8.0447 N   0  0  0  0  0  0  0  0  0  0  0  0
   26.7555    6.2274   -9.3050 O   0  0  0  0  0  0  0  0  0  0  0  0
   26.9750    8.2367   -5.8315 C   0  0  0  0  0  0  0  0  0  0  0  0
   26.9576    6.8978   -8.3086 C   0  0  0  0  0  0  0  0  0  0  0  0
   27.8633    6.3666   -7.2127 C   0  0  0  0  0  0  0  0  0  0  0  0
   28.2137    4.8760   -7.2492 C   0  0  0  0  0  0  0  0  0  0  0  0
   27.0908    4.0227   -6.7282 C   0  0  0  0  0  0  0  0  0  0  0  0
   26.1096    4.4901   -5.9462 C   0  0  0  0  0  0  0  0  0  0  0  0
   25.9430    5.9525   -5.6158 C   0  0  0  0  0  0  0  0  0  0  0  0
   27.2415    6.7425   -5.8431 C   0  0  0  0  0  0  0  0  0  0  0  0
   25.4696    8.8911   -8.9108 C   0  0  0  0  0  0  0  0  0  0  0  0
   26.3120    9.9065   -9.8137 C   0  0  0  0  0  0  0  0  0  0  0  0
   25.6457   10.6288  -10.9799 C   0  0  0  0  0  0  0  0  0  0  0  0
   24.9739    9.7265  -12.0061 C   0  0  0  0  0  0  0  0  0  0  0  0
   23.5338    9.3023  -11.6849 C   0  0  0  0  0  0  0  0  0  0  0  0
   23.2467    8.5144  -10.3804 C   0  0  0  0  0  0  0  0  0  0  0  0
   24.4537    7.8938   -9.6681 C   0  0  0  0  0  0  0  0  0  0  0  0
   27.7375   12.6688   -3.7401 C   0  0  0  0  0  0  0  0  0  0  0  0
   26.7964   13.6183   -4.1295 C   0  0  0  0  0  0  0  0  0  0  0  0
   27.1034   14.9652   -4.1631 C   0  0  0  0  0  0  0  0  0  0  0  0
   28.3742   15.4161   -3.8090 C   0  0  0  0  0  0  0  0  0  0  0  0
   29.3366   14.4665   -3.4549 C   0  0  0  0  0  0  0  0  0  0  0  0
   29.0199   13.1163   -3.4210 C   0  0  0  0  0  0  0  0  0  0  0  0
   29.1203   17.5026   -4.8128 N   0  0  0  0  0  0  0  0  0  0  0  0
   28.4932   17.4833   -2.6534 O   0  0  0  0  0  0  0  0  0  0  0  0
   28.6907   16.8797   -3.7071 C   0  0  0  0  0  0  0  0  0  0  0  0
   28.9241   17.1032   -5.6910 H   0  0  0  0  0  0  0  0  0  0  0  0
   29.8638   18.7444   -4.7584 C   0  0  0  0  0  0  0  0  0  0  0  0
   31.9222   19.4026   -3.6935 N   0  0  0  0  0  0  0  0  0  0  0  0
   32.0321   17.8771   -5.3432 O   0  0  0  0  0  0  0  0  0  0  0  0
   31.3737   18.6409   -4.6239 C   0  0  0  0  0  0  0  0  0  0  0  0
   32.8965   19.3840   -3.5535 H   0  0  0  0  0  0  0  0  0  0  0  0
   31.3565   19.9885   -3.1404 H   0  0  0  0  0  0  0  0  0  0  0  0
   28.0263   11.2794   -0.2117 C   0  0  0  0  0  0  0  0  0  0  0  0
   27.0752   11.5389   -1.2488 O   0  0  0  0  0  0  0  0  0  0  0  0
 41 42  1  0  0  0
 31 33  1  0  0  0
 31 35  1  0  0  0
 42  1  1  0  0  0
  1  2  2  0  0  0
  1  6  1  0  0  0
 36 38  1  0  0  0
 32 33  2  0  0  0
  2  3  1  0  0  0
  7  8  1  0  0  0
  7 10  2  0  0  0
 37 38  2  0  0  0
  3  4  2  0  0  0
  8 18  1  0  0  0
  8 11  1  0  0  0
  9 11  2  0  0  0
  4  5  1  0  0  0
  4 10  1  0  0  0
  5  6  2  0  0  0
  6 25  1  0  0  0
 25 26  2  0  0  0
 25 30  1  0  0  0
 26 27  1  0  0  0
 27 28  2  0  0  0
 28 29  1  0  0  0
 28 33  1  0  0  0
 29 30  2  0  0  0
 35 38  1  0  0  0
 10 17  1  0  0  0
 18 19  1  0  0  0
 18 24  1  0  0  0
 19 20  1  0  0  0
 20 21  1  0  0  0
 21 22  1  0  0  0
 22 23  1  0  0  0
 23 24  1  0  0  0
 11 12  1  0  0  0
 12 13  1  0  0  0
 12 17  1  0  0  0
 13 14  1  0  0  0
 14 15  2  0  0  0
 15 16  1  0  0  0
 16 17  1  0  0  0
 31 34  1  0  0  0
 36 39  1  0  0  0
 36 40  1  0  0  0
M  END
> <minimizedAffinity>
-9.91367

$$$$
