5O1H_9GN_A_402
  RCSB PDB05121802173D
Coordinates from PDB:5O1H:A:402 Model:1 without hydrogens
 20 21  0  0  0  0            999 V2000
   91.7330   91.0640  -42.3150   C 0  0  0  0  0  0  0  0  0  0  0  0
   93.7420   92.0190  -42.5500   C 0  0  0  0  0  0  0  0  0  0  0  0
   90.9700   95.6320  -44.7540   C 0  0  0  0  0  0  0  0  0  0  0  0
   91.1080   94.4220  -45.4740   C 0  0  0  0  0  0  0  0  0  0  0  0
   91.5660   93.2430  -44.8530   C 0  0  0  0  0  0  0  0  0  0  0  0
   91.8840   93.2780  -43.5010   C 0  0  0  0  0  0  0  0  0  0  0  0
   91.7600   94.4680  -42.7800   C 0  0  0  0  0  0  0  0  0  0  0  0
   91.3050   95.6400  -43.3910   C 0  0  0  0  0  0  0  0  0  0  0  0
   92.2160   94.5330  -40.7230   I 0  0  0  0  0  0  0  0  0  0  0  0
   91.7320   91.6910  -45.7100   S 0  0  0  0  0  0  0  0  0  0  0  0
   90.8380   91.9440  -47.2740   C 0  0  0  0  0  0  0  0  0  0  0  0
   90.6470   90.5990  -47.9720   C 0  0  0  0  0  0  0  0  0  0  0  0
   92.3910   92.1500  -42.8320   N 0  0  0  0  0  0  0  0  0  0  0  0
   91.1890   96.7890  -42.6510   O 0  0  0  0  0  0  0  0  0  0  0  0
   90.4790   96.8620  -45.4660   C 0  0  0  0  0  0  0  0  0  0  0  0
   90.2350   96.7750  -46.7140   O 0  0  0  0  0  0  0  0  0  0  0  0
   90.3630   97.9030  -44.7550   O 0  0  0  0  0  0  0  0  0  0  0  0
   92.6630   90.2480  -41.7080   C 0  0  0  0  0  0  0  0  0  0  0  0
   93.9330   90.8440  -41.8580   C 0  0  0  0  0  0  0  0  0  0  0  0
   91.9750   89.9530  -48.3290   C 0  0  0  0  0  0  0  0  0  0  0  0
 20 12  1  0  0  0  0
 12 11  1  0  0  0  0
 11 10  1  0  0  0  0
 16 15  2  0  0  0  0
 10  5  1  0  0  0  0
  4  5  2  0  0  0  0
  4  3  1  0  0  0  0
 15 17  1  0  0  0  0
 15  3  1  0  0  0  0
  5  6  1  0  0  0  0
  3  8  2  0  0  0  0
  6 13  1  0  0  0  0
  6  7  2  0  0  0  0
  8  7  1  0  0  0  0
  8 14  1  0  0  0  0
 13  2  1  0  0  0  0
 13  1  1  0  0  0  0
  7  9  1  0  0  0  0
  2 19  2  0  0  0  0
  1 18  2  0  0  0  0
 19 18  1  0  0  0  0
A    1
C10
A    2
C13
A    3
C01
A    4
C02
A    5
C03
A    6
C04
A    7
C05
A    8
C06
A    9
I01
A   10
S01
A   11
C07
A   12
C08
A   13
N01
A   14
O01
A   15
C09
A   16
O02
A   17
O03
A   18
C11
A   19
C12
A   20
C14
M  END
>  <InstanceId>
5O1H_9GN_A_402

>  <ChemCompId>
9GN

>  <PdbId>
5O1H

>  <ChainId>
A

>  <ResidueNumber>
402

>  <InsertionCode>


>  <Model>
1

>  <AltIds>


>  <MissingHeavyAtoms>
0

>  <ObservedFormula>
C14 N O3 S I

>  <Name>
3-iodanyl-2-oxidanyl-5-propylsulfanyl-4-pyrrol-1-yl-benzoic acid

>  <SystematicName>
3-iodanyl-2-oxidanyl-5-propylsulfanyl-4-pyrrol-1-yl-benzoic acid

>  <Synonyms>


>  <Type>
NON-POLYMER

>  <Formula>
C14 H14 I N O3 S

>  <MolecularWeight>
403.235

>  <ModifiedDate>
2018-05-04

>  <Parent>


>  <OneLetterCode>


>  <SubcomponentList>


>  <AmbiguousFlag>
N

>  <InChI>
InChI=1S/C14H14INO3S/c1-2-7-20-10-8-9(14(18)19)13(17)11(15)12(10)16-5-3-4-6-16/h3-6,8,17H,2,7H2,1H3,(H,18,19)

>  <InChIKey>
IUCGBTPKFYQLQH-UHFFFAOYSA-N

>  <SMILES>
CCCSc1cc(c(c(c1n2cccc2)I)O)C(=O)O

$$$$
