5O1H_9GN_A_402


 22 23  0  0  0  0  0  0  0  0999 V2000
   90.6556   95.5792  -45.3063 C   0  0  0  0  0  0  0  0  0  0  0  0
   90.8312   94.3244  -45.9359 C   0  0  0  0  0  0  0  0  0  0  0  0
   91.4216   93.2375  -45.2611 C   0  0  0  0  0  0  0  0  0  0  0  0
   91.8350   93.4101  -43.9459 C   0  0  0  0  0  0  0  0  0  0  0  0
   91.6750   94.6460  -43.3149 C   0  0  0  0  0  0  0  0  0  0  0  0
   91.0887   95.7270  -43.9795 C   0  0  0  0  0  0  0  0  0  0  0  0
   92.2754   94.9184  -41.3127 I   0  0  0  0  0  0  0  0  0  0  0  0
   90.9411   96.9244  -43.3269 O   0  0  0  0  0  0  0  0  0  0  0  0
   90.5489   97.6526  -43.7672 H   0  0  0  0  0  0  0  0  0  0  0  0
   91.9373   91.3396  -42.5199 C   0  0  0  0  0  0  0  0  0  0  0  0
   93.8543   92.3266  -43.1150 C   0  0  0  0  0  0  0  0  0  0  0  0
   92.4739   92.3814  -43.2314 N   0  0  0  0  0  0  0  0  0  0  0  0
   92.9731   90.6274  -41.9549 C   0  0  0  0  0  0  0  0  0  0  0  0
   94.1851   91.2436  -42.3317 C   0  0  0  0  0  0  0  0  0  0  0  0
   90.0217   96.7067  -46.0730 C   0  0  0  0  0  0  0  0  0  0  0  0
   88.9356   96.4712  -46.6971 O   0  0  0  0  0  0  0  0  0  0  0  0
   90.6411   97.8105  -46.0459 O   0  0  0  0  0  0  0  0  0  0  0  0
   91.4365   97.8894  -45.5571 H   0  0  0  0  0  0  0  0  0  0  0  0
   91.6408   91.6330  -46.0016 S   0  0  0  0  0  0  0  0  0  0  0  0
   91.4569   91.9335  -47.7863 C   0  0  0  0  0  0  0  0  0  0  0  0
   90.0673   91.4860  -48.2352 C   0  0  0  0  0  0  0  0  0  0  0  0
   89.2913   92.6179  -48.8869 C   0  0  0  0  0  0  0  0  0  0  0  0
 22 21  1  0  0  0
 21 20  1  0  0  0
 20 19  1  0  0  0
 16 15  2  0  0  0
 19  3  1  0  0  0
  2  3  2  0  0  0
  2  1  1  0  0  0
 15 17  1  0  0  0
 15  1  1  0  0  0
  3  4  1  0  0  0
  1  6  2  0  0  0
  4 12  1  0  0  0
  4  5  2  0  0  0
  6  5  1  0  0  0
  6  8  1  0  0  0
 12 11  1  0  0  0
 12 10  1  0  0  0
  5  7  1  0  0  0
 11 14  2  0  0  0
 10 13  2  0  0  0
 14 13  1  0  0  0
  8  9  1  0  0  0
 17 18  1  0  0  0
M  END
> <minimizedAffinity>
-6.32035

$$$$
5O1H_9GN_A_402


 22 23  0  0  0  0  0  0  0  0999 V2000
   90.6114   95.5368  -45.2688 C   0  0  0  0  0  0  0  0  0  0  0  0
   91.1213   95.7233  -43.9623 C   0  0  0  0  0  0  0  0  0  0  0  0
   91.7566   94.6780  -43.2630 C   0  0  0  0  0  0  0  0  0  0  0  0
   91.8838   93.4396  -43.8797 C   0  0  0  0  0  0  0  0  0  0  0  0
   91.3777   93.2394  -45.1662 C   0  0  0  0  0  0  0  0  0  0  0  0
   90.7477   94.2734  -45.8648 C   0  0  0  0  0  0  0  0  0  0  0  0
   91.5828   91.3737  -46.1255 I   0  0  0  0  0  0  0  0  0  0  0  0
   90.2685   94.0433  -47.1292 O   0  0  0  0  0  0  0  0  0  0  0  0
   89.8453   94.7324  -47.6024 H   0  0  0  0  0  0  0  0  0  0  0  0
   91.8716   91.3132  -42.5346 C   0  0  0  0  0  0  0  0  0  0  0  0
   93.8397   92.1871  -43.1399 C   0  0  0  0  0  0  0  0  0  0  0  0
   92.4644   92.3420  -43.2200 N   0  0  0  0  0  0  0  0  0  0  0  0
   92.8670   90.5094  -42.0223 C   0  0  0  0  0  0  0  0  0  0  0  0
   94.1107   91.0541  -42.4058 C   0  0  0  0  0  0  0  0  0  0  0  0
   89.9401   96.6854  -45.9695 C   0  0  0  0  0  0  0  0  0  0  0  0
   90.5654   97.7940  -46.0376 O   0  0  0  0  0  0  0  0  0  0  0  0
   88.7825   96.4537  -46.4265 O   0  0  0  0  0  0  0  0  0  0  0  0
   88.4018   95.6032  -46.3287 H   0  0  0  0  0  0  0  0  0  0  0  0
   92.4366   94.8708  -41.6286 S   0  0  0  0  0  0  0  0  0  0  0  0
   91.4877   96.2448  -40.9068 C   0  0  0  0  0  0  0  0  0  0  0  0
   92.3217   97.5229  -40.9658 C   0  0  0  0  0  0  0  0  0  0  0  0
   91.7382   98.5351  -41.9371 C   0  0  0  0  0  0  0  0  0  0  0  0
 22 21  1  0  0  0
 21 20  1  0  0  0
 20 19  1  0  0  0
 16 15  2  0  0  0
 19  3  1  0  0  0
  2  3  2  0  0  0
  2  1  1  0  0  0
 15 17  1  0  0  0
 15  1  1  0  0  0
  3  4  1  0  0  0
  1  6  2  0  0  0
  4 12  1  0  0  0
  4  5  2  0  0  0
  6  5  1  0  0  0
  6  8  1  0  0  0
 12 11  1  0  0  0
 12 10  1  0  0  0
  5  7  1  0  0  0
 11 14  2  0  0  0
 10 13  2  0  0  0
 14 13  1  0  0  0
  8  9  1  0  0  0
 17 18  1  0  0  0
M  END
> <minimizedAffinity>
-5.34426

$$$$
5O1H_9GN_A_402


 22 23  0  0  0  0  0  0  0  0999 V2000
   92.0424   92.5042  -42.8747 C   0  0  0  0  0  0  0  0  0  0  0  0
   91.6739   92.5830  -44.2383 C   0  0  0  0  0  0  0  0  0  0  0  0
   91.3225   93.8092  -44.8372 C   0  0  0  0  0  0  0  0  0  0  0  0
   91.3445   94.9631  -44.0637 C   0  0  0  0  0  0  0  0  0  0  0  0
   91.6987   94.8983  -42.7140 C   0  0  0  0  0  0  0  0  0  0  0  0
   92.0492   93.6847  -42.1155 C   0  0  0  0  0  0  0  0  0  0  0  0
   91.7596   96.6427  -41.5321 I   0  0  0  0  0  0  0  0  0  0  0  0
   92.3982   93.6591  -40.7893 O   0  0  0  0  0  0  0  0  0  0  0  0
   92.6342   92.8486  -40.3825 H   0  0  0  0  0  0  0  0  0  0  0  0
   89.7088   96.7428  -44.7624 C   0  0  0  0  0  0  0  0  0  0  0  0
   91.8926   97.1118  -45.0758 C   0  0  0  0  0  0  0  0  0  0  0  0
   90.9599   96.2103  -44.5867 N   0  0  0  0  0  0  0  0  0  0  0  0
   89.8479   97.9766  -45.3603 C   0  0  0  0  0  0  0  0  0  0  0  0
   91.2245   98.2161  -45.5556 C   0  0  0  0  0  0  0  0  0  0  0  0
   92.4062   91.1698  -42.2849 C   0  0  0  0  0  0  0  0  0  0  0  0
   93.5652   91.0372  -41.7714 O   0  0  0  0  0  0  0  0  0  0  0  0
   91.5193   90.2699  -42.3647 O   0  0  0  0  0  0  0  0  0  0  0  0
   90.6922   90.4611  -42.7613 H   0  0  0  0  0  0  0  0  0  0  0  0
   90.8767   93.9631  -46.5542 S   0  0  0  0  0  0  0  0  0  0  0  0
   91.3772   92.3773  -47.2919 C   0  0  0  0  0  0  0  0  0  0  0  0
   90.1922   91.7697  -48.0397 C   0  0  0  0  0  0  0  0  0  0  0  0
   89.3740   92.8285  -48.7594 C   0  0  0  0  0  0  0  0  0  0  0  0
 22 21  1  0  0  0
 21 20  1  0  0  0
 20 19  1  0  0  0
 16 15  2  0  0  0
 19  3  1  0  0  0
  2  3  2  0  0  0
  2  1  1  0  0  0
 15 17  1  0  0  0
 15  1  1  0  0  0
  3  4  1  0  0  0
  1  6  2  0  0  0
  4 12  1  0  0  0
  4  5  2  0  0  0
  6  5  1  0  0  0
  6  8  1  0  0  0
 12 11  1  0  0  0
 12 10  1  0  0  0
  5  7  1  0  0  0
 11 14  2  0  0  0
 10 13  2  0  0  0
 14 13  1  0  0  0
  8  9  1  0  0  0
 17 18  1  0  0  0
M  END
> <minimizedAffinity>
-5.31867

$$$$
5O1H_9GN_A_402


 22 23  0  0  0  0  0  0  0  0999 V2000
   90.8128   94.8834  -45.3815 C   0  0  0  0  0  0  0  0  0  0  0  0
   91.2638   94.9767  -44.0438 C   0  0  0  0  0  0  0  0  0  0  0  0
   91.1873   96.1849  -43.3228 C   0  0  0  0  0  0  0  0  0  0  0  0
   90.6521   97.3048  -43.9471 C   0  0  0  0  0  0  0  0  0  0  0  0
   90.2104   97.2287  -45.2701 C   0  0  0  0  0  0  0  0  0  0  0  0
   90.2830   96.0322  -45.9893 C   0  0  0  0  0  0  0  0  0  0  0  0
   89.3745   98.9120  -46.2246 I   0  0  0  0  0  0  0  0  0  0  0  0
   89.8338   95.9919  -47.2846 O   0  0  0  0  0  0  0  0  0  0  0  0
   89.8798   95.1928  -47.7718 H   0  0  0  0  0  0  0  0  0  0  0  0
   89.5435   99.1579  -42.6555 C   0  0  0  0  0  0  0  0  0  0  0  0
   91.6751   99.4152  -43.2827 C   0  0  0  0  0  0  0  0  0  0  0  0
   90.5905   98.5520  -43.3007 N   0  0  0  0  0  0  0  0  0  0  0  0
   89.9628  100.3999  -42.2302 C   0  0  0  0  0  0  0  0  0  0  0  0
   91.3089  100.5648  -42.6193 C   0  0  0  0  0  0  0  0  0  0  0  0
   90.9196   93.5701  -46.1059 C   0  0  0  0  0  0  0  0  0  0  0  0
   90.2091   93.4023  -47.1507 O   0  0  0  0  0  0  0  0  0  0  0  0
   91.7090   92.7209  -45.5975 O   0  0  0  0  0  0  0  0  0  0  0  0
   92.1923   92.9350  -44.8238 H   0  0  0  0  0  0  0  0  0  0  0  0
   91.7179   96.3457  -41.6307 S   0  0  0  0  0  0  0  0  0  0  0  0
   91.7837   94.6346  -41.0164 C   0  0  0  0  0  0  0  0  0  0  0  0
   93.2089   94.1022  -41.1510 C   0  0  0  0  0  0  0  0  0  0  0  0
   93.2425   92.7367  -41.8163 C   0  0  0  0  0  0  0  0  0  0  0  0
 22 21  1  0  0  0
 21 20  1  0  0  0
 20 19  1  0  0  0
 16 15  2  0  0  0
 19  3  1  0  0  0
  2  3  2  0  0  0
  2  1  1  0  0  0
 15 17  1  0  0  0
 15  1  1  0  0  0
  3  4  1  0  0  0
  1  6  2  0  0  0
  4 12  1  0  0  0
  4  5  2  0  0  0
  6  5  1  0  0  0
  6  8  1  0  0  0
 12 11  1  0  0  0
 12 10  1  0  0  0
  5  7  1  0  0  0
 11 14  2  0  0  0
 10 13  2  0  0  0
 14 13  1  0  0  0
  8  9  1  0  0  0
 17 18  1  0  0  0
M  END
> <minimizedAffinity>
-5.24511

$$$$
5O1H_9GN_A_402


 22 23  0  0  0  0  0  0  0  0999 V2000
   91.2336   93.9816  -44.6651 C   0  0  0  0  0  0  0  0  0  0  0  0
   90.7286   94.9553  -45.5587 C   0  0  0  0  0  0  0  0  0  0  0  0
   90.5627   96.2989  -45.1678 C   0  0  0  0  0  0  0  0  0  0  0  0
   90.9088   96.6677  -43.8738 C   0  0  0  0  0  0  0  0  0  0  0  0
   91.4009   95.7148  -42.9787 C   0  0  0  0  0  0  0  0  0  0  0  0
   91.5685   94.3810  -43.3619 C   0  0  0  0  0  0  0  0  0  0  0  0
   91.9525   96.2620  -41.0192 I   0  0  0  0  0  0  0  0  0  0  0  0
   92.0608   93.4733  -42.4591 O   0  0  0  0  0  0  0  0  0  0  0  0
   92.1753   92.5779  -42.7100 H   0  0  0  0  0  0  0  0  0  0  0  0
   89.6157   98.5700  -42.8537 C   0  0  0  0  0  0  0  0  0  0  0  0
   91.7253   98.9342  -43.5022 C   0  0  0  0  0  0  0  0  0  0  0  0
   90.7238   97.9805  -43.4054 N   0  0  0  0  0  0  0  0  0  0  0  0
   89.9137   99.8917  -42.6017 C   0  0  0  0  0  0  0  0  0  0  0  0
   91.2455  100.1251  -43.0046 C   0  0  0  0  0  0  0  0  0  0  0  0
   91.3886   92.5611  -45.1330 C   0  0  0  0  0  0  0  0  0  0  0  0
   91.6671   92.3613  -46.3606 O   0  0  0  0  0  0  0  0  0  0  0  0
   91.2101   91.6672  -44.2545 O   0  0  0  0  0  0  0  0  0  0  0  0
   91.0081   91.9107  -43.3725 H   0  0  0  0  0  0  0  0  0  0  0  0
   89.9556   97.5649  -46.2629 S   0  0  0  0  0  0  0  0  0  0  0  0
   88.2172   97.1131  -46.5513 C   0  0  0  0  0  0  0  0  0  0  0  0
   87.3247   97.8892  -45.5850 C   0  0  0  0  0  0  0  0  0  0  0  0
   86.1034   97.0850  -45.1726 C   0  0  0  0  0  0  0  0  0  0  0  0
 22 21  1  0  0  0
 21 20  1  0  0  0
 20 19  1  0  0  0
 16 15  2  0  0  0
 19  3  1  0  0  0
  2  3  2  0  0  0
  2  1  1  0  0  0
 15 17  1  0  0  0
 15  1  1  0  0  0
  3  4  1  0  0  0
  1  6  2  0  0  0
  4 12  1  0  0  0
  4  5  2  0  0  0
  6  5  1  0  0  0
  6  8  1  0  0  0
 12 11  1  0  0  0
 12 10  1  0  0  0
  5  7  1  0  0  0
 11 14  2  0  0  0
 10 13  2  0  0  0
 14 13  1  0  0  0
  8  9  1  0  0  0
 17 18  1  0  0  0
M  END
> <minimizedAffinity>
-4.96591

$$$$
5O1H_9GN_A_402


 22 23  0  0  0  0  0  0  0  0999 V2000
   90.7716   94.7561  -45.4419 C   0  0  0  0  0  0  0  0  0  0  0  0
   91.2822   95.0287  -44.1509 C   0  0  0  0  0  0  0  0  0  0  0  0
   91.1169   96.2895  -43.5440 C   0  0  0  0  0  0  0  0  0  0  0  0
   90.4323   97.2812  -44.2355 C   0  0  0  0  0  0  0  0  0  0  0  0
   89.9299   97.0281  -45.5141 C   0  0  0  0  0  0  0  0  0  0  0  0
   90.0902   95.7787  -46.1201 C   0  0  0  0  0  0  0  0  0  0  0  0
   88.8688   98.5140  -46.5676 I   0  0  0  0  0  0  0  0  0  0  0  0
   89.5780   95.5630  -47.3741 O   0  0  0  0  0  0  0  0  0  0  0  0
   89.6823   94.7276  -47.7854 H   0  0  0  0  0  0  0  0  0  0  0  0
   91.0934   99.6696  -43.7997 C   0  0  0  0  0  0  0  0  0  0  0  0
   89.1852   98.9075  -42.9158 C   0  0  0  0  0  0  0  0  0  0  0  0
   90.2735   98.5747  -43.7074 N   0  0  0  0  0  0  0  0  0  0  0  0
   90.5271  100.6922  -43.0697 C   0  0  0  0  0  0  0  0  0  0  0  0
   89.3202  100.2176  -42.5140 C   0  0  0  0  0  0  0  0  0  0  0  0
   90.9780   93.3939  -46.0442 C   0  0  0  0  0  0  0  0  0  0  0  0
   90.9476   92.3840  -45.2672 O   0  0  0  0  0  0  0  0  0  0  0  0
   91.1844   93.3672  -47.2929 O   0  0  0  0  0  0  0  0  0  0  0  0
   91.1885   94.1650  -47.7843 H   0  0  0  0  0  0  0  0  0  0  0  0
   91.7185   96.6726  -41.9125 S   0  0  0  0  0  0  0  0  0  0  0  0
   91.6474   95.0867  -41.0240 C   0  0  0  0  0  0  0  0  0  0  0  0
   93.0376   94.4546  -41.0031 C   0  0  0  0  0  0  0  0  0  0  0  0
   93.0455   93.0827  -41.6560 C   0  0  0  0  0  0  0  0  0  0  0  0
 22 21  1  0  0  0
 21 20  1  0  0  0
 20 19  1  0  0  0
 16 15  2  0  0  0
 19  3  1  0  0  0
  2  3  2  0  0  0
  2  1  1  0  0  0
 15 17  1  0  0  0
 15  1  1  0  0  0
  3  4  1  0  0  0
  1  6  2  0  0  0
  4 12  1  0  0  0
  4  5  2  0  0  0
  6  5  1  0  0  0
  6  8  1  0  0  0
 12 11  1  0  0  0
 12 10  1  0  0  0
  5  7  1  0  0  0
 11 14  2  0  0  0
 10 13  2  0  0  0
 14 13  1  0  0  0
  8  9  1  0  0  0
 17 18  1  0  0  0
M  END
> <minimizedAffinity>
-4.79671

$$$$
5O1H_9GN_A_402


 22 23  0  0  0  0  0  0  0  0999 V2000
   90.9006   92.1464  -46.6780 C   0  0  0  0  0  0  0  0  0  0  0  0
   91.6492   92.3929  -45.5032 C   0  0  0  0  0  0  0  0  0  0  0  0
   91.6809   93.6674  -44.9032 C   0  0  0  0  0  0  0  0  0  0  0  0
   90.9543   94.6994  -45.4839 C   0  0  0  0  0  0  0  0  0  0  0  0
   90.2172   94.4719  -46.6485 C   0  0  0  0  0  0  0  0  0  0  0  0
   90.1815   93.2091  -47.2469 C   0  0  0  0  0  0  0  0  0  0  0  0
   89.0907   96.0205  -47.5295 I   0  0  0  0  0  0  0  0  0  0  0  0
   89.4418   93.0198  -48.3863 O   0  0  0  0  0  0  0  0  0  0  0  0
   89.4140   92.1757  -48.7920 H   0  0  0  0  0  0  0  0  0  0  0  0
   90.1935   96.5855  -44.0024 C   0  0  0  0  0  0  0  0  0  0  0  0
   91.8613   96.9616  -45.4447 C   0  0  0  0  0  0  0  0  0  0  0  0
   90.9806   96.0053  -44.9634 N   0  0  0  0  0  0  0  0  0  0  0  0
   90.5738   97.9040  -43.8750 C   0  0  0  0  0  0  0  0  0  0  0  0
   91.6294   98.1448  -44.7797 C   0  0  0  0  0  0  0  0  0  0  0  0
   90.9031   90.7679  -47.2786 C   0  0  0  0  0  0  0  0  0  0  0  0
   92.0118   90.2985  -47.6971 O   0  0  0  0  0  0  0  0  0  0  0  0
   89.7799   90.1866  -47.3331 O   0  0  0  0  0  0  0  0  0  0  0  0
   89.0153   90.6124  -46.9983 H   0  0  0  0  0  0  0  0  0  0  0  0
   92.5868   94.0205  -43.4115 S   0  0  0  0  0  0  0  0  0  0  0  0
   92.7710   92.4007  -42.6041 C   0  0  0  0  0  0  0  0  0  0  0  0
   94.2022   91.9011  -42.7907 C   0  0  0  0  0  0  0  0  0  0  0  0
   94.7306   91.2179  -41.5408 C   0  0  0  0  0  0  0  0  0  0  0  0
 22 21  1  0  0  0
 21 20  1  0  0  0
 20 19  1  0  0  0
 16 15  2  0  0  0
 19  3  1  0  0  0
  2  3  2  0  0  0
  2  1  1  0  0  0
 15 17  1  0  0  0
 15  1  1  0  0  0
  3  4  1  0  0  0
  1  6  2  0  0  0
  4 12  1  0  0  0
  4  5  2  0  0  0
  6  5  1  0  0  0
  6  8  1  0  0  0
 12 11  1  0  0  0
 12 10  1  0  0  0
  5  7  1  0  0  0
 11 14  2  0  0  0
 10 13  2  0  0  0
 14 13  1  0  0  0
  8  9  1  0  0  0
 17 18  1  0  0  0
M  END
> <minimizedAffinity>
-4.62553

$$$$
5O1H_9GN_A_402


 22 23  0  0  0  0  0  0  0  0999 V2000
   91.1297   91.9129  -46.7683 C   0  0  0  0  0  0  0  0  0  0  0  0
   91.6743   91.3097  -45.6103 C   0  0  0  0  0  0  0  0  0  0  0  0
   91.7798   92.0124  -44.3935 C   0  0  0  0  0  0  0  0  0  0  0  0
   91.3330   93.3268  -44.3381 C   0  0  0  0  0  0  0  0  0  0  0  0
   90.8005   93.9372  -45.4761 C   0  0  0  0  0  0  0  0  0  0  0  0
   90.6925   93.2441  -46.6852 C   0  0  0  0  0  0  0  0  0  0  0  0
   90.0967   95.9228  -45.4034 I   0  0  0  0  0  0  0  0  0  0  0  0
   90.1584   93.8725  -47.7812 O   0  0  0  0  0  0  0  0  0  0  0  0
   90.0834   93.4131  -48.5944 H   0  0  0  0  0  0  0  0  0  0  0  0
   91.0241   93.8366  -41.8935 C   0  0  0  0  0  0  0  0  0  0  0  0
   92.0329   95.3579  -43.1863 C   0  0  0  0  0  0  0  0  0  0  0  0
   91.4527   94.0989  -43.1691 N   0  0  0  0  0  0  0  0  0  0  0  0
   91.3314   94.9246  -41.1055 C   0  0  0  0  0  0  0  0  0  0  0  0
   91.9726   95.8853  -41.9158 C   0  0  0  0  0  0  0  0  0  0  0  0
   91.0423   91.1186  -48.0420 C   0  0  0  0  0  0  0  0  0  0  0  0
   89.8898   90.9284  -48.5521 O   0  0  0  0  0  0  0  0  0  0  0  0
   92.1402   90.6845  -48.4992 O   0  0  0  0  0  0  0  0  0  0  0  0
   92.9418   90.8762  -48.0534 H   0  0  0  0  0  0  0  0  0  0  0  0
   92.4339   91.2892  -42.9036 S   0  0  0  0  0  0  0  0  0  0  0  0
   94.2194   91.6270  -42.9870 C   0  0  0  0  0  0  0  0  0  0  0  0
   94.7913   91.6834  -41.5719 C   0  0  0  0  0  0  0  0  0  0  0  0
   94.4957   93.0109  -40.8946 C   0  0  0  0  0  0  0  0  0  0  0  0
 22 21  1  0  0  0
 21 20  1  0  0  0
 20 19  1  0  0  0
 16 15  2  0  0  0
 19  3  1  0  0  0
  2  3  2  0  0  0
  2  1  1  0  0  0
 15 17  1  0  0  0
 15  1  1  0  0  0
  3  4  1  0  0  0
  1  6  2  0  0  0
  4 12  1  0  0  0
  4  5  2  0  0  0
  6  5  1  0  0  0
  6  8  1  0  0  0
 12 11  1  0  0  0
 12 10  1  0  0  0
  5  7  1  0  0  0
 11 14  2  0  0  0
 10 13  2  0  0  0
 14 13  1  0  0  0
  8  9  1  0  0  0
 17 18  1  0  0  0
M  END
> <minimizedAffinity>
-4.55349

$$$$
5O1H_9GN_A_402


 22 23  0  0  0  0  0  0  0  0999 V2000
   91.2013   94.8383  -44.6898 C   0  0  0  0  0  0  0  0  0  0  0  0
   91.3610   95.9234  -43.7962 C   0  0  0  0  0  0  0  0  0  0  0  0
   90.7527   97.1715  -44.0363 C   0  0  0  0  0  0  0  0  0  0  0  0
   89.9770   97.3301  -45.1780 C   0  0  0  0  0  0  0  0  0  0  0  0
   89.8175   96.2694  -46.0728 C   0  0  0  0  0  0  0  0  0  0  0  0
   90.4179   95.0290  -45.8387 C   0  0  0  0  0  0  0  0  0  0  0  0
   88.6253   96.4859  -47.7977 I   0  0  0  0  0  0  0  0  0  0  0  0
   90.2345   94.0073  -46.7353 O   0  0  0  0  0  0  0  0  0  0  0  0
   90.6344   93.1736  -46.5838 H   0  0  0  0  0  0  0  0  0  0  0  0
   89.8458   99.5847  -46.2875 C   0  0  0  0  0  0  0  0  0  0  0  0
   88.1576   98.9389  -44.9698 C   0  0  0  0  0  0  0  0  0  0  0  0
   89.3814   98.5622  -45.5010 N   0  0  0  0  0  0  0  0  0  0  0  0
   88.9202  100.6052  -46.2550 C   0  0  0  0  0  0  0  0  0  0  0  0
   87.8507  100.2003  -45.4286 C   0  0  0  0  0  0  0  0  0  0  0  0
   91.8745   93.5283  -44.3870 C   0  0  0  0  0  0  0  0  0  0  0  0
   91.2719   92.4544  -44.7160 O   0  0  0  0  0  0  0  0  0  0  0  0
   92.9964   93.6048  -43.8055 O   0  0  0  0  0  0  0  0  0  0  0  0
   93.3628   94.4430  -43.6026 H   0  0  0  0  0  0  0  0  0  0  0  0
   90.9030   98.5583  -42.9295 S   0  0  0  0  0  0  0  0  0  0  0  0
   92.2825   99.5289  -43.6109 C   0  0  0  0  0  0  0  0  0  0  0  0
   91.9795  101.0179  -43.4567 C   0  0  0  0  0  0  0  0  0  0  0  0
   90.5623  101.2590  -42.9650 C   0  0  0  0  0  0  0  0  0  0  0  0
 22 21  1  0  0  0
 21 20  1  0  0  0
 20 19  1  0  0  0
 16 15  2  0  0  0
 19  3  1  0  0  0
  2  3  2  0  0  0
  2  1  1  0  0  0
 15 17  1  0  0  0
 15  1  1  0  0  0
  3  4  1  0  0  0
  1  6  2  0  0  0
  4 12  1  0  0  0
  4  5  2  0  0  0
  6  5  1  0  0  0
  6  8  1  0  0  0
 12 11  1  0  0  0
 12 10  1  0  0  0
  5  7  1  0  0  0
 11 14  2  0  0  0
 10 13  2  0  0  0
 14 13  1  0  0  0
  8  9  1  0  0  0
 17 18  1  0  0  0
M  END
> <minimizedAffinity>
-4.47760

$$$$
5O1H_9GN_A_402


 22 23  0  0  0  0  0  0  0  0999 V2000
   90.7026   92.9624  -46.7177 C   0  0  0  0  0  0  0  0  0  0  0  0
   90.7795   94.3469  -46.4369 C   0  0  0  0  0  0  0  0  0  0  0  0
   91.1950   94.8213  -45.1768 C   0  0  0  0  0  0  0  0  0  0  0  0
   91.5384   93.9009  -44.1944 C   0  0  0  0  0  0  0  0  0  0  0  0
   91.4594   92.5309  -44.4557 C   0  0  0  0  0  0  0  0  0  0  0  0
   91.0490   92.0552  -45.7044 C   0  0  0  0  0  0  0  0  0  0  0  0
   91.9988   91.1213  -42.9842 I   0  0  0  0  0  0  0  0  0  0  0  0
   90.9894   90.7033  -45.9283 O   0  0  0  0  0  0  0  0  0  0  0  0
   90.7151   90.3783  -46.7632 H   0  0  0  0  0  0  0  0  0  0  0  0
   91.3138   95.1936  -42.0474 C   0  0  0  0  0  0  0  0  0  0  0  0
   93.0789   93.8442  -42.3061 C   0  0  0  0  0  0  0  0  0  0  0  0
   91.9154   94.3062  -42.9019 N   0  0  0  0  0  0  0  0  0  0  0  0
   92.0925   95.2936  -40.9148 C   0  0  0  0  0  0  0  0  0  0  0  0
   93.2050   94.4401  -41.0712 C   0  0  0  0  0  0  0  0  0  0  0  0
   90.2507   92.5100  -48.0786 C   0  0  0  0  0  0  0  0  0  0  0  0
   90.9252   91.5995  -48.6623 O   0  0  0  0  0  0  0  0  0  0  0  0
   89.2287   93.0943  -48.5443 O   0  0  0  0  0  0  0  0  0  0  0  0
   88.7962   93.7549  -48.0397 H   0  0  0  0  0  0  0  0  0  0  0  0
   91.3323   96.5526  -44.7837 S   0  0  0  0  0  0  0  0  0  0  0  0
   89.7103   97.2444  -45.2309 C   0  0  0  0  0  0  0  0  0  0  0  0
   89.5079   98.5725  -44.5044 C   0  0  0  0  0  0  0  0  0  0  0  0
   90.1369   98.5627  -43.1214 C   0  0  0  0  0  0  0  0  0  0  0  0
 22 21  1  0  0  0
 21 20  1  0  0  0
 20 19  1  0  0  0
 16 15  2  0  0  0
 19  3  1  0  0  0
  2  3  2  0  0  0
  2  1  1  0  0  0
 15 17  1  0  0  0
 15  1  1  0  0  0
  3  4  1  0  0  0
  1  6  2  0  0  0
  4 12  1  0  0  0
  4  5  2  0  0  0
  6  5  1  0  0  0
  6  8  1  0  0  0
 12 11  1  0  0  0
 12 10  1  0  0  0
  5  7  1  0  0  0
 11 14  2  0  0  0
 10 13  2  0  0  0
 14 13  1  0  0  0
  8  9  1  0  0  0
 17 18  1  0  0  0
M  END
> <minimizedAffinity>
-4.36008

$$$$
