6GLA_F4B_A_1201


 28 32  0  0  0  0  0  0  0  0999 V2000
   -0.3530   21.4124   -4.3586 C   0  0  0  0  0  0  0  0  0  0  0  0
   -0.3823   24.5143   -1.5333 C   0  0  0  0  0  0  0  0  0  0  0  0
   -1.7125   24.4277   -1.3058 C   0  0  0  0  0  0  0  0  0  0  0  0
   -2.2461   23.4068   -2.0439 N   0  0  0  0  0  0  0  0  0  0  0  0
    2.9415   22.6018   -4.3205 C   0  0  0  0  0  0  0  0  0  0  0  0
    2.3812   23.4107   -3.3537 N   0  0  0  0  0  0  0  0  0  0  0  0
    2.0873   21.7461   -4.8317 N   0  0  0  0  0  0  0  0  0  0  0  0
    0.8890   22.0018   -4.1725 C   0  0  0  0  0  0  0  0  0  0  0  0
   -1.4484   21.7993   -3.6882 N   0  0  0  0  0  0  0  0  0  0  0  0
    1.0342   23.0275   -3.2505 C   0  0  0  0  0  0  0  0  0  0  0  0
   -0.0621   23.4893   -2.4950 C   0  0  0  0  0  0  0  0  0  0  0  0
   -1.2784   22.8019   -2.7953 C   0  0  0  0  0  0  0  0  0  0  0  0
   -3.1950   23.1446   -2.0349 H   0  0  0  0  0  0  0  0  0  0  0  0
    2.9371   24.4674   -2.4655 C   0  0  0  0  0  0  0  0  0  0  0  0
    3.2864   25.7677   -3.1715 C   0  0  0  0  0  0  0  0  0  0  0  0
    4.1044   26.6900   -2.2608 C   0  0  0  0  0  0  0  0  0  0  0  0
    3.8032   26.4244   -0.7846 C   0  0  0  0  0  0  0  0  0  0  0  0
    4.1986   25.0009   -0.3766 C   0  0  0  0  0  0  0  0  0  0  0  0
    4.0065   23.9920   -1.5097 C   0  0  0  0  0  0  0  0  0  0  0  0
    4.2960   22.4961   -4.8118 C   0  0  0  0  0  0  0  0  0  0  0  0
    4.9704   21.4102   -5.2525 C   0  0  0  0  0  0  0  0  0  0  0  0
    6.2184   21.8548   -5.7156 C   0  0  0  0  0  0  0  0  0  0  0  0
    6.2560   23.1899   -5.5436 C   0  0  0  0  0  0  0  0  0  0  0  0
    5.0718   23.6194   -4.9788 O   0  0  0  0  0  0  0  0  0  0  0  0
    7.2969   24.1146   -5.9075 C   0  0  0  0  0  0  0  0  0  0  0  0
    7.3158   25.3912   -5.5267 C   0  0  0  0  0  0  0  0  0  0  0  0
    8.4098   26.2307   -5.8810 C   0  0  0  0  0  0  0  0  0  0  0  0
    9.2885   26.8955   -6.1876 N   0  0  0  0  0  0  0  0  0  0  0  0
  3  4  1  0  0  0
  3  2  2  0  0  0
  4 12  1  0  0  0
  2 11  1  0  0  0
 12 11  2  0  0  0
 12  9  1  0  0  0
 11 10  1  0  0  0
  9  1  2  0  0  0
 18 17  1  0  0  0
 18 19  1  0  0  0
 17 16  1  0  0  0
  1  8  1  0  0  0
 10  8  2  0  0  0
 10  6  1  0  0  0
 19 14  1  0  0  0
  8  7  1  0  0  0
 14  6  1  0  0  0
 14 15  1  0  0  0
  6  5  1  0  0  0
 16 15  1  0  0  0
  7  5  2  0  0  0
  5 20  1  0  0  0
 20 21  2  0  0  0
 20 24  1  0  0  0
 21 22  1  0  0  0
 24 23  1  0  0  0
 22 23  2  0  0  0
 23 25  1  0  0  0
 25 26  2  0  0  0
 26 27  1  0  0  0
 27 28  3  0  0  0
  4 13  1  0  0  0
M  END
> <minimizedAffinity>
-9.35807

$$$$
6GLA_F4B_A_1201


 28 32  0  0  0  0  0  0  0  0999 V2000
   -0.5910   21.8626   -4.0845 C   0  0  0  0  0  0  0  0  0  0  0  0
   -0.9060   24.8618   -1.1671 C   0  0  0  0  0  0  0  0  0  0  0  0
   -2.2340   24.6831   -0.9851 C   0  0  0  0  0  0  0  0  0  0  0  0
   -2.6779   23.6550   -1.7711 N   0  0  0  0  0  0  0  0  0  0  0  0
    2.6168   23.2580   -3.9041 C   0  0  0  0  0  0  0  0  0  0  0  0
    1.9766   23.9972   -2.9313 N   0  0  0  0  0  0  0  0  0  0  0  0
    1.8356   22.3668   -4.4687 N   0  0  0  0  0  0  0  0  0  0  0  0
    0.6040   22.5236   -3.8406 C   0  0  0  0  0  0  0  0  0  0  0  0
   -1.7288   22.1566   -3.4379 N   0  0  0  0  0  0  0  0  0  0  0  0
    0.6548   23.5257   -2.8832 C   0  0  0  0  0  0  0  0  0  0  0  0
   -0.4914   23.8915   -2.1493 C   0  0  0  0  0  0  0  0  0  0  0  0
   -1.6510   23.1381   -2.5095 C   0  0  0  0  0  0  0  0  0  0  0  0
   -3.6076   23.3325   -1.8006 H   0  0  0  0  0  0  0  0  0  0  0  0
    2.4359   25.0576   -1.9935 C   0  0  0  0  0  0  0  0  0  0  0  0
    3.2488   26.1666   -2.6421 C   0  0  0  0  0  0  0  0  0  0  0  0
    3.9164   27.0542   -1.5859 C   0  0  0  0  0  0  0  0  0  0  0  0
    3.1238   27.0542   -0.2773 C   0  0  0  0  0  0  0  0  0  0  0  0
    3.0688   25.6556    0.3476 C   0  0  0  0  0  0  0  0  0  0  0  0
    3.0329   24.5454   -0.7034 C   0  0  0  0  0  0  0  0  0  0  0  0
    3.9895   23.2551   -4.3549 C   0  0  0  0  0  0  0  0  0  0  0  0
    5.0479   23.9616   -3.8977 C   0  0  0  0  0  0  0  0  0  0  0  0
    6.1783   23.5212   -4.6033 C   0  0  0  0  0  0  0  0  0  0  0  0
    5.7684   22.5645   -5.4578 C   0  0  0  0  0  0  0  0  0  0  0  0
    4.4067   22.3780   -5.3285 O   0  0  0  0  0  0  0  0  0  0  0  0
    6.5559   21.7693   -6.3626 C   0  0  0  0  0  0  0  0  0  0  0  0
    6.8852   20.4989   -6.1328 C   0  0  0  0  0  0  0  0  0  0  0  0
    7.6207   19.7604   -7.1028 C   0  0  0  0  0  0  0  0  0  0  0  0
    8.2233   19.1872   -7.8878 N   0  0  0  0  0  0  0  0  0  0  0  0
  3  4  1  0  0  0
  3  2  2  0  0  0
  4 12  1  0  0  0
  2 11  1  0  0  0
 12 11  2  0  0  0
 12  9  1  0  0  0
 11 10  1  0  0  0
  9  1  2  0  0  0
 18 17  1  0  0  0
 18 19  1  0  0  0
 17 16  1  0  0  0
  1  8  1  0  0  0
 10  8  2  0  0  0
 10  6  1  0  0  0
 19 14  1  0  0  0
  8  7  1  0  0  0
 14  6  1  0  0  0
 14 15  1  0  0  0
  6  5  1  0  0  0
 16 15  1  0  0  0
  7  5  2  0  0  0
  5 20  1  0  0  0
 20 21  2  0  0  0
 20 24  1  0  0  0
 21 22  1  0  0  0
 24 23  1  0  0  0
 22 23  2  0  0  0
 23 25  1  0  0  0
 25 26  2  0  0  0
 26 27  1  0  0  0
 27 28  3  0  0  0
  4 13  1  0  0  0
M  END
> <minimizedAffinity>
-9.02112

$$$$
6GLA_F4B_A_1201


 28 32  0  0  0  0  0  0  0  0999 V2000
   -1.3999   22.3452   -3.2601 C   0  0  0  0  0  0  0  0  0  0  0  0
    2.6319   21.9496   -4.3525 C   0  0  0  0  0  0  0  0  0  0  0  0
    2.4173   20.8637   -5.1295 C   0  0  0  0  0  0  0  0  0  0  0  0
    1.0825   20.5647   -5.1540 N   0  0  0  0  0  0  0  0  0  0  0  0
    0.2556   24.8393   -1.4412 C   0  0  0  0  0  0  0  0  0  0  0  0
    1.3167   24.3091   -2.1454 N   0  0  0  0  0  0  0  0  0  0  0  0
   -0.8875   24.2570   -1.7199 N   0  0  0  0  0  0  0  0  0  0  0  0
   -0.5703   23.2805   -2.6589 C   0  0  0  0  0  0  0  0  0  0  0  0
   -0.9469   21.4145   -4.1132 N   0  0  0  0  0  0  0  0  0  0  0  0
    0.7866   23.2838   -2.9453 C   0  0  0  0  0  0  0  0  0  0  0  0
    1.3454   22.3481   -3.8386 C   0  0  0  0  0  0  0  0  0  0  0  0
    0.3806   21.4403   -4.3746 C   0  0  0  0  0  0  0  0  0  0  0  0
    0.6833   19.8221   -5.6624 H   0  0  0  0  0  0  0  0  0  0  0  0
    2.7619   24.6560   -2.2199 C   0  0  0  0  0  0  0  0  0  0  0  0
    3.5465   24.3734   -0.9488 C   0  0  0  0  0  0  0  0  0  0  0  0
    4.9394   25.0103   -1.0045 C   0  0  0  0  0  0  0  0  0  0  0  0
    5.4269   25.1573   -2.4472 C   0  0  0  0  0  0  0  0  0  0  0  0
    4.5221   26.0950   -3.2544 C   0  0  0  0  0  0  0  0  0  0  0  0
    3.0570   26.0089   -2.8247 C   0  0  0  0  0  0  0  0  0  0  0  0
    0.1797   25.9452   -0.5146 C   0  0  0  0  0  0  0  0  0  0  0  0
   -0.8939   26.6660   -0.1194 C   0  0  0  0  0  0  0  0  0  0  0  0
   -0.4545   27.5586    0.8705 C   0  0  0  0  0  0  0  0  0  0  0  0
    0.8641   27.3465    1.0430 C   0  0  0  0  0  0  0  0  0  0  0  0
    1.2898   26.3476    0.1906 O   0  0  0  0  0  0  0  0  0  0  0  0
    1.7609   27.9728    1.9782 C   0  0  0  0  0  0  0  0  0  0  0  0
    1.5079   29.1355    2.5774 C   0  0  0  0  0  0  0  0  0  0  0  0
    2.4200   29.6645    3.5342 C   0  0  0  0  0  0  0  0  0  0  0  0
    3.1432   30.0748    4.3195 N   0  0  0  0  0  0  0  0  0  0  0  0
  3  4  1  0  0  0
  3  2  2  0  0  0
  4 12  1  0  0  0
  2 11  1  0  0  0
 12 11  2  0  0  0
 12  9  1  0  0  0
 11 10  1  0  0  0
  9  1  2  0  0  0
 18 17  1  0  0  0
 18 19  1  0  0  0
 17 16  1  0  0  0
  1  8  1  0  0  0
 10  8  2  0  0  0
 10  6  1  0  0  0
 19 14  1  0  0  0
  8  7  1  0  0  0
 14  6  1  0  0  0
 14 15  1  0  0  0
  6  5  1  0  0  0
 16 15  1  0  0  0
  7  5  2  0  0  0
  5 20  1  0  0  0
 20 21  2  0  0  0
 20 24  1  0  0  0
 21 22  1  0  0  0
 24 23  1  0  0  0
 22 23  2  0  0  0
 23 25  1  0  0  0
 25 26  2  0  0  0
 26 27  1  0  0  0
 27 28  3  0  0  0
  4 13  1  0  0  0
M  END
> <minimizedAffinity>
-8.92431

$$$$
6GLA_F4B_A_1201


 28 32  0  0  0  0  0  0  0  0999 V2000
   -1.4136   22.4384   -3.0775 C   0  0  0  0  0  0  0  0  0  0  0  0
    2.5384   22.0269   -4.4257 C   0  0  0  0  0  0  0  0  0  0  0  0
    2.2538   20.9943   -5.2513 C   0  0  0  0  0  0  0  0  0  0  0  0
    0.9130   20.7247   -5.2152 N   0  0  0  0  0  0  0  0  0  0  0  0
    0.4025   24.7841   -1.2150 C   0  0  0  0  0  0  0  0  0  0  0  0
    1.4085   24.2757   -2.0101 N   0  0  0  0  0  0  0  0  0  0  0  0
   -0.7683   24.2432   -1.4601 N   0  0  0  0  0  0  0  0  0  0  0  0
   -0.5288   23.3187   -2.4719 C   0  0  0  0  0  0  0  0  0  0  0  0
   -1.0326   21.5517   -4.0090 N   0  0  0  0  0  0  0  0  0  0  0  0
    0.8092   23.3115   -2.8366 C   0  0  0  0  0  0  0  0  0  0  0  0
    1.2934   22.4199   -3.8147 C   0  0  0  0  0  0  0  0  0  0  0  0
    0.2780   21.5660   -4.3457 C   0  0  0  0  0  0  0  0  0  0  0  0
    0.4678   20.0224   -5.7422 H   0  0  0  0  0  0  0  0  0  0  0  0
    2.8550   24.5968   -2.1487 C   0  0  0  0  0  0  0  0  0  0  0  0
    3.7056   24.2139   -0.9483 C   0  0  0  0  0  0  0  0  0  0  0  0
    5.1081   24.8242   -1.0459 C   0  0  0  0  0  0  0  0  0  0  0  0
    5.5136   25.0570   -2.5026 C   0  0  0  0  0  0  0  0  0  0  0  0
    4.5864   26.0649   -3.1909 C   0  0  0  0  0  0  0  0  0  0  0  0
    3.1474   25.9806   -2.6804 C   0  0  0  0  0  0  0  0  0  0  0  0
    0.4062   25.8336   -0.2220 C   0  0  0  0  0  0  0  0  0  0  0  0
    1.4405   26.5566    0.2636 C   0  0  0  0  0  0  0  0  0  0  0  0
    0.9038   27.5195    1.1321 C   0  0  0  0  0  0  0  0  0  0  0  0
   -0.4321   27.3500    1.1403 C   0  0  0  0  0  0  0  0  0  0  0  0
   -0.7731   26.3034    0.3072 O   0  0  0  0  0  0  0  0  0  0  0  0
   -1.4321   28.1195    1.8323 C   0  0  0  0  0  0  0  0  0  0  0  0
   -2.5965   27.6179    2.2417 C   0  0  0  0  0  0  0  0  0  0  0  0
   -3.5123   28.4290    2.9701 C   0  0  0  0  0  0  0  0  0  0  0  0
   -4.2335   29.0996    3.5516 N   0  0  0  0  0  0  0  0  0  0  0  0
  3  4  1  0  0  0
  3  2  2  0  0  0
  4 12  1  0  0  0
  2 11  1  0  0  0
 12 11  2  0  0  0
 12  9  1  0  0  0
 11 10  1  0  0  0
  9  1  2  0  0  0
 18 17  1  0  0  0
 18 19  1  0  0  0
 17 16  1  0  0  0
  1  8  1  0  0  0
 10  8  2  0  0  0
 10  6  1  0  0  0
 19 14  1  0  0  0
  8  7  1  0  0  0
 14  6  1  0  0  0
 14 15  1  0  0  0
  6  5  1  0  0  0
 16 15  1  0  0  0
  7  5  2  0  0  0
  5 20  1  0  0  0
 20 21  2  0  0  0
 20 24  1  0  0  0
 21 22  1  0  0  0
 24 23  1  0  0  0
 22 23  2  0  0  0
 23 25  1  0  0  0
 25 26  2  0  0  0
 26 27  1  0  0  0
 27 28  3  0  0  0
  4 13  1  0  0  0
M  END
> <minimizedAffinity>
-8.69006

$$$$
6GLA_F4B_A_1201


 28 32  0  0  0  0  0  0  0  0999 V2000
   -2.6109   24.0482   -1.4822 C   0  0  0  0  0  0  0  0  0  0  0  0
   -0.1198   27.1244   -0.0907 C   0  0  0  0  0  0  0  0  0  0  0  0
   -1.1137   27.7683    0.5623 C   0  0  0  0  0  0  0  0  0  0  0  0
   -2.2808   27.0641    0.4453 N   0  0  0  0  0  0  0  0  0  0  0  0
    0.5121   23.3712   -2.9167 C   0  0  0  0  0  0  0  0  0  0  0  0
    0.8242   24.4923   -2.1762 N   0  0  0  0  0  0  0  0  0  0  0  0
   -0.7426   23.0061   -2.7912 N   0  0  0  0  0  0  0  0  0  0  0  0
   -1.2998   23.9389   -1.9221 C   0  0  0  0  0  0  0  0  0  0  0  0
   -3.0284   25.0409   -0.6825 N   0  0  0  0  0  0  0  0  0  0  0  0
   -0.3579   24.8749   -1.5219 C   0  0  0  0  0  0  0  0  0  0  0  0
   -0.7078   25.9445   -0.6737 C   0  0  0  0  0  0  0  0  0  0  0  0
   -2.0891   25.9401   -0.3076 C   0  0  0  0  0  0  0  0  0  0  0  0
   -3.1391   27.3301    0.8475 H   0  0  0  0  0  0  0  0  0  0  0  0
    2.0910   25.2389   -1.9471 C   0  0  0  0  0  0  0  0  0  0  0  0
    2.7416   25.7828   -3.2089 C   0  0  0  0  0  0  0  0  0  0  0  0
    4.1628   26.2829   -2.9279 C   0  0  0  0  0  0  0  0  0  0  0  0
    4.3185   26.7282   -1.4725 C   0  0  0  0  0  0  0  0  0  0  0  0
    4.1017   25.5627   -0.5009 C   0  0  0  0  0  0  0  0  0  0  0  0
    3.0631   24.5619   -1.0091 C   0  0  0  0  0  0  0  0  0  0  0  0
    1.3296   22.5112   -3.7411 C   0  0  0  0  0  0  0  0  0  0  0  0
    0.9588   21.5426   -4.6085 C   0  0  0  0  0  0  0  0  0  0  0  0
    2.1249   21.0749   -5.2337 C   0  0  0  0  0  0  0  0  0  0  0  0
    3.1579   21.7757   -4.7284 C   0  0  0  0  0  0  0  0  0  0  0  0
    2.6938   22.6779   -3.7922 O   0  0  0  0  0  0  0  0  0  0  0  0
    4.5511   21.7052   -5.0819 C   0  0  0  0  0  0  0  0  0  0  0  0
    5.1942   22.6674   -5.7420 C   0  0  0  0  0  0  0  0  0  0  0  0
    6.5882   22.5492   -6.0068 C   0  0  0  0  0  0  0  0  0  0  0  0
    7.7034   22.4572   -6.2430 N   0  0  0  0  0  0  0  0  0  0  0  0
  3  4  1  0  0  0
  3  2  2  0  0  0
  4 12  1  0  0  0
  2 11  1  0  0  0
 12 11  2  0  0  0
 12  9  1  0  0  0
 11 10  1  0  0  0
  9  1  2  0  0  0
 18 17  1  0  0  0
 18 19  1  0  0  0
 17 16  1  0  0  0
  1  8  1  0  0  0
 10  8  2  0  0  0
 10  6  1  0  0  0
 19 14  1  0  0  0
  8  7  1  0  0  0
 14  6  1  0  0  0
 14 15  1  0  0  0
  6  5  1  0  0  0
 16 15  1  0  0  0
  7  5  2  0  0  0
  5 20  1  0  0  0
 20 21  2  0  0  0
 20 24  1  0  0  0
 21 22  1  0  0  0
 24 23  1  0  0  0
 22 23  2  0  0  0
 23 25  1  0  0  0
 25 26  2  0  0  0
 26 27  1  0  0  0
 27 28  3  0  0  0
  4 13  1  0  0  0
M  END
> <minimizedAffinity>
-8.52321

$$$$
6GLA_F4B_A_1201


 28 32  0  0  0  0  0  0  0  0999 V2000
   -1.6910   24.8571   -1.1435 C   0  0  0  0  0  0  0  0  0  0  0  0
    0.8901   22.5799   -3.5429 C   0  0  0  0  0  0  0  0  0  0  0  0
   -0.1022   21.8242   -4.0654 C   0  0  0  0  0  0  0  0  0  0  0  0
   -1.3113   22.2429   -3.5810 N   0  0  0  0  0  0  0  0  0  0  0  0
    1.5159   26.0032   -0.3239 C   0  0  0  0  0  0  0  0  0  0  0  0
    1.8316   25.0748   -1.2941 N   0  0  0  0  0  0  0  0  0  0  0  0
    0.2244   26.1044   -0.1114 N   0  0  0  0  0  0  0  0  0  0  0  0
   -0.3533   25.1887   -0.9853 C   0  0  0  0  0  0  0  0  0  0  0  0
   -2.1079   23.9046   -1.9909 N   0  0  0  0  0  0  0  0  0  0  0  0
    0.6130   24.5324   -1.7328 C   0  0  0  0  0  0  0  0  0  0  0  0
    0.2623   23.5257   -2.6546 C   0  0  0  0  0  0  0  0  0  0  0  0
   -1.1445   23.2802   -2.7074 C   0  0  0  0  0  0  0  0  0  0  0  0
   -2.1803   21.8514   -3.8275 H   0  0  0  0  0  0  0  0  0  0  0  0
    3.1157   24.6502   -1.9151 C   0  0  0  0  0  0  0  0  0  0  0  0
    4.0857   23.9719   -0.9611 C   0  0  0  0  0  0  0  0  0  0  0  0
    5.4733   23.8237   -1.5948 C   0  0  0  0  0  0  0  0  0  0  0  0
    5.3835   23.7506   -3.1203 C   0  0  0  0  0  0  0  0  0  0  0  0
    4.8054   25.0407   -3.7127 C   0  0  0  0  0  0  0  0  0  0  0  0
    3.7643   25.6895   -2.7996 C   0  0  0  0  0  0  0  0  0  0  0  0
    2.3437   26.9094    0.4382 C   0  0  0  0  0  0  0  0  0  0  0  0
    3.4970   27.5230    0.0894 C   0  0  0  0  0  0  0  0  0  0  0  0
    3.8483   28.3797    1.1440 C   0  0  0  0  0  0  0  0  0  0  0  0
    2.8979   28.2591    2.0904 C   0  0  0  0  0  0  0  0  0  0  0  0
    1.9467   27.3465    1.6803 O   0  0  0  0  0  0  0  0  0  0  0  0
    2.7771   28.9648    3.3388 C   0  0  0  0  0  0  0  0  0  0  0  0
    2.4248   30.2464    3.4306 C   0  0  0  0  0  0  0  0  0  0  0  0
    2.2725   30.8603    4.7062 C   0  0  0  0  0  0  0  0  0  0  0  0
    2.1499   31.3750    5.7201 N   0  0  0  0  0  0  0  0  0  0  0  0
  3  4  1  0  0  0
  3  2  2  0  0  0
  4 12  1  0  0  0
  2 11  1  0  0  0
 12 11  2  0  0  0
 12  9  1  0  0  0
 11 10  1  0  0  0
  9  1  2  0  0  0
 18 17  1  0  0  0
 18 19  1  0  0  0
 17 16  1  0  0  0
  1  8  1  0  0  0
 10  8  2  0  0  0
 10  6  1  0  0  0
 19 14  1  0  0  0
  8  7  1  0  0  0
 14  6  1  0  0  0
 14 15  1  0  0  0
  6  5  1  0  0  0
 16 15  1  0  0  0
  7  5  2  0  0  0
  5 20  1  0  0  0
 20 21  2  0  0  0
 20 24  1  0  0  0
 21 22  1  0  0  0
 24 23  1  0  0  0
 22 23  2  0  0  0
 23 25  1  0  0  0
 25 26  2  0  0  0
 26 27  1  0  0  0
 27 28  3  0  0  0
  4 13  1  0  0  0
M  END
> <minimizedAffinity>
-8.45589

$$$$
6GLA_F4B_A_1201


 28 32  0  0  0  0  0  0  0  0999 V2000
   -0.8638   25.5148    0.5520 C   0  0  0  0  0  0  0  0  0  0  0  0
    2.4767   28.0323    0.8797 C   0  0  0  0  0  0  0  0  0  0  0  0
    1.9358   28.7862    1.8635 C   0  0  0  0  0  0  0  0  0  0  0  0
    0.7049   28.2952    2.2035 N   0  0  0  0  0  0  0  0  0  0  0  0
    1.3104   24.4280   -1.9702 C   0  0  0  0  0  0  0  0  0  0  0  0
    2.0747   25.4286   -1.4067 N   0  0  0  0  0  0  0  0  0  0  0  0
    0.1524   24.2687   -1.3727 N   0  0  0  0  0  0  0  0  0  0  0  0
    0.1416   25.2195   -0.3570 C   0  0  0  0  0  0  0  0  0  0  0  0
   -0.7631   26.5060    1.4500 N   0  0  0  0  0  0  0  0  0  0  0  0
    1.3164   25.9565   -0.3493 C   0  0  0  0  0  0  0  0  0  0  0  0
    1.5106   27.0090    0.5675 C   0  0  0  0  0  0  0  0  0  0  0  0
    0.3931   27.2090    1.4354 C   0  0  0  0  0  0  0  0  0  0  0  0
    0.1247   28.6719    2.9040 H   0  0  0  0  0  0  0  0  0  0  0  0
    3.4461   25.9370   -1.6815 C   0  0  0  0  0  0  0  0  0  0  0  0
    3.7172   26.2686   -3.1401 C   0  0  0  0  0  0  0  0  0  0  0  0
    5.2109   26.5098   -3.3850 C   0  0  0  0  0  0  0  0  0  0  0  0
    5.9090   27.0087   -2.1184 C   0  0  0  0  0  0  0  0  0  0  0  0
    5.8474   25.9681   -0.9946 C   0  0  0  0  0  0  0  0  0  0  0  0
    4.5557   25.1501   -1.0237 C   0  0  0  0  0  0  0  0  0  0  0  0
    1.5876   23.5026   -3.0444 C   0  0  0  0  0  0  0  0  0  0  0  0
    0.7466   22.9630   -3.9554 C   0  0  0  0  0  0  0  0  0  0  0  0
    1.5259   22.2081   -4.8456 C   0  0  0  0  0  0  0  0  0  0  0  0
    2.8076   22.3185   -4.4473 C   0  0  0  0  0  0  0  0  0  0  0  0
    2.8781   23.1177   -3.3239 O   0  0  0  0  0  0  0  0  0  0  0  0
    3.9899   21.7722   -5.0595 C   0  0  0  0  0  0  0  0  0  0  0  0
    5.1023   22.4741   -5.2716 C   0  0  0  0  0  0  0  0  0  0  0  0
    6.2514   21.8478   -5.8324 C   0  0  0  0  0  0  0  0  0  0  0  0
    7.1855   21.3464   -6.2615 N   0  0  0  0  0  0  0  0  0  0  0  0
  3  4  1  0  0  0
  3  2  2  0  0  0
  4 12  1  0  0  0
  2 11  1  0  0  0
 12 11  2  0  0  0
 12  9  1  0  0  0
 11 10  1  0  0  0
  9  1  2  0  0  0
 18 17  1  0  0  0
 18 19  1  0  0  0
 17 16  1  0  0  0
  1  8  1  0  0  0
 10  8  2  0  0  0
 10  6  1  0  0  0
 19 14  1  0  0  0
  8  7  1  0  0  0
 14  6  1  0  0  0
 14 15  1  0  0  0
  6  5  1  0  0  0
 16 15  1  0  0  0
  7  5  2  0  0  0
  5 20  1  0  0  0
 20 21  2  0  0  0
 20 24  1  0  0  0
 21 22  1  0  0  0
 24 23  1  0  0  0
 22 23  2  0  0  0
 23 25  1  0  0  0
 25 26  2  0  0  0
 26 27  1  0  0  0
 27 28  3  0  0  0
  4 13  1  0  0  0
M  END
> <minimizedAffinity>
-8.39272

$$$$
6GLA_F4B_A_1201


 28 32  0  0  0  0  0  0  0  0999 V2000
   -1.7591   25.3918   -0.6146 C   0  0  0  0  0  0  0  0  0  0  0  0
    0.2863   22.7041   -3.1040 C   0  0  0  0  0  0  0  0  0  0  0  0
   -0.8357   22.0576   -3.4940 C   0  0  0  0  0  0  0  0  0  0  0  0
   -1.9333   22.6465   -2.9281 N   0  0  0  0  0  0  0  0  0  0  0  0
    1.6266   26.1586   -0.1471 C   0  0  0  0  0  0  0  0  0  0  0  0
    1.7335   25.1562   -1.0887 N   0  0  0  0  0  0  0  0  0  0  0  0
    0.3830   26.4313    0.1731 N   0  0  0  0  0  0  0  0  0  0  0  0
   -0.3821   25.5585   -0.5942 C   0  0  0  0  0  0  0  0  0  0  0  0
   -2.3673   24.4635   -1.3679 N   0  0  0  0  0  0  0  0  0  0  0  0
    0.4218   24.7533   -1.3870 C   0  0  0  0  0  0  0  0  0  0  0  0
   -0.1346   23.7596   -2.2171 C   0  0  0  0  0  0  0  0  0  0  0  0
   -1.5594   23.6916   -2.1313 C   0  0  0  0  0  0  0  0  0  0  0  0
   -2.8629   22.3575   -3.0746 H   0  0  0  0  0  0  0  0  0  0  0  0
    2.8916   24.5461   -1.7967 C   0  0  0  0  0  0  0  0  0  0  0  0
    3.9216   23.8997   -0.8843 C   0  0  0  0  0  0  0  0  0  0  0  0
    5.2014   23.5519   -1.6525 C   0  0  0  0  0  0  0  0  0  0  0  0
    4.9118   23.3077   -3.1348 C   0  0  0  0  0  0  0  0  0  0  0  0
    4.3621   24.5661   -3.8157 C   0  0  0  0  0  0  0  0  0  0  0  0
    3.4986   25.4102   -2.8774 C   0  0  0  0  0  0  0  0  0  0  0  0
    2.6270   26.9855    0.4874 C   0  0  0  0  0  0  0  0  0  0  0  0
    2.5979   27.6034    1.6898 C   0  0  0  0  0  0  0  0  0  0  0  0
    3.8554   28.1956    1.8840 C   0  0  0  0  0  0  0  0  0  0  0  0
    4.6015   27.9144    0.7987 C   0  0  0  0  0  0  0  0  0  0  0  0
    3.8616   27.1630   -0.0921 O   0  0  0  0  0  0  0  0  0  0  0  0
    5.9761   28.2530    0.5401 C   0  0  0  0  0  0  0  0  0  0  0  0
    6.6509   27.8321   -0.5288 C   0  0  0  0  0  0  0  0  0  0  0  0
    7.9931   28.2557   -0.7441 C   0  0  0  0  0  0  0  0  0  0  0  0
    9.0709   28.5851   -0.9387 N   0  0  0  0  0  0  0  0  0  0  0  0
  3  4  1  0  0  0
  3  2  2  0  0  0
  4 12  1  0  0  0
  2 11  1  0  0  0
 12 11  2  0  0  0
 12  9  1  0  0  0
 11 10  1  0  0  0
  9  1  2  0  0  0
 18 17  1  0  0  0
 18 19  1  0  0  0
 17 16  1  0  0  0
  1  8  1  0  0  0
 10  8  2  0  0  0
 10  6  1  0  0  0
 19 14  1  0  0  0
  8  7  1  0  0  0
 14  6  1  0  0  0
 14 15  1  0  0  0
  6  5  1  0  0  0
 16 15  1  0  0  0
  7  5  2  0  0  0
  5 20  1  0  0  0
 20 21  2  0  0  0
 20 24  1  0  0  0
 21 22  1  0  0  0
 24 23  1  0  0  0
 22 23  2  0  0  0
 23 25  1  0  0  0
 25 26  2  0  0  0
 26 27  1  0  0  0
 27 28  3  0  0  0
  4 13  1  0  0  0
M  END
> <minimizedAffinity>
-8.29073

$$$$
6GLA_F4B_A_1201


 28 32  0  0  0  0  0  0  0  0999 V2000
   -0.1216   26.0011   -0.9030 C   0  0  0  0  0  0  0  0  0  0  0  0
   -0.5122   22.3891   -3.0021 C   0  0  0  0  0  0  0  0  0  0  0  0
   -1.8246   22.2462   -2.7089 C   0  0  0  0  0  0  0  0  0  0  0  0
   -2.2597   23.3212   -1.9831 N   0  0  0  0  0  0  0  0  0  0  0  0
    3.1155   25.2824   -2.0315 C   0  0  0  0  0  0  0  0  0  0  0  0
    2.4280   24.2173   -2.5752 N   0  0  0  0  0  0  0  0  0  0  0  0
    2.3414   26.1060   -1.3639 N   0  0  0  0  0  0  0  0  0  0  0  0
    1.0668   25.5568   -1.4638 C   0  0  0  0  0  0  0  0  0  0  0  0
   -1.2794   25.3363   -1.0331 N   0  0  0  0  0  0  0  0  0  0  0  0
    1.0835   24.3858   -2.2065 C   0  0  0  0  0  0  0  0  0  0  0  0
   -0.0898   23.6302   -2.4026 C   0  0  0  0  0  0  0  0  0  0  0  0
   -1.2346   24.1972   -1.7623 C   0  0  0  0  0  0  0  0  0  0  0  0
   -3.1827   23.4462   -1.6642 H   0  0  0  0  0  0  0  0  0  0  0  0
    2.8377   23.0783   -3.4409 C   0  0  0  0  0  0  0  0  0  0  0  0
    4.3407   22.8823   -3.5588 C   0  0  0  0  0  0  0  0  0  0  0  0
    4.6838   21.8879   -4.6735 C   0  0  0  0  0  0  0  0  0  0  0  0
    3.5430   20.8950   -4.9041 C   0  0  0  0  0  0  0  0  0  0  0  0
    2.2671   21.6027   -5.3739 C   0  0  0  0  0  0  0  0  0  0  0  0
    2.1115   22.9962   -4.7634 C   0  0  0  0  0  0  0  0  0  0  0  0
    4.5040   25.6712   -2.1225 C   0  0  0  0  0  0  0  0  0  0  0  0
    5.4905   25.5652   -1.2038 C   0  0  0  0  0  0  0  0  0  0  0  0
    6.6786   25.9903   -1.8179 C   0  0  0  0  0  0  0  0  0  0  0  0
    6.3734   26.3346   -3.0835 C   0  0  0  0  0  0  0  0  0  0  0  0
    5.0231   26.1493   -3.3029 O   0  0  0  0  0  0  0  0  0  0  0  0
    7.2529   26.7839   -4.1303 C   0  0  0  0  0  0  0  0  0  0  0  0
    7.0680   27.9112   -4.8160 C   0  0  0  0  0  0  0  0  0  0  0  0
    8.0135   28.3171   -5.8001 C   0  0  0  0  0  0  0  0  0  0  0  0
    8.7863   28.6237   -6.5854 N   0  0  0  0  0  0  0  0  0  0  0  0
  3  4  1  0  0  0
  3  2  2  0  0  0
  4 12  1  0  0  0
  2 11  1  0  0  0
 12 11  2  0  0  0
 12  9  1  0  0  0
 11 10  1  0  0  0
  9  1  2  0  0  0
 18 17  1  0  0  0
 18 19  1  0  0  0
 17 16  1  0  0  0
  1  8  1  0  0  0
 10  8  2  0  0  0
 10  6  1  0  0  0
 19 14  1  0  0  0
  8  7  1  0  0  0
 14  6  1  0  0  0
 14 15  1  0  0  0
  6  5  1  0  0  0
 16 15  1  0  0  0
  7  5  2  0  0  0
  5 20  1  0  0  0
 20 21  2  0  0  0
 20 24  1  0  0  0
 21 22  1  0  0  0
 24 23  1  0  0  0
 22 23  2  0  0  0
 23 25  1  0  0  0
 25 26  2  0  0  0
 26 27  1  0  0  0
 27 28  3  0  0  0
  4 13  1  0  0  0
M  END
> <minimizedAffinity>
-8.22760

$$$$
6GLA_F4B_A_1201


 28 32  0  0  0  0  0  0  0  0999 V2000
    5.7774   29.9530   -0.3724 C   0  0  0  0  0  0  0  0  0  0  0  0
    2.7635   27.2419    0.7098 C   0  0  0  0  0  0  0  0  0  0  0  0
    2.4283   27.9116    1.8358 C   0  0  0  0  0  0  0  0  0  0  0  0
    3.1827   29.0477    1.9444 N   0  0  0  0  0  0  0  0  0  0  0  0
    5.9459   27.4323   -2.7987 C   0  0  0  0  0  0  0  0  0  0  0  0
    4.8836   26.9741   -2.0474 N   0  0  0  0  0  0  0  0  0  0  0  0
    6.4364   28.5665   -2.3556 N   0  0  0  0  0  0  0  0  0  0  0  0
    5.6610   28.8798   -1.2436 C   0  0  0  0  0  0  0  0  0  0  0  0
    4.9912   30.1035    0.7039 N   0  0  0  0  0  0  0  0  0  0  0  0
    4.6899   27.9146   -1.0229 C   0  0  0  0  0  0  0  0  0  0  0  0
    3.8141   28.0001    0.0779 C   0  0  0  0  0  0  0  0  0  0  0  0
    4.0527   29.1475    0.8955 C   0  0  0  0  0  0  0  0  0  0  0  0
    3.1091   29.7021    2.6762 H   0  0  0  0  0  0  0  0  0  0  0  0
    3.9795   25.7990   -2.1762 C   0  0  0  0  0  0  0  0  0  0  0  0
    4.6282   24.4633   -1.8505 C   0  0  0  0  0  0  0  0  0  0  0  0
    3.7321   23.2943   -2.2745 C   0  0  0  0  0  0  0  0  0  0  0  0
    2.2558   23.6955   -2.2723 C   0  0  0  0  0  0  0  0  0  0  0  0
    1.9734   24.8088   -3.2872 C   0  0  0  0  0  0  0  0  0  0  0  0
    3.1483   25.7761   -3.4378 C   0  0  0  0  0  0  0  0  0  0  0  0
    6.5580   26.9189   -4.0024 C   0  0  0  0  0  0  0  0  0  0  0  0
    7.2314   27.5752   -4.9741 C   0  0  0  0  0  0  0  0  0  0  0  0
    7.7133   26.6099   -5.8715 C   0  0  0  0  0  0  0  0  0  0  0  0
    7.3200   25.4063   -5.4130 C   0  0  0  0  0  0  0  0  0  0  0  0
    6.5946   25.5664   -4.2495 O   0  0  0  0  0  0  0  0  0  0  0  0
    7.6056   24.1021   -5.9502 C   0  0  0  0  0  0  0  0  0  0  0  0
    6.7689   23.0690   -5.8630 C   0  0  0  0  0  0  0  0  0  0  0  0
    7.0991   21.8235   -6.4689 C   0  0  0  0  0  0  0  0  0  0  0  0
    7.3874   20.8302   -6.9570 N   0  0  0  0  0  0  0  0  0  0  0  0
  3  4  1  0  0  0
  3  2  2  0  0  0
  4 12  1  0  0  0
  2 11  1  0  0  0
 12 11  2  0  0  0
 12  9  1  0  0  0
 11 10  1  0  0  0
  9  1  2  0  0  0
 18 17  1  0  0  0
 18 19  1  0  0  0
 17 16  1  0  0  0
  1  8  1  0  0  0
 10  8  2  0  0  0
 10  6  1  0  0  0
 19 14  1  0  0  0
  8  7  1  0  0  0
 14  6  1  0  0  0
 14 15  1  0  0  0
  6  5  1  0  0  0
 16 15  1  0  0  0
  7  5  2  0  0  0
  5 20  1  0  0  0
 20 21  2  0  0  0
 20 24  1  0  0  0
 21 22  1  0  0  0
 24 23  1  0  0  0
 22 23  2  0  0  0
 23 25  1  0  0  0
 25 26  2  0  0  0
 26 27  1  0  0  0
 27 28  3  0  0  0
  4 13  1  0  0  0
M  END
> <minimizedAffinity>
-8.13194

$$$$
