6GLA_F4B_A_1201
  RCSB PDB06231805483D
Coordinates from PDB:6GLA:A:1201 Model:1 without hydrogens
 27 31  0  0  0  0            999 V2000
   -1.6750   22.6170   -2.7390   C 0  0  0  0  0  0  0  0  0  0  0  0
    2.1360   21.9460   -4.3610   C 0  0  0  0  0  0  0  0  0  0  0  0
    1.7370   20.9010   -5.1210   C 0  0  0  0  0  0  0  0  0  0  0  0
    0.3910   20.7050   -4.9740   N 0  0  0  0  0  0  0  0  0  0  0  0
    0.3950   24.9280   -1.1130   C 0  0  0  0  0  0  0  0  0  0  0  0
    0.5280   26.0110   -0.1660   C 0  0  0  0  0  0  0  0  0  0  0  0
    1.3100   24.3380   -1.9600   N 0  0  0  0  0  0  0  0  0  0  0  0
   -0.3280   27.0190    0.1160   C 0  0  0  0  0  0  0  0  0  0  0  0
    0.2220   27.7460    1.1830   C 0  0  0  0  0  0  0  0  0  0  0  0
    1.3860   27.1540    1.5120   C 0  0  0  0  0  0  0  0  0  0  0  0
    2.2980   27.4910    2.5730   C 0  0  0  0  0  0  0  0  0  0  0  0
   -0.8170   24.4420   -1.2480   N 0  0  0  0  0  0  0  0  0  0  0  0
    2.0800   28.4700    3.4500   C 0  0  0  0  0  0  0  0  0  0  0  0
    3.0040   28.7070    4.5070   C 0  0  0  0  0  0  0  0  0  0  0  0
    2.7560   24.5760   -2.2190   C 0  0  0  0  0  0  0  0  0  0  0  0
    3.7450   28.8740    5.3620   N 0  0  0  0  0  0  0  0  0  0  0  0
    1.6060   26.0700    0.6860   O 0  0  0  0  0  0  0  0  0  0  0  0
   -0.7030   23.4700   -2.2370   C 0  0  0  0  0  0  0  0  0  0  0  0
   -1.4120   21.6780   -3.6600   N 0  0  0  0  0  0  0  0  0  0  0  0
    0.6010   23.3780   -2.7000   C 0  0  0  0  0  0  0  0  0  0  0  0
    0.9630   22.4270   -3.6750   C 0  0  0  0  0  0  0  0  0  0  0  0
   -0.1320   21.6100   -4.0940   C 0  0  0  0  0  0  0  0  0  0  0  0
    3.6950   23.8940   -1.2370   C 0  0  0  0  0  0  0  0  0  0  0  0
    5.1300   24.4090   -1.3940   C 0  0  0  0  0  0  0  0  0  0  0  0
    5.3900   24.9070   -2.8170   C 0  0  0  0  0  0  0  0  0  0  0  0
    4.4930   26.0990   -3.1690   C 0  0  0  0  0  0  0  0  0  0  0  0
    3.1190   26.0150   -2.5030   C 0  0  0  0  0  0  0  0  0  0  0  0
  3  4  1  0  0  0  0
  3  2  2  0  0  0  0
  4 22  1  0  0  0  0
  2 21  1  0  0  0  0
 22 21  2  0  0  0  0
 22 19  1  0  0  0  0
 21 20  1  0  0  0  0
 19  1  2  0  0  0  0
 26 25  1  0  0  0  0
 26 27  1  0  0  0  0
 25 24  1  0  0  0  0
  1 18  1  0  0  0  0
 20 18  2  0  0  0  0
 20  7  1  0  0  0  0
 27 15  1  0  0  0  0
 18 12  1  0  0  0  0
 15  7  1  0  0  0  0
 15 23  1  0  0  0  0
  7  5  1  0  0  0  0
 24 23  1  0  0  0  0
 12  5  2  0  0  0  0
  5  6  1  0  0  0  0
  6  8  2  0  0  0  0
  6 17  1  0  0  0  0
  8  9  1  0  0  0  0
 17 10  1  0  0  0  0
  9 10  2  0  0  0  0
 10 11  1  0  0  0  0
 11 13  2  0  0  0  0
 13 14  1  0  0  0  0
 14 16  3  0  0  0  0
A    1
C4
A    2
C5
A    3
C6
A    4
N1
A    5
C7
A    6
C8
A    7
N2
A    8
C9
A    9
C10
A   10
C11
A   11
C12
A   12
N3
A   13
C13
A   14
C14
A   15
C15
A   16
N4
A   17
O
A   18
C
A   19
N
A   20
C1
A   21
C2
A   22
C3
A   23
C20
A   24
C19
A   25
C18
A   26
C17
A   27
C16
M  END
>  <InstanceId>
6GLA_F4B_A_1201

>  <ChemCompId>
F4B

>  <PdbId>
6GLA

>  <ChainId>
A

>  <ResidueNumber>
1201

>  <InsertionCode>


>  <Model>
1

>  <AltIds>


>  <MissingHeavyAtoms>
0

>  <ObservedFormula>
C21 N5 O

>  <Name>
(~{E})-3-[5-(3-cyclohexyl-3,5,8,10-tetrazatricyclo[7.3.0.0^{2,6}]dodeca-1(9),2(6),4,7,11-pentaen-4-yl)furan-2-yl]prop-2-enenitrile

>  <SystematicName>
(~{E})-3-[5-(3-cyclohexyl-3,5,8,10-tetrazatricyclo[7.3.0.0^{2,6}]dodeca-1(9),2(6),4,7,11-pentaen-4-yl)furan-2-yl]prop-2-enenitrile

>  <Synonyms>


>  <Type>
NON-POLYMER

>  <Formula>
C21 H19 N5 O

>  <MolecularWeight>
357.408

>  <ModifiedDate>
2018-06-22

>  <Parent>


>  <OneLetterCode>


>  <SubcomponentList>


>  <AmbiguousFlag>
N

>  <InChI>
InChI=1S/C21H19N5O/c22-11-4-7-15-8-9-18(27-15)21-25-17-13-24-20-16(10-12-23-20)19(17)26(21)14-5-2-1-3-6-14/h4,7-10,12-14H,1-3,5-6H2,(H,23,24)/b7-4+

>  <InChIKey>
UUVPPNMLZDVPOR-QPJJXVBHSA-N

>  <SMILES>
c1cc(oc1/C=C/C#N)c2nc3cnc4c(c3n2C5CCCCC5)cc[nH]4

$$$$
