4MR3_1K0_A_202
  RCSB PDB12061713463D
Coordinates from PDB:4MR3:A:202 Model:1 without hydrogens
 24 26  0  0  0  0            999 V2000
   22.4690   31.5070   20.6270   O 0  0  0  0  0  0  0  0  0  0  0  0
   23.2390   31.2210   19.4790   C 0  0  0  0  0  0  0  0  0  0  0  0
   22.4540   32.7550   21.1970   C 0  0  0  0  0  0  0  0  0  0  0  0
   21.5710   33.0200   22.2560   C 0  0  0  0  0  0  0  0  0  0  0  0
   21.4970   34.2350   22.8460   C 0  0  0  0  0  0  0  0  0  0  0  0
   23.0880   37.6200   22.4370   N 0  0  0  0  0  0  0  0  0  0  0  0
   19.8640   33.4040   24.4470   C 0  0  0  0  0  0  0  0  0  0  0  0
   20.6610   34.4930   23.9260   O 0  0  0  0  0  0  0  0  0  0  0  0
   22.2900   35.3110   22.4130   C 0  0  0  0  0  0  0  0  0  0  0  0
   27.1960   41.5700   19.7830   O 0  0  0  0  0  0  0  0  0  0  0  0
   23.9620   36.0700   20.8360   N 0  0  0  0  0  0  0  0  0  0  0  0
   22.2460   36.6240   22.9880   C 0  0  0  0  0  0  0  0  0  0  0  0
   23.8980   37.3060   21.3890   C 0  0  0  0  0  0  0  0  0  0  0  0
   21.4940   36.9730   23.9220   O 0  0  0  0  0  0  0  0  0  0  0  0
   24.7590   38.3670   20.8420   C 0  0  0  0  0  0  0  0  0  0  0  0
   26.0220   38.1430   20.2540   C 0  0  0  0  0  0  0  0  0  0  0  0
   26.8270   39.2150   19.8920   C 0  0  0  0  0  0  0  0  0  0  0  0
   28.1800   38.8780   19.3520   C 0  0  0  0  0  0  0  0  0  0  0  0
   26.3720   40.5500   20.0640   C 0  0  0  0  0  0  0  0  0  0  0  0
   25.1080   40.7880   20.5860   C 0  0  0  0  0  0  0  0  0  0  0  0
   24.6350   42.2030   20.7390   C 0  0  0  0  0  0  0  0  0  0  0  0
   24.3180   39.7290   20.9730   C 0  0  0  0  0  0  0  0  0  0  0  0
   23.1720   35.0130   21.3330   C 0  0  0  0  0  0  0  0  0  0  0  0
   23.2720   33.7710   20.7290   C 0  0  0  0  0  0  0  0  0  0  0  0
  7  8  1  0  0  0  0
  8  5  1  0  0  0  0
  4  5  2  0  0  0  0
  4  3  1  0  0  0  0
  1  3  1  0  0  0  0
  1  2  1  0  0  0  0
  5  9  1  0  0  0  0
  3 24  2  0  0  0  0
  9 23  2  0  0  0  0
  9 12  1  0  0  0  0
 24 23  1  0  0  0  0
 14 12  2  0  0  0  0
 23 11  1  0  0  0  0
 12  6  1  0  0  0  0
 11 13  2  0  0  0  0
  6 13  1  0  0  0  0
 13 15  1  0  0  0  0
 15 16  2  0  0  0  0
 15 22  1  0  0  0  0
 16 17  1  0  0  0  0
 22 20  2  0  0  0  0
 17 18  1  0  0  0  0
 17 19  2  0  0  0  0
 20 19  1  0  0  0  0
 20 21  1  0  0  0  0
 19 10  1  0  0  0  0
A    1
O1
A    2
C1
A    3
C2
A    4
C3
A    5
C4
A    6
N1
A    7
C5
A    8
O2
A    9
C6
A   10
O3
A   11
N2
A   12
C7
A   13
C8
A   14
O5
A   15
C9
A   16
C18
A   17
C16
A   18
C17
A   19
C13
A   20
C11
A   21
C12
A   22
C10
A   23
C19
A   24
C20
M  END
>  <InstanceId>
4MR3_1K0_A_202

>  <ChemCompId>
1K0

>  <PdbId>
4MR3

>  <ChainId>
A

>  <ResidueNumber>
202

>  <InsertionCode>


>  <Model>
1

>  <AltIds>


>  <MissingHeavyAtoms>
3

>  <ObservedFormula>
C18 N2 O4

>  <Name>
2-[4-(2-hydroxyethoxy)-3,5-dimethylphenyl]-5,7-dimethoxyquinazolin-4(3H)-one

>  <SystematicName>
2-[4-(2-hydroxyethyloxy)-3,5-dimethyl-phenyl]-5,7-dimethoxy-3H-quinazolin-4-one

>  <Synonyms>


>  <Type>
NON-POLYMER

>  <Formula>
C20 H22 N2 O5

>  <MolecularWeight>
370.399

>  <ModifiedDate>
2013-11-22

>  <Parent>


>  <OneLetterCode>


>  <SubcomponentList>


>  <AmbiguousFlag>
N

>  <InChI>
InChI=1S/C20H22N2O5/c1-11-7-13(8-12(2)18(11)27-6-5-23)19-21-15-9-14(25-3)10-16(26-4)17(15)20(24)22-19/h7-10,23H,5-6H2,1-4H3,(H,21,22,24)

>  <InChIKey>
NETXMUIMUZJUTB-UHFFFAOYSA-N

>  <SMILES>
Cc1cc(cc(c1OCCO)C)C2=Nc3cc(cc(c3C(=O)N2)OC)OC

$$$$
