1W4P_UM3_A_1125


 24 25  0  0  0  0  0  0  0  0999 V2000
   36.6940   -3.9158   12.6629 C   0  0  0  0  0  0  0  0  0  0  0  0
   35.9743   -2.5648   13.2065 C   0  0  0  0  0  0  0  0  0  0  0  0
   37.3015   -1.6717   13.4672 C   0  0  0  0  0  0  0  0  0  0  0  0
   38.2901   -2.6566   14.1075 C   0  0  0  0  0  0  0  0  0  0  0  0
   38.0417   -3.7799   13.2618 O   0  0  0  0  0  0  0  0  0  0  0  0
   35.7671   -4.9078   12.1835 N   0  0  0  0  0  0  0  0  0  0  0  0
   35.3894   -5.1893   10.8456 C   0  0  0  0  0  0  0  0  0  0  0  0
   34.4977   -6.2505   10.7274 N   0  0  0  0  0  0  0  0  0  0  0  0
   33.9575   -7.0348   11.7728 C   0  0  0  0  0  0  0  0  0  0  0  0
   34.3931   -6.6769   13.0955 C   0  0  0  0  0  0  0  0  0  0  0  0
   35.2624   -5.6499   13.2540 C   0  0  0  0  0  0  0  0  0  0  0  0
   35.7985   -4.5708    9.8603 O   0  0  0  0  0  0  0  0  0  0  0  0
   33.1815   -7.9417   11.5081 O   0  0  0  0  0  0  0  0  0  0  0  0
   34.2109   -6.4812    9.8143 H   0  0  0  0  0  0  0  0  0  0  0  0
   38.3469   -2.5140   15.6185 C   0  0  0  0  0  0  0  0  0  0  0  0
   37.9469   -3.9274   15.9211 O   0  0  0  0  0  0  0  0  0  0  0  0
   37.1042   -4.1256   15.4837 H   0  0  0  0  0  0  0  0  0  0  0  0
   37.7890   -0.9656   12.6407 O   0  0  0  0  0  0  0  0  0  0  0  0
   37.3474    0.5062   12.7178 P   0  0  0  0  0  0  0  0  0  0  0  0
   38.3407    1.6734   12.9289 O   0  0  0  0  0  0  0  0  0  0  0  0
   36.8805    1.1427   11.3597 O   0  0  0  0  0  0  0  0  0  0  0  0
   36.1349    1.4842   13.6826 O   0  0  0  0  0  0  0  0  0  0  0  0
   37.4016    0.7694   10.6317 H   0  0  0  0  0  0  0  0  0  0  0  0
   36.2187    1.2652   14.6238 H   0  0  0  0  0  0  0  0  0  0  0  0
  6  7  1  0  0  0
  6 11  1  0  0  0
  6  1  1  0  0  0
  7  8  1  0  0  0
  7 12  2  0  0  0
  8  9  1  0  0  0
  9 10  1  0  0  0
  9 13  2  0  0  0
 10 11  2  0  0  0
  1  2  1  0  0  0
  1  5  1  0  0  0
  2  3  1  0  0  0
  3  4  1  0  0  0
  3 18  1  0  0  0
  4  5  1  0  0  0
  4 15  1  0  0  0
 18 19  1  0  0  0
 15 16  1  0  0  0
 19 20  2  0  0  0
 19 21  1  0  0  0
 19 22  1  0  0  0
  8 14  1  0  0  0
 16 17  1  0  0  0
 21 23  1  0  0  0
 22 24  1  0  0  0
M  END
> <minimizedAffinity>
-7.09709

$$$$
1W4P_UM3_A_1125


 24 25  0  0  0  0  0  0  0  0999 V2000
   37.6455   -2.0903   12.4880 C   0  0  0  0  0  0  0  0  0  0  0  0
   37.5244   -0.9779   13.6656 C   0  0  0  0  0  0  0  0  0  0  0  0
   38.6512    0.0594   13.1354 C   0  0  0  0  0  0  0  0  0  0  0  0
   39.8000   -0.8476   12.6717 C   0  0  0  0  0  0  0  0  0  0  0  0
   39.0231   -1.8422   12.0041 O   0  0  0  0  0  0  0  0  0  0  0  0
   36.6473   -3.1247   12.5695 N   0  0  0  0  0  0  0  0  0  0  0  0
   35.5252   -3.3366   11.7281 C   0  0  0  0  0  0  0  0  0  0  0  0
   34.7815   -4.4641   12.0608 N   0  0  0  0  0  0  0  0  0  0  0  0
   35.0308   -5.3734   13.1148 C   0  0  0  0  0  0  0  0  0  0  0  0
   36.1867   -5.0790   13.9176 C   0  0  0  0  0  0  0  0  0  0  0  0
   36.9390   -3.9906   13.6261 C   0  0  0  0  0  0  0  0  0  0  0  0
   35.2151   -2.6088   10.7822 O   0  0  0  0  0  0  0  0  0  0  0  0
   34.2822   -6.3257   13.2803 O   0  0  0  0  0  0  0  0  0  0  0  0
   33.9940   -4.6498   11.5000 H   0  0  0  0  0  0  0  0  0  0  0  0
   40.9078   -0.9470   13.7060 C   0  0  0  0  0  0  0  0  0  0  0  0
   40.7502    0.4477   14.2342 O   0  0  0  0  0  0  0  0  0  0  0  0
   40.8244    1.0807   13.5029 H   0  0  0  0  0  0  0  0  0  0  0  0
   38.4152    0.9596   12.3915 O   0  0  0  0  0  0  0  0  0  0  0  0
   37.4504    2.0172   12.9554 P   0  0  0  0  0  0  0  0  0  0  0  0
   37.9062    3.1537   13.9011 O   0  0  0  0  0  0  0  0  0  0  0  0
   36.9335    3.0794   11.9200 O   0  0  0  0  0  0  0  0  0  0  0  0
   35.8616    2.0189   13.8680 O   0  0  0  0  0  0  0  0  0  0  0  0
   37.6336    3.2710   11.2765 H   0  0  0  0  0  0  0  0  0  0  0  0
   35.9161    1.4002   14.6131 H   0  0  0  0  0  0  0  0  0  0  0  0
  6  7  1  0  0  0
  6 11  1  0  0  0
  6  1  1  0  0  0
  7  8  1  0  0  0
  7 12  2  0  0  0
  8  9  1  0  0  0
  9 10  1  0  0  0
  9 13  2  0  0  0
 10 11  2  0  0  0
  1  2  1  0  0  0
  1  5  1  0  0  0
  2  3  1  0  0  0
  3  4  1  0  0  0
  3 18  1  0  0  0
  4  5  1  0  0  0
  4 15  1  0  0  0
 18 19  1  0  0  0
 15 16  1  0  0  0
 19 20  2  0  0  0
 19 21  1  0  0  0
 19 22  1  0  0  0
  8 14  1  0  0  0
 16 17  1  0  0  0
 21 23  1  0  0  0
 22 24  1  0  0  0
M  END
> <minimizedAffinity>
-6.99676

$$$$
1W4P_UM3_A_1125


 24 25  0  0  0  0  0  0  0  0999 V2000
   38.1538   -2.0275   12.7385 C   0  0  0  0  0  0  0  0  0  0  0  0
   38.0751   -0.8598   13.8651 C   0  0  0  0  0  0  0  0  0  0  0  0
   38.5812    0.3851   12.9590 C   0  0  0  0  0  0  0  0  0  0  0  0
   39.7426   -0.1998   12.1426 C   0  0  0  0  0  0  0  0  0  0  0  0
   39.1479   -1.4527   11.8032 O   0  0  0  0  0  0  0  0  0  0  0  0
   37.6163   -3.2885   13.1791 N   0  0  0  0  0  0  0  0  0  0  0  0
   38.3168   -4.4454   13.6065 C   0  0  0  0  0  0  0  0  0  0  0  0
   37.4856   -5.4848   14.0115 N   0  0  0  0  0  0  0  0  0  0  0  0
   36.0717   -5.4918   14.0315 C   0  0  0  0  0  0  0  0  0  0  0  0
   35.4464   -4.2788   13.5788 C   0  0  0  0  0  0  0  0  0  0  0  0
   36.2201   -3.2418   13.1769 C   0  0  0  0  0  0  0  0  0  0  0  0
   39.5454   -4.5481   13.6303 O   0  0  0  0  0  0  0  0  0  0  0  0
   35.4782   -6.4877   14.4198 O   0  0  0  0  0  0  0  0  0  0  0  0
   37.9315   -6.3072   14.3183 H   0  0  0  0  0  0  0  0  0  0  0  0
   41.0965    0.1572   12.7310 C   0  0  0  0  0  0  0  0  0  0  0  0
   41.2502    1.4511   11.9884 O   0  0  0  0  0  0  0  0  0  0  0  0
   41.1623    1.2896   11.0360 H   0  0  0  0  0  0  0  0  0  0  0  0
   37.8459    1.0773   12.3268 O   0  0  0  0  0  0  0  0  0  0  0  0
   37.2504    2.2593   13.1111 P   0  0  0  0  0  0  0  0  0  0  0  0
   36.6430    3.5053   12.4238 O   0  0  0  0  0  0  0  0  0  0  0  0
   35.8779    1.9755   13.8204 O   0  0  0  0  0  0  0  0  0  0  0  0
   37.8003    3.3802   14.4521 O   0  0  0  0  0  0  0  0  0  0  0  0
   35.3545    1.3641   13.2790 H   0  0  0  0  0  0  0  0  0  0  0  0
   38.6855    3.7197   14.2471 H   0  0  0  0  0  0  0  0  0  0  0  0
  6  7  1  0  0  0
  6 11  1  0  0  0
  6  1  1  0  0  0
  7  8  1  0  0  0
  7 12  2  0  0  0
  8  9  1  0  0  0
  9 10  1  0  0  0
  9 13  2  0  0  0
 10 11  2  0  0  0
  1  2  1  0  0  0
  1  5  1  0  0  0
  2  3  1  0  0  0
  3  4  1  0  0  0
  3 18  1  0  0  0
  4  5  1  0  0  0
  4 15  1  0  0  0
 18 19  1  0  0  0
 15 16  1  0  0  0
 19 20  2  0  0  0
 19 21  1  0  0  0
 19 22  1  0  0  0
  8 14  1  0  0  0
 16 17  1  0  0  0
 21 23  1  0  0  0
 22 24  1  0  0  0
M  END
> <minimizedAffinity>
-6.63758

$$$$
1W4P_UM3_A_1125


 24 25  0  0  0  0  0  0  0  0999 V2000
   36.1845   -3.2869   12.7312 C   0  0  0  0  0  0  0  0  0  0  0  0
   37.6357   -3.6763   13.3485 C   0  0  0  0  0  0  0  0  0  0  0  0
   38.0534   -2.2191   13.9222 C   0  0  0  0  0  0  0  0  0  0  0  0
   37.6171   -1.2473   12.8165 C   0  0  0  0  0  0  0  0  0  0  0  0
   36.3495   -1.8312   12.5148 O   0  0  0  0  0  0  0  0  0  0  0  0
   35.4414   -4.4222   12.2494 N   0  0  0  0  0  0  0  0  0  0  0  0
   35.3098   -4.8898   10.9168 C   0  0  0  0  0  0  0  0  0  0  0  0
   34.5501   -6.0497   10.8034 N   0  0  0  0  0  0  0  0  0  0  0  0
   33.9246   -6.7687   11.8482 C   0  0  0  0  0  0  0  0  0  0  0  0
   34.1086   -6.2208   13.1648 C   0  0  0  0  0  0  0  0  0  0  0  0
   34.8430   -5.0928   13.3189 C   0  0  0  0  0  0  0  0  0  0  0  0
   35.8120   -4.3425    9.9325 O   0  0  0  0  0  0  0  0  0  0  0  0
   33.2879   -7.7795   11.5886 O   0  0  0  0  0  0  0  0  0  0  0  0
   34.4352   -6.4102    9.8945 H   0  0  0  0  0  0  0  0  0  0  0  0
   38.7774   -0.8227   11.9332 C   0  0  0  0  0  0  0  0  0  0  0  0
   39.8223   -0.8967   13.0064 O   0  0  0  0  0  0  0  0  0  0  0  0
   39.5553   -0.3426   13.7564 H   0  0  0  0  0  0  0  0  0  0  0  0
   37.7905   -1.8483   15.0235 O   0  0  0  0  0  0  0  0  0  0  0  0
   38.4562   -2.6621   16.1467 P   0  0  0  0  0  0  0  0  0  0  0  0
   39.8393   -2.3034   16.7402 O   0  0  0  0  0  0  0  0  0  0  0  0
   37.8024   -2.5122   17.5671 O   0  0  0  0  0  0  0  0  0  0  0  0
   38.8859   -4.4183   16.4441 O   0  0  0  0  0  0  0  0  0  0  0  0
   37.4693   -1.6077   17.6759 H   0  0  0  0  0  0  0  0  0  0  0  0
   39.3336   -4.7784   15.6626 H   0  0  0  0  0  0  0  0  0  0  0  0
  6  7  1  0  0  0
  6 11  1  0  0  0
  6  1  1  0  0  0
  7  8  1  0  0  0
  7 12  2  0  0  0
  8  9  1  0  0  0
  9 10  1  0  0  0
  9 13  2  0  0  0
 10 11  2  0  0  0
  1  2  1  0  0  0
  1  5  1  0  0  0
  2  3  1  0  0  0
  3  4  1  0  0  0
  3 18  1  0  0  0
  4  5  1  0  0  0
  4 15  1  0  0  0
 18 19  1  0  0  0
 15 16  1  0  0  0
 19 20  2  0  0  0
 19 21  1  0  0  0
 19 22  1  0  0  0
  8 14  1  0  0  0
 16 17  1  0  0  0
 21 23  1  0  0  0
 22 24  1  0  0  0
M  END
> <minimizedAffinity>
-6.61037

$$$$
1W4P_UM3_A_1125


 24 25  0  0  0  0  0  0  0  0999 V2000
   38.5375   -0.2804   12.4650 C   0  0  0  0  0  0  0  0  0  0  0  0
   38.3293    0.4881   13.8808 C   0  0  0  0  0  0  0  0  0  0  0  0
   39.3160    1.7472   13.6201 C   0  0  0  0  0  0  0  0  0  0  0  0
   40.5442    1.1209   12.9441 C   0  0  0  0  0  0  0  0  0  0  0  0
   39.8631    0.2365   12.0538 O   0  0  0  0  0  0  0  0  0  0  0  0
   37.6643   -1.4120   12.2913 N   0  0  0  0  0  0  0  0  0  0  0  0
   37.8209   -2.7319   12.7865 C   0  0  0  0  0  0  0  0  0  0  0  0
   36.7619   -3.5770   12.4711 N   0  0  0  0  0  0  0  0  0  0  0  0
   35.5994   -3.2539   11.7335 C   0  0  0  0  0  0  0  0  0  0  0  0
   35.5266   -1.8952   11.2686 C   0  0  0  0  0  0  0  0  0  0  0  0
   36.5368   -1.0393   11.5555 C   0  0  0  0  0  0  0  0  0  0  0  0
   38.7915   -3.1213   13.4398 O   0  0  0  0  0  0  0  0  0  0  0  0
   34.7497   -4.1112   11.5395 O   0  0  0  0  0  0  0  0  0  0  0  0
   36.8292   -4.5032   12.7980 H   0  0  0  0  0  0  0  0  0  0  0  0
   41.6876    0.9006   13.9192 C   0  0  0  0  0  0  0  0  0  0  0  0
   41.3153    2.0184   14.8472 O   0  0  0  0  0  0  0  0  0  0  0  0
   41.2567    2.8477   14.3474 H   0  0  0  0  0  0  0  0  0  0  0  0
   38.9579    2.7684   13.1217 O   0  0  0  0  0  0  0  0  0  0  0  0
   37.4312    2.9522   13.0700 P   0  0  0  0  0  0  0  0  0  0  0  0
   36.7380    4.3130   13.3180 O   0  0  0  0  0  0  0  0  0  0  0  0
   36.7912    2.8818   11.6372 O   0  0  0  0  0  0  0  0  0  0  0  0
   35.9683    2.1689   13.8469 O   0  0  0  0  0  0  0  0  0  0  0  0
   37.4061    3.2603   10.9895 H   0  0  0  0  0  0  0  0  0  0  0  0
   36.1140    2.0883   14.8025 H   0  0  0  0  0  0  0  0  0  0  0  0
  6  7  1  0  0  0
  6 11  1  0  0  0
  6  1  1  0  0  0
  7  8  1  0  0  0
  7 12  2  0  0  0
  8  9  1  0  0  0
  9 10  1  0  0  0
  9 13  2  0  0  0
 10 11  2  0  0  0
  1  2  1  0  0  0
  1  5  1  0  0  0
  2  3  1  0  0  0
  3  4  1  0  0  0
  3 18  1  0  0  0
  4  5  1  0  0  0
  4 15  1  0  0  0
 18 19  1  0  0  0
 15 16  1  0  0  0
 19 20  2  0  0  0
 19 21  1  0  0  0
 19 22  1  0  0  0
  8 14  1  0  0  0
 16 17  1  0  0  0
 21 23  1  0  0  0
 22 24  1  0  0  0
M  END
> <minimizedAffinity>
-6.55038

$$$$
1W4P_UM3_A_1125


 24 25  0  0  0  0  0  0  0  0999 V2000
   35.2439   -4.7884   11.8983 C   0  0  0  0  0  0  0  0  0  0  0  0
   36.3865   -5.8507   11.4454 C   0  0  0  0  0  0  0  0  0  0  0  0
   35.4178   -7.0613   10.9734 C   0  0  0  0  0  0  0  0  0  0  0  0
   34.3245   -7.1017   12.0506 C   0  0  0  0  0  0  0  0  0  0  0  0
   34.1083   -5.6963   12.1803 O   0  0  0  0  0  0  0  0  0  0  0  0
   35.7690   -3.4950   12.2509 N   0  0  0  0  0  0  0  0  0  0  0  0
   36.5043   -3.1261   13.4064 C   0  0  0  0  0  0  0  0  0  0  0  0
   36.9024   -1.7932   13.4142 N   0  0  0  0  0  0  0  0  0  0  0  0
   36.6492   -0.8185   12.4214 C   0  0  0  0  0  0  0  0  0  0  0  0
   35.8949   -1.2801   11.2877 C   0  0  0  0  0  0  0  0  0  0  0  0
   35.4890   -2.5719   11.2405 C   0  0  0  0  0  0  0  0  0  0  0  0
   36.7818   -3.8931   14.3312 O   0  0  0  0  0  0  0  0  0  0  0  0
   37.0701    0.3195   12.5712 O   0  0  0  0  0  0  0  0  0  0  0  0
   37.4180   -1.4953   14.1982 H   0  0  0  0  0  0  0  0  0  0  0  0
   34.5703   -8.1921   13.0790 C   0  0  0  0  0  0  0  0  0  0  0  0
   33.4467   -7.7987   13.9911 O   0  0  0  0  0  0  0  0  0  0  0  0
   33.5436   -6.8662   14.2400 H   0  0  0  0  0  0  0  0  0  0  0  0
   35.0056   -7.1755    9.8614 O   0  0  0  0  0  0  0  0  0  0  0  0
   35.9937   -7.8267    8.8782 P   0  0  0  0  0  0  0  0  0  0  0  0
   37.3880   -8.3442    9.3047 O   0  0  0  0  0  0  0  0  0  0  0  0
   35.6048   -9.2665    8.3850 O   0  0  0  0  0  0  0  0  0  0  0  0
   36.7486   -7.3937    7.2658 O   0  0  0  0  0  0  0  0  0  0  0  0
   35.1572   -9.7436    9.1012 H   0  0  0  0  0  0  0  0  0  0  0  0
   37.0925   -6.4875    7.3028 H   0  0  0  0  0  0  0  0  0  0  0  0
  6  7  1  0  0  0
  6 11  1  0  0  0
  6  1  1  0  0  0
  7  8  1  0  0  0
  7 12  2  0  0  0
  8  9  1  0  0  0
  9 10  1  0  0  0
  9 13  2  0  0  0
 10 11  2  0  0  0
  1  2  1  0  0  0
  1  5  1  0  0  0
  2  3  1  0  0  0
  3  4  1  0  0  0
  3 18  1  0  0  0
  4  5  1  0  0  0
  4 15  1  0  0  0
 18 19  1  0  0  0
 15 16  1  0  0  0
 19 20  2  0  0  0
 19 21  1  0  0  0
 19 22  1  0  0  0
  8 14  1  0  0  0
 16 17  1  0  0  0
 21 23  1  0  0  0
 22 24  1  0  0  0
M  END
> <minimizedAffinity>
-6.36742

$$$$
1W4P_UM3_A_1125


 24 25  0  0  0  0  0  0  0  0999 V2000
   37.0565   -3.5088   13.5498 C   0  0  0  0  0  0  0  0  0  0  0  0
   36.3424   -4.3059   12.3277 C   0  0  0  0  0  0  0  0  0  0  0  0
   36.2255   -5.7641   13.0256 C   0  0  0  0  0  0  0  0  0  0  0  0
   37.5730   -5.9413   13.7400 C   0  0  0  0  0  0  0  0  0  0  0  0
   37.6952   -4.6262   14.2825 O   0  0  0  0  0  0  0  0  0  0  0  0
   37.1834   -2.0936   13.3166 N   0  0  0  0  0  0  0  0  0  0  0  0
   37.9568   -1.1466   14.0354 C   0  0  0  0  0  0  0  0  0  0  0  0
   37.8894    0.1416   13.5146 N   0  0  0  0  0  0  0  0  0  0  0  0
   37.1514    0.5716   12.3876 C   0  0  0  0  0  0  0  0  0  0  0  0
   36.3949   -0.4546   11.7226 C   0  0  0  0  0  0  0  0  0  0  0  0
   36.4343   -1.7229   12.1973 C   0  0  0  0  0  0  0  0  0  0  0  0
   38.6364   -1.4114   15.0297 O   0  0  0  0  0  0  0  0  0  0  0  0
   37.1954    1.7455   12.0490 O   0  0  0  0  0  0  0  0  0  0  0  0
   38.4139    0.8307   13.9828 H   0  0  0  0  0  0  0  0  0  0  0  0
   38.5354   -6.8075   12.9462 C   0  0  0  0  0  0  0  0  0  0  0  0
   37.4844   -7.6901   12.3416 O   0  0  0  0  0  0  0  0  0  0  0  0
   36.9470   -8.0829   13.0472 H   0  0  0  0  0  0  0  0  0  0  0  0
   35.2860   -6.1076   13.6728 O   0  0  0  0  0  0  0  0  0  0  0  0
   34.1871   -6.8261   12.8708 P   0  0  0  0  0  0  0  0  0  0  0  0
   34.4935   -7.8713   11.7720 O   0  0  0  0  0  0  0  0  0  0  0  0
   33.3620   -7.8989   13.6682 O   0  0  0  0  0  0  0  0  0  0  0  0
   32.7318   -6.3364   11.8711 O   0  0  0  0  0  0  0  0  0  0  0  0
   33.9395   -8.3380   14.3121 H   0  0  0  0  0  0  0  0  0  0  0  0
   32.9866   -5.6352   11.2512 H   0  0  0  0  0  0  0  0  0  0  0  0
  6  7  1  0  0  0
  6 11  1  0  0  0
  6  1  1  0  0  0
  7  8  1  0  0  0
  7 12  2  0  0  0
  8  9  1  0  0  0
  9 10  1  0  0  0
  9 13  2  0  0  0
 10 11  2  0  0  0
  1  2  1  0  0  0
  1  5  1  0  0  0
  2  3  1  0  0  0
  3  4  1  0  0  0
  3 18  1  0  0  0
  4  5  1  0  0  0
  4 15  1  0  0  0
 18 19  1  0  0  0
 15 16  1  0  0  0
 19 20  2  0  0  0
 19 21  1  0  0  0
 19 22  1  0  0  0
  8 14  1  0  0  0
 16 17  1  0  0  0
 21 23  1  0  0  0
 22 24  1  0  0  0
M  END
> <minimizedAffinity>
-6.31739

$$$$
1W4P_UM3_A_1125


 24 25  0  0  0  0  0  0  0  0999 V2000
   37.3153   -1.8040   12.8456 C   0  0  0  0  0  0  0  0  0  0  0  0
   38.2587   -1.1147   11.7171 C   0  0  0  0  0  0  0  0  0  0  0  0
   38.9785   -0.0019   12.6502 C   0  0  0  0  0  0  0  0  0  0  0  0
   37.8401    0.5366   13.5285 C   0  0  0  0  0  0  0  0  0  0  0  0
   37.2075   -0.7064   13.8342 O   0  0  0  0  0  0  0  0  0  0  0  0
   36.6166   -2.9719   12.3756 N   0  0  0  0  0  0  0  0  0  0  0  0
   35.5204   -3.0430   11.4783 C   0  0  0  0  0  0  0  0  0  0  0  0
   35.1104   -4.3424   11.1978 N   0  0  0  0  0  0  0  0  0  0  0  0
   35.6610   -5.5419   11.7056 C   0  0  0  0  0  0  0  0  0  0  0  0
   36.7662   -5.3743   12.6099 C   0  0  0  0  0  0  0  0  0  0  0  0
   37.1975   -4.1252   12.9084 C   0  0  0  0  0  0  0  0  0  0  0  0
   34.9649   -2.0631   10.9763 O   0  0  0  0  0  0  0  0  0  0  0  0
   35.1894   -6.6160   11.3611 O   0  0  0  0  0  0  0  0  0  0  0  0
   34.3526   -4.4375   10.5767 H   0  0  0  0  0  0  0  0  0  0  0  0
   37.2929    1.8571   13.0152 C   0  0  0  0  0  0  0  0  0  0  0  0
   35.9798    1.7691   13.7345 O   0  0  0  0  0  0  0  0  0  0  0  0
   35.5385    0.9374   13.5013 H   0  0  0  0  0  0  0  0  0  0  0  0
   39.9936   -0.1998   13.2417 O   0  0  0  0  0  0  0  0  0  0  0  0
   41.0247    0.9374   13.1377 P   0  0  0  0  0  0  0  0  0  0  0  0
   40.8771    2.1203   12.1515 O   0  0  0  0  0  0  0  0  0  0  0  0
   41.0466    1.9410   14.3459 O   0  0  0  0  0  0  0  0  0  0  0  0
   42.8348    1.0754   12.8895 O   0  0  0  0  0  0  0  0  0  0  0  0
   40.1463    2.0538   14.6888 H   0  0  0  0  0  0  0  0  0  0  0  0
   43.1032    0.5120   12.1469 H   0  0  0  0  0  0  0  0  0  0  0  0
  6  7  1  0  0  0
  6 11  1  0  0  0
  6  1  1  0  0  0
  7  8  1  0  0  0
  7 12  2  0  0  0
  8  9  1  0  0  0
  9 10  1  0  0  0
  9 13  2  0  0  0
 10 11  2  0  0  0
  1  2  1  0  0  0
  1  5  1  0  0  0
  2  3  1  0  0  0
  3  4  1  0  0  0
  3 18  1  0  0  0
  4  5  1  0  0  0
  4 15  1  0  0  0
 18 19  1  0  0  0
 15 16  1  0  0  0
 19 20  2  0  0  0
 19 21  1  0  0  0
 19 22  1  0  0  0
  8 14  1  0  0  0
 16 17  1  0  0  0
 21 23  1  0  0  0
 22 24  1  0  0  0
M  END
> <minimizedAffinity>
-5.95165

$$$$
1W4P_UM3_A_1125


 24 25  0  0  0  0  0  0  0  0999 V2000
   38.1055    2.3589   13.1969 C   0  0  0  0  0  0  0  0  0  0  0  0
   39.2850    1.4399   13.8318 C   0  0  0  0  0  0  0  0  0  0  0  0
   39.3728    0.3187   12.6647 C   0  0  0  0  0  0  0  0  0  0  0  0
   37.9053    0.0356   12.3127 C   0  0  0  0  0  0  0  0  0  0  0  0
   37.4276    1.3812   12.3150 O   0  0  0  0  0  0  0  0  0  0  0  0
   37.8627    3.5721   13.9335 N   0  0  0  0  0  0  0  0  0  0  0  0
   36.7057    4.3924   13.9262 C   0  0  0  0  0  0  0  0  0  0  0  0
   36.7826    5.4759   14.7952 N   0  0  0  0  0  0  0  0  0  0  0  0
   37.8614    5.8181   15.6430 C   0  0  0  0  0  0  0  0  0  0  0  0
   38.9928    4.9328   15.5828 C   0  0  0  0  0  0  0  0  0  0  0  0
   38.9577    3.8647   14.7501 C   0  0  0  0  0  0  0  0  0  0  0  0
   35.7098    4.1878   13.2283 O   0  0  0  0  0  0  0  0  0  0  0  0
   37.7784    6.8074   16.3566 O   0  0  0  0  0  0  0  0  0  0  0  0
   35.9987    6.0708   14.8231 H   0  0  0  0  0  0  0  0  0  0  0  0
   37.3880   -1.2285   12.9770 C   0  0  0  0  0  0  0  0  0  0  0  0
   35.9429   -0.9913   12.6535 O   0  0  0  0  0  0  0  0  0  0  0  0
   35.6748   -0.1218   12.9897 H   0  0  0  0  0  0  0  0  0  0  0  0
   40.0879    0.4141   11.7166 O   0  0  0  0  0  0  0  0  0  0  0  0
   41.0309   -0.7831   11.5055 P   0  0  0  0  0  0  0  0  0  0  0  0
   40.7776   -2.1751   12.1316 O   0  0  0  0  0  0  0  0  0  0  0  0
   41.0033   -1.4188   10.0693 O   0  0  0  0  0  0  0  0  0  0  0  0
   42.8207   -1.1202   11.7051 O   0  0  0  0  0  0  0  0  0  0  0  0
   40.1041   -1.3655    9.7093 H   0  0  0  0  0  0  0  0  0  0  0  0
   43.1148   -0.8021   12.5730 H   0  0  0  0  0  0  0  0  0  0  0  0
  6  7  1  0  0  0
  6 11  1  0  0  0
  6  1  1  0  0  0
  7  8  1  0  0  0
  7 12  2  0  0  0
  8  9  1  0  0  0
  9 10  1  0  0  0
  9 13  2  0  0  0
 10 11  2  0  0  0
  1  2  1  0  0  0
  1  5  1  0  0  0
  2  3  1  0  0  0
  3  4  1  0  0  0
  3 18  1  0  0  0
  4  5  1  0  0  0
  4 15  1  0  0  0
 18 19  1  0  0  0
 15 16  1  0  0  0
 19 20  2  0  0  0
 19 21  1  0  0  0
 19 22  1  0  0  0
  8 14  1  0  0  0
 16 17  1  0  0  0
 21 23  1  0  0  0
 22 24  1  0  0  0
M  END
> <minimizedAffinity>
-5.81594

$$$$
1W4P_UM3_A_1125


 24 25  0  0  0  0  0  0  0  0999 V2000
   36.0095   -4.1465   12.1886 C   0  0  0  0  0  0  0  0  0  0  0  0
   36.7969   -5.5543   11.9967 C   0  0  0  0  0  0  0  0  0  0  0  0
   35.6998   -6.3227   11.0841 C   0  0  0  0  0  0  0  0  0  0  0  0
   34.3575   -5.9589   11.7346 C   0  0  0  0  0  0  0  0  0  0  0  0
   34.6084   -4.5727   11.9678 O   0  0  0  0  0  0  0  0  0  0  0  0
   36.7901   -3.1377   12.8564 N   0  0  0  0  0  0  0  0  0  0  0  0
   36.5978   -1.7324   12.8610 C   0  0  0  0  0  0  0  0  0  0  0  0
   37.5135   -1.0451   13.6511 N   0  0  0  0  0  0  0  0  0  0  0  0
   38.5707   -1.5959   14.4120 C   0  0  0  0  0  0  0  0  0  0  0  0
   38.6923   -3.0270   14.3458 C   0  0  0  0  0  0  0  0  0  0  0  0
   37.8195   -3.7342   13.5885 C   0  0  0  0  0  0  0  0  0  0  0  0
   35.7103   -1.1475   12.2359 O   0  0  0  0  0  0  0  0  0  0  0  0
   39.2953   -0.8567   15.0625 O   0  0  0  0  0  0  0  0  0  0  0  0
   37.4145   -0.0661   13.6844 H   0  0  0  0  0  0  0  0  0  0  0  0
   33.8372   -7.0642   12.6369 C   0  0  0  0  0  0  0  0  0  0  0  0
   33.2722   -7.9093   11.5343 O   0  0  0  0  0  0  0  0  0  0  0  0
   32.6525   -7.3810   11.0073 H   0  0  0  0  0  0  0  0  0  0  0  0
   35.6889   -6.2758    9.8936 O   0  0  0  0  0  0  0  0  0  0  0  0
   36.1167   -7.5807    9.1997 P   0  0  0  0  0  0  0  0  0  0  0  0
   37.3727   -8.3828    9.6154 O   0  0  0  0  0  0  0  0  0  0  0  0
   35.2136   -8.8309    9.4977 O   0  0  0  0  0  0  0  0  0  0  0  0
   36.4460   -8.1303    7.4831 O   0  0  0  0  0  0  0  0  0  0  0  0
   34.8855   -8.7828   10.4092 H   0  0  0  0  0  0  0  0  0  0  0  0
   37.0234   -7.4871    7.0428 H   0  0  0  0  0  0  0  0  0  0  0  0
  6  7  1  0  0  0
  6 11  1  0  0  0
  6  1  1  0  0  0
  7  8  1  0  0  0
  7 12  2  0  0  0
  8  9  1  0  0  0
  9 10  1  0  0  0
  9 13  2  0  0  0
 10 11  2  0  0  0
  1  2  1  0  0  0
  1  5  1  0  0  0
  2  3  1  0  0  0
  3  4  1  0  0  0
  3 18  1  0  0  0
  4  5  1  0  0  0
  4 15  1  0  0  0
 18 19  1  0  0  0
 15 16  1  0  0  0
 19 20  2  0  0  0
 19 21  1  0  0  0
 19 22  1  0  0  0
  8 14  1  0  0  0
 16 17  1  0  0  0
 21 23  1  0  0  0
 22 24  1  0  0  0
M  END
> <minimizedAffinity>
-5.80523

$$$$
