1F5L_AMR_A_301


 23 23  0  0  0  0  0  0  0  0999 V2000
   30.6750    7.6634   27.5978 N   0  0  0  0  0  0  0  0  0  0  0  0
   30.2984    6.7202   28.4712 C   0  0  0  0  0  0  0  0  0  0  0  0
   29.1913    6.9435   29.3022 C   0  0  0  0  0  0  0  0  0  0  0  0
   28.7490    5.9848   30.2372 N   0  0  0  0  0  0  0  0  0  0  0  0
   28.5157    8.1119   29.2152 N   0  0  0  0  0  0  0  0  0  0  0  0
   28.8999    9.0684   28.3285 C   0  0  0  0  0  0  0  0  0  0  0  0
   28.1483   10.2774   28.2812 N   0  0  0  0  0  0  0  0  0  0  0  0
   30.0138    8.8316   27.4965 C   0  0  0  0  0  0  0  0  0  0  0  0
   30.5806    9.9918   26.3287 Cl  0  0  0  0  0  0  0  0  0  0  0  0
   29.2217    5.1254   30.3221 H   0  0  0  0  0  0  0  0  0  0  0  0
   27.9675    6.1749   30.8049 H   0  0  0  0  0  0  0  0  0  0  0  0
   27.3771   10.4014   28.8804 H   0  0  0  0  0  0  0  0  0  0  0  0
   28.4000   10.9891   27.6492 H   0  0  0  0  0  0  0  0  0  0  0  0
   31.1462    5.3881   28.5005 C   0  0  0  0  0  0  0  0  0  0  0  0
   32.5128    5.5039   28.2268 N   0  0  0  0  0  0  0  0  0  0  0  0
   30.5970    4.3067   28.7424 O   0  0  0  0  0  0  0  0  0  0  0  0
   32.8898    6.4087   28.1345 H   0  0  0  0  0  0  0  0  0  0  0  0
   33.3192    4.4884   28.0861 C   0  0  0  0  0  0  0  0  0  0  0  0
   32.8928    3.2471   28.0566 N   0  0  0  0  0  0  0  0  0  0  0  0
   34.5929    4.7263   27.9696 N   0  0  0  0  0  0  0  0  0  0  0  0
   31.9312    3.0547   28.1437 H   0  0  0  0  0  0  0  0  0  0  0  0
   33.5346    2.5086   27.9473 H   0  0  0  0  0  0  0  0  0  0  0  0
   34.9245    5.6530   27.9903 H   0  0  0  0  0  0  0  0  0  0  0  0
  1  2  2  0  0  0
  1  8  1  0  0  0
  2 14  1  0  0  0
  2  3  1  0  0  0
 14 15  1  0  0  0
 14 16  2  0  0  0
 15 18  1  0  0  0
 18 19  1  0  0  0
 18 20  2  0  0  0
  3  4  1  0  0  0
  3  5  2  0  0  0
  5  6  1  0  0  0
  6  7  1  0  0  0
  6  8  2  0  0  0
  8  9  1  0  0  0
 15 17  1  0  0  0
 19 21  1  0  0  0
 19 22  1  0  0  0
 20 23  1  0  0  0
  4 10  1  0  0  0
  4 11  1  0  0  0
  7 12  1  0  0  0
  7 13  1  0  0  0
M  END
> <minimizedAffinity>
-7.90258

$$$$
1F5L_AMR_A_301


 23 23  0  0  0  0  0  0  0  0999 V2000
   31.0821    8.1308   29.6613 N   0  0  0  0  0  0  0  0  0  0  0  0
   30.5190    7.0473   29.1108 C   0  0  0  0  0  0  0  0  0  0  0  0
   29.1614    6.7782   29.3355 C   0  0  0  0  0  0  0  0  0  0  0  0
   28.5167    5.6543   28.7787 N   0  0  0  0  0  0  0  0  0  0  0  0
   28.4339    7.6153   30.1095 N   0  0  0  0  0  0  0  0  0  0  0  0
   29.0073    8.7144   30.6681 C   0  0  0  0  0  0  0  0  0  0  0  0
   28.1900    9.5599   31.4719 N   0  0  0  0  0  0  0  0  0  0  0  0
   30.3731    8.9757   30.4332 C   0  0  0  0  0  0  0  0  0  0  0  0
   31.1961   10.3571   31.1008 Cl  0  0  0  0  0  0  0  0  0  0  0  0
   29.0217    5.0280   28.2113 H   0  0  0  0  0  0  0  0  0  0  0  0
   27.5615    5.4960   28.9573 H   0  0  0  0  0  0  0  0  0  0  0  0
   27.2404    9.3400   31.6100 H   0  0  0  0  0  0  0  0  0  0  0  0
   28.5748   10.3641   31.8894 H   0  0  0  0  0  0  0  0  0  0  0  0
   31.4462    6.1291   28.2211 C   0  0  0  0  0  0  0  0  0  0  0  0
   32.1793    5.1406   28.8853 N   0  0  0  0  0  0  0  0  0  0  0  0
   31.5115    6.3094   26.9992 O   0  0  0  0  0  0  0  0  0  0  0  0
   32.0033    5.0015   29.8439 H   0  0  0  0  0  0  0  0  0  0  0  0
   33.0817    4.3914   28.3145 C   0  0  0  0  0  0  0  0  0  0  0  0
   34.2592    4.8509   27.9595 N   0  0  0  0  0  0  0  0  0  0  0  0
   32.7940    3.1419   28.0946 N   0  0  0  0  0  0  0  0  0  0  0  0
   34.4883    5.7947   28.1208 H   0  0  0  0  0  0  0  0  0  0  0  0
   34.9130    4.2517   27.5321 H   0  0  0  0  0  0  0  0  0  0  0  0
   31.9142    2.7860   28.3564 H   0  0  0  0  0  0  0  0  0  0  0  0
  1  2  2  0  0  0
  1  8  1  0  0  0
  2 14  1  0  0  0
  2  3  1  0  0  0
 14 15  1  0  0  0
 14 16  2  0  0  0
 15 18  1  0  0  0
 18 19  1  0  0  0
 18 20  2  0  0  0
  3  4  1  0  0  0
  3  5  2  0  0  0
  5  6  1  0  0  0
  6  7  1  0  0  0
  6  8  2  0  0  0
  8  9  1  0  0  0
 15 17  1  0  0  0
 19 21  1  0  0  0
 19 22  1  0  0  0
 20 23  1  0  0  0
  4 10  1  0  0  0
  4 11  1  0  0  0
  7 12  1  0  0  0
  7 13  1  0  0  0
M  END
> <minimizedAffinity>
-7.59556

$$$$
1F5L_AMR_A_301


 23 23  0  0  0  0  0  0  0  0999 V2000
   31.9349    6.0774   28.0745 N   0  0  0  0  0  0  0  0  0  0  0  0
   30.8899    6.8850   28.2979 C   0  0  0  0  0  0  0  0  0  0  0  0
   29.8674    6.4761   29.1657 C   0  0  0  0  0  0  0  0  0  0  0  0
   28.7462    7.2867   29.4396 N   0  0  0  0  0  0  0  0  0  0  0  0
   29.9455    5.2672   29.7671 N   0  0  0  0  0  0  0  0  0  0  0  0
   31.0067    4.4485   29.5386 C   0  0  0  0  0  0  0  0  0  0  0  0
   31.0345    3.1884   30.2021 N   0  0  0  0  0  0  0  0  0  0  0  0
   32.0300    4.8716   28.6653 C   0  0  0  0  0  0  0  0  0  0  0  0
   33.4290    3.8973   28.3117 Cl  0  0  0  0  0  0  0  0  0  0  0  0
   28.6632    8.1714   29.0158 H   0  0  0  0  0  0  0  0  0  0  0  0
   28.0467    6.9678   30.0545 H   0  0  0  0  0  0  0  0  0  0  0  0
   30.2986    2.9326   30.8039 H   0  0  0  0  0  0  0  0  0  0  0  0
   31.7897    2.5732   30.0588 H   0  0  0  0  0  0  0  0  0  0  0  0
   30.8858    8.2777   27.5531 C   0  0  0  0  0  0  0  0  0  0  0  0
   32.1286    8.8819   27.3383 N   0  0  0  0  0  0  0  0  0  0  0  0
   29.8172    8.7918   27.2017 O   0  0  0  0  0  0  0  0  0  0  0  0
   32.9370    8.3677   27.5650 H   0  0  0  0  0  0  0  0  0  0  0  0
   32.2840   10.0840   26.8563 C   0  0  0  0  0  0  0  0  0  0  0  0
   31.7322   10.4695   25.7292 N   0  0  0  0  0  0  0  0  0  0  0  0
   33.0146   10.9257   27.5273 N   0  0  0  0  0  0  0  0  0  0  0  0
   31.1772    9.8414   25.2127 H   0  0  0  0  0  0  0  0  0  0  0  0
   31.8732   11.3867   25.4005 H   0  0  0  0  0  0  0  0  0  0  0  0
   33.4335   10.6481   28.3738 H   0  0  0  0  0  0  0  0  0  0  0  0
  1  2  2  0  0  0
  1  8  1  0  0  0
  2 14  1  0  0  0
  2  3  1  0  0  0
 14 15  1  0  0  0
 14 16  2  0  0  0
 15 18  1  0  0  0
 18 19  1  0  0  0
 18 20  2  0  0  0
  3  4  1  0  0  0
  3  5  2  0  0  0
  5  6  1  0  0  0
  6  7  1  0  0  0
  6  8  2  0  0  0
  8  9  1  0  0  0
 15 17  1  0  0  0
 19 21  1  0  0  0
 19 22  1  0  0  0
 20 23  1  0  0  0
  4 10  1  0  0  0
  4 11  1  0  0  0
  7 12  1  0  0  0
  7 13  1  0  0  0
M  END
> <minimizedAffinity>
-7.47624

$$$$
1F5L_AMR_A_301


 23 23  0  0  0  0  0  0  0  0999 V2000
   30.2067    5.6406   29.6799 N   0  0  0  0  0  0  0  0  0  0  0  0
   30.3463    6.7528   28.9465 C   0  0  0  0  0  0  0  0  0  0  0  0
   31.3079    6.7980   27.9271 C   0  0  0  0  0  0  0  0  0  0  0  0
   31.4960    7.9410   27.1226 N   0  0  0  0  0  0  0  0  0  0  0  0
   32.0879    5.7174   27.6963 N   0  0  0  0  0  0  0  0  0  0  0  0
   31.9452    4.5896   28.4423 C   0  0  0  0  0  0  0  0  0  0  0  0
   32.7937    3.4832   28.1512 N   0  0  0  0  0  0  0  0  0  0  0  0
   30.9731    4.5553   29.4635 C   0  0  0  0  0  0  0  0  0  0  0  0
   30.7126    3.1582   30.4691 Cl  0  0  0  0  0  0  0  0  0  0  0  0
   30.9424    8.7419   27.2683 H   0  0  0  0  0  0  0  0  0  0  0  0
   32.1808    7.9379   26.4154 H   0  0  0  0  0  0  0  0  0  0  0  0
   33.4594    3.5500   27.4290 H   0  0  0  0  0  0  0  0  0  0  0  0
   32.7145    2.6517   28.6723 H   0  0  0  0  0  0  0  0  0  0  0  0
   29.3906    7.9630   29.2872 C   0  0  0  0  0  0  0  0  0  0  0  0
   29.0730    8.1559   30.6355 N   0  0  0  0  0  0  0  0  0  0  0  0
   28.9478    8.6797   28.3818 O   0  0  0  0  0  0  0  0  0  0  0  0
   29.5373    7.6008   31.3029 H   0  0  0  0  0  0  0  0  0  0  0  0
   28.2001    9.0253   31.0642 C   0  0  0  0  0  0  0  0  0  0  0  0
   28.4058    9.7664   32.1281 N   0  0  0  0  0  0  0  0  0  0  0  0
   27.0871    9.1560   30.4036 N   0  0  0  0  0  0  0  0  0  0  0  0
   29.2443    9.6763   32.6362 H   0  0  0  0  0  0  0  0  0  0  0  0
   27.7216   10.4122   32.4179 H   0  0  0  0  0  0  0  0  0  0  0  0
   26.9216    8.6057   29.6042 H   0  0  0  0  0  0  0  0  0  0  0  0
  1  2  2  0  0  0
  1  8  1  0  0  0
  2 14  1  0  0  0
  2  3  1  0  0  0
 14 15  1  0  0  0
 14 16  2  0  0  0
 15 18  1  0  0  0
 18 19  1  0  0  0
 18 20  2  0  0  0
  3  4  1  0  0  0
  3  5  2  0  0  0
  5  6  1  0  0  0
  6  7  1  0  0  0
  6  8  2  0  0  0
  8  9  1  0  0  0
 15 17  1  0  0  0
 19 21  1  0  0  0
 19 22  1  0  0  0
 20 23  1  0  0  0
  4 10  1  0  0  0
  4 11  1  0  0  0
  7 12  1  0  0  0
  7 13  1  0  0  0
M  END
> <minimizedAffinity>
-7.41716

$$$$
1F5L_AMR_A_301


 23 23  0  0  0  0  0  0  0  0999 V2000
   30.4606    8.3450   27.1966 N   0  0  0  0  0  0  0  0  0  0  0  0
   30.0430    7.6306   28.2499 C   0  0  0  0  0  0  0  0  0  0  0  0
   29.1907    8.2182   29.1955 C   0  0  0  0  0  0  0  0  0  0  0  0
   28.7180    7.5122   30.3212 N   0  0  0  0  0  0  0  0  0  0  0  0
   28.8007    9.5033   29.0358 N   0  0  0  0  0  0  0  0  0  0  0  0
   29.2262   10.2272   27.9664 C   0  0  0  0  0  0  0  0  0  0  0  0
   28.7803   11.5750   27.8507 N   0  0  0  0  0  0  0  0  0  0  0  0
   30.0816    9.6247   27.0207 C   0  0  0  0  0  0  0  0  0  0  0  0
   30.6770   10.4670   25.6182 Cl  0  0  0  0  0  0  0  0  0  0  0  0
   28.9857    6.5754   30.4629 H   0  0  0  0  0  0  0  0  0  0  0  0
   28.1204    7.9562   30.9654 H   0  0  0  0  0  0  0  0  0  0  0  0
   28.1830   11.9563   28.5342 H   0  0  0  0  0  0  0  0  0  0  0  0
   29.0694   12.1254   27.0873 H   0  0  0  0  0  0  0  0  0  0  0  0
   30.5488    6.1380   28.3519 C   0  0  0  0  0  0  0  0  0  0  0  0
   31.9323    5.9438   28.4172 N   0  0  0  0  0  0  0  0  0  0  0  0
   29.7368    5.2051   28.3567 O   0  0  0  0  0  0  0  0  0  0  0  0
   32.5064    6.7392   28.5006 H   0  0  0  0  0  0  0  0  0  0  0  0
   32.5096    4.7749   28.3747 C   0  0  0  0  0  0  0  0  0  0  0  0
   32.2544    3.8292   29.2488 N   0  0  0  0  0  0  0  0  0  0  0  0
   33.3685    4.5476   27.4244 N   0  0  0  0  0  0  0  0  0  0  0  0
   31.6064    3.9895   29.9724 H   0  0  0  0  0  0  0  0  0  0  0  0
   32.7110    2.9596   29.1806 H   0  0  0  0  0  0  0  0  0  0  0  0
   33.5680    5.2491   26.7631 H   0  0  0  0  0  0  0  0  0  0  0  0
  1  2  2  0  0  0
  1  8  1  0  0  0
  2 14  1  0  0  0
  2  3  1  0  0  0
 14 15  1  0  0  0
 14 16  2  0  0  0
 15 18  1  0  0  0
 18 19  1  0  0  0
 18 20  2  0  0  0
  3  4  1  0  0  0
  3  5  2  0  0  0
  5  6  1  0  0  0
  6  7  1  0  0  0
  6  8  2  0  0  0
  8  9  1  0  0  0
 15 17  1  0  0  0
 19 21  1  0  0  0
 19 22  1  0  0  0
 20 23  1  0  0  0
  4 10  1  0  0  0
  4 11  1  0  0  0
  7 12  1  0  0  0
  7 13  1  0  0  0
M  END
> <minimizedAffinity>
-7.09657

$$$$
1F5L_AMR_A_301


 23 23  0  0  0  0  0  0  0  0999 V2000
   31.2322    7.5811   29.1390 N   0  0  0  0  0  0  0  0  0  0  0  0
   30.2416    8.3119   29.6673 C   0  0  0  0  0  0  0  0  0  0  0  0
   28.9548    7.7657   29.7745 C   0  0  0  0  0  0  0  0  0  0  0  0
   27.8759    8.4883   30.3248 N   0  0  0  0  0  0  0  0  0  0  0  0
   28.7258    6.5055   29.3400 N   0  0  0  0  0  0  0  0  0  0  0  0
   29.7324    5.7655   28.8034 C   0  0  0  0  0  0  0  0  0  0  0  0
   29.4310    4.4441   28.3653 N   0  0  0  0  0  0  0  0  0  0  0  0
   31.0230    6.3249   28.7027 C   0  0  0  0  0  0  0  0  0  0  0  0
   32.3762    5.4570   28.0343 Cl  0  0  0  0  0  0  0  0  0  0  0  0
   28.0136    9.4076   30.6490 H   0  0  0  0  0  0  0  0  0  0  0  0
   26.9851    8.0734   30.3847 H   0  0  0  0  0  0  0  0  0  0  0  0
   28.5157    4.0927   28.4543 H   0  0  0  0  0  0  0  0  0  0  0  0
   30.1381    3.8821   27.9735 H   0  0  0  0  0  0  0  0  0  0  0  0
   30.6036    9.7718   30.1486 C   0  0  0  0  0  0  0  0  0  0  0  0
   31.6322    9.8893   31.0888 N   0  0  0  0  0  0  0  0  0  0  0  0
   29.9793   10.7445   29.7083 O   0  0  0  0  0  0  0  0  0  0  0  0
   32.1404    9.0785   31.3205 H   0  0  0  0  0  0  0  0  0  0  0  0
   31.9606   11.0057   31.6781 C   0  0  0  0  0  0  0  0  0  0  0  0
   31.2189   11.5562   32.6111 N   0  0  0  0  0  0  0  0  0  0  0  0
   33.0686   11.5866   31.3212 N   0  0  0  0  0  0  0  0  0  0  0  0
   30.3784   11.1259   32.8895 H   0  0  0  0  0  0  0  0  0  0  0  0
   31.5033   12.3994   33.0322 H   0  0  0  0  0  0  0  0  0  0  0  0
   33.6330   11.1831   30.6227 H   0  0  0  0  0  0  0  0  0  0  0  0
  1  2  2  0  0  0
  1  8  1  0  0  0
  2 14  1  0  0  0
  2  3  1  0  0  0
 14 15  1  0  0  0
 14 16  2  0  0  0
 15 18  1  0  0  0
 18 19  1  0  0  0
 18 20  2  0  0  0
  3  4  1  0  0  0
  3  5  2  0  0  0
  5  6  1  0  0  0
  6  7  1  0  0  0
  6  8  2  0  0  0
  8  9  1  0  0  0
 15 17  1  0  0  0
 19 21  1  0  0  0
 19 22  1  0  0  0
 20 23  1  0  0  0
  4 10  1  0  0  0
  4 11  1  0  0  0
  7 12  1  0  0  0
  7 13  1  0  0  0
M  END
> <minimizedAffinity>
-7.04966

$$$$
1F5L_AMR_A_301


 23 23  0  0  0  0  0  0  0  0999 V2000
   30.5753    8.8355   30.5668 N   0  0  0  0  0  0  0  0  0  0  0  0
   29.5457    8.2735   29.9201 C   0  0  0  0  0  0  0  0  0  0  0  0
   28.5254    9.0824   29.4000 C   0  0  0  0  0  0  0  0  0  0  0  0
   27.4202    8.5449   28.7081 N   0  0  0  0  0  0  0  0  0  0  0  0
   28.5899   10.4239   29.5594 N   0  0  0  0  0  0  0  0  0  0  0  0
   29.6355   10.9926   30.2168 C   0  0  0  0  0  0  0  0  0  0  0  0
   29.6495   12.4106   30.3515 N   0  0  0  0  0  0  0  0  0  0  0  0
   30.6568   10.1688   30.7337 C   0  0  0  0  0  0  0  0  0  0  0  0
   32.0362   10.8020   31.5867 Cl  0  0  0  0  0  0  0  0  0  0  0  0
   27.3473    7.5719   28.5773 H   0  0  0  0  0  0  0  0  0  0  0  0
   26.7218    9.1427   28.3560 H   0  0  0  0  0  0  0  0  0  0  0  0
   28.9156   12.9481   29.9752 H   0  0  0  0  0  0  0  0  0  0  0  0
   30.3932   12.8531   30.8209 H   0  0  0  0  0  0  0  0  0  0  0  0
   29.5567    6.7003   29.7814 C   0  0  0  0  0  0  0  0  0  0  0  0
   30.6722    6.1295   29.1604 N   0  0  0  0  0  0  0  0  0  0  0  0
   28.6028    6.0326   30.1983 O   0  0  0  0  0  0  0  0  0  0  0  0
   31.4291    6.7190   28.9391 H   0  0  0  0  0  0  0  0  0  0  0  0
   30.7729    4.8651   28.8560 C   0  0  0  0  0  0  0  0  0  0  0  0
   31.7455    4.1062   29.3048 N   0  0  0  0  0  0  0  0  0  0  0  0
   29.8682    4.3461   28.0784 N   0  0  0  0  0  0  0  0  0  0  0  0
   32.4359    4.4878   29.8939 H   0  0  0  0  0  0  0  0  0  0  0  0
   31.7845    3.1554   29.0523 H   0  0  0  0  0  0  0  0  0  0  0  0
   29.1340    4.9053   27.7357 H   0  0  0  0  0  0  0  0  0  0  0  0
  1  2  2  0  0  0
  1  8  1  0  0  0
  2 14  1  0  0  0
  2  3  1  0  0  0
 14 15  1  0  0  0
 14 16  2  0  0  0
 15 18  1  0  0  0
 18 19  1  0  0  0
 18 20  2  0  0  0
  3  4  1  0  0  0
  3  5  2  0  0  0
  5  6  1  0  0  0
  6  7  1  0  0  0
  6  8  2  0  0  0
  8  9  1  0  0  0
 15 17  1  0  0  0
 19 21  1  0  0  0
 19 22  1  0  0  0
 20 23  1  0  0  0
  4 10  1  0  0  0
  4 11  1  0  0  0
  7 12  1  0  0  0
  7 13  1  0  0  0
M  END
> <minimizedAffinity>
-6.93690

$$$$
1F5L_AMR_A_301


 23 23  0  0  0  0  0  0  0  0999 V2000
   28.5438    7.7128   28.6339 N   0  0  0  0  0  0  0  0  0  0  0  0
   29.7912    7.3163   28.3492 C   0  0  0  0  0  0  0  0  0  0  0  0
   30.7200    8.2427   27.8543 C   0  0  0  0  0  0  0  0  0  0  0  0
   32.0467    7.8813   27.5408 N   0  0  0  0  0  0  0  0  0  0  0  0
   30.3455    9.5286   27.6664 N   0  0  0  0  0  0  0  0  0  0  0  0
   29.0787    9.9291   27.9552 C   0  0  0  0  0  0  0  0  0  0  0  0
   28.7435   11.2965   27.7386 N   0  0  0  0  0  0  0  0  0  0  0  0
   28.1538    8.9887   28.4545 C   0  0  0  0  0  0  0  0  0  0  0  0
   26.5117    9.4046   28.8565 Cl  0  0  0  0  0  0  0  0  0  0  0  0
   32.3469    6.9523   27.6677 H   0  0  0  0  0  0  0  0  0  0  0  0
   32.6726    8.5580   27.1951 H   0  0  0  0  0  0  0  0  0  0  0  0
   29.4204   11.9197   27.3884 H   0  0  0  0  0  0  0  0  0  0  0  0
   27.8350   11.6183   27.9392 H   0  0  0  0  0  0  0  0  0  0  0  0
   30.1375    5.7963   28.6023 C   0  0  0  0  0  0  0  0  0  0  0  0
   31.4870    5.4790   28.7867 N   0  0  0  0  0  0  0  0  0  0  0  0
   29.2380    4.9476   28.6164 O   0  0  0  0  0  0  0  0  0  0  0  0
   32.1306    6.2210   28.8526 H   0  0  0  0  0  0  0  0  0  0  0  0
   31.9464    4.2615   28.8768 C   0  0  0  0  0  0  0  0  0  0  0  0
   32.7979    3.7623   28.0112 N   0  0  0  0  0  0  0  0  0  0  0  0
   31.5398    3.5227   29.8674 N   0  0  0  0  0  0  0  0  0  0  0  0
   33.1128    4.3119   27.2575 H   0  0  0  0  0  0  0  0  0  0  0  0
   33.1217    2.8385   28.1159 H   0  0  0  0  0  0  0  0  0  0  0  0
   30.9014    3.8861   30.5228 H   0  0  0  0  0  0  0  0  0  0  0  0
  1  2  2  0  0  0
  1  8  1  0  0  0
  2 14  1  0  0  0
  2  3  1  0  0  0
 14 15  1  0  0  0
 14 16  2  0  0  0
 15 18  1  0  0  0
 18 19  1  0  0  0
 18 20  2  0  0  0
  3  4  1  0  0  0
  3  5  2  0  0  0
  5  6  1  0  0  0
  6  7  1  0  0  0
  6  8  2  0  0  0
  8  9  1  0  0  0
 15 17  1  0  0  0
 19 21  1  0  0  0
 19 22  1  0  0  0
 20 23  1  0  0  0
  4 10  1  0  0  0
  4 11  1  0  0  0
  7 12  1  0  0  0
  7 13  1  0  0  0
M  END
> <minimizedAffinity>
-6.56034

$$$$
1F5L_AMR_A_301


 23 23  0  0  0  0  0  0  0  0999 V2000
   30.9905    8.9459   29.7618 N   0  0  0  0  0  0  0  0  0  0  0  0
   30.4393    9.4952   30.8521 C   0  0  0  0  0  0  0  0  0  0  0  0
   29.1164    9.1827   31.1957 C   0  0  0  0  0  0  0  0  0  0  0  0
   28.4872    9.7291   32.3335 N   0  0  0  0  0  0  0  0  0  0  0  0
   28.4083    8.3307   30.4199 N   0  0  0  0  0  0  0  0  0  0  0  0
   28.9692    7.7746   29.3131 C   0  0  0  0  0  0  0  0  0  0  0  0
   28.1749    6.8831   28.5366 N   0  0  0  0  0  0  0  0  0  0  0  0
   30.3014    8.0949   28.9788 C   0  0  0  0  0  0  0  0  0  0  0  0
   31.1078    7.4327   27.5851 Cl  0  0  0  0  0  0  0  0  0  0  0  0
   28.9787   10.3521   32.9162 H   0  0  0  0  0  0  0  0  0  0  0  0
   27.5566    9.4876   32.5450 H   0  0  0  0  0  0  0  0  0  0  0  0
   27.2485    6.6871   28.8063 H   0  0  0  0  0  0  0  0  0  0  0  0
   28.5521    6.4630   27.7301 H   0  0  0  0  0  0  0  0  0  0  0  0
   31.3429   10.4767   31.6973 C   0  0  0  0  0  0  0  0  0  0  0  0
   30.8425   11.7642   31.9160 N   0  0  0  0  0  0  0  0  0  0  0  0
   32.4428   10.1008   32.1198 O   0  0  0  0  0  0  0  0  0  0  0  0
   29.9216   11.9567   31.6261 H   0  0  0  0  0  0  0  0  0  0  0  0
   31.5194   12.7260   32.4801 C   0  0  0  0  0  0  0  0  0  0  0  0
   32.5517   13.2956   31.9027 N   0  0  0  0  0  0  0  0  0  0  0  0
   31.1476   13.1297   33.6596 N   0  0  0  0  0  0  0  0  0  0  0  0
   32.8424   12.9986   31.0102 H   0  0  0  0  0  0  0  0  0  0  0  0
   33.0351   14.0198   32.3621 H   0  0  0  0  0  0  0  0  0  0  0  0
   30.3750   12.7101   34.1026 H   0  0  0  0  0  0  0  0  0  0  0  0
  1  2  2  0  0  0
  1  8  1  0  0  0
  2 14  1  0  0  0
  2  3  1  0  0  0
 14 15  1  0  0  0
 14 16  2  0  0  0
 15 18  1  0  0  0
 18 19  1  0  0  0
 18 20  2  0  0  0
  3  4  1  0  0  0
  3  5  2  0  0  0
  5  6  1  0  0  0
  6  7  1  0  0  0
  6  8  2  0  0  0
  8  9  1  0  0  0
 15 17  1  0  0  0
 19 21  1  0  0  0
 19 22  1  0  0  0
 20 23  1  0  0  0
  4 10  1  0  0  0
  4 11  1  0  0  0
  7 12  1  0  0  0
  7 13  1  0  0  0
M  END
> <minimizedAffinity>
-6.42979

$$$$
1F5L_AMR_A_301


 23 23  0  0  0  0  0  0  0  0999 V2000
   27.7477    8.3144   28.9003 N   0  0  0  0  0  0  0  0  0  0  0  0
   29.0222    8.2710   29.3102 C   0  0  0  0  0  0  0  0  0  0  0  0
   29.6610    9.4488   29.7230 C   0  0  0  0  0  0  0  0  0  0  0  0
   30.9996    9.4609   30.1668 N   0  0  0  0  0  0  0  0  0  0  0  0
   28.9836   10.6192   29.7003 N   0  0  0  0  0  0  0  0  0  0  0  0
   27.6901   10.6615   29.2832 C   0  0  0  0  0  0  0  0  0  0  0  0
   27.0281   11.9227   29.2833 N   0  0  0  0  0  0  0  0  0  0  0  0
   27.0576    9.4699   28.8723 C   0  0  0  0  0  0  0  0  0  0  0  0
   25.4054    9.4210   28.3254 Cl  0  0  0  0  0  0  0  0  0  0  0  0
   31.5168    8.6237   30.1938 H   0  0  0  0  0  0  0  0  0  0  0  0
   31.4168   10.3066   30.4496 H   0  0  0  0  0  0  0  0  0  0  0  0
   27.5076   12.7303   29.5783 H   0  0  0  0  0  0  0  0  0  0  0  0
   26.0911   11.9868   28.9883 H   0  0  0  0  0  0  0  0  0  0  0  0
   29.7313    6.8598   29.3041 C   0  0  0  0  0  0  0  0  0  0  0  0
   30.5841    6.5869   28.2298 N   0  0  0  0  0  0  0  0  0  0  0  0
   29.5117    6.0496   30.2123 O   0  0  0  0  0  0  0  0  0  0  0  0
   30.7772    7.3162   27.5972 H   0  0  0  0  0  0  0  0  0  0  0  0
   31.1397    5.4268   28.0133 C   0  0  0  0  0  0  0  0  0  0  0  0
   32.3946    5.3022   27.6481 N   0  0  0  0  0  0  0  0  0  0  0  0
   30.4139    4.3587   28.1700 N   0  0  0  0  0  0  0  0  0  0  0  0
   32.9537    6.1033   27.5264 H   0  0  0  0  0  0  0  0  0  0  0  0
   32.7764    4.4076   27.4960 H   0  0  0  0  0  0  0  0  0  0  0  0
   29.4716    4.4396   28.4436 H   0  0  0  0  0  0  0  0  0  0  0  0
  1  2  2  0  0  0
  1  8  1  0  0  0
  2 14  1  0  0  0
  2  3  1  0  0  0
 14 15  1  0  0  0
 14 16  2  0  0  0
 15 18  1  0  0  0
 18 19  1  0  0  0
 18 20  2  0  0  0
  3  4  1  0  0  0
  3  5  2  0  0  0
  5  6  1  0  0  0
  6  7  1  0  0  0
  6  8  2  0  0  0
  8  9  1  0  0  0
 15 17  1  0  0  0
 19 21  1  0  0  0
 19 22  1  0  0  0
 20 23  1  0  0  0
  4 10  1  0  0  0
  4 11  1  0  0  0
  7 12  1  0  0  0
  7 13  1  0  0  0
M  END
> <minimizedAffinity>
-6.35785

$$$$
