2PSU_MUU_A_200


 39 41  0  0  0  0  0  0  0  0999 V2000
   20.0638   29.3218   15.4589 C   0  0  0  0  0  0  0  0  0  0  0  0
   19.9783   28.1868   16.3191 O   0  0  0  0  0  0  0  0  0  0  0  0
   19.0562   27.8905   16.3727 H   0  0  0  0  0  0  0  0  0  0  0  0
   19.2534   30.4950   16.0633 C   0  0  0  0  0  0  0  0  0  0  0  0
   19.5427   31.6838   15.2269 N   0  0  0  0  0  0  0  0  0  0  0  0
   17.4159   31.6635   13.9622 O   0  0  0  0  0  0  0  0  0  0  0  0
   18.2355   32.5298   14.7520 S   0  0  0  0  0  0  0  0  0  0  0  0
   18.7328   33.6483   13.9995 O   0  0  0  0  0  0  0  0  0  0  0  0
   17.3379   33.1236   16.0145 C   0  0  0  0  0  0  0  0  0  0  0  0
   17.9609   33.8446   17.0287 C   0  0  0  0  0  0  0  0  0  0  0  0
   17.2327   34.3476   18.1015 C   0  0  0  0  0  0  0  0  0  0  0  0
   15.8506   34.1314   18.1553 C   0  0  0  0  0  0  0  0  0  0  0  0
   15.2199   33.4062   17.1552 C   0  0  0  0  0  0  0  0  0  0  0  0
   15.9611   32.9057   16.0837 C   0  0  0  0  0  0  0  0  0  0  0  0
   17.9181   35.0592   19.0662 O   0  0  0  0  0  0  0  0  0  0  0  0
   19.0067   35.9294   18.7818 C   0  0  0  0  0  0  0  0  0  0  0  0
   20.6282   32.5267   15.7745 C   0  0  0  0  0  0  0  0  0  0  0  0
   21.7691   32.5557   14.7535 C   0  0  0  0  0  0  0  0  0  0  0  0
   22.8433   31.4712   14.8544 C   0  0  0  0  0  0  0  0  0  0  0  0
   23.1614   32.8930   15.2947 C   0  0  0  0  0  0  0  0  0  0  0  0
   19.6391   28.9188   14.0335 C   0  0  0  0  0  0  0  0  0  0  0  0
   20.7153   28.1472   13.3910 N   0  0  0  0  0  0  0  0  0  0  0  0
   21.5479   28.6557   12.4733 C   0  0  0  0  0  0  0  0  0  0  0  0
   21.4992   29.8161   12.1083 O   0  0  0  0  0  0  0  0  0  0  0  0
   20.8296   27.2044   13.6503 H   0  0  0  0  0  0  0  0  0  0  0  0
   22.6271   27.8022   11.8778 C   0  0  0  0  0  0  0  0  0  0  0  0
   22.1389   26.3780   11.7673 C   0  0  0  0  0  0  0  0  0  0  0  0
   23.1434   25.6029   10.9529 C   0  0  0  0  0  0  0  0  0  0  0  0
   24.1459   25.1188   11.4939 O   0  0  0  0  0  0  0  0  0  0  0  0
   22.8985   25.4672    9.6480 N   0  0  0  0  0  0  0  0  0  0  0  0
   23.7824   24.7190    8.7691 C   0  0  0  0  0  0  0  0  0  0  0  0
   22.0932   25.8874    9.2683 H   0  0  0  0  0  0  0  0  0  0  0  0
   18.3461   28.1005   14.0102 C   0  0  0  0  0  0  0  0  0  0  0  0
   18.0446   27.7041   12.5859 C   0  0  0  0  0  0  0  0  0  0  0  0
   17.5301   28.6380   11.6873 C   0  0  0  0  0  0  0  0  0  0  0  0
   17.2329   28.2813   10.3830 C   0  0  0  0  0  0  0  0  0  0  0  0
   17.4523   26.9772    9.9635 C   0  0  0  0  0  0  0  0  0  0  0  0
   17.9424   26.0514   10.8566 C   0  0  0  0  0  0  0  0  0  0  0  0
   18.2560   26.4048   12.1566 C   0  0  0  0  0  0  0  0  0  0  0  0
  6  7  2  0  0  0
  7  8  2  0  0  0
  7  5  1  0  0  0
  7  9  1  0  0  0
  9 10  2  0  0  0
  9 14  1  0  0  0
 10 11  1  0  0  0
 11 15  1  0  0  0
 11 12  2  0  0  0
 15 16  1  0  0  0
 12 13  1  0  0  0
 13 14  2  0  0  0
  5  4  1  0  0  0
  5 17  1  0  0  0
 17 18  1  0  0  0
 18 20  1  0  0  0
 18 19  1  0  0  0
 19 20  1  0  0  0
  4  1  1  0  0  0
  1 21  1  0  0  0
  1  2  1  0  0  0
 21 22  1  0  0  0
 21 33  1  0  0  0
 33 34  1  0  0  0
 34 39  2  0  0  0
 34 35  1  0  0  0
 35 36  2  0  0  0
 36 37  1  0  0  0
 37 38  2  0  0  0
 38 39  1  0  0  0
 22 23  1  0  0  0
 23 26  1  0  0  0
 23 24  2  0  0  0
 26 27  1  0  0  0
 27 28  1  0  0  0
 28 30  1  0  0  0
 28 29  2  0  0  0
 30 31  1  0  0  0
  2  3  1  0  0  0
 22 25  1  0  0  0
 30 32  1  0  0  0
M  END
> <minimizedAffinity>
-9.24536

$$$$
2PSU_MUU_A_200


 39 41  0  0  0  0  0  0  0  0999 V2000
   19.5057   28.8397   13.6413 C   0  0  0  0  0  0  0  0  0  0  0  0
   18.7858   27.9834   14.5267 O   0  0  0  0  0  0  0  0  0  0  0  0
   18.1152   27.4918   14.0271 H   0  0  0  0  0  0  0  0  0  0  0  0
   18.5423   29.8902   13.0357 C   0  0  0  0  0  0  0  0  0  0  0  0
   18.5507   31.0518   13.9562 N   0  0  0  0  0  0  0  0  0  0  0  0
   18.8050   33.4957   13.6634 O   0  0  0  0  0  0  0  0  0  0  0  0
   19.5338   32.2734   13.5191 S   0  0  0  0  0  0  0  0  0  0  0  0
   19.9094   32.0183   12.1558 O   0  0  0  0  0  0  0  0  0  0  0  0
   20.9225   32.3599   14.4225 C   0  0  0  0  0  0  0  0  0  0  0  0
   20.8791   32.8828   15.7114 C   0  0  0  0  0  0  0  0  0  0  0  0
   22.0299   32.9727   16.4873 C   0  0  0  0  0  0  0  0  0  0  0  0
   23.2477   32.5214   15.9647 C   0  0  0  0  0  0  0  0  0  0  0  0
   23.3052   32.0069   14.6779 C   0  0  0  0  0  0  0  0  0  0  0  0
   22.1440   31.9223   13.9083 C   0  0  0  0  0  0  0  0  0  0  0  0
   21.9081   33.4961   17.7592 O   0  0  0  0  0  0  0  0  0  0  0  0
   21.7847   34.8865   18.0330 C   0  0  0  0  0  0  0  0  0  0  0  0
   17.1929   31.4927   14.3445 C   0  0  0  0  0  0  0  0  0  0  0  0
   17.1047   31.4711   15.8731 C   0  0  0  0  0  0  0  0  0  0  0  0
   15.8252   32.0041   16.5205 C   0  0  0  0  0  0  0  0  0  0  0  0
   17.1014   32.8316   16.5762 C   0  0  0  0  0  0  0  0  0  0  0  0
   20.2578   27.9871   12.6011 C   0  0  0  0  0  0  0  0  0  0  0  0
   19.4056   27.7734   11.4202 N   0  0  0  0  0  0  0  0  0  0  0  0
   18.5436   26.7553   11.3006 C   0  0  0  0  0  0  0  0  0  0  0  0
   18.3737   25.9275   12.1770 O   0  0  0  0  0  0  0  0  0  0  0  0
   19.4730   28.4149   10.6764 H   0  0  0  0  0  0  0  0  0  0  0  0
   17.7027   26.6192   10.0669 C   0  0  0  0  0  0  0  0  0  0  0  0
   18.5696   26.8000    8.8444 C   0  0  0  0  0  0  0  0  0  0  0  0
   19.1426   25.4549    8.4762 C   0  0  0  0  0  0  0  0  0  0  0  0
   18.6125   24.4159    8.8900 O   0  0  0  0  0  0  0  0  0  0  0  0
   20.2252   25.4443    7.6960 N   0  0  0  0  0  0  0  0  0  0  0  0
   20.8487   24.2072    7.2554 C   0  0  0  0  0  0  0  0  0  0  0  0
   20.6143   26.3021    7.4095 H   0  0  0  0  0  0  0  0  0  0  0  0
   21.5809   28.6190   12.1630 C   0  0  0  0  0  0  0  0  0  0  0  0
   22.5617   27.5204   11.8345 C   0  0  0  0  0  0  0  0  0  0  0  0
   23.9074   27.6503   12.1764 C   0  0  0  0  0  0  0  0  0  0  0  0
   24.8195   26.6567   11.8643 C   0  0  0  0  0  0  0  0  0  0  0  0
   24.3886   25.5150   11.2044 C   0  0  0  0  0  0  0  0  0  0  0  0
   23.0635   25.3962   10.8507 C   0  0  0  0  0  0  0  0  0  0  0  0
   22.1441   26.3780   11.1732 C   0  0  0  0  0  0  0  0  0  0  0  0
  6  7  2  0  0  0
  7  8  2  0  0  0
  7  5  1  0  0  0
  7  9  1  0  0  0
  9 10  2  0  0  0
  9 14  1  0  0  0
 10 11  1  0  0  0
 11 15  1  0  0  0
 11 12  2  0  0  0
 15 16  1  0  0  0
 12 13  1  0  0  0
 13 14  2  0  0  0
  5  4  1  0  0  0
  5 17  1  0  0  0
 17 18  1  0  0  0
 18 20  1  0  0  0
 18 19  1  0  0  0
 19 20  1  0  0  0
  4  1  1  0  0  0
  1 21  1  0  0  0
  1  2  1  0  0  0
 21 22  1  0  0  0
 21 33  1  0  0  0
 33 34  1  0  0  0
 34 39  2  0  0  0
 34 35  1  0  0  0
 35 36  2  0  0  0
 36 37  1  0  0  0
 37 38  2  0  0  0
 38 39  1  0  0  0
 22 23  1  0  0  0
 23 26  1  0  0  0
 23 24  2  0  0  0
 26 27  1  0  0  0
 27 28  1  0  0  0
 28 30  1  0  0  0
 28 29  2  0  0  0
 30 31  1  0  0  0
  2  3  1  0  0  0
 22 25  1  0  0  0
 30 32  1  0  0  0
M  END
> <minimizedAffinity>
-8.85965

$$$$
2PSU_MUU_A_200


 39 41  0  0  0  0  0  0  0  0999 V2000
   18.4384   29.2441   14.2511 C   0  0  0  0  0  0  0  0  0  0  0  0
   19.0294   28.0666   14.7986 O   0  0  0  0  0  0  0  0  0  0  0  0
   19.9949   28.1606   14.8011 H   0  0  0  0  0  0  0  0  0  0  0  0
   18.8741   29.4063   12.7739 C   0  0  0  0  0  0  0  0  0  0  0  0
   19.4143   28.0942   12.3459 N   0  0  0  0  0  0  0  0  0  0  0  0
   17.3051   27.9479   11.0600 O   0  0  0  0  0  0  0  0  0  0  0  0
   18.3524   27.1252   11.5820 S   0  0  0  0  0  0  0  0  0  0  0  0
   17.8768   26.1946   12.5681 O   0  0  0  0  0  0  0  0  0  0  0  0
   19.0265   26.2536   10.3420 C   0  0  0  0  0  0  0  0  0  0  0  0
   18.6772   26.5379    9.0253 C   0  0  0  0  0  0  0  0  0  0  0  0
   19.2227   25.8178    7.9678 C   0  0  0  0  0  0  0  0  0  0  0  0
   20.1437   24.7977    8.2340 C   0  0  0  0  0  0  0  0  0  0  0  0
   20.4926   24.4989    9.5428 C   0  0  0  0  0  0  0  0  0  0  0  0
   19.9382   25.2277   10.5959 C   0  0  0  0  0  0  0  0  0  0  0  0
   18.8340   26.1615    6.6881 O   0  0  0  0  0  0  0  0  0  0  0  0
   18.2060   27.3942    6.3573 C   0  0  0  0  0  0  0  0  0  0  0  0
   20.7200   28.2019   11.6588 C   0  0  0  0  0  0  0  0  0  0  0  0
   21.7799   27.5419   12.5453 C   0  0  0  0  0  0  0  0  0  0  0  0
   23.1867   28.1430   12.5416 C   0  0  0  0  0  0  0  0  0  0  0  0
   22.9255   26.8270   11.8229 C   0  0  0  0  0  0  0  0  0  0  0  0
   18.7687   30.4504   15.1513 C   0  0  0  0  0  0  0  0  0  0  0  0
   17.5653   30.8673   15.8891 N   0  0  0  0  0  0  0  0  0  0  0  0
   16.9346   32.0311   15.6847 C   0  0  0  0  0  0  0  0  0  0  0  0
   17.2932   32.8381   14.8468 O   0  0  0  0  0  0  0  0  0  0  0  0
   17.2036   30.2564   16.5712 H   0  0  0  0  0  0  0  0  0  0  0  0
   15.7054   32.3719   16.4724 C   0  0  0  0  0  0  0  0  0  0  0  0
   15.4241   33.8501   16.3518 C   0  0  0  0  0  0  0  0  0  0  0  0
   15.8258   34.5082   17.6475 C   0  0  0  0  0  0  0  0  0  0  0  0
   15.4140   34.0646   18.7271 O   0  0  0  0  0  0  0  0  0  0  0  0
   16.6325   35.5685   17.5703 N   0  0  0  0  0  0  0  0  0  0  0  0
   17.1062   36.2674   18.7538 C   0  0  0  0  0  0  0  0  0  0  0  0
   16.9161   35.8877   16.6832 H   0  0  0  0  0  0  0  0  0  0  0  0
   19.8952   30.1569   16.1446 C   0  0  0  0  0  0  0  0  0  0  0  0
   21.0744   31.0410   15.8210 C   0  0  0  0  0  0  0  0  0  0  0  0
   21.7838   30.8647   14.6336 C   0  0  0  0  0  0  0  0  0  0  0  0
   22.8781   31.6582   14.3344 C   0  0  0  0  0  0  0  0  0  0  0  0
   23.2729   32.6441   15.2271 C   0  0  0  0  0  0  0  0  0  0  0  0
   22.5834   32.8048   16.4077 C   0  0  0  0  0  0  0  0  0  0  0  0
   21.4799   32.0258   16.7057 C   0  0  0  0  0  0  0  0  0  0  0  0
  6  7  2  0  0  0
  7  8  2  0  0  0
  7  5  1  0  0  0
  7  9  1  0  0  0
  9 10  2  0  0  0
  9 14  1  0  0  0
 10 11  1  0  0  0
 11 15  1  0  0  0
 11 12  2  0  0  0
 15 16  1  0  0  0
 12 13  1  0  0  0
 13 14  2  0  0  0
  5  4  1  0  0  0
  5 17  1  0  0  0
 17 18  1  0  0  0
 18 20  1  0  0  0
 18 19  1  0  0  0
 19 20  1  0  0  0
  4  1  1  0  0  0
  1 21  1  0  0  0
  1  2  1  0  0  0
 21 22  1  0  0  0
 21 33  1  0  0  0
 33 34  1  0  0  0
 34 39  2  0  0  0
 34 35  1  0  0  0
 35 36  2  0  0  0
 36 37  1  0  0  0
 37 38  2  0  0  0
 38 39  1  0  0  0
 22 23  1  0  0  0
 23 26  1  0  0  0
 23 24  2  0  0  0
 26 27  1  0  0  0
 27 28  1  0  0  0
 28 30  1  0  0  0
 28 29  2  0  0  0
 30 31  1  0  0  0
  2  3  1  0  0  0
 22 25  1  0  0  0
 30 32  1  0  0  0
M  END
> <minimizedAffinity>
-8.75037

$$$$
2PSU_MUU_A_200


 39 41  0  0  0  0  0  0  0  0999 V2000
   19.9348   28.7510   13.7591 C   0  0  0  0  0  0  0  0  0  0  0  0
   19.0018   27.9087   14.4340 O   0  0  0  0  0  0  0  0  0  0  0  0
   18.2755   27.6830   13.8319 H   0  0  0  0  0  0  0  0  0  0  0  0
   19.2471   30.0835   13.3716 C   0  0  0  0  0  0  0  0  0  0  0  0
   19.6018   31.0641   14.4247 N   0  0  0  0  0  0  0  0  0  0  0  0
   19.2327   30.7222   16.8476 O   0  0  0  0  0  0  0  0  0  0  0  0
   18.5526   31.1555   15.6661 S   0  0  0  0  0  0  0  0  0  0  0  0
   17.4507   30.2990   15.3242 O   0  0  0  0  0  0  0  0  0  0  0  0
   17.9534   32.6823   15.9142 C   0  0  0  0  0  0  0  0  0  0  0  0
   18.1953   33.3341   17.1197 C   0  0  0  0  0  0  0  0  0  0  0  0
   17.6988   34.6117   17.3556 C   0  0  0  0  0  0  0  0  0  0  0  0
   16.9521   35.2532   16.3603 C   0  0  0  0  0  0  0  0  0  0  0  0
   16.6965   34.6100   15.1583 C   0  0  0  0  0  0  0  0  0  0  0  0
   17.1993   33.3277   14.9330 C   0  0  0  0  0  0  0  0  0  0  0  0
   17.9854   35.1979   18.5726 O   0  0  0  0  0  0  0  0  0  0  0  0
   19.0116   36.1646   18.7618 C   0  0  0  0  0  0  0  0  0  0  0  0
   21.0162   30.9724   14.8487 C   0  0  0  0  0  0  0  0  0  0  0  0
   21.7075   32.2902   14.4874 C   0  0  0  0  0  0  0  0  0  0  0  0
   23.2350   32.3358   14.5568 C   0  0  0  0  0  0  0  0  0  0  0  0
   22.4089   33.0291   15.6308 C   0  0  0  0  0  0  0  0  0  0  0  0
   20.5559   27.9842   12.5755 C   0  0  0  0  0  0  0  0  0  0  0  0
   19.6493   28.0340   11.4171 N   0  0  0  0  0  0  0  0  0  0  0  0
   18.6894   27.1291   11.1857 C   0  0  0  0  0  0  0  0  0  0  0  0
   18.4687   26.1945   11.9340 O   0  0  0  0  0  0  0  0  0  0  0  0
   19.7543   28.7741   10.7764 H   0  0  0  0  0  0  0  0  0  0  0  0
   17.7997   27.2624    9.9863 C   0  0  0  0  0  0  0  0  0  0  0  0
   17.4071   25.8898    9.4959 C   0  0  0  0  0  0  0  0  0  0  0  0
   18.4968   25.3927    8.5801 C   0  0  0  0  0  0  0  0  0  0  0  0
   19.1958   24.4256    8.9088 O   0  0  0  0  0  0  0  0  0  0  0  0
   18.6622   26.0345    7.4218 N   0  0  0  0  0  0  0  0  0  0  0  0
   19.6631   25.6283    6.4489 C   0  0  0  0  0  0  0  0  0  0  0  0
   18.0877   26.8080    7.2196 H   0  0  0  0  0  0  0  0  0  0  0  0
   21.9263   28.5312   12.1698 C   0  0  0  0  0  0  0  0  0  0  0  0
   22.8018   27.3817   11.7351 C   0  0  0  0  0  0  0  0  0  0  0  0
   24.1896   27.4746   11.8348 C   0  0  0  0  0  0  0  0  0  0  0  0
   25.0035   26.4333   11.4226 C   0  0  0  0  0  0  0  0  0  0  0  0
   24.4306   25.2805   10.9053 C   0  0  0  0  0  0  0  0  0  0  0  0
   23.0614   25.1973   10.7898 C   0  0  0  0  0  0  0  0  0  0  0  0
   22.2417   26.2276   11.2141 C   0  0  0  0  0  0  0  0  0  0  0  0
  6  7  2  0  0  0
  7  8  2  0  0  0
  7  5  1  0  0  0
  7  9  1  0  0  0
  9 10  2  0  0  0
  9 14  1  0  0  0
 10 11  1  0  0  0
 11 15  1  0  0  0
 11 12  2  0  0  0
 15 16  1  0  0  0
 12 13  1  0  0  0
 13 14  2  0  0  0
  5  4  1  0  0  0
  5 17  1  0  0  0
 17 18  1  0  0  0
 18 20  1  0  0  0
 18 19  1  0  0  0
 19 20  1  0  0  0
  4  1  1  0  0  0
  1 21  1  0  0  0
  1  2  1  0  0  0
 21 22  1  0  0  0
 21 33  1  0  0  0
 33 34  1  0  0  0
 34 39  2  0  0  0
 34 35  1  0  0  0
 35 36  2  0  0  0
 36 37  1  0  0  0
 37 38  2  0  0  0
 38 39  1  0  0  0
 22 23  1  0  0  0
 23 26  1  0  0  0
 23 24  2  0  0  0
 26 27  1  0  0  0
 27 28  1  0  0  0
 28 30  1  0  0  0
 28 29  2  0  0  0
 30 31  1  0  0  0
  2  3  1  0  0  0
 22 25  1  0  0  0
 30 32  1  0  0  0
M  END
> <minimizedAffinity>
-8.68042

$$$$
2PSU_MUU_A_200


 39 41  0  0  0  0  0  0  0  0999 V2000
   20.8962   31.4661   13.8704 C   0  0  0  0  0  0  0  0  0  0  0  0
   21.7968   32.3529   13.2087 O   0  0  0  0  0  0  0  0  0  0  0  0
   21.2997   32.9291   12.6072 H   0  0  0  0  0  0  0  0  0  0  0  0
   20.2165   30.5426   12.8294 C   0  0  0  0  0  0  0  0  0  0  0  0
   19.7622   29.3388   13.5649 N   0  0  0  0  0  0  0  0  0  0  0  0
   17.5135   29.9829   12.7576 O   0  0  0  0  0  0  0  0  0  0  0  0
   18.2498   28.8463   13.2181 S   0  0  0  0  0  0  0  0  0  0  0  0
   17.7145   28.3050   14.4367 O   0  0  0  0  0  0  0  0  0  0  0  0
   18.1905   27.6571   12.0630 C   0  0  0  0  0  0  0  0  0  0  0  0
   18.1961   28.0003   10.7144 C   0  0  0  0  0  0  0  0  0  0  0  0
   18.1405   27.0232    9.7262 C   0  0  0  0  0  0  0  0  0  0  0  0
   18.0868   25.6742   10.0962 C   0  0  0  0  0  0  0  0  0  0  0  0
   18.0712   25.3202   11.4372 C   0  0  0  0  0  0  0  0  0  0  0  0
   18.1267   26.3094   12.4202 C   0  0  0  0  0  0  0  0  0  0  0  0
   18.1570   27.4392    8.4095 O   0  0  0  0  0  0  0  0  0  0  0  0
   18.5228   26.6003    7.3205 C   0  0  0  0  0  0  0  0  0  0  0  0
   20.7587   28.2453   13.5575 C   0  0  0  0  0  0  0  0  0  0  0  0
   21.5648   28.3451   12.2594 C   0  0  0  0  0  0  0  0  0  0  0  0
   21.8676   27.0478   11.5072 C   0  0  0  0  0  0  0  0  0  0  0  0
   22.9745   27.7473   12.2833 C   0  0  0  0  0  0  0  0  0  0  0  0
   19.9173   32.2812   14.7376 C   0  0  0  0  0  0  0  0  0  0  0  0
   20.6335   33.3869   15.3942 N   0  0  0  0  0  0  0  0  0  0  0  0
   21.3897   33.2357   16.4892 C   0  0  0  0  0  0  0  0  0  0  0  0
   21.5692   32.1568   17.0239 O   0  0  0  0  0  0  0  0  0  0  0  0
   20.5520   34.2882   15.0067 H   0  0  0  0  0  0  0  0  0  0  0  0
   22.0964   34.4149   17.0872 C   0  0  0  0  0  0  0  0  0  0  0  0
   21.3809   35.6840   16.6920 C   0  0  0  0  0  0  0  0  0  0  0  0
   20.3688   36.0015   17.7634 C   0  0  0  0  0  0  0  0  0  0  0  0
   20.6561   35.8517   18.9580 O   0  0  0  0  0  0  0  0  0  0  0  0
   19.1750   36.4451   17.3647 N   0  0  0  0  0  0  0  0  0  0  0  0
   18.1302   36.8076   18.3083 C   0  0  0  0  0  0  0  0  0  0  0  0
   18.9961   36.5297   16.4003 H   0  0  0  0  0  0  0  0  0  0  0  0
   18.7431   32.8448   13.9342 C   0  0  0  0  0  0  0  0  0  0  0  0
   17.5853   33.0923   14.8697 C   0  0  0  0  0  0  0  0  0  0  0  0
   16.9009   32.0217   15.4442 C   0  0  0  0  0  0  0  0  0  0  0  0
   15.8261   32.2363   16.2898 C   0  0  0  0  0  0  0  0  0  0  0  0
   15.4257   33.5344   16.5716 C   0  0  0  0  0  0  0  0  0  0  0  0
   16.0900   34.5900   15.9891 C   0  0  0  0  0  0  0  0  0  0  0  0
   17.1744   34.3831   15.1556 C   0  0  0  0  0  0  0  0  0  0  0  0
  6  7  2  0  0  0
  7  8  2  0  0  0
  7  5  1  0  0  0
  7  9  1  0  0  0
  9 10  2  0  0  0
  9 14  1  0  0  0
 10 11  1  0  0  0
 11 15  1  0  0  0
 11 12  2  0  0  0
 15 16  1  0  0  0
 12 13  1  0  0  0
 13 14  2  0  0  0
  5  4  1  0  0  0
  5 17  1  0  0  0
 17 18  1  0  0  0
 18 20  1  0  0  0
 18 19  1  0  0  0
 19 20  1  0  0  0
  4  1  1  0  0  0
  1 21  1  0  0  0
  1  2  1  0  0  0
 21 22  1  0  0  0
 21 33  1  0  0  0
 33 34  1  0  0  0
 34 39  2  0  0  0
 34 35  1  0  0  0
 35 36  2  0  0  0
 36 37  1  0  0  0
 37 38  2  0  0  0
 38 39  1  0  0  0
 22 23  1  0  0  0
 23 26  1  0  0  0
 23 24  2  0  0  0
 26 27  1  0  0  0
 27 28  1  0  0  0
 28 30  1  0  0  0
 28 29  2  0  0  0
 30 31  1  0  0  0
  2  3  1  0  0  0
 22 25  1  0  0  0
 30 32  1  0  0  0
M  END
> <minimizedAffinity>
-8.62335

$$$$
2PSU_MUU_A_200


 39 41  0  0  0  0  0  0  0  0999 V2000
   21.5203   33.3867   16.4802 C   0  0  0  0  0  0  0  0  0  0  0  0
   21.7473   33.1105   17.8614 O   0  0  0  0  0  0  0  0  0  0  0  0
   20.9958   32.6124   18.2193 H   0  0  0  0  0  0  0  0  0  0  0  0
   20.2730   34.2922   16.3288 C   0  0  0  0  0  0  0  0  0  0  0  0
   19.4787   34.1285   17.5693 N   0  0  0  0  0  0  0  0  0  0  0  0
   20.6836   35.0241   19.5365 O   0  0  0  0  0  0  0  0  0  0  0  0
   19.6140   35.3451   18.6426 S   0  0  0  0  0  0  0  0  0  0  0  0
   18.3467   35.4305   19.3144 O   0  0  0  0  0  0  0  0  0  0  0  0
   19.9180   36.8164   17.9391 C   0  0  0  0  0  0  0  0  0  0  0  0
   18.9123   37.7763   17.8783 C   0  0  0  0  0  0  0  0  0  0  0  0
   19.1390   39.0151   17.2882 C   0  0  0  0  0  0  0  0  0  0  0  0
   20.4015   39.3016   16.7556 C   0  0  0  0  0  0  0  0  0  0  0  0
   21.4090   38.3495   16.8018 C   0  0  0  0  0  0  0  0  0  0  0  0
   21.1698   37.1095   17.3960 C   0  0  0  0  0  0  0  0  0  0  0  0
   18.0956   39.9194   17.2712 O   0  0  0  0  0  0  0  0  0  0  0  0
   16.7368   39.5542   17.0617 C   0  0  0  0  0  0  0  0  0  0  0  0
   18.0812   33.7169   17.3120 C   0  0  0  0  0  0  0  0  0  0  0  0
   17.6317   34.3564   15.9952 C   0  0  0  0  0  0  0  0  0  0  0  0
   16.5299   35.4159   16.0574 C   0  0  0  0  0  0  0  0  0  0  0  0
   16.2122   34.0258   15.5251 C   0  0  0  0  0  0  0  0  0  0  0  0
   21.4473   32.0617   15.6969 C   0  0  0  0  0  0  0  0  0  0  0  0
   20.0440   31.7372   15.3940 N   0  0  0  0  0  0  0  0  0  0  0  0
   19.4105   30.6590   15.8738 C   0  0  0  0  0  0  0  0  0  0  0  0
   19.9402   29.8629   16.6272 O   0  0  0  0  0  0  0  0  0  0  0  0
   19.5427   32.3469   14.8055 H   0  0  0  0  0  0  0  0  0  0  0  0
   17.9738   30.4102   15.5251 C   0  0  0  0  0  0  0  0  0  0  0  0
   17.7285   30.8064   14.0893 C   0  0  0  0  0  0  0  0  0  0  0  0
   17.7748   29.5570   13.2466 C   0  0  0  0  0  0  0  0  0  0  0  0
   17.7488   29.6354   12.0117 O   0  0  0  0  0  0  0  0  0  0  0  0
   17.8465   28.3891   13.8882 N   0  0  0  0  0  0  0  0  0  0  0  0
   17.9228   27.1215   13.1805 C   0  0  0  0  0  0  0  0  0  0  0  0
   17.8479   28.3858   14.8727 H   0  0  0  0  0  0  0  0  0  0  0  0
   22.2508   32.0986   14.3951 C   0  0  0  0  0  0  0  0  0  0  0  0
   22.0198   30.8117   13.6418 C   0  0  0  0  0  0  0  0  0  0  0  0
   21.3249   30.8168   12.4328 C   0  0  0  0  0  0  0  0  0  0  0  0
   21.0916   29.6401   11.7418 C   0  0  0  0  0  0  0  0  0  0  0  0
   21.5574   28.4395   12.2580 C   0  0  0  0  0  0  0  0  0  0  0  0
   22.2267   28.4334   13.4609 C   0  0  0  0  0  0  0  0  0  0  0  0
   22.4768   29.6072   14.1487 C   0  0  0  0  0  0  0  0  0  0  0  0
  6  7  2  0  0  0
  7  8  2  0  0  0
  7  5  1  0  0  0
  7  9  1  0  0  0
  9 10  2  0  0  0
  9 14  1  0  0  0
 10 11  1  0  0  0
 11 15  1  0  0  0
 11 12  2  0  0  0
 15 16  1  0  0  0
 12 13  1  0  0  0
 13 14  2  0  0  0
  5  4  1  0  0  0
  5 17  1  0  0  0
 17 18  1  0  0  0
 18 20  1  0  0  0
 18 19  1  0  0  0
 19 20  1  0  0  0
  4  1  1  0  0  0
  1 21  1  0  0  0
  1  2  1  0  0  0
 21 22  1  0  0  0
 21 33  1  0  0  0
 33 34  1  0  0  0
 34 39  2  0  0  0
 34 35  1  0  0  0
 35 36  2  0  0  0
 36 37  1  0  0  0
 37 38  2  0  0  0
 38 39  1  0  0  0
 22 23  1  0  0  0
 23 26  1  0  0  0
 23 24  2  0  0  0
 26 27  1  0  0  0
 27 28  1  0  0  0
 28 30  1  0  0  0
 28 29  2  0  0  0
 30 31  1  0  0  0
  2  3  1  0  0  0
 22 25  1  0  0  0
 30 32  1  0  0  0
M  END
> <minimizedAffinity>
-8.42676

$$$$
2PSU_MUU_A_200


 39 41  0  0  0  0  0  0  0  0999 V2000
   18.2879   30.1072   13.3061 C   0  0  0  0  0  0  0  0  0  0  0  0
   16.9324   30.1622   12.8645 O   0  0  0  0  0  0  0  0  0  0  0  0
   16.3409   29.9931   13.6144 H   0  0  0  0  0  0  0  0  0  0  0  0
   18.6116   28.6812   13.8161 C   0  0  0  0  0  0  0  0  0  0  0  0
   19.4710   28.0492   12.7873 N   0  0  0  0  0  0  0  0  0  0  0  0
   17.9386   27.9652   10.8462 O   0  0  0  0  0  0  0  0  0  0  0  0
   18.6873   27.1092   11.7139 S   0  0  0  0  0  0  0  0  0  0  0  0
   17.8433   26.2380   12.4842 O   0  0  0  0  0  0  0  0  0  0  0  0
   19.6991   26.1628   10.8014 C   0  0  0  0  0  0  0  0  0  0  0  0
   20.9559   25.8202   11.2909 C   0  0  0  0  0  0  0  0  0  0  0  0
   21.8258   25.0335   10.5434 C   0  0  0  0  0  0  0  0  0  0  0  0
   21.4254   24.5734    9.2833 C   0  0  0  0  0  0  0  0  0  0  0  0
   20.1788   24.9162    8.7809 C   0  0  0  0  0  0  0  0  0  0  0  0
   19.3145   25.7066    9.5397 C   0  0  0  0  0  0  0  0  0  0  0  0
   23.0534   24.7285   11.0973 O   0  0  0  0  0  0  0  0  0  0  0  0
   24.1934   25.5745   11.0065 C   0  0  0  0  0  0  0  0  0  0  0  0
   20.4204   28.9973   12.1639 C   0  0  0  0  0  0  0  0  0  0  0  0
   21.8301   28.6462   12.6478 C   0  0  0  0  0  0  0  0  0  0  0  0
   22.0592   28.5381   14.1565 C   0  0  0  0  0  0  0  0  0  0  0  0
   22.5887   29.7459   13.3966 C   0  0  0  0  0  0  0  0  0  0  0  0
   18.5383   31.2265   14.3353 C   0  0  0  0  0  0  0  0  0  0  0  0
   17.2534   31.7497   14.8268 N   0  0  0  0  0  0  0  0  0  0  0  0
   17.0270   33.0452   15.0803 C   0  0  0  0  0  0  0  0  0  0  0  0
   17.8654   33.9095   14.9007 O   0  0  0  0  0  0  0  0  0  0  0  0
   16.5190   31.1116   14.9776 H   0  0  0  0  0  0  0  0  0  0  0  0
   15.6823   33.4954   15.5669 C   0  0  0  0  0  0  0  0  0  0  0  0
   15.5764   33.2493   17.0525 C   0  0  0  0  0  0  0  0  0  0  0  0
   15.7913   34.5637   17.7592 C   0  0  0  0  0  0  0  0  0  0  0  0
   15.6849   34.6356   18.9902 O   0  0  0  0  0  0  0  0  0  0  0  0
   16.0981   35.6207   17.0044 N   0  0  0  0  0  0  0  0  0  0  0  0
   16.3529   36.9322   17.5775 C   0  0  0  0  0  0  0  0  0  0  0  0
   16.1536   35.5086   16.0279 H   0  0  0  0  0  0  0  0  0  0  0  0
   19.3827   30.7601   15.5233 C   0  0  0  0  0  0  0  0  0  0  0  0
   20.6116   31.6302   15.6206 C   0  0  0  0  0  0  0  0  0  0  0  0
   21.3657   31.6578   16.7933 C   0  0  0  0  0  0  0  0  0  0  0  0
   22.4849   32.4656   16.9003 C   0  0  0  0  0  0  0  0  0  0  0  0
   22.8630   33.2568   15.8251 C   0  0  0  0  0  0  0  0  0  0  0  0
   22.1071   33.2429   14.6747 C   0  0  0  0  0  0  0  0  0  0  0  0
   20.9967   32.4266   14.5556 C   0  0  0  0  0  0  0  0  0  0  0  0
  6  7  2  0  0  0
  7  8  2  0  0  0
  7  5  1  0  0  0
  7  9  1  0  0  0
  9 10  2  0  0  0
  9 14  1  0  0  0
 10 11  1  0  0  0
 11 15  1  0  0  0
 11 12  2  0  0  0
 15 16  1  0  0  0
 12 13  1  0  0  0
 13 14  2  0  0  0
  5  4  1  0  0  0
  5 17  1  0  0  0
 17 18  1  0  0  0
 18 20  1  0  0  0
 18 19  1  0  0  0
 19 20  1  0  0  0
  4  1  1  0  0  0
  1 21  1  0  0  0
  1  2  1  0  0  0
 21 22  1  0  0  0
 21 33  1  0  0  0
 33 34  1  0  0  0
 34 39  2  0  0  0
 34 35  1  0  0  0
 35 36  2  0  0  0
 36 37  1  0  0  0
 37 38  2  0  0  0
 38 39  1  0  0  0
 22 23  1  0  0  0
 23 26  1  0  0  0
 23 24  2  0  0  0
 26 27  1  0  0  0
 27 28  1  0  0  0
 28 30  1  0  0  0
 28 29  2  0  0  0
 30 31  1  0  0  0
  2  3  1  0  0  0
 22 25  1  0  0  0
 30 32  1  0  0  0
M  END
> <minimizedAffinity>
-8.30887

$$$$
2PSU_MUU_A_200


 39 41  0  0  0  0  0  0  0  0999 V2000
   18.6653   31.9247   15.0051 C   0  0  0  0  0  0  0  0  0  0  0  0
   17.3009   31.5148   14.9297 O   0  0  0  0  0  0  0  0  0  0  0  0
   17.0053   31.2125   15.8028 H   0  0  0  0  0  0  0  0  0  0  0  0
   19.5528   30.7124   15.3808 C   0  0  0  0  0  0  0  0  0  0  0  0
   20.4743   30.4937   14.2408 N   0  0  0  0  0  0  0  0  0  0  0  0
   19.6881   30.6798   11.9019 O   0  0  0  0  0  0  0  0  0  0  0  0
   19.8217   29.7278   12.9611 S   0  0  0  0  0  0  0  0  0  0  0  0
   18.5524   29.2189   13.4024 O   0  0  0  0  0  0  0  0  0  0  0  0
   20.7271   28.4448   12.4264 C   0  0  0  0  0  0  0  0  0  0  0  0
   22.1136   28.4800   12.5402 C   0  0  0  0  0  0  0  0  0  0  0  0
   22.8962   27.4205   12.0937 C   0  0  0  0  0  0  0  0  0  0  0  0
   22.2769   26.2990   11.5295 C   0  0  0  0  0  0  0  0  0  0  0  0
   20.8964   26.2564   11.4022 C   0  0  0  0  0  0  0  0  0  0  0  0
   20.1213   27.3257   11.8531 C   0  0  0  0  0  0  0  0  0  0  0  0
   24.2648   27.5236   12.2463 O   0  0  0  0  0  0  0  0  0  0  0  0
   25.1954   26.6227   11.6582 C   0  0  0  0  0  0  0  0  0  0  0  0
   21.2447   31.7037   13.8786 C   0  0  0  0  0  0  0  0  0  0  0  0
   22.6810   31.5199   14.3766 C   0  0  0  0  0  0  0  0  0  0  0  0
   23.0078   31.9854   15.7968 C   0  0  0  0  0  0  0  0  0  0  0  0
   23.4934   32.7980   14.6049 C   0  0  0  0  0  0  0  0  0  0  0  0
   18.7880   33.1274   15.9607 C   0  0  0  0  0  0  0  0  0  0  0  0
   17.4722   33.4400   16.5416 N   0  0  0  0  0  0  0  0  0  0  0  0
   16.6570   34.3902   16.0658 C   0  0  0  0  0  0  0  0  0  0  0  0
   16.9282   35.0645   15.0891 O   0  0  0  0  0  0  0  0  0  0  0  0
   17.1747   32.9216   17.3238 H   0  0  0  0  0  0  0  0  0  0  0  0
   15.3259   34.6350   16.7106 C   0  0  0  0  0  0  0  0  0  0  0  0
   15.4728   34.5636   18.2113 C   0  0  0  0  0  0  0  0  0  0  0  0
   16.4725   35.6108   18.6321 C   0  0  0  0  0  0  0  0  0  0  0  0
   17.5542   35.2763   19.1320 O   0  0  0  0  0  0  0  0  0  0  0  0
   16.1380   36.8882   18.4388 N   0  0  0  0  0  0  0  0  0  0  0  0
   17.0322   37.9820   18.7813 C   0  0  0  0  0  0  0  0  0  0  0  0
   15.2571   37.0965   18.0517 H   0  0  0  0  0  0  0  0  0  0  0  0
   19.7950   32.8875   17.0878 C   0  0  0  0  0  0  0  0  0  0  0  0
   20.6313   34.1304   17.2682 C   0  0  0  0  0  0  0  0  0  0  0  0
   20.7068   35.0837   16.2533 C   0  0  0  0  0  0  0  0  0  0  0  0
   21.4850   36.2192   16.4006 C   0  0  0  0  0  0  0  0  0  0  0  0
   22.1977   36.4126   17.5750 C   0  0  0  0  0  0  0  0  0  0  0  0
   22.1375   35.4618   18.5687 C   0  0  0  0  0  0  0  0  0  0  0  0
   21.3498   34.3326   18.4343 C   0  0  0  0  0  0  0  0  0  0  0  0
  6  7  2  0  0  0
  7  8  2  0  0  0
  7  5  1  0  0  0
  7  9  1  0  0  0
  9 10  2  0  0  0
  9 14  1  0  0  0
 10 11  1  0  0  0
 11 15  1  0  0  0
 11 12  2  0  0  0
 15 16  1  0  0  0
 12 13  1  0  0  0
 13 14  2  0  0  0
  5  4  1  0  0  0
  5 17  1  0  0  0
 17 18  1  0  0  0
 18 20  1  0  0  0
 18 19  1  0  0  0
 19 20  1  0  0  0
  4  1  1  0  0  0
  1 21  1  0  0  0
  1  2  1  0  0  0
 21 22  1  0  0  0
 21 33  1  0  0  0
 33 34  1  0  0  0
 34 39  2  0  0  0
 34 35  1  0  0  0
 35 36  2  0  0  0
 36 37  1  0  0  0
 37 38  2  0  0  0
 38 39  1  0  0  0
 22 23  1  0  0  0
 23 26  1  0  0  0
 23 24  2  0  0  0
 26 27  1  0  0  0
 27 28  1  0  0  0
 28 30  1  0  0  0
 28 29  2  0  0  0
 30 31  1  0  0  0
  2  3  1  0  0  0
 22 25  1  0  0  0
 30 32  1  0  0  0
M  END
> <minimizedAffinity>
-8.13779

$$$$
2PSU_MUU_A_200


 39 41  0  0  0  0  0  0  0  0999 V2000
   18.2541   30.4738   14.9218 C   0  0  0  0  0  0  0  0  0  0  0  0
   19.2118   29.7125   15.6558 O   0  0  0  0  0  0  0  0  0  0  0  0
   20.0810   30.1385   15.5920 H   0  0  0  0  0  0  0  0  0  0  0  0
   18.6366   30.4831   13.4211 C   0  0  0  0  0  0  0  0  0  0  0  0
   19.0009   29.0903   13.0691 N   0  0  0  0  0  0  0  0  0  0  0  0
   16.7928   29.1042   11.9522 O   0  0  0  0  0  0  0  0  0  0  0  0
   17.7980   28.2028   12.4245 S   0  0  0  0  0  0  0  0  0  0  0  0
   17.3181   27.3518   13.4782 O   0  0  0  0  0  0  0  0  0  0  0  0
   18.2899   27.2338   11.1711 C   0  0  0  0  0  0  0  0  0  0  0  0
   18.0485   27.6244    9.8575 C   0  0  0  0  0  0  0  0  0  0  0  0
   18.4447   26.8274    8.7887 C   0  0  0  0  0  0  0  0  0  0  0  0
   19.1040   25.6184    9.0407 C   0  0  0  0  0  0  0  0  0  0  0  0
   19.3419   25.2140   10.3459 C   0  0  0  0  0  0  0  0  0  0  0  0
   18.9392   26.0217   11.4105 C   0  0  0  0  0  0  0  0  0  0  0  0
   18.1774   27.2836    7.5131 O   0  0  0  0  0  0  0  0  0  0  0  0
   18.5986   26.6149    6.3303 C   0  0  0  0  0  0  0  0  0  0  0  0
   20.2741   28.9961   12.3214 C   0  0  0  0  0  0  0  0  0  0  0  0
   21.2929   28.2722   13.2061 C   0  0  0  0  0  0  0  0  0  0  0  0
   22.4738   29.0832   13.7428 C   0  0  0  0  0  0  0  0  0  0  0  0
   22.6941   28.0814   12.6183 C   0  0  0  0  0  0  0  0  0  0  0  0
   18.1154   31.8718   15.5549 C   0  0  0  0  0  0  0  0  0  0  0  0
   19.4350   32.5194   15.6299 N   0  0  0  0  0  0  0  0  0  0  0  0
   19.8279   33.2886   16.6536 C   0  0  0  0  0  0  0  0  0  0  0  0
   19.1288   33.4988   17.6279 O   0  0  0  0  0  0  0  0  0  0  0  0
   20.0643   32.3791   14.8859 H   0  0  0  0  0  0  0  0  0  0  0  0
   21.1966   33.9004   16.6562 C   0  0  0  0  0  0  0  0  0  0  0  0
   21.0805   35.3943   16.4736 C   0  0  0  0  0  0  0  0  0  0  0  0
   21.6087   36.0587   17.7197 C   0  0  0  0  0  0  0  0  0  0  0  0
   21.0552   35.8700   18.8105 O   0  0  0  0  0  0  0  0  0  0  0  0
   22.6819   36.8408   17.5876 N   0  0  0  0  0  0  0  0  0  0  0  0
   23.2943   37.5116   18.7227 C   0  0  0  0  0  0  0  0  0  0  0  0
   23.0715   36.9677   16.6924 H   0  0  0  0  0  0  0  0  0  0  0  0
   17.1504   32.7768   14.7857 C   0  0  0  0  0  0  0  0  0  0  0  0
   16.4470   33.6846   15.7645 C   0  0  0  0  0  0  0  0  0  0  0  0
   16.6124   35.0671   15.6890 C   0  0  0  0  0  0  0  0  0  0  0  0
   15.9862   35.9087   16.5925 C   0  0  0  0  0  0  0  0  0  0  0  0
   15.1811   35.3693   17.5853 C   0  0  0  0  0  0  0  0  0  0  0  0
   15.0336   34.0033   17.6705 C   0  0  0  0  0  0  0  0  0  0  0  0
   15.6439   33.1577   16.7616 C   0  0  0  0  0  0  0  0  0  0  0  0
  6  7  2  0  0  0
  7  8  2  0  0  0
  7  5  1  0  0  0
  7  9  1  0  0  0
  9 10  2  0  0  0
  9 14  1  0  0  0
 10 11  1  0  0  0
 11 15  1  0  0  0
 11 12  2  0  0  0
 15 16  1  0  0  0
 12 13  1  0  0  0
 13 14  2  0  0  0
  5  4  1  0  0  0
  5 17  1  0  0  0
 17 18  1  0  0  0
 18 20  1  0  0  0
 18 19  1  0  0  0
 19 20  1  0  0  0
  4  1  1  0  0  0
  1 21  1  0  0  0
  1  2  1  0  0  0
 21 22  1  0  0  0
 21 33  1  0  0  0
 33 34  1  0  0  0
 34 39  2  0  0  0
 34 35  1  0  0  0
 35 36  2  0  0  0
 36 37  1  0  0  0
 37 38  2  0  0  0
 38 39  1  0  0  0
 22 23  1  0  0  0
 23 26  1  0  0  0
 23 24  2  0  0  0
 26 27  1  0  0  0
 27 28  1  0  0  0
 28 30  1  0  0  0
 28 29  2  0  0  0
 30 31  1  0  0  0
  2  3  1  0  0  0
 22 25  1  0  0  0
 30 32  1  0  0  0
M  END
> <minimizedAffinity>
-8.06764

$$$$
2PSU_MUU_A_200


 39 41  0  0  0  0  0  0  0  0999 V2000
   19.4293   29.0367   12.9729 C   0  0  0  0  0  0  0  0  0  0  0  0
   19.3596   30.3142   12.3415 O   0  0  0  0  0  0  0  0  0  0  0  0
   20.2545   30.6126   12.1158 H   0  0  0  0  0  0  0  0  0  0  0  0
   20.2083   29.1571   14.3061 C   0  0  0  0  0  0  0  0  0  0  0  0
   19.9719   30.5301   14.8113 N   0  0  0  0  0  0  0  0  0  0  0  0
   18.9622   30.2531   17.0535 O   0  0  0  0  0  0  0  0  0  0  0  0
   18.6434   30.7077   15.7353 S   0  0  0  0  0  0  0  0  0  0  0  0
   17.6158   29.9159   15.1173 O   0  0  0  0  0  0  0  0  0  0  0  0
   18.1001   32.2730   15.8179 C   0  0  0  0  0  0  0  0  0  0  0  0
   18.1334   32.9548   17.0305 C   0  0  0  0  0  0  0  0  0  0  0  0
   17.6780   34.2653   17.1284 C   0  0  0  0  0  0  0  0  0  0  0  0
   17.1871   34.9091   15.9863 C   0  0  0  0  0  0  0  0  0  0  0  0
   17.1402   34.2367   14.7741 C   0  0  0  0  0  0  0  0  0  0  0  0
   17.5993   32.9216   14.6880 C   0  0  0  0  0  0  0  0  0  0  0  0
   17.7487   34.8797   18.3630 O   0  0  0  0  0  0  0  0  0  0  0  0
   18.2390   36.2003   18.5614 C   0  0  0  0  0  0  0  0  0  0  0  0
   21.1839   31.1512   15.3892 C   0  0  0  0  0  0  0  0  0  0  0  0
   21.5549   32.3617   14.5280 C   0  0  0  0  0  0  0  0  0  0  0  0
   22.9221   33.0082   14.7588 C   0  0  0  0  0  0  0  0  0  0  0  0
   21.6629   33.7071   15.2515 C   0  0  0  0  0  0  0  0  0  0  0  0
   20.0091   28.0065   11.9844 C   0  0  0  0  0  0  0  0  0  0  0  0
   21.3292   27.5537   12.4519 N   0  0  0  0  0  0  0  0  0  0  0  0
   22.4802   27.8644   11.8415 C   0  0  0  0  0  0  0  0  0  0  0  0
   22.5331   28.5741   10.8537 O   0  0  0  0  0  0  0  0  0  0  0  0
   21.3684   26.9907   13.2586 H   0  0  0  0  0  0  0  0  0  0  0  0
   23.7841   27.3712   12.3929 C   0  0  0  0  0  0  0  0  0  0  0  0
   24.7701   27.1866   11.2649 C   0  0  0  0  0  0  0  0  0  0  0  0
   24.3930   25.9331   10.5167 C   0  0  0  0  0  0  0  0  0  0  0  0
   24.4134   24.8351   11.0876 O   0  0  0  0  0  0  0  0  0  0  0  0
   24.0414   26.0675    9.2364 N   0  0  0  0  0  0  0  0  0  0  0  0
   23.6335   24.9335    8.4234 C   0  0  0  0  0  0  0  0  0  0  0  0
   24.0589   26.9638    8.8293 H   0  0  0  0  0  0  0  0  0  0  0  0
   19.0968   26.7931   11.7913 C   0  0  0  0  0  0  0  0  0  0  0  0
   19.0817   26.4212   10.3290 C   0  0  0  0  0  0  0  0  0  0  0  0
   18.3463   27.1767    9.4163 C   0  0  0  0  0  0  0  0  0  0  0  0
   18.3108   26.8346    8.0753 C   0  0  0  0  0  0  0  0  0  0  0  0
   19.0183   25.7262    7.6328 C   0  0  0  0  0  0  0  0  0  0  0  0
   19.7286   24.9702    8.5378 C   0  0  0  0  0  0  0  0  0  0  0  0
   19.7810   25.3153    9.8763 C   0  0  0  0  0  0  0  0  0  0  0  0
  6  7  2  0  0  0
  7  8  2  0  0  0
  7  5  1  0  0  0
  7  9  1  0  0  0
  9 10  2  0  0  0
  9 14  1  0  0  0
 10 11  1  0  0  0
 11 15  1  0  0  0
 11 12  2  0  0  0
 15 16  1  0  0  0
 12 13  1  0  0  0
 13 14  2  0  0  0
  5  4  1  0  0  0
  5 17  1  0  0  0
 17 18  1  0  0  0
 18 20  1  0  0  0
 18 19  1  0  0  0
 19 20  1  0  0  0
  4  1  1  0  0  0
  1 21  1  0  0  0
  1  2  1  0  0  0
 21 22  1  0  0  0
 21 33  1  0  0  0
 33 34  1  0  0  0
 34 39  2  0  0  0
 34 35  1  0  0  0
 35 36  2  0  0  0
 36 37  1  0  0  0
 37 38  2  0  0  0
 38 39  1  0  0  0
 22 23  1  0  0  0
 23 26  1  0  0  0
 23 24  2  0  0  0
 26 27  1  0  0  0
 27 28  1  0  0  0
 28 30  1  0  0  0
 28 29  2  0  0  0
 30 31  1  0  0  0
  2  3  1  0  0  0
 22 25  1  0  0  0
 30 32  1  0  0  0
M  END
> <minimizedAffinity>
-7.99870

$$$$
