4U5N_3D4_A_501


 55 57  0  0  0  0  0  0  0  0999 V2000
   -3.3531   25.8071    9.1960 C   0  0  0  0  0  0  0  0  0  0  0  0
   -5.0527   26.0848    7.5953 O   0  0  0  0  0  0  0  0  0  0  0  0
   -3.9454   25.7045    7.7816 C   0  0  0  0  0  0  0  0  0  0  0  0
   -3.2489   25.1464    6.6315 N   0  0  0  0  0  0  0  0  0  0  0  0
   -3.7622   25.1233    5.7918 H   0  0  0  0  0  0  0  0  0  0  0  0
   -1.8981   24.6192    6.5581 C   0  0  0  0  0  0  0  0  0  0  0  0
   -2.0585   22.2731    6.7001 C   0  0  0  0  0  0  0  0  0  0  0  0
   -2.7865   23.1039    4.6398 O   0  0  0  0  0  0  0  0  0  0  0  0
   -1.8089   23.2741    5.8027 C   0  0  0  0  0  0  0  0  0  0  0  0
   -2.6335   23.8021    3.9840 H   0  0  0  0  0  0  0  0  0  0  0  0
   -0.5500   26.4609    6.8418 O   0  0  0  0  0  0  0  0  0  0  0  0
   -1.2325   25.7800    5.8229 C   0  0  0  0  0  0  0  0  0  0  0  0
   -0.0887   27.2270    6.4661 H   0  0  0  0  0  0  0  0  0  0  0  0
   -0.3432   25.1833    4.8176 N   0  0  0  0  0  0  0  0  0  0  0  0
   -0.3451   24.1781    4.9906 H   0  0  0  0  0  0  0  0  0  0  0  0
    1.0706   25.5861    4.7121 C   0  0  0  0  0  0  0  0  0  0  0  0
    3.3591   24.4667    4.1767 N   0  0  0  0  0  0  0  0  0  0  0  0
    1.4167   23.2748    4.4288 O   0  0  0  0  0  0  0  0  0  0  0  0
    1.9275   24.3468    4.4319 C   0  0  0  0  0  0  0  0  0  0  0  0
    3.8964   23.6613    3.9983 H   0  0  0  0  0  0  0  0  0  0  0  0
    3.7876   25.3530    4.1830 H   0  0  0  0  0  0  0  0  0  0  0  0
    1.4185   26.6394    3.6491 C   0  0  0  0  0  0  0  0  0  0  0  0
    3.6916   29.9377    5.2408 C   0  0  0  0  0  0  0  0  0  0  0  0
    3.4361   29.8798    3.8803 C   0  0  0  0  0  0  0  0  0  0  0  0
    3.2284   28.9457    6.0876 C   0  0  0  0  0  0  0  0  0  0  0  0
    2.7137   28.8181    3.3733 C   0  0  0  0  0  0  0  0  0  0  0  0
    2.5004   27.8815    5.5742 C   0  0  0  0  0  0  0  0  0  0  0  0
    2.2342   27.8145    4.2136 C   0  0  0  0  0  0  0  0  0  0  0  0
   -1.2910   27.0660   10.0587 C   0  0  0  0  0  0  0  0  0  0  0  0
   -0.7545   26.0682   10.4133 O   0  0  0  0  0  0  0  0  0  0  0  0
   -2.6127   27.0355    9.4402 N   0  0  0  0  0  0  0  0  0  0  0  0
   -3.0241   27.8896    9.1746 H   0  0  0  0  0  0  0  0  0  0  0  0
   -0.6415   28.4404   10.2748 C   0  0  0  0  0  0  0  0  0  0  0  0
   -1.5309   29.3252   11.0463 N   0  0  0  0  0  0  0  0  0  0  0  0
   -2.3649   28.8005   11.3099 H   0  0  0  0  0  0  0  0  0  0  0  0
   -0.8913   29.8463   12.2749 C   0  0  0  0  0  0  0  0  0  0  0  0
    0.8652   31.6838   12.5002 C   0  0  0  0  0  0  0  0  0  0  0  0
   -1.2741   32.2243   11.5225 C   0  0  0  0  0  0  0  0  0  0  0  0
    1.3099   32.9838   12.3197 C   0  0  0  0  0  0  0  0  0  0  0  0
   -0.8395   33.5333   11.3462 C   0  0  0  0  0  0  0  0  0  0  0  0
   -0.4168   31.2962   12.0988 C   0  0  0  0  0  0  0  0  0  0  0  0
    0.4403   33.9005   11.7497 C   0  0  0  0  0  0  0  0  0  0  0  0
    2.0211   37.2836   12.3463 C   0  0  0  0  0  0  0  0  0  0  0  0
    1.7262   37.8809   11.1335 C   0  0  0  0  0  0  0  0  0  0  0  0
    1.6033   35.9773   12.5575 C   0  0  0  0  0  0  0  0  0  0  0  0
    0.6595   35.9966   10.3571 C   0  0  0  0  0  0  0  0  0  0  0  0
    0.9254   35.3256   11.5415 C   0  0  0  0  0  0  0  0  0  0  0  0
    1.0730   37.2360   10.1834 N   0  0  0  0  0  0  0  0  0  0  0  0
    0.7667   28.2963   10.8459 C   0  0  0  0  0  0  0  0  0  0  0  0
    1.7772   28.9666    9.9193 C   0  0  0  0  0  0  0  0  0  0  0  0
    1.1057   29.7685    8.8177 C   0  0  0  0  0  0  0  0  0  0  0  0
    1.4822   31.2508    8.8439 C   0  0  0  0  0  0  0  0  0  0  0  0
    0.3781   32.0495    8.3335 N   0  0  0  0  0  0  0  0  0  0  0  0
   -0.4457   31.9028    8.9168 H   0  0  0  0  0  0  0  0  0  0  0  0
    0.1703   31.7691    7.3751 H   0  0  0  0  0  0  0  0  0  0  0  0
 53 52  1  0  0  0
 52 51  1  0  0  0
 51 50  1  0  0  0
 17 19  1  0  0  0
 18 19  2  0  0  0
 19 16  1  0  0  0
 50 49  1  0  0  0
 24 26  2  0  0  0
 24 23  1  0  0  0
 26 28  1  0  0  0
 49 33  1  0  0  0
 16 14  1  0  0  0
 16 22  1  0  0  0
 14 12  1  0  0  0
 31  1  1  0  0  0
 31 29  1  0  0  0
 23 25  2  0  0  0
  2  3  2  0  0  0
  1  3  1  0  0  0
  3  4  1  0  0  0
 28 22  1  0  0  0
 28 27  2  0  0  0
 33 29  1  0  0  0
 33 34  1  0  0  0
  4  6  1  0  0  0
 29 30  2  0  0  0
  6 12  1  0  0  0
  6  9  1  0  0  0
 12 11  1  0  0  0
 25 27  1  0  0  0
 34 36  1  0  0  0
  8  9  1  0  0  0
  9  7  1  0  0  0
 37 39  2  0  0  0
 37 41  1  0  0  0
 36 41  1  0  0  0
 39 42  1  0  0  0
 41 38  2  0  0  0
 46 48  2  0  0  0
 46 47  1  0  0  0
 42 47  1  0  0  0
 42 40  2  0  0  0
 38 40  1  0  0  0
 48 44  1  0  0  0
 47 45  2  0  0  0
 44 43  2  0  0  0
 45 43  1  0  0  0
 34 35  1  0  0  0
 17 20  1  0  0  0
 17 21  1  0  0  0
 11 13  1  0  0  0
  8 10  1  0  0  0
 31 32  1  0  0  0
  4  5  1  0  0  0
 14 15  1  0  0  0
 53 54  1  0  0  0
 53 55  1  0  0  0
M  END
> <minimizedAffinity>
-7.37323

$$$$
4U5N_3D4_A_501


 55 57  0  0  0  0  0  0  0  0999 V2000
    2.6849   32.6778    7.3220 C   0  0  0  0  0  0  0  0  0  0  0  0
    0.5865   31.7126    7.7617 O   0  0  0  0  0  0  0  0  0  0  0  0
    1.6449   31.5484    7.2535 C   0  0  0  0  0  0  0  0  0  0  0  0
    1.8669   30.2568    6.6197 N   0  0  0  0  0  0  0  0  0  0  0  0
    1.1177   29.6204    6.6740 H   0  0  0  0  0  0  0  0  0  0  0  0
    3.0461   29.7821    5.9181 C   0  0  0  0  0  0  0  0  0  0  0  0
    5.1026   29.9091    7.0604 C   0  0  0  0  0  0  0  0  0  0  0  0
    3.5128   28.6326    8.2041 O   0  0  0  0  0  0  0  0  0  0  0  0
    4.0542   29.0595    6.8397 C   0  0  0  0  0  0  0  0  0  0  0  0
    2.7652   28.0271    8.0803 H   0  0  0  0  0  0  0  0  0  0  0  0
    3.2413   28.8679    3.8167 O   0  0  0  0  0  0  0  0  0  0  0  0
    2.3647   28.8581    4.9117 C   0  0  0  0  0  0  0  0  0  0  0  0
    2.8878   28.2997    3.1145 H   0  0  0  0  0  0  0  0  0  0  0  0
    2.2501   27.5453    5.5604 N   0  0  0  0  0  0  0  0  0  0  0  0
    3.1614   27.0966    5.4674 H   0  0  0  0  0  0  0  0  0  0  0  0
    1.2510   26.5573    5.1157 C   0  0  0  0  0  0  0  0  0  0  0  0
    1.1247   25.5526    2.7175 N   0  0  0  0  0  0  0  0  0  0  0  0
    2.9040   25.2077    4.1216 O   0  0  0  0  0  0  0  0  0  0  0  0
    1.8429   25.7205    3.9763 C   0  0  0  0  0  0  0  0  0  0  0  0
    1.5179   25.0120    1.9947 H   0  0  0  0  0  0  0  0  0  0  0  0
    0.2468   25.9798    2.5908 H   0  0  0  0  0  0  0  0  0  0  0  0
    0.7139   25.5826    6.1751 C   0  0  0  0  0  0  0  0  0  0  0  0
   -3.5911   25.5589    6.3867 C   0  0  0  0  0  0  0  0  0  0  0  0
   -2.8601   26.0872    7.4384 C   0  0  0  0  0  0  0  0  0  0  0  0
   -2.9514   25.0366    5.2760 C   0  0  0  0  0  0  0  0  0  0  0  0
   -1.4811   26.0866    7.3700 C   0  0  0  0  0  0  0  0  0  0  0  0
   -1.5651   25.0403    5.2102 C   0  0  0  0  0  0  0  0  0  0  0  0
   -0.8217   25.5707    6.2554 C   0  0  0  0  0  0  0  0  0  0  0  0
    2.9050   35.2159    7.6243 C   0  0  0  0  0  0  0  0  0  0  0  0
    4.0698   35.2036    7.3957 O   0  0  0  0  0  0  0  0  0  0  0  0
    2.1202   33.9853    7.6196 N   0  0  0  0  0  0  0  0  0  0  0  0
    1.1598   34.0429    7.8285 H   0  0  0  0  0  0  0  0  0  0  0  0
    2.1764   36.5196    7.9808 C   0  0  0  0  0  0  0  0  0  0  0  0
    2.4225   36.8908    9.3847 N   0  0  0  0  0  0  0  0  0  0  0  0
    2.8049   37.8361    9.4102 H   0  0  0  0  0  0  0  0  0  0  0  0
    1.1934   36.8547   10.2081 C   0  0  0  0  0  0  0  0  0  0  0  0
    1.7689   34.7613   11.5492 C   0  0  0  0  0  0  0  0  0  0  0  0
   -0.3027   34.8253   10.3127 C   0  0  0  0  0  0  0  0  0  0  0  0
    1.4819   33.4909   12.0226 C   0  0  0  0  0  0  0  0  0  0  0  0
   -0.5943   33.5469   10.7753 C   0  0  0  0  0  0  0  0  0  0  0  0
    0.8819   35.4351   10.7041 C   0  0  0  0  0  0  0  0  0  0  0  0
    0.2991   32.8924   11.6175 C   0  0  0  0  0  0  0  0  0  0  0  0
    0.5743   29.5630   13.3892 C   0  0  0  0  0  0  0  0  0  0  0  0
   -0.6341   29.0092   13.0052 C   0  0  0  0  0  0  0  0  0  0  0  0
    0.8892   30.8372   12.9388 C   0  0  0  0  0  0  0  0  0  0  0  0
   -1.2116   30.8753   11.7907 C   0  0  0  0  0  0  0  0  0  0  0  0
   -0.0249   31.5027   12.1401 C   0  0  0  0  0  0  0  0  0  0  0  0
   -1.4854   29.6659   12.2376 N   0  0  0  0  0  0  0  0  0  0  0  0
    2.4899   37.6165    6.9667 C   0  0  0  0  0  0  0  0  0  0  0  0
    1.2019   38.1012    6.3068 C   0  0  0  0  0  0  0  0  0  0  0  0
    1.3203   39.5240    5.7879 C   0  0  0  0  0  0  0  0  0  0  0  0
    0.2708   39.8620    4.7276 C   0  0  0  0  0  0  0  0  0  0  0  0
    0.9269   40.1915    3.4714 N   0  0  0  0  0  0  0  0  0  0  0  0
    1.4770   39.3928    3.1553 H   0  0  0  0  0  0  0  0  0  0  0  0
    1.5410   40.9942    3.6088 H   0  0  0  0  0  0  0  0  0  0  0  0
 53 52  1  0  0  0
 52 51  1  0  0  0
 51 50  1  0  0  0
 17 19  1  0  0  0
 18 19  2  0  0  0
 19 16  1  0  0  0
 50 49  1  0  0  0
 24 26  2  0  0  0
 24 23  1  0  0  0
 26 28  1  0  0  0
 49 33  1  0  0  0
 16 14  1  0  0  0
 16 22  1  0  0  0
 14 12  1  0  0  0
 31  1  1  0  0  0
 31 29  1  0  0  0
 23 25  2  0  0  0
  2  3  2  0  0  0
  1  3  1  0  0  0
  3  4  1  0  0  0
 28 22  1  0  0  0
 28 27  2  0  0  0
 33 29  1  0  0  0
 33 34  1  0  0  0
  4  6  1  0  0  0
 29 30  2  0  0  0
  6 12  1  0  0  0
  6  9  1  0  0  0
 12 11  1  0  0  0
 25 27  1  0  0  0
 34 36  1  0  0  0
  8  9  1  0  0  0
  9  7  1  0  0  0
 37 39  2  0  0  0
 37 41  1  0  0  0
 36 41  1  0  0  0
 39 42  1  0  0  0
 41 38  2  0  0  0
 46 48  2  0  0  0
 46 47  1  0  0  0
 42 47  1  0  0  0
 42 40  2  0  0  0
 38 40  1  0  0  0
 48 44  1  0  0  0
 47 45  2  0  0  0
 44 43  2  0  0  0
 45 43  1  0  0  0
 34 35  1  0  0  0
 17 20  1  0  0  0
 17 21  1  0  0  0
 11 13  1  0  0  0
  8 10  1  0  0  0
 31 32  1  0  0  0
  4  5  1  0  0  0
 14 15  1  0  0  0
 53 54  1  0  0  0
 53 55  1  0  0  0
M  END
> <minimizedAffinity>
-7.21490

$$$$
4U5N_3D4_A_501


 55 57  0  0  0  0  0  0  0  0999 V2000
   -1.0727   27.6178   14.6182 C   0  0  0  0  0  0  0  0  0  0  0  0
   -3.2476   28.4968   14.7772 O   0  0  0  0  0  0  0  0  0  0  0  0
   -2.6057   27.5228   14.5657 C   0  0  0  0  0  0  0  0  0  0  0  0
   -3.3500   26.3019   14.2925 N   0  0  0  0  0  0  0  0  0  0  0  0
   -4.3307   26.3860   14.3148 H   0  0  0  0  0  0  0  0  0  0  0  0
   -2.8388   24.9768   13.9914 C   0  0  0  0  0  0  0  0  0  0  0  0
   -3.3872   23.3037   15.5566 C   0  0  0  0  0  0  0  0  0  0  0  0
   -1.0948   23.4041   15.1094 O   0  0  0  0  0  0  0  0  0  0  0  0
   -2.3963   24.1940   15.2480 C   0  0  0  0  0  0  0  0  0  0  0  0
   -0.3703   24.0106   14.8898 H   0  0  0  0  0  0  0  0  0  0  0  0
   -4.9617   25.4834   13.2658 O   0  0  0  0  0  0  0  0  0  0  0  0
   -4.0767   24.3961   13.3120 C   0  0  0  0  0  0  0  0  0  0  0  0
   -5.7906   25.2079   12.8441 H   0  0  0  0  0  0  0  0  0  0  0  0
   -3.6470   23.9321   11.9863 N   0  0  0  0  0  0  0  0  0  0  0  0
   -4.2853   23.1816   11.7221 H   0  0  0  0  0  0  0  0  0  0  0  0
   -2.2838   23.4195   11.7604 C   0  0  0  0  0  0  0  0  0  0  0  0
   -1.6493   21.2226   13.0044 N   0  0  0  0  0  0  0  0  0  0  0  0
   -2.8406   21.2467   11.0457 O   0  0  0  0  0  0  0  0  0  0  0  0
   -2.2942   21.8916   11.8796 C   0  0  0  0  0  0  0  0  0  0  0  0
   -1.6644   20.2402   13.0673 H   0  0  0  0  0  0  0  0  0  0  0  0
   -1.1991   21.7535   13.7006 H   0  0  0  0  0  0  0  0  0  0  0  0
   -1.6175   23.7749   10.4223 C   0  0  0  0  0  0  0  0  0  0  0  0
   -4.3939   25.4137    7.5614 C   0  0  0  0  0  0  0  0  0  0  0  0
   -4.0586   24.0711    7.4936 C   0  0  0  0  0  0  0  0  0  0  0  0
   -3.8422   26.2296    8.5338 C   0  0  0  0  0  0  0  0  0  0  0  0
   -3.1635   23.5514    8.4074 C   0  0  0  0  0  0  0  0  0  0  0  0
   -2.9448   25.7025    9.4520 C   0  0  0  0  0  0  0  0  0  0  0  0
   -2.6042   24.3581    9.3972 C   0  0  0  0  0  0  0  0  0  0  0  0
    0.7902   29.1335   13.7160 C   0  0  0  0  0  0  0  0  0  0  0  0
    1.4309   29.0411   14.7111 O   0  0  0  0  0  0  0  0  0  0  0  0
   -0.4957   28.4566   13.5788 N   0  0  0  0  0  0  0  0  0  0  0  0
   -0.9981   28.5736   12.7403 H   0  0  0  0  0  0  0  0  0  0  0  0
    1.2604   30.0059   12.5433 C   0  0  0  0  0  0  0  0  0  0  0  0
    0.9013   29.3899   11.2546 N   0  0  0  0  0  0  0  0  0  0  0  0
    0.9131   30.1111   10.5334 H   0  0  0  0  0  0  0  0  0  0  0  0
    1.8326   28.3098   10.8595 C   0  0  0  0  0  0  0  0  0  0  0  0
    0.3764   27.9798    8.7900 C   0  0  0  0  0  0  0  0  0  0  0  0
    1.6099   26.0986    9.6642 C   0  0  0  0  0  0  0  0  0  0  0  0
   -0.1318   27.2057    7.7590 C   0  0  0  0  0  0  0  0  0  0  0  0
    1.0972   25.3122    8.6386 C   0  0  0  0  0  0  0  0  0  0  0  0
    1.2502   27.4379    9.7376 C   0  0  0  0  0  0  0  0  0  0  0  0
    0.2308   25.8691    7.7032 C   0  0  0  0  0  0  0  0  0  0  0  0
   -1.6754   24.7729    4.6266 C   0  0  0  0  0  0  0  0  0  0  0  0
   -1.2996   23.4416    4.5980 C   0  0  0  0  0  0  0  0  0  0  0  0
   -1.1779   25.5775    5.6420 C   0  0  0  0  0  0  0  0  0  0  0  0
    0.0048   23.6712    6.4788 C   0  0  0  0  0  0  0  0  0  0  0  0
   -0.3168   25.0173    6.5699 C   0  0  0  0  0  0  0  0  0  0  0  0
   -0.4797   22.9328    5.5003 N   0  0  0  0  0  0  0  0  0  0  0  0
    0.7925   31.4489   12.7128 C   0  0  0  0  0  0  0  0  0  0  0  0
    0.1488   31.9444   11.4209 C   0  0  0  0  0  0  0  0  0  0  0  0
   -0.5610   33.2749   11.6039 C   0  0  0  0  0  0  0  0  0  0  0  0
   -0.1045   34.3378   10.6030 C   0  0  0  0  0  0  0  0  0  0  0  0
   -1.2410   34.7980    9.8194 N   0  0  0  0  0  0  0  0  0  0  0  0
   -1.9413   35.2023   10.4411 H   0  0  0  0  0  0  0  0  0  0  0  0
   -1.6480   34.0100    9.3156 H   0  0  0  0  0  0  0  0  0  0  0  0
 53 52  1  0  0  0
 52 51  1  0  0  0
 51 50  1  0  0  0
 17 19  1  0  0  0
 18 19  2  0  0  0
 19 16  1  0  0  0
 50 49  1  0  0  0
 24 26  2  0  0  0
 24 23  1  0  0  0
 26 28  1  0  0  0
 49 33  1  0  0  0
 16 14  1  0  0  0
 16 22  1  0  0  0
 14 12  1  0  0  0
 31  1  1  0  0  0
 31 29  1  0  0  0
 23 25  2  0  0  0
  2  3  2  0  0  0
  1  3  1  0  0  0
  3  4  1  0  0  0
 28 22  1  0  0  0
 28 27  2  0  0  0
 33 29  1  0  0  0
 33 34  1  0  0  0
  4  6  1  0  0  0
 29 30  2  0  0  0
  6 12  1  0  0  0
  6  9  1  0  0  0
 12 11  1  0  0  0
 25 27  1  0  0  0
 34 36  1  0  0  0
  8  9  1  0  0  0
  9  7  1  0  0  0
 37 39  2  0  0  0
 37 41  1  0  0  0
 36 41  1  0  0  0
 39 42  1  0  0  0
 41 38  2  0  0  0
 46 48  2  0  0  0
 46 47  1  0  0  0
 42 47  1  0  0  0
 42 40  2  0  0  0
 38 40  1  0  0  0
 48 44  1  0  0  0
 47 45  2  0  0  0
 44 43  2  0  0  0
 45 43  1  0  0  0
 34 35  1  0  0  0
 17 20  1  0  0  0
 17 21  1  0  0  0
 11 13  1  0  0  0
  8 10  1  0  0  0
 31 32  1  0  0  0
  4  5  1  0  0  0
 14 15  1  0  0  0
 53 54  1  0  0  0
 53 55  1  0  0  0
M  END
> <minimizedAffinity>
-7.16213

$$$$
4U5N_3D4_A_501


 55 57  0  0  0  0  0  0  0  0999 V2000
    2.8640   32.4721    8.1388 C   0  0  0  0  0  0  0  0  0  0  0  0
    0.6087   31.9161    7.7750 O   0  0  0  0  0  0  0  0  0  0  0  0
    1.3512   32.6372    8.3531 C   0  0  0  0  0  0  0  0  0  0  0  0
    0.7421   33.6434    9.2108 N   0  0  0  0  0  0  0  0  0  0  0  0
   -0.2421   33.6465    9.2325 H   0  0  0  0  0  0  0  0  0  0  0  0
    1.3929   34.6431   10.0386 C   0  0  0  0  0  0  0  0  0  0  0  0
    1.7546   36.5446    8.6957 C   0  0  0  0  0  0  0  0  0  0  0  0
   -0.4959   36.2512    9.2564 O   0  0  0  0  0  0  0  0  0  0  0  0
    0.9558   36.0876    9.7070 C   0  0  0  0  0  0  0  0  0  0  0  0
   -1.0890   35.9344    9.9555 H   0  0  0  0  0  0  0  0  0  0  0  0
    0.4198   35.3231   12.0085 O   0  0  0  0  0  0  0  0  0  0  0  0
    0.9201   34.1588   11.4072 C   0  0  0  0  0  0  0  0  0  0  0  0
    0.0910   35.1127   12.8965 H   0  0  0  0  0  0  0  0  0  0  0  0
   -0.1071   33.1389   11.1578 N   0  0  0  0  0  0  0  0  0  0  0  0
   -1.0003   33.5600   11.4131 H   0  0  0  0  0  0  0  0  0  0  0  0
   -0.0588   31.8258   11.8254 C   0  0  0  0  0  0  0  0  0  0  0  0
   -1.6095   29.7439   12.0197 N   0  0  0  0  0  0  0  0  0  0  0  0
   -2.3812   31.8236   11.4401 O   0  0  0  0  0  0  0  0  0  0  0  0
   -1.4388   31.1651   11.7373 C   0  0  0  0  0  0  0  0  0  0  0  0
   -2.5025   29.3338   11.9589 H   0  0  0  0  0  0  0  0  0  0  0  0
   -0.8318   29.1951   12.2710 H   0  0  0  0  0  0  0  0  0  0  0  0
    0.9728   30.8145   11.3021 C   0  0  0  0  0  0  0  0  0  0  0  0
    4.1805   30.0846   14.0873 C   0  0  0  0  0  0  0  0  0  0  0  0
    3.3070   31.1358   14.3142 C   0  0  0  0  0  0  0  0  0  0  0  0
    4.0339   29.2741   12.9749 C   0  0  0  0  0  0  0  0  0  0  0  0
    2.2851   31.3708   13.4161 C   0  0  0  0  0  0  0  0  0  0  0  0
    3.0036   29.5122   12.0760 C   0  0  0  0  0  0  0  0  0  0  0  0
    2.1194   30.5595   12.2946 C   0  0  0  0  0  0  0  0  0  0  0  0
    4.0397   30.3348    7.3441 C   0  0  0  0  0  0  0  0  0  0  0  0
    4.4867   30.1077    8.4201 O   0  0  0  0  0  0  0  0  0  0  0  0
    3.2140   31.5137    7.1016 N   0  0  0  0  0  0  0  0  0  0  0  0
    2.8767   31.6683    6.1897 H   0  0  0  0  0  0  0  0  0  0  0  0
    4.3457   29.4254    6.1455 C   0  0  0  0  0  0  0  0  0  0  0  0
    4.1362   28.0099    6.4943 N   0  0  0  0  0  0  0  0  0  0  0  0
    3.6794   27.9622    7.4051 H   0  0  0  0  0  0  0  0  0  0  0  0
    3.2969   27.2970    5.5056 C   0  0  0  0  0  0  0  0  0  0  0  0
    1.4788   27.5375    7.2802 C   0  0  0  0  0  0  0  0  0  0  0  0
    1.0279   26.2090    5.3164 C   0  0  0  0  0  0  0  0  0  0  0  0
    0.2045   27.3001    7.7701 C   0  0  0  0  0  0  0  0  0  0  0  0
   -0.2494   25.9578    5.8050 C   0  0  0  0  0  0  0  0  0  0  0  0
    1.8933   27.0045    6.0558 C   0  0  0  0  0  0  0  0  0  0  0  0
   -0.6454   26.4985    7.0242 C   0  0  0  0  0  0  0  0  0  0  0  0
   -4.2829   25.4837    7.2225 C   0  0  0  0  0  0  0  0  0  0  0  0
   -4.5415   25.8480    8.5320 C   0  0  0  0  0  0  0  0  0  0  0  0
   -3.0068   25.6932    6.7189 C   0  0  0  0  0  0  0  0  0  0  0  0
   -2.3875   26.5893    8.8512 C   0  0  0  0  0  0  0  0  0  0  0  0
   -2.0470   26.2414    7.5524 C   0  0  0  0  0  0  0  0  0  0  0  0
   -3.6068   26.3741    9.3032 N   0  0  0  0  0  0  0  0  0  0  0  0
    3.5983   29.8925    4.8993 C   0  0  0  0  0  0  0  0  0  0  0  0
    4.5895   30.3958    3.8537 C   0  0  0  0  0  0  0  0  0  0  0  0
    4.6547   29.4882    2.6374 C   0  0  0  0  0  0  0  0  0  0  0  0
    3.3579   29.4833    1.8260 C   0  0  0  0  0  0  0  0  0  0  0  0
    3.4722   30.4073    0.7077 N   0  0  0  0  0  0  0  0  0  0  0  0
    4.2444   30.1198    0.1066 H   0  0  0  0  0  0  0  0  0  0  0  0
    3.6480   31.3481    1.0606 H   0  0  0  0  0  0  0  0  0  0  0  0
 53 52  1  0  0  0
 52 51  1  0  0  0
 51 50  1  0  0  0
 17 19  1  0  0  0
 18 19  2  0  0  0
 19 16  1  0  0  0
 50 49  1  0  0  0
 24 26  2  0  0  0
 24 23  1  0  0  0
 26 28  1  0  0  0
 49 33  1  0  0  0
 16 14  1  0  0  0
 16 22  1  0  0  0
 14 12  1  0  0  0
 31  1  1  0  0  0
 31 29  1  0  0  0
 23 25  2  0  0  0
  2  3  2  0  0  0
  1  3  1  0  0  0
  3  4  1  0  0  0
 28 22  1  0  0  0
 28 27  2  0  0  0
 33 29  1  0  0  0
 33 34  1  0  0  0
  4  6  1  0  0  0
 29 30  2  0  0  0
  6 12  1  0  0  0
  6  9  1  0  0  0
 12 11  1  0  0  0
 25 27  1  0  0  0
 34 36  1  0  0  0
  8  9  1  0  0  0
  9  7  1  0  0  0
 37 39  2  0  0  0
 37 41  1  0  0  0
 36 41  1  0  0  0
 39 42  1  0  0  0
 41 38  2  0  0  0
 46 48  2  0  0  0
 46 47  1  0  0  0
 42 47  1  0  0  0
 42 40  2  0  0  0
 38 40  1  0  0  0
 48 44  1  0  0  0
 47 45  2  0  0  0
 44 43  2  0  0  0
 45 43  1  0  0  0
 34 35  1  0  0  0
 17 20  1  0  0  0
 17 21  1  0  0  0
 11 13  1  0  0  0
  8 10  1  0  0  0
 31 32  1  0  0  0
  4  5  1  0  0  0
 14 15  1  0  0  0
 53 54  1  0  0  0
 53 55  1  0  0  0
M  END
> <minimizedAffinity>
-7.07133

$$$$
4U5N_3D4_A_501


 55 57  0  0  0  0  0  0  0  0999 V2000
    1.4964   26.4412    8.8415 C   0  0  0  0  0  0  0  0  0  0  0  0
    0.2590   28.2956    8.0945 O   0  0  0  0  0  0  0  0  0  0  0  0
    0.9612   27.3989    7.7654 C   0  0  0  0  0  0  0  0  0  0  0  0
    1.2354   27.2787    6.3407 N   0  0  0  0  0  0  0  0  0  0  0  0
    0.8050   27.9515    5.7651 H   0  0  0  0  0  0  0  0  0  0  0  0
    2.0592   26.2989    5.6557 C   0  0  0  0  0  0  0  0  0  0  0  0
    0.1283   25.6201    4.4891 C   0  0  0  0  0  0  0  0  0  0  0  0
    1.6137   26.8296    3.1487 O   0  0  0  0  0  0  0  0  0  0  0  0
    1.4652   25.8404    4.3049 C   0  0  0  0  0  0  0  0  0  0  0  0
    2.5546   27.0065    2.9934 H   0  0  0  0  0  0  0  0  0  0  0  0
    4.0619   26.4329    4.5326 O   0  0  0  0  0  0  0  0  0  0  0  0
    3.3367   27.1231    5.5151 C   0  0  0  0  0  0  0  0  0  0  0  0
    4.9031   26.8883    4.3719 H   0  0  0  0  0  0  0  0  0  0  0  0
    2.9218   28.4699    5.1010 N   0  0  0  0  0  0  0  0  0  0  0  0
    2.3415   28.3508    4.2706 H   0  0  0  0  0  0  0  0  0  0  0  0
    3.9144   29.5082    4.7712 C   0  0  0  0  0  0  0  0  0  0  0  0
    4.6656   30.7862    2.6312 N   0  0  0  0  0  0  0  0  0  0  0  0
    3.6114   28.7514    2.5627 O   0  0  0  0  0  0  0  0  0  0  0  0
    4.0344   29.6242    3.2477 C   0  0  0  0  0  0  0  0  0  0  0  0
    4.7353   30.8464    1.6511 H   0  0  0  0  0  0  0  0  0  0  0  0
    5.0219   31.5100    3.1955 H   0  0  0  0  0  0  0  0  0  0  0  0
    3.6588   30.9187    5.3241 C   0  0  0  0  0  0  0  0  0  0  0  0
    2.1710   30.8777    9.3693 C   0  0  0  0  0  0  0  0  0  0  0  0
    1.4208   31.4819    8.3734 C   0  0  0  0  0  0  0  0  0  0  0  0
    3.3915   30.2944    9.0764 C   0  0  0  0  0  0  0  0  0  0  0  0
    1.9041   31.4992    7.0802 C   0  0  0  0  0  0  0  0  0  0  0  0
    3.8724   30.3117    7.7746 C   0  0  0  0  0  0  0  0  0  0  0  0
    3.1282   30.9101    6.7673 C   0  0  0  0  0  0  0  0  0  0  0  0
    1.2069   27.1796   11.2814 C   0  0  0  0  0  0  0  0  0  0  0  0
    2.2433   27.7582   11.2931 O   0  0  0  0  0  0  0  0  0  0  0  0
    0.7479   26.4744   10.0887 N   0  0  0  0  0  0  0  0  0  0  0  0
   -0.1121   25.9968   10.1304 H   0  0  0  0  0  0  0  0  0  0  0  0
    0.3208   27.1060   12.5331 C   0  0  0  0  0  0  0  0  0  0  0  0
    0.2272   28.4222   13.1874 N   0  0  0  0  0  0  0  0  0  0  0  0
    1.0896   28.9371   13.0097 H   0  0  0  0  0  0  0  0  0  0  0  0
   -0.9140   29.2247   12.6938 C   0  0  0  0  0  0  0  0  0  0  0  0
   -1.3250   31.4734   11.5597 C   0  0  0  0  0  0  0  0  0  0  0  0
    0.7434   31.1266   12.7538 C   0  0  0  0  0  0  0  0  0  0  0  0
   -0.9581   32.7712   11.2407 C   0  0  0  0  0  0  0  0  0  0  0  0
    1.1238   32.4242   12.4303 C   0  0  0  0  0  0  0  0  0  0  0  0
   -0.4869   30.6514   12.3192 C   0  0  0  0  0  0  0  0  0  0  0  0
    0.2759   33.2287   11.6756 C   0  0  0  0  0  0  0  0  0  0  0  0
    1.7778   36.6917   11.9055 C   0  0  0  0  0  0  0  0  0  0  0  0
    1.3328   37.2047   10.7000 C   0  0  0  0  0  0  0  0  0  0  0  0
    1.4361   35.3875   12.2342 C   0  0  0  0  0  0  0  0  0  0  0  0
    0.2641   35.2430   10.1512 C   0  0  0  0  0  0  0  0  0  0  0  0
    0.6802   34.6538   11.3360 C   0  0  0  0  0  0  0  0  0  0  0  0
    0.6082   36.4826    9.8641 N   0  0  0  0  0  0  0  0  0  0  0  0
   -1.0227   26.4550   12.2148 C   0  0  0  0  0  0  0  0  0  0  0  0
   -1.3615   25.4111   13.2753 C   0  0  0  0  0  0  0  0  0  0  0  0
   -2.3015   25.9532   14.3382 C   0  0  0  0  0  0  0  0  0  0  0  0
   -3.5364   25.0749   14.5473 C   0  0  0  0  0  0  0  0  0  0  0  0
   -4.6382   25.5719   13.7372 N   0  0  0  0  0  0  0  0  0  0  0  0
   -4.3736   25.5487   12.7524 H   0  0  0  0  0  0  0  0  0  0  0  0
   -4.8542   26.5311   14.0087 H   0  0  0  0  0  0  0  0  0  0  0  0
 53 52  1  0  0  0
 52 51  1  0  0  0
 51 50  1  0  0  0
 17 19  1  0  0  0
 18 19  2  0  0  0
 19 16  1  0  0  0
 50 49  1  0  0  0
 24 26  2  0  0  0
 24 23  1  0  0  0
 26 28  1  0  0  0
 49 33  1  0  0  0
 16 14  1  0  0  0
 16 22  1  0  0  0
 14 12  1  0  0  0
 31  1  1  0  0  0
 31 29  1  0  0  0
 23 25  2  0  0  0
  2  3  2  0  0  0
  1  3  1  0  0  0
  3  4  1  0  0  0
 28 22  1  0  0  0
 28 27  2  0  0  0
 33 29  1  0  0  0
 33 34  1  0  0  0
  4  6  1  0  0  0
 29 30  2  0  0  0
  6 12  1  0  0  0
  6  9  1  0  0  0
 12 11  1  0  0  0
 25 27  1  0  0  0
 34 36  1  0  0  0
  8  9  1  0  0  0
  9  7  1  0  0  0
 37 39  2  0  0  0
 37 41  1  0  0  0
 36 41  1  0  0  0
 39 42  1  0  0  0
 41 38  2  0  0  0
 46 48  2  0  0  0
 46 47  1  0  0  0
 42 47  1  0  0  0
 42 40  2  0  0  0
 38 40  1  0  0  0
 48 44  1  0  0  0
 47 45  2  0  0  0
 44 43  2  0  0  0
 45 43  1  0  0  0
 34 35  1  0  0  0
 17 20  1  0  0  0
 17 21  1  0  0  0
 11 13  1  0  0  0
  8 10  1  0  0  0
 31 32  1  0  0  0
  4  5  1  0  0  0
 14 15  1  0  0  0
 53 54  1  0  0  0
 53 55  1  0  0  0
M  END
> <minimizedAffinity>
-7.01958

$$$$
4U5N_3D4_A_501


 55 57  0  0  0  0  0  0  0  0999 V2000
   -1.0327   25.6104    7.7932 C   0  0  0  0  0  0  0  0  0  0  0  0
   -2.3873   25.8186    5.8828 O   0  0  0  0  0  0  0  0  0  0  0  0
   -1.2729   25.7583    6.2825 C   0  0  0  0  0  0  0  0  0  0  0  0
   -0.2199   25.8101    5.2786 N   0  0  0  0  0  0  0  0  0  0  0  0
   -0.5236   25.8826    4.3449 H   0  0  0  0  0  0  0  0  0  0  0  0
    1.2187   25.7691    5.4709 C   0  0  0  0  0  0  0  0  0  0  0  0
    2.9605   24.2367    5.0614 C   0  0  0  0  0  0  0  0  0  0  0  0
    1.9938   23.9606    7.1720 O   0  0  0  0  0  0  0  0  0  0  0  0
    1.7614   24.3422    5.7100 C   0  0  0  0  0  0  0  0  0  0  0  0
    1.1580   24.0260    7.6600 H   0  0  0  0  0  0  0  0  0  0  0  0
    0.5355   26.1712    3.3119 O   0  0  0  0  0  0  0  0  0  0  0  0
    1.6513   26.3738    4.1374 C   0  0  0  0  0  0  0  0  0  0  0  0
    0.7178   26.5282    2.4286 H   0  0  0  0  0  0  0  0  0  0  0  0
    1.9414   27.7904    4.3953 N   0  0  0  0  0  0  0  0  0  0  0  0
    1.3567   28.3264    3.7540 H   0  0  0  0  0  0  0  0  0  0  0  0
    3.3074   28.3276    4.2628 C   0  0  0  0  0  0  0  0  0  0  0  0
    2.4478   29.5153    2.1116 N   0  0  0  0  0  0  0  0  0  0  0  0
    3.9614   30.4717    3.5436 O   0  0  0  0  0  0  0  0  0  0  0  0
    3.2872   29.5239    3.3049 C   0  0  0  0  0  0  0  0  0  0  0  0
    2.4456   30.2913    1.5057 H   0  0  0  0  0  0  0  0  0  0  0  0
    1.8837   28.7334    1.9122 H   0  0  0  0  0  0  0  0  0  0  0  0
    4.0077   28.7798    5.5534 C   0  0  0  0  0  0  0  0  0  0  0  0
    5.2036   25.4948    8.0748 C   0  0  0  0  0  0  0  0  0  0  0  0
    5.8802   25.7241    6.8877 C   0  0  0  0  0  0  0  0  0  0  0  0
    4.1480   26.3065    8.4524 C   0  0  0  0  0  0  0  0  0  0  0  0
    5.4896   26.7730    6.0793 C   0  0  0  0  0  0  0  0  0  0  0  0
    3.7603   27.3614    7.6381 C   0  0  0  0  0  0  0  0  0  0  0  0
    4.4330   27.6040    6.4485 C   0  0  0  0  0  0  0  0  0  0  0  0
   -1.1284   27.3452    9.6808 C   0  0  0  0  0  0  0  0  0  0  0  0
   -2.0298   26.7952   10.2231 O   0  0  0  0  0  0  0  0  0  0  0  0
   -0.5623   26.8260    8.4397 N   0  0  0  0  0  0  0  0  0  0  0  0
    0.1755   27.3236    8.0186 H   0  0  0  0  0  0  0  0  0  0  0  0
   -0.5447   28.6536   10.2329 C   0  0  0  0  0  0  0  0  0  0  0  0
   -1.5041   29.3177   11.1317 N   0  0  0  0  0  0  0  0  0  0  0  0
   -2.2013   28.6344   11.4274 H   0  0  0  0  0  0  0  0  0  0  0  0
   -0.8581   29.8867   12.3355 C   0  0  0  0  0  0  0  0  0  0  0  0
    0.8578   31.7612   12.5670 C   0  0  0  0  0  0  0  0  0  0  0  0
   -1.2112   32.2063   11.4069 C   0  0  0  0  0  0  0  0  0  0  0  0
    1.3005   33.0539   12.3357 C   0  0  0  0  0  0  0  0  0  0  0  0
   -0.7790   33.5080   11.1786 C   0  0  0  0  0  0  0  0  0  0  0  0
   -0.3878   31.3296   12.1010 C   0  0  0  0  0  0  0  0  0  0  0  0
    0.4645   33.9194   11.6477 C   0  0  0  0  0  0  0  0  0  0  0  0
    1.8614   37.3958   12.1608 C   0  0  0  0  0  0  0  0  0  0  0  0
    1.7526   37.8697   10.8654 C   0  0  0  0  0  0  0  0  0  0  0  0
    1.4414   36.1003   12.4271 C   0  0  0  0  0  0  0  0  0  0  0  0
    0.8618   35.8866   10.1137 C   0  0  0  0  0  0  0  0  0  0  0  0
    0.9481   35.3357   11.3837 C   0  0  0  0  0  0  0  0  0  0  0  0
    1.2730   37.1188    9.8901 N   0  0  0  0  0  0  0  0  0  0  0  0
    0.8393   28.4243   10.8346 C   0  0  0  0  0  0  0  0  0  0  0  0
    1.8770   29.2609   10.0914 C   0  0  0  0  0  0  0  0  0  0  0  0
    1.2978   29.9380    8.8611 C   0  0  0  0  0  0  0  0  0  0  0  0
    1.5209   31.4513    8.8518 C   0  0  0  0  0  0  0  0  0  0  0  0
    0.4447   32.1041    8.1217 N   0  0  0  0  0  0  0  0  0  0  0  0
   -0.4462   31.8997    8.5744 H   0  0  0  0  0  0  0  0  0  0  0  0
    0.4258   31.7580    7.1624 H   0  0  0  0  0  0  0  0  0  0  0  0
 53 52  1  0  0  0
 52 51  1  0  0  0
 51 50  1  0  0  0
 17 19  1  0  0  0
 18 19  2  0  0  0
 19 16  1  0  0  0
 50 49  1  0  0  0
 24 26  2  0  0  0
 24 23  1  0  0  0
 26 28  1  0  0  0
 49 33  1  0  0  0
 16 14  1  0  0  0
 16 22  1  0  0  0
 14 12  1  0  0  0
 31  1  1  0  0  0
 31 29  1  0  0  0
 23 25  2  0  0  0
  2  3  2  0  0  0
  1  3  1  0  0  0
  3  4  1  0  0  0
 28 22  1  0  0  0
 28 27  2  0  0  0
 33 29  1  0  0  0
 33 34  1  0  0  0
  4  6  1  0  0  0
 29 30  2  0  0  0
  6 12  1  0  0  0
  6  9  1  0  0  0
 12 11  1  0  0  0
 25 27  1  0  0  0
 34 36  1  0  0  0
  8  9  1  0  0  0
  9  7  1  0  0  0
 37 39  2  0  0  0
 37 41  1  0  0  0
 36 41  1  0  0  0
 39 42  1  0  0  0
 41 38  2  0  0  0
 46 48  2  0  0  0
 46 47  1  0  0  0
 42 47  1  0  0  0
 42 40  2  0  0  0
 38 40  1  0  0  0
 48 44  1  0  0  0
 47 45  2  0  0  0
 44 43  2  0  0  0
 45 43  1  0  0  0
 34 35  1  0  0  0
 17 20  1  0  0  0
 17 21  1  0  0  0
 11 13  1  0  0  0
  8 10  1  0  0  0
 31 32  1  0  0  0
  4  5  1  0  0  0
 14 15  1  0  0  0
 53 54  1  0  0  0
 53 55  1  0  0  0
M  END
> <minimizedAffinity>
-6.96397

$$$$
4U5N_3D4_A_501


 55 57  0  0  0  0  0  0  0  0999 V2000
    2.2904   31.9780    9.0478 C   0  0  0  0  0  0  0  0  0  0  0  0
    0.4989   31.6626    7.5582 O   0  0  0  0  0  0  0  0  0  0  0  0
    0.8005   31.8830    8.6833 C   0  0  0  0  0  0  0  0  0  0  0  0
   -0.2947   32.0672    9.6245 N   0  0  0  0  0  0  0  0  0  0  0  0
   -1.2002   32.0014    9.2437 H   0  0  0  0  0  0  0  0  0  0  0  0
   -0.2295   32.3351   11.0500 C   0  0  0  0  0  0  0  0  0  0  0  0
    0.5652   34.4724   11.6419 C   0  0  0  0  0  0  0  0  0  0  0  0
   -1.3813   34.5596   10.3500 O   0  0  0  0  0  0  0  0  0  0  0  0
   -0.5981   33.7908   11.4143 C   0  0  0  0  0  0  0  0  0  0  0  0
   -2.2149   34.0990   10.1663 H   0  0  0  0  0  0  0  0  0  0  0  0
   -2.4761   31.8468   11.1132 O   0  0  0  0  0  0  0  0  0  0  0  0
   -1.2506   31.3062   11.5293 C   0  0  0  0  0  0  0  0  0  0  0  0
   -3.1972   31.2541   11.3769 H   0  0  0  0  0  0  0  0  0  0  0  0
   -0.9116   30.0404   10.8657 N   0  0  0  0  0  0  0  0  0  0  0  0
   -1.7965   29.6033   10.6079 H   0  0  0  0  0  0  0  0  0  0  0  0
   -0.1193   29.0049   11.5530 C   0  0  0  0  0  0  0  0  0  0  0  0
   -1.7026   28.2766   13.4868 N   0  0  0  0  0  0  0  0  0  0  0  0
    0.1861   29.5310   13.8272 O   0  0  0  0  0  0  0  0  0  0  0  0
   -0.5050   28.9775   13.0360 C   0  0  0  0  0  0  0  0  0  0  0  0
   -1.9373   28.2679   14.4429 H   0  0  0  0  0  0  0  0  0  0  0  0
   -2.2760   27.8124   12.8349 H   0  0  0  0  0  0  0  0  0  0  0  0
   -0.2339   27.5691   11.0183 C   0  0  0  0  0  0  0  0  0  0  0  0
    3.5415   25.9453    9.7188 C   0  0  0  0  0  0  0  0  0  0  0  0
    3.4884   27.2415   10.2054 C   0  0  0  0  0  0  0  0  0  0  0  0
    2.3950   25.1737    9.6428 C   0  0  0  0  0  0  0  0  0  0  0  0
    2.2761   27.7605   10.6140 C   0  0  0  0  0  0  0  0  0  0  0  0
    1.1787   25.6984   10.0571 C   0  0  0  0  0  0  0  0  0  0  0  0
    1.1134   26.9940   10.5505 C   0  0  0  0  0  0  0  0  0  0  0  0
    4.4091   30.8363    8.1591 C   0  0  0  0  0  0  0  0  0  0  0  0
    4.7387   30.4706    9.2393 O   0  0  0  0  0  0  0  0  0  0  0  0
    3.1895   31.6139    7.9633 N   0  0  0  0  0  0  0  0  0  0  0  0
    2.9638   31.9071    7.0510 H   0  0  0  0  0  0  0  0  0  0  0  0
    5.2724   30.5489    6.9224 C   0  0  0  0  0  0  0  0  0  0  0  0
    4.5556   29.6809    5.9727 N   0  0  0  0  0  0  0  0  0  0  0  0
    5.0148   29.7419    5.0640 H   0  0  0  0  0  0  0  0  0  0  0  0
    4.5350   28.2638    6.3989 C   0  0  0  0  0  0  0  0  0  0  0  0
    2.0726   28.4969    7.0267 C   0  0  0  0  0  0  0  0  0  0  0  0
    2.8342   26.4377    6.0243 C   0  0  0  0  0  0  0  0  0  0  0  0
    0.7725   28.0210    7.0883 C   0  0  0  0  0  0  0  0  0  0  0  0
    1.5343   25.9487    6.0911 C   0  0  0  0  0  0  0  0  0  0  0  0
    3.1027   27.7178    6.4912 C   0  0  0  0  0  0  0  0  0  0  0  0
    0.5215   26.7390    6.6251 C   0  0  0  0  0  0  0  0  0  0  0  0
   -2.9616   25.9200    7.8489 C   0  0  0  0  0  0  0  0  0  0  0  0
   -3.4218   25.2184    6.7488 C   0  0  0  0  0  0  0  0  0  0  0  0
   -1.6687   26.4231    7.8174 C   0  0  0  0  0  0  0  0  0  0  0  0
   -1.4342   25.4924    5.6238 C   0  0  0  0  0  0  0  0  0  0  0  0
   -0.9039   26.2148    6.6824 C   0  0  0  0  0  0  0  0  0  0  0  0
   -2.6674   25.0306    5.6806 N   0  0  0  0  0  0  0  0  0  0  0  0
    5.8136   31.8429    6.3203 C   0  0  0  0  0  0  0  0  0  0  0  0
    6.6886   31.5297    5.1096 C   0  0  0  0  0  0  0  0  0  0  0  0
    5.9356   31.6827    3.7993 C   0  0  0  0  0  0  0  0  0  0  0  0
    6.4100   32.8804    2.9744 C   0  0  0  0  0  0  0  0  0  0  0  0
    5.3861   33.2516    2.0095 N   0  0  0  0  0  0  0  0  0  0  0  0
    4.5293   33.5029    2.5026 H   0  0  0  0  0  0  0  0  0  0  0  0
    5.2023   32.4635    1.3886 H   0  0  0  0  0  0  0  0  0  0  0  0
 53 52  1  0  0  0
 52 51  1  0  0  0
 51 50  1  0  0  0
 17 19  1  0  0  0
 18 19  2  0  0  0
 19 16  1  0  0  0
 50 49  1  0  0  0
 24 26  2  0  0  0
 24 23  1  0  0  0
 26 28  1  0  0  0
 49 33  1  0  0  0
 16 14  1  0  0  0
 16 22  1  0  0  0
 14 12  1  0  0  0
 31  1  1  0  0  0
 31 29  1  0  0  0
 23 25  2  0  0  0
  2  3  2  0  0  0
  1  3  1  0  0  0
  3  4  1  0  0  0
 28 22  1  0  0  0
 28 27  2  0  0  0
 33 29  1  0  0  0
 33 34  1  0  0  0
  4  6  1  0  0  0
 29 30  2  0  0  0
  6 12  1  0  0  0
  6  9  1  0  0  0
 12 11  1  0  0  0
 25 27  1  0  0  0
 34 36  1  0  0  0
  8  9  1  0  0  0
  9  7  1  0  0  0
 37 39  2  0  0  0
 37 41  1  0  0  0
 36 41  1  0  0  0
 39 42  1  0  0  0
 41 38  2  0  0  0
 46 48  2  0  0  0
 46 47  1  0  0  0
 42 47  1  0  0  0
 42 40  2  0  0  0
 38 40  1  0  0  0
 48 44  1  0  0  0
 47 45  2  0  0  0
 44 43  2  0  0  0
 45 43  1  0  0  0
 34 35  1  0  0  0
 17 20  1  0  0  0
 17 21  1  0  0  0
 11 13  1  0  0  0
  8 10  1  0  0  0
 31 32  1  0  0  0
  4  5  1  0  0  0
 14 15  1  0  0  0
 53 54  1  0  0  0
 53 55  1  0  0  0
M  END
> <minimizedAffinity>
-6.84546

$$$$
4U5N_3D4_A_501


 55 57  0  0  0  0  0  0  0  0999 V2000
    1.3670   38.6927    5.0524 C   0  0  0  0  0  0  0  0  0  0  0  0
   -0.1710   40.4683    4.9550 O   0  0  0  0  0  0  0  0  0  0  0  0
    0.9437   40.1609    5.2163 C   0  0  0  0  0  0  0  0  0  0  0  0
    1.8261   41.2321    5.6557 N   0  0  0  0  0  0  0  0  0  0  0  0
    1.4230   42.1296    5.6911 H   0  0  0  0  0  0  0  0  0  0  0  0
    3.2216   41.1533    6.0488 C   0  0  0  0  0  0  0  0  0  0  0  0
    4.0473   41.2368    3.8439 C   0  0  0  0  0  0  0  0  0  0  0  0
    3.9209   43.3478    4.8405 O   0  0  0  0  0  0  0  0  0  0  0  0
    4.1751   41.8558    5.0564 C   0  0  0  0  0  0  0  0  0  0  0  0
    4.0049   43.8158    5.6860 H   0  0  0  0  0  0  0  0  0  0  0  0
    2.3584   42.9933    7.1255 O   0  0  0  0  0  0  0  0  0  0  0  0
    3.1240   41.8512    7.4032 C   0  0  0  0  0  0  0  0  0  0  0  0
    2.2406   43.5091    7.9385 H   0  0  0  0  0  0  0  0  0  0  0  0
    2.4615   40.9073    8.3130 N   0  0  0  0  0  0  0  0  0  0  0  0
    1.4594   41.0748    8.2236 H   0  0  0  0  0  0  0  0  0  0  0  0
    2.7566   40.9023    9.7570 C   0  0  0  0  0  0  0  0  0  0  0  0
    1.4298   43.0996   10.1907 N   0  0  0  0  0  0  0  0  0  0  0  0
    3.6213   42.8244   10.8056 O   0  0  0  0  0  0  0  0  0  0  0  0
    2.6681   42.3350   10.2939 C   0  0  0  0  0  0  0  0  0  0  0  0
    1.3884   44.0190   10.5403 H   0  0  0  0  0  0  0  0  0  0  0  0
    0.6356   42.6962    9.7715 H   0  0  0  0  0  0  0  0  0  0  0  0
    1.8694   40.0187   10.6475 C   0  0  0  0  0  0  0  0  0  0  0  0
    4.1201   37.1418   12.9360 C   0  0  0  0  0  0  0  0  0  0  0  0
    4.6209   37.5911   11.7248 C   0  0  0  0  0  0  0  0  0  0  0  0
    2.9054   37.6044   13.4114 C   0  0  0  0  0  0  0  0  0  0  0  0
    3.8937   38.5073   10.9913 C   0  0  0  0  0  0  0  0  0  0  0  0
    2.1788   38.5274   12.6721 C   0  0  0  0  0  0  0  0  0  0  0  0
    2.6719   38.9884   11.4594 C   0  0  0  0  0  0  0  0  0  0  0  0
    2.6032   37.5026    6.9596 C   0  0  0  0  0  0  0  0  0  0  0  0
    3.6705   37.7373    6.4960 O   0  0  0  0  0  0  0  0  0  0  0  0
    1.3781   37.9374    6.2959 N   0  0  0  0  0  0  0  0  0  0  0  0
    0.5153   37.7078    6.7108 H   0  0  0  0  0  0  0  0  0  0  0  0
    2.4577   36.6914    8.2550 C   0  0  0  0  0  0  0  0  0  0  0  0
    1.0383   36.4555    8.5694 N   0  0  0  0  0  0  0  0  0  0  0  0
    0.7729   35.5377    8.2121 H   0  0  0  0  0  0  0  0  0  0  0  0
    0.7616   36.4963   10.0226 C   0  0  0  0  0  0  0  0  0  0  0  0
    1.3611   34.6006   11.6223 C   0  0  0  0  0  0  0  0  0  0  0  0
   -0.4907   34.3069   10.1027 C   0  0  0  0  0  0  0  0  0  0  0  0
    1.1525   33.3436   12.1670 C   0  0  0  0  0  0  0  0  0  0  0  0
   -0.7013   33.0406   10.6369 C   0  0  0  0  0  0  0  0  0  0  0  0
    0.5425   35.0903   10.6001 C   0  0  0  0  0  0  0  0  0  0  0  0
    0.1219   32.5707   11.6553 C   0  0  0  0  0  0  0  0  0  0  0  0
    0.6354   29.3274   13.5309 C   0  0  0  0  0  0  0  0  0  0  0  0
   -0.5785   28.7217   13.2590 C   0  0  0  0  0  0  0  0  0  0  0  0
    0.8742   30.5909   13.0091 C   0  0  0  0  0  0  0  0  0  0  0  0
   -1.3044   30.5176   12.0182 C   0  0  0  0  0  0  0  0  0  0  0  0
   -0.1170   31.1946   12.2544 C   0  0  0  0  0  0  0  0  0  0  0  0
   -1.5046   29.3200   12.5311 N   0  0  0  0  0  0  0  0  0  0  0  0
    3.3191   35.4320    8.2116 C   0  0  0  0  0  0  0  0  0  0  0  0
    2.7656   34.4561    7.1770 C   0  0  0  0  0  0  0  0  0  0  0  0
    3.0799   33.0106    7.5221 C   0  0  0  0  0  0  0  0  0  0  0  0
    1.9806   32.3416    8.3491 C   0  0  0  0  0  0  0  0  0  0  0  0
    0.8746   31.9609    7.4836 N   0  0  0  0  0  0  0  0  0  0  0  0
    1.2067   31.3058    6.7758 H   0  0  0  0  0  0  0  0  0  0  0  0
    0.4980   32.7920    7.0277 H   0  0  0  0  0  0  0  0  0  0  0  0
 53 52  1  0  0  0
 52 51  1  0  0  0
 51 50  1  0  0  0
 17 19  1  0  0  0
 18 19  2  0  0  0
 19 16  1  0  0  0
 50 49  1  0  0  0
 24 26  2  0  0  0
 24 23  1  0  0  0
 26 28  1  0  0  0
 49 33  1  0  0  0
 16 14  1  0  0  0
 16 22  1  0  0  0
 14 12  1  0  0  0
 31  1  1  0  0  0
 31 29  1  0  0  0
 23 25  2  0  0  0
  2  3  2  0  0  0
  1  3  1  0  0  0
  3  4  1  0  0  0
 28 22  1  0  0  0
 28 27  2  0  0  0
 33 29  1  0  0  0
 33 34  1  0  0  0
  4  6  1  0  0  0
 29 30  2  0  0  0
  6 12  1  0  0  0
  6  9  1  0  0  0
 12 11  1  0  0  0
 25 27  1  0  0  0
 34 36  1  0  0  0
  8  9  1  0  0  0
  9  7  1  0  0  0
 37 39  2  0  0  0
 37 41  1  0  0  0
 36 41  1  0  0  0
 39 42  1  0  0  0
 41 38  2  0  0  0
 46 48  2  0  0  0
 46 47  1  0  0  0
 42 47  1  0  0  0
 42 40  2  0  0  0
 38 40  1  0  0  0
 48 44  1  0  0  0
 47 45  2  0  0  0
 44 43  2  0  0  0
 45 43  1  0  0  0
 34 35  1  0  0  0
 17 20  1  0  0  0
 17 21  1  0  0  0
 11 13  1  0  0  0
  8 10  1  0  0  0
 31 32  1  0  0  0
  4  5  1  0  0  0
 14 15  1  0  0  0
 53 54  1  0  0  0
 53 55  1  0  0  0
M  END
> <minimizedAffinity>
-6.82301

$$$$
4U5N_3D4_A_501


 55 57  0  0  0  0  0  0  0  0999 V2000
    1.2857   26.0899    4.0510 C   0  0  0  0  0  0  0  0  0  0  0  0
    1.6655   24.0122    5.0840 O   0  0  0  0  0  0  0  0  0  0  0  0
    1.0236   25.0085    5.1111 C   0  0  0  0  0  0  0  0  0  0  0  0
    0.0139   25.1016    6.1557 N   0  0  0  0  0  0  0  0  0  0  0  0
   -0.0576   24.3207    6.7508 H   0  0  0  0  0  0  0  0  0  0  0  0
   -0.9016   26.1929    6.4368 C   0  0  0  0  0  0  0  0  0  0  0  0
   -2.8182   25.1427    5.5571 C   0  0  0  0  0  0  0  0  0  0  0  0
   -2.5139   24.7045    7.8332 O   0  0  0  0  0  0  0  0  0  0  0  0
   -2.3487   25.7213    6.7037 C   0  0  0  0  0  0  0  0  0  0  0  0
   -2.1883   25.0872    8.6630 H   0  0  0  0  0  0  0  0  0  0  0  0
    0.5831   27.8016    7.1422 O   0  0  0  0  0  0  0  0  0  0  0  0
   -0.2082   26.7699    7.6686 C   0  0  0  0  0  0  0  0  0  0  0  0
    1.0697   28.2346    7.8609 H   0  0  0  0  0  0  0  0  0  0  0  0
   -1.2721   27.2443    8.5634 N   0  0  0  0  0  0  0  0  0  0  0  0
   -1.6943   28.0529    8.1069 H   0  0  0  0  0  0  0  0  0  0  0  0
   -0.9803   27.6524    9.9492 C   0  0  0  0  0  0  0  0  0  0  0  0
   -0.2938   26.3409   12.0906 N   0  0  0  0  0  0  0  0  0  0  0  0
   -1.8202   25.5445   10.5765 O   0  0  0  0  0  0  0  0  0  0  0  0
   -1.0828   26.4289   10.8665 C   0  0  0  0  0  0  0  0  0  0  0  0
   -0.3705   25.5485   12.6697 H   0  0  0  0  0  0  0  0  0  0  0  0
    0.3153   27.0739   12.3374 H   0  0  0  0  0  0  0  0  0  0  0  0
    0.3820   28.3134   10.2097 C   0  0  0  0  0  0  0  0  0  0  0  0
    0.0565   32.0700   12.2980 C   0  0  0  0  0  0  0  0  0  0  0  0
    1.1795   31.2808   12.4862 C   0  0  0  0  0  0  0  0  0  0  0  0
   -0.9592   31.6600   11.4518 C   0  0  0  0  0  0  0  0  0  0  0  0
    1.2769   30.0749   11.8210 C   0  0  0  0  0  0  0  0  0  0  0  0
   -0.8561   30.4482   10.7831 C   0  0  0  0  0  0  0  0  0  0  0  0
    0.2660   29.6507   10.9600 C   0  0  0  0  0  0  0  0  0  0  0  0
    2.5006   28.3359    3.8040 C   0  0  0  0  0  0  0  0  0  0  0  0
    2.7414   28.1489    2.6568 O   0  0  0  0  0  0  0  0  0  0  0  0
    1.7765   27.3465    4.5959 N   0  0  0  0  0  0  0  0  0  0  0  0
    1.6118   27.5392    5.5472 H   0  0  0  0  0  0  0  0  0  0  0  0
    2.9786   29.6061    4.5221 C   0  0  0  0  0  0  0  0  0  0  0  0
    2.3307   29.7398    5.8381 N   0  0  0  0  0  0  0  0  0  0  0  0
    1.7412   28.9225    5.9963 H   0  0  0  0  0  0  0  0  0  0  0  0
    3.3061   29.8419    6.9463 C   0  0  0  0  0  0  0  0  0  0  0  0
    1.7462   31.6600    7.8255 C   0  0  0  0  0  0  0  0  0  0  0  0
    3.9501   31.4452    8.7854 C   0  0  0  0  0  0  0  0  0  0  0  0
    1.4431   32.7075    8.6807 C   0  0  0  0  0  0  0  0  0  0  0  0
    3.6579   32.5017    9.6408 C   0  0  0  0  0  0  0  0  0  0  0  0
    2.9890   31.0215    7.8770 C   0  0  0  0  0  0  0  0  0  0  0  0
    2.4151   33.1237    9.5770 C   0  0  0  0  0  0  0  0  0  0  0  0
    2.5346   35.5190   12.5008 C   0  0  0  0  0  0  0  0  0  0  0  0
    1.4248   36.2886   12.2000 C   0  0  0  0  0  0  0  0  0  0  0  0
    2.8676   34.4782   11.6455 C   0  0  0  0  0  0  0  0  0  0  0  0
    0.9823   35.0761   10.2959 C   0  0  0  0  0  0  0  0  0  0  0  0
    2.0855   34.2665   10.5231 C   0  0  0  0  0  0  0  0  0  0  0  0
    0.6935   36.0602   11.1237 N   0  0  0  0  0  0  0  0  0  0  0  0
    4.5030   29.6771    4.5517 C   0  0  0  0  0  0  0  0  0  0  0  0
    4.9912   30.8013    3.6423 C   0  0  0  0  0  0  0  0  0  0  0  0
    5.1568   32.1147    4.3874 C   0  0  0  0  0  0  0  0  0  0  0  0
    5.7900   33.2118    3.5299 C   0  0  0  0  0  0  0  0  0  0  0  0
    5.3420   33.0811    2.1516 N   0  0  0  0  0  0  0  0  0  0  0  0
    4.3267   33.1709    2.1141 H   0  0  0  0  0  0  0  0  0  0  0  0
    5.6161   32.1675    1.7903 H   0  0  0  0  0  0  0  0  0  0  0  0
 53 52  1  0  0  0
 52 51  1  0  0  0
 51 50  1  0  0  0
 17 19  1  0  0  0
 18 19  2  0  0  0
 19 16  1  0  0  0
 50 49  1  0  0  0
 24 26  2  0  0  0
 24 23  1  0  0  0
 26 28  1  0  0  0
 49 33  1  0  0  0
 16 14  1  0  0  0
 16 22  1  0  0  0
 14 12  1  0  0  0
 31  1  1  0  0  0
 31 29  1  0  0  0
 23 25  2  0  0  0
  2  3  2  0  0  0
  1  3  1  0  0  0
  3  4  1  0  0  0
 28 22  1  0  0  0
 28 27  2  0  0  0
 33 29  1  0  0  0
 33 34  1  0  0  0
  4  6  1  0  0  0
 29 30  2  0  0  0
  6 12  1  0  0  0
  6  9  1  0  0  0
 12 11  1  0  0  0
 25 27  1  0  0  0
 34 36  1  0  0  0
  8  9  1  0  0  0
  9  7  1  0  0  0
 37 39  2  0  0  0
 37 41  1  0  0  0
 36 41  1  0  0  0
 39 42  1  0  0  0
 41 38  2  0  0  0
 46 48  2  0  0  0
 46 47  1  0  0  0
 42 47  1  0  0  0
 42 40  2  0  0  0
 38 40  1  0  0  0
 48 44  1  0  0  0
 47 45  2  0  0  0
 44 43  2  0  0  0
 45 43  1  0  0  0
 34 35  1  0  0  0
 17 20  1  0  0  0
 17 21  1  0  0  0
 11 13  1  0  0  0
  8 10  1  0  0  0
 31 32  1  0  0  0
  4  5  1  0  0  0
 14 15  1  0  0  0
 53 54  1  0  0  0
 53 55  1  0  0  0
M  END
> <minimizedAffinity>
-6.81189

$$$$
4U5N_3D4_A_501


 55 57  0  0  0  0  0  0  0  0999 V2000
   -3.5901   23.1036   10.5247 C   0  0  0  0  0  0  0  0  0  0  0  0
   -2.0428   21.6859   11.5849 O   0  0  0  0  0  0  0  0  0  0  0  0
   -2.5398   22.7622   11.5933 C   0  0  0  0  0  0  0  0  0  0  0  0
   -2.1120   23.6661   12.6513 N   0  0  0  0  0  0  0  0  0  0  0  0
   -1.4478   23.3025   13.2805 H   0  0  0  0  0  0  0  0  0  0  0  0
   -2.5344   25.0324   12.9021 C   0  0  0  0  0  0  0  0  0  0  0  0
   -4.2564   24.9383   14.5071 C   0  0  0  0  0  0  0  0  0  0  0  0
   -2.1483   24.5030   15.4192 O   0  0  0  0  0  0  0  0  0  0  0  0
   -2.9407   25.2850   14.3714 C   0  0  0  0  0  0  0  0  0  0  0  0
   -1.2076   24.7284   15.3477 H   0  0  0  0  0  0  0  0  0  0  0  0
   -1.7015   26.6947   11.5483 O   0  0  0  0  0  0  0  0  0  0  0  0
   -1.2543   25.7539   12.4876 C   0  0  0  0  0  0  0  0  0  0  0  0
   -0.9470   27.2099   11.2223 H   0  0  0  0  0  0  0  0  0  0  0  0
   -0.7017   26.3585   13.7069 N   0  0  0  0  0  0  0  0  0  0  0  0
   -1.2710   26.0180   14.4817 H   0  0  0  0  0  0  0  0  0  0  0  0
   -0.6157   27.8214   13.8636 C   0  0  0  0  0  0  0  0  0  0  0  0
    0.7137   28.4581   16.0093 N   0  0  0  0  0  0  0  0  0  0  0  0
   -1.5641   28.1986   15.9850 O   0  0  0  0  0  0  0  0  0  0  0  0
   -0.5575   28.1654   15.3560 C   0  0  0  0  0  0  0  0  0  0  0  0
    0.7350   28.6774   16.9689 H   0  0  0  0  0  0  0  0  0  0  0  0
    1.5503   28.4364   15.4907 H   0  0  0  0  0  0  0  0  0  0  0  0
    0.5645   28.5283   13.1794 C   0  0  0  0  0  0  0  0  0  0  0  0
   -0.4247   32.4812   11.7739 C   0  0  0  0  0  0  0  0  0  0  0  0
    0.7963   32.2632   12.3913 C   0  0  0  0  0  0  0  0  0  0  0  0
   -1.3269   31.4443   11.6107 C   0  0  0  0  0  0  0  0  0  0  0  0
    1.1066   30.9972   12.8464 C   0  0  0  0  0  0  0  0  0  0  0  0
   -1.0099   30.1726   12.0674 C   0  0  0  0  0  0  0  0  0  0  0  0
    0.2119   29.9406   12.6835 C   0  0  0  0  0  0  0  0  0  0  0  0
   -3.4023   25.2502    9.1323 C   0  0  0  0  0  0  0  0  0  0  0  0
   -4.1529   25.8440    9.8346 O   0  0  0  0  0  0  0  0  0  0  0  0
   -3.0634   23.8551    9.3957 N   0  0  0  0  0  0  0  0  0  0  0  0
   -2.4470   23.3994    8.7779 H   0  0  0  0  0  0  0  0  0  0  0  0
   -2.7875   25.9058    7.8875 C   0  0  0  0  0  0  0  0  0  0  0  0
   -1.3237   25.7431    7.8780 N   0  0  0  0  0  0  0  0  0  0  0  0
   -1.0311   25.4757    6.9381 H   0  0  0  0  0  0  0  0  0  0  0  0
   -0.6097   26.9811    8.2620 C   0  0  0  0  0  0  0  0  0  0  0  0
    1.3059   28.4591    7.4509 C   0  0  0  0  0  0  0  0  0  0  0  0
    0.7450   26.4767    6.1937 C   0  0  0  0  0  0  0  0  0  0  0  0
    2.3387   28.7578    6.5764 C   0  0  0  0  0  0  0  0  0  0  0  0
    1.7731   26.7740    5.3060 C   0  0  0  0  0  0  0  0  0  0  0  0
    0.5134   27.3212    7.2715 C   0  0  0  0  0  0  0  0  0  0  0  0
    2.5530   27.9093    5.5015 C   0  0  0  0  0  0  0  0  0  0  0  0
    4.6433   29.5850    2.8326 C   0  0  0  0  0  0  0  0  0  0  0  0
    5.7233   28.7202    2.8241 C   0  0  0  0  0  0  0  0  0  0  0  0
    3.5981   29.3271    3.7082 C   0  0  0  0  0  0  0  0  0  0  0  0
    4.8017   27.4019    4.4685 C   0  0  0  0  0  0  0  0  0  0  0  0
    3.6895   28.2272    4.5439 C   0  0  0  0  0  0  0  0  0  0  0  0
    5.7812   27.6749    3.6298 N   0  0  0  0  0  0  0  0  0  0  0  0
   -3.4900   25.4339    6.6172 C   0  0  0  0  0  0  0  0  0  0  0  0
   -2.4695   25.2306    5.5008 C   0  0  0  0  0  0  0  0  0  0  0  0
   -2.4806   23.8107    4.9612 C   0  0  0  0  0  0  0  0  0  0  0  0
   -2.4580   22.7523    6.0654 C   0  0  0  0  0  0  0  0  0  0  0  0
   -1.2001   22.8252    6.7931 N   0  0  0  0  0  0  0  0  0  0  0  0
   -1.1034   23.7496    7.2133 H   0  0  0  0  0  0  0  0  0  0  0  0
   -0.4253   22.6613    6.1502 H   0  0  0  0  0  0  0  0  0  0  0  0
 53 52  1  0  0  0
 52 51  1  0  0  0
 51 50  1  0  0  0
 17 19  1  0  0  0
 18 19  2  0  0  0
 19 16  1  0  0  0
 50 49  1  0  0  0
 24 26  2  0  0  0
 24 23  1  0  0  0
 26 28  1  0  0  0
 49 33  1  0  0  0
 16 14  1  0  0  0
 16 22  1  0  0  0
 14 12  1  0  0  0
 31  1  1  0  0  0
 31 29  1  0  0  0
 23 25  2  0  0  0
  2  3  2  0  0  0
  1  3  1  0  0  0
  3  4  1  0  0  0
 28 22  1  0  0  0
 28 27  2  0  0  0
 33 29  1  0  0  0
 33 34  1  0  0  0
  4  6  1  0  0  0
 29 30  2  0  0  0
  6 12  1  0  0  0
  6  9  1  0  0  0
 12 11  1  0  0  0
 25 27  1  0  0  0
 34 36  1  0  0  0
  8  9  1  0  0  0
  9  7  1  0  0  0
 37 39  2  0  0  0
 37 41  1  0  0  0
 36 41  1  0  0  0
 39 42  1  0  0  0
 41 38  2  0  0  0
 46 48  2  0  0  0
 46 47  1  0  0  0
 42 47  1  0  0  0
 42 40  2  0  0  0
 38 40  1  0  0  0
 48 44  1  0  0  0
 47 45  2  0  0  0
 44 43  2  0  0  0
 45 43  1  0  0  0
 34 35  1  0  0  0
 17 20  1  0  0  0
 17 21  1  0  0  0
 11 13  1  0  0  0
  8 10  1  0  0  0
 31 32  1  0  0  0
  4  5  1  0  0  0
 14 15  1  0  0  0
 53 54  1  0  0  0
 53 55  1  0  0  0
M  END
> <minimizedAffinity>
-6.78656

$$$$
