1CGL_0ED_A_1


 50 52  0  0  0  0  0  0  0  0999 V2000
   31.0282   42.8969   -1.6041 C   0  0  0  0  0  0  0  0  0  0  0  0
   30.4891   41.5774   -2.1341 C   0  0  0  0  0  0  0  0  0  0  0  0
   31.0283   41.0363   -3.1224 O   0  0  0  0  0  0  0  0  0  0  0  0
   29.4309   41.0653   -1.4581 N   0  0  0  0  0  0  0  0  0  0  0  0
   29.1418   41.5111   -0.6294 H   0  0  0  0  0  0  0  0  0  0  0  0
   28.6887   39.8616   -1.9126 C   0  0  0  0  0  0  0  0  0  0  0  0
   27.2120   39.9898   -1.4773 C   0  0  0  0  0  0  0  0  0  0  0  0
   26.7729   39.3983   -0.5306 O   0  0  0  0  0  0  0  0  0  0  0  0
   26.4333   40.6898   -2.2150 N   0  0  0  0  0  0  0  0  0  0  0  0
   26.8441   41.3278   -2.8423 H   0  0  0  0  0  0  0  0  0  0  0  0
   24.9819   40.6035   -2.1862 C   0  0  0  0  0  0  0  0  0  0  0  0
   24.5281   39.6275   -3.2889 C   0  0  0  0  0  0  0  0  0  0  0  0
   22.8993   35.7328   -2.3231 O   0  0  0  0  0  0  0  0  0  0  0  0
   21.9981   36.7623   -2.7104 C   0  0  0  0  0  0  0  0  0  0  0  0
   22.6387   37.9345   -3.5220 C   0  0  0  0  0  0  0  0  0  0  0  0
   23.9034   38.3324   -2.9043 N   0  0  0  0  0  0  0  0  0  0  0  0
   24.7592   37.1918   -2.4960 C   0  0  0  0  0  0  0  0  0  0  0  0
   23.9223   36.2632   -1.5491 C   0  0  0  0  0  0  0  0  0  0  0  0
   29.3087   38.5622   -1.3082 C   0  0  0  0  0  0  0  0  0  0  0  0
   29.5428   37.4100   -2.2949 C   0  0  0  0  0  0  0  0  0  0  0  0
   29.8108   37.6826   -3.6156 C   0  0  0  0  0  0  0  0  0  0  0  0
   29.7210   36.1139   -1.8010 C   0  0  0  0  0  0  0  0  0  0  0  0
   30.3630   36.7006   -4.4088 C   0  0  0  0  0  0  0  0  0  0  0  0
   30.2931   35.1493   -2.6027 C   0  0  0  0  0  0  0  0  0  0  0  0
   30.6355   35.4413   -3.8965 C   0  0  0  0  0  0  0  0  0  0  0  0
   30.0876   43.2339   -0.4487 N   0  0  0  0  0  0  0  0  0  0  0  0
   30.6128   43.0623    0.4086 H   0  0  0  0  0  0  0  0  0  0  0  0
   29.4867   44.5726   -0.3065 C   0  0  0  0  0  0  0  0  0  0  0  0
   27.9328   44.5100   -0.4351 C   0  0  0  0  0  0  0  0  0  0  0  0
   27.1192   45.3943   -0.2150 O   0  0  0  0  0  0  0  0  0  0  0  0
   27.4398   43.2741   -0.7453 O   0  0  0  0  0  0  0  0  0  0  0  0
   28.0275   42.5659   -0.9216 H   0  0  0  0  0  0  0  0  0  0  0  0
   30.0315   45.0324    1.0473 C   0  0  0  0  0  0  0  0  0  0  0  0
   30.2930   46.4900    1.0727 C   0  0  0  0  0  0  0  0  0  0  0  0
   31.8375   47.6880    2.4208 C   0  0  0  0  0  0  0  0  0  0  0  0
   32.3315   47.9445    3.5333 O   0  0  0  0  0  0  0  0  0  0  0  0
   30.8888   46.8101    2.3623 N   0  0  0  0  0  0  0  0  0  0  0  0
   30.5731   46.3633    3.1808 H   0  0  0  0  0  0  0  0  0  0  0  0
   32.2064   48.2466    1.1926 O   0  0  0  0  0  0  0  0  0  0  0  0
   33.1666   49.2996    1.0706 C   0  0  0  0  0  0  0  0  0  0  0  0
   34.4723   48.7272    0.5781 C   0  0  0  0  0  0  0  0  0  0  0  0
   35.5651   48.6423    1.4347 C   0  0  0  0  0  0  0  0  0  0  0  0
   36.7796   48.1944    0.9590 C   0  0  0  0  0  0  0  0  0  0  0  0
   36.8540   47.8270   -0.3839 C   0  0  0  0  0  0  0  0  0  0  0  0
   35.7520   47.8624   -1.2323 C   0  0  0  0  0  0  0  0  0  0  0  0
   34.5826   48.3279   -0.7449 C   0  0  0  0  0  0  0  0  0  0  0  0
   32.4724   42.8196   -1.0250 C   0  0  0  0  0  0  0  0  0  0  0  0
   33.4883   43.9221   -1.2917 C   0  0  0  0  0  0  0  0  0  0  0  0
   33.2188   44.6458   -2.6200 C   0  0  0  0  0  0  0  0  0  0  0  0
   33.6335   44.9077   -0.1140 C   0  0  0  0  0  0  0  0  0  0  0  0
 35 36  2  0  0  0
 35 39  1  0  0  0
 39 40  1  0  0  0
 40 41  1  0  0  0
 41 42  2  0  0  0
 41 46  1  0  0  0
 42 43  1  0  0  0
 43 44  2  0  0  0
 44 45  1  0  0  0
 45 46  2  0  0  0
 37 34  1  0  0  0
 34 33  1  0  0  0
 33 28  1  0  0  0
 28 29  1  0  0  0
 29 30  2  0  0  0
 29 31  1  0  0  0
 26  1  1  0  0  0
  1  2  1  0  0  0
  1 47  1  0  0  0
  2  3  2  0  0  0
 47 48  1  0  0  0
 48 49  1  0  0  0
 48 50  1  0  0  0
  4  6  1  0  0  0
  6  7  1  0  0  0
  6 19  1  0  0  0
  7  8  2  0  0  0
 19 20  1  0  0  0
 20 21  2  0  0  0
 20 22  1  0  0  0
 21 23  1  0  0  0
 22 24  2  0  0  0
 23 25  2  0  0  0
 24 25  1  0  0  0
 13 14  1  0  0  0
 13 18  1  0  0  0
 14 15  1  0  0  0
 15 16  1  0  0  0
 16 17  1  0  0  0
 16 12  1  0  0  0
 17 18  1  0  0  0
 12 11  1  0  0  0
 11  9  1  0  0  0
 35 37  1  0  0  0
 28 26  1  0  0  0
  2  4  1  0  0  0
  7  9  1  0  0  0
 37 38  1  0  0  0
 31 32  1  0  0  0
 26 27  1  0  0  0
  4  5  1  0  0  0
  9 10  1  0  0  0
M  END
> <minimizedAffinity>
-7.80448

$$$$
1CGL_0ED_A_1


 50 52  0  0  0  0  0  0  0  0999 V2000
   29.5770   44.9790   -1.3247 C   0  0  0  0  0  0  0  0  0  0  0  0
   30.8074   45.8713   -1.3741 C   0  0  0  0  0  0  0  0  0  0  0  0
   30.8505   46.8290   -2.1749 O   0  0  0  0  0  0  0  0  0  0  0  0
   31.7955   45.5522   -0.5020 N   0  0  0  0  0  0  0  0  0  0  0  0
   31.6271   44.8444    0.1612 H   0  0  0  0  0  0  0  0  0  0  0  0
   33.1208   46.2232   -0.5029 C   0  0  0  0  0  0  0  0  0  0  0  0
   34.0377   45.5195   -1.5279 C   0  0  0  0  0  0  0  0  0  0  0  0
   34.3095   44.3540   -1.4453 O   0  0  0  0  0  0  0  0  0  0  0  0
   34.5783   46.2422   -2.4367 N   0  0  0  0  0  0  0  0  0  0  0  0
   34.1826   47.1252   -2.6185 H   0  0  0  0  0  0  0  0  0  0  0  0
   35.7385   45.8435   -3.2174 C   0  0  0  0  0  0  0  0  0  0  0  0
   36.1406   47.0179   -4.1305 C   0  0  0  0  0  0  0  0  0  0  0  0
   35.3771   46.5241   -8.3646 O   0  0  0  0  0  0  0  0  0  0  0  0
   36.1274   47.6562   -7.9433 C   0  0  0  0  0  0  0  0  0  0  0  0
   36.8006   47.5211   -6.5391 C   0  0  0  0  0  0  0  0  0  0  0  0
   35.8534   46.9390   -5.5888 N   0  0  0  0  0  0  0  0  0  0  0  0
   35.0872   45.7899   -6.1298 C   0  0  0  0  0  0  0  0  0  0  0  0
   34.3720   46.2518   -7.4468 C   0  0  0  0  0  0  0  0  0  0  0  0
   33.7732   46.1722    0.9148 C   0  0  0  0  0  0  0  0  0  0  0  0
   33.6134   47.4358    1.7715 C   0  0  0  0  0  0  0  0  0  0  0  0
   33.2041   47.3295    3.0797 C   0  0  0  0  0  0  0  0  0  0  0  0
   34.1132   48.6517    1.2944 C   0  0  0  0  0  0  0  0  0  0  0  0
   33.4001   48.3905    3.9365 C   0  0  0  0  0  0  0  0  0  0  0  0
   34.3212   49.6960    2.1700 C   0  0  0  0  0  0  0  0  0  0  0  0
   33.9883   49.5649    3.4922 C   0  0  0  0  0  0  0  0  0  0  0  0
   30.1466   43.5939   -1.0244 N   0  0  0  0  0  0  0  0  0  0  0  0
   29.4412   43.1069   -0.4716 H   0  0  0  0  0  0  0  0  0  0  0  0
   30.5396   42.6693   -2.1032 C   0  0  0  0  0  0  0  0  0  0  0  0
   31.7819   41.8189   -1.6926 C   0  0  0  0  0  0  0  0  0  0  0  0
   32.1656   40.7612   -2.1686 O   0  0  0  0  0  0  0  0  0  0  0  0
   32.4554   42.2907   -0.6015 O   0  0  0  0  0  0  0  0  0  0  0  0
   32.1955   43.0983   -0.2037 H   0  0  0  0  0  0  0  0  0  0  0  0
   29.2458   41.8921   -2.3541 C   0  0  0  0  0  0  0  0  0  0  0  0
   28.6414   41.4015   -1.0941 C   0  0  0  0  0  0  0  0  0  0  0  0
   29.2668   39.2894   -0.2074 C   0  0  0  0  0  0  0  0  0  0  0  0
   30.1057   38.5495    0.3368 O   0  0  0  0  0  0  0  0  0  0  0  0
   29.6042   40.5132   -0.4582 N   0  0  0  0  0  0  0  0  0  0  0  0
   30.5021   40.8402   -0.2216 H   0  0  0  0  0  0  0  0  0  0  0  0
   27.9634   38.9445   -0.5799 O   0  0  0  0  0  0  0  0  0  0  0  0
   27.6119   38.5377   -1.9053 C   0  0  0  0  0  0  0  0  0  0  0  0
   28.6761   37.6122   -2.4400 C   0  0  0  0  0  0  0  0  0  0  0  0
   29.4134   37.9709   -3.5638 C   0  0  0  0  0  0  0  0  0  0  0  0
   30.3283   37.0879   -4.0977 C   0  0  0  0  0  0  0  0  0  0  0  0
   30.4847   35.8553   -3.4649 C   0  0  0  0  0  0  0  0  0  0  0  0
   29.7866   35.5113   -2.3118 C   0  0  0  0  0  0  0  0  0  0  0  0
   28.8805   36.3861   -1.8263 C   0  0  0  0  0  0  0  0  0  0  0  0
   28.5702   45.3279   -0.1882 C   0  0  0  0  0  0  0  0  0  0  0  0
   27.1161   44.8819   -0.2592 C   0  0  0  0  0  0  0  0  0  0  0  0
   26.1798   45.8468    0.4845 C   0  0  0  0  0  0  0  0  0  0  0  0
   26.6383   44.6061   -1.6997 C   0  0  0  0  0  0  0  0  0  0  0  0
 35 36  2  0  0  0
 35 39  1  0  0  0
 39 40  1  0  0  0
 40 41  1  0  0  0
 41 42  2  0  0  0
 41 46  1  0  0  0
 42 43  1  0  0  0
 43 44  2  0  0  0
 44 45  1  0  0  0
 45 46  2  0  0  0
 37 34  1  0  0  0
 34 33  1  0  0  0
 33 28  1  0  0  0
 28 29  1  0  0  0
 29 30  2  0  0  0
 29 31  1  0  0  0
 26  1  1  0  0  0
  1  2  1  0  0  0
  1 47  1  0  0  0
  2  3  2  0  0  0
 47 48  1  0  0  0
 48 49  1  0  0  0
 48 50  1  0  0  0
  4  6  1  0  0  0
  6  7  1  0  0  0
  6 19  1  0  0  0
  7  8  2  0  0  0
 19 20  1  0  0  0
 20 21  2  0  0  0
 20 22  1  0  0  0
 21 23  1  0  0  0
 22 24  2  0  0  0
 23 25  2  0  0  0
 24 25  1  0  0  0
 13 14  1  0  0  0
 13 18  1  0  0  0
 14 15  1  0  0  0
 15 16  1  0  0  0
 16 17  1  0  0  0
 16 12  1  0  0  0
 17 18  1  0  0  0
 12 11  1  0  0  0
 11  9  1  0  0  0
 35 37  1  0  0  0
 28 26  1  0  0  0
  2  4  1  0  0  0
  7  9  1  0  0  0
 37 38  1  0  0  0
 31 32  1  0  0  0
 26 27  1  0  0  0
  4  5  1  0  0  0
  9 10  1  0  0  0
M  END
> <minimizedAffinity>
-7.58398

$$$$
1CGL_0ED_A_1


 50 52  0  0  0  0  0  0  0  0999 V2000
   29.9611   38.8003   -2.8860 C   0  0  0  0  0  0  0  0  0  0  0  0
   30.3965   40.1960   -3.3044 C   0  0  0  0  0  0  0  0  0  0  0  0
   30.7774   40.4047   -4.4756 O   0  0  0  0  0  0  0  0  0  0  0  0
   30.3226   41.1448   -2.3384 N   0  0  0  0  0  0  0  0  0  0  0  0
   29.9117   40.9070   -1.4759 H   0  0  0  0  0  0  0  0  0  0  0  0
   30.8343   42.5270   -2.5237 C   0  0  0  0  0  0  0  0  0  0  0  0
   32.0553   42.7369   -1.6009 C   0  0  0  0  0  0  0  0  0  0  0  0
   32.2285   42.0786   -0.6132 O   0  0  0  0  0  0  0  0  0  0  0  0
   32.8484   43.7046   -1.8749 N   0  0  0  0  0  0  0  0  0  0  0  0
   32.8167   44.0824   -2.7835 H   0  0  0  0  0  0  0  0  0  0  0  0
   33.7925   44.2817   -0.9313 C   0  0  0  0  0  0  0  0  0  0  0  0
   33.8077   45.8100   -1.1276 C   0  0  0  0  0  0  0  0  0  0  0  0
   36.7720   47.5461   -3.7646 O   0  0  0  0  0  0  0  0  0  0  0  0
   35.4892   48.1561   -3.6993 C   0  0  0  0  0  0  0  0  0  0  0  0
   34.6677   47.8375   -2.4083 C   0  0  0  0  0  0  0  0  0  0  0  0
   34.7604   46.4106   -2.1009 N   0  0  0  0  0  0  0  0  0  0  0  0
   36.1284   45.8534   -2.2355 C   0  0  0  0  0  0  0  0  0  0  0  0
   36.6467   46.1661   -3.6822 C   0  0  0  0  0  0  0  0  0  0  0  0
   29.7307   43.5801   -2.1905 C   0  0  0  0  0  0  0  0  0  0  0  0
   28.7451   43.8987   -3.3233 C   0  0  0  0  0  0  0  0  0  0  0  0
   27.8788   42.9294   -3.7707 C   0  0  0  0  0  0  0  0  0  0  0  0
   28.5697   45.2277   -3.7218 C   0  0  0  0  0  0  0  0  0  0  0  0
   26.7786   43.2984   -4.5136 C   0  0  0  0  0  0  0  0  0  0  0  0
   27.4528   45.5819   -4.4481 C   0  0  0  0  0  0  0  0  0  0  0  0
   26.5451   44.6287   -4.8272 C   0  0  0  0  0  0  0  0  0  0  0  0
   28.4653   38.9534   -2.6173 N   0  0  0  0  0  0  0  0  0  0  0  0
   27.9931   38.2980   -3.2401 H   0  0  0  0  0  0  0  0  0  0  0  0
   27.8946   38.7356   -1.2757 C   0  0  0  0  0  0  0  0  0  0  0  0
   28.9722   38.9364   -0.1650 C   0  0  0  0  0  0  0  0  0  0  0  0
   29.7572   38.1155    0.2849 O   0  0  0  0  0  0  0  0  0  0  0  0
   28.9529   40.1678    0.4266 O   0  0  0  0  0  0  0  0  0  0  0  0
   28.3665   40.8285    0.1142 H   0  0  0  0  0  0  0  0  0  0  0  0
   26.7199   39.7157   -1.2579 C   0  0  0  0  0  0  0  0  0  0  0  0
   26.0422   39.7917   -2.5727 C   0  0  0  0  0  0  0  0  0  0  0  0
   23.6786   40.0005   -2.4842 C   0  0  0  0  0  0  0  0  0  0  0  0
   22.5515   39.4921   -2.3480 O   0  0  0  0  0  0  0  0  0  0  0  0
   24.7107   39.2230   -2.4175 N   0  0  0  0  0  0  0  0  0  0  0  0
   24.5970   38.2572   -2.2636 H   0  0  0  0  0  0  0  0  0  0  0  0
   23.9665   41.3528   -2.6963 O   0  0  0  0  0  0  0  0  0  0  0  0
   23.3190   42.4101   -1.9833 C   0  0  0  0  0  0  0  0  0  0  0  0
   24.3290   43.4824   -1.6587 C   0  0  0  0  0  0  0  0  0  0  0  0
   25.4844   43.1630   -0.9530 C   0  0  0  0  0  0  0  0  0  0  0  0
   26.3655   44.1590   -0.5876 C   0  0  0  0  0  0  0  0  0  0  0  0
   26.0572   45.4663   -0.9619 C   0  0  0  0  0  0  0  0  0  0  0  0
   24.9289   45.7847   -1.7109 C   0  0  0  0  0  0  0  0  0  0  0  0
   24.0726   44.7923   -2.0332 C   0  0  0  0  0  0  0  0  0  0  0  0
   30.1302   37.7125   -3.9882 C   0  0  0  0  0  0  0  0  0  0  0  0
   30.6121   36.3098   -3.6437 C   0  0  0  0  0  0  0  0  0  0  0  0
   29.8229   35.6995   -2.4751 C   0  0  0  0  0  0  0  0  0  0  0  0
   30.6579   35.3694   -4.8656 C   0  0  0  0  0  0  0  0  0  0  0  0
 35 36  2  0  0  0
 35 39  1  0  0  0
 39 40  1  0  0  0
 40 41  1  0  0  0
 41 42  2  0  0  0
 41 46  1  0  0  0
 42 43  1  0  0  0
 43 44  2  0  0  0
 44 45  1  0  0  0
 45 46  2  0  0  0
 37 34  1  0  0  0
 34 33  1  0  0  0
 33 28  1  0  0  0
 28 29  1  0  0  0
 29 30  2  0  0  0
 29 31  1  0  0  0
 26  1  1  0  0  0
  1  2  1  0  0  0
  1 47  1  0  0  0
  2  3  2  0  0  0
 47 48  1  0  0  0
 48 49  1  0  0  0
 48 50  1  0  0  0
  4  6  1  0  0  0
  6  7  1  0  0  0
  6 19  1  0  0  0
  7  8  2  0  0  0
 19 20  1  0  0  0
 20 21  2  0  0  0
 20 22  1  0  0  0
 21 23  1  0  0  0
 22 24  2  0  0  0
 23 25  2  0  0  0
 24 25  1  0  0  0
 13 14  1  0  0  0
 13 18  1  0  0  0
 14 15  1  0  0  0
 15 16  1  0  0  0
 16 17  1  0  0  0
 16 12  1  0  0  0
 17 18  1  0  0  0
 12 11  1  0  0  0
 11  9  1  0  0  0
 35 37  1  0  0  0
 28 26  1  0  0  0
  2  4  1  0  0  0
  7  9  1  0  0  0
 37 38  1  0  0  0
 31 32  1  0  0  0
 26 27  1  0  0  0
  4  5  1  0  0  0
  9 10  1  0  0  0
M  END
> <minimizedAffinity>
-7.54073

$$$$
1CGL_0ED_A_1


 50 52  0  0  0  0  0  0  0  0999 V2000
   30.8886   43.3358   -1.4030 C   0  0  0  0  0  0  0  0  0  0  0  0
   30.5359   41.9377   -1.8863 C   0  0  0  0  0  0  0  0  0  0  0  0
   31.3280   41.3161   -2.6256 O   0  0  0  0  0  0  0  0  0  0  0  0
   29.3478   41.4514   -1.4497 N   0  0  0  0  0  0  0  0  0  0  0  0
   28.8410   41.9734   -0.7865 H   0  0  0  0  0  0  0  0  0  0  0  0
   28.7770   40.1661   -1.9278 C   0  0  0  0  0  0  0  0  0  0  0  0
   27.2584   40.1562   -1.6440 C   0  0  0  0  0  0  0  0  0  0  0  0
   26.8021   39.7028   -0.6315 O   0  0  0  0  0  0  0  0  0  0  0  0
   26.4779   40.5748   -2.5692 N   0  0  0  0  0  0  0  0  0  0  0  0
   26.8664   41.1316   -3.2822 H   0  0  0  0  0  0  0  0  0  0  0  0
   25.0551   40.2813   -2.6351 C   0  0  0  0  0  0  0  0  0  0  0  0
   24.8571   39.0084   -3.4807 C   0  0  0  0  0  0  0  0  0  0  0  0
   22.3390   35.7295   -2.1911 O   0  0  0  0  0  0  0  0  0  0  0  0
   22.1990   36.9839   -1.5362 C   0  0  0  0  0  0  0  0  0  0  0  0
   22.7186   38.2165   -2.3448 C   0  0  0  0  0  0  0  0  0  0  0  0
   24.0135   37.9035   -2.9485 N   0  0  0  0  0  0  0  0  0  0  0  0
   24.0781   36.5589   -3.5714 C   0  0  0  0  0  0  0  0  0  0  0  0
   23.6741   35.4965   -2.4909 C   0  0  0  0  0  0  0  0  0  0  0  0
   29.4572   38.9541   -1.2161 C   0  0  0  0  0  0  0  0  0  0  0  0
   30.0974   37.9083   -2.1393 C   0  0  0  0  0  0  0  0  0  0  0  0
   30.5352   36.7127   -1.6207 C   0  0  0  0  0  0  0  0  0  0  0  0
   30.0109   38.0768   -3.5250 C   0  0  0  0  0  0  0  0  0  0  0  0
   30.7728   35.6549   -2.4710 C   0  0  0  0  0  0  0  0  0  0  0  0
   30.2329   37.0022   -4.3595 C   0  0  0  0  0  0  0  0  0  0  0  0
   30.5915   35.7868   -3.8392 C   0  0  0  0  0  0  0  0  0  0  0  0
   30.0644   43.4959   -0.1270 N   0  0  0  0  0  0  0  0  0  0  0  0
   30.7130   43.3749    0.6509 H   0  0  0  0  0  0  0  0  0  0  0  0
   29.3053   44.7281    0.1534 C   0  0  0  0  0  0  0  0  0  0  0  0
   30.0867   45.6625    1.1288 C   0  0  0  0  0  0  0  0  0  0  0  0
   31.1017   46.3061    0.9096 O   0  0  0  0  0  0  0  0  0  0  0  0
   29.6077   45.6728    2.4083 O   0  0  0  0  0  0  0  0  0  0  0  0
   28.8318   45.1930    2.6220 H   0  0  0  0  0  0  0  0  0  0  0  0
   29.0524   45.2818   -1.2503 C   0  0  0  0  0  0  0  0  0  0  0  0
   27.6071   45.4485   -1.5277 C   0  0  0  0  0  0  0  0  0  0  0  0
   25.8479   44.0248   -0.8089 C   0  0  0  0  0  0  0  0  0  0  0  0
   25.3337   42.8949   -0.7299 O   0  0  0  0  0  0  0  0  0  0  0  0
   26.9822   44.1375   -1.4212 N   0  0  0  0  0  0  0  0  0  0  0  0
   27.4181   43.3454   -1.8108 H   0  0  0  0  0  0  0  0  0  0  0  0
   25.3324   45.2169   -0.2894 O   0  0  0  0  0  0  0  0  0  0  0  0
   24.4365   45.2602    0.8246 C   0  0  0  0  0  0  0  0  0  0  0  0
   24.9774   46.2135    1.8608 C   0  0  0  0  0  0  0  0  0  0  0  0
   24.2137   46.5387    2.9771 C   0  0  0  0  0  0  0  0  0  0  0  0
   24.6771   47.4722    3.8803 C   0  0  0  0  0  0  0  0  0  0  0  0
   25.9222   48.0495    3.6342 C   0  0  0  0  0  0  0  0  0  0  0  0
   26.7122   47.6912    2.5466 C   0  0  0  0  0  0  0  0  0  0  0  0
   26.2219   46.7926    1.6667 C   0  0  0  0  0  0  0  0  0  0  0  0
   32.3863   43.5294   -1.0207 C   0  0  0  0  0  0  0  0  0  0  0  0
   33.1691   44.7471   -1.4929 C   0  0  0  0  0  0  0  0  0  0  0  0
   34.6846   44.5603   -1.3221 C   0  0  0  0  0  0  0  0  0  0  0  0
   32.7973   45.1869   -2.9238 C   0  0  0  0  0  0  0  0  0  0  0  0
 35 36  2  0  0  0
 35 39  1  0  0  0
 39 40  1  0  0  0
 40 41  1  0  0  0
 41 42  2  0  0  0
 41 46  1  0  0  0
 42 43  1  0  0  0
 43 44  2  0  0  0
 44 45  1  0  0  0
 45 46  2  0  0  0
 37 34  1  0  0  0
 34 33  1  0  0  0
 33 28  1  0  0  0
 28 29  1  0  0  0
 29 30  2  0  0  0
 29 31  1  0  0  0
 26  1  1  0  0  0
  1  2  1  0  0  0
  1 47  1  0  0  0
  2  3  2  0  0  0
 47 48  1  0  0  0
 48 49  1  0  0  0
 48 50  1  0  0  0
  4  6  1  0  0  0
  6  7  1  0  0  0
  6 19  1  0  0  0
  7  8  2  0  0  0
 19 20  1  0  0  0
 20 21  2  0  0  0
 20 22  1  0  0  0
 21 23  1  0  0  0
 22 24  2  0  0  0
 23 25  2  0  0  0
 24 25  1  0  0  0
 13 14  1  0  0  0
 13 18  1  0  0  0
 14 15  1  0  0  0
 15 16  1  0  0  0
 16 17  1  0  0  0
 16 12  1  0  0  0
 17 18  1  0  0  0
 12 11  1  0  0  0
 11  9  1  0  0  0
 35 37  1  0  0  0
 28 26  1  0  0  0
  2  4  1  0  0  0
  7  9  1  0  0  0
 37 38  1  0  0  0
 31 32  1  0  0  0
 26 27  1  0  0  0
  4  5  1  0  0  0
  9 10  1  0  0  0
M  END
> <minimizedAffinity>
-7.26343

$$$$
1CGL_0ED_A_1


 50 52  0  0  0  0  0  0  0  0999 V2000
   30.8810   42.9244   -1.4705 C   0  0  0  0  0  0  0  0  0  0  0  0
   30.4822   41.5799   -2.0588 C   0  0  0  0  0  0  0  0  0  0  0  0
   31.1638   41.0743   -2.9754 O   0  0  0  0  0  0  0  0  0  0  0  0
   29.3813   41.0069   -1.5123 N   0  0  0  0  0  0  0  0  0  0  0  0
   28.9718   41.4319   -0.7244 H   0  0  0  0  0  0  0  0  0  0  0  0
   28.7659   39.7665   -2.0499 C   0  0  0  0  0  0  0  0  0  0  0  0
   27.2582   39.7689   -1.7131 C   0  0  0  0  0  0  0  0  0  0  0  0
   26.8576   39.7791   -0.5824 O   0  0  0  0  0  0  0  0  0  0  0  0
   26.4313   39.6730   -2.6865 N   0  0  0  0  0  0  0  0  0  0  0  0
   26.7588   39.8830   -3.5909 H   0  0  0  0  0  0  0  0  0  0  0  0
   25.0402   39.2743   -2.5428 C   0  0  0  0  0  0  0  0  0  0  0  0
   24.9731   37.7350   -2.5156 C   0  0  0  0  0  0  0  0  0  0  0  0
   21.3620   35.5672   -3.5231 O   0  0  0  0  0  0  0  0  0  0  0  0
   22.2394   35.9407   -4.5779 C   0  0  0  0  0  0  0  0  0  0  0  0
   23.7118   36.2351   -4.1435 C   0  0  0  0  0  0  0  0  0  0  0  0
   23.7171   37.0526   -2.9307 N   0  0  0  0  0  0  0  0  0  0  0  0
   22.7413   36.6126   -1.9038 C   0  0  0  0  0  0  0  0  0  0  0  0
   21.3192   36.5691   -2.5634 C   0  0  0  0  0  0  0  0  0  0  0  0
   29.4430   38.4981   -1.4410 C   0  0  0  0  0  0  0  0  0  0  0  0
   29.6369   37.3162   -2.4009 C   0  0  0  0  0  0  0  0  0  0  0  0
   29.8861   37.5489   -3.7328 C   0  0  0  0  0  0  0  0  0  0  0  0
   29.7988   36.0301   -1.8761 C   0  0  0  0  0  0  0  0  0  0  0  0
   30.4048   36.5358   -4.5093 C   0  0  0  0  0  0  0  0  0  0  0  0
   30.3375   35.0338   -2.6620 C   0  0  0  0  0  0  0  0  0  0  0  0
   30.6620   35.2851   -3.9689 C   0  0  0  0  0  0  0  0  0  0  0  0
   29.8598   43.1491   -0.3571 N   0  0  0  0  0  0  0  0  0  0  0  0
   30.3658   43.0436    0.5223 H   0  0  0  0  0  0  0  0  0  0  0  0
   29.0979   44.4065   -0.2493 C   0  0  0  0  0  0  0  0  0  0  0  0
   29.7497   45.3740    0.7870 C   0  0  0  0  0  0  0  0  0  0  0  0
   29.3654   45.6459    1.9143 O   0  0  0  0  0  0  0  0  0  0  0  0
   30.8336   46.0603    0.3169 O   0  0  0  0  0  0  0  0  0  0  0  0
   31.1628   45.8844   -0.5425 H   0  0  0  0  0  0  0  0  0  0  0  0
   29.0678   44.8949   -1.6990 C   0  0  0  0  0  0  0  0  0  0  0  0
   27.8288   44.4811   -2.3971 C   0  0  0  0  0  0  0  0  0  0  0  0
   25.9872   43.1387   -1.7302 C   0  0  0  0  0  0  0  0  0  0  0  0
   25.2004   42.7393   -0.8534 O   0  0  0  0  0  0  0  0  0  0  0  0
   26.8950   43.9960   -1.3905 N   0  0  0  0  0  0  0  0  0  0  0  0
   26.9536   44.3169   -0.4617 H   0  0  0  0  0  0  0  0  0  0  0  0
   25.9973   42.7657   -3.0783 O   0  0  0  0  0  0  0  0  0  0  0  0
   24.8161   42.7146   -3.8831 C   0  0  0  0  0  0  0  0  0  0  0  0
   25.2066   42.7191   -5.3400 C   0  0  0  0  0  0  0  0  0  0  0  0
   25.5660   43.9098   -5.9632 C   0  0  0  0  0  0  0  0  0  0  0  0
   25.8436   43.9235   -7.3139 C   0  0  0  0  0  0  0  0  0  0  0  0
   25.7621   42.7149   -8.0045 C   0  0  0  0  0  0  0  0  0  0  0  0
   25.4522   41.5128   -7.3766 C   0  0  0  0  0  0  0  0  0  0  0  0
   25.1619   41.5344   -6.0586 C   0  0  0  0  0  0  0  0  0  0  0  0
   32.2964   42.9516   -0.8205 C   0  0  0  0  0  0  0  0  0  0  0  0
   33.4035   43.8350   -1.3796 C   0  0  0  0  0  0  0  0  0  0  0  0
   32.9961   44.5026   -2.7021 C   0  0  0  0  0  0  0  0  0  0  0  0
   33.9365   44.8572   -0.3548 C   0  0  0  0  0  0  0  0  0  0  0  0
 35 36  2  0  0  0
 35 39  1  0  0  0
 39 40  1  0  0  0
 40 41  1  0  0  0
 41 42  2  0  0  0
 41 46  1  0  0  0
 42 43  1  0  0  0
 43 44  2  0  0  0
 44 45  1  0  0  0
 45 46  2  0  0  0
 37 34  1  0  0  0
 34 33  1  0  0  0
 33 28  1  0  0  0
 28 29  1  0  0  0
 29 30  2  0  0  0
 29 31  1  0  0  0
 26  1  1  0  0  0
  1  2  1  0  0  0
  1 47  1  0  0  0
  2  3  2  0  0  0
 47 48  1  0  0  0
 48 49  1  0  0  0
 48 50  1  0  0  0
  4  6  1  0  0  0
  6  7  1  0  0  0
  6 19  1  0  0  0
  7  8  2  0  0  0
 19 20  1  0  0  0
 20 21  2  0  0  0
 20 22  1  0  0  0
 21 23  1  0  0  0
 22 24  2  0  0  0
 23 25  2  0  0  0
 24 25  1  0  0  0
 13 14  1  0  0  0
 13 18  1  0  0  0
 14 15  1  0  0  0
 15 16  1  0  0  0
 16 17  1  0  0  0
 16 12  1  0  0  0
 17 18  1  0  0  0
 12 11  1  0  0  0
 11  9  1  0  0  0
 35 37  1  0  0  0
 28 26  1  0  0  0
  2  4  1  0  0  0
  7  9  1  0  0  0
 37 38  1  0  0  0
 31 32  1  0  0  0
 26 27  1  0  0  0
  4  5  1  0  0  0
  9 10  1  0  0  0
M  END
> <minimizedAffinity>
-7.25382

$$$$
1CGL_0ED_A_1


 50 52  0  0  0  0  0  0  0  0999 V2000
   30.8223   42.7650   -1.7376 C   0  0  0  0  0  0  0  0  0  0  0  0
   30.4104   41.4166   -2.3074 C   0  0  0  0  0  0  0  0  0  0  0  0
   31.1131   40.8697   -3.1834 O   0  0  0  0  0  0  0  0  0  0  0  0
   29.2740   40.8869   -1.7907 N   0  0  0  0  0  0  0  0  0  0  0  0
   28.8459   41.3428   -1.0304 H   0  0  0  0  0  0  0  0  0  0  0  0
   28.6465   39.6494   -2.3210 C   0  0  0  0  0  0  0  0  0  0  0  0
   27.1109   39.7821   -2.2162 C   0  0  0  0  0  0  0  0  0  0  0  0
   26.5632   40.0494   -1.1830 O   0  0  0  0  0  0  0  0  0  0  0  0
   26.4182   39.5122   -3.2592 N   0  0  0  0  0  0  0  0  0  0  0  0
   26.8783   39.5110   -4.1296 H   0  0  0  0  0  0  0  0  0  0  0  0
   24.9964   39.2074   -3.2414 C   0  0  0  0  0  0  0  0  0  0  0  0
   24.2298   40.4170   -3.8106 C   0  0  0  0  0  0  0  0  0  0  0  0
   21.8595   42.6804   -0.9799 O   0  0  0  0  0  0  0  0  0  0  0  0
   21.1851   41.8040   -1.8739 C   0  0  0  0  0  0  0  0  0  0  0  0
   22.0696   40.6688   -2.4838 C   0  0  0  0  0  0  0  0  0  0  0  0
   23.3572   41.2172   -2.9086 N   0  0  0  0  0  0  0  0  0  0  0  0
   23.9653   42.1524   -1.9309 C   0  0  0  0  0  0  0  0  0  0  0  0
   22.9277   43.2879   -1.6255 C   0  0  0  0  0  0  0  0  0  0  0  0
   29.1258   38.3949   -1.5245 C   0  0  0  0  0  0  0  0  0  0  0  0
   29.8633   37.3246   -2.3409 C   0  0  0  0  0  0  0  0  0  0  0  0
   30.0430   36.0662   -1.8172 C   0  0  0  0  0  0  0  0  0  0  0  0
   30.1304   37.5612   -3.6931 C   0  0  0  0  0  0  0  0  0  0  0  0
   30.3730   35.0260   -2.6583 C   0  0  0  0  0  0  0  0  0  0  0  0
   30.4399   36.5054   -4.5238 C   0  0  0  0  0  0  0  0  0  0  0  0
   30.5408   35.2362   -4.0185 C   0  0  0  0  0  0  0  0  0  0  0  0
   29.7719   43.0397   -0.6632 N   0  0  0  0  0  0  0  0  0  0  0  0
   30.2531   42.9696    0.2335 H   0  0  0  0  0  0  0  0  0  0  0  0
   29.0130   44.3030   -0.6293 C   0  0  0  0  0  0  0  0  0  0  0  0
   27.4861   44.0492   -0.8273 C   0  0  0  0  0  0  0  0  0  0  0  0
   26.6107   44.8623   -1.0825 O   0  0  0  0  0  0  0  0  0  0  0  0
   27.0904   42.7633   -0.5895 O   0  0  0  0  0  0  0  0  0  0  0  0
   27.7279   42.1063   -0.3898 H   0  0  0  0  0  0  0  0  0  0  0  0
   29.4268   44.8960    0.7190 C   0  0  0  0  0  0  0  0  0  0  0  0
   30.4054   45.9968    0.5628 C   0  0  0  0  0  0  0  0  0  0  0  0
   30.6957   47.8440    2.0263 C   0  0  0  0  0  0  0  0  0  0  0  0
   30.2337   48.8256    2.6350 O   0  0  0  0  0  0  0  0  0  0  0  0
   29.8915   47.1515    1.2860 N   0  0  0  0  0  0  0  0  0  0  0  0
   28.9424   47.4026    1.2124 H   0  0  0  0  0  0  0  0  0  0  0  0
   32.0165   47.3848    2.0591 O   0  0  0  0  0  0  0  0  0  0  0  0
   32.8922   47.6044    3.1684 C   0  0  0  0  0  0  0  0  0  0  0  0
   34.1465   48.2877    2.6839 C   0  0  0  0  0  0  0  0  0  0  0  0
   34.4159   49.6003    3.0577 C   0  0  0  0  0  0  0  0  0  0  0  0
   35.5213   50.2484    2.5478 C   0  0  0  0  0  0  0  0  0  0  0  0
   36.3424   49.5384    1.6727 C   0  0  0  0  0  0  0  0  0  0  0  0
   36.1055   48.2098    1.3349 C   0  0  0  0  0  0  0  0  0  0  0  0
   35.0028   47.6093    1.8304 C   0  0  0  0  0  0  0  0  0  0  0  0
   32.2167   42.7748   -1.0429 C   0  0  0  0  0  0  0  0  0  0  0  0
   33.3025   43.7536   -1.4690 C   0  0  0  0  0  0  0  0  0  0  0  0
   32.9213   44.5177   -2.7463 C   0  0  0  0  0  0  0  0  0  0  0  0
   33.7391   44.7031   -0.3344 C   0  0  0  0  0  0  0  0  0  0  0  0
 35 36  2  0  0  0
 35 39  1  0  0  0
 39 40  1  0  0  0
 40 41  1  0  0  0
 41 42  2  0  0  0
 41 46  1  0  0  0
 42 43  1  0  0  0
 43 44  2  0  0  0
 44 45  1  0  0  0
 45 46  2  0  0  0
 37 34  1  0  0  0
 34 33  1  0  0  0
 33 28  1  0  0  0
 28 29  1  0  0  0
 29 30  2  0  0  0
 29 31  1  0  0  0
 26  1  1  0  0  0
  1  2  1  0  0  0
  1 47  1  0  0  0
  2  3  2  0  0  0
 47 48  1  0  0  0
 48 49  1  0  0  0
 48 50  1  0  0  0
  4  6  1  0  0  0
  6  7  1  0  0  0
  6 19  1  0  0  0
  7  8  2  0  0  0
 19 20  1  0  0  0
 20 21  2  0  0  0
 20 22  1  0  0  0
 21 23  1  0  0  0
 22 24  2  0  0  0
 23 25  2  0  0  0
 24 25  1  0  0  0
 13 14  1  0  0  0
 13 18  1  0  0  0
 14 15  1  0  0  0
 15 16  1  0  0  0
 16 17  1  0  0  0
 16 12  1  0  0  0
 17 18  1  0  0  0
 12 11  1  0  0  0
 11  9  1  0  0  0
 35 37  1  0  0  0
 28 26  1  0  0  0
  2  4  1  0  0  0
  7  9  1  0  0  0
 37 38  1  0  0  0
 31 32  1  0  0  0
 26 27  1  0  0  0
  4  5  1  0  0  0
  9 10  1  0  0  0
M  END
> <minimizedAffinity>
-7.21615

$$$$
1CGL_0ED_A_1


 50 52  0  0  0  0  0  0  0  0999 V2000
   28.8282   37.8357   -1.2619 C   0  0  0  0  0  0  0  0  0  0  0  0
   29.0783   39.2510   -0.7650 C   0  0  0  0  0  0  0  0  0  0  0  0
   28.6531   39.6018    0.3559 O   0  0  0  0  0  0  0  0  0  0  0  0
   29.7816   40.0493   -1.6058 N   0  0  0  0  0  0  0  0  0  0  0  0
   30.1639   39.6523   -2.4216 H   0  0  0  0  0  0  0  0  0  0  0  0
   30.0010   41.4961   -1.3505 C   0  0  0  0  0  0  0  0  0  0  0  0
   28.7246   42.2729   -1.7427 C   0  0  0  0  0  0  0  0  0  0  0  0
   28.5080   42.6146   -2.8720 O   0  0  0  0  0  0  0  0  0  0  0  0
   27.9291   42.6233   -0.8020 N   0  0  0  0  0  0  0  0  0  0  0  0
   28.0056   42.1583    0.0624 H   0  0  0  0  0  0  0  0  0  0  0  0
   26.9203   43.6632   -0.9277 C   0  0  0  0  0  0  0  0  0  0  0  0
   27.5284   44.9950   -0.4468 C   0  0  0  0  0  0  0  0  0  0  0  0
   25.3337   47.3681    2.4352 O   0  0  0  0  0  0  0  0  0  0  0  0
   26.7544   47.3831    2.4930 C   0  0  0  0  0  0  0  0  0  0  0  0
   27.4769   46.9607    1.1729 C   0  0  0  0  0  0  0  0  0  0  0  0
   26.8301   45.7755    0.6108 N   0  0  0  0  0  0  0  0  0  0  0  0
   25.3480   45.8322    0.6301 C   0  0  0  0  0  0  0  0  0  0  0  0
   24.8850   46.0968    2.1048 C   0  0  0  0  0  0  0  0  0  0  0  0
   31.2188   42.0291   -2.1696 C   0  0  0  0  0  0  0  0  0  0  0  0
   31.7874   43.3823   -1.7205 C   0  0  0  0  0  0  0  0  0  0  0  0
   32.6120   44.0920   -2.5610 C   0  0  0  0  0  0  0  0  0  0  0  0
   31.2738   43.9908   -0.5709 C   0  0  0  0  0  0  0  0  0  0  0  0
   32.8289   45.4313   -2.3211 C   0  0  0  0  0  0  0  0  0  0  0  0
   31.4845   45.3363   -0.3573 C   0  0  0  0  0  0  0  0  0  0  0  0
   32.2403   46.0648   -1.2373 C   0  0  0  0  0  0  0  0  0  0  0  0
   27.7278   38.0086   -2.3071 N   0  0  0  0  0  0  0  0  0  0  0  0
   27.6738   37.1262   -2.8159 H   0  0  0  0  0  0  0  0  0  0  0  0
   26.3462   38.3527   -1.9253 C   0  0  0  0  0  0  0  0  0  0  0  0
   25.9861   39.8071   -2.3612 C   0  0  0  0  0  0  0  0  0  0  0  0
   26.1379   40.3285   -3.4556 O   0  0  0  0  0  0  0  0  0  0  0  0
   25.5307   40.6049   -1.3499 O   0  0  0  0  0  0  0  0  0  0  0  0
   25.3996   40.2472   -0.4938 H   0  0  0  0  0  0  0  0  0  0  0  0
   25.5373   37.2335   -2.5840 C   0  0  0  0  0  0  0  0  0  0  0  0
   24.1523   37.6585   -2.8916 C   0  0  0  0  0  0  0  0  0  0  0  0
   22.6024   36.7280   -1.3521 C   0  0  0  0  0  0  0  0  0  0  0  0
   21.9808   36.7819   -0.2759 O   0  0  0  0  0  0  0  0  0  0  0  0
   23.4123   37.6957   -1.6380 N   0  0  0  0  0  0  0  0  0  0  0  0
   23.5271   38.4491   -1.0146 H   0  0  0  0  0  0  0  0  0  0  0  0
   22.5165   35.7203   -2.3185 O   0  0  0  0  0  0  0  0  0  0  0  0
   21.3099   35.4153   -3.0232 C   0  0  0  0  0  0  0  0  0  0  0  0
   21.5215   34.1774   -3.8586 C   0  0  0  0  0  0  0  0  0  0  0  0
   22.3988   33.1866   -3.4296 C   0  0  0  0  0  0  0  0  0  0  0  0
   22.6513   32.0952   -4.2338 C   0  0  0  0  0  0  0  0  0  0  0  0
   21.9915   32.0274   -5.4602 C   0  0  0  0  0  0  0  0  0  0  0  0
   21.0753   32.9899   -5.8721 C   0  0  0  0  0  0  0  0  0  0  0  0
   20.8666   34.0588   -5.0747 C   0  0  0  0  0  0  0  0  0  0  0  0
   30.0476   37.1740   -1.9705 C   0  0  0  0  0  0  0  0  0  0  0  0
   29.8562   36.2224   -3.1437 C   0  0  0  0  0  0  0  0  0  0  0  0
   30.3159   36.8440   -4.4715 C   0  0  0  0  0  0  0  0  0  0  0  0
   30.4859   34.8346   -2.9050 C   0  0  0  0  0  0  0  0  0  0  0  0
 35 36  2  0  0  0
 35 39  1  0  0  0
 39 40  1  0  0  0
 40 41  1  0  0  0
 41 42  2  0  0  0
 41 46  1  0  0  0
 42 43  1  0  0  0
 43 44  2  0  0  0
 44 45  1  0  0  0
 45 46  2  0  0  0
 37 34  1  0  0  0
 34 33  1  0  0  0
 33 28  1  0  0  0
 28 29  1  0  0  0
 29 30  2  0  0  0
 29 31  1  0  0  0
 26  1  1  0  0  0
  1  2  1  0  0  0
  1 47  1  0  0  0
  2  3  2  0  0  0
 47 48  1  0  0  0
 48 49  1  0  0  0
 48 50  1  0  0  0
  4  6  1  0  0  0
  6  7  1  0  0  0
  6 19  1  0  0  0
  7  8  2  0  0  0
 19 20  1  0  0  0
 20 21  2  0  0  0
 20 22  1  0  0  0
 21 23  1  0  0  0
 22 24  2  0  0  0
 23 25  2  0  0  0
 24 25  1  0  0  0
 13 14  1  0  0  0
 13 18  1  0  0  0
 14 15  1  0  0  0
 15 16  1  0  0  0
 16 17  1  0  0  0
 16 12  1  0  0  0
 17 18  1  0  0  0
 12 11  1  0  0  0
 11  9  1  0  0  0
 35 37  1  0  0  0
 28 26  1  0  0  0
  2  4  1  0  0  0
  7  9  1  0  0  0
 37 38  1  0  0  0
 31 32  1  0  0  0
 26 27  1  0  0  0
  4  5  1  0  0  0
  9 10  1  0  0  0
M  END
> <minimizedAffinity>
-7.20093

$$$$
1CGL_0ED_A_1


 50 52  0  0  0  0  0  0  0  0999 V2000
   26.3564   38.6058   -3.2484 C   0  0  0  0  0  0  0  0  0  0  0  0
   25.8936   40.0543   -3.2336 C   0  0  0  0  0  0  0  0  0  0  0  0
   25.4315   40.5497   -2.1841 O   0  0  0  0  0  0  0  0  0  0  0  0
   26.0358   40.7247   -4.4037 N   0  0  0  0  0  0  0  0  0  0  0  0
   26.5062   40.2809   -5.1460 H   0  0  0  0  0  0  0  0  0  0  0  0
   25.5133   42.0990   -4.6152 C   0  0  0  0  0  0  0  0  0  0  0  0
   24.0158   42.0139   -4.9856 C   0  0  0  0  0  0  0  0  0  0  0  0
   23.1481   42.2303   -4.1861 O   0  0  0  0  0  0  0  0  0  0  0  0
   23.7170   41.6175   -6.1663 N   0  0  0  0  0  0  0  0  0  0  0  0
   24.4182   41.6567   -6.8562 H   0  0  0  0  0  0  0  0  0  0  0  0
   22.4092   41.1134   -6.5541 C   0  0  0  0  0  0  0  0  0  0  0  0
   22.3829   39.5906   -6.3195 C   0  0  0  0  0  0  0  0  0  0  0  0
   21.4317   36.8029   -9.4941 O   0  0  0  0  0  0  0  0  0  0  0  0
   21.4511   38.1913   -9.8007 C   0  0  0  0  0  0  0  0  0  0  0  0
   22.2765   39.0776   -8.8127 C   0  0  0  0  0  0  0  0  0  0  0  0
   21.9835   38.6881   -7.4337 N   0  0  0  0  0  0  0  0  0  0  0  0
   21.9436   37.2211   -7.2181 C   0  0  0  0  0  0  0  0  0  0  0  0
   20.9101   36.6041   -8.2232 C   0  0  0  0  0  0  0  0  0  0  0  0
   26.2998   42.8266   -5.7510 C   0  0  0  0  0  0  0  0  0  0  0  0
   26.8281   44.2266   -5.4090 C   0  0  0  0  0  0  0  0  0  0  0  0
   26.1775   44.9947   -4.4726 C   0  0  0  0  0  0  0  0  0  0  0  0
   28.0921   44.6102   -5.8685 C   0  0  0  0  0  0  0  0  0  0  0  0
   26.8294   46.0714   -3.9120 C   0  0  0  0  0  0  0  0  0  0  0  0
   28.7375   45.6780   -5.2823 C   0  0  0  0  0  0  0  0  0  0  0  0
   28.1226   46.3969   -4.2916 C   0  0  0  0  0  0  0  0  0  0  0  0
   27.8465   38.6989   -2.9258 N   0  0  0  0  0  0  0  0  0  0  0  0
   27.9442   39.4395   -2.2313 H   0  0  0  0  0  0  0  0  0  0  0  0
   28.5990   37.5420   -2.4076 C   0  0  0  0  0  0  0  0  0  0  0  0
   29.7591   37.1454   -3.3729 C   0  0  0  0  0  0  0  0  0  0  0  0
   30.4373   36.1293   -3.3635 O   0  0  0  0  0  0  0  0  0  0  0  0
   30.1005   38.1128   -4.2753 O   0  0  0  0  0  0  0  0  0  0  0  0
   29.6079   38.9087   -4.3177 H   0  0  0  0  0  0  0  0  0  0  0  0
   29.0164   38.0214   -1.0158 C   0  0  0  0  0  0  0  0  0  0  0  0
   29.0086   39.4989   -0.9137 C   0  0  0  0  0  0  0  0  0  0  0  0
   30.7949   40.6461   -1.9774 C   0  0  0  0  0  0  0  0  0  0  0  0
   31.9804   41.0222   -1.9969 O   0  0  0  0  0  0  0  0  0  0  0  0
   30.3913   39.9529   -0.9620 N   0  0  0  0  0  0  0  0  0  0  0  0
   31.0125   39.7348   -0.2300 H   0  0  0  0  0  0  0  0  0  0  0  0
   29.8253   40.8837   -2.9573 O   0  0  0  0  0  0  0  0  0  0  0  0
   29.6263   42.1632   -3.5646 C   0  0  0  0  0  0  0  0  0  0  0  0
   29.1455   43.1397   -2.5205 C   0  0  0  0  0  0  0  0  0  0  0  0
   29.9744   44.1732   -2.0963 C   0  0  0  0  0  0  0  0  0  0  0  0
   29.5629   45.0146   -1.0842 C   0  0  0  0  0  0  0  0  0  0  0  0
   28.3026   44.7938   -0.5300 C   0  0  0  0  0  0  0  0  0  0  0  0
   27.4494   43.7934   -0.9845 C   0  0  0  0  0  0  0  0  0  0  0  0
   27.8889   42.9703   -1.9599 C   0  0  0  0  0  0  0  0  0  0  0  0
   25.6972   37.7050   -2.1617 C   0  0  0  0  0  0  0  0  0  0  0  0
   24.6559   36.6576   -2.5320 C   0  0  0  0  0  0  0  0  0  0  0  0
   23.5962   36.4842   -1.4330 C   0  0  0  0  0  0  0  0  0  0  0  0
   24.0204   36.9003   -3.9163 C   0  0  0  0  0  0  0  0  0  0  0  0
 35 36  2  0  0  0
 35 39  1  0  0  0
 39 40  1  0  0  0
 40 41  1  0  0  0
 41 42  2  0  0  0
 41 46  1  0  0  0
 42 43  1  0  0  0
 43 44  2  0  0  0
 44 45  1  0  0  0
 45 46  2  0  0  0
 37 34  1  0  0  0
 34 33  1  0  0  0
 33 28  1  0  0  0
 28 29  1  0  0  0
 29 30  2  0  0  0
 29 31  1  0  0  0
 26  1  1  0  0  0
  1  2  1  0  0  0
  1 47  1  0  0  0
  2  3  2  0  0  0
 47 48  1  0  0  0
 48 49  1  0  0  0
 48 50  1  0  0  0
  4  6  1  0  0  0
  6  7  1  0  0  0
  6 19  1  0  0  0
  7  8  2  0  0  0
 19 20  1  0  0  0
 20 21  2  0  0  0
 20 22  1  0  0  0
 21 23  1  0  0  0
 22 24  2  0  0  0
 23 25  2  0  0  0
 24 25  1  0  0  0
 13 14  1  0  0  0
 13 18  1  0  0  0
 14 15  1  0  0  0
 15 16  1  0  0  0
 16 17  1  0  0  0
 16 12  1  0  0  0
 17 18  1  0  0  0
 12 11  1  0  0  0
 11  9  1  0  0  0
 35 37  1  0  0  0
 28 26  1  0  0  0
  2  4  1  0  0  0
  7  9  1  0  0  0
 37 38  1  0  0  0
 31 32  1  0  0  0
 26 27  1  0  0  0
  4  5  1  0  0  0
  9 10  1  0  0  0
M  END
> <minimizedAffinity>
-7.18890

$$$$
1CGL_0ED_A_1


 50 52  0  0  0  0  0  0  0  0999 V2000
   27.3737   42.4176   -1.4854 C   0  0  0  0  0  0  0  0  0  0  0  0
   27.1403   40.9183   -1.5859 C   0  0  0  0  0  0  0  0  0  0  0  0
   26.8234   40.2677   -0.5677 O   0  0  0  0  0  0  0  0  0  0  0  0
   27.2884   40.3860   -2.8242 N   0  0  0  0  0  0  0  0  0  0  0  0
   27.4373   40.9950   -3.5833 H   0  0  0  0  0  0  0  0  0  0  0  0
   27.2359   38.9248   -3.0864 C   0  0  0  0  0  0  0  0  0  0  0  0
   25.7608   38.4661   -3.0716 C   0  0  0  0  0  0  0  0  0  0  0  0
   24.8891   39.1058   -3.5910 O   0  0  0  0  0  0  0  0  0  0  0  0
   25.4733   37.4096   -2.4070 N   0  0  0  0  0  0  0  0  0  0  0  0
   26.2077   36.7945   -2.1801 H   0  0  0  0  0  0  0  0  0  0  0  0
   24.1325   37.0597   -1.9657 C   0  0  0  0  0  0  0  0  0  0  0  0
   23.9424   35.5401   -2.1369 C   0  0  0  0  0  0  0  0  0  0  0  0
   20.6646   34.0604   -4.5497 O   0  0  0  0  0  0  0  0  0  0  0  0
   21.9471   33.4709   -4.7219 C   0  0  0  0  0  0  0  0  0  0  0  0
   22.9294   33.6558   -3.5203 C   0  0  0  0  0  0  0  0  0  0  0  0
   22.8727   35.0365   -3.0411 N   0  0  0  0  0  0  0  0  0  0  0  0
   21.4969   35.5799   -2.9322 C   0  0  0  0  0  0  0  0  0  0  0  0
   20.7947   35.4241   -4.3258 C   0  0  0  0  0  0  0  0  0  0  0  0
   28.0474   38.1353   -2.0111 C   0  0  0  0  0  0  0  0  0  0  0  0
   29.1842   37.2526   -2.5446 C   0  0  0  0  0  0  0  0  0  0  0  0
   29.5246   36.0979   -1.8805 C   0  0  0  0  0  0  0  0  0  0  0  0
   29.6977   37.4990   -3.8219 C   0  0  0  0  0  0  0  0  0  0  0  0
   30.2755   35.1424   -2.5296 C   0  0  0  0  0  0  0  0  0  0  0  0
   30.4305   36.5236   -4.4639 C   0  0  0  0  0  0  0  0  0  0  0  0
   30.7034   35.3383   -3.8339 C   0  0  0  0  0  0  0  0  0  0  0  0
   28.7965   42.5981   -2.0109 N   0  0  0  0  0  0  0  0  0  0  0  0
   28.9706   43.6030   -2.0290 H   0  0  0  0  0  0  0  0  0  0  0  0
   29.9544   41.9884   -1.3321 C   0  0  0  0  0  0  0  0  0  0  0  0
   30.7872   41.1099   -2.3168 C   0  0  0  0  0  0  0  0  0  0  0  0
   31.8925   40.6192   -2.1433 O   0  0  0  0  0  0  0  0  0  0  0  0
   30.2284   40.9623   -3.5548 O   0  0  0  0  0  0  0  0  0  0  0  0
   29.3820   41.3226   -3.7328 H   0  0  0  0  0  0  0  0  0  0  0  0
   30.6704   43.2085   -0.7493 C   0  0  0  0  0  0  0  0  0  0  0  0
   30.4958   44.4103   -1.5972 C   0  0  0  0  0  0  0  0  0  0  0  0
   32.7576   44.8447   -2.1749 C   0  0  0  0  0  0  0  0  0  0  0  0
   33.6770   44.8595   -3.0127 O   0  0  0  0  0  0  0  0  0  0  0  0
   31.5905   44.4372   -2.5571 N   0  0  0  0  0  0  0  0  0  0  0  0
   31.4441   44.1486   -3.4869 H   0  0  0  0  0  0  0  0  0  0  0  0
   32.8400   45.2377   -0.8350 O   0  0  0  0  0  0  0  0  0  0  0  0
   33.8344   46.1422   -0.3464 C   0  0  0  0  0  0  0  0  0  0  0  0
   33.4270   46.6393    1.0181 C   0  0  0  0  0  0  0  0  0  0  0  0
   32.1134   47.0312    1.2552 C   0  0  0  0  0  0  0  0  0  0  0  0
   31.7634   47.5612    2.4793 C   0  0  0  0  0  0  0  0  0  0  0  0
   32.7607   47.6697    3.4476 C   0  0  0  0  0  0  0  0  0  0  0  0
   34.0640   47.2330    3.2328 C   0  0  0  0  0  0  0  0  0  0  0  0
   34.3828   46.7409    2.0170 C   0  0  0  0  0  0  0  0  0  0  0  0
   26.4318   43.2800   -2.3776 C   0  0  0  0  0  0  0  0  0  0  0  0
   26.3762   44.7946   -2.2308 C   0  0  0  0  0  0  0  0  0  0  0  0
   26.6708   45.2458   -0.7919 C   0  0  0  0  0  0  0  0  0  0  0  0
   27.2543   45.5342   -3.2611 C   0  0  0  0  0  0  0  0  0  0  0  0
 35 36  2  0  0  0
 35 39  1  0  0  0
 39 40  1  0  0  0
 40 41  1  0  0  0
 41 42  2  0  0  0
 41 46  1  0  0  0
 42 43  1  0  0  0
 43 44  2  0  0  0
 44 45  1  0  0  0
 45 46  2  0  0  0
 37 34  1  0  0  0
 34 33  1  0  0  0
 33 28  1  0  0  0
 28 29  1  0  0  0
 29 30  2  0  0  0
 29 31  1  0  0  0
 26  1  1  0  0  0
  1  2  1  0  0  0
  1 47  1  0  0  0
  2  3  2  0  0  0
 47 48  1  0  0  0
 48 49  1  0  0  0
 48 50  1  0  0  0
  4  6  1  0  0  0
  6  7  1  0  0  0
  6 19  1  0  0  0
  7  8  2  0  0  0
 19 20  1  0  0  0
 20 21  2  0  0  0
 20 22  1  0  0  0
 21 23  1  0  0  0
 22 24  2  0  0  0
 23 25  2  0  0  0
 24 25  1  0  0  0
 13 14  1  0  0  0
 13 18  1  0  0  0
 14 15  1  0  0  0
 15 16  1  0  0  0
 16 17  1  0  0  0
 16 12  1  0  0  0
 17 18  1  0  0  0
 12 11  1  0  0  0
 11  9  1  0  0  0
 35 37  1  0  0  0
 28 26  1  0  0  0
  2  4  1  0  0  0
  7  9  1  0  0  0
 37 38  1  0  0  0
 31 32  1  0  0  0
 26 27  1  0  0  0
  4  5  1  0  0  0
  9 10  1  0  0  0
M  END
> <minimizedAffinity>
-7.16870

$$$$
1CGL_0ED_A_1


 50 52  0  0  0  0  0  0  0  0999 V2000
   30.8464   43.2215   -1.4615 C   0  0  0  0  0  0  0  0  0  0  0  0
   30.5501   41.8305   -1.9999 C   0  0  0  0  0  0  0  0  0  0  0  0
   31.2936   41.3274   -2.8685 O   0  0  0  0  0  0  0  0  0  0  0  0
   29.4661   41.2160   -1.4649 N   0  0  0  0  0  0  0  0  0  0  0  0
   29.0036   41.6496   -0.7118 H   0  0  0  0  0  0  0  0  0  0  0  0
   28.9456   39.9177   -1.9648 C   0  0  0  0  0  0  0  0  0  0  0  0
   27.4398   39.8208   -1.6334 C   0  0  0  0  0  0  0  0  0  0  0  0
   27.0405   39.7161   -0.5071 O   0  0  0  0  0  0  0  0  0  0  0  0
   26.6173   39.7693   -2.6138 N   0  0  0  0  0  0  0  0  0  0  0  0
   26.9335   40.0704   -3.4961 H   0  0  0  0  0  0  0  0  0  0  0  0
   25.2467   39.2949   -2.5084 C   0  0  0  0  0  0  0  0  0  0  0  0
   25.2093   37.8115   -2.9240 C   0  0  0  0  0  0  0  0  0  0  0  0
   21.5191   35.6231   -2.3342 O   0  0  0  0  0  0  0  0  0  0  0  0
   22.4467   35.1327   -3.2939 C   0  0  0  0  0  0  0  0  0  0  0  0
   23.9189   35.6223   -3.1045 C   0  0  0  0  0  0  0  0  0  0  0  0
   23.9316   37.0558   -2.8149 N   0  0  0  0  0  0  0  0  0  0  0  0
   22.9031   37.4810   -1.8343 C   0  0  0  0  0  0  0  0  0  0  0  0
   21.5012   37.0109   -2.3566 C   0  0  0  0  0  0  0  0  0  0  0  0
   29.7098   38.7219   -1.3136 C   0  0  0  0  0  0  0  0  0  0  0  0
   30.2557   37.6668   -2.2857 C   0  0  0  0  0  0  0  0  0  0  0  0
   30.6188   36.4262   -1.8173 C   0  0  0  0  0  0  0  0  0  0  0  0
   30.1527   37.8890   -3.6626 C   0  0  0  0  0  0  0  0  0  0  0  0
   30.7638   35.3847   -2.7076 C   0  0  0  0  0  0  0  0  0  0  0  0
   30.2812   36.8312   -4.5373 C   0  0  0  0  0  0  0  0  0  0  0  0
   30.5641   35.5765   -4.0661 C   0  0  0  0  0  0  0  0  0  0  0  0
   31.8918   43.7694   -2.4311 N   0  0  0  0  0  0  0  0  0  0  0  0
   31.3807   44.0892   -3.2538 H   0  0  0  0  0  0  0  0  0  0  0  0
   32.7970   44.8692   -2.0514 C   0  0  0  0  0  0  0  0  0  0  0  0
   33.3997   44.6388   -0.6306 C   0  0  0  0  0  0  0  0  0  0  0  0
   32.9802   45.0417    0.4438 O   0  0  0  0  0  0  0  0  0  0  0  0
   34.5958   43.9786   -0.6233 O   0  0  0  0  0  0  0  0  0  0  0  0
   34.9556   43.6521   -1.4245 H   0  0  0  0  0  0  0  0  0  0  0  0
   33.7952   44.8851   -3.2108 C   0  0  0  0  0  0  0  0  0  0  0  0
   34.5128   46.1773   -3.3059 C   0  0  0  0  0  0  0  0  0  0  0  0
   36.3556   46.4413   -1.8319 C   0  0  0  0  0  0  0  0  0  0  0  0
   37.5446   46.2263   -1.5363 O   0  0  0  0  0  0  0  0  0  0  0  0
   35.9010   45.9406   -2.9350 N   0  0  0  0  0  0  0  0  0  0  0  0
   36.4872   45.4053   -3.5173 H   0  0  0  0  0  0  0  0  0  0  0  0
   35.4324   47.1902   -1.0947 O   0  0  0  0  0  0  0  0  0  0  0  0
   35.7813   47.9139    0.0886 C   0  0  0  0  0  0  0  0  0  0  0  0
   34.6315   47.8572    1.0632 C   0  0  0  0  0  0  0  0  0  0  0  0
   33.4171   48.4574    0.7466 C   0  0  0  0  0  0  0  0  0  0  0  0
   32.3952   48.4740    1.6724 C   0  0  0  0  0  0  0  0  0  0  0  0
   32.6271   47.8639    2.9045 C   0  0  0  0  0  0  0  0  0  0  0  0
   33.8216   47.2186    3.2078 C   0  0  0  0  0  0  0  0  0  0  0  0
   34.8121   47.2395    2.2910 C   0  0  0  0  0  0  0  0  0  0  0  0
   29.6311   44.1959   -1.4832 C   0  0  0  0  0  0  0  0  0  0  0  0
   29.0912   44.8110   -0.1991 C   0  0  0  0  0  0  0  0  0  0  0  0
   29.8224   46.1111    0.1695 C   0  0  0  0  0  0  0  0  0  0  0  0
   27.5594   44.9919   -0.2132 C   0  0  0  0  0  0  0  0  0  0  0  0
 35 36  2  0  0  0
 35 39  1  0  0  0
 39 40  1  0  0  0
 40 41  1  0  0  0
 41 42  2  0  0  0
 41 46  1  0  0  0
 42 43  1  0  0  0
 43 44  2  0  0  0
 44 45  1  0  0  0
 45 46  2  0  0  0
 37 34  1  0  0  0
 34 33  1  0  0  0
 33 28  1  0  0  0
 28 29  1  0  0  0
 29 30  2  0  0  0
 29 31  1  0  0  0
 26  1  1  0  0  0
  1  2  1  0  0  0
  1 47  1  0  0  0
  2  3  2  0  0  0
 47 48  1  0  0  0
 48 49  1  0  0  0
 48 50  1  0  0  0
  4  6  1  0  0  0
  6  7  1  0  0  0
  6 19  1  0  0  0
  7  8  2  0  0  0
 19 20  1  0  0  0
 20 21  2  0  0  0
 20 22  1  0  0  0
 21 23  1  0  0  0
 22 24  2  0  0  0
 23 25  2  0  0  0
 24 25  1  0  0  0
 13 14  1  0  0  0
 13 18  1  0  0  0
 14 15  1  0  0  0
 15 16  1  0  0  0
 16 17  1  0  0  0
 16 12  1  0  0  0
 17 18  1  0  0  0
 12 11  1  0  0  0
 11  9  1  0  0  0
 35 37  1  0  0  0
 28 26  1  0  0  0
  2  4  1  0  0  0
  7  9  1  0  0  0
 37 38  1  0  0  0
 31 32  1  0  0  0
 26 27  1  0  0  0
  4  5  1  0  0  0
  9 10  1  0  0  0
M  END
> <minimizedAffinity>
-7.14339

$$$$
