4DET_KMP_A_201
  RCSB PDB12061712113D
Coordinates from PDB:4DET:A:201 Model:1 without hydrogens
 21 23  0  0  0  0            999 V2000
   20.2590    0.8850   -0.9340   C 0  0  0  0  0  0  0  0  0  0  0  0
   21.3550    0.1910   -1.3570   C 0  0  0  0  0  0  0  0  0  0  0  0
   21.5750    0.0290   -2.6890   C 0  0  0  0  0  0  0  0  0  0  0  0
   20.7170    0.5640   -3.5840   C 0  0  0  0  0  0  0  0  0  0  0  0
   19.6110    1.2410   -3.2020   C 0  0  0  0  0  0  0  0  0  0  0  0
   19.3820    1.4000   -1.8780   C 0  0  0  0  0  0  0  0  0  0  0  0
   22.6680   -0.6480   -3.0960   C 0  0  0  0  0  0  0  0  0  0  0  0
   22.8520   -0.6970   -4.4320   C 0  0  0  0  0  0  0  0  0  0  0  0
   21.9180   -0.1370   -5.2940   C 0  0  0  0  0  0  0  0  0  0  0  0
   21.8840   -0.1200   -6.6620   C 0  0  0  0  0  0  0  0  0  0  0  0
   21.4210   -1.2060   -7.3660   C 0  0  0  0  0  0  0  0  0  0  0  0
   21.3530   -1.1570   -8.7130   C 0  0  0  0  0  0  0  0  0  0  0  0
   21.6760   -0.0110   -9.3520   C 0  0  0  0  0  0  0  0  0  0  0  0
   22.0720    1.0900   -8.6780   C 0  0  0  0  0  0  0  0  0  0  0  0
   22.1690    1.0410   -7.3310   C 0  0  0  0  0  0  0  0  0  0  0  0
   20.8420    0.4480   -4.8660   O 0  0  0  0  0  0  0  0  0  0  0  0
   23.4960   -1.1170   -2.3150   O 0  0  0  0  0  0  0  0  0  0  0  0
   21.6010    0.0300  -10.6570   O 0  0  0  0  0  0  0  0  0  0  0  0
   23.9360   -1.3480   -4.8070   O 0  0  0  0  0  0  0  0  0  0  0  0
   18.2890    2.0740   -1.5510   O 0  0  0  0  0  0  0  0  0  0  0  0
   22.2280   -0.3430   -0.5530   O 0  0  0  0  0  0  0  0  0  0  0  0
  1  2  2  0  0  0  0
  1  6  1  0  0  0  0
  2  3  1  0  0  0  0
  2 21  1  0  0  0  0
  3  4  2  0  0  0  0
  3  7  1  0  0  0  0
  4  5  1  0  0  0  0
  4 16  1  0  0  0  0
  5  6  2  0  0  0  0
  6 20  1  0  0  0  0
  7  8  1  0  0  0  0
  7 17  2  0  0  0  0
  8  9  2  0  0  0  0
  8 19  1  0  0  0  0
  9 10  1  0  0  0  0
  9 16  1  0  0  0  0
 10 11  2  0  0  0  0
 10 15  1  0  0  0  0
 11 12  1  0  0  0  0
 12 13  2  0  0  0  0
 13 14  1  0  0  0  0
 13 18  1  0  0  0  0
 14 15  2  0  0  0  0
A    1
C1
A    2
C2
A    3
C3
A    4
C4
A    5
C5
A    6
C6
A    7
C9
A    8
C10
A    9
C11
A   10
C14
A   11
C15
A   12
C16
A   13
C17
A   14
C18
A   15
C19
A   16
O12
A   17
O13
A   18
O24
A   19
O27
A   20
O29
A   21
O30
M  END
>  <InstanceId>
4DET_KMP_A_201

>  <ChemCompId>
KMP

>  <PdbId>
4DET

>  <ChainId>
A

>  <ResidueNumber>
201

>  <InsertionCode>


>  <Model>
1

>  <AltIds>


>  <MissingHeavyAtoms>
0

>  <ObservedFormula>
C15 O6

>  <Name>
3,5,7-TRIHYDROXY-2-(4-HYDROXYPHENYL)-4H-CHROMEN-4-ONE

>  <SystematicName>
3,5,7-trihydroxy-2-(4-hydroxyphenyl)chromen-4-one

>  <Synonyms>
KAEMPHEROL

>  <Type>
NON-POLYMER

>  <Formula>
C15 H10 O6

>  <MolecularWeight>
286.236

>  <ModifiedDate>
2011-06-04

>  <Parent>


>  <OneLetterCode>


>  <SubcomponentList>


>  <AmbiguousFlag>
N

>  <InChI>
InChI=1S/C15H10O6/c16-8-3-1-7(2-4-8)15-14(20)13(19)12-10(18)5-9(17)6-11(12)21-15/h1-6,16-18,20H

>  <InChIKey>
IYRMWMYZSQPJKC-UHFFFAOYSA-N

>  <SMILES>
c1cc(ccc1C2=C(C(=O)c3c(cc(cc3O2)O)O)O)O

$$$$
