1YQ7_RIS_A_901


 22 22  0  0  0  0  0  0  0  0999 V2000
   16.2875   34.2255   -9.0839 C   0  0  0  0  0  0  0  0  0  0  0  0
   17.1368   33.3890   -8.3244 O   0  0  0  0  0  0  0  0  0  0  0  0
   17.8597   33.9165   -7.9502 H   0  0  0  0  0  0  0  0  0  0  0  0
   18.0498   36.0509   -9.9897 O   0  0  0  0  0  0  0  0  0  0  0  0
   17.2245   34.8600  -10.5111 P   0  0  0  0  0  0  0  0  0  0  0  0
   18.0010   33.6657  -10.9813 O   0  0  0  0  0  0  0  0  0  0  0  0
   16.1748   35.1549  -11.4986 O   0  0  0  0  0  0  0  0  0  0  0  0
   18.5703   36.4267  -10.7168 H   0  0  0  0  0  0  0  0  0  0  0  0
   16.5807   35.5039  -12.3075 H   0  0  0  0  0  0  0  0  0  0  0  0
   15.8094   35.6235   -8.0407 P   0  0  0  0  0  0  0  0  0  0  0  0
   14.3334   35.5529   -7.9903 O   0  0  0  0  0  0  0  0  0  0  0  0
   16.3584   35.2266   -6.7637 O   0  0  0  0  0  0  0  0  0  0  0  0
   16.1901   37.0668   -8.3641 O   0  0  0  0  0  0  0  0  0  0  0  0
   14.0599   34.6450   -7.7861 H   0  0  0  0  0  0  0  0  0  0  0  0
   16.1071   34.3089   -6.5749 H   0  0  0  0  0  0  0  0  0  0  0  0
   15.1417   33.3873   -9.6765 C   0  0  0  0  0  0  0  0  0  0  0  0
   14.9675   31.9988   -9.0732 C   0  0  0  0  0  0  0  0  0  0  0  0
   15.4780   30.9234   -9.7860 C   0  0  0  0  0  0  0  0  0  0  0  0
   15.3435   29.6442   -9.2671 C   0  0  0  0  0  0  0  0  0  0  0  0
   14.7696   29.4662   -8.0452 C   0  0  0  0  0  0  0  0  0  0  0  0
   14.2941   30.4993   -7.3608 N   0  0  0  0  0  0  0  0  0  0  0  0
   14.3989   31.7470   -7.8350 C   0  0  0  0  0  0  0  0  0  0  0  0
  4  5  1  0  0  0
  5  6  2  0  0  0
  5  7  1  0  0  0
  5  1  1  0  0  0
  1  2  1  0  0  0
  1 10  1  0  0  0
  1 16  1  0  0  0
 10 11  1  0  0  0
 10 12  1  0  0  0
 10 13  2  0  0  0
 16 17  1  0  0  0
 17 18  2  0  0  0
 17 22  1  0  0  0
 18 19  1  0  0  0
 19 20  2  0  0  0
 20 21  1  0  0  0
 21 22  2  0  0  0
  4  8  1  0  0  0
  7  9  1  0  0  0
  2  3  1  0  0  0
 11 14  1  0  0  0
 12 15  1  0  0  0
M  END
> <minimizedAffinity>
-8.69142

$$$$
1YQ7_RIS_A_901


 22 22  0  0  0  0  0  0  0  0999 V2000
   17.3482   37.8542   -7.9288 C   0  0  0  0  0  0  0  0  0  0  0  0
   16.2034   38.3203   -8.6142 O   0  0  0  0  0  0  0  0  0  0  0  0
   16.4370   39.1013   -9.1400 H   0  0  0  0  0  0  0  0  0  0  0  0
   17.0773   40.3990   -7.0868 O   0  0  0  0  0  0  0  0  0  0  0  0
   17.8600   39.1227   -6.7261 P   0  0  0  0  0  0  0  0  0  0  0  0
   17.5424   38.4984   -5.3996 O   0  0  0  0  0  0  0  0  0  0  0  0
   19.3217   39.1671   -6.8852 O   0  0  0  0  0  0  0  0  0  0  0  0
   17.3161   41.1095   -6.4711 H   0  0  0  0  0  0  0  0  0  0  0  0
   19.6934   39.8247   -6.2766 H   0  0  0  0  0  0  0  0  0  0  0  0
   18.6727   37.6426   -9.1421 P   0  0  0  0  0  0  0  0  0  0  0  0
   19.5643   36.6308   -8.5361 O   0  0  0  0  0  0  0  0  0  0  0  0
   17.9530   37.0548  -10.2494 O   0  0  0  0  0  0  0  0  0  0  0  0
   19.5481   38.7982   -9.6230 O   0  0  0  0  0  0  0  0  0  0  0  0
   19.0354   35.8817   -8.2200 H   0  0  0  0  0  0  0  0  0  0  0  0
   17.4032   36.3239   -9.9262 H   0  0  0  0  0  0  0  0  0  0  0  0
   16.9758   36.6158   -7.0956 C   0  0  0  0  0  0  0  0  0  0  0  0
   16.0102   35.6444   -7.7637 C   0  0  0  0  0  0  0  0  0  0  0  0
   16.5396   34.7430   -8.6761 C   0  0  0  0  0  0  0  0  0  0  0  0
   15.6932   33.8393   -9.3014 C   0  0  0  0  0  0  0  0  0  0  0  0
   14.3728   33.8079   -8.9704 C   0  0  0  0  0  0  0  0  0  0  0  0
   13.8730   34.6635   -8.0873 N   0  0  0  0  0  0  0  0  0  0  0  0
   14.6589   35.5552   -7.4708 C   0  0  0  0  0  0  0  0  0  0  0  0
  4  5  1  0  0  0
  5  6  2  0  0  0
  5  7  1  0  0  0
  5  1  1  0  0  0
  1  2  1  0  0  0
  1 10  1  0  0  0
  1 16  1  0  0  0
 10 11  1  0  0  0
 10 12  1  0  0  0
 10 13  2  0  0  0
 16 17  1  0  0  0
 17 18  2  0  0  0
 17 22  1  0  0  0
 18 19  1  0  0  0
 19 20  2  0  0  0
 20 21  1  0  0  0
 21 22  2  0  0  0
  4  8  1  0  0  0
  7  9  1  0  0  0
  2  3  1  0  0  0
 11 14  1  0  0  0
 12 15  1  0  0  0
M  END
> <minimizedAffinity>
-8.26536

$$$$
1YQ7_RIS_A_901


 22 22  0  0  0  0  0  0  0  0999 V2000
   16.1853   35.5741   -8.1960 C   0  0  0  0  0  0  0  0  0  0  0  0
   15.0184   36.3119   -8.4983 O   0  0  0  0  0  0  0  0  0  0  0  0
   15.2529   37.0782   -9.0449 H   0  0  0  0  0  0  0  0  0  0  0  0
   18.6270   36.6693   -7.8846 O   0  0  0  0  0  0  0  0  0  0  0  0
   17.2704   36.6055   -7.1586 P   0  0  0  0  0  0  0  0  0  0  0  0
   16.5175   37.8973   -7.0377 O   0  0  0  0  0  0  0  0  0  0  0  0
   17.2402   35.9218   -5.8564 O   0  0  0  0  0  0  0  0  0  0  0  0
   19.2445   37.2111   -7.3688 H   0  0  0  0  0  0  0  0  0  0  0  0
   17.7976   36.4034   -5.2253 H   0  0  0  0  0  0  0  0  0  0  0  0
   17.0383   35.2239   -9.7520 P   0  0  0  0  0  0  0  0  0  0  0  0
   17.8739   34.0418   -9.4519 O   0  0  0  0  0  0  0  0  0  0  0  0
   15.9343   34.8355  -10.6005 O   0  0  0  0  0  0  0  0  0  0  0  0
   17.9253   36.2468  -10.4589 O   0  0  0  0  0  0  0  0  0  0  0  0
   17.3364   33.3719   -9.0010 H   0  0  0  0  0  0  0  0  0  0  0  0
   15.3824   34.1867  -10.1364 H   0  0  0  0  0  0  0  0  0  0  0  0
   15.8115   34.3593   -7.3293 C   0  0  0  0  0  0  0  0  0  0  0  0
   14.5325   33.6361   -7.7339 C   0  0  0  0  0  0  0  0  0  0  0  0
   13.3347   34.1293   -7.2368 C   0  0  0  0  0  0  0  0  0  0  0  0
   12.1486   33.5011   -7.5866 C   0  0  0  0  0  0  0  0  0  0  0  0
   12.1684   32.4526   -8.4550 C   0  0  0  0  0  0  0  0  0  0  0  0
   13.3156   31.9922   -8.9385 N   0  0  0  0  0  0  0  0  0  0  0  0
   14.4802   32.5685   -8.6155 C   0  0  0  0  0  0  0  0  0  0  0  0
  4  5  1  0  0  0
  5  6  2  0  0  0
  5  7  1  0  0  0
  5  1  1  0  0  0
  1  2  1  0  0  0
  1 10  1  0  0  0
  1 16  1  0  0  0
 10 11  1  0  0  0
 10 12  1  0  0  0
 10 13  2  0  0  0
 16 17  1  0  0  0
 17 18  2  0  0  0
 17 22  1  0  0  0
 18 19  1  0  0  0
 19 20  2  0  0  0
 20 21  1  0  0  0
 21 22  2  0  0  0
  4  8  1  0  0  0
  7  9  1  0  0  0
  2  3  1  0  0  0
 11 14  1  0  0  0
 12 15  1  0  0  0
M  END
> <minimizedAffinity>
-8.07694

$$$$
1YQ7_RIS_A_901


 22 22  0  0  0  0  0  0  0  0999 V2000
   15.4092   32.9364   -8.7255 C   0  0  0  0  0  0  0  0  0  0  0  0
   15.7126   33.0799   -7.3525 O   0  0  0  0  0  0  0  0  0  0  0  0
   16.6748   33.0644   -7.2307 H   0  0  0  0  0  0  0  0  0  0  0  0
   17.1317   31.5089  -10.2267 O   0  0  0  0  0  0  0  0  0  0  0  0
   15.9479   31.2832   -9.2681 P   0  0  0  0  0  0  0  0  0  0  0  0
   16.2568   30.5742   -7.9827 O   0  0  0  0  0  0  0  0  0  0  0  0
   14.7243   30.7019   -9.8416 O   0  0  0  0  0  0  0  0  0  0  0  0
   17.4571   30.6527  -10.5459 H   0  0  0  0  0  0  0  0  0  0  0  0
   14.9119   29.8064  -10.1637 H   0  0  0  0  0  0  0  0  0  0  0  0
   16.3574   34.1790   -9.6354 P   0  0  0  0  0  0  0  0  0  0  0  0
   15.8947   35.4690   -9.0807 O   0  0  0  0  0  0  0  0  0  0  0  0
   17.7001   33.9060   -9.1748 O   0  0  0  0  0  0  0  0  0  0  0  0
   16.3248   34.2948  -11.1580 O   0  0  0  0  0  0  0  0  0  0  0  0
   15.9044   35.4264   -8.1117 H   0  0  0  0  0  0  0  0  0  0  0  0
   17.7020   33.8358   -8.2073 H   0  0  0  0  0  0  0  0  0  0  0  0
   13.8830   32.9612   -8.9168 C   0  0  0  0  0  0  0  0  0  0  0  0
   13.0984   33.6751   -7.8226 C   0  0  0  0  0  0  0  0  0  0  0  0
   12.2313   32.9106   -7.0553 C   0  0  0  0  0  0  0  0  0  0  0  0
   11.5033   33.5234   -6.0462 C   0  0  0  0  0  0  0  0  0  0  0  0
   11.6913   34.8461   -5.7834 C   0  0  0  0  0  0  0  0  0  0  0  0
   12.5316   35.5709   -6.5116 N   0  0  0  0  0  0  0  0  0  0  0  0
   13.2442   35.0145   -7.4991 C   0  0  0  0  0  0  0  0  0  0  0  0
  4  5  1  0  0  0
  5  6  2  0  0  0
  5  7  1  0  0  0
  5  1  1  0  0  0
  1  2  1  0  0  0
  1 10  1  0  0  0
  1 16  1  0  0  0
 10 11  1  0  0  0
 10 12  1  0  0  0
 10 13  2  0  0  0
 16 17  1  0  0  0
 17 18  2  0  0  0
 17 22  1  0  0  0
 18 19  1  0  0  0
 19 20  2  0  0  0
 20 21  1  0  0  0
 21 22  2  0  0  0
  4  8  1  0  0  0
  7  9  1  0  0  0
  2  3  1  0  0  0
 11 14  1  0  0  0
 12 15  1  0  0  0
M  END
> <minimizedAffinity>
-8.02995

$$$$
1YQ7_RIS_A_901


 22 22  0  0  0  0  0  0  0  0999 V2000
   15.1936   33.6450   -8.3792 C   0  0  0  0  0  0  0  0  0  0  0  0
   13.9236   33.4478   -8.9674 O   0  0  0  0  0  0  0  0  0  0  0  0
   13.8420   34.0073   -9.7555 H   0  0  0  0  0  0  0  0  0  0  0  0
   13.8841   35.7235   -7.2732 O   0  0  0  0  0  0  0  0  0  0  0  0
   15.2933   35.3613   -7.7775 P   0  0  0  0  0  0  0  0  0  0  0  0
   16.3786   35.3091   -6.7433 O   0  0  0  0  0  0  0  0  0  0  0  0
   15.7954   36.0992   -8.9469 O   0  0  0  0  0  0  0  0  0  0  0  0
   13.8842   36.6345   -6.9399 H   0  0  0  0  0  0  0  0  0  0  0  0
   15.8838   37.0388   -8.7227 H   0  0  0  0  0  0  0  0  0  0  0  0
   16.4426   33.4120   -9.6663 P   0  0  0  0  0  0  0  0  0  0  0  0
   15.9324   34.1905  -10.8150 O   0  0  0  0  0  0  0  0  0  0  0  0
   17.5793   34.0910   -9.0861 O   0  0  0  0  0  0  0  0  0  0  0  0
   16.8481   32.0349  -10.1877 O   0  0  0  0  0  0  0  0  0  0  0  0
   15.6659   35.0734  -10.5143 H   0  0  0  0  0  0  0  0  0  0  0  0
   17.3039   34.9623   -8.7607 H   0  0  0  0  0  0  0  0  0  0  0  0
   15.3212   32.7570   -7.1295 C   0  0  0  0  0  0  0  0  0  0  0  0
   15.2001   31.2582   -7.3772 C   0  0  0  0  0  0  0  0  0  0  0  0
   15.8826   30.4108   -6.5163 C   0  0  0  0  0  0  0  0  0  0  0  0
   15.7929   29.0398   -6.7062 C   0  0  0  0  0  0  0  0  0  0  0  0
   14.9942   28.5437   -7.6911 C   0  0  0  0  0  0  0  0  0  0  0  0
   14.3328   29.3578   -8.5043 N   0  0  0  0  0  0  0  0  0  0  0  0
   14.4029   30.6866   -8.3558 C   0  0  0  0  0  0  0  0  0  0  0  0
  4  5  1  0  0  0
  5  6  2  0  0  0
  5  7  1  0  0  0
  5  1  1  0  0  0
  1  2  1  0  0  0
  1 10  1  0  0  0
  1 16  1  0  0  0
 10 11  1  0  0  0
 10 12  1  0  0  0
 10 13  2  0  0  0
 16 17  1  0  0  0
 17 18  2  0  0  0
 17 22  1  0  0  0
 18 19  1  0  0  0
 19 20  2  0  0  0
 20 21  1  0  0  0
 21 22  2  0  0  0
  4  8  1  0  0  0
  7  9  1  0  0  0
  2  3  1  0  0  0
 11 14  1  0  0  0
 12 15  1  0  0  0
M  END
> <minimizedAffinity>
-7.92061

$$$$
1YQ7_RIS_A_901


 22 22  0  0  0  0  0  0  0  0999 V2000
   15.7634   33.0602   -8.8354 C   0  0  0  0  0  0  0  0  0  0  0  0
   16.6128   33.3632   -7.7471 O   0  0  0  0  0  0  0  0  0  0  0  0
   16.4892   32.7033   -7.0470 H   0  0  0  0  0  0  0  0  0  0  0  0
   13.5611   31.8297   -7.8901 O   0  0  0  0  0  0  0  0  0  0  0  0
   14.0352   33.2395   -8.2890 P   0  0  0  0  0  0  0  0  0  0  0  0
   14.1183   34.2520   -7.1853 O   0  0  0  0  0  0  0  0  0  0  0  0
   13.3786   33.8629   -9.4484 O   0  0  0  0  0  0  0  0  0  0  0  0
   12.6397   31.8714   -7.5896 H   0  0  0  0  0  0  0  0  0  0  0  0
   12.4388   34.0013   -9.2520 H   0  0  0  0  0  0  0  0  0  0  0  0
   16.0464   31.3341   -9.2954 P   0  0  0  0  0  0  0  0  0  0  0  0
   17.2100   31.3854  -10.2061 O   0  0  0  0  0  0  0  0  0  0  0  0
   16.4461   30.7639   -8.0286 O   0  0  0  0  0  0  0  0  0  0  0  0
   14.9788   30.4685   -9.9613 O   0  0  0  0  0  0  0  0  0  0  0  0
   17.9075   31.9302   -9.8092 H   0  0  0  0  0  0  0  0  0  0  0  0
   17.1234   31.3256   -7.6204 H   0  0  0  0  0  0  0  0  0  0  0  0
   15.9609   34.1078   -9.9445 C   0  0  0  0  0  0  0  0  0  0  0  0
   17.0226   35.1645   -9.6644 C   0  0  0  0  0  0  0  0  0  0  0  0
   16.7941   36.0363   -8.6095 C   0  0  0  0  0  0  0  0  0  0  0  0
   17.7398   37.0088   -8.3200 C   0  0  0  0  0  0  0  0  0  0  0  0
   18.8999   37.0578   -9.0312 C   0  0  0  0  0  0  0  0  0  0  0  0
   19.1200   36.2135  -10.0314 N   0  0  0  0  0  0  0  0  0  0  0  0
   18.2255   35.2677  -10.3443 C   0  0  0  0  0  0  0  0  0  0  0  0
  4  5  1  0  0  0
  5  6  2  0  0  0
  5  7  1  0  0  0
  5  1  1  0  0  0
  1  2  1  0  0  0
  1 10  1  0  0  0
  1 16  1  0  0  0
 10 11  1  0  0  0
 10 12  1  0  0  0
 10 13  2  0  0  0
 16 17  1  0  0  0
 17 18  2  0  0  0
 17 22  1  0  0  0
 18 19  1  0  0  0
 19 20  2  0  0  0
 20 21  1  0  0  0
 21 22  2  0  0  0
  4  8  1  0  0  0
  7  9  1  0  0  0
  2  3  1  0  0  0
 11 14  1  0  0  0
 12 15  1  0  0  0
M  END
> <minimizedAffinity>
-7.76125

$$$$
1YQ7_RIS_A_901


 22 22  0  0  0  0  0  0  0  0999 V2000
   16.1334   34.4127   -8.7076 C   0  0  0  0  0  0  0  0  0  0  0  0
   16.3740   33.3306   -7.8308 O   0  0  0  0  0  0  0  0  0  0  0  0
   17.2910   33.3667   -7.5167 H   0  0  0  0  0  0  0  0  0  0  0  0
   18.5689   34.7254   -9.8162 O   0  0  0  0  0  0  0  0  0  0  0  0
   17.1706   34.1992  -10.1896 P   0  0  0  0  0  0  0  0  0  0  0  0
   17.0670   32.7318  -10.4833 O   0  0  0  0  0  0  0  0  0  0  0  0
   16.4328   34.9378  -11.2260 O   0  0  0  0  0  0  0  0  0  0  0  0
   19.1629   34.6332  -10.5775 H   0  0  0  0  0  0  0  0  0  0  0  0
   16.9134   34.8822  -12.0667 H   0  0  0  0  0  0  0  0  0  0  0  0
   16.6378   35.9314   -7.8649 P   0  0  0  0  0  0  0  0  0  0  0  0
   15.6020   36.9176   -8.2396 O   0  0  0  0  0  0  0  0  0  0  0  0
   16.4722   35.5562   -6.4788 O   0  0  0  0  0  0  0  0  0  0  0  0
   17.9991   36.5880   -8.0849 O   0  0  0  0  0  0  0  0  0  0  0  0
   14.7230   36.5283   -8.1103 H   0  0  0  0  0  0  0  0  0  0  0  0
   15.6037   35.1415   -6.3576 H   0  0  0  0  0  0  0  0  0  0  0  0
   14.6788   34.3537   -9.2048 C   0  0  0  0  0  0  0  0  0  0  0  0
   13.6541   33.8928   -8.1752 C   0  0  0  0  0  0  0  0  0  0  0  0
   13.0937   34.8604   -7.3537 C   0  0  0  0  0  0  0  0  0  0  0  0
   12.1533   34.4808   -6.4074 C   0  0  0  0  0  0  0  0  0  0  0  0
   11.7502   33.1821   -6.3367 C   0  0  0  0  0  0  0  0  0  0  0  0
   12.2796   32.2619   -7.1334 N   0  0  0  0  0  0  0  0  0  0  0  0
   13.1959   32.5909   -8.0525 C   0  0  0  0  0  0  0  0  0  0  0  0
  4  5  1  0  0  0
  5  6  2  0  0  0
  5  7  1  0  0  0
  5  1  1  0  0  0
  1  2  1  0  0  0
  1 10  1  0  0  0
  1 16  1  0  0  0
 10 11  1  0  0  0
 10 12  1  0  0  0
 10 13  2  0  0  0
 16 17  1  0  0  0
 17 18  2  0  0  0
 17 22  1  0  0  0
 18 19  1  0  0  0
 19 20  2  0  0  0
 20 21  1  0  0  0
 21 22  2  0  0  0
  4  8  1  0  0  0
  7  9  1  0  0  0
  2  3  1  0  0  0
 11 14  1  0  0  0
 12 15  1  0  0  0
M  END
> <minimizedAffinity>
-7.75176

$$$$
1YQ7_RIS_A_901


 22 22  0  0  0  0  0  0  0  0999 V2000
   16.2239   35.4533   -8.4442 C   0  0  0  0  0  0  0  0  0  0  0  0
   14.9115   35.8749   -8.7562 O   0  0  0  0  0  0  0  0  0  0  0  0
   14.9500   36.6169   -9.3799 H   0  0  0  0  0  0  0  0  0  0  0  0
   16.4992   38.1138   -8.1218 O   0  0  0  0  0  0  0  0  0  0  0  0
   17.0694   36.8001   -7.5560 P   0  0  0  0  0  0  0  0  0  0  0  0
   16.7732   36.5110   -6.1141 O   0  0  0  0  0  0  0  0  0  0  0  0
   18.4930   36.5263   -7.8059 O   0  0  0  0  0  0  0  0  0  0  0  0
   16.9203   38.8667   -7.6782 H   0  0  0  0  0  0  0  0  0  0  0  0
   19.0340   37.2008   -7.3662 H   0  0  0  0  0  0  0  0  0  0  0  0
   17.0946   35.1538  -10.0009 P   0  0  0  0  0  0  0  0  0  0  0  0
   17.6522   36.4733  -10.3666 O   0  0  0  0  0  0  0  0  0  0  0  0
   18.1609   34.2795   -9.5669 O   0  0  0  0  0  0  0  0  0  0  0  0
   16.4051   34.5863  -11.2399 O   0  0  0  0  0  0  0  0  0  0  0  0
   18.0982   36.8605   -9.5971 H   0  0  0  0  0  0  0  0  0  0  0  0
   18.5869   34.6548   -8.7805 H   0  0  0  0  0  0  0  0  0  0  0  0
   16.1609   34.2766   -7.4551 C   0  0  0  0  0  0  0  0  0  0  0  0
   15.3370   33.0797   -7.9145 C   0  0  0  0  0  0  0  0  0  0  0  0
   16.0174   32.0231   -8.5023 C   0  0  0  0  0  0  0  0  0  0  0  0
   15.3028   30.9134   -8.9289 C   0  0  0  0  0  0  0  0  0  0  0  0
   13.9600   30.8491   -8.7130 C   0  0  0  0  0  0  0  0  0  0  0  0
   13.3150   31.8568   -8.1385 N   0  0  0  0  0  0  0  0  0  0  0  0
   13.9712   32.9471   -7.7221 C   0  0  0  0  0  0  0  0  0  0  0  0
  4  5  1  0  0  0
  5  6  2  0  0  0
  5  7  1  0  0  0
  5  1  1  0  0  0
  1  2  1  0  0  0
  1 10  1  0  0  0
  1 16  1  0  0  0
 10 11  1  0  0  0
 10 12  1  0  0  0
 10 13  2  0  0  0
 16 17  1  0  0  0
 17 18  2  0  0  0
 17 22  1  0  0  0
 18 19  1  0  0  0
 19 20  2  0  0  0
 20 21  1  0  0  0
 21 22  2  0  0  0
  4  8  1  0  0  0
  7  9  1  0  0  0
  2  3  1  0  0  0
 11 14  1  0  0  0
 12 15  1  0  0  0
M  END
> <minimizedAffinity>
-7.59800

$$$$
1YQ7_RIS_A_901


 22 22  0  0  0  0  0  0  0  0999 V2000
   15.0896   34.4808   -7.8473 C   0  0  0  0  0  0  0  0  0  0  0  0
   15.6285   34.0074   -6.6295 O   0  0  0  0  0  0  0  0  0  0  0  0
   15.4583   33.0559   -6.5487 H   0  0  0  0  0  0  0  0  0  0  0  0
   12.8078   34.1662   -9.2447 O   0  0  0  0  0  0  0  0  0  0  0  0
   13.2775   34.3081   -7.7850 P   0  0  0  0  0  0  0  0  0  0  0  0
   13.0679   33.1164   -6.8983 O   0  0  0  0  0  0  0  0  0  0  0  0
   12.8493   35.5136   -7.0588 O   0  0  0  0  0  0  0  0  0  0  0  0
   11.8428   34.0706   -9.2660 H   0  0  0  0  0  0  0  0  0  0  0  0
   11.8831   35.5134   -6.9731 H   0  0  0  0  0  0  0  0  0  0  0  0
   15.7231   33.4326   -9.1781 P   0  0  0  0  0  0  0  0  0  0  0  0
   17.1404   33.2078   -8.8222 O   0  0  0  0  0  0  0  0  0  0  0  0
   14.9704   32.2169   -8.9657 O   0  0  0  0  0  0  0  0  0  0  0  0
   15.6776   33.8427  -10.6487 O   0  0  0  0  0  0  0  0  0  0  0  0
   17.2020   32.9451   -7.8905 H   0  0  0  0  0  0  0  0  0  0  0  0
   15.0101   31.9717   -8.0280 H   0  0  0  0  0  0  0  0  0  0  0  0
   15.3605   35.9899   -7.9735 C   0  0  0  0  0  0  0  0  0  0  0  0
   16.8202   36.4058   -7.8367 C   0  0  0  0  0  0  0  0  0  0  0  0
   17.5408   36.6036   -9.0058 C   0  0  0  0  0  0  0  0  0  0  0  0
   18.8710   36.9877   -8.9225 C   0  0  0  0  0  0  0  0  0  0  0  0
   19.4327   37.2225   -7.7046 C   0  0  0  0  0  0  0  0  0  0  0  0
   18.7359   37.0446   -6.5891 N   0  0  0  0  0  0  0  0  0  0  0  0
   17.4523   36.6660   -6.6314 C   0  0  0  0  0  0  0  0  0  0  0  0
  4  5  1  0  0  0
  5  6  2  0  0  0
  5  7  1  0  0  0
  5  1  1  0  0  0
  1  2  1  0  0  0
  1 10  1  0  0  0
  1 16  1  0  0  0
 10 11  1  0  0  0
 10 12  1  0  0  0
 10 13  2  0  0  0
 16 17  1  0  0  0
 17 18  2  0  0  0
 17 22  1  0  0  0
 18 19  1  0  0  0
 19 20  2  0  0  0
 20 21  1  0  0  0
 21 22  2  0  0  0
  4  8  1  0  0  0
  7  9  1  0  0  0
  2  3  1  0  0  0
 11 14  1  0  0  0
 12 15  1  0  0  0
M  END
> <minimizedAffinity>
-7.46534

$$$$
1YQ7_RIS_A_901


 22 22  0  0  0  0  0  0  0  0999 V2000
   16.3887   33.9834   -8.9542 C   0  0  0  0  0  0  0  0  0  0  0  0
   17.1923   33.1576   -8.1357 O   0  0  0  0  0  0  0  0  0  0  0  0
   17.8828   33.6933   -7.7149 H   0  0  0  0  0  0  0  0  0  0  0  0
   18.0339   33.3922  -11.0041 O   0  0  0  0  0  0  0  0  0  0  0  0
   17.4147   34.6231  -10.3165 P   0  0  0  0  0  0  0  0  0  0  0  0
   16.4499   35.4291  -11.1350 O   0  0  0  0  0  0  0  0  0  0  0  0
   18.3381   35.5454   -9.6379 O   0  0  0  0  0  0  0  0  0  0  0  0
   18.5933   33.6813  -11.7419 H   0  0  0  0  0  0  0  0  0  0  0  0
   18.9354   35.9433  -10.2905 H   0  0  0  0  0  0  0  0  0  0  0  0
   15.8269   35.3796   -7.9511 P   0  0  0  0  0  0  0  0  0  0  0  0
   16.4952   35.1839   -6.6469 O   0  0  0  0  0  0  0  0  0  0  0  0
   16.4345   36.4920   -8.6460 O   0  0  0  0  0  0  0  0  0  0  0  0
   14.3513   35.6602   -7.6744 O   0  0  0  0  0  0  0  0  0  0  0  0
   17.4373   35.0031   -6.7902 H   0  0  0  0  0  0  0  0  0  0  0  0
   17.3699   36.2968   -8.8132 H   0  0  0  0  0  0  0  0  0  0  0  0
   15.2942   33.1322   -9.6207 C   0  0  0  0  0  0  0  0  0  0  0  0
   15.0722   31.7552   -9.0067 C   0  0  0  0  0  0  0  0  0  0  0  0
   15.4825   30.6532   -9.7431 C   0  0  0  0  0  0  0  0  0  0  0  0
   15.3019   29.3831   -9.2156 C   0  0  0  0  0  0  0  0  0  0  0  0
   14.7830   29.2369   -7.9653 C   0  0  0  0  0  0  0  0  0  0  0  0
   14.4038   30.2947   -7.2589 N   0  0  0  0  0  0  0  0  0  0  0  0
   14.5552   31.5350   -7.7401 C   0  0  0  0  0  0  0  0  0  0  0  0
  4  5  1  0  0  0
  5  6  2  0  0  0
  5  7  1  0  0  0
  5  1  1  0  0  0
  1  2  1  0  0  0
  1 10  1  0  0  0
  1 16  1  0  0  0
 10 11  1  0  0  0
 10 12  1  0  0  0
 10 13  2  0  0  0
 16 17  1  0  0  0
 17 18  2  0  0  0
 17 22  1  0  0  0
 18 19  1  0  0  0
 19 20  2  0  0  0
 20 21  1  0  0  0
 21 22  2  0  0  0
  4  8  1  0  0  0
  7  9  1  0  0  0
  2  3  1  0  0  0
 11 14  1  0  0  0
 12 15  1  0  0  0
M  END
> <minimizedAffinity>
-7.39582

$$$$
