1YQ7_RIS_A_901
  RCSB PDB12061704483D
Coordinates from PDB:1YQ7:A:901 Model:1 without hydrogens
 17 17  0  0  0  0            999 V2000
   17.1130   35.6480   -7.1730   O 0  0  0  0  0  0  0  0  0  0  0  0
   15.6220   35.7510   -7.5440   P 0  0  0  0  0  0  0  0  0  0  0  0
   15.2410   36.8680   -8.4700   O 0  0  0  0  0  0  0  0  0  0  0  0
   14.6530   35.7080   -6.4380   O 0  0  0  0  0  0  0  0  0  0  0  0
   15.2300   34.2510   -8.5000   C 0  0  0  0  0  0  0  0  0  0  0  0
   13.9550   34.4130   -9.0880   O 0  0  0  0  0  0  0  0  0  0  0  0
   16.4390   34.0860   -9.8350   P 0  0  0  0  0  0  0  0  0  0  0  0
   16.5730   35.4550  -10.3770   O 0  0  0  0  0  0  0  0  0  0  0  0
   17.6320   33.7370   -9.0970   O 0  0  0  0  0  0  0  0  0  0  0  0
   16.2430   33.1400  -11.0180   O 0  0  0  0  0  0  0  0  0  0  0  0
   15.1780   33.1050   -7.4750   C 0  0  0  0  0  0  0  0  0  0  0  0
   15.0330   31.7070   -8.0640   C 0  0  0  0  0  0  0  0  0  0  0  0
   15.6350   30.6600   -7.3810   C 0  0  0  0  0  0  0  0  0  0  0  0
   15.5210   29.3720   -7.8830   C 0  0  0  0  0  0  0  0  0  0  0  0
   14.7750   29.1440   -8.9990   C 0  0  0  0  0  0  0  0  0  0  0  0
   14.1900   30.1470   -9.6420   N 0  0  0  0  0  0  0  0  0  0  0  0
   14.2860   31.4040   -9.1910   C 0  0  0  0  0  0  0  0  0  0  0  0
  1  2  1  0  0  0  0
  2  3  2  0  0  0  0
  2  4  1  0  0  0  0
  2  5  1  0  0  0  0
  5  6  1  0  0  0  0
  5  7  1  0  0  0  0
  5 11  1  0  0  0  0
  7  8  1  0  0  0  0
  7  9  1  0  0  0  0
  7 10  2  0  0  0  0
 11 12  1  0  0  0  0
 12 13  2  0  0  0  0
 12 17  1  0  0  0  0
 13 14  1  0  0  0  0
 14 15  2  0  0  0  0
 15 16  1  0  0  0  0
 16 17  2  0  0  0  0
A    1
O12
A    2
P9
A    3
O11
A    4
O10
A    5
C8
A    6
O13
A    7
P14
A    8
O16
A    9
O15
A   10
O17
A   11
C7
A   12
C2
A   13
C1
A   14
C6
A   15
C5
A   16
N4
A   17
C3
M  END
>  <InstanceId>
1YQ7_RIS_A_901

>  <ChemCompId>
RIS

>  <PdbId>
1YQ7

>  <ChainId>
A

>  <ResidueNumber>
901

>  <InsertionCode>


>  <Model>
1

>  <AltIds>


>  <MissingHeavyAtoms>
0

>  <ObservedFormula>
C7 N O7 P2

>  <Name>
1-HYDROXY-2-(3-PYRIDINYL)ETHYLIDENE BIS-PHOSPHONIC ACID

>  <SystematicName>
(1-hydroxy-1-phosphono-2-pyridin-3-yl-ethyl)phosphonic acid

>  <Synonyms>
Risedronate

>  <Type>
NON-POLYMER

>  <Formula>
C7 H11 N O7 P2

>  <MolecularWeight>
283.112

>  <ModifiedDate>
2017-09-22

>  <Parent>


>  <OneLetterCode>


>  <SubcomponentList>


>  <AmbiguousFlag>
N

>  <InChI>
InChI=1S/C7H11NO7P2/c9-7(16(10,11)12,17(13,14)15)4-6-2-1-3-8-5-6/h1-3,5,9H,4H2,(H2,10,11,12)(H2,13,14,15)

>  <InChIKey>
IIDJRNMFWXDHID-UHFFFAOYSA-N

>  <SMILES>
c1cc(cnc1)CC(O)(P(=O)(O)O)P(=O)(O)O

$$$$
