3BRN_SRO_A_158
  RCSB PDB12061708033D
Coordinates from PDB:3BRN:A:158 Model:1 without hydrogens
 13 14  0  0  0  0            999 V2000
   -8.1260   31.7850  -10.8480   O 0  0  0  0  0  0  0  0  0  0  0  0
   -8.0610   33.1320  -10.5860   C 0  0  0  0  0  0  0  0  0  0  0  0
   -7.0470   33.5720   -9.7390   C 0  0  0  0  0  0  0  0  0  0  0  0
   -6.8510   34.9390   -9.5270   C 0  0  0  0  0  0  0  0  0  0  0  0
   -7.7470   35.8060  -10.1340   C 0  0  0  0  0  0  0  0  0  0  0  0
   -7.9200   37.1520  -10.1210   N 0  0  0  0  0  0  0  0  0  0  0  0
   -8.9580   37.4780  -10.9270   C 0  0  0  0  0  0  0  0  0  0  0  0
   -9.4980   36.3040  -11.4540   C 0  0  0  0  0  0  0  0  0  0  0  0
   -8.7390   35.2600  -10.9310   C 0  0  0  0  0  0  0  0  0  0  0  0
   -8.8800   33.9750  -11.1400   C 0  0  0  0  0  0  0  0  0  0  0  0
  -10.6950   36.2090  -12.3680   C 0  0  0  0  0  0  0  0  0  0  0  0
  -11.8650   35.5100  -11.6480   C 0  0  0  0  0  0  0  0  0  0  0  0
  -12.9430   35.2870  -12.6170   N 0  0  0  0  0  0  0  0  0  0  0  0
  1  2  1  0  0  0  0
  2 10  2  0  0  0  0
  2  3  1  0  0  0  0
  3  4  2  0  0  0  0
  4  5  1  0  0  0  0
  5  6  1  0  0  0  0
  5  9  2  0  0  0  0
  6  7  1  0  0  0  0
  7  8  2  0  0  0  0
  8 11  1  0  0  0  0
  8  9  1  0  0  0  0
  9 10  1  0  0  0  0
 11 12  1  0  0  0  0
 12 13  1  0  0  0  0
A    1
OH
A    2
CZ3
A    3
CH2
A    4
CZ2
A    5
CE2
A    6
NE1
A    7
CD1
A    8
CG
A    9
CD2
A   10
CE3
A   11
CB
A   12
CA
A   13
NZ
M  END
>  <InstanceId>
3BRN_SRO_A_158

>  <ChemCompId>
SRO

>  <PdbId>
3BRN

>  <ChainId>
A

>  <ResidueNumber>
158

>  <InsertionCode>


>  <Model>
1

>  <AltIds>


>  <MissingHeavyAtoms>
0

>  <ObservedFormula>
C10 N2 O

>  <Name>
SEROTONIN

>  <SystematicName>
3-(2-aminoethyl)-1H-indol-5-ol

>  <Synonyms>
3-(2-AMINOETHYL)-1H-INDOL-5-OL

>  <Type>
NON-POLYMER

>  <Formula>
C10 H12 N2 O

>  <MolecularWeight>
176.215

>  <ModifiedDate>
2011-06-04

>  <Parent>


>  <OneLetterCode>


>  <SubcomponentList>


>  <AmbiguousFlag>


>  <InChI>
InChI=1S/C10H12N2O/c11-4-3-7-6-12-10-2-1-8(13)5-9(7)10/h1-2,5-6,12-13H,3-4,11H2

>  <InChIKey>
QZAYGJVTTNCVMB-UHFFFAOYSA-N

>  <SMILES>
c1cc2c(cc1O)c(c[nH]2)CCN

$$$$
