3BRN_SRO_A_158


 17 18  0  0  0  0  0  0  0  0999 V2000
  -12.0416   35.8024  -11.3587 O   0  0  0  0  0  0  0  0  0  0  0  0
  -11.4322   34.6461  -11.7819 C   0  0  0  0  0  0  0  0  0  0  0  0
  -11.9310   34.0434  -12.9339 C   0  0  0  0  0  0  0  0  0  0  0  0
  -11.2833   32.9348  -13.4849 C   0  0  0  0  0  0  0  0  0  0  0  0
  -10.1875   32.4378  -12.7954 C   0  0  0  0  0  0  0  0  0  0  0  0
   -9.3593   31.3771  -12.9705 N   0  0  0  0  0  0  0  0  0  0  0  0
   -8.4230   31.3737  -11.9923 C   0  0  0  0  0  0  0  0  0  0  0  0
   -8.6709   32.4468  -11.1352 C   0  0  0  0  0  0  0  0  0  0  0  0
   -9.7949   33.0948  -11.6415 C   0  0  0  0  0  0  0  0  0  0  0  0
  -10.4005   34.1534  -11.1646 C   0  0  0  0  0  0  0  0  0  0  0  0
  -11.7354   36.2382  -10.5879 H   0  0  0  0  0  0  0  0  0  0  0  0
   -9.4283   30.7141  -13.6949 H   0  0  0  0  0  0  0  0  0  0  0  0
   -7.8907   32.7870   -9.8892 C   0  0  0  0  0  0  0  0  0  0  0  0
   -6.7872   33.8138  -10.2114 C   0  0  0  0  0  0  0  0  0  0  0  0
   -7.1605   35.1019   -9.6180 N   0  0  0  0  0  0  0  0  0  0  0  0
   -8.0527   35.4089  -10.0054 H   0  0  0  0  0  0  0  0  0  0  0  0
   -6.4420   35.7945   -9.8289 H   0  0  0  0  0  0  0  0  0  0  0  0
  1  2  1  0  0  0
  2 10  2  0  0  0
  2  3  1  0  0  0
  3  4  2  0  0  0
  4  5  1  0  0  0
  5  6  1  0  0  0
  5  9  2  0  0  0
  6  7  1  0  0  0
  7  8  2  0  0  0
  8 13  1  0  0  0
  8  9  1  0  0  0
  9 10  1  0  0  0
 13 14  1  0  0  0
 14 15  1  0  0  0
  1 11  1  0  0  0
  6 12  1  0  0  0
 15 16  1  0  0  0
 15 17  1  0  0  0
M  END
> <minimizedAffinity>
-7.74180

$$$$
3BRN_SRO_A_158


 17 18  0  0  0  0  0  0  0  0999 V2000
  -12.5405   35.3466  -12.5793 O   0  0  0  0  0  0  0  0  0  0  0  0
  -11.2283   35.4237  -12.1799 C   0  0  0  0  0  0  0  0  0  0  0  0
  -10.6359   36.6839  -12.1647 C   0  0  0  0  0  0  0  0  0  0  0  0
   -9.3451   36.8486  -11.6560 C   0  0  0  0  0  0  0  0  0  0  0  0
   -8.6781   35.7039  -11.2465 C   0  0  0  0  0  0  0  0  0  0  0  0
   -7.4330   35.4524  -10.7687 N   0  0  0  0  0  0  0  0  0  0  0  0
   -7.3141   34.1301  -10.5024 C   0  0  0  0  0  0  0  0  0  0  0  0
   -8.5082   33.4970  -10.8499 C   0  0  0  0  0  0  0  0  0  0  0  0
   -9.3490   34.4958  -11.3347 C   0  0  0  0  0  0  0  0  0  0  0  0
  -10.5726   34.3738  -11.7848 C   0  0  0  0  0  0  0  0  0  0  0  0
  -12.9749   34.5168  -12.6031 H   0  0  0  0  0  0  0  0  0  0  0  0
   -6.7270   36.1257  -10.6364 H   0  0  0  0  0  0  0  0  0  0  0  0
   -8.7897   32.0176  -10.7542 C   0  0  0  0  0  0  0  0  0  0  0  0
   -8.4325   31.3171  -12.0800 C   0  0  0  0  0  0  0  0  0  0  0  0
   -9.6392   31.2464  -12.9104 N   0  0  0  0  0  0  0  0  0  0  0  0
  -10.3613   30.7215  -12.4169 H   0  0  0  0  0  0  0  0  0  0  0  0
   -9.4198   30.7785  -13.7898 H   0  0  0  0  0  0  0  0  0  0  0  0
  1  2  1  0  0  0
  2 10  2  0  0  0
  2  3  1  0  0  0
  3  4  2  0  0  0
  4  5  1  0  0  0
  5  6  1  0  0  0
  5  9  2  0  0  0
  6  7  1  0  0  0
  7  8  2  0  0  0
  8 13  1  0  0  0
  8  9  1  0  0  0
  9 10  1  0  0  0
 13 14  1  0  0  0
 14 15  1  0  0  0
  1 11  1  0  0  0
  6 12  1  0  0  0
 15 16  1  0  0  0
 15 17  1  0  0  0
M  END
> <minimizedAffinity>
-7.71712

$$$$
3BRN_SRO_A_158


 17 18  0  0  0  0  0  0  0  0999 V2000
   -9.1046   30.7164  -12.5680 O   0  0  0  0  0  0  0  0  0  0  0  0
   -8.9060   31.8133  -11.7650 C   0  0  0  0  0  0  0  0  0  0  0  0
   -8.0706   31.6571  -10.6618 C   0  0  0  0  0  0  0  0  0  0  0  0
   -7.7313   32.7602   -9.8744 C   0  0  0  0  0  0  0  0  0  0  0  0
   -8.3178   33.9733  -10.2024 C   0  0  0  0  0  0  0  0  0  0  0  0
   -8.2881   35.2174   -9.6609 N   0  0  0  0  0  0  0  0  0  0  0  0
   -9.0431   36.0517  -10.4140 C   0  0  0  0  0  0  0  0  0  0  0  0
   -9.6086   35.3193  -11.4587 C   0  0  0  0  0  0  0  0  0  0  0  0
   -9.1597   34.0105  -11.3011 C   0  0  0  0  0  0  0  0  0  0  0  0
   -9.4348   32.9671  -12.0431 C   0  0  0  0  0  0  0  0  0  0  0  0
   -9.6598   30.7808  -13.3200 H   0  0  0  0  0  0  0  0  0  0  0  0
   -7.7949   35.4731   -8.8481 H   0  0  0  0  0  0  0  0  0  0  0  0
  -10.5526   35.8528  -12.5083 C   0  0  0  0  0  0  0  0  0  0  0  0
  -11.8788   35.0676  -12.4851 C   0  0  0  0  0  0  0  0  0  0  0  0
  -12.6444   35.4793  -11.3039 N   0  0  0  0  0  0  0  0  0  0  0  0
  -12.1027   35.2827  -10.4623 H   0  0  0  0  0  0  0  0  0  0  0  0
  -13.5231   34.9624  -11.2712 H   0  0  0  0  0  0  0  0  0  0  0  0
  1  2  1  0  0  0
  2 10  2  0  0  0
  2  3  1  0  0  0
  3  4  2  0  0  0
  4  5  1  0  0  0
  5  6  1  0  0  0
  5  9  2  0  0  0
  6  7  1  0  0  0
  7  8  2  0  0  0
  8 13  1  0  0  0
  8  9  1  0  0  0
  9 10  1  0  0  0
 13 14  1  0  0  0
 14 15  1  0  0  0
  1 11  1  0  0  0
  6 12  1  0  0  0
 15 16  1  0  0  0
 15 17  1  0  0  0
M  END
> <minimizedAffinity>
-7.68073

$$$$
3BRN_SRO_A_158


 17 18  0  0  0  0  0  0  0  0999 V2000
   -7.0073   38.9069   -9.2451 O   0  0  0  0  0  0  0  0  0  0  0  0
   -7.2472   37.5959   -9.5784 C   0  0  0  0  0  0  0  0  0  0  0  0
   -6.4686   36.6235   -8.9560 C   0  0  0  0  0  0  0  0  0  0  0  0
   -6.7407   35.2682   -9.1587 C   0  0  0  0  0  0  0  0  0  0  0  0
   -7.7564   34.9555  -10.0496 C   0  0  0  0  0  0  0  0  0  0  0  0
   -8.2623   33.7959  -10.5408 N   0  0  0  0  0  0  0  0  0  0  0  0
   -9.2862   34.0747  -11.3818 C   0  0  0  0  0  0  0  0  0  0  0  0
   -9.4282   35.4605  -11.4660 C   0  0  0  0  0  0  0  0  0  0  0  0
   -8.4470   36.0011  -10.6387 C   0  0  0  0  0  0  0  0  0  0  0  0
   -8.1932   37.2644  -10.4052 C   0  0  0  0  0  0  0  0  0  0  0  0
   -7.5100   39.5908   -9.6421 H   0  0  0  0  0  0  0  0  0  0  0  0
   -7.9361   32.8936  -10.3202 H   0  0  0  0  0  0  0  0  0  0  0  0
  -10.4232   36.2008  -12.3258 C   0  0  0  0  0  0  0  0  0  0  0  0
  -11.6500   35.3125  -12.6116 C   0  0  0  0  0  0  0  0  0  0  0  0
  -12.6092   35.4743  -11.5141 N   0  0  0  0  0  0  0  0  0  0  0  0
  -12.1704   35.1986  -10.6356 H   0  0  0  0  0  0  0  0  0  0  0  0
  -13.4249   34.8864  -11.6859 H   0  0  0  0  0  0  0  0  0  0  0  0
  1  2  1  0  0  0
  2 10  2  0  0  0
  2  3  1  0  0  0
  3  4  2  0  0  0
  4  5  1  0  0  0
  5  6  1  0  0  0
  5  9  2  0  0  0
  6  7  1  0  0  0
  7  8  2  0  0  0
  8 13  1  0  0  0
  8  9  1  0  0  0
  9 10  1  0  0  0
 13 14  1  0  0  0
 14 15  1  0  0  0
  1 11  1  0  0  0
  6 12  1  0  0  0
 15 16  1  0  0  0
 15 17  1  0  0  0
M  END
> <minimizedAffinity>
-7.59238

$$$$
3BRN_SRO_A_158


 17 18  0  0  0  0  0  0  0  0999 V2000
   -7.3192   32.5401   -9.5685 O   0  0  0  0  0  0  0  0  0  0  0  0
   -8.2150   32.4773  -10.6081 C   0  0  0  0  0  0  0  0  0  0  0  0
   -8.2226   31.3172  -11.3784 C   0  0  0  0  0  0  0  0  0  0  0  0
   -9.1876   31.1392  -12.3730 C   0  0  0  0  0  0  0  0  0  0  0  0
  -10.0678   32.1882  -12.5923 C   0  0  0  0  0  0  0  0  0  0  0  0
  -11.0715   32.4136  -13.4775 N   0  0  0  0  0  0  0  0  0  0  0  0
  -11.6281   33.6219  -13.2253 C   0  0  0  0  0  0  0  0  0  0  0  0
  -10.9423   34.2151  -12.1644 C   0  0  0  0  0  0  0  0  0  0  0  0
   -9.9517   33.3107  -11.7899 C   0  0  0  0  0  0  0  0  0  0  0  0
   -9.0581   33.4381  -10.8412 C   0  0  0  0  0  0  0  0  0  0  0  0
   -7.2831   33.3038   -9.0268 H   0  0  0  0  0  0  0  0  0  0  0  0
  -11.3511   31.7956  -14.1910 H   0  0  0  0  0  0  0  0  0  0  0  0
  -11.2100   35.5839  -11.5883 C   0  0  0  0  0  0  0  0  0  0  0  0
  -10.3673   36.6474  -12.3195 C   0  0  0  0  0  0  0  0  0  0  0  0
   -9.2460   37.0297  -11.4551 N   0  0  0  0  0  0  0  0  0  0  0  0
   -9.6057   37.4059  -10.5779 H   0  0  0  0  0  0  0  0  0  0  0  0
   -8.6821   37.7390  -11.9234 H   0  0  0  0  0  0  0  0  0  0  0  0
  1  2  1  0  0  0
  2 10  2  0  0  0
  2  3  1  0  0  0
  3  4  2  0  0  0
  4  5  1  0  0  0
  5  6  1  0  0  0
  5  9  2  0  0  0
  6  7  1  0  0  0
  7  8  2  0  0  0
  8 13  1  0  0  0
  8  9  1  0  0  0
  9 10  1  0  0  0
 13 14  1  0  0  0
 14 15  1  0  0  0
  1 11  1  0  0  0
  6 12  1  0  0  0
 15 16  1  0  0  0
 15 17  1  0  0  0
M  END
> <minimizedAffinity>
-7.57804

$$$$
3BRN_SRO_A_158


 17 18  0  0  0  0  0  0  0  0999 V2000
   -7.0111   37.0452   -8.7583 O   0  0  0  0  0  0  0  0  0  0  0  0
   -7.3035   35.9086   -9.4724 C   0  0  0  0  0  0  0  0  0  0  0  0
   -6.2890   34.9665   -9.6214 C   0  0  0  0  0  0  0  0  0  0  0  0
   -6.5538   33.7378  -10.2315 C   0  0  0  0  0  0  0  0  0  0  0  0
   -7.8324   33.5453  -10.7327 C   0  0  0  0  0  0  0  0  0  0  0  0
   -8.4397   32.5462  -11.4217 N   0  0  0  0  0  0  0  0  0  0  0  0
   -9.7340   32.8768  -11.6427 C   0  0  0  0  0  0  0  0  0  0  0  0
   -9.9663   34.1456  -11.1099 C   0  0  0  0  0  0  0  0  0  0  0  0
   -8.7568   34.5614  -10.5587 C   0  0  0  0  0  0  0  0  0  0  0  0
   -8.4912   35.6914   -9.9527 C   0  0  0  0  0  0  0  0  0  0  0  0
   -7.6669   37.7031   -8.6356 H   0  0  0  0  0  0  0  0  0  0  0  0
   -8.0070   31.7119  -11.7150 H   0  0  0  0  0  0  0  0  0  0  0  0
  -11.2650   34.9115  -11.1735 C   0  0  0  0  0  0  0  0  0  0  0  0
  -11.5496   35.3649  -12.6189 C   0  0  0  0  0  0  0  0  0  0  0  0
  -10.9792   36.7025  -12.8093 N   0  0  0  0  0  0  0  0  0  0  0  0
  -11.4035   37.3507  -12.1457 H   0  0  0  0  0  0  0  0  0  0  0  0
  -11.1658   37.0194  -13.7607 H   0  0  0  0  0  0  0  0  0  0  0  0
  1  2  1  0  0  0
  2 10  2  0  0  0
  2  3  1  0  0  0
  3  4  2  0  0  0
  4  5  1  0  0  0
  5  6  1  0  0  0
  5  9  2  0  0  0
  6  7  1  0  0  0
  7  8  2  0  0  0
  8 13  1  0  0  0
  8  9  1  0  0  0
  9 10  1  0  0  0
 13 14  1  0  0  0
 14 15  1  0  0  0
  1 11  1  0  0  0
  6 12  1  0  0  0
 15 16  1  0  0  0
 15 17  1  0  0  0
M  END
> <minimizedAffinity>
-7.50303

$$$$
3BRN_SRO_A_158


 17 18  0  0  0  0  0  0  0  0999 V2000
   -8.4948   38.1763   -9.9601 O   0  0  0  0  0  0  0  0  0  0  0  0
   -8.0565   36.8744   -9.9709 C   0  0  0  0  0  0  0  0  0  0  0  0
   -6.8618   36.5948   -9.3122 C   0  0  0  0  0  0  0  0  0  0  0  0
   -6.4220   35.2750   -9.1825 C   0  0  0  0  0  0  0  0  0  0  0  0
   -7.1856   34.2929   -9.7951 C   0  0  0  0  0  0  0  0  0  0  0  0
   -7.0613   32.9494   -9.9412 N   0  0  0  0  0  0  0  0  0  0  0  0
   -8.1282   32.4726  -10.6251 C   0  0  0  0  0  0  0  0  0  0  0  0
   -8.9552   33.5446  -10.9635 C   0  0  0  0  0  0  0  0  0  0  0  0
   -8.3398   34.6846  -10.4523 C   0  0  0  0  0  0  0  0  0  0  0  0
   -8.7472   35.9266  -10.5304 C   0  0  0  0  0  0  0  0  0  0  0  0
   -9.2942   38.4051  -10.3921 H   0  0  0  0  0  0  0  0  0  0  0  0
   -6.3128   32.4066   -9.6031 H   0  0  0  0  0  0  0  0  0  0  0  0
  -10.2314   33.4636  -11.7647 C   0  0  0  0  0  0  0  0  0  0  0  0
  -10.1734   32.2768  -12.7465 C   0  0  0  0  0  0  0  0  0  0  0  0
  -11.2179   32.4579  -13.7599 N   0  0  0  0  0  0  0  0  0  0  0  0
  -12.1300   32.4958  -13.3050 H   0  0  0  0  0  0  0  0  0  0  0  0
  -11.1964   31.6755  -14.4139 H   0  0  0  0  0  0  0  0  0  0  0  0
  1  2  1  0  0  0
  2 10  2  0  0  0
  2  3  1  0  0  0
  3  4  2  0  0  0
  4  5  1  0  0  0
  5  6  1  0  0  0
  5  9  2  0  0  0
  6  7  1  0  0  0
  7  8  2  0  0  0
  8 13  1  0  0  0
  8  9  1  0  0  0
  9 10  1  0  0  0
 13 14  1  0  0  0
 14 15  1  0  0  0
  1 11  1  0  0  0
  6 12  1  0  0  0
 15 16  1  0  0  0
 15 17  1  0  0  0
M  END
> <minimizedAffinity>
-7.47197

$$$$
3BRN_SRO_A_158


 17 18  0  0  0  0  0  0  0  0999 V2000
  -12.5801   35.2884  -12.5148 O   0  0  0  0  0  0  0  0  0  0  0  0
  -11.4196   34.7201  -12.0485 C   0  0  0  0  0  0  0  0  0  0  0  0
  -11.1269   33.4248  -12.4675 C   0  0  0  0  0  0  0  0  0  0  0  0
   -9.9070   32.8342  -12.1279 C   0  0  0  0  0  0  0  0  0  0  0  0
   -9.0589   33.5650  -11.3097 C   0  0  0  0  0  0  0  0  0  0  0  0
   -7.8554   33.3199  -10.7322 N   0  0  0  0  0  0  0  0  0  0  0  0
   -7.4616   34.4127  -10.0365 C   0  0  0  0  0  0  0  0  0  0  0  0
   -8.4561   35.3866  -10.1371 C   0  0  0  0  0  0  0  0  0  0  0  0
   -9.4626   34.8322  -10.9240 C   0  0  0  0  0  0  0  0  0  0  0  0
  -10.5981   35.3757  -11.2845 C   0  0  0  0  0  0  0  0  0  0  0  0
  -12.8126   36.1585  -12.2561 H   0  0  0  0  0  0  0  0  0  0  0  0
   -7.3483   32.4794  -10.8074 H   0  0  0  0  0  0  0  0  0  0  0  0
   -8.4407   36.7433   -9.4766 C   0  0  0  0  0  0  0  0  0  0  0  0
   -7.0130   37.3242   -9.4782 C   0  0  0  0  0  0  0  0  0  0  0  0
   -7.0983   38.7732   -9.2694 N   0  0  0  0  0  0  0  0  0  0  0  0
   -7.6511   39.1925  -10.0170 H   0  0  0  0  0  0  0  0  0  0  0  0
   -6.1601   39.1734   -9.2749 H   0  0  0  0  0  0  0  0  0  0  0  0
  1  2  1  0  0  0
  2 10  2  0  0  0
  2  3  1  0  0  0
  3  4  2  0  0  0
  4  5  1  0  0  0
  5  6  1  0  0  0
  5  9  2  0  0  0
  6  7  1  0  0  0
  7  8  2  0  0  0
  8 13  1  0  0  0
  8  9  1  0  0  0
  9 10  1  0  0  0
 13 14  1  0  0  0
 14 15  1  0  0  0
  1 11  1  0  0  0
  6 12  1  0  0  0
 15 16  1  0  0  0
 15 17  1  0  0  0
M  END
> <minimizedAffinity>
-7.39538

$$$$
3BRN_SRO_A_158


 17 18  0  0  0  0  0  0  0  0999 V2000
  -11.5883   32.6330  -13.6371 O   0  0  0  0  0  0  0  0  0  0  0  0
  -10.5211   32.5681  -12.7746 C   0  0  0  0  0  0  0  0  0  0  0  0
   -9.7703   31.3952  -12.7710 C   0  0  0  0  0  0  0  0  0  0  0  0
   -8.6037   31.3089  -12.0071 C   0  0  0  0  0  0  0  0  0  0  0  0
   -8.2853   32.4029  -11.2166 C   0  0  0  0  0  0  0  0  0  0  0  0
   -7.3019   32.6703  -10.3204 N   0  0  0  0  0  0  0  0  0  0  0  0
   -7.4581   33.9289   -9.8462 C   0  0  0  0  0  0  0  0  0  0  0  0
   -8.5986   34.4850  -10.4273 C   0  0  0  0  0  0  0  0  0  0  0  0
   -9.1191   33.5071  -11.2713 C   0  0  0  0  0  0  0  0  0  0  0  0
  -10.1896   33.5744  -12.0224 C   0  0  0  0  0  0  0  0  0  0  0  0
  -12.1182   33.4051  -13.6695 H   0  0  0  0  0  0  0  0  0  0  0  0
   -6.5871   32.0469  -10.0564 H   0  0  0  0  0  0  0  0  0  0  0  0
   -9.1607   35.8567  -10.1447 C   0  0  0  0  0  0  0  0  0  0  0  0
   -8.8378   36.8179  -11.3056 C   0  0  0  0  0  0  0  0  0  0  0  0
  -10.0613   37.0376  -12.0837 N   0  0  0  0  0  0  0  0  0  0  0  0
  -10.3982   36.1459  -12.4467 H   0  0  0  0  0  0  0  0  0  0  0  0
   -9.8616   37.6674  -12.8608 H   0  0  0  0  0  0  0  0  0  0  0  0
  1  2  1  0  0  0
  2 10  2  0  0  0
  2  3  1  0  0  0
  3  4  2  0  0  0
  4  5  1  0  0  0
  5  6  1  0  0  0
  5  9  2  0  0  0
  6  7  1  0  0  0
  7  8  2  0  0  0
  8 13  1  0  0  0
  8  9  1  0  0  0
  9 10  1  0  0  0
 13 14  1  0  0  0
 14 15  1  0  0  0
  1 11  1  0  0  0
  6 12  1  0  0  0
 15 16  1  0  0  0
 15 17  1  0  0  0
M  END
> <minimizedAffinity>
-7.37534

$$$$
3BRN_SRO_A_158


 17 18  0  0  0  0  0  0  0  0999 V2000
   -8.7376   30.3334  -12.6887 O   0  0  0  0  0  0  0  0  0  0  0  0
   -9.1293   31.6120  -12.3742 C   0  0  0  0  0  0  0  0  0  0  0  0
  -10.3264   32.0682  -12.9202 C   0  0  0  0  0  0  0  0  0  0  0  0
  -10.8417   33.3117  -12.5459 C   0  0  0  0  0  0  0  0  0  0  0  0
  -10.0757   34.0767  -11.6793 C   0  0  0  0  0  0  0  0  0  0  0  0
  -10.2013   35.3196  -11.1491 N   0  0  0  0  0  0  0  0  0  0  0  0
   -9.1524   35.5646  -10.3286 C   0  0  0  0  0  0  0  0  0  0  0  0
   -8.3009   34.4592  -10.3526 C   0  0  0  0  0  0  0  0  0  0  0  0
   -8.8842   33.5401  -11.2212 C   0  0  0  0  0  0  0  0  0  0  0  0
   -8.4402   32.3563  -11.5622 C   0  0  0  0  0  0  0  0  0  0  0  0
   -7.9382   29.9894  -12.3413 H   0  0  0  0  0  0  0  0  0  0  0  0
  -10.9392   35.9450  -11.3323 H   0  0  0  0  0  0  0  0  0  0  0  0
   -6.9919   34.3301   -9.6129 C   0  0  0  0  0  0  0  0  0  0  0  0
   -6.3129   35.7075   -9.4806 C   0  0  0  0  0  0  0  0  0  0  0  0
   -6.2285   36.0515   -8.0574 N   0  0  0  0  0  0  0  0  0  0  0  0
   -7.1667   36.0803   -7.6584 H   0  0  0  0  0  0  0  0  0  0  0  0
   -5.7868   36.9651   -7.9541 H   0  0  0  0  0  0  0  0  0  0  0  0
  1  2  1  0  0  0
  2 10  2  0  0  0
  2  3  1  0  0  0
  3  4  2  0  0  0
  4  5  1  0  0  0
  5  6  1  0  0  0
  5  9  2  0  0  0
  6  7  1  0  0  0
  7  8  2  0  0  0
  8 13  1  0  0  0
  8  9  1  0  0  0
  9 10  1  0  0  0
 13 14  1  0  0  0
 14 15  1  0  0  0
  1 11  1  0  0  0
  6 12  1  0  0  0
 15 16  1  0  0  0
 15 17  1  0  0  0
M  END
> <minimizedAffinity>
-7.36282

$$$$
