4AJE_2B4_A_1332


 17 17  0  0  0  0  0  0  0  0999 V2000
   12.6127  -17.0674   10.6456 C   0  0  0  0  0  0  0  0  0  0  0  0
   12.1039  -17.6472    9.3353 C   0  0  0  0  0  0  0  0  0  0  0  0
   12.8260  -18.3232    8.5763 O   0  0  0  0  0  0  0  0  0  0  0  0
   10.8534  -17.3851    9.1426 O   0  0  0  0  0  0  0  0  0  0  0  0
   10.3819  -16.8673    9.7650 H   0  0  0  0  0  0  0  0  0  0  0  0
   11.7308  -17.4776   11.8184 C   0  0  0  0  0  0  0  0  0  0  0  0
   10.8162  -16.7823   12.2413 O   0  0  0  0  0  0  0  0  0  0  0  0
   12.0570  -18.6278   12.3154 O   0  0  0  0  0  0  0  0  0  0  0  0
   12.7685  -19.1129   11.9461 H   0  0  0  0  0  0  0  0  0  0  0  0
   12.5496  -15.6216   10.5194 O   0  0  0  0  0  0  0  0  0  0  0  0
   12.8775  -14.6605    8.3283 C   0  0  0  0  0  0  0  0  0  0  0  0
   14.6301  -14.6563    9.9767 C   0  0  0  0  0  0  0  0  0  0  0  0
   13.7196  -14.0272    7.4284 C   0  0  0  0  0  0  0  0  0  0  0  0
   15.4694  -14.0209    9.0823 C   0  0  0  0  0  0  0  0  0  0  0  0
   13.3332  -14.9712    9.5958 C   0  0  0  0  0  0  0  0  0  0  0  0
   14.9935  -13.7187    7.8129 C   0  0  0  0  0  0  0  0  0  0  0  0
   16.1430  -12.8586    6.5770 Br  0  0  0  0  0  0  0  0  0  0  0  0
 11 13  1  0  0  0
 11 15  2  0  0  0
 12 14  2  0  0  0
 12 15  1  0  0  0
 13 16  2  0  0  0
 14 16  1  0  0  0
 15 10  1  0  0  0
 16 17  1  0  0  0
  2  1  1  0  0  0
  2  3  2  0  0  0
  2  4  1  0  0  0
  6  1  1  0  0  0
  6  7  2  0  0  0
  6  8  1  0  0  0
  1 10  1  0  0  0
  4  5  1  0  0  0
  8  9  1  0  0  0
M  END
> <minimizedAffinity>
-7.31749

$$$$
4AJE_2B4_A_1332


 17 17  0  0  0  0  0  0  0  0999 V2000
   12.5835  -16.8426   10.6612 C   0  0  0  0  0  0  0  0  0  0  0  0
   12.0866  -17.5740    9.4242 C   0  0  0  0  0  0  0  0  0  0  0  0
   12.8107  -18.3475    8.7668 O   0  0  0  0  0  0  0  0  0  0  0  0
   10.8431  -17.3228    9.1795 O   0  0  0  0  0  0  0  0  0  0  0  0
   10.3695  -16.7262    9.7252 H   0  0  0  0  0  0  0  0  0  0  0  0
   11.6901  -17.1109   11.8659 C   0  0  0  0  0  0  0  0  0  0  0  0
   11.2337  -16.2197   12.5703 O   0  0  0  0  0  0  0  0  0  0  0  0
   11.4753  -18.3724   12.0623 O   0  0  0  0  0  0  0  0  0  0  0  0
   11.8538  -19.0074   11.4865 H   0  0  0  0  0  0  0  0  0  0  0  0
   12.5231  -15.4221   10.3636 O   0  0  0  0  0  0  0  0  0  0  0  0
   14.6850  -14.5413    9.7453 C   0  0  0  0  0  0  0  0  0  0  0  0
   12.8661  -14.6243    8.1726 C   0  0  0  0  0  0  0  0  0  0  0  0
   15.4949  -13.9628    8.7812 C   0  0  0  0  0  0  0  0  0  0  0  0
   13.6734  -14.0518    7.2090 C   0  0  0  0  0  0  0  0  0  0  0  0
   13.3778  -14.8702    9.4390 C   0  0  0  0  0  0  0  0  0  0  0  0
   14.9835  -13.7269    7.5367 C   0  0  0  0  0  0  0  0  0  0  0  0
   16.0927  -12.9301    6.2240 Br  0  0  0  0  0  0  0  0  0  0  0  0
 11 13  1  0  0  0
 11 15  2  0  0  0
 12 14  2  0  0  0
 12 15  1  0  0  0
 13 16  2  0  0  0
 14 16  1  0  0  0
 15 10  1  0  0  0
 16 17  1  0  0  0
  2  1  1  0  0  0
  2  3  2  0  0  0
  2  4  1  0  0  0
  6  1  1  0  0  0
  6  7  2  0  0  0
  6  8  1  0  0  0
  1 10  1  0  0  0
  4  5  1  0  0  0
  8  9  1  0  0  0
M  END
> <minimizedAffinity>
-7.21821

$$$$
4AJE_2B4_A_1332


 17 17  0  0  0  0  0  0  0  0999 V2000
   11.9793  -16.8004   10.3353 C   0  0  0  0  0  0  0  0  0  0  0  0
   11.5889  -17.2490   11.7347 C   0  0  0  0  0  0  0  0  0  0  0  0
   10.9183  -16.5338   12.5052 O   0  0  0  0  0  0  0  0  0  0  0  0
   11.9997  -18.4466   11.9920 O   0  0  0  0  0  0  0  0  0  0  0  0
   12.5007  -18.9170   11.3550 H   0  0  0  0  0  0  0  0  0  0  0  0
   13.0842  -17.6749    9.7558 C   0  0  0  0  0  0  0  0  0  0  0  0
   14.2263  -17.6873   10.1964 O   0  0  0  0  0  0  0  0  0  0  0  0
   12.6859  -18.3906    8.7531 O   0  0  0  0  0  0  0  0  0  0  0  0
   11.7967  -18.3364    8.4626 H   0  0  0  0  0  0  0  0  0  0  0  0
   12.4928  -15.4468   10.4547 O   0  0  0  0  0  0  0  0  0  0  0  0
   12.6189  -14.7774    8.1378 C   0  0  0  0  0  0  0  0  0  0  0  0
   14.4397  -14.3825    9.6601 C   0  0  0  0  0  0  0  0  0  0  0  0
   13.3504  -14.2031    7.1106 C   0  0  0  0  0  0  0  0  0  0  0  0
   15.1686  -13.8057    8.6382 C   0  0  0  0  0  0  0  0  0  0  0  0
   13.1633  -14.8643    9.4054 C   0  0  0  0  0  0  0  0  0  0  0  0
   14.6048  -13.7294    7.3711 C   0  0  0  0  0  0  0  0  0  0  0  0
   15.6034  -12.9508    5.9621 Br  0  0  0  0  0  0  0  0  0  0  0  0
 11 13  1  0  0  0
 11 15  2  0  0  0
 12 14  2  0  0  0
 12 15  1  0  0  0
 13 16  2  0  0  0
 14 16  1  0  0  0
 15 10  1  0  0  0
 16 17  1  0  0  0
  2  1  1  0  0  0
  2  3  2  0  0  0
  2  4  1  0  0  0
  6  1  1  0  0  0
  6  7  2  0  0  0
  6  8  1  0  0  0
  1 10  1  0  0  0
  4  5  1  0  0  0
  8  9  1  0  0  0
M  END
> <minimizedAffinity>
-7.13952

$$$$
4AJE_2B4_A_1332


 17 17  0  0  0  0  0  0  0  0999 V2000
   11.9472  -16.7139   10.3607 C   0  0  0  0  0  0  0  0  0  0  0  0
   11.5174  -17.1848   11.7411 C   0  0  0  0  0  0  0  0  0  0  0  0
   10.9685  -16.4284   12.5665 O   0  0  0  0  0  0  0  0  0  0  0  0
   11.7552  -18.4421   11.9202 O   0  0  0  0  0  0  0  0  0  0  0  0
   12.1736  -18.9404   11.2459 H   0  0  0  0  0  0  0  0  0  0  0  0
   12.9440  -17.6763    9.7270 C   0  0  0  0  0  0  0  0  0  0  0  0
   12.6651  -18.3972    8.7777 O   0  0  0  0  0  0  0  0  0  0  0  0
   14.1037  -17.6509   10.3022 O   0  0  0  0  0  0  0  0  0  0  0  0
   14.2550  -17.0757   11.0262 H   0  0  0  0  0  0  0  0  0  0  0  0
   12.6093  -15.4334   10.5395 O   0  0  0  0  0  0  0  0  0  0  0  0
   14.6054  -14.3904    9.6680 C   0  0  0  0  0  0  0  0  0  0  0  0
   12.6776  -14.7695    8.2792 C   0  0  0  0  0  0  0  0  0  0  0  0
   15.2644  -13.8072    8.5976 C   0  0  0  0  0  0  0  0  0  0  0  0
   13.3348  -14.1924    7.2100 C   0  0  0  0  0  0  0  0  0  0  0  0
   13.3188  -14.8692    9.5060 C   0  0  0  0  0  0  0  0  0  0  0  0
   14.6264  -13.7157    7.3932 C   0  0  0  0  0  0  0  0  0  0  0  0
   15.5291  -12.9119    5.9346 Br  0  0  0  0  0  0  0  0  0  0  0  0
 11 13  1  0  0  0
 11 15  2  0  0  0
 12 14  2  0  0  0
 12 15  1  0  0  0
 13 16  2  0  0  0
 14 16  1  0  0  0
 15 10  1  0  0  0
 16 17  1  0  0  0
  2  1  1  0  0  0
  2  3  2  0  0  0
  2  4  1  0  0  0
  6  1  1  0  0  0
  6  7  2  0  0  0
  6  8  1  0  0  0
  1 10  1  0  0  0
  4  5  1  0  0  0
  8  9  1  0  0  0
M  END
> <minimizedAffinity>
-7.03940

$$$$
4AJE_2B4_A_1332


 17 17  0  0  0  0  0  0  0  0999 V2000
   12.8799  -16.5348   11.4175 C   0  0  0  0  0  0  0  0  0  0  0  0
   13.8511  -17.3039   10.5359 C   0  0  0  0  0  0  0  0  0  0  0  0
   15.0835  -17.1187   10.5760 O   0  0  0  0  0  0  0  0  0  0  0  0
   13.2481  -18.1729    9.7939 O   0  0  0  0  0  0  0  0  0  0  0  0
   12.3146  -18.2477    9.8244 H   0  0  0  0  0  0  0  0  0  0  0  0
   11.7214  -17.4137   11.8723 C   0  0  0  0  0  0  0  0  0  0  0  0
   10.5639  -17.0185   11.9243 O   0  0  0  0  0  0  0  0  0  0  0  0
   12.0948  -18.6095   12.1993 O   0  0  0  0  0  0  0  0  0  0  0  0
   12.9979  -18.8516   12.1374 H   0  0  0  0  0  0  0  0  0  0  0  0
   12.3371  -15.4584   10.6072 O   0  0  0  0  0  0  0  0  0  0  0  0
   12.7189  -15.0038    8.2663 C   0  0  0  0  0  0  0  0  0  0  0  0
   14.2598  -14.2600    9.9579 C   0  0  0  0  0  0  0  0  0  0  0  0
   13.5259  -14.4507    7.2851 C   0  0  0  0  0  0  0  0  0  0  0  0
   15.0632  -13.7042    8.9812 C   0  0  0  0  0  0  0  0  0  0  0  0
   13.0863  -14.9063    9.5953 C   0  0  0  0  0  0  0  0  0  0  0  0
   14.6777  -13.8142    7.6514 C   0  0  0  0  0  0  0  0  0  0  0  0
   15.7808  -13.0652    6.3058 Br  0  0  0  0  0  0  0  0  0  0  0  0
 11 13  1  0  0  0
 11 15  2  0  0  0
 12 14  2  0  0  0
 12 15  1  0  0  0
 13 16  2  0  0  0
 14 16  1  0  0  0
 15 10  1  0  0  0
 16 17  1  0  0  0
  2  1  1  0  0  0
  2  3  2  0  0  0
  2  4  1  0  0  0
  6  1  1  0  0  0
  6  7  2  0  0  0
  6  8  1  0  0  0
  1 10  1  0  0  0
  4  5  1  0  0  0
  8  9  1  0  0  0
M  END
> <minimizedAffinity>
-7.00947

$$$$
4AJE_2B4_A_1332


 17 17  0  0  0  0  0  0  0  0999 V2000
   11.9642  -14.2410    7.4709 C   0  0  0  0  0  0  0  0  0  0  0  0
   10.5794  -13.7507    7.0787 C   0  0  0  0  0  0  0  0  0  0  0  0
    9.6488  -14.5295    6.7924 O   0  0  0  0  0  0  0  0  0  0  0  0
   10.4919  -12.4622    7.1195 O   0  0  0  0  0  0  0  0  0  0  0  0
   11.2426  -11.9486    7.3446 H   0  0  0  0  0  0  0  0  0  0  0  0
   12.2553  -15.6185    6.8884 C   0  0  0  0  0  0  0  0  0  0  0  0
   13.1816  -15.8355    6.1180 O   0  0  0  0  0  0  0  0  0  0  0  0
   11.4193  -16.5218    7.2902 O   0  0  0  0  0  0  0  0  0  0  0  0
   10.7299  -16.2922    7.8817 H   0  0  0  0  0  0  0  0  0  0  0  0
   11.9770  -14.3530    8.9191 O   0  0  0  0  0  0  0  0  0  0  0  0
   14.3419  -14.2436    9.3962 C   0  0  0  0  0  0  0  0  0  0  0  0
   12.9346  -15.9182   10.3983 C   0  0  0  0  0  0  0  0  0  0  0  0
   15.4408  -14.7690   10.0567 C   0  0  0  0  0  0  0  0  0  0  0  0
   14.0283  -16.4404   11.0609 C   0  0  0  0  0  0  0  0  0  0  0  0
   13.0960  -14.8170    9.5691 C   0  0  0  0  0  0  0  0  0  0  0  0
   15.2720  -15.8513   10.8728 C   0  0  0  0  0  0  0  0  0  0  0  0
   16.7785  -16.5699   11.7686 Br  0  0  0  0  0  0  0  0  0  0  0  0
 11 13  1  0  0  0
 11 15  2  0  0  0
 12 14  2  0  0  0
 12 15  1  0  0  0
 13 16  2  0  0  0
 14 16  1  0  0  0
 15 10  1  0  0  0
 16 17  1  0  0  0
  2  1  1  0  0  0
  2  3  2  0  0  0
  2  4  1  0  0  0
  6  1  1  0  0  0
  6  7  2  0  0  0
  6  8  1  0  0  0
  1 10  1  0  0  0
  4  5  1  0  0  0
  8  9  1  0  0  0
M  END
> <minimizedAffinity>
-6.97348

$$$$
4AJE_2B4_A_1332


 17 17  0  0  0  0  0  0  0  0999 V2000
   15.4864  -13.5149    6.0179 C   0  0  0  0  0  0  0  0  0  0  0  0
   15.5549  -12.3245    5.0744 C   0  0  0  0  0  0  0  0  0  0  0  0
   14.7218  -11.3973    5.1036 O   0  0  0  0  0  0  0  0  0  0  0  0
   16.5814  -12.3846    4.2921 O   0  0  0  0  0  0  0  0  0  0  0  0
   17.1604  -13.1201    4.3345 H   0  0  0  0  0  0  0  0  0  0  0  0
   15.6688  -14.8308    5.2719 C   0  0  0  0  0  0  0  0  0  0  0  0
   14.8000  -15.6913    5.2136 O   0  0  0  0  0  0  0  0  0  0  0  0
   16.8342  -14.9382    4.7181 O   0  0  0  0  0  0  0  0  0  0  0  0
   17.4572  -14.2431    4.7991 H   0  0  0  0  0  0  0  0  0  0  0  0
   14.1579  -13.5110    6.6054 O   0  0  0  0  0  0  0  0  0  0  0  0
   14.8144  -14.0538    8.8652 C   0  0  0  0  0  0  0  0  0  0  0  0
   12.7714  -14.8966    7.9140 C   0  0  0  0  0  0  0  0  0  0  0  0
   14.5458  -14.7287   10.0452 C   0  0  0  0  0  0  0  0  0  0  0  0
   12.4999  -15.5663    9.0913 C   0  0  0  0  0  0  0  0  0  0  0  0
   13.9291  -14.1386    7.8070 C   0  0  0  0  0  0  0  0  0  0  0  0
   13.4027  -15.4702   10.1424 C   0  0  0  0  0  0  0  0  0  0  0  0
   13.0431  -16.3960   11.7554 Br  0  0  0  0  0  0  0  0  0  0  0  0
 11 13  1  0  0  0
 11 15  2  0  0  0
 12 14  2  0  0  0
 12 15  1  0  0  0
 13 16  2  0  0  0
 14 16  1  0  0  0
 15 10  1  0  0  0
 16 17  1  0  0  0
  2  1  1  0  0  0
  2  3  2  0  0  0
  2  4  1  0  0  0
  6  1  1  0  0  0
  6  7  2  0  0  0
  6  8  1  0  0  0
  1 10  1  0  0  0
  4  5  1  0  0  0
  8  9  1  0  0  0
M  END
> <minimizedAffinity>
-6.86793

$$$$
4AJE_2B4_A_1332


 17 17  0  0  0  0  0  0  0  0999 V2000
   11.1560  -15.1240    7.9758 C   0  0  0  0  0  0  0  0  0  0  0  0
   12.1225  -15.9763    7.1687 C   0  0  0  0  0  0  0  0  0  0  0  0
   12.4198  -17.1427    7.4939 O   0  0  0  0  0  0  0  0  0  0  0  0
   12.5480  -15.3609    6.1154 O   0  0  0  0  0  0  0  0  0  0  0  0
   12.2748  -14.4811    5.9443 H   0  0  0  0  0  0  0  0  0  0  0  0
   10.3466  -14.1954    7.0790 C   0  0  0  0  0  0  0  0  0  0  0  0
   10.5464  -12.9894    7.0130 O   0  0  0  0  0  0  0  0  0  0  0  0
    9.4308  -14.8166    6.4070 O   0  0  0  0  0  0  0  0  0  0  0  0
    9.3276  -15.7431    6.5014 H   0  0  0  0  0  0  0  0  0  0  0  0
   11.9594  -14.3032    8.8651 O   0  0  0  0  0  0  0  0  0  0  0  0
   12.8836  -15.8517   10.4713 C   0  0  0  0  0  0  0  0  0  0  0  0
   14.2849  -14.3264    9.2472 C   0  0  0  0  0  0  0  0  0  0  0  0
   13.9961  -16.3457   11.1333 C   0  0  0  0  0  0  0  0  0  0  0  0
   15.3956  -14.8208    9.9030 C   0  0  0  0  0  0  0  0  0  0  0  0
   13.0308  -14.8477    9.5326 C   0  0  0  0  0  0  0  0  0  0  0  0
   15.2268  -15.8284   10.8440 C   0  0  0  0  0  0  0  0  0  0  0  0
   16.7439  -16.5026   11.7563 Br  0  0  0  0  0  0  0  0  0  0  0  0
 11 13  1  0  0  0
 11 15  2  0  0  0
 12 14  2  0  0  0
 12 15  1  0  0  0
 13 16  2  0  0  0
 14 16  1  0  0  0
 15 10  1  0  0  0
 16 17  1  0  0  0
  2  1  1  0  0  0
  2  3  2  0  0  0
  2  4  1  0  0  0
  6  1  1  0  0  0
  6  7  2  0  0  0
  6  8  1  0  0  0
  1 10  1  0  0  0
  4  5  1  0  0  0
  8  9  1  0  0  0
M  END
> <minimizedAffinity>
-6.54013

$$$$
4AJE_2B4_A_1332


 17 17  0  0  0  0  0  0  0  0999 V2000
   12.1216  -16.4224    8.7220 C   0  0  0  0  0  0  0  0  0  0  0  0
   10.6723  -16.0689    8.4277 C   0  0  0  0  0  0  0  0  0  0  0  0
   10.3073  -14.9077    8.1574 O   0  0  0  0  0  0  0  0  0  0  0  0
    9.9046  -17.1077    8.4566 O   0  0  0  0  0  0  0  0  0  0  0  0
   10.2608  -17.9477    8.6699 H   0  0  0  0  0  0  0  0  0  0  0  0
   12.2476  -17.2510    9.9943 C   0  0  0  0  0  0  0  0  0  0  0  0
   11.5468  -17.0694   10.9816 O   0  0  0  0  0  0  0  0  0  0  0  0
   13.1721  -18.1542    9.9174 O   0  0  0  0  0  0  0  0  0  0  0  0
   13.6756  -18.2436    9.1323 H   0  0  0  0  0  0  0  0  0  0  0  0
   12.8272  -15.1697    8.9291 O   0  0  0  0  0  0  0  0  0  0  0  0
   13.5418  -14.9265    6.6351 C   0  0  0  0  0  0  0  0  0  0  0  0
   14.8425  -14.0428    8.4562 C   0  0  0  0  0  0  0  0  0  0  0  0
   14.4880  -14.4666    5.7334 C   0  0  0  0  0  0  0  0  0  0  0  0
   15.7845  -13.5798    7.5582 C   0  0  0  0  0  0  0  0  0  0  0  0
   13.7205  -14.7131    7.9891 C   0  0  0  0  0  0  0  0  0  0  0  0
   15.5878  -13.8056    6.2020 C   0  0  0  0  0  0  0  0  0  0  0  0
   16.8817  -13.1843    4.9658 Br  0  0  0  0  0  0  0  0  0  0  0  0
 11 13  1  0  0  0
 11 15  2  0  0  0
 12 14  2  0  0  0
 12 15  1  0  0  0
 13 16  2  0  0  0
 14 16  1  0  0  0
 15 10  1  0  0  0
 16 17  1  0  0  0
  2  1  1  0  0  0
  2  3  2  0  0  0
  2  4  1  0  0  0
  6  1  1  0  0  0
  6  7  2  0  0  0
  6  8  1  0  0  0
  1 10  1  0  0  0
  4  5  1  0  0  0
  8  9  1  0  0  0
M  END
> <minimizedAffinity>
-6.43992

$$$$
4AJE_2B4_A_1332


 17 17  0  0  0  0  0  0  0  0999 V2000
   14.7349  -13.4410    6.2105 C   0  0  0  0  0  0  0  0  0  0  0  0
   15.0416  -14.8733    5.8026 C   0  0  0  0  0  0  0  0  0  0  0  0
   14.1472  -15.7142    5.5845 O   0  0  0  0  0  0  0  0  0  0  0  0
   16.3108  -15.0808    5.6792 O   0  0  0  0  0  0  0  0  0  0  0  0
   16.9183  -14.3917    5.8637 H   0  0  0  0  0  0  0  0  0  0  0  0
   15.4681  -12.4389    5.3274 C   0  0  0  0  0  0  0  0  0  0  0  0
   16.0737  -12.7606    4.3133 O   0  0  0  0  0  0  0  0  0  0  0  0
   15.3847  -11.2243    5.7678 O   0  0  0  0  0  0  0  0  0  0  0  0
   14.9053  -11.0422    6.5520 H   0  0  0  0  0  0  0  0  0  0  0  0
   15.2162  -13.2782    7.5713 O   0  0  0  0  0  0  0  0  0  0  0  0
   15.4507  -14.6256    9.5617 C   0  0  0  0  0  0  0  0  0  0  0  0
   13.2923  -14.1667    8.6027 C   0  0  0  0  0  0  0  0  0  0  0  0
   14.8507  -15.3842   10.5540 C   0  0  0  0  0  0  0  0  0  0  0  0
   12.6923  -14.9190    9.5937 C   0  0  0  0  0  0  0  0  0  0  0  0
   14.6724  -14.0202    8.5929 C   0  0  0  0  0  0  0  0  0  0  0  0
   13.4916  -15.5207   10.5572 C   0  0  0  0  0  0  0  0  0  0  0  0
   12.6766  -16.5641   11.9121 Br  0  0  0  0  0  0  0  0  0  0  0  0
 11 13  1  0  0  0
 11 15  2  0  0  0
 12 14  2  0  0  0
 12 15  1  0  0  0
 13 16  2  0  0  0
 14 16  1  0  0  0
 15 10  1  0  0  0
 16 17  1  0  0  0
  2  1  1  0  0  0
  2  3  2  0  0  0
  2  4  1  0  0  0
  6  1  1  0  0  0
  6  7  2  0  0  0
  6  8  1  0  0  0
  1 10  1  0  0  0
  4  5  1  0  0  0
  8  9  1  0  0  0
M  END
> <minimizedAffinity>
-6.41335

$$$$
