4Y79_4O6_A_303


 30 32  0  0  0  0  0  0  0  0999 V2000
    6.4288    4.4979   20.6664 N   0  0  0  0  0  0  0  0  0  0  0  0
    5.0863    4.5434   21.2827 C   0  0  0  0  0  0  0  0  0  0  0  0
    4.6738    5.9958   21.1046 C   0  0  0  0  0  0  0  0  0  0  0  0
    6.0225    6.7174   21.2110 C   0  0  0  0  0  0  0  0  0  0  0  0
    7.0061    5.7193   20.6061 C   0  0  0  0  0  0  0  0  0  0  0  0
    8.1152    5.9614   20.1662 O   0  0  0  0  0  0  0  0  0  0  0  0
    6.6992    2.0664   21.1221 C   0  0  0  0  0  0  0  0  0  0  0  0
    7.1049    3.2540   20.2596 C   0  0  0  0  0  0  0  0  0  0  0  0
    6.8450    2.9768   18.7735 C   0  0  0  0  0  0  0  0  0  0  0  0
    5.7188    2.7278   18.3874 O   0  0  0  0  0  0  0  0  0  0  0  0
    7.8950    2.9881   17.9265 N   0  0  0  0  0  0  0  0  0  0  0  0
    9.2738    3.3134   18.3262 C   0  0  0  0  0  0  0  0  0  0  0  0
   10.2357    2.3149   17.7406 C   0  0  0  0  0  0  0  0  0  0  0  0
   10.1099    2.2429   16.3288 O   0  0  0  0  0  0  0  0  0  0  0  0
    8.7980    1.7977   15.9878 C   0  0  0  0  0  0  0  0  0  0  0  0
    7.7379    2.7509   16.4800 C   0  0  0  0  0  0  0  0  0  0  0  0
    6.0614    8.0348   20.5727 N   0  0  0  0  0  0  0  0  0  0  0  0
    5.1307    8.2054   20.1918 H   0  0  0  0  0  0  0  0  0  0  0  0
    6.4595    9.3462   21.4451 S   0  0  0  0  0  0  0  0  0  0  0  0
    5.4623    9.4693   22.4696 O   0  0  0  0  0  0  0  0  0  0  0  0
    6.6491   10.4113   20.5006 O   0  0  0  0  0  0  0  0  0  0  0  0
    8.0064    9.0251   22.2268 C   0  0  0  0  0  0  0  0  0  0  0  0
    8.1290    9.1073   23.5479 C   0  0  0  0  0  0  0  0  0  0  0  0
    9.2883    8.6927   24.3528 C   0  0  0  0  0  0  0  0  0  0  0  0
   10.5788    8.9473   23.8815 C   0  0  0  0  0  0  0  0  0  0  0  0
   11.7008    8.5629   24.6001 C   0  0  0  0  0  0  0  0  0  0  0  0
   11.5377    7.9279   25.8128 C   0  0  0  0  0  0  0  0  0  0  0  0
   12.9489    7.4448   26.7232 Cl  0  0  0  0  0  0  0  0  0  0  0  0
   10.2805    7.6623   26.3201 C   0  0  0  0  0  0  0  0  0  0  0  0
    9.1635    8.0414   25.5882 C   0  0  0  0  0  0  0  0  0  0  0  0
 15 14  1  0  0  0
 15 16  1  0  0  0
 14 13  1  0  0  0
 16 11  1  0  0  0
 13 12  1  0  0  0
 11 12  1  0  0  0
 11  9  1  0  0  0
 10  9  2  0  0  0
  9  8  1  0  0  0
  8  7  1  0  0  0
  8  1  1  0  0  0
  1  2  1  0  0  0
  1  5  1  0  0  0
  6  5  2  0  0  0
  2  3  1  0  0  0
  5  4  1  0  0  0
  3  4  1  0  0  0
 17  4  1  0  0  0
 17 19  1  0  0  0
 21 19  2  0  0  0
 19 22  1  0  0  0
 19 20  2  0  0  0
 22 23  2  0  0  0
 30 29  2  0  0  0
 30 24  1  0  0  0
 23 24  1  0  0  0
 29 27  1  0  0  0
 24 25  2  0  0  0
 27 28  1  0  0  0
 27 26  2  0  0  0
 25 26  1  0  0  0
 17 18  1  0  0  0
M  END
> <minimizedAffinity>
-8.16388

$$$$
4Y79_4O6_A_303


 30 32  0  0  0  0  0  0  0  0999 V2000
    3.6365    6.9704   23.0497 N   0  0  0  0  0  0  0  0  0  0  0  0
    2.2797    7.3692   23.4792 C   0  0  0  0  0  0  0  0  0  0  0  0
    1.7333    6.1021   24.1173 C   0  0  0  0  0  0  0  0  0  0  0  0
    2.4086    5.0135   23.2748 C   0  0  0  0  0  0  0  0  0  0  0  0
    3.7579    5.6303   22.9161 C   0  0  0  0  0  0  0  0  0  0  0  0
    4.7591    5.0387   22.5556 O   0  0  0  0  0  0  0  0  0  0  0  0
    4.1552    9.2963   22.3327 C   0  0  0  0  0  0  0  0  0  0  0  0
    4.7037    7.9256   22.7056 C   0  0  0  0  0  0  0  0  0  0  0  0
    5.7117    8.0242   23.8576 C   0  0  0  0  0  0  0  0  0  0  0  0
    5.3218    8.2059   24.9953 O   0  0  0  0  0  0  0  0  0  0  0  0
    7.0263    7.9349   23.5681 N   0  0  0  0  0  0  0  0  0  0  0  0
    7.5586    7.6837   22.2189 C   0  0  0  0  0  0  0  0  0  0  0  0
    8.6946    8.6257   21.9230 C   0  0  0  0  0  0  0  0  0  0  0  0
    9.7133    8.5317   22.9067 O   0  0  0  0  0  0  0  0  0  0  0  0
    9.1870    8.9099   24.1777 C   0  0  0  0  0  0  0  0  0  0  0  0
    8.0652    8.0003   24.6120 C   0  0  0  0  0  0  0  0  0  0  0  0
    2.5194    3.7116   23.9358 N   0  0  0  0  0  0  0  0  0  0  0  0
    1.8962    3.7366   24.7429 H   0  0  0  0  0  0  0  0  0  0  0  0
    2.1703    2.3538   23.1148 S   0  0  0  0  0  0  0  0  0  0  0  0
    1.2453    2.7301   22.0842 O   0  0  0  0  0  0  0  0  0  0  0  0
    1.7869    1.3801   24.0984 O   0  0  0  0  0  0  0  0  0  0  0  0
    3.6517    1.7957   22.3397 C   0  0  0  0  0  0  0  0  0  0  0  0
    4.0463    2.3115   21.1797 C   0  0  0  0  0  0  0  0  0  0  0  0
    5.3365    2.0879   20.5095 C   0  0  0  0  0  0  0  0  0  0  0  0
    6.4720    1.8166   21.2770 C   0  0  0  0  0  0  0  0  0  0  0  0
    7.7112    1.6121   20.6891 C   0  0  0  0  0  0  0  0  0  0  0  0
    7.8209    1.6643   19.3159 C   0  0  0  0  0  0  0  0  0  0  0  0
    9.3799    1.4039   18.5707 Cl  0  0  0  0  0  0  0  0  0  0  0  0
    6.7232    1.9227   18.5179 C   0  0  0  0  0  0  0  0  0  0  0  0
    5.4891    2.1367   19.1165 C   0  0  0  0  0  0  0  0  0  0  0  0
 15 14  1  0  0  0
 15 16  1  0  0  0
 14 13  1  0  0  0
 16 11  1  0  0  0
 13 12  1  0  0  0
 11 12  1  0  0  0
 11  9  1  0  0  0
 10  9  2  0  0  0
  9  8  1  0  0  0
  8  7  1  0  0  0
  8  1  1  0  0  0
  1  2  1  0  0  0
  1  5  1  0  0  0
  6  5  2  0  0  0
  2  3  1  0  0  0
  5  4  1  0  0  0
  3  4  1  0  0  0
 17  4  1  0  0  0
 17 19  1  0  0  0
 21 19  2  0  0  0
 19 22  1  0  0  0
 19 20  2  0  0  0
 22 23  2  0  0  0
 30 29  2  0  0  0
 30 24  1  0  0  0
 23 24  1  0  0  0
 29 27  1  0  0  0
 24 25  2  0  0  0
 27 28  1  0  0  0
 27 26  2  0  0  0
 25 26  1  0  0  0
 17 18  1  0  0  0
M  END
> <minimizedAffinity>
-7.86211

$$$$
4Y79_4O6_A_303


 30 32  0  0  0  0  0  0  0  0999 V2000
    6.1948    5.8518   19.1218 N   0  0  0  0  0  0  0  0  0  0  0  0
    7.2147    6.9155   19.0092 C   0  0  0  0  0  0  0  0  0  0  0  0
    7.4243    7.3469   20.4519 C   0  0  0  0  0  0  0  0  0  0  0  0
    6.0250    7.1415   21.0442 C   0  0  0  0  0  0  0  0  0  0  0  0
    5.4859    5.9418   20.2699 C   0  0  0  0  0  0  0  0  0  0  0  0
    4.5743    5.2068   20.6030 O   0  0  0  0  0  0  0  0  0  0  0  0
    4.8747    5.3756   17.0668 C   0  0  0  0  0  0  0  0  0  0  0  0
    5.9108    4.8697   18.0614 C   0  0  0  0  0  0  0  0  0  0  0  0
    7.2117    4.4693   17.3543 C   0  0  0  0  0  0  0  0  0  0  0  0
    7.4739    4.9231   16.2568 O   0  0  0  0  0  0  0  0  0  0  0  0
    8.0285    3.5873   17.9667 N   0  0  0  0  0  0  0  0  0  0  0  0
    7.7831    3.0282   19.3061 C   0  0  0  0  0  0  0  0  0  0  0  0
    8.0114    1.5406   19.2999 C   0  0  0  0  0  0  0  0  0  0  0  0
    9.3138    1.2196   18.8362 O   0  0  0  0  0  0  0  0  0  0  0  0
    9.4645    1.6636   17.4888 C   0  0  0  0  0  0  0  0  0  0  0  0
    9.3073    3.1589   17.3712 C   0  0  0  0  0  0  0  0  0  0  0  0
    5.9985    6.9582   22.4968 N   0  0  0  0  0  0  0  0  0  0  0  0
    6.7770    6.3420   22.7305 H   0  0  0  0  0  0  0  0  0  0  0  0
    6.1097    8.2481   23.4783 S   0  0  0  0  0  0  0  0  0  0  0  0
    5.4121    7.9015   24.6835 O   0  0  0  0  0  0  0  0  0  0  0  0
    5.6791    9.3777   22.7030 O   0  0  0  0  0  0  0  0  0  0  0  0
    7.8108    8.4757   23.8800 C   0  0  0  0  0  0  0  0  0  0  0  0
    8.3239    7.9442   24.9851 C   0  0  0  0  0  0  0  0  0  0  0  0
    9.7458    7.8877   25.3576 C   0  0  0  0  0  0  0  0  0  0  0  0
   10.1230    7.2335   26.5332 C   0  0  0  0  0  0  0  0  0  0  0  0
   11.4499    7.1665   26.9305 C   0  0  0  0  0  0  0  0  0  0  0  0
   12.4187    7.7467   26.1399 C   0  0  0  0  0  0  0  0  0  0  0  0
   14.0925    7.6618   26.6350 Cl  0  0  0  0  0  0  0  0  0  0  0  0
   12.0917    8.3977   24.9661 C   0  0  0  0  0  0  0  0  0  0  0  0
   10.7594    8.4687   24.5824 C   0  0  0  0  0  0  0  0  0  0  0  0
 15 14  1  0  0  0
 15 16  1  0  0  0
 14 13  1  0  0  0
 16 11  1  0  0  0
 13 12  1  0  0  0
 11 12  1  0  0  0
 11  9  1  0  0  0
 10  9  2  0  0  0
  9  8  1  0  0  0
  8  7  1  0  0  0
  8  1  1  0  0  0
  1  2  1  0  0  0
  1  5  1  0  0  0
  6  5  2  0  0  0
  2  3  1  0  0  0
  5  4  1  0  0  0
  3  4  1  0  0  0
 17  4  1  0  0  0
 17 19  1  0  0  0
 21 19  2  0  0  0
 19 22  1  0  0  0
 19 20  2  0  0  0
 22 23  2  0  0  0
 30 29  2  0  0  0
 30 24  1  0  0  0
 23 24  1  0  0  0
 29 27  1  0  0  0
 24 25  2  0  0  0
 27 28  1  0  0  0
 27 26  2  0  0  0
 25 26  1  0  0  0
 17 18  1  0  0  0
M  END
> <minimizedAffinity>
-7.62781

$$$$
4Y79_4O6_A_303


 30 32  0  0  0  0  0  0  0  0999 V2000
    7.3053    8.5748   21.9570 N   0  0  0  0  0  0  0  0  0  0  0  0
    6.6657    9.7484   21.3261 C   0  0  0  0  0  0  0  0  0  0  0  0
    5.8360    9.1316   20.2114 C   0  0  0  0  0  0  0  0  0  0  0  0
    6.6974    7.9275   19.8125 C   0  0  0  0  0  0  0  0  0  0  0  0
    7.3491    7.5080   21.1273 C   0  0  0  0  0  0  0  0  0  0  0  0
    7.8395    6.4242   21.3866 O   0  0  0  0  0  0  0  0  0  0  0  0
    7.5809    7.3478   24.1044 C   0  0  0  0  0  0  0  0  0  0  0  0
    7.9182    8.5936   23.2963 C   0  0  0  0  0  0  0  0  0  0  0  0
    9.4354    8.7854   23.1769 C   0  0  0  0  0  0  0  0  0  0  0  0
    9.9483    8.9246   22.0829 O   0  0  0  0  0  0  0  0  0  0  0  0
   10.1746    8.7643   24.3052 N   0  0  0  0  0  0  0  0  0  0  0  0
    9.6107    8.6319   25.6585 C   0  0  0  0  0  0  0  0  0  0  0  0
   10.3924    7.6199   26.4522 C   0  0  0  0  0  0  0  0  0  0  0  0
   11.7716    7.9517   26.4968 O   0  0  0  0  0  0  0  0  0  0  0  0
   12.3090    7.9407   25.1753 C   0  0  0  0  0  0  0  0  0  0  0  0
   11.6360    8.9583   24.2888 C   0  0  0  0  0  0  0  0  0  0  0  0
    5.9642    6.8449   19.1531 N   0  0  0  0  0  0  0  0  0  0  0  0
    4.9805    6.9652   19.3945 H   0  0  0  0  0  0  0  0  0  0  0  0
    6.0353    6.6847   17.5380 S   0  0  0  0  0  0  0  0  0  0  0  0
    6.7012    7.8558   17.0436 O   0  0  0  0  0  0  0  0  0  0  0  0
    4.6978    6.3876   17.1072 O   0  0  0  0  0  0  0  0  0  0  0  0
    7.0496    5.2887   17.1782 C   0  0  0  0  0  0  0  0  0  0  0  0
    7.7516    4.6948   18.1381 C   0  0  0  0  0  0  0  0  0  0  0  0
    8.4871    3.4250   18.0348 C   0  0  0  0  0  0  0  0  0  0  0  0
    9.2460    3.1612   16.8917 C   0  0  0  0  0  0  0  0  0  0  0  0
    9.9450    1.9725   16.7454 C   0  0  0  0  0  0  0  0  0  0  0  0
    9.9002    1.0372   17.7571 C   0  0  0  0  0  0  0  0  0  0  0  0
   10.7822   -0.4608   17.5782 Cl  0  0  0  0  0  0  0  0  0  0  0  0
    9.1683    1.2591   18.9074 C   0  0  0  0  0  0  0  0  0  0  0  0
    8.4633    2.4477   19.0399 C   0  0  0  0  0  0  0  0  0  0  0  0
 15 14  1  0  0  0
 15 16  1  0  0  0
 14 13  1  0  0  0
 16 11  1  0  0  0
 13 12  1  0  0  0
 11 12  1  0  0  0
 11  9  1  0  0  0
 10  9  2  0  0  0
  9  8  1  0  0  0
  8  7  1  0  0  0
  8  1  1  0  0  0
  1  2  1  0  0  0
  1  5  1  0  0  0
  6  5  2  0  0  0
  2  3  1  0  0  0
  5  4  1  0  0  0
  3  4  1  0  0  0
 17  4  1  0  0  0
 17 19  1  0  0  0
 21 19  2  0  0  0
 19 22  1  0  0  0
 19 20  2  0  0  0
 22 23  2  0  0  0
 30 29  2  0  0  0
 30 24  1  0  0  0
 23 24  1  0  0  0
 29 27  1  0  0  0
 24 25  2  0  0  0
 27 28  1  0  0  0
 27 26  2  0  0  0
 25 26  1  0  0  0
 17 18  1  0  0  0
M  END
> <minimizedAffinity>
-7.61619

$$$$
4Y79_4O6_A_303


 30 32  0  0  0  0  0  0  0  0999 V2000
    7.3718    5.0828   18.9814 N   0  0  0  0  0  0  0  0  0  0  0  0
    6.7953    4.3518   20.1293 C   0  0  0  0  0  0  0  0  0  0  0  0
    5.8976    5.3897   20.7838 C   0  0  0  0  0  0  0  0  0  0  0  0
    6.6664    6.6864   20.5040 C   0  0  0  0  0  0  0  0  0  0  0  0
    7.3230    6.4234   19.1516 C   0  0  0  0  0  0  0  0  0  0  0  0
    7.7470    7.2559   18.3708 O   0  0  0  0  0  0  0  0  0  0  0  0
    9.2605    3.6442   18.2357 C   0  0  0  0  0  0  0  0  0  0  0  0
    8.0193    4.4284   17.8315 C   0  0  0  0  0  0  0  0  0  0  0  0
    7.0105    3.5346   17.0993 C   0  0  0  0  0  0  0  0  0  0  0  0
    6.7988    2.4037   17.4938 O   0  0  0  0  0  0  0  0  0  0  0  0
    6.3978    4.0254   16.0022 N   0  0  0  0  0  0  0  0  0  0  0  0
    6.5871    5.3941   15.4944 C   0  0  0  0  0  0  0  0  0  0  0  0
    6.7983    5.3727   14.0044 C   0  0  0  0  0  0  0  0  0  0  0  0
    5.7284    4.7181   13.3402 O   0  0  0  0  0  0  0  0  0  0  0  0
    5.6629    3.3577   13.7650 C   0  0  0  0  0  0  0  0  0  0  0  0
    5.4009    3.2457   15.2460 C   0  0  0  0  0  0  0  0  0  0  0  0
    5.8460    7.8992   20.5284 N   0  0  0  0  0  0  0  0  0  0  0  0
    4.9315    7.6293   20.8905 H   0  0  0  0  0  0  0  0  0  0  0  0
    6.3309    9.1880   21.3905 S   0  0  0  0  0  0  0  0  0  0  0  0
    5.3461    9.3832   22.4160 O   0  0  0  0  0  0  0  0  0  0  0  0
    6.5872   10.2318   20.4379 O   0  0  0  0  0  0  0  0  0  0  0  0
    7.8554    8.7725   22.1715 C   0  0  0  0  0  0  0  0  0  0  0  0
    8.0999    9.1454   23.4238 C   0  0  0  0  0  0  0  0  0  0  0  0
    9.2297    8.7211   24.2649 C   0  0  0  0  0  0  0  0  0  0  0  0
   10.5362    8.9804   23.8429 C   0  0  0  0  0  0  0  0  0  0  0  0
   11.6318    8.5874   24.5968 C   0  0  0  0  0  0  0  0  0  0  0  0
   11.4254    7.9390   25.7956 C   0  0  0  0  0  0  0  0  0  0  0  0
   12.8031    7.4450   26.7504 Cl  0  0  0  0  0  0  0  0  0  0  0  0
   10.1509    7.6683   26.2548 C   0  0  0  0  0  0  0  0  0  0  0  0
    9.0607    8.0562   25.4877 C   0  0  0  0  0  0  0  0  0  0  0  0
 15 14  1  0  0  0
 15 16  1  0  0  0
 14 13  1  0  0  0
 16 11  1  0  0  0
 13 12  1  0  0  0
 11 12  1  0  0  0
 11  9  1  0  0  0
 10  9  2  0  0  0
  9  8  1  0  0  0
  8  7  1  0  0  0
  8  1  1  0  0  0
  1  2  1  0  0  0
  1  5  1  0  0  0
  6  5  2  0  0  0
  2  3  1  0  0  0
  5  4  1  0  0  0
  3  4  1  0  0  0
 17  4  1  0  0  0
 17 19  1  0  0  0
 21 19  2  0  0  0
 19 22  1  0  0  0
 19 20  2  0  0  0
 22 23  2  0  0  0
 30 29  2  0  0  0
 30 24  1  0  0  0
 23 24  1  0  0  0
 29 27  1  0  0  0
 24 25  2  0  0  0
 27 28  1  0  0  0
 27 26  2  0  0  0
 25 26  1  0  0  0
 17 18  1  0  0  0
M  END
> <minimizedAffinity>
-7.54936

$$$$
4Y79_4O6_A_303


 30 32  0  0  0  0  0  0  0  0999 V2000
    5.3721    8.1808   21.3187 N   0  0  0  0  0  0  0  0  0  0  0  0
    4.9014    6.7806   21.2751 C   0  0  0  0  0  0  0  0  0  0  0  0
    5.4194    6.2839   19.9349 C   0  0  0  0  0  0  0  0  0  0  0  0
    5.3491    7.5569   19.0831 C   0  0  0  0  0  0  0  0  0  0  0  0
    5.6386    8.6700   20.0865 C   0  0  0  0  0  0  0  0  0  0  0  0
    6.0193    9.7989   19.8358 O   0  0  0  0  0  0  0  0  0  0  0  0
    4.0687    9.4206   23.0383 C   0  0  0  0  0  0  0  0  0  0  0  0
    5.4440    8.9859   22.5502 C   0  0  0  0  0  0  0  0  0  0  0  0
    6.2025    8.2151   23.6380 C   0  0  0  0  0  0  0  0  0  0  0  0
    5.5900    7.5766   24.4725 O   0  0  0  0  0  0  0  0  0  0  0  0
    7.5492    8.2922   23.6569 N   0  0  0  0  0  0  0  0  0  0  0  0
    8.3480    9.0206   22.6578 C   0  0  0  0  0  0  0  0  0  0  0  0
    9.4007    9.8534   23.3386 C   0  0  0  0  0  0  0  0  0  0  0  0
   10.2235    9.0597   24.1796 O   0  0  0  0  0  0  0  0  0  0  0  0
    9.4302    8.4766   25.2122 C   0  0  0  0  0  0  0  0  0  0  0  0
    8.3618    7.5707   24.6533 C   0  0  0  0  0  0  0  0  0  0  0  0
    6.2462    7.5667   17.9258 N   0  0  0  0  0  0  0  0  0  0  0  0
    7.0916    7.0683   18.2038 H   0  0  0  0  0  0  0  0  0  0  0  0
    5.7597    6.9176   16.5182 S   0  0  0  0  0  0  0  0  0  0  0  0
    6.1053    7.8627   15.4952 O   0  0  0  0  0  0  0  0  0  0  0  0
    4.3873    6.5385   16.7067 O   0  0  0  0  0  0  0  0  0  0  0  0
    6.7005    5.4521   16.2459 C   0  0  0  0  0  0  0  0  0  0  0  0
    7.4976    4.9715   17.1950 C   0  0  0  0  0  0  0  0  0  0  0  0
    8.1932    3.6754   17.1886 C   0  0  0  0  0  0  0  0  0  0  0  0
    9.3303    3.5015   17.9818 C   0  0  0  0  0  0  0  0  0  0  0  0
   10.0253    2.3016   17.9975 C   0  0  0  0  0  0  0  0  0  0  0  0
    9.5752    1.2536   17.2233 C   0  0  0  0  0  0  0  0  0  0  0  0
   10.4461   -0.2613   17.2427 Cl  0  0  0  0  0  0  0  0  0  0  0  0
    8.4516    1.3790   16.4294 C   0  0  0  0  0  0  0  0  0  0  0  0
    7.7689    2.5876   16.4123 C   0  0  0  0  0  0  0  0  0  0  0  0
 15 14  1  0  0  0
 15 16  1  0  0  0
 14 13  1  0  0  0
 16 11  1  0  0  0
 13 12  1  0  0  0
 11 12  1  0  0  0
 11  9  1  0  0  0
 10  9  2  0  0  0
  9  8  1  0  0  0
  8  7  1  0  0  0
  8  1  1  0  0  0
  1  2  1  0  0  0
  1  5  1  0  0  0
  6  5  2  0  0  0
  2  3  1  0  0  0
  5  4  1  0  0  0
  3  4  1  0  0  0
 17  4  1  0  0  0
 17 19  1  0  0  0
 21 19  2  0  0  0
 19 22  1  0  0  0
 19 20  2  0  0  0
 22 23  2  0  0  0
 30 29  2  0  0  0
 30 24  1  0  0  0
 23 24  1  0  0  0
 29 27  1  0  0  0
 24 25  2  0  0  0
 27 28  1  0  0  0
 27 26  2  0  0  0
 25 26  1  0  0  0
 17 18  1  0  0  0
M  END
> <minimizedAffinity>
-7.31950

$$$$
4Y79_4O6_A_303


 30 32  0  0  0  0  0  0  0  0999 V2000
    6.5124    5.3639   18.9459 N   0  0  0  0  0  0  0  0  0  0  0  0
    6.5511    5.2719   20.4205 C   0  0  0  0  0  0  0  0  0  0  0  0
    6.4443    6.7235   20.8597 C   0  0  0  0  0  0  0  0  0  0  0  0
    7.1783    7.4467   19.7243 C   0  0  0  0  0  0  0  0  0  0  0  0
    6.8667    6.5903   18.5000 C   0  0  0  0  0  0  0  0  0  0  0  0
    6.9394    6.9298   17.3330 O   0  0  0  0  0  0  0  0  0  0  0  0
    5.0061    4.4716   17.1773 C   0  0  0  0  0  0  0  0  0  0  0  0
    6.2231    4.2242   18.0586 C   0  0  0  0  0  0  0  0  0  0  0  0
    7.4602    3.8869   17.2168 C   0  0  0  0  0  0  0  0  0  0  0  0
    7.5550    4.3031   16.0779 O   0  0  0  0  0  0  0  0  0  0  0  0
    8.4109    3.1001   17.7620 N   0  0  0  0  0  0  0  0  0  0  0  0
    8.3694    2.5924   19.1431 C   0  0  0  0  0  0  0  0  0  0  0  0
    8.7138    1.1276   19.1706 C   0  0  0  0  0  0  0  0  0  0  0  0
    9.9744    0.8817   18.5668 O   0  0  0  0  0  0  0  0  0  0  0  0
    9.9304    1.2672   17.1939 C   0  0  0  0  0  0  0  0  0  0  0  0
    9.6414    2.7389   17.0348 C   0  0  0  0  0  0  0  0  0  0  0  0
    6.8110    8.8548   19.5602 N   0  0  0  0  0  0  0  0  0  0  0  0
    5.8257    8.8738   19.2974 H   0  0  0  0  0  0  0  0  0  0  0  0
    6.9859    9.8876   20.8021 S   0  0  0  0  0  0  0  0  0  0  0  0
    5.7888    9.7841   21.5868 O   0  0  0  0  0  0  0  0  0  0  0  0
    7.3539   11.1492   20.2230 O   0  0  0  0  0  0  0  0  0  0  0  0
    8.3337    9.3231   21.7879 C   0  0  0  0  0  0  0  0  0  0  0  0
    8.3493    9.5339   23.1003 C   0  0  0  0  0  0  0  0  0  0  0  0
    9.2980    8.9689   24.0722 C   0  0  0  0  0  0  0  0  0  0  0  0
    8.8126    8.3572   25.2309 C   0  0  0  0  0  0  0  0  0  0  0  0
    9.6699    7.8225   26.1807 C   0  0  0  0  0  0  0  0  0  0  0  0
   11.0307    7.8844   25.9689 C   0  0  0  0  0  0  0  0  0  0  0  0
   12.1147    7.2089   27.1617 Cl  0  0  0  0  0  0  0  0  0  0  0  0
   11.5542    8.4737   24.8344 C   0  0  0  0  0  0  0  0  0  0  0  0
   10.6880    9.0157   23.8946 C   0  0  0  0  0  0  0  0  0  0  0  0
 15 14  1  0  0  0
 15 16  1  0  0  0
 14 13  1  0  0  0
 16 11  1  0  0  0
 13 12  1  0  0  0
 11 12  1  0  0  0
 11  9  1  0  0  0
 10  9  2  0  0  0
  9  8  1  0  0  0
  8  7  1  0  0  0
  8  1  1  0  0  0
  1  2  1  0  0  0
  1  5  1  0  0  0
  6  5  2  0  0  0
  2  3  1  0  0  0
  5  4  1  0  0  0
  3  4  1  0  0  0
 17  4  1  0  0  0
 17 19  1  0  0  0
 21 19  2  0  0  0
 19 22  1  0  0  0
 19 20  2  0  0  0
 22 23  2  0  0  0
 30 29  2  0  0  0
 30 24  1  0  0  0
 23 24  1  0  0  0
 29 27  1  0  0  0
 24 25  2  0  0  0
 27 28  1  0  0  0
 27 26  2  0  0  0
 25 26  1  0  0  0
 17 18  1  0  0  0
M  END
> <minimizedAffinity>
-7.11598

$$$$
4Y79_4O6_A_303


 30 32  0  0  0  0  0  0  0  0999 V2000
    5.3640    8.8851   16.9127 N   0  0  0  0  0  0  0  0  0  0  0  0
    5.2816   10.2268   17.5270 C   0  0  0  0  0  0  0  0  0  0  0  0
    6.2518   10.1323   18.6937 C   0  0  0  0  0  0  0  0  0  0  0  0
    6.1068    8.6611   19.1003 C   0  0  0  0  0  0  0  0  0  0  0  0
    5.8286    7.9542   17.7764 C   0  0  0  0  0  0  0  0  0  0  0  0
    5.9743    6.7696   17.5358 O   0  0  0  0  0  0  0  0  0  0  0  0
    4.0596    9.6989   14.9558 C   0  0  0  0  0  0  0  0  0  0  0  0
    4.8966    8.5745   15.5507 C   0  0  0  0  0  0  0  0  0  0  0  0
    6.0909    8.2339   14.6506 C   0  0  0  0  0  0  0  0  0  0  0  0
    6.9869    9.0415   14.4945 O   0  0  0  0  0  0  0  0  0  0  0  0
    6.1002    7.0397   14.0230 N   0  0  0  0  0  0  0  0  0  0  0  0
    5.0637    6.0089   14.1958 C   0  0  0  0  0  0  0  0  0  0  0  0
    4.6494    5.4568   12.8584 C   0  0  0  0  0  0  0  0  0  0  0  0
    5.7646    4.9533   12.1393 O   0  0  0  0  0  0  0  0  0  0  0  0
    6.6836    6.0131   11.8790 C   0  0  0  0  0  0  0  0  0  0  0  0
    7.2144    6.6195   13.1537 C   0  0  0  0  0  0  0  0  0  0  0  0
    7.2552    8.1125   19.8246 N   0  0  0  0  0  0  0  0  0  0  0  0
    7.7477    8.9037   20.2392 H   0  0  0  0  0  0  0  0  0  0  0  0
    7.0214    7.0298   21.0131 S   0  0  0  0  0  0  0  0  0  0  0  0
    5.6354    6.6619   20.9591 O   0  0  0  0  0  0  0  0  0  0  0  0
    7.5571    7.6244   22.2056 O   0  0  0  0  0  0  0  0  0  0  0  0
    7.9796    5.5992   20.6361 C   0  0  0  0  0  0  0  0  0  0  0  0
    7.5346    4.6932   19.7710 C   0  0  0  0  0  0  0  0  0  0  0  0
    8.2888    3.5576   19.2184 C   0  0  0  0  0  0  0  0  0  0  0  0
    7.9620    2.2578   19.6135 C   0  0  0  0  0  0  0  0  0  0  0  0
    8.6541    1.1583   19.1287 C   0  0  0  0  0  0  0  0  0  0  0  0
    9.6779    1.3526   18.2262 C   0  0  0  0  0  0  0  0  0  0  0  0
   10.5504   -0.0305   17.6101 Cl  0  0  0  0  0  0  0  0  0  0  0  0
   10.0302    2.6194   17.8028 C   0  0  0  0  0  0  0  0  0  0  0  0
    9.3385    3.7146   18.3022 C   0  0  0  0  0  0  0  0  0  0  0  0
 15 14  1  0  0  0
 15 16  1  0  0  0
 14 13  1  0  0  0
 16 11  1  0  0  0
 13 12  1  0  0  0
 11 12  1  0  0  0
 11  9  1  0  0  0
 10  9  2  0  0  0
  9  8  1  0  0  0
  8  7  1  0  0  0
  8  1  1  0  0  0
  1  2  1  0  0  0
  1  5  1  0  0  0
  6  5  2  0  0  0
  2  3  1  0  0  0
  5  4  1  0  0  0
  3  4  1  0  0  0
 17  4  1  0  0  0
 17 19  1  0  0  0
 21 19  2  0  0  0
 19 22  1  0  0  0
 19 20  2  0  0  0
 22 23  2  0  0  0
 30 29  2  0  0  0
 30 24  1  0  0  0
 23 24  1  0  0  0
 29 27  1  0  0  0
 24 25  2  0  0  0
 27 28  1  0  0  0
 27 26  2  0  0  0
 25 26  1  0  0  0
 17 18  1  0  0  0
M  END
> <minimizedAffinity>
-6.72278

$$$$
4Y79_4O6_A_303


 30 32  0  0  0  0  0  0  0  0999 V2000
    7.0540    8.7621   22.3757 N   0  0  0  0  0  0  0  0  0  0  0  0
    5.7196    9.3956   22.4248 C   0  0  0  0  0  0  0  0  0  0  0  0
    4.8137    8.2580   22.8681 C   0  0  0  0  0  0  0  0  0  0  0  0
    5.4980    7.0465   22.2240 C   0  0  0  0  0  0  0  0  0  0  0  0
    6.9782    7.4171   22.2580 C   0  0  0  0  0  0  0  0  0  0  0  0
    7.9244    6.6554   22.1748 O   0  0  0  0  0  0  0  0  0  0  0  0
    9.5347    8.5993   22.2626 C   0  0  0  0  0  0  0  0  0  0  0  0
    8.3205    9.5139   22.3523 C   0  0  0  0  0  0  0  0  0  0  0  0
    8.3054   10.5325   21.2056 C   0  0  0  0  0  0  0  0  0  0  0  0
    8.3780   11.7226   21.4460 O   0  0  0  0  0  0  0  0  0  0  0  0
    8.1801   10.0741   19.9430 N   0  0  0  0  0  0  0  0  0  0  0  0
    8.1202    8.6474   19.5856 C   0  0  0  0  0  0  0  0  0  0  0  0
    7.0087    8.4028   18.6008 C   0  0  0  0  0  0  0  0  0  0  0  0
    7.1504    9.2192   17.4485 O   0  0  0  0  0  0  0  0  0  0  0  0
    7.0716   10.5934   17.8234 C   0  0  0  0  0  0  0  0  0  0  0  0
    8.1744   10.9773   18.7779 C   0  0  0  0  0  0  0  0  0  0  0  0
    5.2024    5.7651   22.8683 N   0  0  0  0  0  0  0  0  0  0  0  0
    4.7701    5.9797   23.7669 H   0  0  0  0  0  0  0  0  0  0  0  0
    4.2363    4.6895   22.1272 S   0  0  0  0  0  0  0  0  0  0  0  0
    3.3342    5.4504   21.3108 O   0  0  0  0  0  0  0  0  0  0  0  0
    3.7189    3.8385   23.1619 O   0  0  0  0  0  0  0  0  0  0  0  0
    5.2395    3.7079   21.0610 C   0  0  0  0  0  0  0  0  0  0  0  0
    6.3815    4.1843   20.5752 C   0  0  0  0  0  0  0  0  0  0  0  0
    7.4063    3.4320   19.8353 C   0  0  0  0  0  0  0  0  0  0  0  0
    7.4808    2.0445   19.9824 C   0  0  0  0  0  0  0  0  0  0  0  0
    8.4385    1.2961   19.3148 C   0  0  0  0  0  0  0  0  0  0  0  0
    9.3273    1.9350   18.4768 C   0  0  0  0  0  0  0  0  0  0  0  0
   10.5336    0.9954   17.6309 Cl  0  0  0  0  0  0  0  0  0  0  0  0
    9.2856    3.3040   18.2962 C   0  0  0  0  0  0  0  0  0  0  0  0
    8.3300    4.0457   18.9773 C   0  0  0  0  0  0  0  0  0  0  0  0
 15 14  1  0  0  0
 15 16  1  0  0  0
 14 13  1  0  0  0
 16 11  1  0  0  0
 13 12  1  0  0  0
 11 12  1  0  0  0
 11  9  1  0  0  0
 10  9  2  0  0  0
  9  8  1  0  0  0
  8  7  1  0  0  0
  8  1  1  0  0  0
  1  2  1  0  0  0
  1  5  1  0  0  0
  6  5  2  0  0  0
  2  3  1  0  0  0
  5  4  1  0  0  0
  3  4  1  0  0  0
 17  4  1  0  0  0
 17 19  1  0  0  0
 21 19  2  0  0  0
 19 22  1  0  0  0
 19 20  2  0  0  0
 22 23  2  0  0  0
 30 29  2  0  0  0
 30 24  1  0  0  0
 23 24  1  0  0  0
 29 27  1  0  0  0
 24 25  2  0  0  0
 27 28  1  0  0  0
 27 26  2  0  0  0
 25 26  1  0  0  0
 17 18  1  0  0  0
M  END
> <minimizedAffinity>
-6.68685

$$$$
4Y79_4O6_A_303


 30 32  0  0  0  0  0  0  0  0999 V2000
    6.9642    4.1592   18.2509 N   0  0  0  0  0  0  0  0  0  0  0  0
    8.3682    4.1712   18.7124 C   0  0  0  0  0  0  0  0  0  0  0  0
    8.4672    5.4782   19.4826 C   0  0  0  0  0  0  0  0  0  0  0  0
    7.4962    6.3728   18.7031 C   0  0  0  0  0  0  0  0  0  0  0  0
    6.4229    5.3982   18.2260 C   0  0  0  0  0  0  0  0  0  0  0  0
    5.2926    5.6741   17.8674 O   0  0  0  0  0  0  0  0  0  0  0  0
    7.2213    1.9325   17.1699 C   0  0  0  0  0  0  0  0  0  0  0  0
    6.2660    2.9532   17.7736 C   0  0  0  0  0  0  0  0  0  0  0  0
    5.4418    2.3385   18.9119 C   0  0  0  0  0  0  0  0  0  0  0  0
    5.9891    1.9839   19.9385 O   0  0  0  0  0  0  0  0  0  0  0  0
    4.1150    2.1782   18.7279 N   0  0  0  0  0  0  0  0  0  0  0  0
    3.3904    2.6155   17.5235 C   0  0  0  0  0  0  0  0  0  0  0  0
    2.4602    1.5303   17.0520 C   0  0  0  0  0  0  0  0  0  0  0  0
    1.5644    1.1350   18.0794 O   0  0  0  0  0  0  0  0  0  0  0  0
    2.3018    0.5960   19.1754 C   0  0  0  0  0  0  0  0  0  0  0  0
    3.2412    1.6136   19.7725 C   0  0  0  0  0  0  0  0  0  0  0  0
    6.9611    7.5023   19.4662 N   0  0  0  0  0  0  0  0  0  0  0  0
    6.7284    7.1476   20.3938 H   0  0  0  0  0  0  0  0  0  0  0  0
    7.8666    8.8332   19.6859 S   0  0  0  0  0  0  0  0  0  0  0  0
    6.9699    9.8664   20.1191 O   0  0  0  0  0  0  0  0  0  0  0  0
    8.6240    9.0045   18.4777 O   0  0  0  0  0  0  0  0  0  0  0  0
    8.9963    8.5067   20.9990 C   0  0  0  0  0  0  0  0  0  0  0  0
    8.7362    8.9186   22.2359 C   0  0  0  0  0  0  0  0  0  0  0  0
    9.4782    8.5664   23.4562 C   0  0  0  0  0  0  0  0  0  0  0  0
    8.8167    7.9113   24.4981 C   0  0  0  0  0  0  0  0  0  0  0  0
    9.4726    7.5716   25.6717 C   0  0  0  0  0  0  0  0  0  0  0  0
   10.8105    7.8752   25.8064 C   0  0  0  0  0  0  0  0  0  0  0  0
   11.6419    7.4459   27.2823 Cl  0  0  0  0  0  0  0  0  0  0  0  0
   11.5057    8.5160   24.7991 C   0  0  0  0  0  0  0  0  0  0  0  0
   10.8375    8.8616   23.6323 C   0  0  0  0  0  0  0  0  0  0  0  0
 15 14  1  0  0  0
 15 16  1  0  0  0
 14 13  1  0  0  0
 16 11  1  0  0  0
 13 12  1  0  0  0
 11 12  1  0  0  0
 11  9  1  0  0  0
 10  9  2  0  0  0
  9  8  1  0  0  0
  8  7  1  0  0  0
  8  1  1  0  0  0
  1  2  1  0  0  0
  1  5  1  0  0  0
  6  5  2  0  0  0
  2  3  1  0  0  0
  5  4  1  0  0  0
  3  4  1  0  0  0
 17  4  1  0  0  0
 17 19  1  0  0  0
 21 19  2  0  0  0
 19 22  1  0  0  0
 19 20  2  0  0  0
 22 23  2  0  0  0
 30 29  2  0  0  0
 30 24  1  0  0  0
 23 24  1  0  0  0
 29 27  1  0  0  0
 24 25  2  0  0  0
 27 28  1  0  0  0
 27 26  2  0  0  0
 25 26  1  0  0  0
 17 18  1  0  0  0
M  END
> <minimizedAffinity>
-6.39797

$$$$
