2CLH_F19_A_1268


 24 25  0  0  0  0  0  0  0  0999 V2000
   48.6440   27.3624   14.8987 S   0  0  0  0  0  0  0  0  0  0  0  0
   47.7980   27.4998   16.0863 O   0  0  0  0  0  0  0  0  0  0  0  0
   49.6090   28.4275   14.7651 O   0  0  0  0  0  0  0  0  0  0  0  0
   51.7116   24.6095   14.8599 C   0  0  0  0  0  0  0  0  0  0  0  0
   50.9995   25.8017   15.0366 C   0  0  0  0  0  0  0  0  0  0  0  0
   49.5494   25.8133   15.0743 C   0  0  0  0  0  0  0  0  0  0  0  0
   48.8936   24.5754   15.2686 C   0  0  0  0  0  0  0  0  0  0  0  0
   49.5791   23.3097   15.0689 C   0  0  0  0  0  0  0  0  0  0  0  0
   51.0238   23.3321   14.8767 C   0  0  0  0  0  0  0  0  0  0  0  0
   51.7599   22.1137   14.7078 C   0  0  0  0  0  0  0  0  0  0  0  0
   50.9223   20.7914   14.8666 C   0  0  0  0  0  0  0  0  0  0  0  0
   49.5283   20.7511   15.2060 C   0  0  0  0  0  0  0  0  0  0  0  0
   48.8673   22.0446   15.0379 C   0  0  0  0  0  0  0  0  0  0  0  0
   47.7359   27.3994   13.4619 N   0  0  0  0  0  0  0  0  0  0  0  0
   47.0534   26.6437   13.5215 H   0  0  0  0  0  0  0  0  0  0  0  0
   47.0003   28.6113   13.1135 C   0  0  0  0  0  0  0  0  0  0  0  0
   46.3050   28.4079   11.7845 C   0  0  0  0  0  0  0  0  0  0  0  0
   47.2692   28.1190   10.7862 O   0  0  0  0  0  0  0  0  0  0  0  0
   46.9365   30.4525    9.5585 O   0  0  0  0  0  0  0  0  0  0  0  0
   48.9551   29.8906   10.5887 O   0  0  0  0  0  0  0  0  0  0  0  0
   47.7668   29.3426    9.8382 P   0  0  0  0  0  0  0  0  0  0  0  0
   48.1996   28.7502    8.5772 O   0  0  0  0  0  0  0  0  0  0  0  0
   48.6571   30.2819   11.4248 H   0  0  0  0  0  0  0  0  0  0  0  0
   47.4291   28.4011    8.1026 H   0  0  0  0  0  0  0  0  0  0  0  0
  4  5  2  0  0  0
  4  9  1  0  0  0
  5  6  1  0  0  0
  6  7  2  0  0  0
  6  1  1  0  0  0
  7  8  1  0  0  0
  8  9  2  0  0  0
  8 13  1  0  0  0
  9 10  1  0  0  0
 10 11  2  0  0  0
 11 12  1  0  0  0
 12 13  2  0  0  0
  1  2  2  0  0  0
  1  3  2  0  0  0
  1 14  1  0  0  0
 17 18  1  0  0  0
 17 16  1  0  0  0
 18 21  1  0  0  0
 16 14  1  0  0  0
 19 21  2  0  0  0
 20 21  1  0  0  0
 21 22  1  0  0  0
 14 15  1  0  0  0
 20 23  1  0  0  0
 22 24  1  0  0  0
M  END
> <minimizedAffinity>
-10.85746

$$$$
2CLH_F19_A_1268


 24 25  0  0  0  0  0  0  0  0999 V2000
   48.5433   26.7800   14.8750 S   0  0  0  0  0  0  0  0  0  0  0  0
   47.3564   26.5185   15.6921 O   0  0  0  0  0  0  0  0  0  0  0  0
   49.3286   27.8911   15.3569 O   0  0  0  0  0  0  0  0  0  0  0  0
   51.7905   24.2629   14.5428 C   0  0  0  0  0  0  0  0  0  0  0  0
   51.0101   25.3972   14.7958 C   0  0  0  0  0  0  0  0  0  0  0  0
   49.5711   25.3007   14.9516 C   0  0  0  0  0  0  0  0  0  0  0  0
   49.0259   24.0158   15.1792 C   0  0  0  0  0  0  0  0  0  0  0  0
   49.7834   22.8064   14.9043 C   0  0  0  0  0  0  0  0  0  0  0  0
   51.2018   22.9379   14.5954 C   0  0  0  0  0  0  0  0  0  0  0  0
   52.0086   21.7792   14.3479 C   0  0  0  0  0  0  0  0  0  0  0  0
   51.2860   20.3969   14.5535 C   0  0  0  0  0  0  0  0  0  0  0  0
   49.9315   20.2500   15.0046 C   0  0  0  0  0  0  0  0  0  0  0  0
   49.1660   21.4923   14.9114 C   0  0  0  0  0  0  0  0  0  0  0  0
   48.1382   27.1807   13.2731 N   0  0  0  0  0  0  0  0  0  0  0  0
   47.4108   26.5294   12.9782 H   0  0  0  0  0  0  0  0  0  0  0  0
   47.6533   28.5248   12.9744 C   0  0  0  0  0  0  0  0  0  0  0  0
   47.0188   28.5321   11.6002 C   0  0  0  0  0  0  0  0  0  0  0  0
   47.4758   29.6612   10.8748 O   0  0  0  0  0  0  0  0  0  0  0  0
   46.6688   31.2023    8.8656 O   0  0  0  0  0  0  0  0  0  0  0  0
   47.8854   29.2447    8.4919 O   0  0  0  0  0  0  0  0  0  0  0  0
   46.8654   29.9028    9.3874 P   0  0  0  0  0  0  0  0  0  0  0  0
   45.6016   29.1763    9.3268 O   0  0  0  0  0  0  0  0  0  0  0  0
   48.7212   29.7346    8.5391 H   0  0  0  0  0  0  0  0  0  0  0  0
   44.9531   29.6070    9.9055 H   0  0  0  0  0  0  0  0  0  0  0  0
  4  5  2  0  0  0
  4  9  1  0  0  0
  5  6  1  0  0  0
  6  7  2  0  0  0
  6  1  1  0  0  0
  7  8  1  0  0  0
  8  9  2  0  0  0
  8 13  1  0  0  0
  9 10  1  0  0  0
 10 11  2  0  0  0
 11 12  1  0  0  0
 12 13  2  0  0  0
  1  2  2  0  0  0
  1  3  2  0  0  0
  1 14  1  0  0  0
 17 18  1  0  0  0
 17 16  1  0  0  0
 18 21  1  0  0  0
 16 14  1  0  0  0
 19 21  2  0  0  0
 20 21  1  0  0  0
 21 22  1  0  0  0
 14 15  1  0  0  0
 20 23  1  0  0  0
 22 24  1  0  0  0
M  END
> <minimizedAffinity>
-10.30710

$$$$
2CLH_F19_A_1268


 24 25  0  0  0  0  0  0  0  0999 V2000
   49.0513   27.0271   15.5077 S   0  0  0  0  0  0  0  0  0  0  0  0
   48.5981   27.1676   16.8933 O   0  0  0  0  0  0  0  0  0  0  0  0
   50.2986   27.7060   15.2487 O   0  0  0  0  0  0  0  0  0  0  0  0
   48.5774   22.9355   15.6633 C   0  0  0  0  0  0  0  0  0  0  0  0
   48.2902   24.3036   15.5909 C   0  0  0  0  0  0  0  0  0  0  0  0
   49.3073   25.2668   15.2139 C   0  0  0  0  0  0  0  0  0  0  0  0
   50.4803   24.7684   14.6010 C   0  0  0  0  0  0  0  0  0  0  0  0
   50.8396   23.3621   14.6727 C   0  0  0  0  0  0  0  0  0  0  0  0
   49.8553   22.4263   15.2020 C   0  0  0  0  0  0  0  0  0  0  0  0
   50.1390   21.0227   15.2670 C   0  0  0  0  0  0  0  0  0  0  0  0
   51.5058   20.5798   14.6259 C   0  0  0  0  0  0  0  0  0  0  0  0
   52.4172   21.4704   13.9655 C   0  0  0  0  0  0  0  0  0  0  0  0
   52.1424   22.8774   14.2536 C   0  0  0  0  0  0  0  0  0  0  0  0
   47.9426   27.6930   14.4042 N   0  0  0  0  0  0  0  0  0  0  0  0
   47.6648   28.6024   14.7734 H   0  0  0  0  0  0  0  0  0  0  0  0
   48.3528   27.9029   13.0190 C   0  0  0  0  0  0  0  0  0  0  0  0
   47.1737   28.4190   12.2224 C   0  0  0  0  0  0  0  0  0  0  0  0
   47.3579   28.1094   10.8513 O   0  0  0  0  0  0  0  0  0  0  0  0
   46.9463   30.3964    9.5618 O   0  0  0  0  0  0  0  0  0  0  0  0
   48.9977   29.9121   10.5663 O   0  0  0  0  0  0  0  0  0  0  0  0
   47.8077   29.3147    9.8572 P   0  0  0  0  0  0  0  0  0  0  0  0
   48.2290   28.6944    8.6057 O   0  0  0  0  0  0  0  0  0  0  0  0
   48.7074   30.3216   11.3963 H   0  0  0  0  0  0  0  0  0  0  0  0
   47.4575   28.3136    8.1578 H   0  0  0  0  0  0  0  0  0  0  0  0
  4  5  2  0  0  0
  4  9  1  0  0  0
  5  6  1  0  0  0
  6  7  2  0  0  0
  6  1  1  0  0  0
  7  8  1  0  0  0
  8  9  2  0  0  0
  8 13  1  0  0  0
  9 10  1  0  0  0
 10 11  2  0  0  0
 11 12  1  0  0  0
 12 13  2  0  0  0
  1  2  2  0  0  0
  1  3  2  0  0  0
  1 14  1  0  0  0
 17 18  1  0  0  0
 17 16  1  0  0  0
 18 21  1  0  0  0
 16 14  1  0  0  0
 19 21  2  0  0  0
 20 21  1  0  0  0
 21 22  1  0  0  0
 14 15  1  0  0  0
 20 23  1  0  0  0
 22 24  1  0  0  0
M  END
> <minimizedAffinity>
-9.28291

$$$$
2CLH_F19_A_1268


 24 25  0  0  0  0  0  0  0  0999 V2000
   50.2518   27.4472   15.2149 S   0  0  0  0  0  0  0  0  0  0  0  0
   51.3743   28.0600   15.9285 O   0  0  0  0  0  0  0  0  0  0  0  0
   50.1175   27.9210   13.8580 O   0  0  0  0  0  0  0  0  0  0  0  0
   52.1765   23.8472   14.6442 C   0  0  0  0  0  0  0  0  0  0  0  0
   51.9269   25.1775   15.0018 C   0  0  0  0  0  0  0  0  0  0  0  0
   50.5724   25.6742   15.1534 C   0  0  0  0  0  0  0  0  0  0  0  0
   49.5371   24.7173   15.2654 C   0  0  0  0  0  0  0  0  0  0  0  0
   49.7355   23.3304   14.8792 C   0  0  0  0  0  0  0  0  0  0  0  0
   51.0910   22.8868   14.5785 C   0  0  0  0  0  0  0  0  0  0  0  0
   51.3544   21.5230   14.2240 C   0  0  0  0  0  0  0  0  0  0  0  0
   50.1181   20.5534   14.3059 C   0  0  0  0  0  0  0  0  0  0  0  0
   48.8094   20.9446   14.7467 C   0  0  0  0  0  0  0  0  0  0  0  0
   48.6300   22.3956   14.7693 C   0  0  0  0  0  0  0  0  0  0  0  0
   48.7614   27.7904   15.9575 N   0  0  0  0  0  0  0  0  0  0  0  0
   48.6098   28.7953   15.8704 H   0  0  0  0  0  0  0  0  0  0  0  0
   47.5526   27.1333   15.4692 C   0  0  0  0  0  0  0  0  0  0  0  0
   46.5804   28.1822   14.9735 C   0  0  0  0  0  0  0  0  0  0  0  0
   47.1399   28.8556   13.8585 O   0  0  0  0  0  0  0  0  0  0  0  0
   45.6372   27.7070   11.9916 O   0  0  0  0  0  0  0  0  0  0  0  0
   47.1942   29.3634   11.4587 O   0  0  0  0  0  0  0  0  0  0  0  0
   46.8983   28.2107   12.3858 P   0  0  0  0  0  0  0  0  0  0  0  0
   47.8973   27.1611   12.2157 O   0  0  0  0  0  0  0  0  0  0  0  0
   46.5252   30.0553   11.5793 H   0  0  0  0  0  0  0  0  0  0  0  0
   47.6983   26.4252   12.8155 H   0  0  0  0  0  0  0  0  0  0  0  0
  4  5  2  0  0  0
  4  9  1  0  0  0
  5  6  1  0  0  0
  6  7  2  0  0  0
  6  1  1  0  0  0
  7  8  1  0  0  0
  8  9  2  0  0  0
  8 13  1  0  0  0
  9 10  1  0  0  0
 10 11  2  0  0  0
 11 12  1  0  0  0
 12 13  2  0  0  0
  1  2  2  0  0  0
  1  3  2  0  0  0
  1 14  1  0  0  0
 17 18  1  0  0  0
 17 16  1  0  0  0
 18 21  1  0  0  0
 16 14  1  0  0  0
 19 21  2  0  0  0
 20 21  1  0  0  0
 21 22  1  0  0  0
 14 15  1  0  0  0
 20 23  1  0  0  0
 22 24  1  0  0  0
M  END
> <minimizedAffinity>
-8.38352

$$$$
2CLH_F19_A_1268


 24 25  0  0  0  0  0  0  0  0999 V2000
   49.4984   21.4212   15.1390 S   0  0  0  0  0  0  0  0  0  0  0  0
   50.3752   20.8219   16.1474 O   0  0  0  0  0  0  0  0  0  0  0  0
   48.1072   21.4167   15.5241 O   0  0  0  0  0  0  0  0  0  0  0  0
   51.8357   24.8163   15.1347 C   0  0  0  0  0  0  0  0  0  0  0  0
   51.4216   23.4892   14.9711 C   0  0  0  0  0  0  0  0  0  0  0  0
   50.0143   23.1379   14.9466 C   0  0  0  0  0  0  0  0  0  0  0  0
   49.0853   24.1862   14.7512 C   0  0  0  0  0  0  0  0  0  0  0  0
   49.4566   25.5788   14.9377 C   0  0  0  0  0  0  0  0  0  0  0  0
   50.8677   25.8968   15.1169 C   0  0  0  0  0  0  0  0  0  0  0  0
   51.2990   27.2550   15.2723 C   0  0  0  0  0  0  0  0  0  0  0  0
   50.1738   28.3431   15.1136 C   0  0  0  0  0  0  0  0  0  0  0  0
   48.8067   28.0531   14.7867 C   0  0  0  0  0  0  0  0  0  0  0  0
   48.4684   26.6421   14.9679 C   0  0  0  0  0  0  0  0  0  0  0  0
   49.5561   20.5791   13.6632 N   0  0  0  0  0  0  0  0  0  0  0  0
   49.9466   21.2183   12.9708 H   0  0  0  0  0  0  0  0  0  0  0  0
   50.3221   19.3393   13.5783 C   0  0  0  0  0  0  0  0  0  0  0  0
   51.1549   19.3532   12.3144 C   0  0  0  0  0  0  0  0  0  0  0  0
   52.1753   20.3303   12.4317 O   0  0  0  0  0  0  0  0  0  0  0  0
   54.2772   20.2823   10.8060 O   0  0  0  0  0  0  0  0  0  0  0  0
   52.0934   20.2148    9.9822 O   0  0  0  0  0  0  0  0  0  0  0  0
   52.9737   20.7565   11.0810 P   0  0  0  0  0  0  0  0  0  0  0  0
   52.9862   22.2148   11.0406 O   0  0  0  0  0  0  0  0  0  0  0  0
   52.0917   19.2454   10.0176 H   0  0  0  0  0  0  0  0  0  0  0  0
   53.5544   22.5530   11.7503 H   0  0  0  0  0  0  0  0  0  0  0  0
  4  5  2  0  0  0
  4  9  1  0  0  0
  5  6  1  0  0  0
  6  7  2  0  0  0
  6  1  1  0  0  0
  7  8  1  0  0  0
  8  9  2  0  0  0
  8 13  1  0  0  0
  9 10  1  0  0  0
 10 11  2  0  0  0
 11 12  1  0  0  0
 12 13  2  0  0  0
  1  2  2  0  0  0
  1  3  2  0  0  0
  1 14  1  0  0  0
 17 18  1  0  0  0
 17 16  1  0  0  0
 18 21  1  0  0  0
 16 14  1  0  0  0
 19 21  2  0  0  0
 20 21  1  0  0  0
 21 22  1  0  0  0
 14 15  1  0  0  0
 20 23  1  0  0  0
 22 24  1  0  0  0
M  END
> <minimizedAffinity>
-8.25184

$$$$
2CLH_F19_A_1268


 24 25  0  0  0  0  0  0  0  0999 V2000
   52.2599   24.8524   15.0974 S   0  0  0  0  0  0  0  0  0  0  0  0
   53.0698   24.7383   16.3122 O   0  0  0  0  0  0  0  0  0  0  0  0
   53.0295   25.2374   13.9384 O   0  0  0  0  0  0  0  0  0  0  0  0
   50.5046   21.1730   15.7064 C   0  0  0  0  0  0  0  0  0  0  0  0
   50.7936   22.5391   15.8059 C   0  0  0  0  0  0  0  0  0  0  0  0
   51.5565   23.2232   14.7791 C   0  0  0  0  0  0  0  0  0  0  0  0
   51.7045   22.5692   13.5339 C   0  0  0  0  0  0  0  0  0  0  0  0
   51.4463   21.1469   13.3842 C   0  0  0  0  0  0  0  0  0  0  0  0
   50.8169   20.4411   14.4933 C   0  0  0  0  0  0  0  0  0  0  0  0
   50.5071   19.0451   14.3925 C   0  0  0  0  0  0  0  0  0  0  0  0
   50.7809   18.3926   12.9874 C   0  0  0  0  0  0  0  0  0  0  0  0
   51.2589   19.1102   11.8400 C   0  0  0  0  0  0  0  0  0  0  0  0
   51.8121   20.4199   12.1818 C   0  0  0  0  0  0  0  0  0  0  0  0
   51.0521   26.0396   15.2462 N   0  0  0  0  0  0  0  0  0  0  0  0
   51.3201   26.8146   14.6396 H   0  0  0  0  0  0  0  0  0  0  0  0
   49.6714   25.6984   14.9166 C   0  0  0  0  0  0  0  0  0  0  0  0
   48.9087   26.9649   14.5921 C   0  0  0  0  0  0  0  0  0  0  0  0
   48.2854   26.8298   13.3260 O   0  0  0  0  0  0  0  0  0  0  0  0
   46.9674   29.1205   13.6065 O   0  0  0  0  0  0  0  0  0  0  0  0
   48.4452   28.7701   11.8329 O   0  0  0  0  0  0  0  0  0  0  0  0
   47.4528   28.1031   12.7527 P   0  0  0  0  0  0  0  0  0  0  0  0
   46.3372   27.5653   11.9816 O   0  0  0  0  0  0  0  0  0  0  0  0
   49.1823   29.1241   12.3547 H   0  0  0  0  0  0  0  0  0  0  0  0
   45.7053   27.1389   12.5815 H   0  0  0  0  0  0  0  0  0  0  0  0
  4  5  2  0  0  0
  4  9  1  0  0  0
  5  6  1  0  0  0
  6  7  2  0  0  0
  6  1  1  0  0  0
  7  8  1  0  0  0
  8  9  2  0  0  0
  8 13  1  0  0  0
  9 10  1  0  0  0
 10 11  2  0  0  0
 11 12  1  0  0  0
 12 13  2  0  0  0
  1  2  2  0  0  0
  1  3  2  0  0  0
  1 14  1  0  0  0
 17 18  1  0  0  0
 17 16  1  0  0  0
 18 21  1  0  0  0
 16 14  1  0  0  0
 19 21  2  0  0  0
 20 21  1  0  0  0
 21 22  1  0  0  0
 14 15  1  0  0  0
 20 23  1  0  0  0
 22 24  1  0  0  0
M  END
> <minimizedAffinity>
-8.16760

$$$$
2CLH_F19_A_1268


 24 25  0  0  0  0  0  0  0  0999 V2000
   47.3855   29.1372    9.9157 S   0  0  0  0  0  0  0  0  0  0  0  0
   48.2089   28.2808    9.0593 O   0  0  0  0  0  0  0  0  0  0  0  0
   46.0046   28.7204    9.9726 O   0  0  0  0  0  0  0  0  0  0  0  0
   49.9570   29.5244   13.1137 C   0  0  0  0  0  0  0  0  0  0  0  0
   49.2281   29.8117   11.9536 C   0  0  0  0  0  0  0  0  0  0  0  0
   48.0667   29.0263   11.5812 C   0  0  0  0  0  0  0  0  0  0  0  0
   47.4956   28.1976   12.5749 C   0  0  0  0  0  0  0  0  0  0  0  0
   48.2217   27.8448   13.7833 C   0  0  0  0  0  0  0  0  0  0  0  0
   49.4726   28.5391   14.0622 C   0  0  0  0  0  0  0  0  0  0  0  0
   50.2169   28.2582   15.2547 C   0  0  0  0  0  0  0  0  0  0  0  0
   49.5295   27.2630   16.2607 C   0  0  0  0  0  0  0  0  0  0  0  0
   48.2284   26.6880   16.0700 C   0  0  0  0  0  0  0  0  0  0  0  0
   47.7474   26.8196   14.6954 C   0  0  0  0  0  0  0  0  0  0  0  0
   47.3447   30.7433    9.3597 N   0  0  0  0  0  0  0  0  0  0  0  0
   48.1395   30.8610    8.7312 H   0  0  0  0  0  0  0  0  0  0  0  0
   46.1638   31.2224    8.6476 C   0  0  0  0  0  0  0  0  0  0  0  0
   46.4709   31.2988    7.1674 C   0  0  0  0  0  0  0  0  0  0  0  0
   47.2936   32.4250    6.9131 O   0  0  0  0  0  0  0  0  0  0  0  0
   48.7312   32.8127    4.7117 O   0  0  0  0  0  0  0  0  0  0  0  0
   46.5591   31.9610    4.6185 O   0  0  0  0  0  0  0  0  0  0  0  0
   47.4806   32.8918    5.3670 P   0  0  0  0  0  0  0  0  0  0  0  0
   46.9896   34.2627    5.2778 O   0  0  0  0  0  0  0  0  0  0  0  0
   46.8939   31.0530    4.6838 H   0  0  0  0  0  0  0  0  0  0  0  0
   47.5884   34.8528    5.7617 H   0  0  0  0  0  0  0  0  0  0  0  0
  4  5  2  0  0  0
  4  9  1  0  0  0
  5  6  1  0  0  0
  6  7  2  0  0  0
  6  1  1  0  0  0
  7  8  1  0  0  0
  8  9  2  0  0  0
  8 13  1  0  0  0
  9 10  1  0  0  0
 10 11  2  0  0  0
 11 12  1  0  0  0
 12 13  2  0  0  0
  1  2  2  0  0  0
  1  3  2  0  0  0
  1 14  1  0  0  0
 17 18  1  0  0  0
 17 16  1  0  0  0
 18 21  1  0  0  0
 16 14  1  0  0  0
 19 21  2  0  0  0
 20 21  1  0  0  0
 21 22  1  0  0  0
 14 15  1  0  0  0
 20 23  1  0  0  0
 22 24  1  0  0  0
M  END
> <minimizedAffinity>
-8.13583

$$$$
2CLH_F19_A_1268


 24 25  0  0  0  0  0  0  0  0999 V2000
   48.8798   28.9104   13.6978 S   0  0  0  0  0  0  0  0  0  0  0  0
   47.6686   29.4247   14.3408 O   0  0  0  0  0  0  0  0  0  0  0  0
   50.0793   29.5913   14.1235 O   0  0  0  0  0  0  0  0  0  0  0  0
   48.1895   25.2992   15.5615 C   0  0  0  0  0  0  0  0  0  0  0  0
   47.9749   26.5263   14.9228 C   0  0  0  0  0  0  0  0  0  0  0  0
   49.0300   27.1767   14.1691 C   0  0  0  0  0  0  0  0  0  0  0  0
   50.1536   26.3944   13.8144 C   0  0  0  0  0  0  0  0  0  0  0  0
   50.4380   25.1280   14.4680 C   0  0  0  0  0  0  0  0  0  0  0  0
   49.4220   24.5642   15.3482 C   0  0  0  0  0  0  0  0  0  0  0  0
   49.6310   23.3021   15.9950 C   0  0  0  0  0  0  0  0  0  0  0  0
   50.9500   22.5463   15.5901 C   0  0  0  0  0  0  0  0  0  0  0  0
   51.8865   23.0187   14.6104 C   0  0  0  0  0  0  0  0  0  0  0  0
   51.6982   24.4312   14.2825 C   0  0  0  0  0  0  0  0  0  0  0  0
   48.8340   29.1001   12.0089 N   0  0  0  0  0  0  0  0  0  0  0  0
   49.7687   28.8882   11.6600 H   0  0  0  0  0  0  0  0  0  0  0  0
   47.8958   28.3012   11.2260 C   0  0  0  0  0  0  0  0  0  0  0  0
   47.8062   28.8678    9.8253 C   0  0  0  0  0  0  0  0  0  0  0  0
   47.4092   30.2272    9.8901 O   0  0  0  0  0  0  0  0  0  0  0  0
   46.5406   30.7417    7.4316 O   0  0  0  0  0  0  0  0  0  0  0  0
   45.1489   29.7851    9.0441 O   0  0  0  0  0  0  0  0  0  0  0  0
   46.2945   30.7416    8.8241 P   0  0  0  0  0  0  0  0  0  0  0  0
   45.9093   32.0880    9.2331 O   0  0  0  0  0  0  0  0  0  0  0  0
   45.4148   28.8936    8.7695 H   0  0  0  0  0  0  0  0  0  0  0  0
   46.6519   32.6949    9.0878 H   0  0  0  0  0  0  0  0  0  0  0  0
  4  5  2  0  0  0
  4  9  1  0  0  0
  5  6  1  0  0  0
  6  7  2  0  0  0
  6  1  1  0  0  0
  7  8  1  0  0  0
  8  9  2  0  0  0
  8 13  1  0  0  0
  9 10  1  0  0  0
 10 11  2  0  0  0
 11 12  1  0  0  0
 12 13  2  0  0  0
  1  2  2  0  0  0
  1  3  2  0  0  0
  1 14  1  0  0  0
 17 18  1  0  0  0
 17 16  1  0  0  0
 18 21  1  0  0  0
 16 14  1  0  0  0
 19 21  2  0  0  0
 20 21  1  0  0  0
 21 22  1  0  0  0
 14 15  1  0  0  0
 20 23  1  0  0  0
 22 24  1  0  0  0
M  END
> <minimizedAffinity>
-7.95329

$$$$
