4HDB_G52_A_401


 44 48  0  0  0  0  0  0  0  0999 V2000
   17.3744   22.9367   16.4426 C   0  0  0  0  0  0  0  0  0  0  0  0
   18.3540   24.0081   16.6417 N   0  0  0  0  0  0  0  0  0  0  0  0
   18.0827   25.2629   17.0174 C   0  0  0  0  0  0  0  0  0  0  0  0
   16.9349   25.6423   17.2830 O   0  0  0  0  0  0  0  0  0  0  0  0
   19.2995   23.7835   16.4844 H   0  0  0  0  0  0  0  0  0  0  0  0
   19.1639   26.0846   17.0627 O   0  0  0  0  0  0  0  0  0  0  0  0
   20.0287   25.9741   15.9278 C   0  0  0  0  0  0  0  0  0  0  0  0
   19.7699   27.2050   15.0532 C   0  0  0  0  0  0  0  0  0  0  0  0
   20.4936   28.2861   15.6622 O   0  0  0  0  0  0  0  0  0  0  0  0
   21.5223   27.7382   16.4728 C   0  0  0  0  0  0  0  0  0  0  0  0
   21.2519   28.0834   17.8259 O   0  0  0  0  0  0  0  0  0  0  0  0
   21.3132   26.9664   18.6804 C   0  0  0  0  0  0  0  0  0  0  0  0
   21.7270   25.7634   17.8367 C   0  0  0  0  0  0  0  0  0  0  0  0
   21.4715   26.2295   16.3955 C   0  0  0  0  0  0  0  0  0  0  0  0
   22.3823   27.1613   19.6136 O   0  0  0  0  0  0  0  0  0  0  0  0
   23.5863   26.9012   18.8734 C   0  0  0  0  0  0  0  0  0  0  0  0
   23.2184   25.6156   18.1394 C   0  0  0  0  0  0  0  0  0  0  0  0
   17.9366   21.6333   17.0140 C   0  0  0  0  0  0  0  0  0  0  0  0
   18.5070   20.8321   15.9740 O   0  0  0  0  0  0  0  0  0  0  0  0
   17.8159   20.5865   15.3391 H   0  0  0  0  0  0  0  0  0  0  0  0
   16.8983   20.8639   17.8314 C   0  0  0  0  0  0  0  0  0  0  0  0
   16.6826   21.5127   19.1249 N   0  0  0  0  0  0  0  0  0  0  0  0
   15.1228   21.6013   19.6240 S   0  0  0  0  0  0  0  0  0  0  0  0
   14.4971   22.8085   19.0098 O   0  0  0  0  0  0  0  0  0  0  0  0
   15.1004   21.6506   21.1136 O   0  0  0  0  0  0  0  0  0  0  0  0
   12.7728   17.9310   18.2366 C   0  0  0  0  0  0  0  0  0  0  0  0
   13.6663   17.8514   19.3084 C   0  0  0  0  0  0  0  0  0  0  0  0
   14.3907   18.9596   19.7348 C   0  0  0  0  0  0  0  0  0  0  0  0
   14.2488   20.1780   19.0722 C   0  0  0  0  0  0  0  0  0  0  0  0
   13.3780   20.2406   17.9972 C   0  0  0  0  0  0  0  0  0  0  0  0
   12.6513   19.1413   17.5470 C   0  0  0  0  0  0  0  0  0  0  0  0
   12.0219   16.8459   17.9259 O   0  0  0  0  0  0  0  0  0  0  0  0
   11.1279   17.1077   16.8418 C   0  0  0  0  0  0  0  0  0  0  0  0
   17.6370   21.1311   20.1453 C   0  0  0  0  0  0  0  0  0  0  0  0
   18.5713   22.2767   20.5663 C   0  0  0  0  0  0  0  0  0  0  0  0
   19.9240   22.2242   19.8394 C   0  0  0  0  0  0  0  0  0  0  0  0
   17.9043   23.6255   20.2368 C   0  0  0  0  0  0  0  0  0  0  0  0
   17.1187   22.8122   14.9383 C   0  0  0  0  0  0  0  0  0  0  0  0
   15.2852   21.5832   13.6920 C   0  0  0  0  0  0  0  0  0  0  0  0
   13.9415   21.3024   13.4487 C   0  0  0  0  0  0  0  0  0  0  0  0
   12.9392   21.9180   14.2011 C   0  0  0  0  0  0  0  0  0  0  0  0
   13.3100   22.7796   15.2318 C   0  0  0  0  0  0  0  0  0  0  0  0
   14.6561   23.0774   15.4611 C   0  0  0  0  0  0  0  0  0  0  0  0
   15.6420   22.4857   14.6854 C   0  0  0  0  0  0  0  0  0  0  0  0
 27 26  2  0  0  0
 32 26  1  0  0  0
 26 31  1  0  0  0
 27 28  1  0  0  0
 28 29  2  0  0  0
 29 30  1  0  0  0
 29 23  1  0  0  0
 31 30  2  0  0  0
 24 23  2  0  0  0
 23 25  2  0  0  0
 23 22  1  0  0  0
 22 21  1  0  0  0
 22 34  1  0  0  0
 34 35  1  0  0  0
 36 35  1  0  0  0
 35 37  1  0  0  0
 21 18  1  0  0  0
  1 18  1  0  0  0
 18 19  1  0  0  0
 38  1  1  0  0  0
  1  2  1  0  0  0
  2  3  1  0  0  0
  4  3  2  0  0  0
  3  6  1  0  0  0
  6  7  1  0  0  0
 14  7  1  0  0  0
  7  8  1  0  0  0
  9  8  1  0  0  0
 10  9  1  0  0  0
 14 10  1  0  0  0
 11 10  1  0  0  0
 12 11  1  0  0  0
 15 12  1  0  0  0
 13 12  1  0  0  0
 17 13  1  0  0  0
 13 14  1  0  0  0
 44 38  1  0  0  0
 40 39  2  0  0  0
 39 44  1  0  0  0
 41 40  1  0  0  0
 41 42  2  0  0  0
 42 43  1  0  0  0
 43 44  2  0  0  0
 32 33  1  0  0  0
 16 15  1  0  0  0
 17 16  1  0  0  0
 19 20  1  0  0  0
  2  5  1  0  0  0
M  END
> <minimizedAffinity>
-10.08006

$$$$
4HDB_G52_A_401


 44 48  0  0  0  0  0  0  0  0999 V2000
   19.5813   23.2560   18.7680 C   0  0  0  0  0  0  0  0  0  0  0  0
   19.8744   24.5531   18.1528 N   0  0  0  0  0  0  0  0  0  0  0  0
   19.8703   24.8218   16.8425 C   0  0  0  0  0  0  0  0  0  0  0  0
   19.5657   23.9749   15.9927 O   0  0  0  0  0  0  0  0  0  0  0  0
   20.0948   25.2958   18.7603 H   0  0  0  0  0  0  0  0  0  0  0  0
   20.2455   26.0884   16.5249 O   0  0  0  0  0  0  0  0  0  0  0  0
   20.5697   26.2719   15.1432 C   0  0  0  0  0  0  0  0  0  0  0  0
   19.6843   27.4116   14.6289 C   0  0  0  0  0  0  0  0  0  0  0  0
   20.3055   28.6293   15.0699 O   0  0  0  0  0  0  0  0  0  0  0  0
   21.6751   28.3651   15.3343 C   0  0  0  0  0  0  0  0  0  0  0  0
   21.9056   28.5668   16.7234 O   0  0  0  0  0  0  0  0  0  0  0  0
   22.5812   27.4812   17.3118 C   0  0  0  0  0  0  0  0  0  0  0  0
   22.8944   26.4786   16.2040 C   0  0  0  0  0  0  0  0  0  0  0  0
   21.9673   26.9082   15.0571 C   0  0  0  0  0  0  0  0  0  0  0  0
   23.8550   27.9354   17.7839 O   0  0  0  0  0  0  0  0  0  0  0  0
   24.6753   28.0566   16.6101 C   0  0  0  0  0  0  0  0  0  0  0  0
   24.3659   26.7488   15.8885 C   0  0  0  0  0  0  0  0  0  0  0  0
   18.0689   23.1236   18.9582 C   0  0  0  0  0  0  0  0  0  0  0  0
   17.6757   23.6308   20.2376 O   0  0  0  0  0  0  0  0  0  0  0  0
   18.0947   23.1047   20.9366 H   0  0  0  0  0  0  0  0  0  0  0  0
   17.5793   21.6932   18.7294 C   0  0  0  0  0  0  0  0  0  0  0  0
   16.2380   21.6989   18.1450 N   0  0  0  0  0  0  0  0  0  0  0  0
   14.9973   21.5957   19.2127 S   0  0  0  0  0  0  0  0  0  0  0  0
   14.0973   22.7678   19.0074 O   0  0  0  0  0  0  0  0  0  0  0  0
   15.5580   21.5503   20.5931 O   0  0  0  0  0  0  0  0  0  0  0  0
   12.5412   17.8098   18.4692 C   0  0  0  0  0  0  0  0  0  0  0  0
   13.5893   17.8185   19.3937 C   0  0  0  0  0  0  0  0  0  0  0  0
   14.3466   18.9623   19.6234 C   0  0  0  0  0  0  0  0  0  0  0  0
   14.0796   20.1269   18.9051 C   0  0  0  0  0  0  0  0  0  0  0  0
   13.0539   20.1012   17.9751 C   0  0  0  0  0  0  0  0  0  0  0  0
   12.2903   18.9645   17.7217 C   0  0  0  0  0  0  0  0  0  0  0  0
   11.7747   16.6973   18.3560 O   0  0  0  0  0  0  0  0  0  0  0  0
   11.2200   16.5620   17.0457 C   0  0  0  0  0  0  0  0  0  0  0  0
   16.0594   22.6664   17.0820 C   0  0  0  0  0  0  0  0  0  0  0  0
   15.4134   22.0738   15.8195 C   0  0  0  0  0  0  0  0  0  0  0  0
   14.0908   22.7680   15.4594 C   0  0  0  0  0  0  0  0  0  0  0  0
   16.3776   22.2367   14.6293 C   0  0  0  0  0  0  0  0  0  0  0  0
   20.3112   23.2020   20.1128 C   0  0  0  0  0  0  0  0  0  0  0  0
   21.9994   24.9961   20.7099 C   0  0  0  0  0  0  0  0  0  0  0  0
   23.2489   25.5996   20.5756 C   0  0  0  0  0  0  0  0  0  0  0  0
   24.2089   25.0624   19.7156 C   0  0  0  0  0  0  0  0  0  0  0  0
   23.9113   23.8845   19.0328 C   0  0  0  0  0  0  0  0  0  0  0  0
   22.6511   23.2920   19.1511 C   0  0  0  0  0  0  0  0  0  0  0  0
   21.6933   23.8531   19.9827 C   0  0  0  0  0  0  0  0  0  0  0  0
 27 26  2  0  0  0
 32 26  1  0  0  0
 26 31  1  0  0  0
 27 28  1  0  0  0
 28 29  2  0  0  0
 29 30  1  0  0  0
 29 23  1  0  0  0
 31 30  2  0  0  0
 24 23  2  0  0  0
 23 25  2  0  0  0
 23 22  1  0  0  0
 22 21  1  0  0  0
 22 34  1  0  0  0
 34 35  1  0  0  0
 36 35  1  0  0  0
 35 37  1  0  0  0
 21 18  1  0  0  0
  1 18  1  0  0  0
 18 19  1  0  0  0
 38  1  1  0  0  0
  1  2  1  0  0  0
  2  3  1  0  0  0
  4  3  2  0  0  0
  3  6  1  0  0  0
  6  7  1  0  0  0
 14  7  1  0  0  0
  7  8  1  0  0  0
  9  8  1  0  0  0
 10  9  1  0  0  0
 14 10  1  0  0  0
 11 10  1  0  0  0
 12 11  1  0  0  0
 15 12  1  0  0  0
 13 12  1  0  0  0
 17 13  1  0  0  0
 13 14  1  0  0  0
 44 38  1  0  0  0
 40 39  2  0  0  0
 39 44  1  0  0  0
 41 40  1  0  0  0
 41 42  2  0  0  0
 42 43  1  0  0  0
 43 44  2  0  0  0
 32 33  1  0  0  0
 16 15  1  0  0  0
 17 16  1  0  0  0
 19 20  1  0  0  0
  2  5  1  0  0  0
M  END
> <minimizedAffinity>
-9.41384

$$$$
4HDB_G52_A_401


 44 48  0  0  0  0  0  0  0  0999 V2000
   18.9823   25.8143   17.0171 C   0  0  0  0  0  0  0  0  0  0  0  0
   19.7997   25.5431   18.2025 N   0  0  0  0  0  0  0  0  0  0  0  0
   20.5879   26.4210   18.8328 C   0  0  0  0  0  0  0  0  0  0  0  0
   20.6731   27.6055   18.4841 O   0  0  0  0  0  0  0  0  0  0  0  0
   19.7656   24.6300   18.5691 H   0  0  0  0  0  0  0  0  0  0  0  0
   21.2971   25.9005   19.8683 O   0  0  0  0  0  0  0  0  0  0  0  0
   22.3948   26.7153   20.2917 C   0  0  0  0  0  0  0  0  0  0  0  0
   22.3540   26.7513   21.8228 C   0  0  0  0  0  0  0  0  0  0  0  0
   22.9331   25.5139   22.2664 O   0  0  0  0  0  0  0  0  0  0  0  0
   23.7459   24.9984   21.2226 C   0  0  0  0  0  0  0  0  0  0  0  0
   23.1804   23.7681   20.7868 O   0  0  0  0  0  0  0  0  0  0  0  0
   23.0347   23.7179   19.3876 C   0  0  0  0  0  0  0  0  0  0  0  0
   23.6152   25.0096   18.8175 C   0  0  0  0  0  0  0  0  0  0  0  0
   23.6973   25.9372   20.0390 C   0  0  0  0  0  0  0  0  0  0  0  0
   23.8672   22.6699   18.8774 O   0  0  0  0  0  0  0  0  0  0  0  0
   25.2045   23.1952   18.9108 C   0  0  0  0  0  0  0  0  0  0  0  0
   24.9979   24.5865   18.3204 C   0  0  0  0  0  0  0  0  0  0  0  0
   17.6348   25.1048   17.1665 C   0  0  0  0  0  0  0  0  0  0  0  0
   16.6429   26.0075   17.6667 O   0  0  0  0  0  0  0  0  0  0  0  0
   16.9001   26.3129   18.5507 H   0  0  0  0  0  0  0  0  0  0  0  0
   17.7391   23.8356   18.0128 C   0  0  0  0  0  0  0  0  0  0  0  0
   17.1249   22.7047   17.3168 N   0  0  0  0  0  0  0  0  0  0  0  0
   17.5840   21.2177   17.8340 S   0  0  0  0  0  0  0  0  0  0  0  0
   18.7542   21.3742   18.7465 O   0  0  0  0  0  0  0  0  0  0  0  0
   17.9042   20.3767   16.6457 O   0  0  0  0  0  0  0  0  0  0  0  0
   14.0990   19.3499   20.1329 C   0  0  0  0  0  0  0  0  0  0  0  0
   14.8776   20.3615   20.7019 C   0  0  0  0  0  0  0  0  0  0  0  0
   15.9435   20.9323   20.0144 C   0  0  0  0  0  0  0  0  0  0  0  0
   16.2676   20.4784   18.7367 C   0  0  0  0  0  0  0  0  0  0  0  0
   15.5042   19.4601   18.1910 C   0  0  0  0  0  0  0  0  0  0  0  0
   14.4398   18.8674   18.8656 C   0  0  0  0  0  0  0  0  0  0  0  0
   13.0140   18.8979   20.8084 O   0  0  0  0  0  0  0  0  0  0  0  0
   11.9465   18.5416   19.9272 C   0  0  0  0  0  0  0  0  0  0  0  0
   15.7067   22.8618   17.0684 C   0  0  0  0  0  0  0  0  0  0  0  0
   15.3313   22.7517   15.5821 C   0  0  0  0  0  0  0  0  0  0  0  0
   16.5669   22.6855   14.6710 C   0  0  0  0  0  0  0  0  0  0  0  0
   14.5043   21.4714   15.3587 C   0  0  0  0  0  0  0  0  0  0  0  0
   19.7449   25.2942   15.7957 C   0  0  0  0  0  0  0  0  0  0  0  0
   20.1602   27.3427   14.3615 C   0  0  0  0  0  0  0  0  0  0  0  0
   20.9975   28.3303   13.8448 C   0  0  0  0  0  0  0  0  0  0  0  0
   22.3441   28.3833   14.2105 C   0  0  0  0  0  0  0  0  0  0  0  0
   22.8218   27.4611   15.1397 C   0  0  0  0  0  0  0  0  0  0  0  0
   21.9876   26.4580   15.6408 C   0  0  0  0  0  0  0  0  0  0  0  0
   20.6598   26.3944   15.2447 C   0  0  0  0  0  0  0  0  0  0  0  0
 27 26  2  0  0  0
 32 26  1  0  0  0
 26 31  1  0  0  0
 27 28  1  0  0  0
 28 29  2  0  0  0
 29 30  1  0  0  0
 29 23  1  0  0  0
 31 30  2  0  0  0
 24 23  2  0  0  0
 23 25  2  0  0  0
 23 22  1  0  0  0
 22 21  1  0  0  0
 22 34  1  0  0  0
 34 35  1  0  0  0
 36 35  1  0  0  0
 35 37  1  0  0  0
 21 18  1  0  0  0
  1 18  1  0  0  0
 18 19  1  0  0  0
 38  1  1  0  0  0
  1  2  1  0  0  0
  2  3  1  0  0  0
  4  3  2  0  0  0
  3  6  1  0  0  0
  6  7  1  0  0  0
 14  7  1  0  0  0
  7  8  1  0  0  0
  9  8  1  0  0  0
 10  9  1  0  0  0
 14 10  1  0  0  0
 11 10  1  0  0  0
 12 11  1  0  0  0
 15 12  1  0  0  0
 13 12  1  0  0  0
 17 13  1  0  0  0
 13 14  1  0  0  0
 44 38  1  0  0  0
 40 39  2  0  0  0
 39 44  1  0  0  0
 41 40  1  0  0  0
 41 42  2  0  0  0
 42 43  1  0  0  0
 43 44  2  0  0  0
 32 33  1  0  0  0
 16 15  1  0  0  0
 17 16  1  0  0  0
 19 20  1  0  0  0
  2  5  1  0  0  0
M  END
> <minimizedAffinity>
-9.36102

$$$$
4HDB_G52_A_401


 44 48  0  0  0  0  0  0  0  0999 V2000
   18.1180   24.3757   18.4701 C   0  0  0  0  0  0  0  0  0  0  0  0
   18.9891   25.3843   17.8612 N   0  0  0  0  0  0  0  0  0  0  0  0
   19.7233   25.2256   16.7544 C   0  0  0  0  0  0  0  0  0  0  0  0
   19.7035   24.1818   16.0893 O   0  0  0  0  0  0  0  0  0  0  0  0
   19.0388   26.2600   18.3082 H   0  0  0  0  0  0  0  0  0  0  0  0
   20.5020   26.2925   16.4359 O   0  0  0  0  0  0  0  0  0  0  0  0
   20.7685   26.4232   15.0359 C   0  0  0  0  0  0  0  0  0  0  0  0
   19.8718   27.5527   14.5188 C   0  0  0  0  0  0  0  0  0  0  0  0
   20.5217   28.7790   14.8889 O   0  0  0  0  0  0  0  0  0  0  0  0
   21.8991   28.5105   15.1043 C   0  0  0  0  0  0  0  0  0  0  0  0
   22.1903   28.7593   16.4743 O   0  0  0  0  0  0  0  0  0  0  0  0
   22.8811   27.6886   17.0724 C   0  0  0  0  0  0  0  0  0  0  0  0
   23.1380   26.6440   15.9892 C   0  0  0  0  0  0  0  0  0  0  0  0
   22.1666   27.0418   14.8678 C   0  0  0  0  0  0  0  0  0  0  0  0
   24.1778   28.1464   17.4734 O   0  0  0  0  0  0  0  0  0  0  0  0
   24.9482   28.2173   16.2622 C   0  0  0  0  0  0  0  0  0  0  0  0
   24.5970   26.8877   15.6021 C   0  0  0  0  0  0  0  0  0  0  0  0
   16.6795   24.6116   18.0048 C   0  0  0  0  0  0  0  0  0  0  0  0
   15.9918   25.4778   18.9136 O   0  0  0  0  0  0  0  0  0  0  0  0
   15.9403   25.0563   19.7857 H   0  0  0  0  0  0  0  0  0  0  0  0
   15.9240   23.3027   17.7720 C   0  0  0  0  0  0  0  0  0  0  0  0
   16.6590   22.4467   16.8406 N   0  0  0  0  0  0  0  0  0  0  0  0
   17.2840   21.0722   17.4809 S   0  0  0  0  0  0  0  0  0  0  0  0
   18.4654   21.4341   18.3173 O   0  0  0  0  0  0  0  0  0  0  0  0
   17.6429   20.1475   16.3683 O   0  0  0  0  0  0  0  0  0  0  0  0
   14.0921   19.1316   20.1198 C   0  0  0  0  0  0  0  0  0  0  0  0
   14.8485   20.2125   20.5811 C   0  0  0  0  0  0  0  0  0  0  0  0
   15.8259   20.8063   19.7895 C   0  0  0  0  0  0  0  0  0  0  0  0
   16.0828   20.3073   18.5134 C   0  0  0  0  0  0  0  0  0  0  0  0
   15.3435   19.2217   18.0745 C   0  0  0  0  0  0  0  0  0  0  0  0
   14.3681   18.6053   18.8541 C   0  0  0  0  0  0  0  0  0  0  0  0
   13.0877   18.6545   20.8954 O   0  0  0  0  0  0  0  0  0  0  0  0
   11.8765   18.4842   20.1557 C   0  0  0  0  0  0  0  0  0  0  0  0
   16.0216   22.2924   15.5492 C   0  0  0  0  0  0  0  0  0  0  0  0
   14.5048   22.0616   15.6409 C   0  0  0  0  0  0  0  0  0  0  0  0
   13.7012   23.1873   14.9716 C   0  0  0  0  0  0  0  0  0  0  0  0
   14.1473   20.7376   14.9393 C   0  0  0  0  0  0  0  0  0  0  0  0
   18.2339   24.5156   19.9903 C   0  0  0  0  0  0  0  0  0  0  0  0
   20.2288   25.5739   21.1418 C   0  0  0  0  0  0  0  0  0  0  0  0
   21.5763   25.5858   21.4988 C   0  0  0  0  0  0  0  0  0  0  0  0
   22.4200   24.5380   21.1247 C   0  0  0  0  0  0  0  0  0  0  0  0
   21.8780   23.4576   20.4312 C   0  0  0  0  0  0  0  0  0  0  0  0
   20.5320   23.4562   20.0547 C   0  0  0  0  0  0  0  0  0  0  0  0
   19.7107   24.5183   20.4028 C   0  0  0  0  0  0  0  0  0  0  0  0
 27 26  2  0  0  0
 32 26  1  0  0  0
 26 31  1  0  0  0
 27 28  1  0  0  0
 28 29  2  0  0  0
 29 30  1  0  0  0
 29 23  1  0  0  0
 31 30  2  0  0  0
 24 23  2  0  0  0
 23 25  2  0  0  0
 23 22  1  0  0  0
 22 21  1  0  0  0
 22 34  1  0  0  0
 34 35  1  0  0  0
 36 35  1  0  0  0
 35 37  1  0  0  0
 21 18  1  0  0  0
  1 18  1  0  0  0
 18 19  1  0  0  0
 38  1  1  0  0  0
  1  2  1  0  0  0
  2  3  1  0  0  0
  4  3  2  0  0  0
  3  6  1  0  0  0
  6  7  1  0  0  0
 14  7  1  0  0  0
  7  8  1  0  0  0
  9  8  1  0  0  0
 10  9  1  0  0  0
 14 10  1  0  0  0
 11 10  1  0  0  0
 12 11  1  0  0  0
 15 12  1  0  0  0
 13 12  1  0  0  0
 17 13  1  0  0  0
 13 14  1  0  0  0
 44 38  1  0  0  0
 40 39  2  0  0  0
 39 44  1  0  0  0
 41 40  1  0  0  0
 41 42  2  0  0  0
 42 43  1  0  0  0
 43 44  2  0  0  0
 32 33  1  0  0  0
 16 15  1  0  0  0
 17 16  1  0  0  0
 19 20  1  0  0  0
  2  5  1  0  0  0
M  END
> <minimizedAffinity>
-9.28708

$$$$
4HDB_G52_A_401


 44 48  0  0  0  0  0  0  0  0999 V2000
   15.8551   21.8872   18.5641 C   0  0  0  0  0  0  0  0  0  0  0  0
   17.1300   22.5690   18.8020 N   0  0  0  0  0  0  0  0  0  0  0  0
   18.3217   21.9800   18.9518 C   0  0  0  0  0  0  0  0  0  0  0  0
   18.4725   20.7550   18.8589 O   0  0  0  0  0  0  0  0  0  0  0  0
   17.1075   23.5517   18.8567 H   0  0  0  0  0  0  0  0  0  0  0  0
   19.3413   22.8330   19.2325 O   0  0  0  0  0  0  0  0  0  0  0  0
   18.9555   24.2105   19.2728 C   0  0  0  0  0  0  0  0  0  0  0  0
   18.4634   24.4903   20.6965 C   0  0  0  0  0  0  0  0  0  0  0  0
   19.6421   24.6629   21.4991 O   0  0  0  0  0  0  0  0  0  0  0  0
   20.7207   25.0121   20.6444 C   0  0  0  0  0  0  0  0  0  0  0  0
   21.6858   23.9686   20.6994 O   0  0  0  0  0  0  0  0  0  0  0  0
   22.0765   23.5397   19.4168 C   0  0  0  0  0  0  0  0  0  0  0  0
   21.3562   24.4192   18.3979 C   0  0  0  0  0  0  0  0  0  0  0  0
   20.2302   25.0693   19.2158 C   0  0  0  0  0  0  0  0  0  0  0  0
   23.4701   23.8219   19.2439 O   0  0  0  0  0  0  0  0  0  0  0  0
   23.5453   25.2367   19.0028 C   0  0  0  0  0  0  0  0  0  0  0  0
   22.4263   25.4299   17.9842 C   0  0  0  0  0  0  0  0  0  0  0  0
   14.9081   22.8401   17.8317 C   0  0  0  0  0  0  0  0  0  0  0  0
   14.0614   23.5228   18.7623 O   0  0  0  0  0  0  0  0  0  0  0  0
   13.5069   22.8776   19.2285 H   0  0  0  0  0  0  0  0  0  0  0  0
   14.1093   22.1339   16.7356 C   0  0  0  0  0  0  0  0  0  0  0  0
   14.5669   22.5613   15.4133 N   0  0  0  0  0  0  0  0  0  0  0  0
   16.0745   22.0729   14.9909 S   0  0  0  0  0  0  0  0  0  0  0  0
   16.0759   21.7469   13.5349 O   0  0  0  0  0  0  0  0  0  0  0  0
   16.4494   20.9005   15.8316 O   0  0  0  0  0  0  0  0  0  0  0  0
   19.0463   25.4914   15.6236 C   0  0  0  0  0  0  0  0  0  0  0  0
   19.4600   24.1575   15.6801 C   0  0  0  0  0  0  0  0  0  0  0  0
   18.5638   23.1100   15.4953 C   0  0  0  0  0  0  0  0  0  0  0  0
   17.2151   23.3824   15.2706 C   0  0  0  0  0  0  0  0  0  0  0  0
   16.8116   24.7067   15.2391 C   0  0  0  0  0  0  0  0  0  0  0  0
   17.6897   25.7702   15.4321 C   0  0  0  0  0  0  0  0  0  0  0  0
   19.9780   26.4721   15.7140 O   0  0  0  0  0  0  0  0  0  0  0  0
   20.8280   26.5087   14.5655 C   0  0  0  0  0  0  0  0  0  0  0  0
   13.5654   22.4437   14.3736 C   0  0  0  0  0  0  0  0  0  0  0  0
   12.6575   21.2143   14.5368 C   0  0  0  0  0  0  0  0  0  0  0  0
   11.1820   21.5362   14.2536 C   0  0  0  0  0  0  0  0  0  0  0  0
   13.1042   20.1167   13.5527 C   0  0  0  0  0  0  0  0  0  0  0  0
   15.2823   21.4811   19.9247 C   0  0  0  0  0  0  0  0  0  0  0  0
   14.9151   19.2768   18.7282 C   0  0  0  0  0  0  0  0  0  0  0  0
   14.3398   18.0102   18.6373 C   0  0  0  0  0  0  0  0  0  0  0  0
   13.5149   17.5295   19.6562 C   0  0  0  0  0  0  0  0  0  0  0  0
   13.3186   18.3199   20.7871 C   0  0  0  0  0  0  0  0  0  0  0  0
   13.8777   19.5982   20.8680 C   0  0  0  0  0  0  0  0  0  0  0  0
   14.6683   20.0790   19.8347 C   0  0  0  0  0  0  0  0  0  0  0  0
 27 26  2  0  0  0
 32 26  1  0  0  0
 26 31  1  0  0  0
 27 28  1  0  0  0
 28 29  2  0  0  0
 29 30  1  0  0  0
 29 23  1  0  0  0
 31 30  2  0  0  0
 24 23  2  0  0  0
 23 25  2  0  0  0
 23 22  1  0  0  0
 22 21  1  0  0  0
 22 34  1  0  0  0
 34 35  1  0  0  0
 36 35  1  0  0  0
 35 37  1  0  0  0
 21 18  1  0  0  0
  1 18  1  0  0  0
 18 19  1  0  0  0
 38  1  1  0  0  0
  1  2  1  0  0  0
  2  3  1  0  0  0
  4  3  2  0  0  0
  3  6  1  0  0  0
  6  7  1  0  0  0
 14  7  1  0  0  0
  7  8  1  0  0  0
  9  8  1  0  0  0
 10  9  1  0  0  0
 14 10  1  0  0  0
 11 10  1  0  0  0
 12 11  1  0  0  0
 15 12  1  0  0  0
 13 12  1  0  0  0
 17 13  1  0  0  0
 13 14  1  0  0  0
 44 38  1  0  0  0
 40 39  2  0  0  0
 39 44  1  0  0  0
 41 40  1  0  0  0
 41 42  2  0  0  0
 42 43  1  0  0  0
 43 44  2  0  0  0
 32 33  1  0  0  0
 16 15  1  0  0  0
 17 16  1  0  0  0
 19 20  1  0  0  0
  2  5  1  0  0  0
M  END
> <minimizedAffinity>
-9.28575

$$$$
4HDB_G52_A_401


 44 48  0  0  0  0  0  0  0  0999 V2000
   16.8308   24.1382   16.4706 C   0  0  0  0  0  0  0  0  0  0  0  0
   15.6091   23.3866   16.1715 N   0  0  0  0  0  0  0  0  0  0  0  0
   15.5385   22.2385   15.4887 C   0  0  0  0  0  0  0  0  0  0  0  0
   16.5448   21.6572   15.0627 O   0  0  0  0  0  0  0  0  0  0  0  0
   14.7616   23.7614   16.5039 H   0  0  0  0  0  0  0  0  0  0  0  0
   14.2760   21.7788   15.2869 O   0  0  0  0  0  0  0  0  0  0  0  0
   13.7669   22.0291   13.9731 C   0  0  0  0  0  0  0  0  0  0  0  0
   14.5463   21.1210   13.0165 C   0  0  0  0  0  0  0  0  0  0  0  0
   13.9574   19.8163   13.1366 O   0  0  0  0  0  0  0  0  0  0  0  0
   12.6422   19.9624   13.6510 C   0  0  0  0  0  0  0  0  0  0  0  0
   12.5926   19.3346   14.9265 O   0  0  0  0  0  0  0  0  0  0  0  0
   12.0295   20.1719   15.9080 C   0  0  0  0  0  0  0  0  0  0  0  0
   11.5986   21.4641   15.2188 C   0  0  0  0  0  0  0  0  0  0  0  0
   12.3540   21.4282   13.8818 C   0  0  0  0  0  0  0  0  0  0  0  0
   10.8181   19.5722   16.3819 O   0  0  0  0  0  0  0  0  0  0  0  0
    9.8466   19.8089   15.3495 C   0  0  0  0  0  0  0  0  0  0  0  0
   10.0917   21.2813   15.0352 C   0  0  0  0  0  0  0  0  0  0  0  0
   16.8559   24.4777   17.9624 C   0  0  0  0  0  0  0  0  0  0  0  0
   16.2236   25.7392   18.2026 O   0  0  0  0  0  0  0  0  0  0  0  0
   16.7154   26.4395   17.7460 H   0  0  0  0  0  0  0  0  0  0  0  0
   18.2681   24.4197   18.5460 C   0  0  0  0  0  0  0  0  0  0  0  0
   18.3413   23.4175   19.6094 N   0  0  0  0  0  0  0  0  0  0  0  0
   18.4394   21.8582   19.1106 S   0  0  0  0  0  0  0  0  0  0  0  0
   19.4501   21.1544   19.9529 O   0  0  0  0  0  0  0  0  0  0  0  0
   18.8005   21.8414   17.6645 O   0  0  0  0  0  0  0  0  0  0  0  0
   14.3478   19.8856   19.6449 C   0  0  0  0  0  0  0  0  0  0  0  0
   14.9368   20.6148   20.6816 C   0  0  0  0  0  0  0  0  0  0  0  0
   16.1832   21.2136   20.5322 C   0  0  0  0  0  0  0  0  0  0  0  0
   16.8819   21.0718   19.3341 C   0  0  0  0  0  0  0  0  0  0  0  0
   16.2996   20.3284   18.3213 C   0  0  0  0  0  0  0  0  0  0  0  0
   15.0580   19.7116   18.4531 C   0  0  0  0  0  0  0  0  0  0  0  0
   13.0907   19.4060   19.8114 O   0  0  0  0  0  0  0  0  0  0  0  0
   13.0782   18.1897   20.5620 C   0  0  0  0  0  0  0  0  0  0  0  0
   19.2258   23.7743   20.6994 C   0  0  0  0  0  0  0  0  0  0  0  0
   20.4077   24.6547   20.2633 C   0  0  0  0  0  0  0  0  0  0  0  0
   20.7574   25.7236   21.3102 C   0  0  0  0  0  0  0  0  0  0  0  0
   21.6508   23.7702   20.0504 C   0  0  0  0  0  0  0  0  0  0  0  0
   16.8169   25.4096   15.6178 C   0  0  0  0  0  0  0  0  0  0  0  0
   18.4861   26.9077   14.4367 C   0  0  0  0  0  0  0  0  0  0  0  0
   19.7808   27.2140   14.0202 C   0  0  0  0  0  0  0  0  0  0  0  0
   20.8493   26.3765   14.3466 C   0  0  0  0  0  0  0  0  0  0  0  0
   20.6037   25.2561   15.1382 C   0  0  0  0  0  0  0  0  0  0  0  0
   19.3026   24.9378   15.5372 C   0  0  0  0  0  0  0  0  0  0  0  0
   18.2439   25.7590   15.1788 C   0  0  0  0  0  0  0  0  0  0  0  0
 27 26  2  0  0  0
 32 26  1  0  0  0
 26 31  1  0  0  0
 27 28  1  0  0  0
 28 29  2  0  0  0
 29 30  1  0  0  0
 29 23  1  0  0  0
 31 30  2  0  0  0
 24 23  2  0  0  0
 23 25  2  0  0  0
 23 22  1  0  0  0
 22 21  1  0  0  0
 22 34  1  0  0  0
 34 35  1  0  0  0
 36 35  1  0  0  0
 35 37  1  0  0  0
 21 18  1  0  0  0
  1 18  1  0  0  0
 18 19  1  0  0  0
 38  1  1  0  0  0
  1  2  1  0  0  0
  2  3  1  0  0  0
  4  3  2  0  0  0
  3  6  1  0  0  0
  6  7  1  0  0  0
 14  7  1  0  0  0
  7  8  1  0  0  0
  9  8  1  0  0  0
 10  9  1  0  0  0
 14 10  1  0  0  0
 11 10  1  0  0  0
 12 11  1  0  0  0
 15 12  1  0  0  0
 13 12  1  0  0  0
 17 13  1  0  0  0
 13 14  1  0  0  0
 44 38  1  0  0  0
 40 39  2  0  0  0
 39 44  1  0  0  0
 41 40  1  0  0  0
 41 42  2  0  0  0
 42 43  1  0  0  0
 43 44  2  0  0  0
 32 33  1  0  0  0
 16 15  1  0  0  0
 17 16  1  0  0  0
 19 20  1  0  0  0
  2  5  1  0  0  0
M  END
> <minimizedAffinity>
-9.24239

$$$$
4HDB_G52_A_401


 44 48  0  0  0  0  0  0  0  0999 V2000
   19.2441   25.7748   16.6771 C   0  0  0  0  0  0  0  0  0  0  0  0
   19.9740   25.5411   17.9259 N   0  0  0  0  0  0  0  0  0  0  0  0
   20.6460   26.4597   18.6287 C   0  0  0  0  0  0  0  0  0  0  0  0
   20.6820   27.6520   18.2983 O   0  0  0  0  0  0  0  0  0  0  0  0
   19.9695   24.6227   18.2807 H   0  0  0  0  0  0  0  0  0  0  0  0
   21.2976   25.9723   19.7168 O   0  0  0  0  0  0  0  0  0  0  0  0
   22.3908   26.7853   20.1550 C   0  0  0  0  0  0  0  0  0  0  0  0
   22.2950   26.8693   21.6818 C   0  0  0  0  0  0  0  0  0  0  0  0
   22.8401   25.6388   22.1838 O   0  0  0  0  0  0  0  0  0  0  0  0
   23.6826   25.0805   21.1868 C   0  0  0  0  0  0  0  0  0  0  0  0
   23.1158   23.8448   20.7683 O   0  0  0  0  0  0  0  0  0  0  0  0
   23.0201   23.7531   19.3669 C   0  0  0  0  0  0  0  0  0  0  0  0
   23.6393   25.0188   18.7793 C   0  0  0  0  0  0  0  0  0  0  0  0
   23.6903   25.9827   19.9741 C   0  0  0  0  0  0  0  0  0  0  0  0
   23.8556   22.6789   18.9197 O   0  0  0  0  0  0  0  0  0  0  0  0
   25.1981   23.1874   18.9861 C   0  0  0  0  0  0  0  0  0  0  0  0
   25.0329   24.5623   18.3463 C   0  0  0  0  0  0  0  0  0  0  0  0
   17.9525   24.9545   16.6924 C   0  0  0  0  0  0  0  0  0  0  0  0
   16.9727   25.5734   17.5325 O   0  0  0  0  0  0  0  0  0  0  0  0
   17.3000   25.6006   18.4452 H   0  0  0  0  0  0  0  0  0  0  0  0
   18.1984   23.4939   17.0723 C   0  0  0  0  0  0  0  0  0  0  0  0
   16.9287   22.8053   17.3053 N   0  0  0  0  0  0  0  0  0  0  0  0
   16.6831   21.4482   16.4178 S   0  0  0  0  0  0  0  0  0  0  0  0
   17.9243   20.6214   16.4638 O   0  0  0  0  0  0  0  0  0  0  0  0
   16.3217   21.8459   15.0275 O   0  0  0  0  0  0  0  0  0  0  0  0
   13.2509   19.0950   18.3155 C   0  0  0  0  0  0  0  0  0  0  0  0
   14.5823   18.7319   18.5370 C   0  0  0  0  0  0  0  0  0  0  0  0
   15.6336   19.4366   17.9601 C   0  0  0  0  0  0  0  0  0  0  0  0
   15.3665   20.5176   17.1214 C   0  0  0  0  0  0  0  0  0  0  0  0
   14.0435   20.8551   16.8903 C   0  0  0  0  0  0  0  0  0  0  0  0
   12.9758   20.1571   17.4488 C   0  0  0  0  0  0  0  0  0  0  0  0
   12.2710   18.4342   18.9796 O   0  0  0  0  0  0  0  0  0  0  0  0
   12.3620   18.6243   20.3933 C   0  0  0  0  0  0  0  0  0  0  0  0
   16.5563   22.7063   18.7015 C   0  0  0  0  0  0  0  0  0  0  0  0
   17.7598   22.5490   19.6445 C   0  0  0  0  0  0  0  0  0  0  0  0
   18.0059   23.8067   20.4921 C   0  0  0  0  0  0  0  0  0  0  0  0
   17.5059   21.3698   20.6026 C   0  0  0  0  0  0  0  0  0  0  0  0
   20.1517   25.3496   15.5198 C   0  0  0  0  0  0  0  0  0  0  0  0
   20.6076   27.4722   14.2114 C   0  0  0  0  0  0  0  0  0  0  0  0
   21.4404   28.5215   13.8255 C   0  0  0  0  0  0  0  0  0  0  0  0
   22.7333   28.6295   14.3416 C   0  0  0  0  0  0  0  0  0  0  0  0
   23.1565   27.6969   15.2867 C   0  0  0  0  0  0  0  0  0  0  0  0
   22.3293   26.6329   15.6569 C   0  0  0  0  0  0  0  0  0  0  0  0
   21.0590   26.5166   15.1124 C   0  0  0  0  0  0  0  0  0  0  0  0
 27 26  2  0  0  0
 32 26  1  0  0  0
 26 31  1  0  0  0
 27 28  1  0  0  0
 28 29  2  0  0  0
 29 30  1  0  0  0
 29 23  1  0  0  0
 31 30  2  0  0  0
 24 23  2  0  0  0
 23 25  2  0  0  0
 23 22  1  0  0  0
 22 21  1  0  0  0
 22 34  1  0  0  0
 34 35  1  0  0  0
 36 35  1  0  0  0
 35 37  1  0  0  0
 21 18  1  0  0  0
  1 18  1  0  0  0
 18 19  1  0  0  0
 38  1  1  0  0  0
  1  2  1  0  0  0
  2  3  1  0  0  0
  4  3  2  0  0  0
  3  6  1  0  0  0
  6  7  1  0  0  0
 14  7  1  0  0  0
  7  8  1  0  0  0
  9  8  1  0  0  0
 10  9  1  0  0  0
 14 10  1  0  0  0
 11 10  1  0  0  0
 12 11  1  0  0  0
 15 12  1  0  0  0
 13 12  1  0  0  0
 17 13  1  0  0  0
 13 14  1  0  0  0
 44 38  1  0  0  0
 40 39  2  0  0  0
 39 44  1  0  0  0
 41 40  1  0  0  0
 41 42  2  0  0  0
 42 43  1  0  0  0
 43 44  2  0  0  0
 32 33  1  0  0  0
 16 15  1  0  0  0
 17 16  1  0  0  0
 19 20  1  0  0  0
  2  5  1  0  0  0
M  END
> <minimizedAffinity>
-9.13249

$$$$
4HDB_G52_A_401


 44 48  0  0  0  0  0  0  0  0999 V2000
   20.3785   24.6537   19.3695 C   0  0  0  0  0  0  0  0  0  0  0  0
   19.1114   23.9531   19.1452 N   0  0  0  0  0  0  0  0  0  0  0  0
   18.0241   24.0249   19.9211 C   0  0  0  0  0  0  0  0  0  0  0  0
   17.9697   24.7523   20.9211 O   0  0  0  0  0  0  0  0  0  0  0  0
   19.0549   23.3759   18.3497 H   0  0  0  0  0  0  0  0  0  0  0  0
   16.9993   23.2220   19.5322 O   0  0  0  0  0  0  0  0  0  0  0  0
   17.2719   21.8232   19.6632 C   0  0  0  0  0  0  0  0  0  0  0  0
   16.6989   21.3857   21.0150 C   0  0  0  0  0  0  0  0  0  0  0  0
   15.2856   21.2237   20.8154 O   0  0  0  0  0  0  0  0  0  0  0  0
   15.0471   21.0258   19.4299 C   0  0  0  0  0  0  0  0  0  0  0  0
   14.2802   22.1238   18.9508 O   0  0  0  0  0  0  0  0  0  0  0  0
   14.8344   22.6901   17.7873 C   0  0  0  0  0  0  0  0  0  0  0  0
   16.0558   21.8570   17.4066 C   0  0  0  0  0  0  0  0  0  0  0  0
   16.3617   21.0618   18.6847 C   0  0  0  0  0  0  0  0  0  0  0  0
   13.9077   22.5200   16.7084 O   0  0  0  0  0  0  0  0  0  0  0  0
   14.0219   21.1405   16.3220 C   0  0  0  0  0  0  0  0  0  0  0  0
   15.5363   20.9622   16.2808 C   0  0  0  0  0  0  0  0  0  0  0  0
   21.0396   24.9353   18.0186 C   0  0  0  0  0  0  0  0  0  0  0  0
   22.4222   24.5659   18.0476 O   0  0  0  0  0  0  0  0  0  0  0  0
   22.8871   25.1049   18.7066 H   0  0  0  0  0  0  0  0  0  0  0  0
   20.8382   26.3817   17.5654 C   0  0  0  0  0  0  0  0  0  0  0  0
   20.1565   26.4221   16.2714 N   0  0  0  0  0  0  0  0  0  0  0  0
   20.8429   27.3867   15.1365 S   0  0  0  0  0  0  0  0  0  0  0  0
   20.1269   28.6958   15.1320 O   0  0  0  0  0  0  0  0  0  0  0  0
   20.7678   26.6985   13.8164 O   0  0  0  0  0  0  0  0  0  0  0  0
   25.2406   28.1599   16.1266 C   0  0  0  0  0  0  0  0  0  0  0  0
   24.7729   26.8646   15.8881 C   0  0  0  0  0  0  0  0  0  0  0  0
   23.4365   26.6173   15.5922 C   0  0  0  0  0  0  0  0  0  0  0  0
   22.5278   27.6738   15.5520 C   0  0  0  0  0  0  0  0  0  0  0  0
   22.9970   28.9504   15.8121 C   0  0  0  0  0  0  0  0  0  0  0  0
   24.3281   29.2193   16.1208 C   0  0  0  0  0  0  0  0  0  0  0  0
   26.5692   28.3540   16.3142 O   0  0  0  0  0  0  0  0  0  0  0  0
   27.0733   27.5798   17.4048 C   0  0  0  0  0  0  0  0  0  0  0  0
   19.7120   25.1283   15.7957 C   0  0  0  0  0  0  0  0  0  0  0  0
   18.2122   25.0827   15.4626 C   0  0  0  0  0  0  0  0  0  0  0  0
   17.7418   23.6712   15.0789 C   0  0  0  0  0  0  0  0  0  0  0  0
   17.4031   25.5379   16.6918 C   0  0  0  0  0  0  0  0  0  0  0  0
   21.2622   23.7533   20.2368 C   0  0  0  0  0  0  0  0  0  0  0  0
   23.2549   24.1754   21.7457 C   0  0  0  0  0  0  0  0  0  0  0  0
   23.9384   24.9370   22.6924 C   0  0  0  0  0  0  0  0  0  0  0  0
   23.4011   26.1375   23.1612 C   0  0  0  0  0  0  0  0  0  0  0  0
   22.1934   26.5835   22.6277 C   0  0  0  0  0  0  0  0  0  0  0  0
   21.4981   25.8092   21.6948 C   0  0  0  0  0  0  0  0  0  0  0  0
   22.0252   24.6018   21.2611 C   0  0  0  0  0  0  0  0  0  0  0  0
 27 26  2  0  0  0
 32 26  1  0  0  0
 26 31  1  0  0  0
 27 28  1  0  0  0
 28 29  2  0  0  0
 29 30  1  0  0  0
 29 23  1  0  0  0
 31 30  2  0  0  0
 24 23  2  0  0  0
 23 25  2  0  0  0
 23 22  1  0  0  0
 22 21  1  0  0  0
 22 34  1  0  0  0
 34 35  1  0  0  0
 36 35  1  0  0  0
 35 37  1  0  0  0
 21 18  1  0  0  0
  1 18  1  0  0  0
 18 19  1  0  0  0
 38  1  1  0  0  0
  1  2  1  0  0  0
  2  3  1  0  0  0
  4  3  2  0  0  0
  3  6  1  0  0  0
  6  7  1  0  0  0
 14  7  1  0  0  0
  7  8  1  0  0  0
  9  8  1  0  0  0
 10  9  1  0  0  0
 14 10  1  0  0  0
 11 10  1  0  0  0
 12 11  1  0  0  0
 15 12  1  0  0  0
 13 12  1  0  0  0
 17 13  1  0  0  0
 13 14  1  0  0  0
 44 38  1  0  0  0
 40 39  2  0  0  0
 39 44  1  0  0  0
 41 40  1  0  0  0
 41 42  2  0  0  0
 42 43  1  0  0  0
 43 44  2  0  0  0
 32 33  1  0  0  0
 16 15  1  0  0  0
 17 16  1  0  0  0
 19 20  1  0  0  0
  2  5  1  0  0  0
M  END
> <minimizedAffinity>
-8.99929

$$$$
4HDB_G52_A_401


 44 48  0  0  0  0  0  0  0  0999 V2000
   17.8750   23.9333   18.4026 C   0  0  0  0  0  0  0  0  0  0  0  0
   18.4537   25.1434   17.8129 N   0  0  0  0  0  0  0  0  0  0  0  0
   18.9757   25.2489   16.5859 C   0  0  0  0  0  0  0  0  0  0  0  0
   18.9823   24.3057   15.7845 O   0  0  0  0  0  0  0  0  0  0  0  0
   18.4588   25.9540   18.3716 H   0  0  0  0  0  0  0  0  0  0  0  0
   19.5122   26.4649   16.3035 O   0  0  0  0  0  0  0  0  0  0  0  0
   20.4025   26.4640   15.1831 C   0  0  0  0  0  0  0  0  0  0  0  0
   20.1539   27.7689   14.4198 C   0  0  0  0  0  0  0  0  0  0  0  0
   20.8562   28.7931   15.1417 O   0  0  0  0  0  0  0  0  0  0  0  0
   21.8709   28.1782   15.9214 C   0  0  0  0  0  0  0  0  0  0  0  0
   21.5683   28.3959   17.2942 O   0  0  0  0  0  0  0  0  0  0  0  0
   21.6190   27.2053   18.0435 C   0  0  0  0  0  0  0  0  0  0  0  0
   22.0600   26.0872   17.1022 C   0  0  0  0  0  0  0  0  0  0  0  0
   21.8328   26.6828   15.7046 C   0  0  0  0  0  0  0  0  0  0  0  0
   22.6659   27.3190   19.0145 O   0  0  0  0  0  0  0  0  0  0  0  0
   23.8878   27.1345   18.2807 C   0  0  0  0  0  0  0  0  0  0  0  0
   23.5455   25.9200   17.4236 C   0  0  0  0  0  0  0  0  0  0  0  0
   16.3647   23.9312   18.1573 C   0  0  0  0  0  0  0  0  0  0  0  0
   15.7668   25.1196   18.6856 O   0  0  0  0  0  0  0  0  0  0  0  0
   15.8961   25.1468   19.6466 H   0  0  0  0  0  0  0  0  0  0  0  0
   15.6936   22.6633   18.6867 C   0  0  0  0  0  0  0  0  0  0  0  0
   15.0466   21.9335   17.5961 N   0  0  0  0  0  0  0  0  0  0  0  0
   14.5764   20.4020   17.9467 S   0  0  0  0  0  0  0  0  0  0  0  0
   14.2385   20.3310   19.3982 O   0  0  0  0  0  0  0  0  0  0  0  0
   15.6781   19.4681   17.5780 O   0  0  0  0  0  0  0  0  0  0  0  0
   10.8264   19.4574   15.5045 C   0  0  0  0  0  0  0  0  0  0  0  0
   10.7544   19.6613   16.8853 C   0  0  0  0  0  0  0  0  0  0  0  0
   11.8891   19.9431   17.6387 C   0  0  0  0  0  0  0  0  0  0  0  0
   13.1362   20.0037   17.0185 C   0  0  0  0  0  0  0  0  0  0  0  0
   13.1998   19.7776   15.6538 C   0  0  0  0  0  0  0  0  0  0  0  0
   12.0783   19.4836   14.8823 C   0  0  0  0  0  0  0  0  0  0  0  0
    9.6778   19.2825   14.8059 O   0  0  0  0  0  0  0  0  0  0  0  0
    9.4898   20.3034   13.8233 C   0  0  0  0  0  0  0  0  0  0  0  0
   14.0875   22.7178   16.8459 C   0  0  0  0  0  0  0  0  0  0  0  0
   14.5801   23.1051   15.4424 C   0  0  0  0  0  0  0  0  0  0  0  0
   15.7316   22.2095   14.9598 C   0  0  0  0  0  0  0  0  0  0  0  0
   13.4185   22.9711   14.4396 C   0  0  0  0  0  0  0  0  0  0  0  0
   18.1884   23.9490   19.9011 C   0  0  0  0  0  0  0  0  0  0  0  0
   20.2331   24.9528   21.0133 C   0  0  0  0  0  0  0  0  0  0  0  0
   21.6125   25.0438   21.1932 C   0  0  0  0  0  0  0  0  0  0  0  0
   22.4786   24.2119   20.4808 C   0  0  0  0  0  0  0  0  0  0  0  0
   21.9349   23.2560   19.6247 C   0  0  0  0  0  0  0  0  0  0  0  0
   20.5533   23.1797   19.4284 C   0  0  0  0  0  0  0  0  0  0  0  0
   19.7042   24.0339   20.1162 C   0  0  0  0  0  0  0  0  0  0  0  0
 27 26  2  0  0  0
 32 26  1  0  0  0
 26 31  1  0  0  0
 27 28  1  0  0  0
 28 29  2  0  0  0
 29 30  1  0  0  0
 29 23  1  0  0  0
 31 30  2  0  0  0
 24 23  2  0  0  0
 23 25  2  0  0  0
 23 22  1  0  0  0
 22 21  1  0  0  0
 22 34  1  0  0  0
 34 35  1  0  0  0
 36 35  1  0  0  0
 35 37  1  0  0  0
 21 18  1  0  0  0
  1 18  1  0  0  0
 18 19  1  0  0  0
 38  1  1  0  0  0
  1  2  1  0  0  0
  2  3  1  0  0  0
  4  3  2  0  0  0
  3  6  1  0  0  0
  6  7  1  0  0  0
 14  7  1  0  0  0
  7  8  1  0  0  0
  9  8  1  0  0  0
 10  9  1  0  0  0
 14 10  1  0  0  0
 11 10  1  0  0  0
 12 11  1  0  0  0
 15 12  1  0  0  0
 13 12  1  0  0  0
 17 13  1  0  0  0
 13 14  1  0  0  0
 44 38  1  0  0  0
 40 39  2  0  0  0
 39 44  1  0  0  0
 41 40  1  0  0  0
 41 42  2  0  0  0
 42 43  1  0  0  0
 43 44  2  0  0  0
 32 33  1  0  0  0
 16 15  1  0  0  0
 17 16  1  0  0  0
 19 20  1  0  0  0
  2  5  1  0  0  0
M  END
> <minimizedAffinity>
-8.81849

$$$$
4HDB_G52_A_401


 44 48  0  0  0  0  0  0  0  0999 V2000
   19.0926   24.3129   17.9373 C   0  0  0  0  0  0  0  0  0  0  0  0
   20.2734   24.4940   18.7856 N   0  0  0  0  0  0  0  0  0  0  0  0
   20.9401   25.6384   18.9730 C   0  0  0  0  0  0  0  0  0  0  0  0
   20.5830   26.7059   18.4582 O   0  0  0  0  0  0  0  0  0  0  0  0
   20.6072   23.6996   19.2619 H   0  0  0  0  0  0  0  0  0  0  0  0
   22.0458   25.5259   19.7545 O   0  0  0  0  0  0  0  0  0  0  0  0
   22.9896   24.5539   19.2936 C   0  0  0  0  0  0  0  0  0  0  0  0
   23.7668   25.2027   18.1437 C   0  0  0  0  0  0  0  0  0  0  0  0
   24.7477   26.0547   18.7561 O   0  0  0  0  0  0  0  0  0  0  0  0
   24.9662   25.6057   20.0851 C   0  0  0  0  0  0  0  0  0  0  0  0
   24.5412   26.6307   20.9751 O   0  0  0  0  0  0  0  0  0  0  0  0
   23.6854   26.1399   21.9791 C   0  0  0  0  0  0  0  0  0  0  0  0
   23.5716   24.6294   21.7892 C   0  0  0  0  0  0  0  0  0  0  0  0
   24.0882   24.4064   20.3599 C   0  0  0  0  0  0  0  0  0  0  0  0
   24.3219   26.3157   23.2503 O   0  0  0  0  0  0  0  0  0  0  0  0
   25.3163   25.2808   23.3248 C   0  0  0  0  0  0  0  0  0  0  0  0
   24.5272   24.0678   22.8424 C   0  0  0  0  0  0  0  0  0  0  0  0
   18.2070   23.2205   18.5404 C   0  0  0  0  0  0  0  0  0  0  0  0
   18.8419   21.9420   18.4348 O   0  0  0  0  0  0  0  0  0  0  0  0
   18.9664   21.7191   17.4990 H   0  0  0  0  0  0  0  0  0  0  0  0
   16.8007   23.2176   17.9399 C   0  0  0  0  0  0  0  0  0  0  0  0
   16.2221   21.8751   17.9991 N   0  0  0  0  0  0  0  0  0  0  0  0
   15.0624   21.6507   19.1369 S   0  0  0  0  0  0  0  0  0  0  0  0
   14.0721   22.7615   19.0289 O   0  0  0  0  0  0  0  0  0  0  0  0
   15.7120   21.6028   20.4776 O   0  0  0  0  0  0  0  0  0  0  0  0
   12.9462   17.6903   18.2679 C   0  0  0  0  0  0  0  0  0  0  0  0
   12.3042   18.9128   18.0513 C   0  0  0  0  0  0  0  0  0  0  0  0
   12.9360   20.1229   18.3179 C   0  0  0  0  0  0  0  0  0  0  0  0
   14.2307   20.1305   18.8347 C   0  0  0  0  0  0  0  0  0  0  0  0
   14.8495   18.9136   19.0670 C   0  0  0  0  0  0  0  0  0  0  0  0
   14.2319   17.6907   18.8175 C   0  0  0  0  0  0  0  0  0  0  0  0
   12.3200   16.5456   17.8998 O   0  0  0  0  0  0  0  0  0  0  0  0
   11.2694   16.7895   16.9619 C   0  0  0  0  0  0  0  0  0  0  0  0
   15.9359   21.2960   16.7027 C   0  0  0  0  0  0  0  0  0  0  0  0
   15.4716   22.3278   15.6623 C   0  0  0  0  0  0  0  0  0  0  0  0
   16.2552   22.2221   14.3449 C   0  0  0  0  0  0  0  0  0  0  0  0
   13.9802   22.1011   15.3503 C   0  0  0  0  0  0  0  0  0  0  0  0
   19.5781   23.9178   16.5401 C   0  0  0  0  0  0  0  0  0  0  0  0
   20.5683   25.8070   15.1705 C   0  0  0  0  0  0  0  0  0  0  0  0
   20.4414   26.9026   14.3178 C   0  0  0  0  0  0  0  0  0  0  0  0
   19.1846   27.3087   13.8646 C   0  0  0  0  0  0  0  0  0  0  0  0
   18.0660   26.5677   14.2412 C   0  0  0  0  0  0  0  0  0  0  0  0
   18.1914   25.4828   15.1133 C   0  0  0  0  0  0  0  0  0  0  0  0
   19.4413   25.1088   15.5841 C   0  0  0  0  0  0  0  0  0  0  0  0
 27 26  2  0  0  0
 32 26  1  0  0  0
 26 31  1  0  0  0
 27 28  1  0  0  0
 28 29  2  0  0  0
 29 30  1  0  0  0
 29 23  1  0  0  0
 31 30  2  0  0  0
 24 23  2  0  0  0
 23 25  2  0  0  0
 23 22  1  0  0  0
 22 21  1  0  0  0
 22 34  1  0  0  0
 34 35  1  0  0  0
 36 35  1  0  0  0
 35 37  1  0  0  0
 21 18  1  0  0  0
  1 18  1  0  0  0
 18 19  1  0  0  0
 38  1  1  0  0  0
  1  2  1  0  0  0
  2  3  1  0  0  0
  4  3  2  0  0  0
  3  6  1  0  0  0
  6  7  1  0  0  0
 14  7  1  0  0  0
  7  8  1  0  0  0
  9  8  1  0  0  0
 10  9  1  0  0  0
 14 10  1  0  0  0
 11 10  1  0  0  0
 12 11  1  0  0  0
 15 12  1  0  0  0
 13 12  1  0  0  0
 17 13  1  0  0  0
 13 14  1  0  0  0
 44 38  1  0  0  0
 40 39  2  0  0  0
 39 44  1  0  0  0
 41 40  1  0  0  0
 41 42  2  0  0  0
 42 43  1  0  0  0
 43 44  2  0  0  0
 32 33  1  0  0  0
 16 15  1  0  0  0
 17 16  1  0  0  0
 19 20  1  0  0  0
  2  5  1  0  0  0
M  END
> <minimizedAffinity>
-8.79854

$$$$
