4HDB_G52_A_401
  RCSB PDB12061712513D
Coordinates from PDB:4HDB:A:401 Model:1 without hydrogens
 42 46  0  0  0  0            999 V2000
   21.0300   27.6650   14.9000   C 0  0  0  0  0  0  0  0  0  0  0  0
   19.6840   27.5730   14.5350   C 0  0  0  0  0  0  0  0  0  0  0  0
   18.9260   26.4450   14.8310   C 0  0  0  0  0  0  0  0  0  0  0  0
   19.5160   25.3650   15.4860   C 0  0  0  0  0  0  0  0  0  0  0  0
   20.8560   25.4570   15.8230   C 0  0  0  0  0  0  0  0  0  0  0  0
   21.6360   26.5720   15.5270   C 0  0  0  0  0  0  0  0  0  0  0  0
   18.5630   23.9480   15.9080   S 0  0  0  0  0  0  0  0  0  0  0  0
   17.4960   23.7720   14.8800   O 0  0  0  0  0  0  0  0  0  0  0  0
   19.4570   22.7590   16.0020   O 0  0  0  0  0  0  0  0  0  0  0  0
   17.8480   24.1840   17.3650   N 0  0  0  0  0  0  0  0  0  0  0  0
   18.7450   24.5520   18.4410   C 0  0  0  0  0  0  0  0  0  0  0  0
   18.4390   23.8320   19.7640   C 0  0  0  0  0  0  0  0  0  0  0  0
   18.6640   22.3150   19.6690   C 0  0  0  0  0  0  0  0  0  0  0  0
   19.3600   24.3830   20.8690   C 0  0  0  0  0  0  0  0  0  0  0  0
   16.5980   24.9440   17.3420   C 0  0  0  0  0  0  0  0  0  0  0  0
   15.4440   24.0910   17.8700   C 0  0  0  0  0  0  0  0  0  0  0  0
   14.2780   24.8730   18.1490   O 0  0  0  0  0  0  0  0  0  0  0  0
   15.1030   22.9320   16.9310   C 0  0  0  0  0  0  0  0  0  0  0  0
   14.1910   22.0130   17.6170   N 0  0  0  0  0  0  0  0  0  0  0  0
   14.4620   20.7510   17.9680   C 0  0  0  0  0  0  0  0  0  0  0  0
   15.5690   20.2320   17.7750   O 0  0  0  0  0  0  0  0  0  0  0  0
   13.4200   20.0860   18.5320   O 0  0  0  0  0  0  0  0  0  0  0  0
   13.6860   18.7060   18.8020   C 0  0  0  0  0  0  0  0  0  0  0  0
   13.2260   18.4400   20.2390   C 0  0  0  0  0  0  0  0  0  0  0  0
   11.7990   18.2870   20.1790   O 0  0  0  0  0  0  0  0  0  0  0  0
   11.4400   17.9360   18.8510   C 0  0  0  0  0  0  0  0  0  0  0  0
   10.6480   18.9880   18.3130   O 0  0  0  0  0  0  0  0  0  0  0  0
   11.1070   19.4040   17.0490   C 0  0  0  0  0  0  0  0  0  0  0  0
   12.2810   18.5060   16.6670   C 0  0  0  0  0  0  0  0  0  0  0  0
   12.6860   17.8570   17.9990   C 0  0  0  0  0  0  0  0  0  0  0  0
   14.3960   23.4360   15.6700   C 0  0  0  0  0  0  0  0  0  0  0  0
   12.7630   21.8300   14.5840   C 0  0  0  0  0  0  0  0  0  0  0  0
   12.4740   20.7440   13.7590   C 0  0  0  0  0  0  0  0  0  0  0  0
   13.4950   20.0750   13.0810   C 0  0  0  0  0  0  0  0  0  0  0  0
   14.8010   20.5450   13.2060   C 0  0  0  0  0  0  0  0  0  0  0  0
   15.0930   21.6200   14.0500   C 0  0  0  0  0  0  0  0  0  0  0  0
   14.0750   22.2560   14.7450   C 0  0  0  0  0  0  0  0  0  0  0  0
   21.6940   28.8250   14.6730   O 0  0  0  0  0  0  0  0  0  0  0  0
   23.0730   28.7310   15.0370   C 0  0  0  0  0  0  0  0  0  0  0  0
   10.0890   19.1310   16.0790   O 0  0  0  0  0  0  0  0  0  0  0  0
   10.1530   17.7140   15.8480   C 0  0  0  0  0  0  0  0  0  0  0  0
   11.6560   17.4990   15.7010   C 0  0  0  0  0  0  0  0  0  0  0  0
  2  1  2  0  0  0  0
 38  1  1  0  0  0  0
  1  6  1  0  0  0  0
  2  3  1  0  0  0  0
  3  4  2  0  0  0  0
  4  5  1  0  0  0  0
  4  7  1  0  0  0  0
  6  5  2  0  0  0  0
  8  7  2  0  0  0  0
  7  9  2  0  0  0  0
  7 10  1  0  0  0  0
 10 15  1  0  0  0  0
 10 11  1  0  0  0  0
 11 12  1  0  0  0  0
 13 12  1  0  0  0  0
 12 14  1  0  0  0  0
 15 16  1  0  0  0  0
 18 16  1  0  0  0  0
 16 17  1  0  0  0  0
 31 18  1  0  0  0  0
 18 19  1  0  0  0  0
 19 20  1  0  0  0  0
 21 20  2  0  0  0  0
 20 22  1  0  0  0  0
 22 23  1  0  0  0  0
 30 23  1  0  0  0  0
 23 24  1  0  0  0  0
 25 24  1  0  0  0  0
 26 25  1  0  0  0  0
 30 26  1  0  0  0  0
 27 26  1  0  0  0  0
 28 27  1  0  0  0  0
 40 28  1  0  0  0  0
 29 28  1  0  0  0  0
 42 29  1  0  0  0  0
 29 30  1  0  0  0  0
 37 31  1  0  0  0  0
 33 32  2  0  0  0  0
 32 37  1  0  0  0  0
 34 33  1  0  0  0  0
 34 35  2  0  0  0  0
 35 36  1  0  0  0  0
 36 37  2  0  0  0  0
 38 39  1  0  0  0  0
 41 40  1  0  0  0  0
 42 41  1  0  0  0  0
A    1
C2
A    2
C3
A    3
C4
A    4
C5
A    5
C6
A    6
C7
A    7
S8
A    8
O9
A    9
O10
A   10
N11
A   11
C12
A   12
C13
A   13
C14
A   14
C15
A   15
C16
A   16
C17
A   17
O18
A   18
C19
A   19
N20
A   20
C21
A   21
O22
A   22
O23
A   23
C24
A   24
C25
A   25
O26
A   26
C27
A   27
O28
A   28
C29
A   29
C30
A   30
C31
A   31
C32
A   32
C33
A   33
C34
A   34
C35
A   35
C36
A   36
C37
A   37
C38
A   38
O39
A   39
C40
A   40
O41
A   41
C42
A   42
C43
M  END
>  <InstanceId>
4HDB_G52_A_401

>  <ChemCompId>
G52

>  <PdbId>
4HDB

>  <ChainId>
A

>  <ResidueNumber>
401

>  <InsertionCode>


>  <Model>
1

>  <AltIds>


>  <MissingHeavyAtoms>
0

>  <ObservedFormula>
C30 N2 O9 S

>  <Name>
(3R,3aS,3bR,6aS,7aS)-octahydrodifuro[2,3-b:3',2'-d]furan-3-yl [(1S,2R)-1-benzyl-2-hydroxy-3-{[(4-methoxyphenyl)sulfonyl](2-methylpropyl)amino}propyl]carbamate

>  <SystematicName>


>  <Synonyms>


>  <Type>
NON-POLYMER

>  <Formula>
C30 H40 N2 O9 S

>  <MolecularWeight>
604.712

>  <ModifiedDate>
2011-06-04

>  <Parent>


>  <OneLetterCode>


>  <SubcomponentList>


>  <AmbiguousFlag>
N

>  <InChI>
InChI=1S/C30H40N2O9S/c1-19(2)16-32(42(35,36)22-11-9-21(37-3)10-12-22)17-25(33)24(15-20-7-5-4-6-8-20)31-30(34)40-26-18-39-29-27(26)23-13-14-38-28(23)41-29/h4-12,19,23-29,33H,13-18H2,1-3H3,(H,31,34)/t23-,24+,25-,26+,27+,28+,29+/m1/s1

>  <InChIKey>
QWMNYFXRFHGYGS-DDGGWZRMSA-N

>  <SMILES>
CC(C)C[N@@](C[C@H]([C@H](Cc1ccccc1)NC(=O)O[C@H]2CO[C@@H]3[C@H]2[C@H]4CCO[C@H]4O3)O)S(=O)(=O)c5ccc(cc5)OC

$$$$
