4YMG_SAM_A_1001
  RCSB PDB12061716273D
Coordinates from PDB:4YMG:A:1001 Model:1 without hydrogens
 27 29  0  0  0  0            999 V2000
   -4.0180    7.5480  -17.4640   N 0  0  0  0  0  0  0  0  0  0  0  0
   -5.3000    7.8020  -18.1180   C 0  0  0  0  0  0  0  0  0  0  0  0
   -6.1900    8.7130  -17.2910   C 0  0  0  0  0  0  0  0  0  0  0  0
   -7.1650    9.2710  -17.7980   O 0  0  0  0  0  0  0  0  0  0  0  0
   -5.9610    8.9050  -16.1000   O 0  5  0  0  0  0  0  0  0  0  0  0
   -6.0770    6.5230  -18.4530   C 0  0  0  0  0  0  0  0  0  0  0  0
   -5.2550    5.2980  -18.8470   C 0  0  0  0  0  0  0  0  0  0  0  0
   -6.3410    3.9720  -19.4690   S 0  3  0  0  0  0  0  0  0  0  0  0
   -6.7670    3.1870  -17.8780   C 0  0  0  0  0  0  0  0  0  0  0  0
   -5.1600    2.7360  -20.0860   C 0  0  0  0  0  0  0  0  0  0  0  0
   -4.4550    3.1360  -21.3820   C 0  0  0  0  0  0  0  0  0  0  0  0
   -3.3260    2.3090  -21.5760   O 0  0  0  0  0  0  0  0  0  0  0  0
   -5.3370    2.9620  -22.6150   C 0  0  0  0  0  0  0  0  0  0  0  0
   -5.3060    4.1420  -23.3840   O 0  0  0  0  0  0  0  0  0  0  0  0
   -4.6890    1.8380  -23.4180   C 0  0  0  0  0  0  0  0  0  0  0  0
   -4.7600    2.0130  -24.8190   O 0  0  0  0  0  0  0  0  0  0  0  0
   -3.2570    1.9150  -22.9360   C 0  0  0  0  0  0  0  0  0  0  0  0
   -2.5680    0.6280  -22.9970   N 0  0  0  0  0  0  0  0  0  0  0  0
   -3.0530   -0.6120  -22.6600   C 0  0  0  0  0  0  0  0  0  0  0  0
   -2.0570   -1.5100  -22.8410   N 0  0  0  0  0  0  0  0  0  0  0  0
   -0.9560   -0.8530  -23.2780   C 0  0  0  0  0  0  0  0  0  0  0  0
    0.3210   -1.2680  -23.6130   C 0  0  0  0  0  0  0  0  0  0  0  0
    0.6670   -2.5550  -23.5420   N 0  0  0  0  0  0  0  0  0  0  0  0
    1.2360   -0.3240  -24.0280   N 0  0  0  0  0  0  0  0  0  0  0  0
    0.9060    1.0150  -24.1110   C 0  0  0  0  0  0  0  0  0  0  0  0
   -0.3650    1.4230  -23.7780   N 0  0  0  0  0  0  0  0  0  0  0  0
   -1.2690    0.4980  -23.3670   C 0  0  0  0  0  0  0  0  0  0  0  0
  1  2  1  0  0  0  0
  2  3  1  0  0  0  0
  2  6  1  0  0  0  0
  3  4  2  0  0  0  0
  3  5  1  0  0  0  0
  6  7  1  0  0  0  0
  7  8  1  0  0  0  0
  8  9  1  0  0  0  0
  8 10  1  0  0  0  0
 10 11  1  0  0  0  0
 11 12  1  0  0  0  0
 11 13  1  0  0  0  0
 12 17  1  0  0  0  0
 13 14  1  0  0  0  0
 13 15  1  0  0  0  0
 15 16  1  0  0  0  0
 15 17  1  0  0  0  0
 17 18  1  0  0  0  0
 18 19  1  0  0  0  0
 18 27  1  0  0  0  0
 19 20  2  0  0  0  0
 20 21  1  0  0  0  0
 21 22  1  0  0  0  0
 21 27  2  0  0  0  0
 22 23  1  0  0  0  0
 22 24  2  0  0  0  0
 24 25  1  0  0  0  0
 25 26  2  0  0  0  0
 26 27  1  0  0  0  0
M  CHG  2   5  -1   8   1
A    1
N
A    2
CA
A    3
C
A    4
O
A    5
OXT
A    6
CB
A    7
CG
A    8
SD
A    9
CE
A   10
C5'
A   11
C4'
A   12
O4'
A   13
C3'
A   14
O3'
A   15
C2'
A   16
O2'
A   17
C1'
A   18
N9
A   19
C8
A   20
N7
A   21
C5
A   22
C6
A   23
N6
A   24
N1
A   25
C2
A   26
N3
A   27
C4
M  END
>  <InstanceId>
4YMG_SAM_A_1001

>  <ChemCompId>
SAM

>  <PdbId>
4YMG

>  <ChainId>
A

>  <ResidueNumber>
1001

>  <InsertionCode>


>  <Model>
1

>  <AltIds>


>  <MissingHeavyAtoms>
0

>  <ObservedFormula>
C15 N6 O5 S

>  <Name>
S-ADENOSYLMETHIONINE

>  <SystematicName>
(2S)-2-amino-4-[[(2S,3S,4R,5R)-5-(6-aminopurin-9-yl)-3,4-dihydroxy-oxolan-2-yl]methyl-methyl-sulfonio]butanoate

>  <Synonyms>


>  <Type>
NON-POLYMER

>  <Formula>
C15 H22 N6 O5 S

>  <MolecularWeight>
398.437

>  <ModifiedDate>
2011-06-04

>  <Parent>


>  <OneLetterCode>


>  <SubcomponentList>


>  <AmbiguousFlag>
N

>  <InChI>
InChI=1S/C15H22N6O5S/c1-27(3-2-7(16)15(24)25)4-8-10(22)11(23)14(26-8)21-6-20-9-12(17)18-5-19-13(9)21/h5-8,10-11,14,22-23H,2-4,16H2,1H3,(H2-,17,18,19,24,25)/t7-,8+,10+,11+,14+,27-/m0/s1

>  <InChIKey>
MEFKEPWMEQBLKI-FCKMPRQPSA-N

>  <SMILES>
C[S@@+](CC[C@@H](C(=O)[O-])N)C[C@@H]1[C@H]([C@H]([C@@H](O1)n2cnc3c2ncnc3N)O)O

$$$$
