1LI2_IPH_A_400


  8  8  0  0  0  0  0  0  0  0999 V2000
   27.2147    6.6979    3.8798 C   0  0  0  0  0  0  0  0  0  0  0  0
   27.1408    7.2534    5.1550 C   0  0  0  0  0  0  0  0  0  0  0  0
   26.4092    6.6090    6.1514 C   0  0  0  0  0  0  0  0  0  0  0  0
   25.7365    5.4257    5.8846 C   0  0  0  0  0  0  0  0  0  0  0  0
   25.8089    4.9099    4.5971 C   0  0  0  0  0  0  0  0  0  0  0  0
   26.5513    5.5191    3.5813 C   0  0  0  0  0  0  0  0  0  0  0  0
   27.9218    7.3059    2.9056 O   0  0  0  0  0  0  0  0  0  0  0  0
   28.3780    8.1041    3.0863 H   0  0  0  0  0  0  0  0  0  0  0  0
  1  2  2  0  0  0
  1  6  1  0  0  0
  1  7  1  0  0  0
  2  3  1  0  0  0
  3  4  2  0  0  0
  4  5  1  0  0  0
  5  6  2  0  0  0
  7  8  1  0  0  0
M  END
> <minimizedAffinity>
-5.98201

$$$$
1LI2_IPH_A_400


  8  8  0  0  0  0  0  0  0  0999 V2000
   27.2056    6.7176    3.8887 C   0  0  0  0  0  0  0  0  0  0  0  0
   26.5372    5.5290    3.6053 C   0  0  0  0  0  0  0  0  0  0  0  0
   25.7937    4.8964    4.6004 C   0  0  0  0  0  0  0  0  0  0  0  0
   25.7240    5.4278    5.8798 C   0  0  0  0  0  0  0  0  0  0  0  0
   26.4214    6.6008    6.1380 C   0  0  0  0  0  0  0  0  0  0  0  0
   27.1581    7.2717    5.1575 C   0  0  0  0  0  0  0  0  0  0  0  0
   27.9257    7.3448    2.9365 O   0  0  0  0  0  0  0  0  0  0  0  0
   27.9711    6.9870    2.0717 H   0  0  0  0  0  0  0  0  0  0  0  0
  1  2  2  0  0  0
  1  6  1  0  0  0
  1  7  1  0  0  0
  2  3  1  0  0  0
  3  4  2  0  0  0
  4  5  1  0  0  0
  5  6  2  0  0  0
  7  8  1  0  0  0
M  END
> <minimizedAffinity>
-5.97402

$$$$
1LI2_IPH_A_400


  8  8  0  0  0  0  0  0  0  0999 V2000
   27.5674    7.0638    4.8350 C   0  0  0  0  0  0  0  0  0  0  0  0
   26.8573    6.7882    6.0011 C   0  0  0  0  0  0  0  0  0  0  0  0
   25.8468    5.8279    5.9878 C   0  0  0  0  0  0  0  0  0  0  0  0
   25.5257    5.1523    4.8198 C   0  0  0  0  0  0  0  0  0  0  0  0
   26.2349    5.4669    3.6679 C   0  0  0  0  0  0  0  0  0  0  0  0
   27.2682    6.4083    3.6519 C   0  0  0  0  0  0  0  0  0  0  0  0
   28.5509    7.9865    4.8314 O   0  0  0  0  0  0  0  0  0  0  0  0
   28.7693    8.4415    5.6209 H   0  0  0  0  0  0  0  0  0  0  0  0
  1  2  2  0  0  0
  1  6  1  0  0  0
  1  7  1  0  0  0
  2  3  1  0  0  0
  3  4  2  0  0  0
  4  5  1  0  0  0
  5  6  2  0  0  0
  7  8  1  0  0  0
M  END
> <minimizedAffinity>
-5.78628

$$$$
1LI2_IPH_A_400


  8  8  0  0  0  0  0  0  0  0999 V2000
   26.7186    5.5927    3.5994 C   0  0  0  0  0  0  0  0  0  0  0  0
   25.9771    4.8330    4.5011 C   0  0  0  0  0  0  0  0  0  0  0  0
   25.7498    5.3124    5.7903 C   0  0  0  0  0  0  0  0  0  0  0  0
   26.2689    6.5334    6.1948 C   0  0  0  0  0  0  0  0  0  0  0  0
   27.0248    7.2561    5.2809 C   0  0  0  0  0  0  0  0  0  0  0  0
   27.2530    6.8145    3.9743 C   0  0  0  0  0  0  0  0  0  0  0  0
   26.9440    5.1459    2.3472 O   0  0  0  0  0  0  0  0  0  0  0  0
   26.5917    4.3220    2.0732 H   0  0  0  0  0  0  0  0  0  0  0  0
  1  2  2  0  0  0
  1  6  1  0  0  0
  1  7  1  0  0  0
  2  3  1  0  0  0
  3  4  2  0  0  0
  4  5  1  0  0  0
  5  6  2  0  0  0
  7  8  1  0  0  0
M  END
> <minimizedAffinity>
-5.69241

$$$$
1LI2_IPH_A_400


  8  8  0  0  0  0  0  0  0  0999 V2000
   26.7296    5.6137    3.5894 C   0  0  0  0  0  0  0  0  0  0  0  0
   27.2667    6.8290    4.0073 C   0  0  0  0  0  0  0  0  0  0  0  0
   27.0461    7.2741    5.3099 C   0  0  0  0  0  0  0  0  0  0  0  0
   26.2812    6.5281    6.1944 C   0  0  0  0  0  0  0  0  0  0  0  0
   25.7387    5.3328    5.7405 C   0  0  0  0  0  0  0  0  0  0  0  0
   25.9586    4.8474    4.4481 C   0  0  0  0  0  0  0  0  0  0  0  0
   26.9370    5.1663    2.3343 O   0  0  0  0  0  0  0  0  0  0  0  0
   27.4554    5.6691    1.7373 H   0  0  0  0  0  0  0  0  0  0  0  0
  1  2  2  0  0  0
  1  6  1  0  0  0
  1  7  1  0  0  0
  2  3  1  0  0  0
  3  4  2  0  0  0
  4  5  1  0  0  0
  5  6  2  0  0  0
  7  8  1  0  0  0
M  END
> <minimizedAffinity>
-5.68402

$$$$
1LI2_IPH_A_400


  8  8  0  0  0  0  0  0  0  0999 V2000
   26.0958    5.4482    4.7377 C   0  0  0  0  0  0  0  0  0  0  0  0
   26.3989    4.5269    3.7380 C   0  0  0  0  0  0  0  0  0  0  0  0
   27.2726    4.8799    2.7106 C   0  0  0  0  0  0  0  0  0  0  0  0
   27.8333    6.1476    2.6605 C   0  0  0  0  0  0  0  0  0  0  0  0
   27.4923    7.0519    3.6579 C   0  0  0  0  0  0  0  0  0  0  0  0
   26.6370    6.7231    4.7137 C   0  0  0  0  0  0  0  0  0  0  0  0
   25.2562    5.1216    5.7411 O   0  0  0  0  0  0  0  0  0  0  0  0
   24.8790    4.2646    5.7762 H   0  0  0  0  0  0  0  0  0  0  0  0
  1  2  2  0  0  0
  1  6  1  0  0  0
  1  7  1  0  0  0
  2  3  1  0  0  0
  3  4  2  0  0  0
  4  5  1  0  0  0
  5  6  2  0  0  0
  7  8  1  0  0  0
M  END
> <minimizedAffinity>
-5.49997

$$$$
1LI2_IPH_A_400


  8  8  0  0  0  0  0  0  0  0999 V2000
   26.0914    5.4636    4.7324 C   0  0  0  0  0  0  0  0  0  0  0  0
   26.6538    6.7372    4.6930 C   0  0  0  0  0  0  0  0  0  0  0  0
   27.5142    7.0840    3.6524 C   0  0  0  0  0  0  0  0  0  0  0  0
   27.8330    6.1684    2.6605 C   0  0  0  0  0  0  0  0  0  0  0  0
   27.2758    4.8988    2.7410 C   0  0  0  0  0  0  0  0  0  0  0  0
   26.3927    4.5258    3.7584 C   0  0  0  0  0  0  0  0  0  0  0  0
   25.2536    5.1131    5.7294 O   0  0  0  0  0  0  0  0  0  0  0  0
   25.0366    5.7323    6.3983 H   0  0  0  0  0  0  0  0  0  0  0  0
  1  2  2  0  0  0
  1  6  1  0  0  0
  1  7  1  0  0  0
  2  3  1  0  0  0
  3  4  2  0  0  0
  4  5  1  0  0  0
  5  6  2  0  0  0
  7  8  1  0  0  0
M  END
> <minimizedAffinity>
-5.48832

$$$$
1LI2_IPH_A_400


  8  8  0  0  0  0  0  0  0  0999 V2000
   26.5759    6.4624    5.0409 C   0  0  0  0  0  0  0  0  0  0  0  0
   27.3742    7.0147    4.0420 C   0  0  0  0  0  0  0  0  0  0  0  0
   27.6635    6.2749    2.8964 C   0  0  0  0  0  0  0  0  0  0  0  0
   27.1792    4.9841    2.7445 C   0  0  0  0  0  0  0  0  0  0  0  0
   26.4067    4.4522    3.7688 C   0  0  0  0  0  0  0  0  0  0  0  0
   26.0800    5.1747    4.9201 C   0  0  0  0  0  0  0  0  0  0  0  0
   26.2827    7.1659    6.1534 O   0  0  0  0  0  0  0  0  0  0  0  0
   26.6081    8.0387    6.2552 H   0  0  0  0  0  0  0  0  0  0  0  0
  1  2  2  0  0  0
  1  6  1  0  0  0
  1  7  1  0  0  0
  2  3  1  0  0  0
  3  4  2  0  0  0
  4  5  1  0  0  0
  5  6  2  0  0  0
  7  8  1  0  0  0
M  END
> <minimizedAffinity>
-5.39339

$$$$
1LI2_IPH_A_400


  8  8  0  0  0  0  0  0  0  0999 V2000
   25.8679    5.5481    4.7143 C   0  0  0  0  0  0  0  0  0  0  0  0
   26.5928    5.7981    3.5515 C   0  0  0  0  0  0  0  0  0  0  0  0
   27.6020    6.7598    3.5560 C   0  0  0  0  0  0  0  0  0  0  0  0
   27.8840    7.4867    4.7032 C   0  0  0  0  0  0  0  0  0  0  0  0
   27.1273    7.2319    5.8396 C   0  0  0  0  0  0  0  0  0  0  0  0
   26.1235    6.2596    5.8750 C   0  0  0  0  0  0  0  0  0  0  0  0
   24.8914    4.6181    4.7284 O   0  0  0  0  0  0  0  0  0  0  0  0
   24.7023    4.1256    3.9541 H   0  0  0  0  0  0  0  0  0  0  0  0
  1  2  2  0  0  0
  1  6  1  0  0  0
  1  7  1  0  0  0
  2  3  1  0  0  0
  3  4  2  0  0  0
  4  5  1  0  0  0
  5  6  2  0  0  0
  7  8  1  0  0  0
M  END
> <minimizedAffinity>
-5.33003

$$$$
1LI2_IPH_A_400


  8  8  0  0  0  0  0  0  0  0999 V2000
   27.5475    6.0938    2.5725 C   0  0  0  0  0  0  0  0  0  0  0  0
   26.7111    6.7149    3.4970 C   0  0  0  0  0  0  0  0  0  0  0  0
   26.0184    5.9471    4.4318 C   0  0  0  0  0  0  0  0  0  0  0  0
   26.1377    4.5653    4.4431 C   0  0  0  0  0  0  0  0  0  0  0  0
   26.9599    3.9736    3.4930 C   0  0  0  0  0  0  0  0  0  0  0  0
   27.6852    4.7155    2.5561 C   0  0  0  0  0  0  0  0  0  0  0  0
   28.2283    6.8218    1.6642 O   0  0  0  0  0  0  0  0  0  0  0  0
   28.1493    7.7555    1.6578 H   0  0  0  0  0  0  0  0  0  0  0  0
  1  2  2  0  0  0
  1  6  1  0  0  0
  1  7  1  0  0  0
  2  3  1  0  0  0
  3  4  2  0  0  0
  4  5  1  0  0  0
  5  6  2  0  0  0
  7  8  1  0  0  0
M  END
> <minimizedAffinity>
-4.16869

$$$$
