1LI2_IPH_A_400
  RCSB PDB12061703113D
Coordinates from PDB:1LI2:A:400 Model:1 without hydrogens
  7  7  0  0  0  0            999 V2000
   27.4870    6.6370    3.5090   C 0  0  0  0  0  0  0  0  0  0  0  0
   26.7380    5.4850    3.2810   C 0  0  0  0  0  0  0  0  0  0  0  0
   26.0000    4.9200    4.3200   C 0  0  0  0  0  0  0  0  0  0  0  0
   26.0150    5.4820    5.5880   C 0  0  0  0  0  0  0  0  0  0  0  0
   26.7910    6.6160    5.7900   C 0  0  0  0  0  0  0  0  0  0  0  0
   27.5250    7.2200    4.7650   C 0  0  0  0  0  0  0  0  0  0  0  0
   28.2030    7.1990    2.5140   O 0  0  0  0  0  0  0  0  0  0  0  0
  1  2  2  0  0  0  0
  1  6  1  0  0  0  0
  1  7  1  0  0  0  0
  2  3  1  0  0  0  0
  3  4  2  0  0  0  0
  4  5  1  0  0  0  0
  5  6  2  0  0  0  0
A    1
C1
A    2
C2
A    3
C3
A    4
C4
A    5
C5
A    6
C6
A    7
O1
M  END
>  <InstanceId>
1LI2_IPH_A_400

>  <ChemCompId>
IPH

>  <PdbId>
1LI2

>  <ChainId>
A

>  <ResidueNumber>
400

>  <InsertionCode>


>  <Model>
1

>  <AltIds>


>  <MissingHeavyAtoms>
0

>  <ObservedFormula>
C6 O

>  <Name>
PHENOL

>  <SystematicName>
phenol

>  <Synonyms>


>  <Type>
NON-POLYMER

>  <Formula>
C6 H6 O

>  <MolecularWeight>
94.111

>  <ModifiedDate>
2011-06-04

>  <Parent>


>  <OneLetterCode>


>  <SubcomponentList>


>  <AmbiguousFlag>
N

>  <InChI>
InChI=1S/C6H6O/c7-6-4-2-1-3-5-6/h1-5,7H

>  <InChIKey>
ISWSIDIOOBJBQZ-UHFFFAOYSA-N

>  <SMILES>
c1ccc(cc1)O

$$$$
