4LM1_7ZE_A_900


 13 14  0  0  0  0  0  0  0  0999 V2000
    4.1047   13.0811   45.4308 C   0  0  0  0  0  0  0  0  0  0  0  0
    3.5169   14.3439   45.3069 C   0  0  0  0  0  0  0  0  0  0  0  0
    3.3518   14.9175   44.0460 C   0  0  0  0  0  0  0  0  0  0  0  0
    3.7687   14.2272   42.9114 C   0  0  0  0  0  0  0  0  0  0  0  0
    4.3556   12.9654   43.0305 C   0  0  0  0  0  0  0  0  0  0  0  0
    4.7549   12.3174   41.9107 N   0  0  0  0  0  0  0  0  0  0  0  0
    5.3131   11.0864   41.9967 C   0  0  0  0  0  0  0  0  0  0  0  0
    5.5044   10.4584   43.2277 C   0  0  0  0  0  0  0  0  0  0  0  0
    5.1130   11.1185   44.3865 C   0  0  0  0  0  0  0  0  0  0  0  0
    4.5250   12.3841   44.2933 C   0  0  0  0  0  0  0  0  0  0  0  0
    5.2980   12.6519   47.2966 O   0  0  0  0  0  0  0  0  0  0  0  0
    4.2505   12.5575   46.6606 N   0  0  0  0  0  0  0  0  0  0  0  0
    3.2955   11.9624   47.1455 O   0  0  0  0  0  0  0  0  0  0  0  0
  8  7  1  0  0  0
  8  9  2  0  0  0
  7  6  2  0  0  0
  6  5  1  0  0  0
  9 10  1  0  0  0
  5 10  2  0  0  0
  5  4  1  0  0  0
 10  1  1  0  0  0
 11 12  2  0  0  0
  4  3  2  0  0  0
  1 12  1  0  0  0
  1  2  2  0  0  0
 12 13  1  0  0  0
  3  2  1  0  0  0
M  CHG 1  12   1
M  CHG 1  13  -1
M  END
> <minimizedAffinity>
-6.67462

$$$$
4LM1_7ZE_A_900


 13 14  0  0  0  0  0  0  0  0999 V2000
    4.7666   12.2993   44.2732 C   0  0  0  0  0  0  0  0  0  0  0  0
    4.4035   12.7857   45.5330 C   0  0  0  0  0  0  0  0  0  0  0  0
    3.6545   13.9576   45.6407 C   0  0  0  0  0  0  0  0  0  0  0  0
    3.2649   14.6384   44.4907 C   0  0  0  0  0  0  0  0  0  0  0  0
    3.6247   14.1558   43.2304 C   0  0  0  0  0  0  0  0  0  0  0  0
    3.2352   14.8394   42.1285 N   0  0  0  0  0  0  0  0  0  0  0  0
    3.5578   14.3853   40.8939 C   0  0  0  0  0  0  0  0  0  0  0  0
    4.3037   13.2193   40.7193 C   0  0  0  0  0  0  0  0  0  0  0  0
    4.7231   12.5157   41.8422 C   0  0  0  0  0  0  0  0  0  0  0  0
    4.3773   12.9803   43.1152 C   0  0  0  0  0  0  0  0  0  0  0  0
    5.0017   10.0940   43.8600 O   0  0  0  0  0  0  0  0  0  0  0  0
    5.4900   11.1680   44.2046 N   0  0  0  0  0  0  0  0  0  0  0  0
    6.6758   11.2284   44.5070 O   0  0  0  0  0  0  0  0  0  0  0  0
  8  7  1  0  0  0
  8  9  2  0  0  0
  7  6  2  0  0  0
  6  5  1  0  0  0
  9 10  1  0  0  0
  5 10  2  0  0  0
  5  4  1  0  0  0
 10  1  1  0  0  0
 11 12  2  0  0  0
  4  3  2  0  0  0
  1 12  1  0  0  0
  1  2  2  0  0  0
 12 13  1  0  0  0
  3  2  1  0  0  0
M  CHG 1  12   1
M  CHG 1  13  -1
M  END
> <minimizedAffinity>
-6.67037

$$$$
4LM1_7ZE_A_900


 13 14  0  0  0  0  0  0  0  0999 V2000
    3.9273   13.8603   44.4479 C   0  0  0  0  0  0  0  0  0  0  0  0
    4.3437   13.0453   45.5053 C   0  0  0  0  0  0  0  0  0  0  0  0
    4.9222   11.8030   45.2444 C   0  0  0  0  0  0  0  0  0  0  0  0
    5.0888   11.3793   43.9290 C   0  0  0  0  0  0  0  0  0  0  0  0
    4.6751   12.1904   42.8699 C   0  0  0  0  0  0  0  0  0  0  0  0
    4.8462   11.7525   41.6001 N   0  0  0  0  0  0  0  0  0  0  0  0
    4.4676   12.5255   40.5545 C   0  0  0  0  0  0  0  0  0  0  0  0
    3.8844   13.7780   40.7490 C   0  0  0  0  0  0  0  0  0  0  0  0
    3.6889   14.2336   42.0474 C   0  0  0  0  0  0  0  0  0  0  0  0
    4.0928   13.4385   43.1247 C   0  0  0  0  0  0  0  0  0  0  0  0
    3.9906   16.1081   44.6293 O   0  0  0  0  0  0  0  0  0  0  0  0
    3.3721   15.0511   44.7339 N   0  0  0  0  0  0  0  0  0  0  0  0
    2.2086   15.0621   45.1175 O   0  0  0  0  0  0  0  0  0  0  0  0
  8  7  1  0  0  0
  8  9  2  0  0  0
  7  6  2  0  0  0
  6  5  1  0  0  0
  9 10  1  0  0  0
  5 10  2  0  0  0
  5  4  1  0  0  0
 10  1  1  0  0  0
 11 12  2  0  0  0
  4  3  2  0  0  0
  1 12  1  0  0  0
  1  2  2  0  0  0
 12 13  1  0  0  0
  3  2  1  0  0  0
M  CHG 1  12   1
M  CHG 1  13  -1
M  END
> <minimizedAffinity>
-6.65648

$$$$
4LM1_7ZE_A_900


 13 14  0  0  0  0  0  0  0  0999 V2000
    3.9670   14.0334   43.4297 C   0  0  0  0  0  0  0  0  0  0  0  0
    3.7288   14.2044   42.0623 C   0  0  0  0  0  0  0  0  0  0  0  0
    4.1492   13.2340   41.1527 C   0  0  0  0  0  0  0  0  0  0  0  0
    4.8015   12.0926   41.6102 C   0  0  0  0  0  0  0  0  0  0  0  0
    5.0409   11.9172   42.9750 C   0  0  0  0  0  0  0  0  0  0  0  0
    5.6802   10.7991   43.3924 N   0  0  0  0  0  0  0  0  0  0  0  0
    5.9116   10.5971   44.7115 C   0  0  0  0  0  0  0  0  0  0  0  0
    5.5149   11.5290   45.6709 C   0  0  0  0  0  0  0  0  0  0  0  0
    4.8711   12.6885   45.2553 C   0  0  0  0  0  0  0  0  0  0  0  0
    4.6221   12.8880   43.8936 C   0  0  0  0  0  0  0  0  0  0  0  0
    2.5541   14.8515   44.9866 O   0  0  0  0  0  0  0  0  0  0  0  0
    3.5502   14.9883   44.2795 N   0  0  0  0  0  0  0  0  0  0  0  0
    4.1958   16.0283   44.3321 O   0  0  0  0  0  0  0  0  0  0  0  0
  8  7  1  0  0  0
  8  9  2  0  0  0
  7  6  2  0  0  0
  6  5  1  0  0  0
  9 10  1  0  0  0
  5 10  2  0  0  0
  5  4  1  0  0  0
 10  1  1  0  0  0
 11 12  2  0  0  0
  4  3  2  0  0  0
  1 12  1  0  0  0
  1  2  2  0  0  0
 12 13  1  0  0  0
  3  2  1  0  0  0
M  CHG 1  12   1
M  CHG 1  13  -1
M  END
> <minimizedAffinity>
-6.63627

$$$$
4LM1_7ZE_A_900


 13 14  0  0  0  0  0  0  0  0999 V2000
    4.9355   11.9715   42.8522 C   0  0  0  0  0  0  0  0  0  0  0  0
    4.9191   12.0934   41.4591 C   0  0  0  0  0  0  0  0  0  0  0  0
    4.2972   13.1892   40.8605 C   0  0  0  0  0  0  0  0  0  0  0  0
    3.6979   14.1637   41.6536 C   0  0  0  0  0  0  0  0  0  0  0  0
    3.7125   14.0464   43.0452 C   0  0  0  0  0  0  0  0  0  0  0  0
    3.1193   15.0071   43.7926 N   0  0  0  0  0  0  0  0  0  0  0  0
    3.1321   14.9254   45.1444 C   0  0  0  0  0  0  0  0  0  0  0  0
    3.7385   13.8555   45.8032 C   0  0  0  0  0  0  0  0  0  0  0  0
    4.3381   12.8545   45.0481 C   0  0  0  0  0  0  0  0  0  0  0  0
    4.3344   12.9484   43.6527 C   0  0  0  0  0  0  0  0  0  0  0  0
    4.9506    9.8453   43.6060 O   0  0  0  0  0  0  0  0  0  0  0  0
    5.5419   10.9024   43.3971 N   0  0  0  0  0  0  0  0  0  0  0  0
    6.7256   11.0070   43.6958 O   0  0  0  0  0  0  0  0  0  0  0  0
  8  7  1  0  0  0
  8  9  2  0  0  0
  7  6  2  0  0  0
  6  5  1  0  0  0
  9 10  1  0  0  0
  5 10  2  0  0  0
  5  4  1  0  0  0
 10  1  1  0  0  0
 11 12  2  0  0  0
  4  3  2  0  0  0
  1 12  1  0  0  0
  1  2  2  0  0  0
 12 13  1  0  0  0
  3  2  1  0  0  0
M  CHG 1  12   1
M  CHG 1  13  -1
M  END
> <minimizedAffinity>
-6.63036

$$$$
4LM1_7ZE_A_900


 13 14  0  0  0  0  0  0  0  0999 V2000
    4.2246   13.6199   41.8256 C   0  0  0  0  0  0  0  0  0  0  0  0
    4.7465   12.5127   41.1495 C   0  0  0  0  0  0  0  0  0  0  0  0
    5.1196   11.3717   41.8601 C   0  0  0  0  0  0  0  0  0  0  0  0
    4.9657   11.3362   43.2431 C   0  0  0  0  0  0  0  0  0  0  0  0
    4.4441   12.4396   43.9224 C   0  0  0  0  0  0  0  0  0  0  0  0
    4.3081   12.3794   45.2682 N   0  0  0  0  0  0  0  0  0  0  0  0
    3.7911   13.4295   45.9497 C   0  0  0  0  0  0  0  0  0  0  0  0
    3.3981   14.5982   45.2970 C   0  0  0  0  0  0  0  0  0  0  0  0
    3.5462   14.6795   43.9174 C   0  0  0  0  0  0  0  0  0  0  0  0
    4.0683   13.5885   43.2151 C   0  0  0  0  0  0  0  0  0  0  0  0
    4.6130   15.6816   40.9960 O   0  0  0  0  0  0  0  0  0  0  0  0
    3.8764   14.7043   41.1110 N   0  0  0  0  0  0  0  0  0  0  0  0
    2.7783   14.7025   40.5675 O   0  0  0  0  0  0  0  0  0  0  0  0
  8  7  1  0  0  0
  8  9  2  0  0  0
  7  6  2  0  0  0
  6  5  1  0  0  0
  9 10  1  0  0  0
  5 10  2  0  0  0
  5  4  1  0  0  0
 10  1  1  0  0  0
 11 12  2  0  0  0
  4  3  2  0  0  0
  1 12  1  0  0  0
  1  2  2  0  0  0
 12 13  1  0  0  0
  3  2  1  0  0  0
M  CHG 1  12   1
M  CHG 1  13  -1
M  END
> <minimizedAffinity>
-6.59593

$$$$
4LM1_7ZE_A_900


 13 14  0  0  0  0  0  0  0  0999 V2000
    4.4028   13.4839   44.3935 C   0  0  0  0  0  0  0  0  0  0  0  0
    3.6038   13.6660   45.5267 C   0  0  0  0  0  0  0  0  0  0  0  0
    3.8193   12.8906   46.6661 C   0  0  0  0  0  0  0  0  0  0  0  0
    4.8353   11.9391   46.6739 C   0  0  0  0  0  0  0  0  0  0  0  0
    5.6362   11.7543   45.5447 C   0  0  0  0  0  0  0  0  0  0  0  0
    6.6152   10.8196   45.5784 N   0  0  0  0  0  0  0  0  0  0  0  0
    7.4158   10.6304   44.5026 C   0  0  0  0  0  0  0  0  0  0  0  0
    7.2522   11.3746   43.3338 C   0  0  0  0  0  0  0  0  0  0  0  0
    6.2413   12.3270   43.2799 C   0  0  0  0  0  0  0  0  0  0  0  0
    5.4247   12.5288   44.3972 C   0  0  0  0  0  0  0  0  0  0  0  0
    3.5642   13.8249   42.3272 O   0  0  0  0  0  0  0  0  0  0  0  0
    4.1677   14.2466   43.3115 N   0  0  0  0  0  0  0  0  0  0  0  0
    4.5837   15.3989   43.3229 O   0  0  0  0  0  0  0  0  0  0  0  0
  8  7  1  0  0  0
  8  9  2  0  0  0
  7  6  2  0  0  0
  6  5  1  0  0  0
  9 10  1  0  0  0
  5 10  2  0  0  0
  5  4  1  0  0  0
 10  1  1  0  0  0
 11 12  2  0  0  0
  4  3  2  0  0  0
  1 12  1  0  0  0
  1  2  2  0  0  0
 12 13  1  0  0  0
  3  2  1  0  0  0
M  CHG 1  12   1
M  CHG 1  13  -1
M  END
> <minimizedAffinity>
-6.51690

$$$$
4LM1_7ZE_A_900


 13 14  0  0  0  0  0  0  0  0999 V2000
    5.1650   12.0344   45.6297 C   0  0  0  0  0  0  0  0  0  0  0  0
    6.1188   11.0253   45.4629 C   0  0  0  0  0  0  0  0  0  0  0  0
    6.6649   10.7809   44.2028 C   0  0  0  0  0  0  0  0  0  0  0  0
    6.2621   11.5476   43.1131 C   0  0  0  0  0  0  0  0  0  0  0  0
    5.3103   12.5569   43.2751 C   0  0  0  0  0  0  0  0  0  0  0  0
    4.9342   13.2854   42.1976 N   0  0  0  0  0  0  0  0  0  0  0  0
    4.0243   14.2799   42.3299 C   0  0  0  0  0  0  0  0  0  0  0  0
    3.4424   14.5746   43.5631 C   0  0  0  0  0  0  0  0  0  0  0  0
    3.8080   13.8247   44.6748 C   0  0  0  0  0  0  0  0  0  0  0  0
    4.7574   12.8070   44.5373 C   0  0  0  0  0  0  0  0  0  0  0  0
    3.4827   12.0083   47.1326 O   0  0  0  0  0  0  0  0  0  0  0  0
    4.6574   12.2431   46.8571 N   0  0  0  0  0  0  0  0  0  0  0  0
    5.4067   12.6902   47.7172 O   0  0  0  0  0  0  0  0  0  0  0  0
  8  7  1  0  0  0
  8  9  2  0  0  0
  7  6  2  0  0  0
  6  5  1  0  0  0
  9 10  1  0  0  0
  5 10  2  0  0  0
  5  4  1  0  0  0
 10  1  1  0  0  0
 11 12  2  0  0  0
  4  3  2  0  0  0
  1 12  1  0  0  0
  1  2  2  0  0  0
 12 13  1  0  0  0
  3  2  1  0  0  0
M  CHG 1  12   1
M  CHG 1  13  -1
M  END
> <minimizedAffinity>
-6.40565

$$$$
4LM1_7ZE_A_900


 13 14  0  0  0  0  0  0  0  0999 V2000
    4.6963   12.5642   45.3891 C   0  0  0  0  0  0  0  0  0  0  0  0
    4.0088   13.5401   44.6605 C   0  0  0  0  0  0  0  0  0  0  0  0
    4.2702   13.7111   43.3010 C   0  0  0  0  0  0  0  0  0  0  0  0
    5.2129   12.9041   42.6703 C   0  0  0  0  0  0  0  0  0  0  0  0
    5.9013   11.9277   43.3939 C   0  0  0  0  0  0  0  0  0  0  0  0
    6.8153   11.1587   42.7563 N   0  0  0  0  0  0  0  0  0  0  0  0
    7.4860   10.1946   43.4309 C   0  0  0  0  0  0  0  0  0  0  0  0
    7.2691    9.9731   44.7911 C   0  0  0  0  0  0  0  0  0  0  0  0
    6.3447   10.7653   45.4617 C   0  0  0  0  0  0  0  0  0  0  0  0
    5.6443   11.7513   44.7593 C   0  0  0  0  0  0  0  0  0  0  0  0
    3.3472   11.9881   47.1030 O   0  0  0  0  0  0  0  0  0  0  0  0
    4.4218   12.4265   46.6980 N   0  0  0  0  0  0  0  0  0  0  0  0
    5.2839   12.7617   47.5014 O   0  0  0  0  0  0  0  0  0  0  0  0
  8  7  1  0  0  0
  8  9  2  0  0  0
  7  6  2  0  0  0
  6  5  1  0  0  0
  9 10  1  0  0  0
  5 10  2  0  0  0
  5  4  1  0  0  0
 10  1  1  0  0  0
 11 12  2  0  0  0
  4  3  2  0  0  0
  1 12  1  0  0  0
  1  2  2  0  0  0
 12 13  1  0  0  0
  3  2  1  0  0  0
M  CHG 1  12   1
M  CHG 1  13  -1
M  END
> <minimizedAffinity>
-6.17473

$$$$
4LM1_7ZE_A_900


 13 14  0  0  0  0  0  0  0  0999 V2000
    5.6710   11.4974   44.8005 C   0  0  0  0  0  0  0  0  0  0  0  0
    5.4340   11.4526   46.1780 C   0  0  0  0  0  0  0  0  0  0  0  0
    4.5386   12.3483   46.7628 C   0  0  0  0  0  0  0  0  0  0  0  0
    3.8778   13.2831   45.9709 C   0  0  0  0  0  0  0  0  0  0  0  0
    4.1110   13.3310   44.5946 C   0  0  0  0  0  0  0  0  0  0  0  0
    3.4571   14.2523   43.8483 N   0  0  0  0  0  0  0  0  0  0  0  0
    3.6535   14.3105   42.5095 C   0  0  0  0  0  0  0  0  0  0  0  0
    4.5346   13.4419   41.8648 C   0  0  0  0  0  0  0  0  0  0  0  0
    5.2240   12.5011   42.6207 C   0  0  0  0  0  0  0  0  0  0  0  0
    5.0092   12.4351   44.0012 C   0  0  0  0  0  0  0  0  0  0  0  0
    7.7370   10.8750   44.1419 O   0  0  0  0  0  0  0  0  0  0  0  0
    6.5411   10.6210   44.2688 N   0  0  0  0  0  0  0  0  0  0  0  0
    6.1061    9.5377   43.8970 O   0  0  0  0  0  0  0  0  0  0  0  0
  8  7  1  0  0  0
  8  9  2  0  0  0
  7  6  2  0  0  0
  6  5  1  0  0  0
  9 10  1  0  0  0
  5 10  2  0  0  0
  5  4  1  0  0  0
 10  1  1  0  0  0
 11 12  2  0  0  0
  4  3  2  0  0  0
  1 12  1  0  0  0
  1  2  2  0  0  0
 12 13  1  0  0  0
  3  2  1  0  0  0
M  CHG 1  12   1
M  CHG 1  13  -1
M  END
> <minimizedAffinity>
-6.17289

$$$$
