4JH0_1MD_A_801


 29 31  0  0  0  0  0  0  0  0999 V2000
   48.2982   50.2874   34.6012 C   0  0  0  0  0  0  0  0  0  0  0  0
   47.5169   49.9586   35.7668 C   0  0  0  0  0  0  0  0  0  0  0  0
   48.1875   49.5414   36.9653 C   0  0  0  0  0  0  0  0  0  0  0  0
   49.5347   49.5127   37.0767 N   0  0  0  0  0  0  0  0  0  0  0  0
   49.6819   50.1776   34.7305 C   0  0  0  0  0  0  0  0  0  0  0  0
   50.2361   49.7936   35.9446 C   0  0  0  0  0  0  0  0  0  0  0  0
   51.7086   49.6772   35.8152 C   0  0  0  0  0  0  0  0  0  0  0  0
   51.9037   50.0971   34.4368 N   0  0  0  0  0  0  0  0  0  0  0  0
   50.7640   50.3669   33.7744 C   0  0  0  0  0  0  0  0  0  0  0  0
   47.5049   49.0446   38.1967 C   0  0  0  0  0  0  0  0  0  0  0  0
   50.7521   50.6940   32.5794 O   0  0  0  0  0  0  0  0  0  0  0  0
   47.6978   50.5855   33.2703 C   0  0  0  0  0  0  0  0  0  0  0  0
   47.3880   51.9276   32.8791 C   0  0  0  0  0  0  0  0  0  0  0  0
   46.8012   52.1371   31.5735 C   0  0  0  0  0  0  0  0  0  0  0  0
   46.5402   51.0318   30.6974 C   0  0  0  0  0  0  0  0  0  0  0  0
   46.8054   49.6548   31.0654 C   0  0  0  0  0  0  0  0  0  0  0  0
   47.3824   49.5127   32.3645 C   0  0  0  0  0  0  0  0  0  0  0  0
   47.7040   47.9152   32.8038 Cl  0  0  0  0  0  0  0  0  0  0  0  0
   45.9028   51.3324   29.1434 Cl  0  0  0  0  0  0  0  0  0  0  0  0
   46.0219   50.1583   35.8082 C   0  0  0  0  0  0  0  0  0  0  0  0
   45.6372   51.5085   36.2125 N   0  0  0  0  0  0  0  0  0  0  0  0
   45.9766   51.6903   37.1570 H   0  0  0  0  0  0  0  0  0  0  0  0
   44.6208   51.5922   36.1945 H   0  0  0  0  0  0  0  0  0  0  0  0
   53.1522   50.5920   33.8486 C   0  0  0  0  0  0  0  0  0  0  0  0
   53.6405   51.7895   34.6757 C   0  0  0  0  0  0  0  0  0  0  0  0
   54.8463   51.5647   35.3011 N   0  0  0  0  0  0  0  0  0  0  0  0
   55.5417   52.5941   36.1466 C   0  0  0  0  0  0  0  0  0  0  0  0
   52.9630   52.8471   34.7354 O   0  0  0  0  0  0  0  0  0  0  0  0
   55.5131   50.2805   34.9569 C   0  0  0  0  0  0  0  0  0  0  0  0
 27 26  1  0  0  0
 10  3  1  0  0  0
  4  6  2  0  0  0
  4  3  1  0  0  0
 28 25  2  0  0  0
 26 25  1  0  0  0
 26 29  1  0  0  0
  7  6  1  0  0  0
  7  8  1  0  0  0
 25 24  1  0  0  0
  6  5  1  0  0  0
  3  2  2  0  0  0
 24  8  1  0  0  0
  8  9  1  0  0  0
  5  9  1  0  0  0
  5  1  2  0  0  0
  2 20  1  0  0  0
  2  1  1  0  0  0
  9 11  2  0  0  0
 20 21  1  0  0  0
  1 12  1  0  0  0
 12 13  2  0  0  0
 12 17  1  0  0  0
 13 14  1  0  0  0
 18 17  1  0  0  0
 17 16  2  0  0  0
 14 15  2  0  0  0
 16 15  1  0  0  0
 15 19  1  0  0  0
 21 22  1  0  0  0
 21 23  1  0  0  0
M  END
> <minimizedAffinity>
-7.26123

$$$$
4JH0_1MD_A_801


 29 31  0  0  0  0  0  0  0  0999 V2000
   46.7849   47.9974   31.4358 C   0  0  0  0  0  0  0  0  0  0  0  0
   46.0377   48.1581   30.2140 C   0  0  0  0  0  0  0  0  0  0  0  0
   44.8553   48.9719   30.2173 C   0  0  0  0  0  0  0  0  0  0  0  0
   44.4460   49.6618   31.3058 N   0  0  0  0  0  0  0  0  0  0  0  0
   46.2934   48.6657   32.5562 C   0  0  0  0  0  0  0  0  0  0  0  0
   45.1557   49.4547   32.4486 C   0  0  0  0  0  0  0  0  0  0  0  0
   44.7884   49.9983   33.7784 C   0  0  0  0  0  0  0  0  0  0  0  0
   45.8706   49.4826   34.6014 N   0  0  0  0  0  0  0  0  0  0  0  0
   46.7384   48.6931   33.9426 C   0  0  0  0  0  0  0  0  0  0  0  0
   43.9156   49.1171   29.0662 C   0  0  0  0  0  0  0  0  0  0  0  0
   47.6911   48.1375   34.5073 O   0  0  0  0  0  0  0  0  0  0  0  0
   47.9349   47.0600   31.5751 C   0  0  0  0  0  0  0  0  0  0  0  0
   47.7335   45.6813   31.9053 C   0  0  0  0  0  0  0  0  0  0  0  0
   48.8997   44.8343   32.0289 C   0  0  0  0  0  0  0  0  0  0  0  0
   50.2179   45.3615   31.8242 C   0  0  0  0  0  0  0  0  0  0  0  0
   50.4706   46.7569   31.5228 C   0  0  0  0  0  0  0  0  0  0  0  0
   49.2816   47.5414   31.4150 C   0  0  0  0  0  0  0  0  0  0  0  0
   49.5597   49.1670   31.0567 Cl  0  0  0  0  0  0  0  0  0  0  0  0
   51.5596   44.3118   31.9214 Cl  0  0  0  0  0  0  0  0  0  0  0  0
   46.5262   47.5999   28.9001 C   0  0  0  0  0  0  0  0  0  0  0  0
   47.4558   48.4919   28.2111 N   0  0  0  0  0  0  0  0  0  0  0  0
   46.9853   49.3699   27.9920 H   0  0  0  0  0  0  0  0  0  0  0  0
   47.7729   48.0513   27.3476 H   0  0  0  0  0  0  0  0  0  0  0  0
   46.2990   50.0086   35.9012 C   0  0  0  0  0  0  0  0  0  0  0  0
   47.6001   50.7988   35.7032 C   0  0  0  0  0  0  0  0  0  0  0  0
   48.5356   50.5636   36.6857 N   0  0  0  0  0  0  0  0  0  0  0  0
   49.8968   51.2002   36.6982 C   0  0  0  0  0  0  0  0  0  0  0  0
   47.7403   51.5680   34.7184 O   0  0  0  0  0  0  0  0  0  0  0  0
   48.1786   49.5023   37.6646 C   0  0  0  0  0  0  0  0  0  0  0  0
 27 26  1  0  0  0
 10  3  1  0  0  0
  4  6  2  0  0  0
  4  3  1  0  0  0
 28 25  2  0  0  0
 26 25  1  0  0  0
 26 29  1  0  0  0
  7  6  1  0  0  0
  7  8  1  0  0  0
 25 24  1  0  0  0
  6  5  1  0  0  0
  3  2  2  0  0  0
 24  8  1  0  0  0
  8  9  1  0  0  0
  5  9  1  0  0  0
  5  1  2  0  0  0
  2 20  1  0  0  0
  2  1  1  0  0  0
  9 11  2  0  0  0
 20 21  1  0  0  0
  1 12  1  0  0  0
 12 13  2  0  0  0
 12 17  1  0  0  0
 13 14  1  0  0  0
 18 17  1  0  0  0
 17 16  2  0  0  0
 14 15  2  0  0  0
 16 15  1  0  0  0
 15 19  1  0  0  0
 21 22  1  0  0  0
 21 23  1  0  0  0
M  END
> <minimizedAffinity>
-6.86619

$$$$
4JH0_1MD_A_801


 29 31  0  0  0  0  0  0  0  0999 V2000
   48.8794   46.7163   32.3564 C   0  0  0  0  0  0  0  0  0  0  0  0
   49.0365   45.3394   31.9607 C   0  0  0  0  0  0  0  0  0  0  0  0
   50.3581   44.7982   31.8160 C   0  0  0  0  0  0  0  0  0  0  0  0
   51.4732   45.5049   32.1077 N   0  0  0  0  0  0  0  0  0  0  0  0
   50.0525   47.4356   32.5794 C   0  0  0  0  0  0  0  0  0  0  0  0
   51.2852   46.8109   32.4415 C   0  0  0  0  0  0  0  0  0  0  0  0
   52.3768   47.7912   32.6558 C   0  0  0  0  0  0  0  0  0  0  0  0
   51.6193   48.9876   32.9863 N   0  0  0  0  0  0  0  0  0  0  0  0
   50.2843   48.8306   32.9275 C   0  0  0  0  0  0  0  0  0  0  0  0
   50.6700   43.4377   31.2860 C   0  0  0  0  0  0  0  0  0  0  0  0
   49.4962   49.7636   33.1365 O   0  0  0  0  0  0  0  0  0  0  0  0
   47.5628   47.4135   32.3900 C   0  0  0  0  0  0  0  0  0  0  0  0
   46.8391   47.5752   33.6150 C   0  0  0  0  0  0  0  0  0  0  0  0
   45.5646   48.2579   33.5668 C   0  0  0  0  0  0  0  0  0  0  0  0
   45.0440   48.7593   32.3278 C   0  0  0  0  0  0  0  0  0  0  0  0
   45.7254   48.5877   31.0597 C   0  0  0  0  0  0  0  0  0  0  0  0
   46.9759   47.9062   31.1719 C   0  0  0  0  0  0  0  0  0  0  0  0
   47.7847   47.7058   29.7042 Cl  0  0  0  0  0  0  0  0  0  0  0  0
   43.5653   49.6106   32.3288 Cl  0  0  0  0  0  0  0  0  0  0  0  0
   47.8562   44.4111   31.8141 C   0  0  0  0  0  0  0  0  0  0  0  0
   47.4052   43.8554   33.0879 N   0  0  0  0  0  0  0  0  0  0  0  0
   48.1552   43.3018   33.5018 H   0  0  0  0  0  0  0  0  0  0  0  0
   46.5912   43.2613   32.9305 H   0  0  0  0  0  0  0  0  0  0  0  0
   52.1234   50.1642   33.7012 C   0  0  0  0  0  0  0  0  0  0  0  0
   52.9614   49.6877   34.8958 C   0  0  0  0  0  0  0  0  0  0  0  0
   54.3028   49.9711   34.7683 N   0  0  0  0  0  0  0  0  0  0  0  0
   55.3220   49.6270   35.8176 C   0  0  0  0  0  0  0  0  0  0  0  0
   52.4187   49.1041   35.8684 O   0  0  0  0  0  0  0  0  0  0  0  0
   54.6706   50.7949   33.5860 C   0  0  0  0  0  0  0  0  0  0  0  0
 27 26  1  0  0  0
 10  3  1  0  0  0
  4  6  2  0  0  0
  4  3  1  0  0  0
 28 25  2  0  0  0
 26 25  1  0  0  0
 26 29  1  0  0  0
  7  6  1  0  0  0
  7  8  1  0  0  0
 25 24  1  0  0  0
  6  5  1  0  0  0
  3  2  2  0  0  0
 24  8  1  0  0  0
  8  9  1  0  0  0
  5  9  1  0  0  0
  5  1  2  0  0  0
  2 20  1  0  0  0
  2  1  1  0  0  0
  9 11  2  0  0  0
 20 21  1  0  0  0
  1 12  1  0  0  0
 12 13  2  0  0  0
 12 17  1  0  0  0
 13 14  1  0  0  0
 18 17  1  0  0  0
 17 16  2  0  0  0
 14 15  2  0  0  0
 16 15  1  0  0  0
 15 19  1  0  0  0
 21 22  1  0  0  0
 21 23  1  0  0  0
M  END
> <minimizedAffinity>
-6.63456

$$$$
4JH0_1MD_A_801


 29 31  0  0  0  0  0  0  0  0999 V2000
   46.3988   48.7864   32.5053 C   0  0  0  0  0  0  0  0  0  0  0  0
   45.1670   49.2803   31.9433 C   0  0  0  0  0  0  0  0  0  0  0  0
   44.8372   48.9567   30.5842 C   0  0  0  0  0  0  0  0  0  0  0  0
   45.5996   48.1409   29.8216 N   0  0  0  0  0  0  0  0  0  0  0  0
   47.1950   48.0076   31.6670 C   0  0  0  0  0  0  0  0  0  0  0  0
   46.7719   47.7257   30.3746 C   0  0  0  0  0  0  0  0  0  0  0  0
   47.8129   46.9497   29.6585 C   0  0  0  0  0  0  0  0  0  0  0  0
   48.8088   46.7830   30.7049 N   0  0  0  0  0  0  0  0  0  0  0  0
   48.5028   47.3972   31.8623 C   0  0  0  0  0  0  0  0  0  0  0  0
   43.6690   49.5071   29.8350 C   0  0  0  0  0  0  0  0  0  0  0  0
   49.2651   47.3908   32.8391 O   0  0  0  0  0  0  0  0  0  0  0  0
   46.9037   49.1857   33.8492 C   0  0  0  0  0  0  0  0  0  0  0  0
   46.5895   48.4207   35.0181 C   0  0  0  0  0  0  0  0  0  0  0  0
   47.1113   48.8748   36.2887 C   0  0  0  0  0  0  0  0  0  0  0  0
   47.9213   50.0556   36.3725 C   0  0  0  0  0  0  0  0  0  0  0  0
   48.2354   50.8792   35.2215 C   0  0  0  0  0  0  0  0  0  0  0  0
   47.6918   50.3806   33.9981 C   0  0  0  0  0  0  0  0  0  0  0  0
   48.0558   51.3251   32.6476 Cl  0  0  0  0  0  0  0  0  0  0  0  0
   48.5645   50.5194   37.8833 Cl  0  0  0  0  0  0  0  0  0  0  0  0
   44.1511   50.0233   32.7753 C   0  0  0  0  0  0  0  0  0  0  0  0
   44.3574   51.4696   32.7712 N   0  0  0  0  0  0  0  0  0  0  0  0
   45.2695   51.6841   33.1742 H   0  0  0  0  0  0  0  0  0  0  0  0
   43.6273   51.9188   33.3240 H   0  0  0  0  0  0  0  0  0  0  0  0
   49.8612   45.7632   30.7469 C   0  0  0  0  0  0  0  0  0  0  0  0
   49.2451   44.4098   30.3657 C   0  0  0  0  0  0  0  0  0  0  0  0
   49.7388   43.8990   29.1862 N   0  0  0  0  0  0  0  0  0  0  0  0
   49.3097   42.5764   28.6164 C   0  0  0  0  0  0  0  0  0  0  0  0
   48.3804   43.8684   31.1008 O   0  0  0  0  0  0  0  0  0  0  0  0
   50.8583   44.6666   28.5784 C   0  0  0  0  0  0  0  0  0  0  0  0
 27 26  1  0  0  0
 10  3  1  0  0  0
  4  6  2  0  0  0
  4  3  1  0  0  0
 28 25  2  0  0  0
 26 25  1  0  0  0
 26 29  1  0  0  0
  7  6  1  0  0  0
  7  8  1  0  0  0
 25 24  1  0  0  0
  6  5  1  0  0  0
  3  2  2  0  0  0
 24  8  1  0  0  0
  8  9  1  0  0  0
  5  9  1  0  0  0
  5  1  2  0  0  0
  2 20  1  0  0  0
  2  1  1  0  0  0
  9 11  2  0  0  0
 20 21  1  0  0  0
  1 12  1  0  0  0
 12 13  2  0  0  0
 12 17  1  0  0  0
 13 14  1  0  0  0
 18 17  1  0  0  0
 17 16  2  0  0  0
 14 15  2  0  0  0
 16 15  1  0  0  0
 15 19  1  0  0  0
 21 22  1  0  0  0
 21 23  1  0  0  0
M  END
> <minimizedAffinity>
-6.60011

$$$$
4JH0_1MD_A_801


 29 31  0  0  0  0  0  0  0  0999 V2000
   52.8859   46.9812   33.0731 C   0  0  0  0  0  0  0  0  0  0  0  0
   53.2792   45.6585   32.6574 C   0  0  0  0  0  0  0  0  0  0  0  0
   52.2828   44.7575   32.1514 C   0  0  0  0  0  0  0  0  0  0  0  0
   50.9920   45.1196   31.9754 N   0  0  0  0  0  0  0  0  0  0  0  0
   51.5339   47.2958   32.9445 C   0  0  0  0  0  0  0  0  0  0  0  0
   50.6527   46.3625   32.4141 C   0  0  0  0  0  0  0  0  0  0  0  0
   49.2696   46.8959   32.4466 C   0  0  0  0  0  0  0  0  0  0  0  0
   49.4948   48.2285   32.9833 N   0  0  0  0  0  0  0  0  0  0  0  0
   50.7757   48.4857   33.3054 C   0  0  0  0  0  0  0  0  0  0  0  0
   52.5218   43.3231   31.8132 C   0  0  0  0  0  0  0  0  0  0  0  0
   51.1296   49.5577   33.8160 O   0  0  0  0  0  0  0  0  0  0  0  0
   53.8098   47.9360   33.7479 C   0  0  0  0  0  0  0  0  0  0  0  0
   54.0050   47.9039   35.1661 C   0  0  0  0  0  0  0  0  0  0  0  0
   54.9135   48.8668   35.7494 C   0  0  0  0  0  0  0  0  0  0  0  0
   55.5993   49.8232   34.9293 C   0  0  0  0  0  0  0  0  0  0  0  0
   55.4057   49.9143   33.4953 C   0  0  0  0  0  0  0  0  0  0  0  0
   54.4977   48.9395   32.9794 C   0  0  0  0  0  0  0  0  0  0  0  0
   54.2681   49.0284   31.3097 Cl  0  0  0  0  0  0  0  0  0  0  0  0
   56.7069   50.9001   35.6536 Cl  0  0  0  0  0  0  0  0  0  0  0  0
   54.7255   45.2306   32.6192 C   0  0  0  0  0  0  0  0  0  0  0  0
   55.1739   44.6212   33.8691 N   0  0  0  0  0  0  0  0  0  0  0  0
   55.0963   45.3009   34.6257 H   0  0  0  0  0  0  0  0  0  0  0  0
   56.1460   44.3273   33.7744 H   0  0  0  0  0  0  0  0  0  0  0  0
   48.5926   49.3776   32.8605 C   0  0  0  0  0  0  0  0  0  0  0  0
   47.6915   49.4257   34.1024 C   0  0  0  0  0  0  0  0  0  0  0  0
   47.0393   50.6285   34.2564 N   0  0  0  0  0  0  0  0  0  0  0  0
   46.0832   50.9105   35.3808 C   0  0  0  0  0  0  0  0  0  0  0  0
   47.5967   48.4308   34.8654 O   0  0  0  0  0  0  0  0  0  0  0  0
   47.2125   51.5950   33.1392 C   0  0  0  0  0  0  0  0  0  0  0  0
 27 26  1  0  0  0
 10  3  1  0  0  0
  4  6  2  0  0  0
  4  3  1  0  0  0
 28 25  2  0  0  0
 26 25  1  0  0  0
 26 29  1  0  0  0
  7  6  1  0  0  0
  7  8  1  0  0  0
 25 24  1  0  0  0
  6  5  1  0  0  0
  3  2  2  0  0  0
 24  8  1  0  0  0
  8  9  1  0  0  0
  5  9  1  0  0  0
  5  1  2  0  0  0
  2 20  1  0  0  0
  2  1  1  0  0  0
  9 11  2  0  0  0
 20 21  1  0  0  0
  1 12  1  0  0  0
 12 13  2  0  0  0
 12 17  1  0  0  0
 13 14  1  0  0  0
 18 17  1  0  0  0
 17 16  2  0  0  0
 14 15  2  0  0  0
 16 15  1  0  0  0
 15 19  1  0  0  0
 21 22  1  0  0  0
 21 23  1  0  0  0
M  END
> <minimizedAffinity>
-6.36922

$$$$
4JH0_1MD_A_801


 29 31  0  0  0  0  0  0  0  0999 V2000
   51.8279   45.9146   32.3212 C   0  0  0  0  0  0  0  0  0  0  0  0
   53.0009   45.0894   32.4628 C   0  0  0  0  0  0  0  0  0  0  0  0
   54.1212   45.5860   33.2104 C   0  0  0  0  0  0  0  0  0  0  0  0
   54.0999   46.7734   33.8568 N   0  0  0  0  0  0  0  0  0  0  0  0
   51.8686   47.1626   32.9409 C   0  0  0  0  0  0  0  0  0  0  0  0
   52.9904   47.5389   33.6682 C   0  0  0  0  0  0  0  0  0  0  0  0
   52.8295   48.9261   34.1665 C   0  0  0  0  0  0  0  0  0  0  0  0
   51.4898   49.2401   33.6960 N   0  0  0  0  0  0  0  0  0  0  0  0
   50.9169   48.2647   32.9675 C   0  0  0  0  0  0  0  0  0  0  0  0
   55.4426   44.9004   33.3247 C   0  0  0  0  0  0  0  0  0  0  0  0
   49.7959   48.3901   32.4548 O   0  0  0  0  0  0  0  0  0  0  0  0
   50.6760   45.5571   31.4460 C   0  0  0  0  0  0  0  0  0  0  0  0
   49.5426   44.8502   31.9618 C   0  0  0  0  0  0  0  0  0  0  0  0
   48.4658   44.5334   31.0491 C   0  0  0  0  0  0  0  0  0  0  0  0
   48.5325   44.9189   29.6692 C   0  0  0  0  0  0  0  0  0  0  0  0
   49.6745   45.6044   29.0967 C   0  0  0  0  0  0  0  0  0  0  0  0
   50.7039   45.8880   30.0457 C   0  0  0  0  0  0  0  0  0  0  0  0
   52.0371   46.6930   29.3952 Cl  0  0  0  0  0  0  0  0  0  0  0  0
   47.2124   44.5767   28.6436 Cl  0  0  0  0  0  0  0  0  0  0  0  0
   53.0436   43.6688   31.9564 C   0  0  0  0  0  0  0  0  0  0  0  0
   53.5273   43.5670   30.5815 N   0  0  0  0  0  0  0  0  0  0  0  0
   52.8961   44.0735   29.9607 H   0  0  0  0  0  0  0  0  0  0  0  0
   53.5616   42.5858   30.3049 H   0  0  0  0  0  0  0  0  0  0  0  0
   50.6089   50.2879   34.2210 C   0  0  0  0  0  0  0  0  0  0  0  0
   49.9598   49.7770   35.5149 C   0  0  0  0  0  0  0  0  0  0  0  0
   48.6093   50.0355   35.5862 N   0  0  0  0  0  0  0  0  0  0  0  0
   47.7482   49.6117   36.7425 C   0  0  0  0  0  0  0  0  0  0  0  0
   50.6458   49.1846   36.3865 O   0  0  0  0  0  0  0  0  0  0  0  0
   48.0079   50.6260   34.3608 C   0  0  0  0  0  0  0  0  0  0  0  0
 27 26  1  0  0  0
 10  3  1  0  0  0
  4  6  2  0  0  0
  4  3  1  0  0  0
 28 25  2  0  0  0
 26 25  1  0  0  0
 26 29  1  0  0  0
  7  6  1  0  0  0
  7  8  1  0  0  0
 25 24  1  0  0  0
  6  5  1  0  0  0
  3  2  2  0  0  0
 24  8  1  0  0  0
  8  9  1  0  0  0
  5  9  1  0  0  0
  5  1  2  0  0  0
  2 20  1  0  0  0
  2  1  1  0  0  0
  9 11  2  0  0  0
 20 21  1  0  0  0
  1 12  1  0  0  0
 12 13  2  0  0  0
 12 17  1  0  0  0
 13 14  1  0  0  0
 18 17  1  0  0  0
 17 16  2  0  0  0
 14 15  2  0  0  0
 16 15  1  0  0  0
 15 19  1  0  0  0
 21 22  1  0  0  0
 21 23  1  0  0  0
M  END
> <minimizedAffinity>
-6.16593

$$$$
4JH0_1MD_A_801


 29 31  0  0  0  0  0  0  0  0999 V2000
   51.7839   48.6402   33.6239 C   0  0  0  0  0  0  0  0  0  0  0  0
   52.1654   47.4076   32.9819 C   0  0  0  0  0  0  0  0  0  0  0  0
   51.1439   46.5362   32.4743 C   0  0  0  0  0  0  0  0  0  0  0  0
   49.8302   46.8550   32.5044 N   0  0  0  0  0  0  0  0  0  0  0  0
   50.4170   48.9025   33.7010 C   0  0  0  0  0  0  0  0  0  0  0  0
   49.5077   48.0082   33.1513 C   0  0  0  0  0  0  0  0  0  0  0  0
   48.1226   48.4635   33.4214 C   0  0  0  0  0  0  0  0  0  0  0  0
   48.3692   49.7198   34.1109 N   0  0  0  0  0  0  0  0  0  0  0  0
   49.6710   49.9933   34.3133 C   0  0  0  0  0  0  0  0  0  0  0  0
   51.3855   45.1749   31.9108 C   0  0  0  0  0  0  0  0  0  0  0  0
   50.0504   51.0016   34.9252 O   0  0  0  0  0  0  0  0  0  0  0  0
   52.7527   49.5382   34.3136 C   0  0  0  0  0  0  0  0  0  0  0  0
   53.1392   49.3095   35.6733 C   0  0  0  0  0  0  0  0  0  0  0  0
   54.0800   50.2280   36.2765 C   0  0  0  0  0  0  0  0  0  0  0  0
   54.6106   51.3334   35.5321 C   0  0  0  0  0  0  0  0  0  0  0  0
   54.2212   51.6229   34.1659 C   0  0  0  0  0  0  0  0  0  0  0  0
   53.2906   50.6827   33.6268 C   0  0  0  0  0  0  0  0  0  0  0  0
   52.8338   51.0025   32.0338 Cl  0  0  0  0  0  0  0  0  0  0  0  0
   55.7631   52.3556   36.2657 Cl  0  0  0  0  0  0  0  0  0  0  0  0
   53.6091   47.0605   32.7137 C   0  0  0  0  0  0  0  0  0  0  0  0
   54.2308   46.3187   33.8081 N   0  0  0  0  0  0  0  0  0  0  0  0
   54.2260   46.8908   34.6525 H   0  0  0  0  0  0  0  0  0  0  0  0
   55.1927   46.0881   33.5591 H   0  0  0  0  0  0  0  0  0  0  0  0
   47.4220   50.8291   34.2589 C   0  0  0  0  0  0  0  0  0  0  0  0
   47.1902   51.4605   32.8790 C   0  0  0  0  0  0  0  0  0  0  0  0
   45.9448   51.1896   32.3579 N   0  0  0  0  0  0  0  0  0  0  0  0
   45.4727   51.7169   31.0323 C   0  0  0  0  0  0  0  0  0  0  0  0
   48.0868   52.1503   32.3301 O   0  0  0  0  0  0  0  0  0  0  0  0
   45.0168   50.4665   33.2678 C   0  0  0  0  0  0  0  0  0  0  0  0
 27 26  1  0  0  0
 10  3  1  0  0  0
  4  6  2  0  0  0
  4  3  1  0  0  0
 28 25  2  0  0  0
 26 25  1  0  0  0
 26 29  1  0  0  0
  7  6  1  0  0  0
  7  8  1  0  0  0
 25 24  1  0  0  0
  6  5  1  0  0  0
  3  2  2  0  0  0
 24  8  1  0  0  0
  8  9  1  0  0  0
  5  9  1  0  0  0
  5  1  2  0  0  0
  2 20  1  0  0  0
  2  1  1  0  0  0
  9 11  2  0  0  0
 20 21  1  0  0  0
  1 12  1  0  0  0
 12 13  2  0  0  0
 12 17  1  0  0  0
 13 14  1  0  0  0
 18 17  1  0  0  0
 17 16  2  0  0  0
 14 15  2  0  0  0
 16 15  1  0  0  0
 15 19  1  0  0  0
 21 22  1  0  0  0
 21 23  1  0  0  0
M  END
> <minimizedAffinity>
-6.01044

$$$$
4JH0_1MD_A_801


 29 31  0  0  0  0  0  0  0  0999 V2000
   50.7381   45.8454   31.1171 C   0  0  0  0  0  0  0  0  0  0  0  0
   50.0415   44.9642   30.2142 C   0  0  0  0  0  0  0  0  0  0  0  0
   48.6228   45.1081   30.0494 C   0  0  0  0  0  0  0  0  0  0  0  0
   47.9130   46.0890   30.6512 N   0  0  0  0  0  0  0  0  0  0  0  0
   49.9627   46.7987   31.7753 C   0  0  0  0  0  0  0  0  0  0  0  0
   48.5991   46.8765   31.5240 C   0  0  0  0  0  0  0  0  0  0  0  0
   47.9822   47.9096   32.3904 C   0  0  0  0  0  0  0  0  0  0  0  0
   49.1498   48.4272   33.0855 N   0  0  0  0  0  0  0  0  0  0  0  0
   50.2994   47.7985   32.7794 C   0  0  0  0  0  0  0  0  0  0  0  0
   47.7575   44.1852   29.2565 C   0  0  0  0  0  0  0  0  0  0  0  0
   51.3777   48.0874   33.3169 O   0  0  0  0  0  0  0  0  0  0  0  0
   52.1765   45.6843   31.4715 C   0  0  0  0  0  0  0  0  0  0  0  0
   52.5926   44.7654   32.4877 C   0  0  0  0  0  0  0  0  0  0  0  0
   54.0062   44.6691   32.7799 C   0  0  0  0  0  0  0  0  0  0  0  0
   54.9613   45.4697   32.0698 C   0  0  0  0  0  0  0  0  0  0  0  0
   54.5822   46.4371   31.0587 C   0  0  0  0  0  0  0  0  0  0  0  0
   53.1752   46.4867   30.8161 C   0  0  0  0  0  0  0  0  0  0  0  0
   52.7194   47.6033   29.6355 Cl  0  0  0  0  0  0  0  0  0  0  0  0
   56.6231   45.2788   32.4063 Cl  0  0  0  0  0  0  0  0  0  0  0  0
   50.7730   43.9752   29.3405 C   0  0  0  0  0  0  0  0  0  0  0  0
   50.9243   42.6636   29.9659 N   0  0  0  0  0  0  0  0  0  0  0  0
   51.4762   42.7552   30.8188 H   0  0  0  0  0  0  0  0  0  0  0  0
   51.3983   42.0318   29.3204 H   0  0  0  0  0  0  0  0  0  0  0  0
   49.2564   49.7279   33.7536 C   0  0  0  0  0  0  0  0  0  0  0  0
   48.2241   49.7799   34.8885 C   0  0  0  0  0  0  0  0  0  0  0  0
   47.2342   50.7146   34.6827 N   0  0  0  0  0  0  0  0  0  0  0  0
   46.0969   50.9362   35.6395 C   0  0  0  0  0  0  0  0  0  0  0  0
   48.3239   49.0161   35.8823 O   0  0  0  0  0  0  0  0  0  0  0  0
   47.2640   51.3935   33.3597 C   0  0  0  0  0  0  0  0  0  0  0  0
 27 26  1  0  0  0
 10  3  1  0  0  0
  4  6  2  0  0  0
  4  3  1  0  0  0
 28 25  2  0  0  0
 26 25  1  0  0  0
 26 29  1  0  0  0
  7  6  1  0  0  0
  7  8  1  0  0  0
 25 24  1  0  0  0
  6  5  1  0  0  0
  3  2  2  0  0  0
 24  8  1  0  0  0
  8  9  1  0  0  0
  5  9  1  0  0  0
  5  1  2  0  0  0
  2 20  1  0  0  0
  2  1  1  0  0  0
  9 11  2  0  0  0
 20 21  1  0  0  0
  1 12  1  0  0  0
 12 13  2  0  0  0
 12 17  1  0  0  0
 13 14  1  0  0  0
 18 17  1  0  0  0
 17 16  2  0  0  0
 14 15  2  0  0  0
 16 15  1  0  0  0
 15 19  1  0  0  0
 21 22  1  0  0  0
 21 23  1  0  0  0
M  END
> <minimizedAffinity>
-5.83244

$$$$
4JH0_1MD_A_801


 29 31  0  0  0  0  0  0  0  0999 V2000
   52.9705   49.1160   34.1455 C   0  0  0  0  0  0  0  0  0  0  0  0
   51.8721   49.8282   34.7481 C   0  0  0  0  0  0  0  0  0  0  0  0
   50.5273   49.4203   34.4553 C   0  0  0  0  0  0  0  0  0  0  0  0
   50.2406   48.3421   33.6915 N   0  0  0  0  0  0  0  0  0  0  0  0
   52.6359   48.0543   33.3064 C   0  0  0  0  0  0  0  0  0  0  0  0
   51.3024   47.7192   33.1109 C   0  0  0  0  0  0  0  0  0  0  0  0
   51.1964   46.6141   32.1280 C   0  0  0  0  0  0  0  0  0  0  0  0
   52.5992   46.3403   31.8606 N   0  0  0  0  0  0  0  0  0  0  0  0
   53.4540   47.1619   32.4969 C   0  0  0  0  0  0  0  0  0  0  0  0
   49.2997   50.1454   34.8984 C   0  0  0  0  0  0  0  0  0  0  0  0
   54.6814   47.0919   32.3424 O   0  0  0  0  0  0  0  0  0  0  0  0
   54.3912   49.5496   34.2645 C   0  0  0  0  0  0  0  0  0  0  0  0
   54.9477   50.5231   33.3740 C   0  0  0  0  0  0  0  0  0  0  0  0
   56.3364   50.8889   33.5482 C   0  0  0  0  0  0  0  0  0  0  0  0
   57.1302   50.2944   34.5845 C   0  0  0  0  0  0  0  0  0  0  0  0
   56.6185   49.2805   35.4856 C   0  0  0  0  0  0  0  0  0  0  0  0
   55.2439   48.9613   35.2634 C   0  0  0  0  0  0  0  0  0  0  0  0
   54.6319   47.7876   36.3104 Cl  0  0  0  0  0  0  0  0  0  0  0  0
   58.7466   50.8008   34.7904 Cl  0  0  0  0  0  0  0  0  0  0  0  0
   52.0905   50.9109   35.7760 C   0  0  0  0  0  0  0  0  0  0  0  0
   52.2805   52.2322   35.1822 N   0  0  0  0  0  0  0  0  0  0  0  0
   53.1136   52.2238   34.5937 H   0  0  0  0  0  0  0  0  0  0  0  0
   52.3940   52.9245   35.9225 H   0  0  0  0  0  0  0  0  0  0  0  0
   53.1512   45.1005   31.3058 C   0  0  0  0  0  0  0  0  0  0  0  0
   52.3780   44.7514   30.0264 C   0  0  0  0  0  0  0  0  0  0  0  0
   51.7036   43.5537   30.1068 N   0  0  0  0  0  0  0  0  0  0  0  0
   50.8558   43.0080   28.9925 C   0  0  0  0  0  0  0  0  0  0  0  0
   52.3944   45.5252   29.0354 O   0  0  0  0  0  0  0  0  0  0  0  0
   51.7306   42.8953   31.4401 C   0  0  0  0  0  0  0  0  0  0  0  0
 27 26  1  0  0  0
 10  3  1  0  0  0
  4  6  2  0  0  0
  4  3  1  0  0  0
 28 25  2  0  0  0
 26 25  1  0  0  0
 26 29  1  0  0  0
  7  6  1  0  0  0
  7  8  1  0  0  0
 25 24  1  0  0  0
  6  5  1  0  0  0
  3  2  2  0  0  0
 24  8  1  0  0  0
  8  9  1  0  0  0
  5  9  1  0  0  0
  5  1  2  0  0  0
  2 20  1  0  0  0
  2  1  1  0  0  0
  9 11  2  0  0  0
 20 21  1  0  0  0
  1 12  1  0  0  0
 12 13  2  0  0  0
 12 17  1  0  0  0
 13 14  1  0  0  0
 18 17  1  0  0  0
 17 16  2  0  0  0
 14 15  2  0  0  0
 16 15  1  0  0  0
 15 19  1  0  0  0
 21 22  1  0  0  0
 21 23  1  0  0  0
M  END
> <minimizedAffinity>
-5.78050

$$$$
4JH0_1MD_A_801


 29 31  0  0  0  0  0  0  0  0999 V2000
   47.6713   47.8004   32.0878 C   0  0  0  0  0  0  0  0  0  0  0  0
   47.0440   47.2925   33.2818 C   0  0  0  0  0  0  0  0  0  0  0  0
   47.1015   45.8854   33.5596 C   0  0  0  0  0  0  0  0  0  0  0  0
   47.7865   45.0149   32.7844 N   0  0  0  0  0  0  0  0  0  0  0  0
   48.3072   46.8637   31.2745 C   0  0  0  0  0  0  0  0  0  0  0  0
   48.3330   45.5261   31.6475 C   0  0  0  0  0  0  0  0  0  0  0  0
   48.9963   44.7193   30.5950 C   0  0  0  0  0  0  0  0  0  0  0  0
   49.3839   45.7542   29.6499 N   0  0  0  0  0  0  0  0  0  0  0  0
   48.9838   46.9927   29.9914 C   0  0  0  0  0  0  0  0  0  0  0  0
   46.3862   45.2067   34.6807 C   0  0  0  0  0  0  0  0  0  0  0  0
   49.1938   47.9800   29.2728 O   0  0  0  0  0  0  0  0  0  0  0  0
   47.5421   49.2134   31.6326 C   0  0  0  0  0  0  0  0  0  0  0  0
   48.5195   50.1992   31.9840 C   0  0  0  0  0  0  0  0  0  0  0  0
   48.3223   51.5515   31.5096 C   0  0  0  0  0  0  0  0  0  0  0  0
   47.1820   51.8923   30.7091 C   0  0  0  0  0  0  0  0  0  0  0  0
   46.1507   50.9354   30.3586 C   0  0  0  0  0  0  0  0  0  0  0  0
   46.4007   49.6199   30.8563 C   0  0  0  0  0  0  0  0  0  0  0  0
   45.2120   48.4928   30.4496 Cl  0  0  0  0  0  0  0  0  0  0  0  0
   47.0223   53.4864   30.1219 Cl  0  0  0  0  0  0  0  0  0  0  0  0
   46.4353   48.2081   34.3151 C   0  0  0  0  0  0  0  0  0  0  0  0
   47.4181   48.7409   35.2557 N   0  0  0  0  0  0  0  0  0  0  0  0
   47.8468   47.9723   35.7712 H   0  0  0  0  0  0  0  0  0  0  0  0
   46.9554   49.3725   35.9095 H   0  0  0  0  0  0  0  0  0  0  0  0
   50.4266   45.6471   28.6248 C   0  0  0  0  0  0  0  0  0  0  0  0
   51.7622   45.3414   29.3171 C   0  0  0  0  0  0  0  0  0  0  0  0
   52.2509   44.0869   29.0289 N   0  0  0  0  0  0  0  0  0  0  0  0
   53.5537   43.5655   29.5665 C   0  0  0  0  0  0  0  0  0  0  0  0
   52.3097   46.1948   30.0608 O   0  0  0  0  0  0  0  0  0  0  0  0
   51.4837   43.3227   28.0094 C   0  0  0  0  0  0  0  0  0  0  0  0
 27 26  1  0  0  0
 10  3  1  0  0  0
  4  6  2  0  0  0
  4  3  1  0  0  0
 28 25  2  0  0  0
 26 25  1  0  0  0
 26 29  1  0  0  0
  7  6  1  0  0  0
  7  8  1  0  0  0
 25 24  1  0  0  0
  6  5  1  0  0  0
  3  2  2  0  0  0
 24  8  1  0  0  0
  8  9  1  0  0  0
  5  9  1  0  0  0
  5  1  2  0  0  0
  2 20  1  0  0  0
  2  1  1  0  0  0
  9 11  2  0  0  0
 20 21  1  0  0  0
  1 12  1  0  0  0
 12 13  2  0  0  0
 12 17  1  0  0  0
 13 14  1  0  0  0
 18 17  1  0  0  0
 17 16  2  0  0  0
 14 15  2  0  0  0
 16 15  1  0  0  0
 15 19  1  0  0  0
 21 22  1  0  0  0
 21 23  1  0  0  0
M  END
> <minimizedAffinity>
-5.68510

$$$$
