2JFZ_003_A_1256


 33 37  0  0  0  0  0  0  0  0999 V2000
   15.6305   56.4377   36.6715 C   0  0  0  0  0  0  0  0  0  0  0  0
   16.3495   55.5114   36.2869 O   0  0  0  0  0  0  0  0  0  0  0  0
   15.6084   56.7733   38.0186 N   0  0  0  0  0  0  0  0  0  0  0  0
   14.8130   57.8051   38.4439 C   0  0  0  0  0  0  0  0  0  0  0  0
   14.6762   58.2603   39.6151 N   0  0  0  0  0  0  0  0  0  0  0  0
   13.7934   59.2869   39.5862 N   0  0  0  0  0  0  0  0  0  0  0  0
   13.3384   59.4729   38.3382 C   0  0  0  0  0  0  0  0  0  0  0  0
   13.9490   58.5749   37.5475 C   0  0  0  0  0  0  0  0  0  0  0  0
   13.9970   58.1798   36.1216 C   0  0  0  0  0  0  0  0  0  0  0  0
   13.3071   58.7788   35.3154 O   0  0  0  0  0  0  0  0  0  0  0  0
   14.8256   57.1368   35.7748 N   0  0  0  0  0  0  0  0  0  0  0  0
   14.8702   56.7596   34.3566 C   0  0  0  0  0  0  0  0  0  0  0  0
   12.3230   60.5389   37.8988 C   0  0  0  0  0  0  0  0  0  0  0  0
   10.9500   60.4074   38.2693 C   0  0  0  0  0  0  0  0  0  0  0  0
   10.0219   61.4048   37.8745 C   0  0  0  0  0  0  0  0  0  0  0  0
   10.4483   62.4873   37.1431 N   0  0  0  0  0  0  0  0  0  0  0  0
   11.7608   62.6405   36.7711 C   0  0  0  0  0  0  0  0  0  0  0  0
   12.7254   61.6742   37.1389 C   0  0  0  0  0  0  0  0  0  0  0  0
   16.4458   56.0450   38.9978 C   0  0  0  0  0  0  0  0  0  0  0  0
   17.9622   56.3896   38.9684 C   0  0  0  0  0  0  0  0  0  0  0  0
   18.6729   55.7273   40.1642 C   0  0  0  0  0  0  0  0  0  0  0  0
   18.1930   57.9115   39.0567 C   0  0  0  0  0  0  0  0  0  0  0  0
   13.4343   60.0780   40.7897 C   0  0  0  0  0  0  0  0  0  0  0  0
   13.8025   61.5615   40.4598 C   0  0  0  0  0  0  0  0  0  0  0  0
   15.1515   61.9436   40.0931 C   0  0  0  0  0  0  0  0  0  0  0  0
   16.2324   60.9926   40.0394 C   0  0  0  0  0  0  0  0  0  0  0  0
   17.5432   61.3979   39.6704 C   0  0  0  0  0  0  0  0  0  0  0  0
   17.7962   62.7606   39.3437 C   0  0  0  0  0  0  0  0  0  0  0  0
   16.7444   63.7191   39.3890 C   0  0  0  0  0  0  0  0  0  0  0  0
   15.4292   63.3224   39.7608 C   0  0  0  0  0  0  0  0  0  0  0  0
   14.3899   64.2908   39.7997 C   0  0  0  0  0  0  0  0  0  0  0  0
   13.0692   63.9093   40.1671 C   0  0  0  0  0  0  0  0  0  0  0  0
   12.7768   62.5584   40.4938 C   0  0  0  0  0  0  0  0  0  0  0  0
  1  2  2  0  0  0
  1  3  1  0  0  0
  1 11  1  0  0  0
  3 19  1  0  0  0
  3  4  1  0  0  0
 19 20  1  0  0  0
 20 21  1  0  0  0
 20 22  1  0  0  0
  4  5  2  0  0  0
  4  8  1  0  0  0
  5  6  1  0  0  0
  6 23  1  0  0  0
  6  7  1  0  0  0
 23 24  1  0  0  0
 24 25  1  0  0  0
 24 33  2  0  0  0
 25 26  1  0  0  0
 25 30  2  0  0  0
 26 27  2  0  0  0
 27 28  1  0  0  0
 28 29  2  0  0  0
 29 30  1  0  0  0
 30 31  1  0  0  0
 31 32  2  0  0  0
 32 33  1  0  0  0
  7 13  1  0  0  0
  7  8  2  0  0  0
 13 14  1  0  0  0
 13 18  2  0  0  0
 14 15  2  0  0  0
 15 16  1  0  0  0
 16 17  2  0  0  0
 17 18  1  0  0  0
  8  9  1  0  0  0
  9 10  2  0  0  0
  9 11  1  0  0  0
 11 12  1  0  0  0
M  END
> <minimizedAffinity>
-10.54224

$$$$
2JFZ_003_A_1256


 33 37  0  0  0  0  0  0  0  0999 V2000
   15.6471   56.1274   35.4537 C   0  0  0  0  0  0  0  0  0  0  0  0
   16.2783   55.2276   34.8924 O   0  0  0  0  0  0  0  0  0  0  0  0
   15.8683   56.3813   36.8007 N   0  0  0  0  0  0  0  0  0  0  0  0
   15.1701   57.3836   37.4219 C   0  0  0  0  0  0  0  0  0  0  0  0
   15.2482   57.7672   38.6238 N   0  0  0  0  0  0  0  0  0  0  0  0
   14.3829   58.7915   38.8141 N   0  0  0  0  0  0  0  0  0  0  0  0
   13.7142   59.0511   37.6807 C   0  0  0  0  0  0  0  0  0  0  0  0
   14.1666   58.2039   36.7416 C   0  0  0  0  0  0  0  0  0  0  0  0
   13.9563   57.8953   35.3091 C   0  0  0  0  0  0  0  0  0  0  0  0
   13.1387   58.5400   34.6762 O   0  0  0  0  0  0  0  0  0  0  0  0
   14.7010   56.8771   34.7584 N   0  0  0  0  0  0  0  0  0  0  0  0
   14.4888   56.5860   33.3351 C   0  0  0  0  0  0  0  0  0  0  0  0
   12.6457   60.1392   37.4940 C   0  0  0  0  0  0  0  0  0  0  0  0
   12.9422   61.2996   36.7159 C   0  0  0  0  0  0  0  0  0  0  0  0
   11.9446   62.2913   36.5338 C   0  0  0  0  0  0  0  0  0  0  0  0
   10.7042   62.1290   37.1029 N   0  0  0  0  0  0  0  0  0  0  0  0
   10.3903   61.0256   37.8567 C   0  0  0  0  0  0  0  0  0  0  0  0
   11.3494   60.0084   38.0689 C   0  0  0  0  0  0  0  0  0  0  0  0
   16.8608   55.5974   37.5695 C   0  0  0  0  0  0  0  0  0  0  0  0
   16.2708   54.4963   38.4963 C   0  0  0  0  0  0  0  0  0  0  0  0
   17.0484   54.4593   39.8258 C   0  0  0  0  0  0  0  0  0  0  0  0
   16.3697   53.1027   37.8443 C   0  0  0  0  0  0  0  0  0  0  0  0
   14.2508   59.5079   40.1074 C   0  0  0  0  0  0  0  0  0  0  0  0
   15.0753   60.8283   39.9585 C   0  0  0  0  0  0  0  0  0  0  0  0
   14.4418   62.1295   40.0338 C   0  0  0  0  0  0  0  0  0  0  0  0
   13.0214   62.2837   40.2194 C   0  0  0  0  0  0  0  0  0  0  0  0
   12.4312   63.5739   40.2951 C   0  0  0  0  0  0  0  0  0  0  0  0
   13.2511   64.7335   40.1913 C   0  0  0  0  0  0  0  0  0  0  0  0
   14.6574   64.6071   40.0080 C   0  0  0  0  0  0  0  0  0  0  0  0
   15.2563   63.3186   39.9278 C   0  0  0  0  0  0  0  0  0  0  0  0
   16.6615   63.2092   39.7463 C   0  0  0  0  0  0  0  0  0  0  0  0
   17.2755   61.9279   39.6667 C   0  0  0  0  0  0  0  0  0  0  0  0
   16.4916   60.7483   39.7720 C   0  0  0  0  0  0  0  0  0  0  0  0
  1  2  2  0  0  0
  1  3  1  0  0  0
  1 11  1  0  0  0
  3 19  1  0  0  0
  3  4  1  0  0  0
 19 20  1  0  0  0
 20 21  1  0  0  0
 20 22  1  0  0  0
  4  5  2  0  0  0
  4  8  1  0  0  0
  5  6  1  0  0  0
  6 23  1  0  0  0
  6  7  1  0  0  0
 23 24  1  0  0  0
 24 25  1  0  0  0
 24 33  2  0  0  0
 25 26  1  0  0  0
 25 30  2  0  0  0
 26 27  2  0  0  0
 27 28  1  0  0  0
 28 29  2  0  0  0
 29 30  1  0  0  0
 30 31  1  0  0  0
 31 32  2  0  0  0
 32 33  1  0  0  0
  7 13  1  0  0  0
  7  8  2  0  0  0
 13 14  1  0  0  0
 13 18  2  0  0  0
 14 15  2  0  0  0
 15 16  1  0  0  0
 16 17  2  0  0  0
 17 18  1  0  0  0
  8  9  1  0  0  0
  9 10  2  0  0  0
  9 11  1  0  0  0
 11 12  1  0  0  0
M  END
> <minimizedAffinity>
-10.22515

$$$$
2JFZ_003_A_1256


 33 37  0  0  0  0  0  0  0  0999 V2000
   13.5979   57.7934   34.2979 C   0  0  0  0  0  0  0  0  0  0  0  0
   13.0085   57.9279   33.2220 O   0  0  0  0  0  0  0  0  0  0  0  0
   13.1803   58.5228   35.4031 N   0  0  0  0  0  0  0  0  0  0  0  0
   13.8325   58.3693   36.5985 C   0  0  0  0  0  0  0  0  0  0  0  0
   13.5876   58.9296   37.7047 N   0  0  0  0  0  0  0  0  0  0  0  0
   14.4749   58.4861   38.6268 N   0  0  0  0  0  0  0  0  0  0  0  0
   15.3318   57.6192   38.0671 C   0  0  0  0  0  0  0  0  0  0  0  0
   14.9826   57.4815   36.7774 C   0  0  0  0  0  0  0  0  0  0  0  0
   15.3996   56.7286   35.5729 C   0  0  0  0  0  0  0  0  0  0  0  0
   16.3476   55.9667   35.6469 O   0  0  0  0  0  0  0  0  0  0  0  0
   14.6891   56.9351   34.4121 N   0  0  0  0  0  0  0  0  0  0  0  0
   15.1076   56.1768   33.2266 C   0  0  0  0  0  0  0  0  0  0  0  0
   16.4839   56.9000   38.7855 C   0  0  0  0  0  0  0  0  0  0  0  0
   16.2311   55.6863   39.4947 C   0  0  0  0  0  0  0  0  0  0  0  0
   17.3033   55.0192   40.1406 C   0  0  0  0  0  0  0  0  0  0  0  0
   18.5729   55.5416   40.0786 N   0  0  0  0  0  0  0  0  0  0  0  0
   18.8464   56.7066   39.4061 C   0  0  0  0  0  0  0  0  0  0  0  0
   17.8128   57.4104   38.7459 C   0  0  0  0  0  0  0  0  0  0  0  0
   12.0293   59.4488   35.3126 C   0  0  0  0  0  0  0  0  0  0  0  0
   12.0635   60.6562   36.2927 C   0  0  0  0  0  0  0  0  0  0  0  0
   10.6368   60.9775   36.7774 C   0  0  0  0  0  0  0  0  0  0  0  0
   12.6329   61.9160   35.6104 C   0  0  0  0  0  0  0  0  0  0  0  0
   14.4435   58.9118   40.0485 C   0  0  0  0  0  0  0  0  0  0  0  0
   14.2712   60.4660   40.0326 C   0  0  0  0  0  0  0  0  0  0  0  0
   15.3981   61.3509   39.8149 C   0  0  0  0  0  0  0  0  0  0  0  0
   16.7391   60.8574   39.6309 C   0  0  0  0  0  0  0  0  0  0  0  0
   17.8220   61.7510   39.4136 C   0  0  0  0  0  0  0  0  0  0  0  0
   17.5832   63.1542   39.3716 C   0  0  0  0  0  0  0  0  0  0  0  0
   16.2668   63.6662   39.5502 C   0  0  0  0  0  0  0  0  0  0  0  0
   15.1768   62.7783   39.7717 C   0  0  0  0  0  0  0  0  0  0  0  0
   13.8685   63.3050   39.9467 C   0  0  0  0  0  0  0  0  0  0  0  0
   12.7681   62.4301   40.1666 C   0  0  0  0  0  0  0  0  0  0  0  0
   12.9658   61.0244   40.2090 C   0  0  0  0  0  0  0  0  0  0  0  0
  1  2  2  0  0  0
  1  3  1  0  0  0
  1 11  1  0  0  0
  3 19  1  0  0  0
  3  4  1  0  0  0
 19 20  1  0  0  0
 20 21  1  0  0  0
 20 22  1  0  0  0
  4  5  2  0  0  0
  4  8  1  0  0  0
  5  6  1  0  0  0
  6 23  1  0  0  0
  6  7  1  0  0  0
 23 24  1  0  0  0
 24 25  1  0  0  0
 24 33  2  0  0  0
 25 26  1  0  0  0
 25 30  2  0  0  0
 26 27  2  0  0  0
 27 28  1  0  0  0
 28 29  2  0  0  0
 29 30  1  0  0  0
 30 31  1  0  0  0
 31 32  2  0  0  0
 32 33  1  0  0  0
  7 13  1  0  0  0
  7  8  2  0  0  0
 13 14  1  0  0  0
 13 18  2  0  0  0
 14 15  2  0  0  0
 15 16  1  0  0  0
 16 17  2  0  0  0
 17 18  1  0  0  0
  8  9  1  0  0  0
  9 10  2  0  0  0
  9 11  1  0  0  0
 11 12  1  0  0  0
M  END
> <minimizedAffinity>
-9.98362

$$$$
2JFZ_003_A_1256


 33 37  0  0  0  0  0  0  0  0999 V2000
   13.4409   57.8028   34.2785 C   0  0  0  0  0  0  0  0  0  0  0  0
   12.8189   57.9039   33.2174 O   0  0  0  0  0  0  0  0  0  0  0  0
   13.0630   58.5739   35.3696 N   0  0  0  0  0  0  0  0  0  0  0  0
   13.7516   58.4576   36.5488 C   0  0  0  0  0  0  0  0  0  0  0  0
   13.5452   59.0584   37.6416 N   0  0  0  0  0  0  0  0  0  0  0  0
   14.4582   58.6409   38.5506 N   0  0  0  0  0  0  0  0  0  0  0  0
   15.2914   57.7483   37.9956 C   0  0  0  0  0  0  0  0  0  0  0  0
   14.9008   57.5679   36.7230 C   0  0  0  0  0  0  0  0  0  0  0  0
   15.2748   56.7699   35.5335 C   0  0  0  0  0  0  0  0  0  0  0  0
   16.2198   56.0039   35.6049 O   0  0  0  0  0  0  0  0  0  0  0  0
   14.5296   56.9408   34.3889 N   0  0  0  0  0  0  0  0  0  0  0  0
   14.9056   56.1380   33.2186 C   0  0  0  0  0  0  0  0  0  0  0  0
   16.4608   57.0461   38.7027 C   0  0  0  0  0  0  0  0  0  0  0  0
   17.7974   57.5003   38.4862 C   0  0  0  0  0  0  0  0  0  0  0  0
   18.8700   56.8579   39.1562 C   0  0  0  0  0  0  0  0  0  0  0  0
   18.6170   55.8087   40.0070 N   0  0  0  0  0  0  0  0  0  0  0  0
   17.3436   55.3491   40.2340 C   0  0  0  0  0  0  0  0  0  0  0  0
   16.2397   55.9547   39.5904 C   0  0  0  0  0  0  0  0  0  0  0  0
   11.9158   59.5049   35.2824 C   0  0  0  0  0  0  0  0  0  0  0  0
   11.9522   60.7057   36.2704 C   0  0  0  0  0  0  0  0  0  0  0  0
   10.5171   61.0972   36.6714 C   0  0  0  0  0  0  0  0  0  0  0  0
   12.6241   61.9373   35.6312 C   0  0  0  0  0  0  0  0  0  0  0  0
   14.4744   59.1166   39.9566 C   0  0  0  0  0  0  0  0  0  0  0  0
   15.0799   60.5579   39.9202 C   0  0  0  0  0  0  0  0  0  0  0  0
   14.2342   61.7345   39.8954 C   0  0  0  0  0  0  0  0  0  0  0  0
   12.7963   61.6477   39.8731 C   0  0  0  0  0  0  0  0  0  0  0  0
   11.9946   62.8206   39.8550 C   0  0  0  0  0  0  0  0  0  0  0  0
   12.6160   64.1018   39.8636 C   0  0  0  0  0  0  0  0  0  0  0  0
   14.0352   64.2136   39.8861 C   0  0  0  0  0  0  0  0  0  0  0  0
   14.8457   63.0439   39.9010 C   0  0  0  0  0  0  0  0  0  0  0  0
   16.2609   63.1723   39.9249 C   0  0  0  0  0  0  0  0  0  0  0  0
   17.0848   62.0123   39.9425 C   0  0  0  0  0  0  0  0  0  0  0  0
   16.5016   60.7174   39.9406 C   0  0  0  0  0  0  0  0  0  0  0  0
  1  2  2  0  0  0
  1  3  1  0  0  0
  1 11  1  0  0  0
  3 19  1  0  0  0
  3  4  1  0  0  0
 19 20  1  0  0  0
 20 21  1  0  0  0
 20 22  1  0  0  0
  4  5  2  0  0  0
  4  8  1  0  0  0
  5  6  1  0  0  0
  6 23  1  0  0  0
  6  7  1  0  0  0
 23 24  1  0  0  0
 24 25  1  0  0  0
 24 33  2  0  0  0
 25 26  1  0  0  0
 25 30  2  0  0  0
 26 27  2  0  0  0
 27 28  1  0  0  0
 28 29  2  0  0  0
 29 30  1  0  0  0
 30 31  1  0  0  0
 31 32  2  0  0  0
 32 33  1  0  0  0
  7 13  1  0  0  0
  7  8  2  0  0  0
 13 14  1  0  0  0
 13 18  2  0  0  0
 14 15  2  0  0  0
 15 16  1  0  0  0
 16 17  2  0  0  0
 17 18  1  0  0  0
  8  9  1  0  0  0
  9 10  2  0  0  0
  9 11  1  0  0  0
 11 12  1  0  0  0
M  END
> <minimizedAffinity>
-9.94993

$$$$
2JFZ_003_A_1256


 33 37  0  0  0  0  0  0  0  0999 V2000
   14.1826   64.5856   39.9345 C   0  0  0  0  0  0  0  0  0  0  0  0
   15.0390   65.3267   40.4249 O   0  0  0  0  0  0  0  0  0  0  0  0
   14.5699   63.5685   39.0723 N   0  0  0  0  0  0  0  0  0  0  0  0
   13.6185   62.7434   38.5318 C   0  0  0  0  0  0  0  0  0  0  0  0
   13.7808   61.7642   37.7492 N   0  0  0  0  0  0  0  0  0  0  0  0
   12.5715   61.2241   37.4662 N   0  0  0  0  0  0  0  0  0  0  0  0
   11.6000   61.9101   38.0864 C   0  0  0  0  0  0  0  0  0  0  0  0
   12.1861   62.8885   38.7960 C   0  0  0  0  0  0  0  0  0  0  0  0
   11.8159   63.9894   39.7140 C   0  0  0  0  0  0  0  0  0  0  0  0
   10.6412   64.1687   39.9836 O   0  0  0  0  0  0  0  0  0  0  0  0
   12.8313   64.7698   40.2186 N   0  0  0  0  0  0  0  0  0  0  0  0
   12.4520   65.8533   41.1338 C   0  0  0  0  0  0  0  0  0  0  0  0
   10.0954   61.6078   38.0128 C   0  0  0  0  0  0  0  0  0  0  0  0
    9.2277   62.4905   37.3003 C   0  0  0  0  0  0  0  0  0  0  0  0
    7.8426   62.1952   37.2222 C   0  0  0  0  0  0  0  0  0  0  0  0
    7.3470   61.0657   37.8282 N   0  0  0  0  0  0  0  0  0  0  0  0
    8.1557   60.1994   38.5209 C   0  0  0  0  0  0  0  0  0  0  0  0
    9.5435   60.4485   38.6288 C   0  0  0  0  0  0  0  0  0  0  0  0
   15.9967   63.3516   38.7442 C   0  0  0  0  0  0  0  0  0  0  0  0
   16.8470   62.6865   39.8640 C   0  0  0  0  0  0  0  0  0  0  0  0
   18.1848   62.1920   39.2816 C   0  0  0  0  0  0  0  0  0  0  0  0
   16.1157   61.4767   40.4793 C   0  0  0  0  0  0  0  0  0  0  0  0
   12.4029   60.0263   36.6059 C   0  0  0  0  0  0  0  0  0  0  0  0
   13.4733   58.9925   37.0865 C   0  0  0  0  0  0  0  0  0  0  0  0
   14.1557   58.1190   36.1529 C   0  0  0  0  0  0  0  0  0  0  0  0
   13.8704   58.1297   34.7407 C   0  0  0  0  0  0  0  0  0  0  0  0
   14.5613   57.2647   33.8502 C   0  0  0  0  0  0  0  0  0  0  0  0
   15.5535   56.3766   34.3547 C   0  0  0  0  0  0  0  0  0  0  0  0
   15.8536   56.3478   35.7462 C   0  0  0  0  0  0  0  0  0  0  0  0
   15.1640   57.2085   36.6456 C   0  0  0  0  0  0  0  0  0  0  0  0
   15.4762   57.1689   38.0315 C   0  0  0  0  0  0  0  0  0  0  0  0
   14.7971   58.0249   38.9430 C   0  0  0  0  0  0  0  0  0  0  0  0
   13.8056   58.9285   38.4767 C   0  0  0  0  0  0  0  0  0  0  0  0
  1  2  2  0  0  0
  1  3  1  0  0  0
  1 11  1  0  0  0
  3 19  1  0  0  0
  3  4  1  0  0  0
 19 20  1  0  0  0
 20 21  1  0  0  0
 20 22  1  0  0  0
  4  5  2  0  0  0
  4  8  1  0  0  0
  5  6  1  0  0  0
  6 23  1  0  0  0
  6  7  1  0  0  0
 23 24  1  0  0  0
 24 25  1  0  0  0
 24 33  2  0  0  0
 25 26  1  0  0  0
 25 30  2  0  0  0
 26 27  2  0  0  0
 27 28  1  0  0  0
 28 29  2  0  0  0
 29 30  1  0  0  0
 30 31  1  0  0  0
 31 32  2  0  0  0
 32 33  1  0  0  0
  7 13  1  0  0  0
  7  8  2  0  0  0
 13 14  1  0  0  0
 13 18  2  0  0  0
 14 15  2  0  0  0
 15 16  1  0  0  0
 16 17  2  0  0  0
 17 18  1  0  0  0
  8  9  1  0  0  0
  9 10  2  0  0  0
  9 11  1  0  0  0
 11 12  1  0  0  0
M  END
> <minimizedAffinity>
-9.43240

$$$$
2JFZ_003_A_1256


 33 37  0  0  0  0  0  0  0  0999 V2000
   14.2426   64.5880   39.8995 C   0  0  0  0  0  0  0  0  0  0  0  0
   15.1711   65.2588   40.3587 O   0  0  0  0  0  0  0  0  0  0  0  0
   14.5141   63.5764   38.9881 N   0  0  0  0  0  0  0  0  0  0  0  0
   13.4827   62.8291   38.4823 C   0  0  0  0  0  0  0  0  0  0  0  0
   13.5371   61.8668   37.6646 N   0  0  0  0  0  0  0  0  0  0  0  0
   12.2817   61.4117   37.4389 N   0  0  0  0  0  0  0  0  0  0  0  0
   11.3930   62.1369   38.1342 C   0  0  0  0  0  0  0  0  0  0  0  0
   12.0800   63.0544   38.8347 C   0  0  0  0  0  0  0  0  0  0  0  0
   11.8339   64.1468   39.8031 C   0  0  0  0  0  0  0  0  0  0  0  0
   10.6905   64.3900   40.1467 O   0  0  0  0  0  0  0  0  0  0  0  0
   12.9243   64.8465   40.2681 N   0  0  0  0  0  0  0  0  0  0  0  0
   12.6678   65.9222   41.2338 C   0  0  0  0  0  0  0  0  0  0  0  0
    9.8705   61.9309   38.1415 C   0  0  0  0  0  0  0  0  0  0  0  0
    9.3084   60.8127   38.8297 C   0  0  0  0  0  0  0  0  0  0  0  0
    7.9008   60.6391   38.8464 C   0  0  0  0  0  0  0  0  0  0  0  0
    7.0904   61.5450   38.2049 N   0  0  0  0  0  0  0  0  0  0  0  0
    7.6013   62.6283   37.5342 C   0  0  0  0  0  0  0  0  0  0  0  0
    8.9976   62.8464   37.4872 C   0  0  0  0  0  0  0  0  0  0  0  0
   15.9031   63.2817   38.5702 C   0  0  0  0  0  0  0  0  0  0  0  0
   16.8587   62.8158   39.7056 C   0  0  0  0  0  0  0  0  0  0  0  0
   18.2636   62.5509   39.1315 C   0  0  0  0  0  0  0  0  0  0  0  0
   16.3561   61.5147   40.3625 C   0  0  0  0  0  0  0  0  0  0  0  0
   11.9881   60.2542   36.5572 C   0  0  0  0  0  0  0  0  0  0  0  0
   13.2154   59.2930   36.6797 C   0  0  0  0  0  0  0  0  0  0  0  0
   13.7673   58.9296   37.9695 C   0  0  0  0  0  0  0  0  0  0  0  0
   13.2415   59.4509   39.2054 C   0  0  0  0  0  0  0  0  0  0  0  0
   13.8013   59.0704   40.4546 C   0  0  0  0  0  0  0  0  0  0  0  0
   14.8939   58.1579   40.4911 C   0  0  0  0  0  0  0  0  0  0  0  0
   15.4307   57.6287   39.2833 C   0  0  0  0  0  0  0  0  0  0  0  0
   14.8782   58.0071   38.0276 C   0  0  0  0  0  0  0  0  0  0  0  0
   15.4243   57.4688   36.8310 C   0  0  0  0  0  0  0  0  0  0  0  0
   14.8813   57.8356   35.5679 C   0  0  0  0  0  0  0  0  0  0  0  0
   13.7875   58.7382   35.4914 C   0  0  0  0  0  0  0  0  0  0  0  0
  1  2  2  0  0  0
  1  3  1  0  0  0
  1 11  1  0  0  0
  3 19  1  0  0  0
  3  4  1  0  0  0
 19 20  1  0  0  0
 20 21  1  0  0  0
 20 22  1  0  0  0
  4  5  2  0  0  0
  4  8  1  0  0  0
  5  6  1  0  0  0
  6 23  1  0  0  0
  6  7  1  0  0  0
 23 24  1  0  0  0
 24 25  1  0  0  0
 24 33  2  0  0  0
 25 26  1  0  0  0
 25 30  2  0  0  0
 26 27  2  0  0  0
 27 28  1  0  0  0
 28 29  2  0  0  0
 29 30  1  0  0  0
 30 31  1  0  0  0
 31 32  2  0  0  0
 32 33  1  0  0  0
  7 13  1  0  0  0
  7  8  2  0  0  0
 13 14  1  0  0  0
 13 18  2  0  0  0
 14 15  2  0  0  0
 15 16  1  0  0  0
 16 17  2  0  0  0
 17 18  1  0  0  0
  8  9  1  0  0  0
  9 10  2  0  0  0
  9 11  1  0  0  0
 11 12  1  0  0  0
M  END
> <minimizedAffinity>
-9.09859

$$$$
2JFZ_003_A_1256


 33 37  0  0  0  0  0  0  0  0999 V2000
   16.0413   56.5895   39.2118 C   0  0  0  0  0  0  0  0  0  0  0  0
   16.5020   56.2108   40.2923 O   0  0  0  0  0  0  0  0  0  0  0  0
   15.1632   57.6646   39.1812 N   0  0  0  0  0  0  0  0  0  0  0  0
   14.6557   58.0872   37.9804 C   0  0  0  0  0  0  0  0  0  0  0  0
   13.8653   59.0478   37.7559 N   0  0  0  0  0  0  0  0  0  0  0  0
   13.6252   59.1160   36.4248 N   0  0  0  0  0  0  0  0  0  0  0  0
   14.2819   58.1378   35.7838 C   0  0  0  0  0  0  0  0  0  0  0  0
   14.9721   57.4441   36.7041 C   0  0  0  0  0  0  0  0  0  0  0  0
   15.9055   56.2977   36.7825 C   0  0  0  0  0  0  0  0  0  0  0  0
   16.2180   55.7148   35.7591 O   0  0  0  0  0  0  0  0  0  0  0  0
   16.3747   55.9392   38.0259 N   0  0  0  0  0  0  0  0  0  0  0  0
   17.3056   54.8057   38.0894 C   0  0  0  0  0  0  0  0  0  0  0  0
   14.2622   57.8816   34.2690 C   0  0  0  0  0  0  0  0  0  0  0  0
   15.4302   58.1423   33.4895 C   0  0  0  0  0  0  0  0  0  0  0  0
   15.4097   57.8867   32.0945 C   0  0  0  0  0  0  0  0  0  0  0  0
   14.2718   57.3904   31.5049 N   0  0  0  0  0  0  0  0  0  0  0  0
   13.1337   57.1313   32.2275 C   0  0  0  0  0  0  0  0  0  0  0  0
   13.1022   57.3693   33.6210 C   0  0  0  0  0  0  0  0  0  0  0  0
   14.7829   58.3719   40.4245 C   0  0  0  0  0  0  0  0  0  0  0  0
   14.6079   59.9117   40.2913 C   0  0  0  0  0  0  0  0  0  0  0  0
   15.9053   60.6248   40.7178 C   0  0  0  0  0  0  0  0  0  0  0  0
   13.4624   60.4251   41.1864 C   0  0  0  0  0  0  0  0  0  0  0  0
   12.7688   60.1614   35.8108 C   0  0  0  0  0  0  0  0  0  0  0  0
   11.8931   60.7410   36.9695 C   0  0  0  0  0  0  0  0  0  0  0  0
   12.3550   61.8426   37.7900 C   0  0  0  0  0  0  0  0  0  0  0  0
   13.6505   62.4463   37.6083 C   0  0  0  0  0  0  0  0  0  0  0  0
   14.0719   63.5294   38.4256 C   0  0  0  0  0  0  0  0  0  0  0  0
   13.2037   64.0318   39.4364 C   0  0  0  0  0  0  0  0  0  0  0  0
   11.9184   63.4523   39.6349 C   0  0  0  0  0  0  0  0  0  0  0  0
   11.4898   62.3650   38.8230 C   0  0  0  0  0  0  0  0  0  0  0  0
   10.2034   61.7985   39.0326 C   0  0  0  0  0  0  0  0  0  0  0  0
    9.7595   60.7126   38.2274 C   0  0  0  0  0  0  0  0  0  0  0  0
   10.5947   60.1882   37.2054 C   0  0  0  0  0  0  0  0  0  0  0  0
  1  2  2  0  0  0
  1  3  1  0  0  0
  1 11  1  0  0  0
  3 19  1  0  0  0
  3  4  1  0  0  0
 19 20  1  0  0  0
 20 21  1  0  0  0
 20 22  1  0  0  0
  4  5  2  0  0  0
  4  8  1  0  0  0
  5  6  1  0  0  0
  6 23  1  0  0  0
  6  7  1  0  0  0
 23 24  1  0  0  0
 24 25  1  0  0  0
 24 33  2  0  0  0
 25 26  1  0  0  0
 25 30  2  0  0  0
 26 27  2  0  0  0
 27 28  1  0  0  0
 28 29  2  0  0  0
 29 30  1  0  0  0
 30 31  1  0  0  0
 31 32  2  0  0  0
 32 33  1  0  0  0
  7 13  1  0  0  0
  7  8  2  0  0  0
 13 14  1  0  0  0
 13 18  2  0  0  0
 14 15  2  0  0  0
 15 16  1  0  0  0
 16 17  2  0  0  0
 17 18  1  0  0  0
  8  9  1  0  0  0
  9 10  2  0  0  0
  9 11  1  0  0  0
 11 12  1  0  0  0
M  END
> <minimizedAffinity>
-9.02320

$$$$
2JFZ_003_A_1256


 33 37  0  0  0  0  0  0  0  0999 V2000
    8.7399   62.5197   39.1444 C   0  0  0  0  0  0  0  0  0  0  0  0
    7.5142   62.6563   39.1006 O   0  0  0  0  0  0  0  0  0  0  0  0
    9.2948   61.2587   38.9717 N   0  0  0  0  0  0  0  0  0  0  0  0
   10.6563   61.1088   39.0160 C   0  0  0  0  0  0  0  0  0  0  0  0
   11.3358   60.0537   38.8657 N   0  0  0  0  0  0  0  0  0  0  0  0
   12.6502   60.3584   38.9821 N   0  0  0  0  0  0  0  0  0  0  0  0
   12.8028   61.6663   39.2376 C   0  0  0  0  0  0  0  0  0  0  0  0
   11.5785   62.2183   39.2636 C   0  0  0  0  0  0  0  0  0  0  0  0
   10.9454   63.5435   39.4497 C   0  0  0  0  0  0  0  0  0  0  0  0
   11.6507   64.5154   39.6563 O   0  0  0  0  0  0  0  0  0  0  0  0
    9.5720   63.6106   39.3854 N   0  0  0  0  0  0  0  0  0  0  0  0
    8.9567   64.9316   39.5639 C   0  0  0  0  0  0  0  0  0  0  0  0
   14.1404   62.3955   39.4369 C   0  0  0  0  0  0  0  0  0  0  0  0
   14.4412   63.5532   38.6565 C   0  0  0  0  0  0  0  0  0  0  0  0
   15.6707   64.2310   38.8586 C   0  0  0  0  0  0  0  0  0  0  0  0
   16.5596   63.7726   39.8012 N   0  0  0  0  0  0  0  0  0  0  0  0
   16.2991   62.6622   40.5651 C   0  0  0  0  0  0  0  0  0  0  0  0
   15.0881   61.9505   40.4022 C   0  0  0  0  0  0  0  0  0  0  0  0
    8.4378   60.0782   38.7217 C   0  0  0  0  0  0  0  0  0  0  0  0
    7.8882   59.9454   37.2727 C   0  0  0  0  0  0  0  0  0  0  0  0
    7.2287   58.5654   37.0874 C   0  0  0  0  0  0  0  0  0  0  0  0
    9.0164   60.0812   36.2307 C   0  0  0  0  0  0  0  0  0  0  0  0
   13.7303   59.3538   38.8161 C   0  0  0  0  0  0  0  0  0  0  0  0
   13.7152   58.9455   37.3067 C   0  0  0  0  0  0  0  0  0  0  0  0
   14.5474   57.8707   36.8043 C   0  0  0  0  0  0  0  0  0  0  0  0
   15.4534   57.1389   37.6524 C   0  0  0  0  0  0  0  0  0  0  0  0
   16.2519   56.0860   37.1304 C   0  0  0  0  0  0  0  0  0  0  0  0
   16.1557   55.7425   35.7518 C   0  0  0  0  0  0  0  0  0  0  0  0
   15.2674   56.4507   34.8936 C   0  0  0  0  0  0  0  0  0  0  0  0
   14.4664   57.5088   35.4075 C   0  0  0  0  0  0  0  0  0  0  0  0
   13.5835   58.2050   34.5383 C   0  0  0  0  0  0  0  0  0  0  0  0
   12.7744   59.2637   35.0376 C   0  0  0  0  0  0  0  0  0  0  0  0
   12.8382   59.6312   36.4079 C   0  0  0  0  0  0  0  0  0  0  0  0
  1  2  2  0  0  0
  1  3  1  0  0  0
  1 11  1  0  0  0
  3 19  1  0  0  0
  3  4  1  0  0  0
 19 20  1  0  0  0
 20 21  1  0  0  0
 20 22  1  0  0  0
  4  5  2  0  0  0
  4  8  1  0  0  0
  5  6  1  0  0  0
  6 23  1  0  0  0
  6  7  1  0  0  0
 23 24  1  0  0  0
 24 25  1  0  0  0
 24 33  2  0  0  0
 25 26  1  0  0  0
 25 30  2  0  0  0
 26 27  2  0  0  0
 27 28  1  0  0  0
 28 29  2  0  0  0
 29 30  1  0  0  0
 30 31  1  0  0  0
 31 32  2  0  0  0
 32 33  1  0  0  0
  7 13  1  0  0  0
  7  8  2  0  0  0
 13 14  1  0  0  0
 13 18  2  0  0  0
 14 15  2  0  0  0
 15 16  1  0  0  0
 16 17  2  0  0  0
 17 18  1  0  0  0
  8  9  1  0  0  0
  9 10  2  0  0  0
  9 11  1  0  0  0
 11 12  1  0  0  0
M  END
> <minimizedAffinity>
-8.70389

$$$$
2JFZ_003_A_1256


 33 37  0  0  0  0  0  0  0  0999 V2000
   12.8708   60.8548   38.6346 C   0  0  0  0  0  0  0  0  0  0  0  0
   12.5231   61.6213   39.5371 O   0  0  0  0  0  0  0  0  0  0  0  0
   13.6534   59.7490   38.9391 N   0  0  0  0  0  0  0  0  0  0  0  0
   14.0352   58.8960   37.9368 C   0  0  0  0  0  0  0  0  0  0  0  0
   14.7256   57.8408   38.0237 N   0  0  0  0  0  0  0  0  0  0  0  0
   14.8611   57.3026   36.7884 N   0  0  0  0  0  0  0  0  0  0  0  0
   14.2415   58.0681   35.8778 C   0  0  0  0  0  0  0  0  0  0  0  0
   13.6798   59.0986   36.5313 C   0  0  0  0  0  0  0  0  0  0  0  0
   12.8516   60.2928   36.2494 C   0  0  0  0  0  0  0  0  0  0  0  0
   12.5136   60.5242   35.1018 O   0  0  0  0  0  0  0  0  0  0  0  0
   12.5057   61.0963   37.3121 N   0  0  0  0  0  0  0  0  0  0  0  0
   11.6778   62.2732   37.0206 C   0  0  0  0  0  0  0  0  0  0  0  0
   14.1710   57.7938   34.3678 C   0  0  0  0  0  0  0  0  0  0  0  0
   15.3415   57.9437   33.5633 C   0  0  0  0  0  0  0  0  0  0  0  0
   15.2724   57.6717   32.1729 C   0  0  0  0  0  0  0  0  0  0  0  0
   14.0854   57.2656   31.6118 N   0  0  0  0  0  0  0  0  0  0  0  0
   12.9437   57.1140   32.3588 C   0  0  0  0  0  0  0  0  0  0  0  0
   12.9594   57.3729   33.7489 C   0  0  0  0  0  0  0  0  0  0  0  0
   14.0645   59.4687   40.3330 C   0  0  0  0  0  0  0  0  0  0  0  0
   15.4580   60.0244   40.7439 C   0  0  0  0  0  0  0  0  0  0  0  0
   15.4839   61.5547   40.5681 C   0  0  0  0  0  0  0  0  0  0  0  0
   16.5800   59.4230   39.8742 C   0  0  0  0  0  0  0  0  0  0  0  0
   15.5818   56.0296   36.5362 C   0  0  0  0  0  0  0  0  0  0  0  0
   16.8790   56.0852   37.4078 C   0  0  0  0  0  0  0  0  0  0  0  0
   18.1664   56.4147   36.8299 C   0  0  0  0  0  0  0  0  0  0  0  0
   18.3329   56.6800   35.4236 C   0  0  0  0  0  0  0  0  0  0  0  0
   19.6079   57.0063   34.8885 C   0  0  0  0  0  0  0  0  0  0  0  0
   20.7391   57.0779   35.7505 C   0  0  0  0  0  0  0  0  0  0  0  0
   20.6000   56.8204   37.1439 C   0  0  0  0  0  0  0  0  0  0  0  0
   19.3271   56.4897   37.6876 C   0  0  0  0  0  0  0  0  0  0  0  0
   19.2045   56.2369   39.0807 C   0  0  0  0  0  0  0  0  0  0  0  0
   17.9382   55.9074   39.6398 C   0  0  0  0  0  0  0  0  0  0  0  0
   16.7859   55.8323   38.8130 C   0  0  0  0  0  0  0  0  0  0  0  0
  1  2  2  0  0  0
  1  3  1  0  0  0
  1 11  1  0  0  0
  3 19  1  0  0  0
  3  4  1  0  0  0
 19 20  1  0  0  0
 20 21  1  0  0  0
 20 22  1  0  0  0
  4  5  2  0  0  0
  4  8  1  0  0  0
  5  6  1  0  0  0
  6 23  1  0  0  0
  6  7  1  0  0  0
 23 24  1  0  0  0
 24 25  1  0  0  0
 24 33  2  0  0  0
 25 26  1  0  0  0
 25 30  2  0  0  0
 26 27  2  0  0  0
 27 28  1  0  0  0
 28 29  2  0  0  0
 29 30  1  0  0  0
 30 31  1  0  0  0
 31 32  2  0  0  0
 32 33  1  0  0  0
  7 13  1  0  0  0
  7  8  2  0  0  0
 13 14  1  0  0  0
 13 18  2  0  0  0
 14 15  2  0  0  0
 15 16  1  0  0  0
 16 17  2  0  0  0
 17 18  1  0  0  0
  8  9  1  0  0  0
  9 10  2  0  0  0
  9 11  1  0  0  0
 11 12  1  0  0  0
M  END
> <minimizedAffinity>
-8.63895

$$$$
2JFZ_003_A_1256


 33 37  0  0  0  0  0  0  0  0999 V2000
    7.9422   61.4045   37.2952 C   0  0  0  0  0  0  0  0  0  0  0  0
    6.7837   61.8280   37.2573 O   0  0  0  0  0  0  0  0  0  0  0  0
    8.7334   61.6731   38.4041 N   0  0  0  0  0  0  0  0  0  0  0  0
   10.0183   61.1985   38.4472 C   0  0  0  0  0  0  0  0  0  0  0  0
   10.8727   61.3267   39.3698 N   0  0  0  0  0  0  0  0  0  0  0  0
   12.0137   60.6971   39.0014 N   0  0  0  0  0  0  0  0  0  0  0  0
   11.8756   60.1637   37.7785 C   0  0  0  0  0  0  0  0  0  0  0  0
   10.6269   60.4294   37.3605 C   0  0  0  0  0  0  0  0  0  0  0  0
    9.7519   60.1721   36.1944 C   0  0  0  0  0  0  0  0  0  0  0  0
   10.1892   59.5346   35.2525 O   0  0  0  0  0  0  0  0  0  0  0  0
    8.4725   60.6785   36.2311 N   0  0  0  0  0  0  0  0  0  0  0  0
    7.6122   60.4098   35.0721 C   0  0  0  0  0  0  0  0  0  0  0  0
   12.9479   59.3722   37.0142 C   0  0  0  0  0  0  0  0  0  0  0  0
   13.8465   58.5220   37.7279 C   0  0  0  0  0  0  0  0  0  0  0  0
   14.8224   57.7812   37.0134 C   0  0  0  0  0  0  0  0  0  0  0  0
   14.8955   57.8844   35.6449 N   0  0  0  0  0  0  0  0  0  0  0  0
   14.0468   58.6940   34.9317 C   0  0  0  0  0  0  0  0  0  0  0  0
   13.0566   59.4536   35.5966 C   0  0  0  0  0  0  0  0  0  0  0  0
    8.2023   62.4482   39.5477 C   0  0  0  0  0  0  0  0  0  0  0  0
    8.1748   63.9914   39.3547 C   0  0  0  0  0  0  0  0  0  0  0  0
    9.5002   64.6040   39.8460 C   0  0  0  0  0  0  0  0  0  0  0  0
    7.0239   64.6357   40.1531 C   0  0  0  0  0  0  0  0  0  0  0  0
   13.2105   60.6164   39.8757 C   0  0  0  0  0  0  0  0  0  0  0  0
   14.0641   61.8884   39.5616 C   0  0  0  0  0  0  0  0  0  0  0  0
   15.5120   61.8390   39.5250 C   0  0  0  0  0  0  0  0  0  0  0  0
   16.2475   60.6316   39.8024 C   0  0  0  0  0  0  0  0  0  0  0  0
   17.6673   60.6144   39.7525 C   0  0  0  0  0  0  0  0  0  0  0  0
   18.3775   61.8029   39.4196 C   0  0  0  0  0  0  0  0  0  0  0  0
   17.6731   63.0085   39.1409 C   0  0  0  0  0  0  0  0  0  0  0  0
   16.2512   63.0354   39.1920 C   0  0  0  0  0  0  0  0  0  0  0  0
   15.5627   64.2462   38.9097 C   0  0  0  0  0  0  0  0  0  0  0  0
   14.1411   64.2885   38.9542 C   0  0  0  0  0  0  0  0  0  0  0  0
   13.3978   63.1220   39.2764 C   0  0  0  0  0  0  0  0  0  0  0  0
  1  2  2  0  0  0
  1  3  1  0  0  0
  1 11  1  0  0  0
  3 19  1  0  0  0
  3  4  1  0  0  0
 19 20  1  0  0  0
 20 21  1  0  0  0
 20 22  1  0  0  0
  4  5  2  0  0  0
  4  8  1  0  0  0
  5  6  1  0  0  0
  6 23  1  0  0  0
  6  7  1  0  0  0
 23 24  1  0  0  0
 24 25  1  0  0  0
 24 33  2  0  0  0
 25 26  1  0  0  0
 25 30  2  0  0  0
 26 27  2  0  0  0
 27 28  1  0  0  0
 28 29  2  0  0  0
 29 30  1  0  0  0
 30 31  1  0  0  0
 31 32  2  0  0  0
 32 33  1  0  0  0
  7 13  1  0  0  0
  7  8  2  0  0  0
 13 14  1  0  0  0
 13 18  2  0  0  0
 14 15  2  0  0  0
 15 16  1  0  0  0
 16 17  2  0  0  0
 17 18  1  0  0  0
  8  9  1  0  0  0
  9 10  2  0  0  0
  9 11  1  0  0  0
 11 12  1  0  0  0
M  END
> <minimizedAffinity>
-8.60770

$$$$
