5TI0_7CZ_A_302


 10 10  0  0  0  0  0  0  0  0999 V2000
   -4.5390    3.5493   13.8426 S   0  0  0  0  0  0  0  0  0  0  0  0
   -5.2639    3.0323   15.2908 C   0  0  0  0  0  0  0  0  0  0  0  0
   -5.9682    3.9640   16.1127 C   0  0  0  0  0  0  0  0  0  0  0  0
   -6.6413    3.7211   17.3608 C   0  0  0  0  0  0  0  0  0  0  0  0
   -6.7854    2.5366   18.0914 C   0  0  0  0  0  0  0  0  0  0  0  0
   -6.2779    1.2788   17.7395 C   0  0  0  0  0  0  0  0  0  0  0  0
   -5.5439    0.8789   16.6502 C   0  0  0  0  0  0  0  0  0  0  0  0
   -5.1104    1.6433   15.5978 C   0  0  0  0  0  0  0  0  0  0  0  0
   -4.4186    0.8727   14.7312 O   0  0  0  0  0  0  0  0  0  0  0  0
   -4.3020   -0.0404   14.9062 H   0  0  0  0  0  0  0  0  0  0  0  0
  6  7  1  0  0  0
  6  5  2  0  0  0
  7  8  2  0  0  0
  5  4  1  0  0  0
  9  8  1  0  0  0
  8  2  1  0  0  0
  4  3  2  0  0  0
  2  3  1  0  0  0
  2  1  2  0  0  0
  9 10  1  0  0  0
M  END
> <minimizedAffinity>
-5.03683

$$$$
5TI0_7CZ_A_302


 10 10  0  0  0  0  0  0  0  0999 V2000
   -6.3604    0.9333   17.4259 S   0  0  0  0  0  0  0  0  0  0  0  0
   -5.8250    2.4000   16.7535 C   0  0  0  0  0  0  0  0  0  0  0  0
   -6.6904    3.5359   16.7291 C   0  0  0  0  0  0  0  0  0  0  0  0
   -6.4223    4.8501   16.2086 C   0  0  0  0  0  0  0  0  0  0  0  0
   -5.2709    5.3607   15.5996 C   0  0  0  0  0  0  0  0  0  0  0  0
   -4.0807    4.6611   15.3592 C   0  0  0  0  0  0  0  0  0  0  0  0
   -3.7307    3.3624   15.6349 C   0  0  0  0  0  0  0  0  0  0  0  0
   -4.4907    2.3931   16.2371 C   0  0  0  0  0  0  0  0  0  0  0  0
   -3.7803    1.2480   16.3247 O   0  0  0  0  0  0  0  0  0  0  0  0
   -2.9040    1.2139   15.9948 H   0  0  0  0  0  0  0  0  0  0  0  0
  6  7  1  0  0  0
  6  5  2  0  0  0
  7  8  2  0  0  0
  5  4  1  0  0  0
  9  8  1  0  0  0
  8  2  1  0  0  0
  4  3  2  0  0  0
  2  3  1  0  0  0
  2  1  2  0  0  0
  9 10  1  0  0  0
M  END
> <minimizedAffinity>
-4.99381

$$$$
5TI0_7CZ_A_302


 10 10  0  0  0  0  0  0  0  0999 V2000
   -4.4216    1.4670   13.0185 S   0  0  0  0  0  0  0  0  0  0  0  0
   -5.1216    2.1567   14.4058 C   0  0  0  0  0  0  0  0  0  0  0  0
   -5.7061    3.4583   14.3425 C   0  0  0  0  0  0  0  0  0  0  0  0
   -6.3403    4.2032   15.3975 C   0  0  0  0  0  0  0  0  0  0  0  0
   -6.5514    3.8650   16.7385 C   0  0  0  0  0  0  0  0  0  0  0  0
   -6.1693    2.6695   17.3619 C   0  0  0  0  0  0  0  0  0  0  0  0
   -5.5220    1.5648   16.8660 C   0  0  0  0  0  0  0  0  0  0  0  0
   -5.0731    1.3524   15.5880 C   0  0  0  0  0  0  0  0  0  0  0  0
   -4.4893    0.1374   15.5077 O   0  0  0  0  0  0  0  0  0  0  0  0
   -4.4431   -0.4112   16.2659 H   0  0  0  0  0  0  0  0  0  0  0  0
  6  7  1  0  0  0
  6  5  2  0  0  0
  7  8  2  0  0  0
  5  4  1  0  0  0
  9  8  1  0  0  0
  8  2  1  0  0  0
  4  3  2  0  0  0
  2  3  1  0  0  0
  2  1  2  0  0  0
  9 10  1  0  0  0
M  END
> <minimizedAffinity>
-4.96188

$$$$
5TI0_7CZ_A_302


 10 10  0  0  0  0  0  0  0  0999 V2000
   -4.9258    3.3026   15.6154 S   0  0  0  0  0  0  0  0  0  0  0  0
   -3.9330    4.5174   16.2703 C   0  0  0  0  0  0  0  0  0  0  0  0
   -4.3774    5.8745   16.2880 C   0  0  0  0  0  0  0  0  0  0  0  0
   -3.6884    7.0319   16.7939 C   0  0  0  0  0  0  0  0  0  0  0  0
   -2.4276    7.1410   17.3904 C   0  0  0  0  0  0  0  0  0  0  0  0
   -1.5307    6.0914   17.6304 C   0  0  0  0  0  0  0  0  0  0  0  0
   -1.6285    4.7478   17.3655 C   0  0  0  0  0  0  0  0  0  0  0  0
   -2.6698    4.0770   16.7776 C   0  0  0  0  0  0  0  0  0  0  0  0
   -2.3755    2.7615   16.6978 O   0  0  0  0  0  0  0  0  0  0  0  0
   -1.5555    2.4443   17.0220 H   0  0  0  0  0  0  0  0  0  0  0  0
  6  7  1  0  0  0
  6  5  2  0  0  0
  7  8  2  0  0  0
  5  4  1  0  0  0
  9  8  1  0  0  0
  8  2  1  0  0  0
  4  3  2  0  0  0
  2  3  1  0  0  0
  2  1  2  0  0  0
  9 10  1  0  0  0
M  END
> <minimizedAffinity>
-4.93562

$$$$
5TI0_7CZ_A_302


 10 10  0  0  0  0  0  0  0  0999 V2000
   -4.4593    5.5425   16.4916 S   0  0  0  0  0  0  0  0  0  0  0  0
   -5.0968    3.9867   16.7425 C   0  0  0  0  0  0  0  0  0  0  0  0
   -6.2045    3.7992   17.6243 C   0  0  0  0  0  0  0  0  0  0  0  0
   -6.8773    2.5733   17.9628 C   0  0  0  0  0  0  0  0  0  0  0  0
   -6.6359    1.2642   17.5322 C   0  0  0  0  0  0  0  0  0  0  0  0
   -5.6382    0.8571   16.6364 C   0  0  0  0  0  0  0  0  0  0  0  0
   -4.6783    1.5795   15.9717 C   0  0  0  0  0  0  0  0  0  0  0  0
   -4.4519    2.9308   16.0240 C   0  0  0  0  0  0  0  0  0  0  0  0
   -3.4131    3.2487   15.2219 O   0  0  0  0  0  0  0  0  0  0  0  0
   -2.9716    2.5779   14.7391 H   0  0  0  0  0  0  0  0  0  0  0  0
  6  7  1  0  0  0
  6  5  2  0  0  0
  7  8  2  0  0  0
  5  4  1  0  0  0
  9  8  1  0  0  0
  8  2  1  0  0  0
  4  3  2  0  0  0
  2  3  1  0  0  0
  2  1  2  0  0  0
  9 10  1  0  0  0
M  END
> <minimizedAffinity>
-4.89930

$$$$
5TI0_7CZ_A_302


 10 10  0  0  0  0  0  0  0  0999 V2000
   -2.0378    5.4651   17.1959 S   0  0  0  0  0  0  0  0  0  0  0  0
   -3.4882    4.8457   16.5611 C   0  0  0  0  0  0  0  0  0  0  0  0
   -4.5684    5.7264   16.2494 C   0  0  0  0  0  0  0  0  0  0  0  0
   -5.8609    5.3964   15.7104 C   0  0  0  0  0  0  0  0  0  0  0  0
   -6.3986    4.1548   15.3543 C   0  0  0  0  0  0  0  0  0  0  0  0
   -5.7557    2.9137   15.4544 C   0  0  0  0  0  0  0  0  0  0  0  0
   -4.4992    2.5862   15.9009 C   0  0  0  0  0  0  0  0  0  0  0  0
   -3.5269    3.4273   16.3772 C   0  0  0  0  0  0  0  0  0  0  0  0
   -2.4324    2.7118   16.7141 O   0  0  0  0  0  0  0  0  0  0  0  0
   -2.4290    1.7812   16.6046 H   0  0  0  0  0  0  0  0  0  0  0  0
  6  7  1  0  0  0
  6  5  2  0  0  0
  7  8  2  0  0  0
  5  4  1  0  0  0
  9  8  1  0  0  0
  8  2  1  0  0  0
  4  3  2  0  0  0
  2  3  1  0  0  0
  2  1  2  0  0  0
  9 10  1  0  0  0
M  END
> <minimizedAffinity>
-4.76987

$$$$
5TI0_7CZ_A_302


 10 10  0  0  0  0  0  0  0  0999 V2000
   -5.5387    4.0981   16.8848 S   0  0  0  0  0  0  0  0  0  0  0  0
   -4.3394    5.2547   16.5473 C   0  0  0  0  0  0  0  0  0  0  0  0
   -4.0173    5.5800   15.1944 C   0  0  0  0  0  0  0  0  0  0  0  0
   -3.0430    6.5221   14.7115 C   0  0  0  0  0  0  0  0  0  0  0  0
   -2.1674    7.3546   15.4170 C   0  0  0  0  0  0  0  0  0  0  0  0
   -2.0538    7.4469   16.8106 C   0  0  0  0  0  0  0  0  0  0  0  0
   -2.7249    6.7899   17.8122 C   0  0  0  0  0  0  0  0  0  0  0  0
   -3.7103    5.8446   17.6889 C   0  0  0  0  0  0  0  0  0  0  0  0
   -4.1119    5.4445   18.9145 O   0  0  0  0  0  0  0  0  0  0  0  0
   -3.7177    5.8135   19.6803 H   0  0  0  0  0  0  0  0  0  0  0  0
  6  7  1  0  0  0
  6  5  2  0  0  0
  7  8  2  0  0  0
  5  4  1  0  0  0
  9  8  1  0  0  0
  8  2  1  0  0  0
  4  3  2  0  0  0
  2  3  1  0  0  0
  2  1  2  0  0  0
  9 10  1  0  0  0
M  END
> <minimizedAffinity>
-4.66306

$$$$
5TI0_7CZ_A_302


 10 10  0  0  0  0  0  0  0  0999 V2000
   -4.5392    2.4217   12.8568 S   0  0  0  0  0  0  0  0  0  0  0  0
   -5.1913    2.6440   14.4110 C   0  0  0  0  0  0  0  0  0  0  0  0
   -5.1167    1.5946   15.3768 C   0  0  0  0  0  0  0  0  0  0  0  0
   -5.6052    1.5918   16.7301 C   0  0  0  0  0  0  0  0  0  0  0  0
   -6.2698    2.5902   17.4504 C   0  0  0  0  0  0  0  0  0  0  0  0
   -6.6137    3.8637   16.9777 C   0  0  0  0  0  0  0  0  0  0  0  0
   -6.4097    4.4534   15.7547 C   0  0  0  0  0  0  0  0  0  0  0  0
   -5.7946    3.9188   14.6520 C   0  0  0  0  0  0  0  0  0  0  0  0
   -5.7962    4.8221   13.6483 O   0  0  0  0  0  0  0  0  0  0  0  0
   -6.1842    5.6652   13.7774 H   0  0  0  0  0  0  0  0  0  0  0  0
  6  7  1  0  0  0
  6  5  2  0  0  0
  7  8  2  0  0  0
  5  4  1  0  0  0
  9  8  1  0  0  0
  8  2  1  0  0  0
  4  3  2  0  0  0
  2  3  1  0  0  0
  2  1  2  0  0  0
  9 10  1  0  0  0
M  END
> <minimizedAffinity>
-4.64038

$$$$
5TI0_7CZ_A_302


 10 10  0  0  0  0  0  0  0  0999 V2000
   -5.2802    4.4331   14.6081 S   0  0  0  0  0  0  0  0  0  0  0  0
   -4.2240    5.4219   15.5005 C   0  0  0  0  0  0  0  0  0  0  0  0
   -3.3031    6.2800   14.8257 C   0  0  0  0  0  0  0  0  0  0  0  0
   -2.3396    7.1813   15.3995 C   0  0  0  0  0  0  0  0  0  0  0  0
   -2.0488    7.4556   16.7403 C   0  0  0  0  0  0  0  0  0  0  0  0
   -2.6684    6.8794   17.8574 C   0  0  0  0  0  0  0  0  0  0  0  0
   -3.6697    5.9443   17.9466 C   0  0  0  0  0  0  0  0  0  0  0  0
   -4.3354    5.3202   16.9233 C   0  0  0  0  0  0  0  0  0  0  0  0
   -5.2509    4.4669   17.4305 O   0  0  0  0  0  0  0  0  0  0  0  0
   -5.3462    4.3794   18.3586 H   0  0  0  0  0  0  0  0  0  0  0  0
  6  7  1  0  0  0
  6  5  2  0  0  0
  7  8  2  0  0  0
  5  4  1  0  0  0
  9  8  1  0  0  0
  8  2  1  0  0  0
  4  3  2  0  0  0
  2  3  1  0  0  0
  2  1  2  0  0  0
  9 10  1  0  0  0
M  END
> <minimizedAffinity>
-4.63396

$$$$
5TI0_7CZ_A_302


 10 10  0  0  0  0  0  0  0  0999 V2000
   -5.6000    4.1158   17.0466 S   0  0  0  0  0  0  0  0  0  0  0  0
   -4.3760    5.2643   16.7766 C   0  0  0  0  0  0  0  0  0  0  0  0
   -3.7382    5.9058   17.8817 C   0  0  0  0  0  0  0  0  0  0  0  0
   -2.6928    6.8940   17.8571 C   0  0  0  0  0  0  0  0  0  0  0  0
   -2.0332    7.4814   16.7720 C   0  0  0  0  0  0  0  0  0  0  0  0
   -2.2671    7.2141   15.4165 C   0  0  0  0  0  0  0  0  0  0  0  0
   -3.1513    6.3569   14.8094 C   0  0  0  0  0  0  0  0  0  0  0  0
   -4.0585    5.5189   15.4050 C   0  0  0  0  0  0  0  0  0  0  0  0
   -4.7407    4.8406   14.4573 O   0  0  0  0  0  0  0  0  0  0  0  0
   -4.5541    4.9868   13.5508 H   0  0  0  0  0  0  0  0  0  0  0  0
  6  7  1  0  0  0
  6  5  2  0  0  0
  7  8  2  0  0  0
  5  4  1  0  0  0
  9  8  1  0  0  0
  8  2  1  0  0  0
  4  3  2  0  0  0
  2  3  1  0  0  0
  2  1  2  0  0  0
  9 10  1  0  0  0
M  END
> <minimizedAffinity>
-4.53686

$$$$
