3C2F_PRP_A_300


 29 29  0  0  0  0  0  0  0  0999 V2000
   23.0267  -14.4847   44.7742 C   0  0  0  0  0  0  0  0  0  0  0  0
   22.3019  -14.6271   43.4848 C   0  0  0  0  0  0  0  0  0  0  0  0
   23.4880  -14.7726   42.6031 C   0  0  0  0  0  0  0  0  0  0  0  0
   24.2511  -15.8136   43.3665 C   0  0  0  0  0  0  0  0  0  0  0  0
   21.6575  -15.8717   43.6244 O   0  0  0  0  0  0  0  0  0  0  0  0
   23.0292  -15.1770   41.3214 O   0  0  0  0  0  0  0  0  0  0  0  0
   24.1729  -15.2997   44.6585 O   0  0  0  0  0  0  0  0  0  0  0  0
   22.3013  -16.5389   43.9096 H   0  0  0  0  0  0  0  0  0  0  0  0
   22.4699  -15.9644   41.4118 H   0  0  0  0  0  0  0  0  0  0  0  0
   25.6847  -15.9026   42.9746 C   0  0  0  0  0  0  0  0  0  0  0  0
   25.7577  -16.1309   41.5974 O   0  0  0  0  0  0  0  0  0  0  0  0
   25.6481  -17.5604   40.9892 P   0  0  0  0  0  0  0  0  0  0  0  0
   24.3296  -18.0802   41.2016 O   0  0  0  0  0  0  0  0  0  0  0  0
   25.8011  -17.2065   39.6170 O   0  0  0  0  0  0  0  0  0  0  0  0
   26.7646  -18.2167   41.6264 O   0  0  0  0  0  0  0  0  0  0  0  0
   24.9913  -16.7753   39.3021 H   0  0  0  0  0  0  0  0  0  0  0  0
   26.5432  -18.4063   42.5515 H   0  0  0  0  0  0  0  0  0  0  0  0
   22.1380  -14.9526   45.7554 O   0  0  0  0  0  0  0  0  0  0  0  0
   22.0258  -14.0921   47.0683 P   0  0  0  0  0  0  0  0  0  0  0  0
   21.3094  -12.8766   46.6433 O   0  0  0  0  0  0  0  0  0  0  0  0
   21.4125  -14.9300   48.1078 O   0  0  0  0  0  0  0  0  0  0  0  0
   20.4680  -15.0422   47.9171 H   0  0  0  0  0  0  0  0  0  0  0  0
   23.7529  -13.9217   47.4698 O   0  0  0  0  0  0  0  0  0  0  0  0
   24.4748  -15.3072   48.3374 P   0  0  0  0  0  0  0  0  0  0  0  0
   25.9422  -15.1056   48.4471 O   0  0  0  0  0  0  0  0  0  0  0  0
   24.0606  -16.5314   47.6687 O   0  0  0  0  0  0  0  0  0  0  0  0
   23.7684  -15.1024   49.6190 O   0  0  0  0  0  0  0  0  0  0  0  0
   24.5477  -16.6252   46.8351 H   0  0  0  0  0  0  0  0  0  0  0  0
   24.0743  -14.2781   50.0287 H   0  0  0  0  0  0  0  0  0  0  0  0
  1  2  1  0  0  0
  1 18  1  0  0  0
  1  7  1  0  0  0
  2  3  1  0  0  0
  2  5  1  0  0  0
  3  4  1  0  0  0
  3  6  1  0  0  0
  4 10  1  0  0  0
  4  7  1  0  0  0
 10 11  1  0  0  0
 18 19  1  0  0  0
 11 12  1  0  0  0
 12 13  2  0  0  0
 12 14  1  0  0  0
 12 15  1  0  0  0
 19 20  2  0  0  0
 19 21  1  0  0  0
 19 23  1  0  0  0
 23 24  1  0  0  0
 24 25  2  0  0  0
 24 26  1  0  0  0
 24 27  1  0  0  0
  5  8  1  0  0  0
  6  9  1  0  0  0
 14 16  1  0  0  0
 15 17  1  0  0  0
 21 22  1  0  0  0
 26 28  1  0  0  0
 27 29  1  0  0  0
M  END
> <minimizedAffinity>
-7.84035

$$$$
3C2F_PRP_A_300


 29 29  0  0  0  0  0  0  0  0999 V2000
   25.1657  -15.4591   43.2164 C   0  0  0  0  0  0  0  0  0  0  0  0
   26.0236  -16.1354   42.2090 C   0  0  0  0  0  0  0  0  0  0  0  0
   26.2753  -17.3869   42.9679 C   0  0  0  0  0  0  0  0  0  0  0  0
   24.8738  -17.7251   43.3806 C   0  0  0  0  0  0  0  0  0  0  0  0
   25.1252  -16.3912   41.1548 O   0  0  0  0  0  0  0  0  0  0  0  0
   26.8867  -18.3151   42.0840 O   0  0  0  0  0  0  0  0  0  0  0  0
   24.4325  -16.4884   43.8444 O   0  0  0  0  0  0  0  0  0  0  0  0
   24.3316  -16.8256   41.5045 H   0  0  0  0  0  0  0  0  0  0  0  0
   26.3440  -18.4065   41.2852 H   0  0  0  0  0  0  0  0  0  0  0  0
   24.8065  -18.7057   44.4989 C   0  0  0  0  0  0  0  0  0  0  0  0
   24.4200  -18.0317   45.6610 O   0  0  0  0  0  0  0  0  0  0  0  0
   25.4110  -17.7702   46.8336 P   0  0  0  0  0  0  0  0  0  0  0  0
   26.6298  -18.4904   46.6109 O   0  0  0  0  0  0  0  0  0  0  0  0
   25.6336  -16.3816   46.6018 O   0  0  0  0  0  0  0  0  0  0  0  0
   24.5929  -18.1235   47.9691 O   0  0  0  0  0  0  0  0  0  0  0  0
   26.1932  -16.2704   45.8174 H   0  0  0  0  0  0  0  0  0  0  0  0
   24.5140  -19.0888   48.0229 H   0  0  0  0  0  0  0  0  0  0  0  0
   24.3419  -14.5909   42.4822 O   0  0  0  0  0  0  0  0  0  0  0  0
   23.2853  -13.7634   43.3043 P   0  0  0  0  0  0  0  0  0  0  0  0
   23.1905  -12.4817   42.5834 O   0  0  0  0  0  0  0  0  0  0  0  0
   22.0698  -14.5792   43.4301 O   0  0  0  0  0  0  0  0  0  0  0  0
   21.6104  -14.6086   42.5762 H   0  0  0  0  0  0  0  0  0  0  0  0
   24.0838  -13.7457   44.8965 O   0  0  0  0  0  0  0  0  0  0  0  0
   23.0610  -14.2604   46.2686 P   0  0  0  0  0  0  0  0  0  0  0  0
   23.7857  -14.0097   47.5407 O   0  0  0  0  0  0  0  0  0  0  0  0
   22.6533  -15.6389   46.0430 O   0  0  0  0  0  0  0  0  0  0  0  0
   21.9580  -13.3048   46.0368 O   0  0  0  0  0  0  0  0  0  0  0  0
   23.4054  -16.2293   46.2060 H   0  0  0  0  0  0  0  0  0  0  0  0
   22.2732  -12.4018   46.1980 H   0  0  0  0  0  0  0  0  0  0  0  0
  1  2  1  0  0  0
  1 18  1  0  0  0
  1  7  1  0  0  0
  2  3  1  0  0  0
  2  5  1  0  0  0
  3  4  1  0  0  0
  3  6  1  0  0  0
  4 10  1  0  0  0
  4  7  1  0  0  0
 10 11  1  0  0  0
 18 19  1  0  0  0
 11 12  1  0  0  0
 12 13  2  0  0  0
 12 14  1  0  0  0
 12 15  1  0  0  0
 19 20  2  0  0  0
 19 21  1  0  0  0
 19 23  1  0  0  0
 23 24  1  0  0  0
 24 25  2  0  0  0
 24 26  1  0  0  0
 24 27  1  0  0  0
  5  8  1  0  0  0
  6  9  1  0  0  0
 14 16  1  0  0  0
 15 17  1  0  0  0
 21 22  1  0  0  0
 26 28  1  0  0  0
 27 29  1  0  0  0
M  END
> <minimizedAffinity>
-7.47456

$$$$
3C2F_PRP_A_300


 29 29  0  0  0  0  0  0  0  0999 V2000
   25.5543  -16.5934   45.0866 C   0  0  0  0  0  0  0  0  0  0  0  0
   26.4605  -17.6930   44.6645 C   0  0  0  0  0  0  0  0  0  0  0  0
   25.9409  -17.8618   43.2835 C   0  0  0  0  0  0  0  0  0  0  0  0
   25.9339  -16.4313   42.8335 C   0  0  0  0  0  0  0  0  0  0  0  0
   27.7194  -17.0626   44.6252 O   0  0  0  0  0  0  0  0  0  0  0  0
   26.8373  -18.7121   42.5834 O   0  0  0  0  0  0  0  0  0  0  0  0
   25.3351  -15.8156   43.9297 O   0  0  0  0  0  0  0  0  0  0  0  0
   27.6553  -16.2444   44.1080 H   0  0  0  0  0  0  0  0  0  0  0  0
   27.7389  -18.3618   42.6565 H   0  0  0  0  0  0  0  0  0  0  0  0
   25.0879  -16.1932   41.6317 C   0  0  0  0  0  0  0  0  0  0  0  0
   23.8060  -16.6913   41.8822 O   0  0  0  0  0  0  0  0  0  0  0  0
   22.5303  -15.8143   41.7125 P   0  0  0  0  0  0  0  0  0  0  0  0
   21.5357  -16.2121   42.6646 O   0  0  0  0  0  0  0  0  0  0  0  0
   23.0914  -14.5656   42.1093 O   0  0  0  0  0  0  0  0  0  0  0  0
   22.2577  -15.9944   40.3066 O   0  0  0  0  0  0  0  0  0  0  0  0
   23.2287  -14.5634   43.0696 H   0  0  0  0  0  0  0  0  0  0  0  0
   21.8805  -16.8761   40.1608 H   0  0  0  0  0  0  0  0  0  0  0  0
   26.2586  -15.8887   46.0759 O   0  0  0  0  0  0  0  0  0  0  0  0
   25.4422  -14.8174   46.8899 P   0  0  0  0  0  0  0  0  0  0  0  0
   26.2416  -14.6043   48.1093 O   0  0  0  0  0  0  0  0  0  0  0  0
   25.2017  -13.6662   46.0091 O   0  0  0  0  0  0  0  0  0  0  0  0
   26.0277  -13.1716   45.8907 H   0  0  0  0  0  0  0  0  0  0  0  0
   23.8965  -15.6842   47.0700 O   0  0  0  0  0  0  0  0  0  0  0  0
   22.4518  -14.7912   46.5140 P   0  0  0  0  0  0  0  0  0  0  0  0
   21.2306  -15.4941   46.9839 O   0  0  0  0  0  0  0  0  0  0  0  0
   22.5529  -14.6094   45.0738 O   0  0  0  0  0  0  0  0  0  0  0  0
   22.7181  -13.5416   47.2565 O   0  0  0  0  0  0  0  0  0  0  0  0
   22.3712  -15.4515   44.6281 H   0  0  0  0  0  0  0  0  0  0  0  0
   22.6402  -13.7086   48.2089 H   0  0  0  0  0  0  0  0  0  0  0  0
  1  2  1  0  0  0
  1 18  1  0  0  0
  1  7  1  0  0  0
  2  3  1  0  0  0
  2  5  1  0  0  0
  3  4  1  0  0  0
  3  6  1  0  0  0
  4 10  1  0  0  0
  4  7  1  0  0  0
 10 11  1  0  0  0
 18 19  1  0  0  0
 11 12  1  0  0  0
 12 13  2  0  0  0
 12 14  1  0  0  0
 12 15  1  0  0  0
 19 20  2  0  0  0
 19 21  1  0  0  0
 19 23  1  0  0  0
 23 24  1  0  0  0
 24 25  2  0  0  0
 24 26  1  0  0  0
 24 27  1  0  0  0
  5  8  1  0  0  0
  6  9  1  0  0  0
 14 16  1  0  0  0
 15 17  1  0  0  0
 21 22  1  0  0  0
 26 28  1  0  0  0
 27 29  1  0  0  0
M  END
> <minimizedAffinity>
-7.45716

$$$$
3C2F_PRP_A_300


 29 29  0  0  0  0  0  0  0  0999 V2000
   24.2325  -15.1103   44.9077 C   0  0  0  0  0  0  0  0  0  0  0  0
   23.7886  -13.7357   44.5589 C   0  0  0  0  0  0  0  0  0  0  0  0
   24.0238  -13.8146   43.0947 C   0  0  0  0  0  0  0  0  0  0  0  0
   23.3485  -15.1195   42.7946 C   0  0  0  0  0  0  0  0  0  0  0  0
   22.4055  -13.7780   44.8214 O   0  0  0  0  0  0  0  0  0  0  0  0
   23.4272  -12.6729   42.4971 O   0  0  0  0  0  0  0  0  0  0  0  0
   23.8617  -15.9194   43.8126 O   0  0  0  0  0  0  0  0  0  0  0  0
   22.0170  -14.5522   44.3846 H   0  0  0  0  0  0  0  0  0  0  0  0
   22.4996  -12.6105   42.7739 H   0  0  0  0  0  0  0  0  0  0  0  0
   23.7449  -15.7033   41.4836 C   0  0  0  0  0  0  0  0  0  0  0  0
   25.0889  -16.0819   41.5515 O   0  0  0  0  0  0  0  0  0  0  0  0
   25.5767  -17.4864   41.0881 P   0  0  0  0  0  0  0  0  0  0  0  0
   26.7331  -17.8733   41.8411 O   0  0  0  0  0  0  0  0  0  0  0  0
   24.4520  -18.2440   41.5269 O   0  0  0  0  0  0  0  0  0  0  0  0
   25.7119  -17.2753   39.6666 O   0  0  0  0  0  0  0  0  0  0  0  0
   24.4693  -18.3178   42.4939 H   0  0  0  0  0  0  0  0  0  0  0  0
   26.5088  -16.7506   39.4920 H   0  0  0  0  0  0  0  0  0  0  0  0
   23.5305  -15.4436   46.0771 O   0  0  0  0  0  0  0  0  0  0  0  0
   24.2772  -16.3752   47.1025 P   0  0  0  0  0  0  0  0  0  0  0  0
   25.7044  -16.0779   46.8874 O   0  0  0  0  0  0  0  0  0  0  0  0
   23.7111  -16.1269   48.4354 O   0  0  0  0  0  0  0  0  0  0  0  0
   24.0161  -15.2656   48.7609 H   0  0  0  0  0  0  0  0  0  0  0  0
   23.6849  -17.9644   46.5581 O   0  0  0  0  0  0  0  0  0  0  0  0
   24.9365  -19.0654   45.9140 P   0  0  0  0  0  0  0  0  0  0  0  0
   24.4663  -20.4686   46.0401 O   0  0  0  0  0  0  0  0  0  0  0  0
   26.1952  -18.7660   46.5798 O   0  0  0  0  0  0  0  0  0  0  0  0
   24.9081  -18.5720   44.5214 O   0  0  0  0  0  0  0  0  0  0  0  0
   26.1698  -19.1066   47.4877 H   0  0  0  0  0  0  0  0  0  0  0  0
   24.0542  -18.7925   44.1175 H   0  0  0  0  0  0  0  0  0  0  0  0
  1  2  1  0  0  0
  1 18  1  0  0  0
  1  7  1  0  0  0
  2  3  1  0  0  0
  2  5  1  0  0  0
  3  4  1  0  0  0
  3  6  1  0  0  0
  4 10  1  0  0  0
  4  7  1  0  0  0
 10 11  1  0  0  0
 18 19  1  0  0  0
 11 12  1  0  0  0
 12 13  2  0  0  0
 12 14  1  0  0  0
 12 15  1  0  0  0
 19 20  2  0  0  0
 19 21  1  0  0  0
 19 23  1  0  0  0
 23 24  1  0  0  0
 24 25  2  0  0  0
 24 26  1  0  0  0
 24 27  1  0  0  0
  5  8  1  0  0  0
  6  9  1  0  0  0
 14 16  1  0  0  0
 15 17  1  0  0  0
 21 22  1  0  0  0
 26 28  1  0  0  0
 27 29  1  0  0  0
M  END
> <minimizedAffinity>
-7.40091

$$$$
3C2F_PRP_A_300


 29 29  0  0  0  0  0  0  0  0999 V2000
   26.6803  -16.1830   42.7930 C   0  0  0  0  0  0  0  0  0  0  0  0
   26.5278  -17.6370   42.5264 C   0  0  0  0  0  0  0  0  0  0  0  0
   25.0499  -17.6604   42.3823 C   0  0  0  0  0  0  0  0  0  0  0  0
   24.8644  -16.5119   41.4360 C   0  0  0  0  0  0  0  0  0  0  0  0
   27.1313  -17.7879   41.2628 O   0  0  0  0  0  0  0  0  0  0  0  0
   24.6839  -18.9329   41.8688 O   0  0  0  0  0  0  0  0  0  0  0  0
   25.6753  -15.5491   42.0317 O   0  0  0  0  0  0  0  0  0  0  0  0
   26.7683  -17.1291   40.6503 H   0  0  0  0  0  0  0  0  0  0  0  0
   25.1907  -19.1138   41.0618 H   0  0  0  0  0  0  0  0  0  0  0  0
   23.4672  -15.9993   41.3941 C   0  0  0  0  0  0  0  0  0  0  0  0
   23.3948  -14.8367   42.1671 O   0  0  0  0  0  0  0  0  0  0  0  0
   22.6282  -14.7909   43.5219 P   0  0  0  0  0  0  0  0  0  0  0  0
   22.0240  -13.5031   43.6962 O   0  0  0  0  0  0  0  0  0  0  0  0
   21.6187  -15.7485   43.2132 O   0  0  0  0  0  0  0  0  0  0  0  0
   23.6647  -15.2018   44.4384 O   0  0  0  0  0  0  0  0  0  0  0  0
   20.9830  -15.3596   42.5922 H   0  0  0  0  0  0  0  0  0  0  0  0
   24.2888  -14.4709   44.5695 H   0  0  0  0  0  0  0  0  0  0  0  0
   27.9710  -15.8556   42.3478 O   0  0  0  0  0  0  0  0  0  0  0  0
   28.9300  -15.1911   43.4041 P   0  0  0  0  0  0  0  0  0  0  0  0
   28.1320  -14.0916   43.9749 O   0  0  0  0  0  0  0  0  0  0  0  0
   29.4053  -16.2453   44.3105 O   0  0  0  0  0  0  0  0  0  0  0  0
   28.6850  -16.5108   44.9034 H   0  0  0  0  0  0  0  0  0  0  0  0
   30.2900  -14.7455   42.3435 O   0  0  0  0  0  0  0  0  0  0  0  0
   30.6047  -12.9920   42.2024 P   0  0  0  0  0  0  0  0  0  0  0  0
   31.6807  -12.7663   41.2038 O   0  0  0  0  0  0  0  0  0  0  0  0
   30.8674  -12.4661   43.5336 O   0  0  0  0  0  0  0  0  0  0  0  0
   29.2671  -12.6106   41.7033 O   0  0  0  0  0  0  0  0  0  0  0  0
   31.7527  -12.7398   43.8204 H   0  0  0  0  0  0  0  0  0  0  0  0
   29.1352  -12.9810   40.8166 H   0  0  0  0  0  0  0  0  0  0  0  0
  1  2  1  0  0  0
  1 18  1  0  0  0
  1  7  1  0  0  0
  2  3  1  0  0  0
  2  5  1  0  0  0
  3  4  1  0  0  0
  3  6  1  0  0  0
  4 10  1  0  0  0
  4  7  1  0  0  0
 10 11  1  0  0  0
 18 19  1  0  0  0
 11 12  1  0  0  0
 12 13  2  0  0  0
 12 14  1  0  0  0
 12 15  1  0  0  0
 19 20  2  0  0  0
 19 21  1  0  0  0
 19 23  1  0  0  0
 23 24  1  0  0  0
 24 25  2  0  0  0
 24 26  1  0  0  0
 24 27  1  0  0  0
  5  8  1  0  0  0
  6  9  1  0  0  0
 14 16  1  0  0  0
 15 17  1  0  0  0
 21 22  1  0  0  0
 26 28  1  0  0  0
 27 29  1  0  0  0
M  END
> <minimizedAffinity>
-7.39621

$$$$
3C2F_PRP_A_300


 29 29  0  0  0  0  0  0  0  0999 V2000
   24.9271  -15.2573   42.8509 C   0  0  0  0  0  0  0  0  0  0  0  0
   25.0093  -16.7327   43.0084 C   0  0  0  0  0  0  0  0  0  0  0  0
   26.2709  -16.9448   42.2540 C   0  0  0  0  0  0  0  0  0  0  0  0
   27.1289  -15.8881   42.8833 C   0  0  0  0  0  0  0  0  0  0  0  0
   25.2485  -16.8868   44.3878 O   0  0  0  0  0  0  0  0  0  0  0  0
   26.6929  -18.2816   42.4810 O   0  0  0  0  0  0  0  0  0  0  0  0
   26.2616  -14.7987   42.8590 O   0  0  0  0  0  0  0  0  0  0  0  0
   25.9864  -16.3161   44.6537 H   0  0  0  0  0  0  0  0  0  0  0  0
   26.7373  -18.4490   43.4354 H   0  0  0  0  0  0  0  0  0  0  0  0
   28.3382  -15.5530   42.0821 C   0  0  0  0  0  0  0  0  0  0  0  0
   29.0604  -14.5639   42.7562 O   0  0  0  0  0  0  0  0  0  0  0  0
   30.2875  -13.8528   42.1128 P   0  0  0  0  0  0  0  0  0  0  0  0
   29.8512  -12.7131   41.3615 O   0  0  0  0  0  0  0  0  0  0  0  0
   30.9172  -13.4141   43.3138 O   0  0  0  0  0  0  0  0  0  0  0  0
   30.9058  -14.9522   41.4111 O   0  0  0  0  0  0  0  0  0  0  0  0
   30.4138  -12.6761   43.6919 H   0  0  0  0  0  0  0  0  0  0  0  0
   30.3905  -15.1588   40.6157 H   0  0  0  0  0  0  0  0  0  0  0  0
   24.2017  -14.8032   43.9640 O   0  0  0  0  0  0  0  0  0  0  0  0
   22.8257  -14.1001   43.6656 P   0  0  0  0  0  0  0  0  0  0  0  0
   23.1959  -12.8836   42.9208 O   0  0  0  0  0  0  0  0  0  0  0  0
   21.9514  -15.0782   43.0041 O   0  0  0  0  0  0  0  0  0  0  0  0
   22.2531  -15.2173   42.0927 H   0  0  0  0  0  0  0  0  0  0  0  0
   22.2255  -13.8861   45.3289 O   0  0  0  0  0  0  0  0  0  0  0  0
   22.6366  -15.2039   46.4638 P   0  0  0  0  0  0  0  0  0  0  0  0
   21.7080  -15.1601   47.6222 O   0  0  0  0  0  0  0  0  0  0  0  0
   24.0504  -15.1002   46.7921 O   0  0  0  0  0  0  0  0  0  0  0  0
   22.3560  -16.3255   45.5435 O   0  0  0  0  0  0  0  0  0  0  0  0
   24.1882  -14.3537   47.3960 H   0  0  0  0  0  0  0  0  0  0  0  0
   21.4055  -16.3570   45.3525 H   0  0  0  0  0  0  0  0  0  0  0  0
  1  2  1  0  0  0
  1 18  1  0  0  0
  1  7  1  0  0  0
  2  3  1  0  0  0
  2  5  1  0  0  0
  3  4  1  0  0  0
  3  6  1  0  0  0
  4 10  1  0  0  0
  4  7  1  0  0  0
 10 11  1  0  0  0
 18 19  1  0  0  0
 11 12  1  0  0  0
 12 13  2  0  0  0
 12 14  1  0  0  0
 12 15  1  0  0  0
 19 20  2  0  0  0
 19 21  1  0  0  0
 19 23  1  0  0  0
 23 24  1  0  0  0
 24 25  2  0  0  0
 24 26  1  0  0  0
 24 27  1  0  0  0
  5  8  1  0  0  0
  6  9  1  0  0  0
 14 16  1  0  0  0
 15 17  1  0  0  0
 21 22  1  0  0  0
 26 28  1  0  0  0
 27 29  1  0  0  0
M  END
> <minimizedAffinity>
-7.32284

$$$$
3C2F_PRP_A_300


 29 29  0  0  0  0  0  0  0  0999 V2000
   26.1514  -17.4490   43.0216 C   0  0  0  0  0  0  0  0  0  0  0  0
   26.3884  -17.6074   41.5632 C   0  0  0  0  0  0  0  0  0  0  0  0
   25.0442  -17.1843   41.0946 C   0  0  0  0  0  0  0  0  0  0  0  0
   24.8820  -15.9193   41.8834 C   0  0  0  0  0  0  0  0  0  0  0  0
   27.3284  -16.5952   41.2877 O   0  0  0  0  0  0  0  0  0  0  0  0
   25.1089  -17.0151   39.6860 O   0  0  0  0  0  0  0  0  0  0  0  0
   25.2786  -16.3474   43.1479 O   0  0  0  0  0  0  0  0  0  0  0  0
   27.0131  -15.7533   41.6520 H   0  0  0  0  0  0  0  0  0  0  0  0
   25.8412  -16.4185   39.4653 H   0  0  0  0  0  0  0  0  0  0  0  0
   23.4723  -15.4465   41.9603 C   0  0  0  0  0  0  0  0  0  0  0  0
   23.1925  -15.0895   43.2826 O   0  0  0  0  0  0  0  0  0  0  0  0
   23.2837  -13.6160   43.7783 P   0  0  0  0  0  0  0  0  0  0  0  0
   23.2960  -12.7246   42.6562 O   0  0  0  0  0  0  0  0  0  0  0  0
   22.0158  -13.5435   44.4253 O   0  0  0  0  0  0  0  0  0  0  0  0
   24.4503  -13.6825   44.6256 O   0  0  0  0  0  0  0  0  0  0  0  0
   21.3137  -13.5035   43.7572 H   0  0  0  0  0  0  0  0  0  0  0  0
   25.2476  -13.7280   44.0750 H   0  0  0  0  0  0  0  0  0  0  0  0
   27.4145  -17.1937   43.5792 O   0  0  0  0  0  0  0  0  0  0  0  0
   27.4410  -16.7846   45.0987 P   0  0  0  0  0  0  0  0  0  0  0  0
   28.8400  -17.0027   45.5070 O   0  0  0  0  0  0  0  0  0  0  0  0
   26.8898  -15.4273   45.2119 O   0  0  0  0  0  0  0  0  0  0  0  0
   27.5335  -14.7874   44.8698 H   0  0  0  0  0  0  0  0  0  0  0  0
   26.2199  -17.9121   45.7395 O   0  0  0  0  0  0  0  0  0  0  0  0
   25.0464  -17.1972   46.8819 P   0  0  0  0  0  0  0  0  0  0  0  0
   25.7568  -16.2654   47.7947 O   0  0  0  0  0  0  0  0  0  0  0  0
   24.3241  -18.2799   47.5327 O   0  0  0  0  0  0  0  0  0  0  0  0
   24.2206  -16.4986   45.8751 O   0  0  0  0  0  0  0  0  0  0  0  0
   24.9019  -18.7089   48.1832 H   0  0  0  0  0  0  0  0  0  0  0  0
   24.7398  -15.7875   45.4680 H   0  0  0  0  0  0  0  0  0  0  0  0
  1  2  1  0  0  0
  1 18  1  0  0  0
  1  7  1  0  0  0
  2  3  1  0  0  0
  2  5  1  0  0  0
  3  4  1  0  0  0
  3  6  1  0  0  0
  4 10  1  0  0  0
  4  7  1  0  0  0
 10 11  1  0  0  0
 18 19  1  0  0  0
 11 12  1  0  0  0
 12 13  2  0  0  0
 12 14  1  0  0  0
 12 15  1  0  0  0
 19 20  2  0  0  0
 19 21  1  0  0  0
 19 23  1  0  0  0
 23 24  1  0  0  0
 24 25  2  0  0  0
 24 26  1  0  0  0
 24 27  1  0  0  0
  5  8  1  0  0  0
  6  9  1  0  0  0
 14 16  1  0  0  0
 15 17  1  0  0  0
 21 22  1  0  0  0
 26 28  1  0  0  0
 27 29  1  0  0  0
M  END
> <minimizedAffinity>
-7.30053

$$$$
3C2F_PRP_A_300


 29 29  0  0  0  0  0  0  0  0999 V2000
   24.9121  -15.9024   43.5541 C   0  0  0  0  0  0  0  0  0  0  0  0
   25.1109  -17.2579   42.9784 C   0  0  0  0  0  0  0  0  0  0  0  0
   26.5757  -17.3575   43.2012 C   0  0  0  0  0  0  0  0  0  0  0  0
   26.6481  -16.9319   44.6374 C   0  0  0  0  0  0  0  0  0  0  0  0
   24.4332  -18.0879   43.8925 O   0  0  0  0  0  0  0  0  0  0  0  0
   26.9631  -18.7000   42.9476 O   0  0  0  0  0  0  0  0  0  0  0  0
   25.8362  -15.8006   44.6157 O   0  0  0  0  0  0  0  0  0  0  0  0
   24.7259  -17.8825   44.7942 H   0  0  0  0  0  0  0  0  0  0  0  0
   26.4130  -19.3004   43.4748 H   0  0  0  0  0  0  0  0  0  0  0  0
   28.0155  -16.5296   45.0673 C   0  0  0  0  0  0  0  0  0  0  0  0
   28.7871  -17.6827   45.2383 O   0  0  0  0  0  0  0  0  0  0  0  0
   29.5427  -17.9826   46.5667 P   0  0  0  0  0  0  0  0  0  0  0  0
   30.0655  -16.7661   47.1148 O   0  0  0  0  0  0  0  0  0  0  0  0
   28.4244  -18.4076   47.3415 O   0  0  0  0  0  0  0  0  0  0  0  0
   30.4669  -19.0029   46.1331 O   0  0  0  0  0  0  0  0  0  0  0  0
   27.8797  -17.6388   47.5719 H   0  0  0  0  0  0  0  0  0  0  0  0
   31.1805  -18.5950   45.6180 H   0  0  0  0  0  0  0  0  0  0  0  0
   23.5819  -15.8789   44.0026 O   0  0  0  0  0  0  0  0  0  0  0  0
   22.5512  -15.1021   43.1020 P   0  0  0  0  0  0  0  0  0  0  0  0
   23.3058  -14.7923   41.8747 O   0  0  0  0  0  0  0  0  0  0  0  0
   21.3421  -15.9281   42.9820 O   0  0  0  0  0  0  0  0  0  0  0  0
   21.5210  -16.6801   42.3960 H   0  0  0  0  0  0  0  0  0  0  0  0
   22.1638  -13.7422   44.1854 O   0  0  0  0  0  0  0  0  0  0  0  0
   22.3758  -14.0716   45.9290 P   0  0  0  0  0  0  0  0  0  0  0  0
   21.6075  -13.0713   46.7133 O   0  0  0  0  0  0  0  0  0  0  0  0
   23.8018  -14.1273   46.2136 O   0  0  0  0  0  0  0  0  0  0  0  0
   21.7508  -15.4106   45.9346 O   0  0  0  0  0  0  0  0  0  0  0  0
   24.1695  -13.2298   46.1999 H   0  0  0  0  0  0  0  0  0  0  0  0
   20.8040  -15.3262   45.7411 H   0  0  0  0  0  0  0  0  0  0  0  0
  1  2  1  0  0  0
  1 18  1  0  0  0
  1  7  1  0  0  0
  2  3  1  0  0  0
  2  5  1  0  0  0
  3  4  1  0  0  0
  3  6  1  0  0  0
  4 10  1  0  0  0
  4  7  1  0  0  0
 10 11  1  0  0  0
 18 19  1  0  0  0
 11 12  1  0  0  0
 12 13  2  0  0  0
 12 14  1  0  0  0
 12 15  1  0  0  0
 19 20  2  0  0  0
 19 21  1  0  0  0
 19 23  1  0  0  0
 23 24  1  0  0  0
 24 25  2  0  0  0
 24 26  1  0  0  0
 24 27  1  0  0  0
  5  8  1  0  0  0
  6  9  1  0  0  0
 14 16  1  0  0  0
 15 17  1  0  0  0
 21 22  1  0  0  0
 26 28  1  0  0  0
 27 29  1  0  0  0
M  END
> <minimizedAffinity>
-7.25169

$$$$
3C2F_PRP_A_300


 29 29  0  0  0  0  0  0  0  0999 V2000
   24.3470  -16.4489   43.4654 C   0  0  0  0  0  0  0  0  0  0  0  0
   24.8047  -17.5792   42.6161 C   0  0  0  0  0  0  0  0  0  0  0  0
   26.1959  -17.1105   42.3915 C   0  0  0  0  0  0  0  0  0  0  0  0
   26.5884  -16.7814   43.8010 C   0  0  0  0  0  0  0  0  0  0  0  0
   24.8076  -18.6638   43.5146 O   0  0  0  0  0  0  0  0  0  0  0  0
   26.9215  -18.1751   41.7941 O   0  0  0  0  0  0  0  0  0  0  0  0
   25.4737  -16.0597   44.2207 O   0  0  0  0  0  0  0  0  0  0  0  0
   25.2921  -18.4170   44.3179 H   0  0  0  0  0  0  0  0  0  0  0  0
   26.8264  -18.9747   42.3350 H   0  0  0  0  0  0  0  0  0  0  0  0
   27.7871  -15.9031   43.8918 C   0  0  0  0  0  0  0  0  0  0  0  0
   28.1975  -15.5725   42.5970 O   0  0  0  0  0  0  0  0  0  0  0  0
   29.4302  -14.6595   42.3280 P   0  0  0  0  0  0  0  0  0  0  0  0
   29.0761  -13.2875   42.5427 O   0  0  0  0  0  0  0  0  0  0  0  0
   30.2510  -15.1094   43.4029 O   0  0  0  0  0  0  0  0  0  0  0  0
   29.8001  -15.0816   40.9982 O   0  0  0  0  0  0  0  0  0  0  0  0
   29.9050  -14.7636   44.2405 H   0  0  0  0  0  0  0  0  0  0  0  0
   29.1719  -14.7154   40.3563 H   0  0  0  0  0  0  0  0  0  0  0  0
   23.3240  -16.9768   44.2693 O   0  0  0  0  0  0  0  0  0  0  0  0
   21.9644  -16.1844   44.2850 P   0  0  0  0  0  0  0  0  0  0  0  0
   21.5734  -16.1101   42.8662 O   0  0  0  0  0  0  0  0  0  0  0  0
   21.0557  -16.8628   45.2194 O   0  0  0  0  0  0  0  0  0  0  0  0
   20.7451  -17.6921   44.8237 H   0  0  0  0  0  0  0  0  0  0  0  0
   22.5003  -14.6742   45.0627 O   0  0  0  0  0  0  0  0  0  0  0  0
   22.4420  -14.6734   46.8488 P   0  0  0  0  0  0  0  0  0  0  0  0
   21.0247  -14.6897   47.2926 O   0  0  0  0  0  0  0  0  0  0  0  0
   23.2351  -13.5530   47.3316 O   0  0  0  0  0  0  0  0  0  0  0  0
   23.1229  -15.9694   47.0498 O   0  0  0  0  0  0  0  0  0  0  0  0
   22.7517  -12.7257   47.1802 H   0  0  0  0  0  0  0  0  0  0  0  0
   22.5606  -16.6854   46.7148 H   0  0  0  0  0  0  0  0  0  0  0  0
  1  2  1  0  0  0
  1 18  1  0  0  0
  1  7  1  0  0  0
  2  3  1  0  0  0
  2  5  1  0  0  0
  3  4  1  0  0  0
  3  6  1  0  0  0
  4 10  1  0  0  0
  4  7  1  0  0  0
 10 11  1  0  0  0
 18 19  1  0  0  0
 11 12  1  0  0  0
 12 13  2  0  0  0
 12 14  1  0  0  0
 12 15  1  0  0  0
 19 20  2  0  0  0
 19 21  1  0  0  0
 19 23  1  0  0  0
 23 24  1  0  0  0
 24 25  2  0  0  0
 24 26  1  0  0  0
 24 27  1  0  0  0
  5  8  1  0  0  0
  6  9  1  0  0  0
 14 16  1  0  0  0
 15 17  1  0  0  0
 21 22  1  0  0  0
 26 28  1  0  0  0
 27 29  1  0  0  0
M  END
> <minimizedAffinity>
-7.22697

$$$$
3C2F_PRP_A_300


 29 29  0  0  0  0  0  0  0  0999 V2000
   24.7457  -18.2674   43.5642 C   0  0  0  0  0  0  0  0  0  0  0  0
   25.4174  -18.7118   42.3154 C   0  0  0  0  0  0  0  0  0  0  0  0
   24.7772  -17.7444   41.3882 C   0  0  0  0  0  0  0  0  0  0  0  0
   24.9816  -16.4742   42.1587 C   0  0  0  0  0  0  0  0  0  0  0  0
   26.7592  -18.3439   42.5344 O   0  0  0  0  0  0  0  0  0  0  0  0
   25.4616  -17.8157   40.1460 O   0  0  0  0  0  0  0  0  0  0  0  0
   24.5785  -16.8725   43.4308 O   0  0  0  0  0  0  0  0  0  0  0  0
   26.7982  -17.4169   42.8176 H   0  0  0  0  0  0  0  0  0  0  0  0
   26.4127  -17.6946   40.2934 H   0  0  0  0  0  0  0  0  0  0  0  0
   24.1033  -15.3601   41.7070 C   0  0  0  0  0  0  0  0  0  0  0  0
   23.2574  -15.0030   42.7611 O   0  0  0  0  0  0  0  0  0  0  0  0
   23.3895  -13.6395   43.5018 P   0  0  0  0  0  0  0  0  0  0  0  0
   23.4048  -12.5679   42.5504 O   0  0  0  0  0  0  0  0  0  0  0  0
   22.1337  -13.6551   44.1758 O   0  0  0  0  0  0  0  0  0  0  0  0
   24.5673  -13.8745   44.3025 O   0  0  0  0  0  0  0  0  0  0  0  0
   21.4225  -13.4863   43.5382 H   0  0  0  0  0  0  0  0  0  0  0  0
   25.3548  -13.8399   43.7371 H   0  0  0  0  0  0  0  0  0  0  0  0
   25.6304  -18.6003   44.6024 O   0  0  0  0  0  0  0  0  0  0  0  0
   24.9789  -19.0071   45.9761 P   0  0  0  0  0  0  0  0  0  0  0  0
   24.6136  -20.4235   45.7971 O   0  0  0  0  0  0  0  0  0  0  0  0
   25.9269  -18.6659   47.0455 O   0  0  0  0  0  0  0  0  0  0  0  0
   26.6662  -19.2939   47.0347 H   0  0  0  0  0  0  0  0  0  0  0  0
   23.6483  -17.8248   46.0446 O   0  0  0  0  0  0  0  0  0  0  0  0
   24.0226  -16.3040   46.9052 P   0  0  0  0  0  0  0  0  0  0  0  0
   24.2280  -16.5950   48.3471 O   0  0  0  0  0  0  0  0  0  0  0  0
   22.9752  -15.3394   46.6055 O   0  0  0  0  0  0  0  0  0  0  0  0
   25.2822  -16.0023   46.1939 O   0  0  0  0  0  0  0  0  0  0  0  0
   22.1697  -15.5752   47.0917 H   0  0  0  0  0  0  0  0  0  0  0  0
   25.9499  -16.6679   46.4222 H   0  0  0  0  0  0  0  0  0  0  0  0
  1  2  1  0  0  0
  1 18  1  0  0  0
  1  7  1  0  0  0
  2  3  1  0  0  0
  2  5  1  0  0  0
  3  4  1  0  0  0
  3  6  1  0  0  0
  4 10  1  0  0  0
  4  7  1  0  0  0
 10 11  1  0  0  0
 18 19  1  0  0  0
 11 12  1  0  0  0
 12 13  2  0  0  0
 12 14  1  0  0  0
 12 15  1  0  0  0
 19 20  2  0  0  0
 19 21  1  0  0  0
 19 23  1  0  0  0
 23 24  1  0  0  0
 24 25  2  0  0  0
 24 26  1  0  0  0
 24 27  1  0  0  0
  5  8  1  0  0  0
  6  9  1  0  0  0
 14 16  1  0  0  0
 15 17  1  0  0  0
 21 22  1  0  0  0
 26 28  1  0  0  0
 27 29  1  0  0  0
M  END
> <minimizedAffinity>
-7.21526

$$$$
