4NBK_2J5_A_401
  RCSB PDB12061713523D
Coordinates from PDB:4NBK:A:401 Model:1 without hydrogens
 16 17  0  0  0  0            999 V2000
   25.2740   29.5800    8.7750   C 0  0  0  0  0  0  0  0  0  0  0  0
   24.5710   29.2510    6.6070   C 0  0  0  0  0  0  0  0  0  0  0  0
   22.1730   29.3490    5.9310   C 0  0  0  0  0  0  0  0  0  0  0  0
   23.5900   29.1100    5.6870   N 0  0  0  0  0  0  0  0  0  0  0  0
   21.7080   30.7740    5.7740   C 0  0  0  0  0  0  0  0  0  0  0  0
   21.1420   31.2350    4.5840   C 0  0  0  0  0  0  0  0  0  0  0  0
   20.6030   32.5040    4.4930   C 0  0  0  0  0  0  0  0  0  0  0  0
   20.6420   33.3500    5.5750   C 0  0  0  0  0  0  0  0  0  0  0  0
   21.2340   32.9420    6.7520   C 0  0  0  0  0  0  0  0  0  0  0  0
   21.7700   31.6570    6.8570   C 0  0  0  0  0  0  0  0  0  0  0  0
   22.3500   31.2670    8.0080   O 0  0  0  0  0  0  0  0  0  0  0  0
   25.9170   28.9230    6.2000   C 0  0  0  0  0  0  0  0  0  0  0  0
   26.2810   28.5770    4.7840   C 0  0  0  0  0  0  0  0  0  0  0  0
   24.2900   29.5910    7.8690   N 0  0  0  0  0  0  0  0  0  0  0  0
   26.5590   29.2630    8.4940   C 0  0  0  0  0  0  0  0  0  0  0  0
   26.8820   28.9410    7.1910   C 0  0  0  0  0  0  0  0  0  0  0  0
  7  6  2  0  0  0  0
  7  8  1  0  0  0  0
  6  5  1  0  0  0  0
 13 12  1  0  0  0  0
  8  9  2  0  0  0  0
  4  3  1  0  0  0  0
  4  2  1  0  0  0  0
  5  3  1  0  0  0  0
  5 10  2  0  0  0  0
 12  2  2  0  0  0  0
 12 16  1  0  0  0  0
  2 14  1  0  0  0  0
  9 10  1  0  0  0  0
 10 11  1  0  0  0  0
 16 15  2  0  0  0  0
 14  1  2  0  0  0  0
 15  1  1  0  0  0  0
A    1
C4
A    2
C5
A    3
C6
A    4
N1
A    5
C7
A    6
C8
A    7
C9
A    8
C10
A    9
C11
A   10
C12
A   11
O
A   12
C1
A   13
C
A   14
N
A   15
C3
A   16
C2
M  END
>  <InstanceId>
4NBK_2J5_A_401

>  <ChemCompId>
2J5

>  <PdbId>
4NBK

>  <ChainId>
A

>  <ResidueNumber>
401

>  <InsertionCode>


>  <Model>
1

>  <AltIds>


>  <MissingHeavyAtoms>
0

>  <ObservedFormula>
C13 N2 O

>  <Name>
2-{[(3-methylpyridin-2-yl)amino]methyl}phenol

>  <SystematicName>
2-[[(3-methylpyridin-2-yl)amino]methyl]phenol

>  <Synonyms>


>  <Type>
NON-POLYMER

>  <Formula>
C13 H14 N2 O

>  <MolecularWeight>
214.263

>  <ModifiedDate>
2013-12-27

>  <Parent>


>  <OneLetterCode>


>  <SubcomponentList>


>  <AmbiguousFlag>
N

>  <InChI>
InChI=1S/C13H14N2O/c1-10-5-4-8-14-13(10)15-9-11-6-2-3-7-12(11)16/h2-8,16H,9H2,1H3,(H,14,15)

>  <InChIKey>
OIQQRLRYXHZROE-UHFFFAOYSA-N

>  <SMILES>
Cc1cccnc1NCc2ccccc2O

$$$$
