1BN4_AL9_A_555
  RCSB PDB12061702053D
Coordinates from PDB:1BN4:A:555 Model:1 without hydrogens
 22 23  0  0  0  0            999 V2000
   -5.3340    1.9280   15.8380   C 0  0  0  0  0  0  0  0  0  0  0  0
   -2.6420    6.0360   14.1840   C 0  0  0  0  0  0  0  0  0  0  0  0
   -2.0580    7.4270   14.2930   C 0  0  0  0  0  0  0  0  0  0  0  0
   -1.5690    8.0980   13.1690   C 0  0  0  0  0  0  0  0  0  0  0  0
   -1.0250    9.3690   13.3220   C 0  0  0  0  0  0  0  0  0  0  0  0
   -0.9660    9.9790   14.5860   C 0  0  0  0  0  0  0  0  0  0  0  0
   -1.4620    9.2940   15.6900   C 0  0  0  0  0  0  0  0  0  0  0  0
   -2.0050    8.0260   15.5480   C 0  0  0  0  0  0  0  0  0  0  0  0
   -7.3330    0.8630   16.8700   O 0  0  0  0  0  0  0  0  0  0  0  0
   -5.4060    0.9380   18.1940   O 0  0  0  0  0  0  0  0  0  0  0  0
   -5.4190   -0.6910   16.2970   N 0  0  0  0  0  0  0  0  0  0  0  0
   -5.9230    0.6810   16.8990   S 0  0  0  0  0  0  0  0  0  0  0  0
   -4.0780    1.8800   15.2730   C 0  0  0  0  0  0  0  0  0  0  0  0
   -3.8100    3.0110   14.5290   C 0  0  0  0  0  0  0  0  0  0  0  0
   -4.8720    3.8920   14.5410   C 0  0  0  0  0  0  0  0  0  0  0  0
   -6.2230    3.3680   15.4530   S 0  0  0  0  0  0  0  0  0  0  0  0
   -4.9970    5.4380   13.7870   S 0  0  0  0  0  0  0  0  0  0  0  0
   -5.9560    5.3350   12.7320   O 0  0  0  0  0  0  0  0  0  0  0  0
   -5.5240    6.3620   14.7360   O 0  0  0  0  0  0  0  0  0  0  0  0
   -3.7200    5.9420   13.2030   N 0  0  0  0  0  0  0  0  0  0  0  0
   -0.4480   11.1690   14.7670   O 0  0  0  0  0  0  0  0  0  0  0  0
    0.0540   11.7940   13.5620   C 0  0  0  0  0  0  0  0  0  0  0  0
  1 12  1  0  0  0  0
  1 13  2  0  0  0  0
  1 16  1  0  0  0  0
  2  3  1  0  0  0  0
  2 20  1  0  0  0  0
  3  4  2  0  0  0  0
  3  8  1  0  0  0  0
  4  5  1  0  0  0  0
  5  6  2  0  0  0  0
  6  7  1  0  0  0  0
  6 21  1  0  0  0  0
  7  8  2  0  0  0  0
  9 12  2  0  0  0  0
 10 12  2  0  0  0  0
 11 12  1  0  0  0  0
 13 14  1  0  0  0  0
 14 15  2  0  0  0  0
 15 16  1  0  0  0  0
 15 17  1  0  0  0  0
 17 18  2  0  0  0  0
 17 19  2  0  0  0  0
 17 20  1  0  0  0  0
 21 22  1  0  0  0  0
A    1
C3
A    2
C9
A    3
C10
A    4
C11
A    5
C12
A    6
C13
A    7
C14
A    8
C15
A    9
O2A
A   10
O1A
A   11
N21
A   12
S1
A   13
C4
A   14
C5
A   15
C6
A   16
S2
A   17
S7
A   18
O3B
A   19
O4B
A   20
N8
A   21
O16
A   22
C17
M  END
>  <InstanceId>
1BN4_AL9_A_555

>  <ChemCompId>
AL9

>  <PdbId>
1BN4

>  <ChainId>
A

>  <ResidueNumber>
555

>  <InsertionCode>


>  <Model>
1

>  <AltIds>


>  <MissingHeavyAtoms>
0

>  <ObservedFormula>
C12 N2 O5 S3

>  <Name>
N-[(4-METHOXYPHENYL)METHYL]2,5-THIOPHENEDESULFONAMIDE

>  <SystematicName>
N-[(4-methoxyphenyl)methyl]thiophene-2,5-disulfonamide

>  <Synonyms>
AL5927

>  <Type>
NON-POLYMER

>  <Formula>
C12 H14 N2 O5 S3

>  <MolecularWeight>
362.445

>  <ModifiedDate>
2011-06-04

>  <Parent>


>  <OneLetterCode>


>  <SubcomponentList>


>  <AmbiguousFlag>
N

>  <InChI>
InChI=1S/C12H14N2O5S3/c1-19-10-4-2-9(3-5-10)8-14-22(17,18)12-7-6-11(20-12)21(13,15)16/h2-7,14H,8H2,1H3,(H2,13,15,16)

>  <InChIKey>
LRRAIRJIZOLGPR-UHFFFAOYSA-N

>  <SMILES>
COc1ccc(cc1)CNS(=O)(=O)c2ccc(s2)S(=O)(=O)N

$$$$
