1NWL_964_A_501


 35 36  0  0  0  0  0  0  0  0999 V2000
   51.9885   33.1288   39.5576 C   0  0  0  0  0  0  0  0  0  0  0  0
   53.1358   34.1065   39.2761 C   0  0  0  0  0  0  0  0  0  0  0  0
   53.6419   34.0688   37.8313 C   0  0  0  0  0  0  0  0  0  0  0  0
   52.3048   31.7244   39.0339 C   0  0  0  0  0  0  0  0  0  0  0  0
   52.8145   31.7117   37.5901 C   0  0  0  0  0  0  0  0  0  0  0  0
   54.0044   32.6515   37.3842 C   0  0  0  0  0  0  0  0  0  0  0  0
   49.4775   33.2021   39.1722 C   0  0  0  0  0  0  0  0  0  0  0  0
   49.0753   33.2839   40.3212 O   0  0  0  0  0  0  0  0  0  0  0  0
   50.8236   33.6140   38.8237 N   0  0  0  0  0  0  0  0  0  0  0  0
   50.9552   34.2369   38.0727 H   0  0  0  0  0  0  0  0  0  0  0  0
   47.2864   32.5737   38.0185 C   0  0  0  0  0  0  0  0  0  0  0  0
   46.5817   31.7584   37.1974 N   0  0  0  0  0  0  0  0  0  0  0  0
   47.1992   30.7978   36.4941 C   0  0  0  0  0  0  0  0  0  0  0  0
   48.5789   30.6375   36.6101 C   0  0  0  0  0  0  0  0  0  0  0  0
   49.2804   31.4426   37.4235 N   0  0  0  0  0  0  0  0  0  0  0  0
   48.6660   32.4170   38.1395 C   0  0  0  0  0  0  0  0  0  0  0  0
   45.8012   33.2836   39.7155 O   0  0  0  0  0  0  0  0  0  0  0  0
   46.5562   33.6330   38.7858 C   0  0  0  0  0  0  0  0  0  0  0  0
   46.5117   34.7808   38.3009 O   0  0  0  0  0  0  0  0  0  0  0  0
   47.0903   35.0173   37.6029 H   0  0  0  0  0  0  0  0  0  0  0  0
   54.4299   32.6638   35.9176 C   0  0  0  0  0  0  0  0  0  0  0  0
   55.5274   33.0827   35.5759 O   0  0  0  0  0  0  0  0  0  0  0  0
   53.4633   32.1486   34.9691 N   0  0  0  0  0  0  0  0  0  0  0  0
   53.2616   31.1851   34.9606 H   0  0  0  0  0  0  0  0  0  0  0  0
   52.7876   33.0243   34.0327 C   0  0  0  0  0  0  0  0  0  0  0  0
   51.5683   33.6406   34.7047 C   0  0  0  0  0  0  0  0  0  0  0  0
   51.3416   35.2545   34.3695 S   0  0  0  0  0  0  0  0  0  0  0  0
   50.7597   36.2150   36.0224 S   0  0  0  0  0  0  0  0  0  0  0  0
   49.0914   35.8077   36.4213 C   0  0  0  0  0  0  0  0  0  0  0  0
   48.2939   35.5626   35.1438 C   0  0  0  0  0  0  0  0  0  0  0  0
   45.8965   34.6913   33.3388 C   0  0  0  0  0  0  0  0  0  0  0  0
   46.1182   34.5095   34.8366 C   0  0  0  0  0  0  0  0  0  0  0  0
   47.3635   34.4601   35.3115 N   0  0  0  0  0  0  0  0  0  0  0  0
   45.1465   34.4056   35.5669 O   0  0  0  0  0  0  0  0  0  0  0  0
   47.6609   33.6526   35.7897 H   0  0  0  0  0  0  0  0  0  0  0  0
 17 18  2  0  0  0
 31 32  1  0  0  0
 32 33  1  0  0  0
 32 34  2  0  0  0
 33 30  1  0  0  0
 18 19  1  0  0  0
 18 11  1  0  0  0
 11 12  2  0  0  0
 11 16  1  0  0  0
 12 13  1  0  0  0
 13 14  2  0  0  0
 14 15  1  0  0  0
 15 16  2  0  0  0
 16  7  1  0  0  0
  7  8  2  0  0  0
  7  9  1  0  0  0
  9  1  1  0  0  0
  1  2  1  0  0  0
  1  4  1  0  0  0
  2  3  1  0  0  0
  3  6  1  0  0  0
  4  5  1  0  0  0
  5  6  1  0  0  0
  6 21  1  0  0  0
 21 22  2  0  0  0
 21 23  1  0  0  0
 23 25  1  0  0  0
 25 26  1  0  0  0
 26 27  1  0  0  0
 28 29  1  0  0  0
 28 27  1  0  0  0
 30 29  1  0  0  0
 33 35  1  0  0  0
 19 20  1  0  0  0
  9 10  1  0  0  0
 23 24  1  0  0  0
M  END
> <minimizedAffinity>
-6.28875

$$$$
1NWL_964_A_501


 35 36  0  0  0  0  0  0  0  0999 V2000
   52.4974   32.9779   38.3019 C   0  0  0  0  0  0  0  0  0  0  0  0
   53.4334   34.1592   38.5845 C   0  0  0  0  0  0  0  0  0  0  0  0
   54.3657   34.5037   37.4195 C   0  0  0  0  0  0  0  0  0  0  0  0
   53.2602   31.7808   37.7261 C   0  0  0  0  0  0  0  0  0  0  0  0
   54.1901   32.1498   36.5668 C   0  0  0  0  0  0  0  0  0  0  0  0
   55.1498   33.2852   36.9288 C   0  0  0  0  0  0  0  0  0  0  0  0
   50.3472   34.1543   37.6299 C   0  0  0  0  0  0  0  0  0  0  0  0
   50.4026   35.1469   38.3372 O   0  0  0  0  0  0  0  0  0  0  0  0
   51.5482   33.4186   37.2842 N   0  0  0  0  0  0  0  0  0  0  0  0
   51.7280   33.2110   36.3387 H   0  0  0  0  0  0  0  0  0  0  0  0
   48.4095   32.5803   38.1726 C   0  0  0  0  0  0  0  0  0  0  0  0
   47.2811   31.9315   37.7966 N   0  0  0  0  0  0  0  0  0  0  0  0
   46.7114   32.1839   36.6090 C   0  0  0  0  0  0  0  0  0  0  0  0
   47.2867   33.1226   35.7542 C   0  0  0  0  0  0  0  0  0  0  0  0
   48.4053   33.7666   36.1226 N   0  0  0  0  0  0  0  0  0  0  0  0
   48.9898   33.5188   37.3213 C   0  0  0  0  0  0  0  0  0  0  0  0
   49.2710   31.0777   39.7818 O   0  0  0  0  0  0  0  0  0  0  0  0
   49.0125   32.2670   39.5076 C   0  0  0  0  0  0  0  0  0  0  0  0
   48.9776   33.1501   40.3870 O   0  0  0  0  0  0  0  0  0  0  0  0
   48.7809   34.0361   40.1537 H   0  0  0  0  0  0  0  0  0  0  0  0
   56.0037   33.6700   35.7226 C   0  0  0  0  0  0  0  0  0  0  0  0
   57.0546   34.2824   35.8549 O   0  0  0  0  0  0  0  0  0  0  0  0
   55.4973   33.2634   34.4274 N   0  0  0  0  0  0  0  0  0  0  0  0
   55.4919   32.3081   34.1894 H   0  0  0  0  0  0  0  0  0  0  0  0
   54.9987   34.2357   33.4754 C   0  0  0  0  0  0  0  0  0  0  0  0
   54.4047   33.5111   32.2753 C   0  0  0  0  0  0  0  0  0  0  0  0
   54.8565   31.9152   32.1438 S   0  0  0  0  0  0  0  0  0  0  0  0
   53.3418   30.7341   32.6954 S   0  0  0  0  0  0  0  0  0  0  0  0
   51.8253   31.6332   32.7023 C   0  0  0  0  0  0  0  0  0  0  0  0
   51.4334   31.9853   34.1343 C   0  0  0  0  0  0  0  0  0  0  0  0
   50.3975   30.0310   36.3416 C   0  0  0  0  0  0  0  0  0  0  0  0
   49.8156   30.3676   34.9728 C   0  0  0  0  0  0  0  0  0  0  0  0
   50.0771   31.5556   34.4260 N   0  0  0  0  0  0  0  0  0  0  0  0
   49.1155   29.5411   34.4117 O   0  0  0  0  0  0  0  0  0  0  0  0
   49.3288   32.1591   34.2138 H   0  0  0  0  0  0  0  0  0  0  0  0
 17 18  2  0  0  0
 31 32  1  0  0  0
 32 33  1  0  0  0
 32 34  2  0  0  0
 33 30  1  0  0  0
 18 19  1  0  0  0
 18 11  1  0  0  0
 11 12  2  0  0  0
 11 16  1  0  0  0
 12 13  1  0  0  0
 13 14  2  0  0  0
 14 15  1  0  0  0
 15 16  2  0  0  0
 16  7  1  0  0  0
  7  8  2  0  0  0
  7  9  1  0  0  0
  9  1  1  0  0  0
  1  2  1  0  0  0
  1  4  1  0  0  0
  2  3  1  0  0  0
  3  6  1  0  0  0
  4  5  1  0  0  0
  5  6  1  0  0  0
  6 21  1  0  0  0
 21 22  2  0  0  0
 21 23  1  0  0  0
 23 25  1  0  0  0
 25 26  1  0  0  0
 26 27  1  0  0  0
 28 29  1  0  0  0
 28 27  1  0  0  0
 30 29  1  0  0  0
 33 35  1  0  0  0
 19 20  1  0  0  0
  9 10  1  0  0  0
 23 24  1  0  0  0
M  END
> <minimizedAffinity>
-6.26853

$$$$
1NWL_964_A_501


 35 36  0  0  0  0  0  0  0  0999 V2000
   49.7267   31.9725   39.5834 C   0  0  0  0  0  0  0  0  0  0  0  0
   50.8346   32.3239   40.5835 C   0  0  0  0  0  0  0  0  0  0  0  0
   51.9872   33.1275   39.9746 C   0  0  0  0  0  0  0  0  0  0  0  0
   50.3008   31.3783   38.2934 C   0  0  0  0  0  0  0  0  0  0  0  0
   51.4552   32.1950   37.7062 C   0  0  0  0  0  0  0  0  0  0  0  0
   52.5642   32.4542   38.7281 C   0  0  0  0  0  0  0  0  0  0  0  0
   47.7937   33.2352   38.5211 C   0  0  0  0  0  0  0  0  0  0  0  0
   46.8476   32.5756   38.9191 O   0  0  0  0  0  0  0  0  0  0  0  0
   49.0602   33.2216   39.2274 N   0  0  0  0  0  0  0  0  0  0  0  0
   49.4815   34.0768   39.4732 H   0  0  0  0  0  0  0  0  0  0  0  0
   46.9086   34.9503   36.8473 C   0  0  0  0  0  0  0  0  0  0  0  0
   46.7804   35.3916   35.5728 N   0  0  0  0  0  0  0  0  0  0  0  0
   47.4515   34.7995   34.5740 C   0  0  0  0  0  0  0  0  0  0  0  0
   48.2883   33.7197   34.8509 C   0  0  0  0  0  0  0  0  0  0  0  0
   48.4171   33.2788   36.1123 N   0  0  0  0  0  0  0  0  0  0  0  0
   47.7428   33.8702   37.1298 C   0  0  0  0  0  0  0  0  0  0  0  0
   46.7076   36.5378   38.5878 O   0  0  0  0  0  0  0  0  0  0  0  0
   46.1401   35.6408   37.9320 C   0  0  0  0  0  0  0  0  0  0  0  0
   45.0772   35.1173   38.3202 O   0  0  0  0  0  0  0  0  0  0  0  0
   44.6717   34.4453   37.8083 H   0  0  0  0  0  0  0  0  0  0  0  0
   53.6559   33.3338   38.1225 C   0  0  0  0  0  0  0  0  0  0  0  0
   53.7034   34.5356   38.3465 O   0  0  0  0  0  0  0  0  0  0  0  0
   54.6230   32.6600   37.2798 N   0  0  0  0  0  0  0  0  0  0  0  0
   55.2704   32.0407   37.6880 H   0  0  0  0  0  0  0  0  0  0  0  0
   54.6558   32.8800   35.8478 C   0  0  0  0  0  0  0  0  0  0  0  0
   55.8855   33.7033   35.4898 C   0  0  0  0  0  0  0  0  0  0  0  0
   55.9413   34.2001   33.9028 S   0  0  0  0  0  0  0  0  0  0  0  0
   55.1989   36.0487   33.7446 S   0  0  0  0  0  0  0  0  0  0  0  0
   53.4468   36.0320   33.9405 C   0  0  0  0  0  0  0  0  0  0  0  0
   53.0829   36.2582   35.4050 C   0  0  0  0  0  0  0  0  0  0  0  0
   50.1181   37.0791   35.9533 C   0  0  0  0  0  0  0  0  0  0  0  0
   50.9387   35.9216   36.5122 C   0  0  0  0  0  0  0  0  0  0  0  0
   51.9529   35.4342   35.7963 N   0  0  0  0  0  0  0  0  0  0  0  0
   50.6415   35.4623   37.6026 O   0  0  0  0  0  0  0  0  0  0  0  0
   51.9350   34.4879   35.5251 H   0  0  0  0  0  0  0  0  0  0  0  0
 17 18  2  0  0  0
 31 32  1  0  0  0
 32 33  1  0  0  0
 32 34  2  0  0  0
 33 30  1  0  0  0
 18 19  1  0  0  0
 18 11  1  0  0  0
 11 12  2  0  0  0
 11 16  1  0  0  0
 12 13  1  0  0  0
 13 14  2  0  0  0
 14 15  1  0  0  0
 15 16  2  0  0  0
 16  7  1  0  0  0
  7  8  2  0  0  0
  7  9  1  0  0  0
  9  1  1  0  0  0
  1  2  1  0  0  0
  1  4  1  0  0  0
  2  3  1  0  0  0
  3  6  1  0  0  0
  4  5  1  0  0  0
  5  6  1  0  0  0
  6 21  1  0  0  0
 21 22  2  0  0  0
 21 23  1  0  0  0
 23 25  1  0  0  0
 25 26  1  0  0  0
 26 27  1  0  0  0
 28 29  1  0  0  0
 28 27  1  0  0  0
 30 29  1  0  0  0
 33 35  1  0  0  0
 19 20  1  0  0  0
  9 10  1  0  0  0
 23 24  1  0  0  0
M  END
> <minimizedAffinity>
-6.18489

$$$$
1NWL_964_A_501


 35 36  0  0  0  0  0  0  0  0999 V2000
   52.0516   33.0206   39.4747 C   0  0  0  0  0  0  0  0  0  0  0  0
   53.2007   34.0166   39.2773 C   0  0  0  0  0  0  0  0  0  0  0  0
   53.7509   34.0531   37.8487 C   0  0  0  0  0  0  0  0  0  0  0  0
   52.3926   31.6455   38.8921 C   0  0  0  0  0  0  0  0  0  0  0  0
   52.9461   31.7070   37.4657 C   0  0  0  0  0  0  0  0  0  0  0  0
   54.1358   32.6615   37.3434 C   0  0  0  0  0  0  0  0  0  0  0  0
   49.5452   33.1886   39.0892 C   0  0  0  0  0  0  0  0  0  0  0  0
   49.1485   33.3141   40.2361 O   0  0  0  0  0  0  0  0  0  0  0  0
   50.9066   33.5361   38.7302 N   0  0  0  0  0  0  0  0  0  0  0  0
   51.0627   34.1352   37.9646 H   0  0  0  0  0  0  0  0  0  0  0  0
   47.3205   32.5885   37.9858 C   0  0  0  0  0  0  0  0  0  0  0  0
   46.5867   31.7819   37.1817 N   0  0  0  0  0  0  0  0  0  0  0  0
   47.1754   30.8127   36.4656 C   0  0  0  0  0  0  0  0  0  0  0  0
   48.5551   30.6342   36.5506 C   0  0  0  0  0  0  0  0  0  0  0  0
   49.2854   31.4305   37.3471 N   0  0  0  0  0  0  0  0  0  0  0  0
   48.7002   32.4136   38.0758 C   0  0  0  0  0  0  0  0  0  0  0  0
   45.8003   33.3175   39.6433 O   0  0  0  0  0  0  0  0  0  0  0  0
   46.6219   33.6579   38.7683 C   0  0  0  0  0  0  0  0  0  0  0  0
   46.6752   34.8269   38.3380 O   0  0  0  0  0  0  0  0  0  0  0  0
   47.3021   35.0560   37.6804 H   0  0  0  0  0  0  0  0  0  0  0  0
   54.6057   32.7487   35.8929 C   0  0  0  0  0  0  0  0  0  0  0  0
   55.7018   33.2094   35.6047 O   0  0  0  0  0  0  0  0  0  0  0  0
   53.6826   32.2517   34.8928 N   0  0  0  0  0  0  0  0  0  0  0  0
   53.5067   31.2847   34.8364 H   0  0  0  0  0  0  0  0  0  0  0  0
   53.0133   33.1505   33.9739 C   0  0  0  0  0  0  0  0  0  0  0  0
   51.6846   33.5904   34.5730 C   0  0  0  0  0  0  0  0  0  0  0  0
   50.3547   32.8211   33.9341 S   0  0  0  0  0  0  0  0  0  0  0  0
   48.9344   34.1617   33.5109 S   0  0  0  0  0  0  0  0  0  0  0  0
   47.8836   34.4124   34.9041 C   0  0  0  0  0  0  0  0  0  0  0  0
   47.8348   35.8950   35.2614 C   0  0  0  0  0  0  0  0  0  0  0  0
   50.3803   37.6635   35.6582 C   0  0  0  0  0  0  0  0  0  0  0  0
   49.8960   36.4459   36.4383 C   0  0  0  0  0  0  0  0  0  0  0  0
   48.5922   36.1668   36.4704 N   0  0  0  0  0  0  0  0  0  0  0  0
   50.7159   35.7576   37.0232 O   0  0  0  0  0  0  0  0  0  0  0  0
   48.1296   36.1444   37.3391 H   0  0  0  0  0  0  0  0  0  0  0  0
 17 18  2  0  0  0
 31 32  1  0  0  0
 32 33  1  0  0  0
 32 34  2  0  0  0
 33 30  1  0  0  0
 18 19  1  0  0  0
 18 11  1  0  0  0
 11 12  2  0  0  0
 11 16  1  0  0  0
 12 13  1  0  0  0
 13 14  2  0  0  0
 14 15  1  0  0  0
 15 16  2  0  0  0
 16  7  1  0  0  0
  7  8  2  0  0  0
  7  9  1  0  0  0
  9  1  1  0  0  0
  1  2  1  0  0  0
  1  4  1  0  0  0
  2  3  1  0  0  0
  3  6  1  0  0  0
  4  5  1  0  0  0
  5  6  1  0  0  0
  6 21  1  0  0  0
 21 22  2  0  0  0
 21 23  1  0  0  0
 23 25  1  0  0  0
 25 26  1  0  0  0
 26 27  1  0  0  0
 28 29  1  0  0  0
 28 27  1  0  0  0
 30 29  1  0  0  0
 33 35  1  0  0  0
 19 20  1  0  0  0
  9 10  1  0  0  0
 23 24  1  0  0  0
M  END
> <minimizedAffinity>
-6.15084

$$$$
1NWL_964_A_501


 35 36  0  0  0  0  0  0  0  0999 V2000
   48.8762   32.1481   39.2726 C   0  0  0  0  0  0  0  0  0  0  0  0
   49.9724   32.5100   40.2819 C   0  0  0  0  0  0  0  0  0  0  0  0
   51.0037   33.5071   39.7461 C   0  0  0  0  0  0  0  0  0  0  0  0
   49.4673   31.7764   37.9091 C   0  0  0  0  0  0  0  0  0  0  0  0
   50.4998   32.7842   37.3962 C   0  0  0  0  0  0  0  0  0  0  0  0
   51.6082   33.0526   38.4163 C   0  0  0  0  0  0  0  0  0  0  0  0
   46.6742   33.2605   38.6620 C   0  0  0  0  0  0  0  0  0  0  0  0
   45.8857   32.5351   39.2456 O   0  0  0  0  0  0  0  0  0  0  0  0
   48.0601   33.3433   39.0812 N   0  0  0  0  0  0  0  0  0  0  0  0
   48.4608   34.2283   39.2407 H   0  0  0  0  0  0  0  0  0  0  0  0
   45.7700   35.1773   37.2355 C   0  0  0  0  0  0  0  0  0  0  0  0
   45.2963   35.6418   36.0542 N   0  0  0  0  0  0  0  0  0  0  0  0
   45.3145   34.8679   34.9591 C   0  0  0  0  0  0  0  0  0  0  0  0
   45.8255   33.5736   35.0382 C   0  0  0  0  0  0  0  0  0  0  0  0
   46.2947   33.1093   36.2071 N   0  0  0  0  0  0  0  0  0  0  0  0
   46.2808   33.8835   37.3208 C   0  0  0  0  0  0  0  0  0  0  0  0
   46.7471   36.7408   38.7156 O   0  0  0  0  0  0  0  0  0  0  0  0
   45.7299   36.0756   38.4336 C   0  0  0  0  0  0  0  0  0  0  0  0
   44.8005   35.9207   39.2502 O   0  0  0  0  0  0  0  0  0  0  0  0
   44.0475   35.4162   39.0127 H   0  0  0  0  0  0  0  0  0  0  0  0
   52.5706   34.1172   37.8940 C   0  0  0  0  0  0  0  0  0  0  0  0
   53.5475   34.4665   38.5424 O   0  0  0  0  0  0  0  0  0  0  0  0
   52.2584   34.6761   36.5942 N   0  0  0  0  0  0  0  0  0  0  0  0
   52.3553   34.1146   35.7914 H   0  0  0  0  0  0  0  0  0  0  0  0
   51.8064   36.0458   36.4530 C   0  0  0  0  0  0  0  0  0  0  0  0
   52.3697   36.6353   35.1673 C   0  0  0  0  0  0  0  0  0  0  0  0
   53.7153   35.8498   34.5834 S   0  0  0  0  0  0  0  0  0  0  0  0
   55.3270   36.3959   35.6312 S   0  0  0  0  0  0  0  0  0  0  0  0
   56.0667   34.9955   36.4057 C   0  0  0  0  0  0  0  0  0  0  0  0
   56.3525   33.9146   35.3672 C   0  0  0  0  0  0  0  0  0  0  0  0
   56.3062   33.1617   32.3348 C   0  0  0  0  0  0  0  0  0  0  0  0
   57.4404   33.7057   33.1969 C   0  0  0  0  0  0  0  0  0  0  0  0
   57.1496   34.4391   34.2723 N   0  0  0  0  0  0  0  0  0  0  0  0
   58.5920   33.4621   32.8765 O   0  0  0  0  0  0  0  0  0  0  0  0
   57.4851   35.3631   34.3255 H   0  0  0  0  0  0  0  0  0  0  0  0
 17 18  2  0  0  0
 31 32  1  0  0  0
 32 33  1  0  0  0
 32 34  2  0  0  0
 33 30  1  0  0  0
 18 19  1  0  0  0
 18 11  1  0  0  0
 11 12  2  0  0  0
 11 16  1  0  0  0
 12 13  1  0  0  0
 13 14  2  0  0  0
 14 15  1  0  0  0
 15 16  2  0  0  0
 16  7  1  0  0  0
  7  8  2  0  0  0
  7  9  1  0  0  0
  9  1  1  0  0  0
  1  2  1  0  0  0
  1  4  1  0  0  0
  2  3  1  0  0  0
  3  6  1  0  0  0
  4  5  1  0  0  0
  5  6  1  0  0  0
  6 21  1  0  0  0
 21 22  2  0  0  0
 21 23  1  0  0  0
 23 25  1  0  0  0
 25 26  1  0  0  0
 26 27  1  0  0  0
 28 29  1  0  0  0
 28 27  1  0  0  0
 30 29  1  0  0  0
 33 35  1  0  0  0
 19 20  1  0  0  0
  9 10  1  0  0  0
 23 24  1  0  0  0
M  END
> <minimizedAffinity>
-6.07435

$$$$
1NWL_964_A_501


 35 36  0  0  0  0  0  0  0  0999 V2000
   54.5083   33.8831   37.8492 C   0  0  0  0  0  0  0  0  0  0  0  0
   55.0620   35.1849   37.2576 C   0  0  0  0  0  0  0  0  0  0  0  0
   54.5613   35.4846   35.8418 C   0  0  0  0  0  0  0  0  0  0  0  0
   54.6475   32.7151   36.8678 C   0  0  0  0  0  0  0  0  0  0  0  0
   54.1461   33.0394   35.4578 C   0  0  0  0  0  0  0  0  0  0  0  0
   54.7855   34.3083   34.8899 C   0  0  0  0  0  0  0  0  0  0  0  0
   52.3303   33.2646   39.0037 C   0  0  0  0  0  0  0  0  0  0  0  0
   52.7226   33.0874   40.1453 O   0  0  0  0  0  0  0  0  0  0  0  0
   53.0816   34.0905   38.0782 N   0  0  0  0  0  0  0  0  0  0  0  0
   52.6174   34.8096   37.5917 H   0  0  0  0  0  0  0  0  0  0  0  0
   49.8752   32.5681   38.8848 C   0  0  0  0  0  0  0  0  0  0  0  0
   48.9186   31.6955   38.4861 N   0  0  0  0  0  0  0  0  0  0  0  0
   49.2229   30.6722   37.6743 C   0  0  0  0  0  0  0  0  0  0  0  0
   50.5360   30.5057   37.2376 C   0  0  0  0  0  0  0  0  0  0  0  0
   51.4869   31.3675   37.6315 N   0  0  0  0  0  0  0  0  0  0  0  0
   51.1901   32.4056   38.4525 C   0  0  0  0  0  0  0  0  0  0  0  0
   49.1049   33.4283   40.9479 O   0  0  0  0  0  0  0  0  0  0  0  0
   49.4912   33.6964   39.7923 C   0  0  0  0  0  0  0  0  0  0  0  0
   49.3078   34.8198   39.2835 O   0  0  0  0  0  0  0  0  0  0  0  0
   49.6081   34.9947   38.4134 H   0  0  0  0  0  0  0  0  0  0  0  0
   54.2014   34.6342   33.5170 C   0  0  0  0  0  0  0  0  0  0  0  0
   54.8952   35.0999   32.6234 O   0  0  0  0  0  0  0  0  0  0  0  0
   52.7905   34.3546   33.3419 N   0  0  0  0  0  0  0  0  0  0  0  0
   52.4837   33.4196   33.3125 H   0  0  0  0  0  0  0  0  0  0  0  0
   51.8223   35.4247   33.2091 C   0  0  0  0  0  0  0  0  0  0  0  0
   50.4432   34.9115   33.6001 C   0  0  0  0  0  0  0  0  0  0  0  0
   50.3784   34.1885   35.0973 S   0  0  0  0  0  0  0  0  0  0  0  0
   48.4806   33.7789   35.5708 S   0  0  0  0  0  0  0  0  0  0  0  0
   47.5328   35.2621   35.6713 C   0  0  0  0  0  0  0  0  0  0  0  0
   46.4167   35.0999   36.6991 C   0  0  0  0  0  0  0  0  0  0  0  0
   45.1377   32.4439   37.7355 C   0  0  0  0  0  0  0  0  0  0  0  0
   45.9621   33.4932   38.4736 C   0  0  0  0  0  0  0  0  0  0  0  0
   46.8330   34.2383   37.7915 N   0  0  0  0  0  0  0  0  0  0  0  0
   45.8098   33.6213   39.6772 O   0  0  0  0  0  0  0  0  0  0  0  0
   47.7861   34.2031   38.0358 H   0  0  0  0  0  0  0  0  0  0  0  0
 17 18  2  0  0  0
 31 32  1  0  0  0
 32 33  1  0  0  0
 32 34  2  0  0  0
 33 30  1  0  0  0
 18 19  1  0  0  0
 18 11  1  0  0  0
 11 12  2  0  0  0
 11 16  1  0  0  0
 12 13  1  0  0  0
 13 14  2  0  0  0
 14 15  1  0  0  0
 15 16  2  0  0  0
 16  7  1  0  0  0
  7  8  2  0  0  0
  7  9  1  0  0  0
  9  1  1  0  0  0
  1  2  1  0  0  0
  1  4  1  0  0  0
  2  3  1  0  0  0
  3  6  1  0  0  0
  4  5  1  0  0  0
  5  6  1  0  0  0
  6 21  1  0  0  0
 21 22  2  0  0  0
 21 23  1  0  0  0
 23 25  1  0  0  0
 25 26  1  0  0  0
 26 27  1  0  0  0
 28 29  1  0  0  0
 28 27  1  0  0  0
 30 29  1  0  0  0
 33 35  1  0  0  0
 19 20  1  0  0  0
  9 10  1  0  0  0
 23 24  1  0  0  0
M  END
> <minimizedAffinity>
-6.03393

$$$$
1NWL_964_A_501


 35 36  0  0  0  0  0  0  0  0999 V2000
   49.8441   32.1791   39.4158 C   0  0  0  0  0  0  0  0  0  0  0  0
   50.9237   32.5280   40.4473 C   0  0  0  0  0  0  0  0  0  0  0  0
   52.0927   33.3332   39.8729 C   0  0  0  0  0  0  0  0  0  0  0  0
   50.4540   31.5883   38.1408 C   0  0  0  0  0  0  0  0  0  0  0  0
   51.6243   32.4065   37.5881 C   0  0  0  0  0  0  0  0  0  0  0  0
   52.7043   32.6631   38.6412 C   0  0  0  0  0  0  0  0  0  0  0  0
   47.7905   33.4707   38.6583 C   0  0  0  0  0  0  0  0  0  0  0  0
   46.9318   32.9597   39.3583 O   0  0  0  0  0  0  0  0  0  0  0  0
   49.1877   33.4291   39.0446 N   0  0  0  0  0  0  0  0  0  0  0  0
   49.7070   34.2655   39.0568 H   0  0  0  0  0  0  0  0  0  0  0  0
   47.2102   33.0082   36.2137 C   0  0  0  0  0  0  0  0  0  0  0  0
   47.0483   33.4437   34.9410 N   0  0  0  0  0  0  0  0  0  0  0  0
   47.1059   34.7526   34.6543 C   0  0  0  0  0  0  0  0  0  0  0  0
   47.3347   35.6726   35.6761 C   0  0  0  0  0  0  0  0  0  0  0  0
   47.4967   35.2449   36.9381 N   0  0  0  0  0  0  0  0  0  0  0  0
   47.4407   33.9235   37.2391 C   0  0  0  0  0  0  0  0  0  0  0  0
   47.9246   30.7784   35.8863 O   0  0  0  0  0  0  0  0  0  0  0  0
   47.1388   31.5374   36.4888 C   0  0  0  0  0  0  0  0  0  0  0  0
   46.1344   31.1020   37.0855 O   0  0  0  0  0  0  0  0  0  0  0  0
   45.5604   31.6941   37.5303 H   0  0  0  0  0  0  0  0  0  0  0  0
   53.8124   33.5443   38.0686 C   0  0  0  0  0  0  0  0  0  0  0  0
   53.8424   34.7488   38.2805 O   0  0  0  0  0  0  0  0  0  0  0  0
   54.8165   32.8686   37.2720 N   0  0  0  0  0  0  0  0  0  0  0  0
   55.4520   32.2589   37.7121 H   0  0  0  0  0  0  0  0  0  0  0  0
   54.9036   33.0730   35.8399 C   0  0  0  0  0  0  0  0  0  0  0  0
   56.2110   33.7788   35.5075 C   0  0  0  0  0  0  0  0  0  0  0  0
   56.3759   34.2010   33.9065 S   0  0  0  0  0  0  0  0  0  0  0  0
   54.7941   35.2731   33.3217 S   0  0  0  0  0  0  0  0  0  0  0  0
   54.4105   36.5134   34.5145 C   0  0  0  0  0  0  0  0  0  0  0  0
   52.9560   36.9498   34.3649 C   0  0  0  0  0  0  0  0  0  0  0  0
   51.0440   35.9152   36.6095 C   0  0  0  0  0  0  0  0  0  0  0  0
   51.3098   37.3347   36.1196 C   0  0  0  0  0  0  0  0  0  0  0  0
   52.4865   37.6239   35.5625 N   0  0  0  0  0  0  0  0  0  0  0  0
   50.4382   38.1772   36.2563 O   0  0  0  0  0  0  0  0  0  0  0  0
   53.0536   38.3148   35.9753 H   0  0  0  0  0  0  0  0  0  0  0  0
 17 18  2  0  0  0
 31 32  1  0  0  0
 32 33  1  0  0  0
 32 34  2  0  0  0
 33 30  1  0  0  0
 18 19  1  0  0  0
 18 11  1  0  0  0
 11 12  2  0  0  0
 11 16  1  0  0  0
 12 13  1  0  0  0
 13 14  2  0  0  0
 14 15  1  0  0  0
 15 16  2  0  0  0
 16  7  1  0  0  0
  7  8  2  0  0  0
  7  9  1  0  0  0
  9  1  1  0  0  0
  1  2  1  0  0  0
  1  4  1  0  0  0
  2  3  1  0  0  0
  3  6  1  0  0  0
  4  5  1  0  0  0
  5  6  1  0  0  0
  6 21  1  0  0  0
 21 22  2  0  0  0
 21 23  1  0  0  0
 23 25  1  0  0  0
 25 26  1  0  0  0
 26 27  1  0  0  0
 28 29  1  0  0  0
 28 27  1  0  0  0
 30 29  1  0  0  0
 33 35  1  0  0  0
 19 20  1  0  0  0
  9 10  1  0  0  0
 23 24  1  0  0  0
M  END
> <minimizedAffinity>
-5.89796

$$$$
1NWL_964_A_501


 35 36  0  0  0  0  0  0  0  0999 V2000
   49.9382   32.2049   39.3869 C   0  0  0  0  0  0  0  0  0  0  0  0
   51.0402   32.5890   40.3816 C   0  0  0  0  0  0  0  0  0  0  0  0
   52.1847   33.3934   39.7587 C   0  0  0  0  0  0  0  0  0  0  0  0
   50.5216   31.5916   38.1100 C   0  0  0  0  0  0  0  0  0  0  0  0
   51.6677   32.4096   37.5084 C   0  0  0  0  0  0  0  0  0  0  0  0
   52.7717   32.7018   38.5269 C   0  0  0  0  0  0  0  0  0  0  0  0
   47.8587   33.4516   38.6252 C   0  0  0  0  0  0  0  0  0  0  0  0
   47.0125   32.9337   39.3353 O   0  0  0  0  0  0  0  0  0  0  0  0
   49.2583   33.4389   39.0048 N   0  0  0  0  0  0  0  0  0  0  0  0
   49.7628   34.2843   39.0048 H   0  0  0  0  0  0  0  0  0  0  0  0
   47.1949   32.9511   36.2095 C   0  0  0  0  0  0  0  0  0  0  0  0
   47.0209   33.3592   34.9293 N   0  0  0  0  0  0  0  0  0  0  0  0
   47.1319   34.6557   34.6045 C   0  0  0  0  0  0  0  0  0  0  0  0
   47.4294   35.5911   35.5940 C   0  0  0  0  0  0  0  0  0  0  0  0
   47.6037   35.1905   36.8633 N   0  0  0  0  0  0  0  0  0  0  0  0
   47.4939   33.8819   37.2027 C   0  0  0  0  0  0  0  0  0  0  0  0
   47.7943   30.6818   35.9259 O   0  0  0  0  0  0  0  0  0  0  0  0
   47.0622   31.4933   36.5276 C   0  0  0  0  0  0  0  0  0  0  0  0
   46.0556   31.1224   37.1630 O   0  0  0  0  0  0  0  0  0  0  0  0
   45.5227   31.7530   37.6061 H   0  0  0  0  0  0  0  0  0  0  0  0
   53.8544   33.5816   37.9056 C   0  0  0  0  0  0  0  0  0  0  0  0
   53.8475   34.7967   38.0474 O   0  0  0  0  0  0  0  0  0  0  0  0
   54.8809   32.8917   37.1507 N   0  0  0  0  0  0  0  0  0  0  0  0
   55.5331   32.3280   37.6262 H   0  0  0  0  0  0  0  0  0  0  0  0
   54.9661   33.0154   35.7093 C   0  0  0  0  0  0  0  0  0  0  0  0
   55.9687   34.1043   35.3527 C   0  0  0  0  0  0  0  0  0  0  0  0
   56.6124   33.9714   33.8241 S   0  0  0  0  0  0  0  0  0  0  0  0
   55.3995   32.8800   32.6702 S   0  0  0  0  0  0  0  0  0  0  0  0
   54.0206   33.8407   32.1373 C   0  0  0  0  0  0  0  0  0  0  0  0
   52.7357   33.2985   32.7566 C   0  0  0  0  0  0  0  0  0  0  0  0
   50.6699   31.3300   34.0301 C   0  0  0  0  0  0  0  0  0  0  0  0
   52.1679   31.1684   33.7944 C   0  0  0  0  0  0  0  0  0  0  0  0
   52.7506   31.8472   32.8052 N   0  0  0  0  0  0  0  0  0  0  0  0
   52.7986   30.4128   34.5151 O   0  0  0  0  0  0  0  0  0  0  0  0
   53.2041   31.3497   32.0868 H   0  0  0  0  0  0  0  0  0  0  0  0
 17 18  2  0  0  0
 31 32  1  0  0  0
 32 33  1  0  0  0
 32 34  2  0  0  0
 33 30  1  0  0  0
 18 19  1  0  0  0
 18 11  1  0  0  0
 11 12  2  0  0  0
 11 16  1  0  0  0
 12 13  1  0  0  0
 13 14  2  0  0  0
 14 15  1  0  0  0
 15 16  2  0  0  0
 16  7  1  0  0  0
  7  8  2  0  0  0
  7  9  1  0  0  0
  9  1  1  0  0  0
  1  2  1  0  0  0
  1  4  1  0  0  0
  2  3  1  0  0  0
  3  6  1  0  0  0
  4  5  1  0  0  0
  5  6  1  0  0  0
  6 21  1  0  0  0
 21 22  2  0  0  0
 21 23  1  0  0  0
 23 25  1  0  0  0
 25 26  1  0  0  0
 26 27  1  0  0  0
 28 29  1  0  0  0
 28 27  1  0  0  0
 30 29  1  0  0  0
 33 35  1  0  0  0
 19 20  1  0  0  0
  9 10  1  0  0  0
 23 24  1  0  0  0
M  END
> <minimizedAffinity>
-5.83687

$$$$
1NWL_964_A_501


 35 36  0  0  0  0  0  0  0  0999 V2000
   49.0392   32.2363   39.4228 C   0  0  0  0  0  0  0  0  0  0  0  0
   50.0663   32.7227   40.4524 C   0  0  0  0  0  0  0  0  0  0  0  0
   51.1396   33.6458   39.8687 C   0  0  0  0  0  0  0  0  0  0  0  0
   49.7196   31.6974   38.1606 C   0  0  0  0  0  0  0  0  0  0  0  0
   50.7927   32.6340   37.5984 C   0  0  0  0  0  0  0  0  0  0  0  0
   51.8304   33.0291   38.6511 C   0  0  0  0  0  0  0  0  0  0  0  0
   46.8590   33.2724   38.6279 C   0  0  0  0  0  0  0  0  0  0  0  0
   46.0572   32.6750   39.3271 O   0  0  0  0  0  0  0  0  0  0  0  0
   48.2474   33.3973   39.0277 N   0  0  0  0  0  0  0  0  0  0  0  0
   48.6667   34.2880   39.0327 H   0  0  0  0  0  0  0  0  0  0  0  0
   46.5605   32.7573   36.1435 C   0  0  0  0  0  0  0  0  0  0  0  0
   46.3536   33.1775   34.8722 N   0  0  0  0  0  0  0  0  0  0  0  0
   46.0640   34.4617   34.6157 C   0  0  0  0  0  0  0  0  0  0  0  0
   45.9756   35.3717   35.6678 C   0  0  0  0  0  0  0  0  0  0  0  0
   46.1810   34.9594   36.9286 N   0  0  0  0  0  0  0  0  0  0  0  0
   46.4747   33.6631   37.1991 C   0  0  0  0  0  0  0  0  0  0  0  0
   47.7541   30.7705   35.6769 O   0  0  0  0  0  0  0  0  0  0  0  0
   46.8819   31.3141   36.3843 C   0  0  0  0  0  0  0  0  0  0  0  0
   46.0898   30.6461   37.0776 O   0  0  0  0  0  0  0  0  0  0  0  0
   45.4440   31.0797   37.6000 H   0  0  0  0  0  0  0  0  0  0  0  0
   52.8346   34.0208   38.0677 C   0  0  0  0  0  0  0  0  0  0  0  0
   53.7649   34.4526   38.7346 O   0  0  0  0  0  0  0  0  0  0  0  0
   52.6197   34.4085   36.6882 N   0  0  0  0  0  0  0  0  0  0  0  0
   52.7701   33.7494   35.9726 H   0  0  0  0  0  0  0  0  0  0  0  0
   52.1879   35.7477   36.3416 C   0  0  0  0  0  0  0  0  0  0  0  0
   51.6183   35.7468   34.9297 C   0  0  0  0  0  0  0  0  0  0  0  0
   52.1410   37.0072   33.9773 S   0  0  0  0  0  0  0  0  0  0  0  0
   53.8208   36.4880   33.0276 S   0  0  0  0  0  0  0  0  0  0  0  0
   54.2895   34.8421   33.4517 C   0  0  0  0  0  0  0  0  0  0  0  0
   55.8071   34.6979   33.3860 C   0  0  0  0  0  0  0  0  0  0  0  0
   56.1279   33.5914   36.2907 C   0  0  0  0  0  0  0  0  0  0  0  0
   56.0521   35.0290   35.7876 C   0  0  0  0  0  0  0  0  0  0  0  0
   56.4408   35.3067   34.5423 N   0  0  0  0  0  0  0  0  0  0  0  0
   55.6429   35.8957   36.5423 O   0  0  0  0  0  0  0  0  0  0  0  0
   57.1789   35.9430   34.4029 H   0  0  0  0  0  0  0  0  0  0  0  0
 17 18  2  0  0  0
 31 32  1  0  0  0
 32 33  1  0  0  0
 32 34  2  0  0  0
 33 30  1  0  0  0
 18 19  1  0  0  0
 18 11  1  0  0  0
 11 12  2  0  0  0
 11 16  1  0  0  0
 12 13  1  0  0  0
 13 14  2  0  0  0
 14 15  1  0  0  0
 15 16  2  0  0  0
 16  7  1  0  0  0
  7  8  2  0  0  0
  7  9  1  0  0  0
  9  1  1  0  0  0
  1  2  1  0  0  0
  1  4  1  0  0  0
  2  3  1  0  0  0
  3  6  1  0  0  0
  4  5  1  0  0  0
  5  6  1  0  0  0
  6 21  1  0  0  0
 21 22  2  0  0  0
 21 23  1  0  0  0
 23 25  1  0  0  0
 25 26  1  0  0  0
 26 27  1  0  0  0
 28 29  1  0  0  0
 28 27  1  0  0  0
 30 29  1  0  0  0
 33 35  1  0  0  0
 19 20  1  0  0  0
  9 10  1  0  0  0
 23 24  1  0  0  0
M  END
> <minimizedAffinity>
-5.77923

$$$$
1NWL_964_A_501


 35 36  0  0  0  0  0  0  0  0999 V2000
   49.9057   34.0161   39.0522 C   0  0  0  0  0  0  0  0  0  0  0  0
   51.4315   33.9052   38.9462 C   0  0  0  0  0  0  0  0  0  0  0  0
   51.9098   33.0115   37.7984 C   0  0  0  0  0  0  0  0  0  0  0  0
   49.2366   32.6390   39.0008 C   0  0  0  0  0  0  0  0  0  0  0  0
   49.7344   31.7611   37.8492 C   0  0  0  0  0  0  0  0  0  0  0  0
   51.2586   31.6278   37.8354 C   0  0  0  0  0  0  0  0  0  0  0  0
   48.1531   35.4141   37.8551 C   0  0  0  0  0  0  0  0  0  0  0  0
   47.8053   36.1595   38.7562 O   0  0  0  0  0  0  0  0  0  0  0  0
   49.4495   34.7647   37.8849 N   0  0  0  0  0  0  0  0  0  0  0  0
   50.0369   34.8304   37.0976 H   0  0  0  0  0  0  0  0  0  0  0  0
   46.0416   34.1455   37.1777 C   0  0  0  0  0  0  0  0  0  0  0  0
   45.2380   33.6281   36.2175 N   0  0  0  0  0  0  0  0  0  0  0  0
   45.4744   33.8778   34.9212 C   0  0  0  0  0  0  0  0  0  0  0  0
   46.5576   34.6769   34.5596 C   0  0  0  0  0  0  0  0  0  0  0  0
   47.3568   35.1905   35.5080 N   0  0  0  0  0  0  0  0  0  0  0  0
   47.1269   34.9441   36.8219 C   0  0  0  0  0  0  0  0  0  0  0  0
   45.7348   32.6487   38.9820 O   0  0  0  0  0  0  0  0  0  0  0  0
   45.7410   33.8406   38.6133 C   0  0  0  0  0  0  0  0  0  0  0  0
   45.2440   34.7458   39.3119 O   0  0  0  0  0  0  0  0  0  0  0  0
   45.2621   35.6331   39.0113 H   0  0  0  0  0  0  0  0  0  0  0  0
   51.7138   30.8086   36.6295 C   0  0  0  0  0  0  0  0  0  0  0  0
   52.8517   30.3658   36.5526 O   0  0  0  0  0  0  0  0  0  0  0  0
   50.7212   30.5883   35.5972 N   0  0  0  0  0  0  0  0  0  0  0  0
   49.9565   29.9962   35.7814 H   0  0  0  0  0  0  0  0  0  0  0  0
   50.8322   31.2225   34.2989 C   0  0  0  0  0  0  0  0  0  0  0  0
   51.8276   32.3717   34.3799 C   0  0  0  0  0  0  0  0  0  0  0  0
   51.1445   33.8829   34.2460 S   0  0  0  0  0  0  0  0  0  0  0  0
   52.3193   35.0625   33.1406 S   0  0  0  0  0  0  0  0  0  0  0  0
   53.2396   36.1598   34.1689 C   0  0  0  0  0  0  0  0  0  0  0  0
   53.0729   35.7661   35.6336 C   0  0  0  0  0  0  0  0  0  0  0  0
   55.2605   33.5642   35.9947 C   0  0  0  0  0  0  0  0  0  0  0  0
   54.8989   34.7482   36.8853 C   0  0  0  0  0  0  0  0  0  0  0  0
   54.3404   35.8294   36.3397 N   0  0  0  0  0  0  0  0  0  0  0  0
   55.1371   34.6803   38.0798 O   0  0  0  0  0  0  0  0  0  0  0  0
   54.8010   36.6961   36.4178 H   0  0  0  0  0  0  0  0  0  0  0  0
 17 18  2  0  0  0
 31 32  1  0  0  0
 32 33  1  0  0  0
 32 34  2  0  0  0
 33 30  1  0  0  0
 18 19  1  0  0  0
 18 11  1  0  0  0
 11 12  2  0  0  0
 11 16  1  0  0  0
 12 13  1  0  0  0
 13 14  2  0  0  0
 14 15  1  0  0  0
 15 16  2  0  0  0
 16  7  1  0  0  0
  7  8  2  0  0  0
  7  9  1  0  0  0
  9  1  1  0  0  0
  1  2  1  0  0  0
  1  4  1  0  0  0
  2  3  1  0  0  0
  3  6  1  0  0  0
  4  5  1  0  0  0
  5  6  1  0  0  0
  6 21  1  0  0  0
 21 22  2  0  0  0
 21 23  1  0  0  0
 23 25  1  0  0  0
 25 26  1  0  0  0
 26 27  1  0  0  0
 28 29  1  0  0  0
 28 27  1  0  0  0
 30 29  1  0  0  0
 33 35  1  0  0  0
 19 20  1  0  0  0
  9 10  1  0  0  0
 23 24  1  0  0  0
M  END
> <minimizedAffinity>
-5.77405

$$$$
