5WA9_9ZD_A_201


 35 37  0  0  0  0  0  0  0  0999 V2000
  -29.2342    5.0478  -27.1847 C   0  0  0  0  0  0  0  0  0  0  0  0
  -29.8427    6.4602  -27.1556 C   0  0  0  0  0  0  0  0  0  0  0  0
  -29.0032    7.3835  -26.4373 O   0  0  0  0  0  0  0  0  0  0  0  0
  -29.9725    6.8159  -28.6364 C   0  0  0  0  0  0  0  0  0  0  0  0
  -29.7185    8.1938  -28.9595 O   0  0  0  0  0  0  0  0  0  0  0  0
  -28.9639    5.8798  -29.2826 C   0  0  0  0  0  0  0  0  0  0  0  0
  -29.1117    4.6705  -28.5534 O   0  0  0  0  0  0  0  0  0  0  0  0
  -28.1223    7.4023  -26.8430 H   0  0  0  0  0  0  0  0  0  0  0  0
  -28.8175    8.4289  -28.6878 H   0  0  0  0  0  0  0  0  0  0  0  0
  -29.2252    5.5814  -30.6984 N   0  0  0  0  0  0  0  0  0  0  0  0
  -28.2656    5.3134  -31.5672 C   0  0  0  0  0  0  0  0  0  0  0  0
  -28.9513    5.0539  -32.8278 C   0  0  0  0  0  0  0  0  0  0  0  0
  -30.2611    5.2024  -32.6051 N   0  0  0  0  0  0  0  0  0  0  0  0
  -30.4234    5.5001  -31.2981 C   0  0  0  0  0  0  0  0  0  0  0  0
  -26.9203    5.2669  -31.4883 N   0  0  0  0  0  0  0  0  0  0  0  0
  -26.2265    4.9564  -32.5962 C   0  0  0  0  0  0  0  0  0  0  0  0
  -26.7873    4.7022  -33.7946 N   0  0  0  0  0  0  0  0  0  0  0  0
  -28.1164    4.7412  -33.9898 C   0  0  0  0  0  0  0  0  0  0  0  0
  -28.6743    4.5017  -35.2022 N   0  0  0  0  0  0  0  0  0  0  0  0
  -28.1014    4.2926  -35.9750 H   0  0  0  0  0  0  0  0  0  0  0  0
  -29.6523    4.5370  -35.3096 H   0  0  0  0  0  0  0  0  0  0  0  0
  -30.0689    3.9955  -26.4792 C   0  0  0  0  0  0  0  0  0  0  0  0
  -30.0671    4.3545  -25.1090 O   0  0  0  0  0  0  0  0  0  0  0  0
  -30.4867    3.4901  -22.8465 O   0  0  0  0  0  0  0  0  0  0  0  0
  -31.2041    3.8559  -24.1090 P   0  0  0  0  0  0  0  0  0  0  0  0
  -32.0774    2.8127  -24.7466 O   0  0  0  0  0  0  0  0  0  0  0  0
  -29.9353    2.7076  -23.0030 H   0  0  0  0  0  0  0  0  0  0  0  0
  -32.2011    5.2467  -23.8808 N   0  0  0  0  0  0  0  0  0  0  0  0
  -32.7559    5.0954  -23.0383 H   0  0  0  0  0  0  0  0  0  0  0  0
  -31.5144    6.5201  -23.7349 C   0  0  0  0  0  0  0  0  0  0  0  0
  -31.5309    6.9842  -22.2831 C   0  0  0  0  0  0  0  0  0  0  0  0
  -32.1552    7.5628  -24.5732 C   0  0  0  0  0  0  0  0  0  0  0  0
  -33.3262    7.4630  -24.8979 O   0  0  0  0  0  0  0  0  0  0  0  0
  -31.3587    8.6621  -25.0472 O   0  0  0  0  0  0  0  0  0  0  0  0
  -31.8695    9.5084  -26.0760 C   0  0  0  0  0  0  0  0  0  0  0  0
 19 18  1  0  0  0
 18 17  2  0  0  0
 18 12  1  0  0  0
 17 16  1  0  0  0
 12 13  1  0  0  0
 12 11  2  0  0  0
 16 15  2  0  0  0
 13 14  2  0  0  0
 11 15  1  0  0  0
 11 10  1  0  0  0
 14 10  1  0  0  0
 10  6  1  0  0  0
  6  4  1  0  0  0
  6  7  1  0  0  0
  5  4  1  0  0  0
  4  2  1  0  0  0
  7  1  1  0  0  0
  2  1  1  0  0  0
  2  3  1  0  0  0
  1 22  1  0  0  0
 22 23  1  0  0  0
 34 32  1  0  0  0
 34 35  1  0  0  0
 33 32  2  0  0  0
 23 25  1  0  0  0
 32 30  1  0  0  0
 26 25  2  0  0  0
 28 25  1  0  0  0
 28 30  1  0  0  0
 25 24  1  0  0  0
 30 31  1  0  0  0
 24 27  1  0  0  0
  3  8  1  0  0  0
  5  9  1  0  0  0
 19 20  1  0  0  0
 19 21  1  0  0  0
 28 29  1  0  0  0
M  END
> <minimizedAffinity>
-9.16938

$$$$
5WA9_9ZD_A_201


 35 37  0  0  0  0  0  0  0  0999 V2000
  -29.8093    5.1662  -27.6450 C   0  0  0  0  0  0  0  0  0  0  0  0
  -31.0613    4.9526  -28.5127 C   0  0  0  0  0  0  0  0  0  0  0  0
  -32.0330    5.9947  -28.3053 O   0  0  0  0  0  0  0  0  0  0  0  0
  -30.5037    4.9456  -29.9358 C   0  0  0  0  0  0  0  0  0  0  0  0
  -31.3457    5.5603  -30.9261 O   0  0  0  0  0  0  0  0  0  0  0  0
  -29.1837    5.6811  -29.7686 C   0  0  0  0  0  0  0  0  0  0  0  0
  -28.6892    5.2068  -28.5250 O   0  0  0  0  0  0  0  0  0  0  0  0
  -31.6299    6.8556  -28.4980 H   0  0  0  0  0  0  0  0  0  0  0  0
  -31.5036    6.4868  -30.6863 H   0  0  0  0  0  0  0  0  0  0  0  0
  -28.1772    5.3733  -30.7952 N   0  0  0  0  0  0  0  0  0  0  0  0
  -28.4695    5.2587  -32.0793 C   0  0  0  0  0  0  0  0  0  0  0  0
  -27.1988    4.9803  -32.7384 C   0  0  0  0  0  0  0  0  0  0  0  0
  -26.2592    4.9399  -31.7882 N   0  0  0  0  0  0  0  0  0  0  0  0
  -26.8587    5.2049  -30.6077 C   0  0  0  0  0  0  0  0  0  0  0  0
  -29.6154    5.3296  -32.7864 N   0  0  0  0  0  0  0  0  0  0  0  0
  -29.5556    5.1564  -34.1174 C   0  0  0  0  0  0  0  0  0  0  0  0
  -28.4215    4.8984  -34.7974 N   0  0  0  0  0  0  0  0  0  0  0  0
  -27.2279    4.7865  -34.1899 C   0  0  0  0  0  0  0  0  0  0  0  0
  -26.0924    4.5092  -34.8769 N   0  0  0  0  0  0  0  0  0  0  0  0
  -26.1262    4.3813  -35.8525 H   0  0  0  0  0  0  0  0  0  0  0  0
  -25.2341    4.4358  -34.4003 H   0  0  0  0  0  0  0  0  0  0  0  0
  -29.5656    4.0715  -26.6231 C   0  0  0  0  0  0  0  0  0  0  0  0
  -29.9046    4.6319  -25.3672 O   0  0  0  0  0  0  0  0  0  0  0  0
  -30.3398    3.4434  -23.2600 O   0  0  0  0  0  0  0  0  0  0  0  0
  -31.0503    4.0078  -24.4512 P   0  0  0  0  0  0  0  0  0  0  0  0
  -31.9416    3.0880  -25.2368 O   0  0  0  0  0  0  0  0  0  0  0  0
  -29.8022    2.6840  -23.5341 H   0  0  0  0  0  0  0  0  0  0  0  0
  -32.0231    5.3653  -24.0134 N   0  0  0  0  0  0  0  0  0  0  0  0
  -32.4782    5.1474  -23.1270 H   0  0  0  0  0  0  0  0  0  0  0  0
  -31.3314    6.6344  -23.8547 C   0  0  0  0  0  0  0  0  0  0  0  0
  -31.9555    7.4581  -22.7342 C   0  0  0  0  0  0  0  0  0  0  0  0
  -31.3851    7.4238  -25.1095 C   0  0  0  0  0  0  0  0  0  0  0  0
  -32.3825    7.4050  -25.8107 O   0  0  0  0  0  0  0  0  0  0  0  0
  -30.2215    8.1636  -25.5174 O   0  0  0  0  0  0  0  0  0  0  0  0
  -30.3180    9.0825  -26.6045 C   0  0  0  0  0  0  0  0  0  0  0  0
 19 18  1  0  0  0
 18 17  2  0  0  0
 18 12  1  0  0  0
 17 16  1  0  0  0
 12 13  1  0  0  0
 12 11  2  0  0  0
 16 15  2  0  0  0
 13 14  2  0  0  0
 11 15  1  0  0  0
 11 10  1  0  0  0
 14 10  1  0  0  0
 10  6  1  0  0  0
  6  4  1  0  0  0
  6  7  1  0  0  0
  5  4  1  0  0  0
  4  2  1  0  0  0
  7  1  1  0  0  0
  2  1  1  0  0  0
  2  3  1  0  0  0
  1 22  1  0  0  0
 22 23  1  0  0  0
 34 32  1  0  0  0
 34 35  1  0  0  0
 33 32  2  0  0  0
 23 25  1  0  0  0
 32 30  1  0  0  0
 26 25  2  0  0  0
 28 25  1  0  0  0
 28 30  1  0  0  0
 25 24  1  0  0  0
 30 31  1  0  0  0
 24 27  1  0  0  0
  3  8  1  0  0  0
  5  9  1  0  0  0
 19 20  1  0  0  0
 19 21  1  0  0  0
 28 29  1  0  0  0
M  END
> <minimizedAffinity>
-8.09678

$$$$
5WA9_9ZD_A_201


 35 37  0  0  0  0  0  0  0  0999 V2000
  -31.7600    9.2754  -26.8709 C   0  0  0  0  0  0  0  0  0  0  0  0
  -30.2561    9.1353  -27.1621 C   0  0  0  0  0  0  0  0  0  0  0  0
  -29.5640   10.3854  -26.9848 O   0  0  0  0  0  0  0  0  0  0  0  0
  -29.8046    8.0686  -26.1649 C   0  0  0  0  0  0  0  0  0  0  0  0
  -28.4934    8.2664  -25.6088 O   0  0  0  0  0  0  0  0  0  0  0  0
  -30.8931    8.1358  -25.1057 C   0  0  0  0  0  0  0  0  0  0  0  0
  -32.0825    8.3275  -25.8570 O   0  0  0  0  0  0  0  0  0  0  0  0
  -29.7057   10.7081  -26.0811 H   0  0  0  0  0  0  0  0  0  0  0  0
  -28.4632    9.1191  -25.1474 H   0  0  0  0  0  0  0  0  0  0  0  0
  -31.0571    6.9055  -24.3175 N   0  0  0  0  0  0  0  0  0  0  0  0
  -31.0347    5.6976  -24.8543 C   0  0  0  0  0  0  0  0  0  0  0  0
  -31.2037    4.7777  -23.7355 C   0  0  0  0  0  0  0  0  0  0  0  0
  -31.3253    5.5172  -22.6283 N   0  0  0  0  0  0  0  0  0  0  0  0
  -31.2103    6.8139  -22.9871 C   0  0  0  0  0  0  0  0  0  0  0  0
  -30.9154    5.2384  -26.1164 N   0  0  0  0  0  0  0  0  0  0  0  0
  -30.9367    3.9100  -26.3168 C   0  0  0  0  0  0  0  0  0  0  0  0
  -31.0867    2.9985  -25.3360 N   0  0  0  0  0  0  0  0  0  0  0  0
  -31.2342    3.3468  -24.0464 C   0  0  0  0  0  0  0  0  0  0  0  0
  -31.4025    2.4259  -23.0656 N   0  0  0  0  0  0  0  0  0  0  0  0
  -31.4211    1.4671  -23.2886 H   0  0  0  0  0  0  0  0  0  0  0  0
  -31.5061    2.7159  -22.1306 H   0  0  0  0  0  0  0  0  0  0  0  0
  -32.6536    9.0074  -28.0674 C   0  0  0  0  0  0  0  0  0  0  0  0
  -32.8831    7.6097  -28.0738 O   0  0  0  0  0  0  0  0  0  0  0  0
  -32.5870    7.6727  -30.5132 O   0  0  0  0  0  0  0  0  0  0  0  0
  -32.5886    6.7164  -29.3608 P   0  0  0  0  0  0  0  0  0  0  0  0
  -33.5131    5.5342  -29.4321 O   0  0  0  0  0  0  0  0  0  0  0  0
  -33.4842    8.0150  -30.6505 H   0  0  0  0  0  0  0  0  0  0  0  0
  -31.0099    6.0784  -29.0761 N   0  0  0  0  0  0  0  0  0  0  0  0
  -31.1156    5.1040  -28.7938 H   0  0  0  0  0  0  0  0  0  0  0  0
  -30.0835    6.1158  -30.1963 C   0  0  0  0  0  0  0  0  0  0  0  0
  -30.4988    5.1268  -31.2792 C   0  0  0  0  0  0  0  0  0  0  0  0
  -28.7075    5.7831  -29.7530 C   0  0  0  0  0  0  0  0  0  0  0  0
  -28.5017    5.3845  -28.6192 O   0  0  0  0  0  0  0  0  0  0  0  0
  -27.6128    5.9951  -30.6609 O   0  0  0  0  0  0  0  0  0  0  0  0
  -26.9541    4.8712  -31.2426 C   0  0  0  0  0  0  0  0  0  0  0  0
 19 18  1  0  0  0
 18 17  2  0  0  0
 18 12  1  0  0  0
 17 16  1  0  0  0
 12 13  1  0  0  0
 12 11  2  0  0  0
 16 15  2  0  0  0
 13 14  2  0  0  0
 11 15  1  0  0  0
 11 10  1  0  0  0
 14 10  1  0  0  0
 10  6  1  0  0  0
  6  4  1  0  0  0
  6  7  1  0  0  0
  5  4  1  0  0  0
  4  2  1  0  0  0
  7  1  1  0  0  0
  2  1  1  0  0  0
  2  3  1  0  0  0
  1 22  1  0  0  0
 22 23  1  0  0  0
 34 32  1  0  0  0
 34 35  1  0  0  0
 33 32  2  0  0  0
 23 25  1  0  0  0
 32 30  1  0  0  0
 26 25  2  0  0  0
 28 25  1  0  0  0
 28 30  1  0  0  0
 25 24  1  0  0  0
 30 31  1  0  0  0
 24 27  1  0  0  0
  3  8  1  0  0  0
  5  9  1  0  0  0
 19 20  1  0  0  0
 19 21  1  0  0  0
 28 29  1  0  0  0
M  END
> <minimizedAffinity>
-7.65554

$$$$
5WA9_9ZD_A_201


 35 37  0  0  0  0  0  0  0  0999 V2000
  -30.6038    5.3894  -29.3902 C   0  0  0  0  0  0  0  0  0  0  0  0
  -29.2603    6.0512  -29.0398 C   0  0  0  0  0  0  0  0  0  0  0  0
  -28.5716    5.3323  -27.9995 O   0  0  0  0  0  0  0  0  0  0  0  0
  -28.5029    6.0302  -30.3672 C   0  0  0  0  0  0  0  0  0  0  0  0
  -27.0883    5.7951  -30.2613 O   0  0  0  0  0  0  0  0  0  0  0  0
  -29.2135    4.9211  -31.1263 C   0  0  0  0  0  0  0  0  0  0  0  0
  -30.5800    5.1020  -30.7857 O   0  0  0  0  0  0  0  0  0  0  0  0
  -28.4343    4.4133  -28.2780 H   0  0  0  0  0  0  0  0  0  0  0  0
  -26.9341    4.9394  -29.8314 H   0  0  0  0  0  0  0  0  0  0  0  0
  -29.1029    5.0127  -32.5896 N   0  0  0  0  0  0  0  0  0  0  0  0
  -27.9630    4.8455  -33.2379 C   0  0  0  0  0  0  0  0  0  0  0  0
  -28.2999    4.9903  -34.6493 C   0  0  0  0  0  0  0  0  0  0  0  0
  -29.6105    5.2444  -34.7206 N   0  0  0  0  0  0  0  0  0  0  0  0
  -30.0993    5.2323  -33.4620 C   0  0  0  0  0  0  0  0  0  0  0  0
  -26.6932    4.6114  -32.8494 N   0  0  0  0  0  0  0  0  0  0  0  0
  -25.7474    4.4954  -33.7966 C   0  0  0  0  0  0  0  0  0  0  0  0
  -25.9804    4.6142  -35.1182 N   0  0  0  0  0  0  0  0  0  0  0  0
  -27.2040    4.8675  -35.6131 C   0  0  0  0  0  0  0  0  0  0  0  0
  -27.4296    5.0036  -36.9432 N   0  0  0  0  0  0  0  0  0  0  0  0
  -26.6839    4.9187  -37.5802 H   0  0  0  0  0  0  0  0  0  0  0  0
  -28.3393    5.1875  -37.2718 H   0  0  0  0  0  0  0  0  0  0  0  0
  -31.8170    6.2559  -29.1087 C   0  0  0  0  0  0  0  0  0  0  0  0
  -31.8227    6.4710  -27.7087 O   0  0  0  0  0  0  0  0  0  0  0  0
  -33.6210    7.9791  -26.9780 O   0  0  0  0  0  0  0  0  0  0  0  0
  -32.1290    7.9038  -27.0807 P   0  0  0  0  0  0  0  0  0  0  0  0
  -31.4220    8.9957  -27.8329 O   0  0  0  0  0  0  0  0  0  0  0  0
  -34.0051    8.0126  -27.8681 H   0  0  0  0  0  0  0  0  0  0  0  0
  -31.3974    7.8420  -25.5182 N   0  0  0  0  0  0  0  0  0  0  0  0
  -31.1548    8.7961  -25.2516 H   0  0  0  0  0  0  0  0  0  0  0  0
  -32.2015    7.2749  -24.4477 C   0  0  0  0  0  0  0  0  0  0  0  0
  -32.4647    8.3083  -23.3586 C   0  0  0  0  0  0  0  0  0  0  0  0
  -31.5187    6.1074  -23.8381 C   0  0  0  0  0  0  0  0  0  0  0  0
  -30.8401    6.2417  -22.8341 O   0  0  0  0  0  0  0  0  0  0  0  0
  -31.6199    4.8263  -24.4833 O   0  0  0  0  0  0  0  0  0  0  0  0
  -30.4994    4.3092  -25.1992 C   0  0  0  0  0  0  0  0  0  0  0  0
 19 18  1  0  0  0
 18 17  2  0  0  0
 18 12  1  0  0  0
 17 16  1  0  0  0
 12 13  1  0  0  0
 12 11  2  0  0  0
 16 15  2  0  0  0
 13 14  2  0  0  0
 11 15  1  0  0  0
 11 10  1  0  0  0
 14 10  1  0  0  0
 10  6  1  0  0  0
  6  4  1  0  0  0
  6  7  1  0  0  0
  5  4  1  0  0  0
  4  2  1  0  0  0
  7  1  1  0  0  0
  2  1  1  0  0  0
  2  3  1  0  0  0
  1 22  1  0  0  0
 22 23  1  0  0  0
 34 32  1  0  0  0
 34 35  1  0  0  0
 33 32  2  0  0  0
 23 25  1  0  0  0
 32 30  1  0  0  0
 26 25  2  0  0  0
 28 25  1  0  0  0
 28 30  1  0  0  0
 25 24  1  0  0  0
 30 31  1  0  0  0
 24 27  1  0  0  0
  3  8  1  0  0  0
  5  9  1  0  0  0
 19 20  1  0  0  0
 19 21  1  0  0  0
 28 29  1  0  0  0
M  END
> <minimizedAffinity>
-7.35909

$$$$
5WA9_9ZD_A_201


 35 37  0  0  0  0  0  0  0  0999 V2000
  -29.5642    5.5542  -27.4505 C   0  0  0  0  0  0  0  0  0  0  0  0
  -30.0414    6.8848  -26.8441 C   0  0  0  0  0  0  0  0  0  0  0  0
  -28.9420    7.7853  -26.6125 O   0  0  0  0  0  0  0  0  0  0  0  0
  -31.0225    7.4141  -27.8898 C   0  0  0  0  0  0  0  0  0  0  0  0
  -31.0122    8.8403  -28.0723 O   0  0  0  0  0  0  0  0  0  0  0  0
  -30.5886    6.6721  -29.1438 C   0  0  0  0  0  0  0  0  0  0  0  0
  -30.2736    5.3703  -28.6726 O   0  0  0  0  0  0  0  0  0  0  0  0
  -28.4714    7.9422  -27.4460 H   0  0  0  0  0  0  0  0  0  0  0  0
  -30.1255    9.1252  -28.3433 H   0  0  0  0  0  0  0  0  0  0  0  0
  -31.6356    6.5347  -30.1669 N   0  0  0  0  0  0  0  0  0  0  0  0
  -32.0086    7.5289  -30.9542 C   0  0  0  0  0  0  0  0  0  0  0  0
  -33.0346    6.9652  -31.8237 C   0  0  0  0  0  0  0  0  0  0  0  0
  -33.1946    5.6856  -31.4712 N   0  0  0  0  0  0  0  0  0  0  0  0
  -32.3206    5.4224  -30.4761 C   0  0  0  0  0  0  0  0  0  0  0  0
  -31.6504    8.8249  -31.0556 N   0  0  0  0  0  0  0  0  0  0  0  0
  -32.2487    9.5809  -31.9914 C   0  0  0  0  0  0  0  0  0  0  0  0
  -33.2018    9.1326  -32.8315 N   0  0  0  0  0  0  0  0  0  0  0  0
  -33.6477    7.8651  -32.8032 C   0  0  0  0  0  0  0  0  0  0  0  0
  -34.6197    7.4240  -33.6393 N   0  0  0  0  0  0  0  0  0  0  0  0
  -35.0233    8.0395  -34.2931 H   0  0  0  0  0  0  0  0  0  0  0  0
  -34.9217    6.4881  -33.5926 H   0  0  0  0  0  0  0  0  0  0  0  0
  -29.8176    4.3432  -26.5723 C   0  0  0  0  0  0  0  0  0  0  0  0
  -30.1194    4.8541  -25.2861 O   0  0  0  0  0  0  0  0  0  0  0  0
  -30.3369    3.7169  -23.1177 O   0  0  0  0  0  0  0  0  0  0  0  0
  -31.1459    4.1211  -24.3113 P   0  0  0  0  0  0  0  0  0  0  0  0
  -31.9176    3.0510  -25.0303 O   0  0  0  0  0  0  0  0  0  0  0  0
  -29.7048    3.0272  -23.3741 H   0  0  0  0  0  0  0  0  0  0  0  0
  -32.2884    5.3499  -23.9048 N   0  0  0  0  0  0  0  0  0  0  0  0
  -32.7429    5.0747  -23.0341 H   0  0  0  0  0  0  0  0  0  0  0  0
  -31.7597    6.6921  -23.7221 C   0  0  0  0  0  0  0  0  0  0  0  0
  -31.4956    6.9772  -22.2483 C   0  0  0  0  0  0  0  0  0  0  0  0
  -32.7104    7.7072  -24.2382 C   0  0  0  0  0  0  0  0  0  0  0  0
  -33.2941    7.5288  -25.2938 O   0  0  0  0  0  0  0  0  0  0  0  0
  -32.8878    8.9316  -23.5055 O   0  0  0  0  0  0  0  0  0  0  0  0
  -34.1838    9.5231  -23.4278 C   0  0  0  0  0  0  0  0  0  0  0  0
 19 18  1  0  0  0
 18 17  2  0  0  0
 18 12  1  0  0  0
 17 16  1  0  0  0
 12 13  1  0  0  0
 12 11  2  0  0  0
 16 15  2  0  0  0
 13 14  2  0  0  0
 11 15  1  0  0  0
 11 10  1  0  0  0
 14 10  1  0  0  0
 10  6  1  0  0  0
  6  4  1  0  0  0
  6  7  1  0  0  0
  5  4  1  0  0  0
  4  2  1  0  0  0
  7  1  1  0  0  0
  2  1  1  0  0  0
  2  3  1  0  0  0
  1 22  1  0  0  0
 22 23  1  0  0  0
 34 32  1  0  0  0
 34 35  1  0  0  0
 33 32  2  0  0  0
 23 25  1  0  0  0
 32 30  1  0  0  0
 26 25  2  0  0  0
 28 25  1  0  0  0
 28 30  1  0  0  0
 25 24  1  0  0  0
 30 31  1  0  0  0
 24 27  1  0  0  0
  3  8  1  0  0  0
  5  9  1  0  0  0
 19 20  1  0  0  0
 19 21  1  0  0  0
 28 29  1  0  0  0
M  END
> <minimizedAffinity>
-7.20631

$$$$
5WA9_9ZD_A_201


 35 37  0  0  0  0  0  0  0  0999 V2000
  -32.0777    8.4351  -26.0398 C   0  0  0  0  0  0  0  0  0  0  0  0
  -31.4876    7.4276  -25.0385 C   0  0  0  0  0  0  0  0  0  0  0  0
  -30.1849    7.8368  -24.5815 O   0  0  0  0  0  0  0  0  0  0  0  0
  -32.5227    7.4043  -23.9142 C   0  0  0  0  0  0  0  0  0  0  0  0
  -31.9833    7.2692  -22.5882 O   0  0  0  0  0  0  0  0  0  0  0  0
  -33.2405    8.7302  -24.1092 C   0  0  0  0  0  0  0  0  0  0  0  0
  -33.3357    8.8572  -25.5202 O   0  0  0  0  0  0  0  0  0  0  0  0
  -30.2450    8.7178  -24.1802 H   0  0  0  0  0  0  0  0  0  0  0  0
  -31.3820    8.0084  -22.4069 H   0  0  0  0  0  0  0  0  0  0  0  0
  -34.6056    8.7732  -23.5647 N   0  0  0  0  0  0  0  0  0  0  0  0
  -34.8683    9.0551  -22.3001 C   0  0  0  0  0  0  0  0  0  0  0  0
  -36.3221    9.0175  -22.1931 C   0  0  0  0  0  0  0  0  0  0  0  0
  -36.8012    8.7035  -23.4010 N   0  0  0  0  0  0  0  0  0  0  0  0
  -35.7499    8.5800  -24.2393 C   0  0  0  0  0  0  0  0  0  0  0  0
  -34.1012    9.3192  -21.2232 N   0  0  0  0  0  0  0  0  0  0  0  0
  -34.7100    9.5665  -20.0513 C   0  0  0  0  0  0  0  0  0  0  0  0
  -36.0455    9.5522  -19.8738 N   0  0  0  0  0  0  0  0  0  0  0  0
  -36.9013    9.2807  -20.8738 C   0  0  0  0  0  0  0  0  0  0  0  0
  -38.2437    9.2503  -20.6856 N   0  0  0  0  0  0  0  0  0  0  0  0
  -38.6199    9.4291  -19.7935 H   0  0  0  0  0  0  0  0  0  0  0  0
  -38.8423    9.0495  -21.4410 H   0  0  0  0  0  0  0  0  0  0  0  0
  -32.3077    7.8705  -27.4291 C   0  0  0  0  0  0  0  0  0  0  0  0
  -31.1981    7.0310  -27.6944 O   0  0  0  0  0  0  0  0  0  0  0  0
  -30.2031    6.0597  -29.7214 O   0  0  0  0  0  0  0  0  0  0  0  0
  -31.2914    5.8160  -28.7222 P   0  0  0  0  0  0  0  0  0  0  0  0
  -32.6913    5.6401  -29.2390 O   0  0  0  0  0  0  0  0  0  0  0  0
  -30.4178    6.8454  -30.2482 H   0  0  0  0  0  0  0  0  0  0  0  0
  -30.9542    4.4243  -27.7578 N   0  0  0  0  0  0  0  0  0  0  0  0
  -30.3765    3.7942  -28.3143 H   0  0  0  0  0  0  0  0  0  0  0  0
  -30.2656    4.6591  -26.4988 C   0  0  0  0  0  0  0  0  0  0  0  0
  -28.7760    4.3641  -26.6299 C   0  0  0  0  0  0  0  0  0  0  0  0
  -30.8257    3.8027  -25.4248 C   0  0  0  0  0  0  0  0  0  0  0  0
  -31.4047    2.7652  -25.6987 O   0  0  0  0  0  0  0  0  0  0  0  0
  -30.7285    4.2444  -24.0598 O   0  0  0  0  0  0  0  0  0  0  0  0
  -31.1449    3.3749  -23.0081 C   0  0  0  0  0  0  0  0  0  0  0  0
 19 18  1  0  0  0
 18 17  2  0  0  0
 18 12  1  0  0  0
 17 16  1  0  0  0
 12 13  1  0  0  0
 12 11  2  0  0  0
 16 15  2  0  0  0
 13 14  2  0  0  0
 11 15  1  0  0  0
 11 10  1  0  0  0
 14 10  1  0  0  0
 10  6  1  0  0  0
  6  4  1  0  0  0
  6  7  1  0  0  0
  5  4  1  0  0  0
  4  2  1  0  0  0
  7  1  1  0  0  0
  2  1  1  0  0  0
  2  3  1  0  0  0
  1 22  1  0  0  0
 22 23  1  0  0  0
 34 32  1  0  0  0
 34 35  1  0  0  0
 33 32  2  0  0  0
 23 25  1  0  0  0
 32 30  1  0  0  0
 26 25  2  0  0  0
 28 25  1  0  0  0
 28 30  1  0  0  0
 25 24  1  0  0  0
 30 31  1  0  0  0
 24 27  1  0  0  0
  3  8  1  0  0  0
  5  9  1  0  0  0
 19 20  1  0  0  0
 19 21  1  0  0  0
 28 29  1  0  0  0
M  END
> <minimizedAffinity>
-6.88612

$$$$
5WA9_9ZD_A_201


 35 37  0  0  0  0  0  0  0  0999 V2000
  -32.1214    7.3240  -28.8020 C   0  0  0  0  0  0  0  0  0  0  0  0
  -31.3272    8.6320  -28.9590 C   0  0  0  0  0  0  0  0  0  0  0  0
  -31.6509    9.3030  -30.1911 O   0  0  0  0  0  0  0  0  0  0  0  0
  -31.7354    9.4392  -27.7270 C   0  0  0  0  0  0  0  0  0  0  0  0
  -31.8656   10.8555  -27.9387 O   0  0  0  0  0  0  0  0  0  0  0  0
  -33.0563    8.7930  -27.3411 C   0  0  0  0  0  0  0  0  0  0  0  0
  -32.8341    7.4096  -27.5710 O   0  0  0  0  0  0  0  0  0  0  0  0
  -32.6042    9.4794  -30.2224 H   0  0  0  0  0  0  0  0  0  0  0  0
  -32.5343   11.0201  -28.6218 H   0  0  0  0  0  0  0  0  0  0  0  0
  -33.4276    8.9560  -25.9278 N   0  0  0  0  0  0  0  0  0  0  0  0
  -34.0526   10.0253  -25.4657 C   0  0  0  0  0  0  0  0  0  0  0  0
  -34.2495    9.7697  -24.0436 C   0  0  0  0  0  0  0  0  0  0  0  0
  -33.7130    8.5745  -23.7770 N   0  0  0  0  0  0  0  0  0  0  0  0
  -33.2350    8.0723  -24.9358 C   0  0  0  0  0  0  0  0  0  0  0  0
  -34.4677   11.1795  -26.0258 N   0  0  0  0  0  0  0  0  0  0  0  0
  -35.0852   12.0817  -25.2450 C   0  0  0  0  0  0  0  0  0  0  0  0
  -35.3053   11.9174  -23.9260 N   0  0  0  0  0  0  0  0  0  0  0  0
  -34.9151   10.8152  -23.2633 C   0  0  0  0  0  0  0  0  0  0  0  0
  -35.1235   10.6627  -21.9322 N   0  0  0  0  0  0  0  0  0  0  0  0
  -35.5722   11.3734  -21.4196 H   0  0  0  0  0  0  0  0  0  0  0  0
  -34.8260    9.8413  -21.4784 H   0  0  0  0  0  0  0  0  0  0  0  0
  -31.2618    6.0745  -28.7623 C   0  0  0  0  0  0  0  0  0  0  0  0
  -31.1901    5.6970  -27.3990 O   0  0  0  0  0  0  0  0  0  0  0  0
  -29.9116    7.1982  -25.9314 O   0  0  0  0  0  0  0  0  0  0  0  0
  -29.8435    5.8398  -26.5579 P   0  0  0  0  0  0  0  0  0  0  0  0
  -28.6375    5.5122  -27.3921 O   0  0  0  0  0  0  0  0  0  0  0  0
  -29.8444    7.8764  -26.6216 H   0  0  0  0  0  0  0  0  0  0  0  0
  -29.9592    4.5957  -25.3666 N   0  0  0  0  0  0  0  0  0  0  0  0
  -29.1517    4.6816  -24.7493 H   0  0  0  0  0  0  0  0  0  0  0  0
  -31.1528    4.6020  -24.5362 C   0  0  0  0  0  0  0  0  0  0  0  0
  -31.0539    5.6656  -23.4489 C   0  0  0  0  0  0  0  0  0  0  0  0
  -31.3519    3.2813  -23.8905 C   0  0  0  0  0  0  0  0  0  0  0  0
  -31.8997    2.3738  -24.4930 O   0  0  0  0  0  0  0  0  0  0  0  0
  -30.9437    3.1060  -22.5229 O   0  0  0  0  0  0  0  0  0  0  0  0
  -30.8286    1.7888  -21.9868 C   0  0  0  0  0  0  0  0  0  0  0  0
 19 18  1  0  0  0
 18 17  2  0  0  0
 18 12  1  0  0  0
 17 16  1  0  0  0
 12 13  1  0  0  0
 12 11  2  0  0  0
 16 15  2  0  0  0
 13 14  2  0  0  0
 11 15  1  0  0  0
 11 10  1  0  0  0
 14 10  1  0  0  0
 10  6  1  0  0  0
  6  4  1  0  0  0
  6  7  1  0  0  0
  5  4  1  0  0  0
  4  2  1  0  0  0
  7  1  1  0  0  0
  2  1  1  0  0  0
  2  3  1  0  0  0
  1 22  1  0  0  0
 22 23  1  0  0  0
 34 32  1  0  0  0
 34 35  1  0  0  0
 33 32  2  0  0  0
 23 25  1  0  0  0
 32 30  1  0  0  0
 26 25  2  0  0  0
 28 25  1  0  0  0
 28 30  1  0  0  0
 25 24  1  0  0  0
 30 31  1  0  0  0
 24 27  1  0  0  0
  3  8  1  0  0  0
  5  9  1  0  0  0
 19 20  1  0  0  0
 19 21  1  0  0  0
 28 29  1  0  0  0
M  END
> <minimizedAffinity>
-6.79010

$$$$
5WA9_9ZD_A_201


 35 37  0  0  0  0  0  0  0  0999 V2000
  -30.2575    5.2630  -27.2470 C   0  0  0  0  0  0  0  0  0  0  0  0
  -30.3089    3.9943  -26.3789 C   0  0  0  0  0  0  0  0  0  0  0  0
  -29.0125    3.3780  -26.2652 O   0  0  0  0  0  0  0  0  0  0  0  0
  -30.8332    4.5085  -25.0384 C   0  0  0  0  0  0  0  0  0  0  0  0
  -30.2691    3.8757  -23.8770 O   0  0  0  0  0  0  0  0  0  0  0  0
  -30.4948    5.9891  -25.1063 C   0  0  0  0  0  0  0  0  0  0  0  0
  -30.7651    6.3346  -26.4567 O   0  0  0  0  0  0  0  0  0  0  0  0
  -28.3824    4.0162  -25.8957 H   0  0  0  0  0  0  0  0  0  0  0  0
  -29.3074    4.0026  -23.8747 H   0  0  0  0  0  0  0  0  0  0  0  0
  -31.3281    6.8472  -24.2513 N   0  0  0  0  0  0  0  0  0  0  0  0
  -32.3149    7.5912  -24.7206 C   0  0  0  0  0  0  0  0  0  0  0  0
  -32.8867    8.2508  -23.5525 C   0  0  0  0  0  0  0  0  0  0  0  0
  -32.1829    7.8531  -22.4877 N   0  0  0  0  0  0  0  0  0  0  0  0
  -31.2490    6.9777  -22.9176 C   0  0  0  0  0  0  0  0  0  0  0  0
  -32.8034    7.8238  -25.9557 N   0  0  0  0  0  0  0  0  0  0  0  0
  -33.8438    8.6644  -26.0824 C   0  0  0  0  0  0  0  0  0  0  0  0
  -34.4266    9.3088  -25.0527 N   0  0  0  0  0  0  0  0  0  0  0  0
  -34.0068    9.1656  -23.7841 C   0  0  0  0  0  0  0  0  0  0  0  0
  -34.5858    9.8302  -22.7537 N   0  0  0  0  0  0  0  0  0  0  0  0
  -35.3380   10.4422  -22.9234 H   0  0  0  0  0  0  0  0  0  0  0  0
  -34.2539    9.7007  -21.8359 H   0  0  0  0  0  0  0  0  0  0  0  0
  -31.0836    5.1824  -28.5171 C   0  0  0  0  0  0  0  0  0  0  0  0
  -30.2220    4.6479  -29.5061 O   0  0  0  0  0  0  0  0  0  0  0  0
  -28.8164    6.6157  -29.9470 O   0  0  0  0  0  0  0  0  0  0  0  0
  -29.6009    5.5572  -30.6588 P   0  0  0  0  0  0  0  0  0  0  0  0
  -30.6532    6.0016  -31.6349 O   0  0  0  0  0  0  0  0  0  0  0  0
  -29.4239    7.2027  -29.4701 H   0  0  0  0  0  0  0  0  0  0  0  0
  -28.5611    4.4848  -31.5244 N   0  0  0  0  0  0  0  0  0  0  0  0
  -29.0206    3.5752  -31.5676 H   0  0  0  0  0  0  0  0  0  0  0  0
  -28.2175    4.8711  -32.8835 C   0  0  0  0  0  0  0  0  0  0  0  0
  -28.7060    3.8310  -33.8850 C   0  0  0  0  0  0  0  0  0  0  0  0
  -26.7492    5.0201  -33.0332 C   0  0  0  0  0  0  0  0  0  0  0  0
  -26.0409    5.1879  -32.0550 O   0  0  0  0  0  0  0  0  0  0  0  0
  -26.1805    5.0243  -34.3539 O   0  0  0  0  0  0  0  0  0  0  0  0
  -24.8886    4.4568  -34.5649 C   0  0  0  0  0  0  0  0  0  0  0  0
 19 18  1  0  0  0
 18 17  2  0  0  0
 18 12  1  0  0  0
 17 16  1  0  0  0
 12 13  1  0  0  0
 12 11  2  0  0  0
 16 15  2  0  0  0
 13 14  2  0  0  0
 11 15  1  0  0  0
 11 10  1  0  0  0
 14 10  1  0  0  0
 10  6  1  0  0  0
  6  4  1  0  0  0
  6  7  1  0  0  0
  5  4  1  0  0  0
  4  2  1  0  0  0
  7  1  1  0  0  0
  2  1  1  0  0  0
  2  3  1  0  0  0
  1 22  1  0  0  0
 22 23  1  0  0  0
 34 32  1  0  0  0
 34 35  1  0  0  0
 33 32  2  0  0  0
 23 25  1  0  0  0
 32 30  1  0  0  0
 26 25  2  0  0  0
 28 25  1  0  0  0
 28 30  1  0  0  0
 25 24  1  0  0  0
 30 31  1  0  0  0
 24 27  1  0  0  0
  3  8  1  0  0  0
  5  9  1  0  0  0
 19 20  1  0  0  0
 19 21  1  0  0  0
 28 29  1  0  0  0
M  END
> <minimizedAffinity>
-6.68056

$$$$
5WA9_9ZD_A_201


 35 37  0  0  0  0  0  0  0  0999 V2000
  -29.9707    8.7514  -27.4826 C   0  0  0  0  0  0  0  0  0  0  0  0
  -31.0233    8.3917  -28.5449 C   0  0  0  0  0  0  0  0  0  0  0  0
  -30.5224    8.6012  -29.8785 O   0  0  0  0  0  0  0  0  0  0  0  0
  -31.3239    6.9212  -28.2558 C   0  0  0  0  0  0  0  0  0  0  0  0
  -31.5684    6.1070  -29.4155 O   0  0  0  0  0  0  0  0  0  0  0  0
  -30.0820    6.4813  -27.4973 C   0  0  0  0  0  0  0  0  0  0  0  0
  -29.7797    7.5957  -26.6711 O   0  0  0  0  0  0  0  0  0  0  0  0
  -29.7172    8.0759  -30.0077 H   0  0  0  0  0  0  0  0  0  0  0  0
  -30.7921    6.1304  -29.9965 H   0  0  0  0  0  0  0  0  0  0  0  0
  -30.2803    5.3174  -26.6210 N   0  0  0  0  0  0  0  0  0  0  0  0
  -30.6324    5.4232  -25.3512 C   0  0  0  0  0  0  0  0  0  0  0  0
  -30.7436    4.0517  -24.8686 C   0  0  0  0  0  0  0  0  0  0  0  0
  -30.4353    3.2453  -25.8894 N   0  0  0  0  0  0  0  0  0  0  0  0
  -30.1776    4.0233  -26.9626 C   0  0  0  0  0  0  0  0  0  0  0  0
  -30.8577    6.4674  -24.5283 N   0  0  0  0  0  0  0  0  0  0  0  0
  -31.2065    6.2133  -23.2559 C   0  0  0  0  0  0  0  0  0  0  0  0
  -31.3316    4.9760  -22.7376 N   0  0  0  0  0  0  0  0  0  0  0  0
  -31.1106    3.8663  -23.4628 C   0  0  0  0  0  0  0  0  0  0  0  0
  -31.2208    2.6239  -22.9313 N   0  0  0  0  0  0  0  0  0  0  0  0
  -31.4683    2.5135  -21.9848 H   0  0  0  0  0  0  0  0  0  0  0  0
  -31.0533    1.8320  -23.4919 H   0  0  0  0  0  0  0  0  0  0  0  0
  -30.3679    9.9020  -26.5769 C   0  0  0  0  0  0  0  0  0  0  0  0
  -31.6744    9.6016  -26.1196 O   0  0  0  0  0  0  0  0  0  0  0  0
  -33.7486   10.3096  -27.2326 O   0  0  0  0  0  0  0  0  0  0  0  0
  -32.8335   10.6959  -26.1119 P   0  0  0  0  0  0  0  0  0  0  0  0
  -32.2728   12.0899  -26.1135 O   0  0  0  0  0  0  0  0  0  0  0  0
  -33.2941   10.4376  -28.0799 H   0  0  0  0  0  0  0  0  0  0  0  0
  -33.5991   10.4850  -24.5790 N   0  0  0  0  0  0  0  0  0  0  0  0
  -34.5871   10.7122  -24.6921 H   0  0  0  0  0  0  0  0  0  0  0  0
  -33.5156    9.1584  -23.9895 C   0  0  0  0  0  0  0  0  0  0  0  0
  -34.4864    8.1991  -24.6680 C   0  0  0  0  0  0  0  0  0  0  0  0
  -33.8305    9.2054  -22.5406 C   0  0  0  0  0  0  0  0  0  0  0  0
  -33.1602    8.5751  -21.7405 O   0  0  0  0  0  0  0  0  0  0  0  0
  -34.9746    9.9570  -22.1005 O   0  0  0  0  0  0  0  0  0  0  0  0
  -36.0464    9.2846  -21.4412 C   0  0  0  0  0  0  0  0  0  0  0  0
 19 18  1  0  0  0
 18 17  2  0  0  0
 18 12  1  0  0  0
 17 16  1  0  0  0
 12 13  1  0  0  0
 12 11  2  0  0  0
 16 15  2  0  0  0
 13 14  2  0  0  0
 11 15  1  0  0  0
 11 10  1  0  0  0
 14 10  1  0  0  0
 10  6  1  0  0  0
  6  4  1  0  0  0
  6  7  1  0  0  0
  5  4  1  0  0  0
  4  2  1  0  0  0
  7  1  1  0  0  0
  2  1  1  0  0  0
  2  3  1  0  0  0
  1 22  1  0  0  0
 22 23  1  0  0  0
 34 32  1  0  0  0
 34 35  1  0  0  0
 33 32  2  0  0  0
 23 25  1  0  0  0
 32 30  1  0  0  0
 26 25  2  0  0  0
 28 25  1  0  0  0
 28 30  1  0  0  0
 25 24  1  0  0  0
 30 31  1  0  0  0
 24 27  1  0  0  0
  3  8  1  0  0  0
  5  9  1  0  0  0
 19 20  1  0  0  0
 19 21  1  0  0  0
 28 29  1  0  0  0
M  END
> <minimizedAffinity>
-6.65097

$$$$
5WA9_9ZD_A_201


 35 37  0  0  0  0  0  0  0  0999 V2000
  -30.1980    6.2800  -29.1996 C   0  0  0  0  0  0  0  0  0  0  0  0
  -31.5934    5.7776  -29.6077 C   0  0  0  0  0  0  0  0  0  0  0  0
  -32.5623    6.8427  -29.6006 O   0  0  0  0  0  0  0  0  0  0  0  0
  -31.3637    5.2033  -31.0053 C   0  0  0  0  0  0  0  0  0  0  0  0
  -32.4417    5.4054  -31.9350 O   0  0  0  0  0  0  0  0  0  0  0  0
  -30.0908    5.9119  -31.4399 C   0  0  0  0  0  0  0  0  0  0  0  0
  -29.3044    5.9464  -30.2583 O   0  0  0  0  0  0  0  0  0  0  0  0
  -32.2693    7.5503  -30.1960 H   0  0  0  0  0  0  0  0  0  0  0  0
  -32.6038    6.3560  -32.0405 H   0  0  0  0  0  0  0  0  0  0  0  0
  -29.3169    5.2032  -32.4699 N   0  0  0  0  0  0  0  0  0  0  0  0
  -29.6311    5.2309  -33.7536 C   0  0  0  0  0  0  0  0  0  0  0  0
  -28.6060    4.4333  -34.4165 C   0  0  0  0  0  0  0  0  0  0  0  0
  -27.7751    3.9875  -33.4688 N   0  0  0  0  0  0  0  0  0  0  0  0
  -28.2003    4.4812  -32.2860 C   0  0  0  0  0  0  0  0  0  0  0  0
  -30.6346    5.7925  -34.4578 N   0  0  0  0  0  0  0  0  0  0  0  0
  -30.6567    5.6154  -35.7894 C   0  0  0  0  0  0  0  0  0  0  0  0
  -29.7459    4.8953  -36.4729 N   0  0  0  0  0  0  0  0  0  0  0  0
  -28.7173    4.2766  -35.8685 C   0  0  0  0  0  0  0  0  0  0  0  0
  -27.8135    3.5385  -36.5591 N   0  0  0  0  0  0  0  0  0  0  0  0
  -27.9001    3.4414  -37.5350 H   0  0  0  0  0  0  0  0  0  0  0  0
  -27.0708    3.0998  -36.0847 H   0  0  0  0  0  0  0  0  0  0  0  0
  -29.6636    5.6634  -27.9205 C   0  0  0  0  0  0  0  0  0  0  0  0
  -29.3183    6.7509  -27.0813 O   0  0  0  0  0  0  0  0  0  0  0  0
  -31.7055    7.1816  -26.6835 O   0  0  0  0  0  0  0  0  0  0  0  0
  -30.3613    7.3835  -26.0550 P   0  0  0  0  0  0  0  0  0  0  0  0
  -29.9714    8.7819  -25.6676 O   0  0  0  0  0  0  0  0  0  0  0  0
  -31.7767    7.7326  -27.4786 H   0  0  0  0  0  0  0  0  0  0  0  0
  -30.1858    6.4215  -24.6323 N   0  0  0  0  0  0  0  0  0  0  0  0
  -29.5633    6.9196  -23.9961 H   0  0  0  0  0  0  0  0  0  0  0  0
  -31.4059    6.1117  -23.9044 C   0  0  0  0  0  0  0  0  0  0  0  0
  -31.4663    6.8821  -22.5905 C   0  0  0  0  0  0  0  0  0  0  0  0
  -31.4876    4.6606  -23.6071 C   0  0  0  0  0  0  0  0  0  0  0  0
  -31.1390    4.2305  -22.5208 O   0  0  0  0  0  0  0  0  0  0  0  0
  -31.9270    3.7617  -24.6398 O   0  0  0  0  0  0  0  0  0  0  0  0
  -30.9886    3.2845  -25.6027 C   0  0  0  0  0  0  0  0  0  0  0  0
 19 18  1  0  0  0
 18 17  2  0  0  0
 18 12  1  0  0  0
 17 16  1  0  0  0
 12 13  1  0  0  0
 12 11  2  0  0  0
 16 15  2  0  0  0
 13 14  2  0  0  0
 11 15  1  0  0  0
 11 10  1  0  0  0
 14 10  1  0  0  0
 10  6  1  0  0  0
  6  4  1  0  0  0
  6  7  1  0  0  0
  5  4  1  0  0  0
  4  2  1  0  0  0
  7  1  1  0  0  0
  2  1  1  0  0  0
  2  3  1  0  0  0
  1 22  1  0  0  0
 22 23  1  0  0  0
 34 32  1  0  0  0
 34 35  1  0  0  0
 33 32  2  0  0  0
 23 25  1  0  0  0
 32 30  1  0  0  0
 26 25  2  0  0  0
 28 25  1  0  0  0
 28 30  1  0  0  0
 25 24  1  0  0  0
 30 31  1  0  0  0
 24 27  1  0  0  0
  3  8  1  0  0  0
  5  9  1  0  0  0
 19 20  1  0  0  0
 19 21  1  0  0  0
 28 29  1  0  0  0
M  END
> <minimizedAffinity>
-6.64193

$$$$
