2F2H_XTG_A_3015


 36 38  0  0  0  0  0  0  0  0999 V2000
  143.7773   62.7322  132.3478 C   0  0  0  0  0  0  0  0  0  0  0  0
  144.3930   62.2842  133.5666 O   0  0  0  0  0  0  0  0  0  0  0  0
  143.4493   64.2230  132.5626 C   0  0  0  0  0  0  0  0  0  0  0  0
  142.8435   64.7101  131.3991 O   0  0  0  0  0  0  0  0  0  0  0  0
  144.7174   65.0072  132.8597 C   0  0  0  0  0  0  0  0  0  0  0  0
  144.4435   66.3430  133.1177 O   0  0  0  0  0  0  0  0  0  0  0  0
  145.3812   64.3201  134.0131 C   0  0  0  0  0  0  0  0  0  0  0  0
  146.6186   64.8909  134.3150 O   0  0  0  0  0  0  0  0  0  0  0  0
  145.6457   62.9150  133.5455 C   0  0  0  0  0  0  0  0  0  0  0  0
  143.4506   64.6046  130.6500 H   0  0  0  0  0  0  0  0  0  0  0  0
  143.8487   66.4096  133.8810 H   0  0  0  0  0  0  0  0  0  0  0  0
  147.1966   64.8395  133.5377 H   0  0  0  0  0  0  0  0  0  0  0  0
  142.5835   61.9932  131.8876 O   0  0  0  0  0  0  0  0  0  0  0  0
  143.5952   59.9454  131.3439 C   0  0  0  0  0  0  0  0  0  0  0  0
  143.6539   58.5592  131.3799 C   0  0  0  0  0  0  0  0  0  0  0  0
  142.6964   57.8345  132.0873 C   0  0  0  0  0  0  0  0  0  0  0  0
  141.7001   58.5395  132.7672 C   0  0  0  0  0  0  0  0  0  0  0  0
  141.6412   59.9204  132.7242 C   0  0  0  0  0  0  0  0  0  0  0  0
  142.5918   60.6356  132.0057 C   0  0  0  0  0  0  0  0  0  0  0  0
  142.7349   56.4802  132.1508 N   0  0  0  0  0  0  0  0  0  0  0  0
  143.8529   55.9139  132.7976 O   0  0  0  0  0  0  0  0  0  0  0  0
  141.7047   55.6096  131.6011 O   0  0  0  0  0  0  0  0  0  0  0  0
  146.7899   62.4079  134.3577 C   0  0  0  0  0  0  0  0  0  0  0  0
  146.3489   61.1410  135.5727 S   0  0  0  0  0  0  0  0  0  0  0  0
  147.3286   61.2332  137.1655 C   0  0  0  0  0  0  0  0  0  0  0  0
  146.6562   60.6064  138.2649 O   0  0  0  0  0  0  0  0  0  0  0  0
  146.6246   59.1507  138.1838 C   0  0  0  0  0  0  0  0  0  0  0  0
  147.9891   58.4512  138.0095 C   0  0  0  0  0  0  0  0  0  0  0  0
  147.7223   57.0677  137.6469 O   0  0  0  0  0  0  0  0  0  0  0  0
  148.8264   59.1606  136.9145 C   0  0  0  0  0  0  0  0  0  0  0  0
  150.1535   58.5590  136.8246 O   0  0  0  0  0  0  0  0  0  0  0  0
  148.7851   60.7016  137.1690 C   0  0  0  0  0  0  0  0  0  0  0  0
  149.5295   61.5658  136.2804 O   0  0  0  0  0  0  0  0  0  0  0  0
  147.2080   57.0423  136.8248 H   0  0  0  0  0  0  0  0  0  0  0  0
  150.6055   58.6436  137.6787 H   0  0  0  0  0  0  0  0  0  0  0  0
  149.1250   61.5489  135.3990 H   0  0  0  0  0  0  0  0  0  0  0  0
 14 15  2  0  0  0
 14 19  1  0  0  0
 15 16  1  0  0  0
 16 20  1  0  0  0
 16 17  2  0  0  0
 20 21  1  0  0  0
 20 22  2  0  0  0
 17 18  1  0  0  0
 18 19  2  0  0  0
 19 13  1  0  0  0
 13  1  1  0  0  0
  1  2  1  0  0  0
  1  3  1  0  0  0
  2  9  1  0  0  0
  3  4  1  0  0  0
  3  5  1  0  0  0
  5  6  1  0  0  0
  5  7  1  0  0  0
  7  8  1  0  0  0
  7  9  1  0  0  0
  9 23  1  0  0  0
 23 24  1  0  0  0
 24 25  1  0  0  0
 25 26  1  0  0  0
 25 32  1  0  0  0
 26 27  1  0  0  0
 27 28  1  0  0  0
 28 29  1  0  0  0
 28 30  1  0  0  0
 30 31  1  0  0  0
 30 32  1  0  0  0
 32 33  1  0  0  0
  4 10  1  0  0  0
  6 11  1  0  0  0
  8 12  1  0  0  0
 29 34  1  0  0  0
 31 35  1  0  0  0
 33 36  1  0  0  0
M  CHG 1  20   1
M  CHG 1  21  -1
M  END
> <minimizedAffinity>
-10.70287

$$$$
2F2H_XTG_A_3015


 36 38  0  0  0  0  0  0  0  0999 V2000
  143.5272   61.7358  132.3811 C   0  0  0  0  0  0  0  0  0  0  0  0
  144.1239   61.7563  133.6883 O   0  0  0  0  0  0  0  0  0  0  0  0
  142.7557   63.0636  132.2472 C   0  0  0  0  0  0  0  0  0  0  0  0
  142.1514   63.0937  130.9856 O   0  0  0  0  0  0  0  0  0  0  0  0
  143.7013   64.2439  132.4025 C   0  0  0  0  0  0  0  0  0  0  0  0
  143.0226   65.4532  132.3470 O   0  0  0  0  0  0  0  0  0  0  0  0
  144.4206   64.0438  133.7008 C   0  0  0  0  0  0  0  0  0  0  0  0
  145.3993   65.0173  133.9074 O   0  0  0  0  0  0  0  0  0  0  0  0
  145.1314   62.7248  133.5672 C   0  0  0  0  0  0  0  0  0  0  0  0
  142.8335   63.0312  130.2988 H   0  0  0  0  0  0  0  0  0  0  0  0
  142.3623   65.4862  133.0568 H   0  0  0  0  0  0  0  0  0  0  0  0
  146.0407   64.9904  133.1802 H   0  0  0  0  0  0  0  0  0  0  0  0
  142.6550   60.5874  132.0592 O   0  0  0  0  0  0  0  0  0  0  0  0
  143.5063   59.3648  130.2445 C   0  0  0  0  0  0  0  0  0  0  0  0
  144.0714   58.2238  129.6922 C   0  0  0  0  0  0  0  0  0  0  0  0
  144.3886   57.1352  130.5024 C   0  0  0  0  0  0  0  0  0  0  0  0
  144.1418   57.2352  131.8739 C   0  0  0  0  0  0  0  0  0  0  0  0
  143.5731   58.3712  132.4200 C   0  0  0  0  0  0  0  0  0  0  0  0
  143.2472   59.4477  131.6037 C   0  0  0  0  0  0  0  0  0  0  0  0
  144.9530   56.0118  129.9934 N   0  0  0  0  0  0  0  0  0  0  0  0
  144.0656   55.0188  129.5289 O   0  0  0  0  0  0  0  0  0  0  0  0
  146.3898   55.7908  129.9042 O   0  0  0  0  0  0  0  0  0  0  0  0
  146.2881   62.7712  134.5084 C   0  0  0  0  0  0  0  0  0  0  0  0
  146.7163   61.1792  135.2555 S   0  0  0  0  0  0  0  0  0  0  0  0
  147.5013   61.3146  136.9499 C   0  0  0  0  0  0  0  0  0  0  0  0
  146.6757   60.7694  137.9866 O   0  0  0  0  0  0  0  0  0  0  0  0
  146.5913   59.3136  137.9683 C   0  0  0  0  0  0  0  0  0  0  0  0
  147.9354   58.5559  137.9932 C   0  0  0  0  0  0  0  0  0  0  0  0
  147.6545   57.1667  137.6639 O   0  0  0  0  0  0  0  0  0  0  0  0
  148.9275   59.1776  136.9772 C   0  0  0  0  0  0  0  0  0  0  0  0
  150.2287   58.5231  137.0768 O   0  0  0  0  0  0  0  0  0  0  0  0
  148.9226   60.7299  137.1546 C   0  0  0  0  0  0  0  0  0  0  0  0
  149.8046   61.5199  136.3250 O   0  0  0  0  0  0  0  0  0  0  0  0
  147.2417   57.1193  136.7874 H   0  0  0  0  0  0  0  0  0  0  0  0
  150.5784   58.6336  137.9748 H   0  0  0  0  0  0  0  0  0  0  0  0
  149.5082   61.4739  135.4025 H   0  0  0  0  0  0  0  0  0  0  0  0
 14 15  2  0  0  0
 14 19  1  0  0  0
 15 16  1  0  0  0
 16 20  1  0  0  0
 16 17  2  0  0  0
 20 21  1  0  0  0
 20 22  2  0  0  0
 17 18  1  0  0  0
 18 19  2  0  0  0
 19 13  1  0  0  0
 13  1  1  0  0  0
  1  2  1  0  0  0
  1  3  1  0  0  0
  2  9  1  0  0  0
  3  4  1  0  0  0
  3  5  1  0  0  0
  5  6  1  0  0  0
  5  7  1  0  0  0
  7  8  1  0  0  0
  7  9  1  0  0  0
  9 23  1  0  0  0
 23 24  1  0  0  0
 24 25  1  0  0  0
 25 26  1  0  0  0
 25 32  1  0  0  0
 26 27  1  0  0  0
 27 28  1  0  0  0
 28 29  1  0  0  0
 28 30  1  0  0  0
 30 31  1  0  0  0
 30 32  1  0  0  0
 32 33  1  0  0  0
  4 10  1  0  0  0
  6 11  1  0  0  0
  8 12  1  0  0  0
 29 34  1  0  0  0
 31 35  1  0  0  0
 33 36  1  0  0  0
M  CHG 1  20   1
M  CHG 1  21  -1
M  END
> <minimizedAffinity>
-10.40109

$$$$
2F2H_XTG_A_3015


 36 38  0  0  0  0  0  0  0  0999 V2000
  145.3732   63.0840  134.0766 C   0  0  0  0  0  0  0  0  0  0  0  0
  145.2897   62.2915  132.8807 O   0  0  0  0  0  0  0  0  0  0  0  0
  144.9850   64.5171  133.6626 C   0  0  0  0  0  0  0  0  0  0  0  0
  145.0518   65.3340  134.7967 O   0  0  0  0  0  0  0  0  0  0  0  0
  143.5791   64.5392  133.0844 C   0  0  0  0  0  0  0  0  0  0  0  0
  143.2265   65.8081  132.6466 O   0  0  0  0  0  0  0  0  0  0  0  0
  143.5558   63.5216  131.9857 C   0  0  0  0  0  0  0  0  0  0  0  0
  142.2789   63.3743  131.4416 O   0  0  0  0  0  0  0  0  0  0  0  0
  143.9097   62.2147  132.6410 C   0  0  0  0  0  0  0  0  0  0  0  0
  144.4388   65.0018  135.4710 H   0  0  0  0  0  0  0  0  0  0  0  0
  143.8502   66.0993  131.9632 H   0  0  0  0  0  0  0  0  0  0  0  0
  141.6597   63.1055  132.1382 H   0  0  0  0  0  0  0  0  0  0  0  0
  146.6628   63.0772  134.7978 O   0  0  0  0  0  0  0  0  0  0  0  0
  148.1289   62.0358  136.3073 C   0  0  0  0  0  0  0  0  0  0  0  0
  148.4997   60.9757  137.1227 C   0  0  0  0  0  0  0  0  0  0  0  0
  147.6687   59.8641  137.2495 C   0  0  0  0  0  0  0  0  0  0  0  0
  146.4566   59.8596  136.5546 C   0  0  0  0  0  0  0  0  0  0  0  0
  146.0933   60.9149  135.7383 C   0  0  0  0  0  0  0  0  0  0  0  0
  146.9332   62.0142  135.6064 C   0  0  0  0  0  0  0  0  0  0  0  0
  147.9983   58.8186  138.0483 N   0  0  0  0  0  0  0  0  0  0  0  0
  148.4973   59.1395  139.3278 O   0  0  0  0  0  0  0  0  0  0  0  0
  147.8624   57.4218  137.6589 O   0  0  0  0  0  0  0  0  0  0  0  0
  143.3235   61.1413  131.7865 C   0  0  0  0  0  0  0  0  0  0  0  0
  143.0632   59.5624  132.6322 S   0  0  0  0  0  0  0  0  0  0  0  0
  141.5986   58.5849  131.9959 C   0  0  0  0  0  0  0  0  0  0  0  0
  141.6073   58.4415  130.5701 O   0  0  0  0  0  0  0  0  0  0  0  0
  142.6319   57.5289  130.0759 C   0  0  0  0  0  0  0  0  0  0  0  0
  142.6316   56.1127  130.6889 C   0  0  0  0  0  0  0  0  0  0  0  0
  143.8827   55.4759  130.3062 O   0  0  0  0  0  0  0  0  0  0  0  0
  142.4966   56.1891  132.2313 C   0  0  0  0  0  0  0  0  0  0  0  0
  142.3947   54.8470  132.7965 O   0  0  0  0  0  0  0  0  0  0  0  0
  141.3381   57.1753  132.5867 C   0  0  0  0  0  0  0  0  0  0  0  0
  141.0109   57.3787  133.9802 O   0  0  0  0  0  0  0  0  0  0  0  0
  144.6276   56.0012  130.6381 H   0  0  0  0  0  0  0  0  0  0  0  0
  141.6168   54.3994  132.4286 H   0  0  0  0  0  0  0  0  0  0  0  0
  141.7414   57.8417  134.4196 H   0  0  0  0  0  0  0  0  0  0  0  0
 14 15  2  0  0  0
 14 19  1  0  0  0
 15 16  1  0  0  0
 16 20  1  0  0  0
 16 17  2  0  0  0
 20 21  1  0  0  0
 20 22  2  0  0  0
 17 18  1  0  0  0
 18 19  2  0  0  0
 19 13  1  0  0  0
 13  1  1  0  0  0
  1  2  1  0  0  0
  1  3  1  0  0  0
  2  9  1  0  0  0
  3  4  1  0  0  0
  3  5  1  0  0  0
  5  6  1  0  0  0
  5  7  1  0  0  0
  7  8  1  0  0  0
  7  9  1  0  0  0
  9 23  1  0  0  0
 23 24  1  0  0  0
 24 25  1  0  0  0
 25 26  1  0  0  0
 25 32  1  0  0  0
 26 27  1  0  0  0
 27 28  1  0  0  0
 28 29  1  0  0  0
 28 30  1  0  0  0
 30 31  1  0  0  0
 30 32  1  0  0  0
 32 33  1  0  0  0
  4 10  1  0  0  0
  6 11  1  0  0  0
  8 12  1  0  0  0
 29 34  1  0  0  0
 31 35  1  0  0  0
 33 36  1  0  0  0
M  CHG 1  20   1
M  CHG 1  21  -1
M  END
> <minimizedAffinity>
-10.25491

$$$$
2F2H_XTG_A_3015


 36 38  0  0  0  0  0  0  0  0999 V2000
  144.8589   62.7998  133.2032 C   0  0  0  0  0  0  0  0  0  0  0  0
  144.4329   61.8801  132.1843 O   0  0  0  0  0  0  0  0  0  0  0  0
  144.6158   64.2096  132.6292 C   0  0  0  0  0  0  0  0  0  0  0  0
  145.0174   65.1476  133.5867 O   0  0  0  0  0  0  0  0  0  0  0  0
  143.1447   64.3996  132.2959 C   0  0  0  0  0  0  0  0  0  0  0  0
  142.9073   65.6399  131.7200 O   0  0  0  0  0  0  0  0  0  0  0  0
  142.7623   63.2630  131.3986 C   0  0  0  0  0  0  0  0  0  0  0  0
  141.3979   63.2699  131.1050 O   0  0  0  0  0  0  0  0  0  0  0  0
  143.0367   62.0149  132.1921 C   0  0  0  0  0  0  0  0  0  0  0  0
  144.5015   65.0222  134.3985 H   0  0  0  0  0  0  0  0  0  0  0  0
  143.4259   65.7222  130.9044 H   0  0  0  0  0  0  0  0  0  0  0  0
  140.8895   63.2105  131.9290 H   0  0  0  0  0  0  0  0  0  0  0  0
  146.2466   62.6644  133.6923 O   0  0  0  0  0  0  0  0  0  0  0  0
  147.3156   62.2697  135.7450 C   0  0  0  0  0  0  0  0  0  0  0  0
  147.6292   61.4609  136.8284 C   0  0  0  0  0  0  0  0  0  0  0  0
  147.0964   60.1765  136.9226 C   0  0  0  0  0  0  0  0  0  0  0  0
  146.2316   59.7419  135.9150 C   0  0  0  0  0  0  0  0  0  0  0  0
  145.9263   60.5482  134.8339 C   0  0  0  0  0  0  0  0  0  0  0  0
  146.4718   61.8229  134.7402 C   0  0  0  0  0  0  0  0  0  0  0  0
  147.3747   59.3679  137.9754 N   0  0  0  0  0  0  0  0  0  0  0  0
  147.2185   57.9827  137.7611 O   0  0  0  0  0  0  0  0  0  0  0  0
  147.8166   59.8489  139.2771 O   0  0  0  0  0  0  0  0  0  0  0  0
  142.1462   60.9556  131.6345 C   0  0  0  0  0  0  0  0  0  0  0  0
  142.9946   59.7050  130.6385 S   0  0  0  0  0  0  0  0  0  0  0  0
  143.9794   58.4670  131.6399 C   0  0  0  0  0  0  0  0  0  0  0  0
  143.2413   57.9427  132.7508 O   0  0  0  0  0  0  0  0  0  0  0  0
  142.1754   57.0236  132.3689 C   0  0  0  0  0  0  0  0  0  0  0  0
  142.5924   55.8329  131.4801 C   0  0  0  0  0  0  0  0  0  0  0  0
  141.3723   55.2283  130.9674 O   0  0  0  0  0  0  0  0  0  0  0  0
  143.5032   56.3137  130.3215 C   0  0  0  0  0  0  0  0  0  0  0  0
  143.9768   55.1721  129.5444 O   0  0  0  0  0  0  0  0  0  0  0  0
  144.6060   57.2538  130.9054 C   0  0  0  0  0  0  0  0  0  0  0  0
  145.5944   57.7989  130.0019 O   0  0  0  0  0  0  0  0  0  0  0  0
  140.8738   55.8872  130.4592 H   0  0  0  0  0  0  0  0  0  0  0  0
  144.4793   54.5750  130.1205 H   0  0  0  0  0  0  0  0  0  0  0  0
  145.1683   58.4260  129.3968 H   0  0  0  0  0  0  0  0  0  0  0  0
 14 15  2  0  0  0
 14 19  1  0  0  0
 15 16  1  0  0  0
 16 20  1  0  0  0
 16 17  2  0  0  0
 20 21  1  0  0  0
 20 22  2  0  0  0
 17 18  1  0  0  0
 18 19  2  0  0  0
 19 13  1  0  0  0
 13  1  1  0  0  0
  1  2  1  0  0  0
  1  3  1  0  0  0
  2  9  1  0  0  0
  3  4  1  0  0  0
  3  5  1  0  0  0
  5  6  1  0  0  0
  5  7  1  0  0  0
  7  8  1  0  0  0
  7  9  1  0  0  0
  9 23  1  0  0  0
 23 24  1  0  0  0
 24 25  1  0  0  0
 25 26  1  0  0  0
 25 32  1  0  0  0
 26 27  1  0  0  0
 27 28  1  0  0  0
 28 29  1  0  0  0
 28 30  1  0  0  0
 30 31  1  0  0  0
 30 32  1  0  0  0
 32 33  1  0  0  0
  4 10  1  0  0  0
  6 11  1  0  0  0
  8 12  1  0  0  0
 29 34  1  0  0  0
 31 35  1  0  0  0
 33 36  1  0  0  0
M  CHG 1  20   1
M  CHG 1  21  -1
M  END
> <minimizedAffinity>
-9.49593

$$$$
2F2H_XTG_A_3015


 36 38  0  0  0  0  0  0  0  0999 V2000
  145.3958   63.0064  134.0964 C   0  0  0  0  0  0  0  0  0  0  0  0
  145.3457   62.2185  132.8956 O   0  0  0  0  0  0  0  0  0  0  0  0
  144.9571   64.4269  133.6890 C   0  0  0  0  0  0  0  0  0  0  0  0
  144.9898   65.2389  134.8281 O   0  0  0  0  0  0  0  0  0  0  0  0
  143.5536   64.4011  133.1053 C   0  0  0  0  0  0  0  0  0  0  0  0
  143.1565   65.6589  132.6734 O   0  0  0  0  0  0  0  0  0  0  0  0
  143.5715   63.3898  132.0006 C   0  0  0  0  0  0  0  0  0  0  0  0
  142.3030   63.1993  131.4506 O   0  0  0  0  0  0  0  0  0  0  0  0
  143.9704   62.0928  132.6499 C   0  0  0  0  0  0  0  0  0  0  0  0
  144.3867   64.8807  135.4980 H   0  0  0  0  0  0  0  0  0  0  0  0
  143.7718   65.9767  131.9942 H   0  0  0  0  0  0  0  0  0  0  0  0
  141.6913   62.9041  132.1431 H   0  0  0  0  0  0  0  0  0  0  0  0
  146.6819   63.0424  134.8227 O   0  0  0  0  0  0  0  0  0  0  0  0
  148.1402   62.0835  136.3932 C   0  0  0  0  0  0  0  0  0  0  0  0
  148.5371   61.0440  137.2227 C   0  0  0  0  0  0  0  0  0  0  0  0
  147.7681   59.8851  137.3123 C   0  0  0  0  0  0  0  0  0  0  0  0
  146.5896   59.8120  136.5656 C   0  0  0  0  0  0  0  0  0  0  0  0
  146.2004   60.8471  135.7354 C   0  0  0  0  0  0  0  0  0  0  0  0
  146.9792   61.9943  135.6412 C   0  0  0  0  0  0  0  0  0  0  0  0
  148.1238   58.8579  138.1235 N   0  0  0  0  0  0  0  0  0  0  0  0
  147.8711   57.5582  137.6378 O   0  0  0  0  0  0  0  0  0  0  0  0
  148.7387   59.0295  139.4326 O   0  0  0  0  0  0  0  0  0  0  0  0
  143.4270   61.0039  131.7868 C   0  0  0  0  0  0  0  0  0  0  0  0
  143.1375   59.4363  132.6439 S   0  0  0  0  0  0  0  0  0  0  0  0
  141.4739   58.6590  132.2780 C   0  0  0  0  0  0  0  0  0  0  0  0
  140.3808   59.4154  132.8136 O   0  0  0  0  0  0  0  0  0  0  0  0
  140.1283   60.6665  132.1081 C   0  0  0  0  0  0  0  0  0  0  0  0
  139.9179   60.5550  130.5834 C   0  0  0  0  0  0  0  0  0  0  0  0
  139.9896   61.9018  130.0376 O   0  0  0  0  0  0  0  0  0  0  0  0
  140.9995   59.6416  129.9518 C   0  0  0  0  0  0  0  0  0  0  0  0
  140.7365   59.4578  128.5276 O   0  0  0  0  0  0  0  0  0  0  0  0
  141.1168   58.3373  130.8040 C   0  0  0  0  0  0  0  0  0  0  0  0
  142.0507   57.3190  130.3782 O   0  0  0  0  0  0  0  0  0  0  0  0
  140.8547   62.2889  130.2445 H   0  0  0  0  0  0  0  0  0  0  0  0
  139.8642   59.0501  128.4099 H   0  0  0  0  0  0  0  0  0  0  0  0
  142.9573   57.6478  130.4825 H   0  0  0  0  0  0  0  0  0  0  0  0
 14 15  2  0  0  0
 14 19  1  0  0  0
 15 16  1  0  0  0
 16 20  1  0  0  0
 16 17  2  0  0  0
 20 21  1  0  0  0
 20 22  2  0  0  0
 17 18  1  0  0  0
 18 19  2  0  0  0
 19 13  1  0  0  0
 13  1  1  0  0  0
  1  2  1  0  0  0
  1  3  1  0  0  0
  2  9  1  0  0  0
  3  4  1  0  0  0
  3  5  1  0  0  0
  5  6  1  0  0  0
  5  7  1  0  0  0
  7  8  1  0  0  0
  7  9  1  0  0  0
  9 23  1  0  0  0
 23 24  1  0  0  0
 24 25  1  0  0  0
 25 26  1  0  0  0
 25 32  1  0  0  0
 26 27  1  0  0  0
 27 28  1  0  0  0
 28 29  1  0  0  0
 28 30  1  0  0  0
 30 31  1  0  0  0
 30 32  1  0  0  0
 32 33  1  0  0  0
  4 10  1  0  0  0
  6 11  1  0  0  0
  8 12  1  0  0  0
 29 34  1  0  0  0
 31 35  1  0  0  0
 33 36  1  0  0  0
M  CHG 1  20   1
M  CHG 1  21  -1
M  END
> <minimizedAffinity>
-9.06172

$$$$
2F2H_XTG_A_3015


 36 38  0  0  0  0  0  0  0  0999 V2000
  140.7247   61.7028  130.0964 C   0  0  0  0  0  0  0  0  0  0  0  0
  141.9719   61.0236  130.3170 O   0  0  0  0  0  0  0  0  0  0  0  0
  139.6887   60.6001  129.8015 C   0  0  0  0  0  0  0  0  0  0  0  0
  138.4503   61.2115  129.5769 O   0  0  0  0  0  0  0  0  0  0  0  0
  139.5916   59.6370  130.9738 C   0  0  0  0  0  0  0  0  0  0  0  0
  138.7096   58.5984  130.7101 O   0  0  0  0  0  0  0  0  0  0  0  0
  140.9841   59.1576  131.2461 C   0  0  0  0  0  0  0  0  0  0  0  0
  141.0400   58.3403  132.3761 O   0  0  0  0  0  0  0  0  0  0  0  0
  141.7814   60.3949  131.5564 C   0  0  0  0  0  0  0  0  0  0  0  0
  138.1903   61.7142  130.3646 H   0  0  0  0  0  0  0  0  0  0  0  0
  139.0102   58.1096  129.9280 H   0  0  0  0  0  0  0  0  0  0  0  0
  140.7156   58.8318  133.1470 H   0  0  0  0  0  0  0  0  0  0  0  0
  140.7018   62.7395  129.0439 O   0  0  0  0  0  0  0  0  0  0  0  0
  139.0531   64.3354  129.5413 C   0  0  0  0  0  0  0  0  0  0  0  0
  138.6533   65.6214  129.8766 C   0  0  0  0  0  0  0  0  0  0  0  0
  139.6035   66.6179  130.0920 C   0  0  0  0  0  0  0  0  0  0  0  0
  140.9548   66.2807  129.9809 C   0  0  0  0  0  0  0  0  0  0  0  0
  141.3494   64.9998  129.6406 C   0  0  0  0  0  0  0  0  0  0  0  0
  140.3956   64.0146  129.4144 C   0  0  0  0  0  0  0  0  0  0  0  0
  139.2437   67.8804  130.4330 N   0  0  0  0  0  0  0  0  0  0  0  0
  139.6786   68.3378  131.6943 O   0  0  0  0  0  0  0  0  0  0  0  0
  138.4550   68.7604  129.5817 O   0  0  0  0  0  0  0  0  0  0  0  0
  142.9344   59.9551  132.3950 C   0  0  0  0  0  0  0  0  0  0  0  0
  144.2875   61.1522  132.5036 S   0  0  0  0  0  0  0  0  0  0  0  0
  144.2772   62.1799  134.0686 C   0  0  0  0  0  0  0  0  0  0  0  0
  145.4470   61.9765  134.8710 O   0  0  0  0  0  0  0  0  0  0  0  0
  146.6577   62.5616  134.3067 C   0  0  0  0  0  0  0  0  0  0  0  0
  146.5859   64.0627  133.9560 C   0  0  0  0  0  0  0  0  0  0  0  0
  147.7517   64.3727  133.1426 O   0  0  0  0  0  0  0  0  0  0  0  0
  145.2752   64.3790  133.1912 C   0  0  0  0  0  0  0  0  0  0  0  0
  145.1643   65.8148  132.9515 O   0  0  0  0  0  0  0  0  0  0  0  0
  144.0796   63.7127  133.9447 C   0  0  0  0  0  0  0  0  0  0  0  0
  142.7449   63.9042  133.4228 O   0  0  0  0  0  0  0  0  0  0  0  0
  147.7423   63.8250  132.3420 H   0  0  0  0  0  0  0  0  0  0  0  0
  145.1617   66.2851  133.7999 H   0  0  0  0  0  0  0  0  0  0  0  0
  142.6610   63.4442  132.5730 H   0  0  0  0  0  0  0  0  0  0  0  0
 14 15  2  0  0  0
 14 19  1  0  0  0
 15 16  1  0  0  0
 16 20  1  0  0  0
 16 17  2  0  0  0
 20 21  1  0  0  0
 20 22  2  0  0  0
 17 18  1  0  0  0
 18 19  2  0  0  0
 19 13  1  0  0  0
 13  1  1  0  0  0
  1  2  1  0  0  0
  1  3  1  0  0  0
  2  9  1  0  0  0
  3  4  1  0  0  0
  3  5  1  0  0  0
  5  6  1  0  0  0
  5  7  1  0  0  0
  7  8  1  0  0  0
  7  9  1  0  0  0
  9 23  1  0  0  0
 23 24  1  0  0  0
 24 25  1  0  0  0
 25 26  1  0  0  0
 25 32  1  0  0  0
 26 27  1  0  0  0
 27 28  1  0  0  0
 28 29  1  0  0  0
 28 30  1  0  0  0
 30 31  1  0  0  0
 30 32  1  0  0  0
 32 33  1  0  0  0
  4 10  1  0  0  0
  6 11  1  0  0  0
  8 12  1  0  0  0
 29 34  1  0  0  0
 31 35  1  0  0  0
 33 36  1  0  0  0
M  CHG 1  20   1
M  CHG 1  21  -1
M  END
> <minimizedAffinity>
-8.51802

$$$$
2F2H_XTG_A_3015


 36 38  0  0  0  0  0  0  0  0999 V2000
  145.2131   63.8092  133.5406 C   0  0  0  0  0  0  0  0  0  0  0  0
  144.1586   63.0227  134.1192 O   0  0  0  0  0  0  0  0  0  0  0  0
  146.4079   63.6920  134.5075 C   0  0  0  0  0  0  0  0  0  0  0  0
  147.4669   64.4450  133.9884 O   0  0  0  0  0  0  0  0  0  0  0  0
  146.8254   62.2382  134.6602 C   0  0  0  0  0  0  0  0  0  0  0  0
  147.8610   62.0972  135.5733 O   0  0  0  0  0  0  0  0  0  0  0  0
  145.5955   61.4828  135.0600 C   0  0  0  0  0  0  0  0  0  0  0  0
  145.8302   60.1088  135.1308 O   0  0  0  0  0  0  0  0  0  0  0  0
  144.6080   61.7051  133.9472 C   0  0  0  0  0  0  0  0  0  0  0  0
  147.7084   64.1029  133.1134 H   0  0  0  0  0  0  0  0  0  0  0  0
  147.5778   62.4335  136.4379 H   0  0  0  0  0  0  0  0  0  0  0  0
  146.1348   59.7880  134.2675 H   0  0  0  0  0  0  0  0  0  0  0  0
  144.9113   65.2258  133.2485 O   0  0  0  0  0  0  0  0  0  0  0  0
  143.3233   64.4431  131.7063 C   0  0  0  0  0  0  0  0  0  0  0  0
  142.2653   64.6393  130.8298 C   0  0  0  0  0  0  0  0  0  0  0  0
  141.7100   65.9079  130.6730 C   0  0  0  0  0  0  0  0  0  0  0  0
  142.2323   66.9586  131.4314 C   0  0  0  0  0  0  0  0  0  0  0  0
  143.2906   66.7608  132.2992 C   0  0  0  0  0  0  0  0  0  0  0  0
  143.8477   65.4955  132.4404 C   0  0  0  0  0  0  0  0  0  0  0  0
  140.6676   66.1279  129.8335 N   0  0  0  0  0  0  0  0  0  0  0  0
  140.2871   65.0486  129.0093 O   0  0  0  0  0  0  0  0  0  0  0  0
  139.9429   67.3883  129.7481 O   0  0  0  0  0  0  0  0  0  0  0  0
  143.6670   60.5478  133.9802 C   0  0  0  0  0  0  0  0  0  0  0  0
  143.8147   59.4159  132.5756 S   0  0  0  0  0  0  0  0  0  0  0  0
  142.1773   58.9265  131.8108 C   0  0  0  0  0  0  0  0  0  0  0  0
  142.2562   58.7717  130.3883 O   0  0  0  0  0  0  0  0  0  0  0  0
  142.9888   57.5841  129.9645 C   0  0  0  0  0  0  0  0  0  0  0  0
  142.5062   56.2426  130.5554 C   0  0  0  0  0  0  0  0  0  0  0  0
  143.5291   55.2495  130.2647 O   0  0  0  0  0  0  0  0  0  0  0  0
  142.2777   56.3736  132.0830 C   0  0  0  0  0  0  0  0  0  0  0  0
  141.7252   55.1332  132.6192 O   0  0  0  0  0  0  0  0  0  0  0  0
  141.4517   57.6708  132.3588 C   0  0  0  0  0  0  0  0  0  0  0  0
  141.0916   57.9798  133.7246 O   0  0  0  0  0  0  0  0  0  0  0  0
  144.3698   55.5253  130.6624 H   0  0  0  0  0  0  0  0  0  0  0  0
  140.8799   54.9411  132.1841 H   0  0  0  0  0  0  0  0  0  0  0  0
  141.8909   58.2018  134.2273 H   0  0  0  0  0  0  0  0  0  0  0  0
 14 15  2  0  0  0
 14 19  1  0  0  0
 15 16  1  0  0  0
 16 20  1  0  0  0
 16 17  2  0  0  0
 20 21  1  0  0  0
 20 22  2  0  0  0
 17 18  1  0  0  0
 18 19  2  0  0  0
 19 13  1  0  0  0
 13  1  1  0  0  0
  1  2  1  0  0  0
  1  3  1  0  0  0
  2  9  1  0  0  0
  3  4  1  0  0  0
  3  5  1  0  0  0
  5  6  1  0  0  0
  5  7  1  0  0  0
  7  8  1  0  0  0
  7  9  1  0  0  0
  9 23  1  0  0  0
 23 24  1  0  0  0
 24 25  1  0  0  0
 25 26  1  0  0  0
 25 32  1  0  0  0
 26 27  1  0  0  0
 27 28  1  0  0  0
 28 29  1  0  0  0
 28 30  1  0  0  0
 30 31  1  0  0  0
 30 32  1  0  0  0
 32 33  1  0  0  0
  4 10  1  0  0  0
  6 11  1  0  0  0
  8 12  1  0  0  0
 29 34  1  0  0  0
 31 35  1  0  0  0
 33 36  1  0  0  0
M  CHG 1  20   1
M  CHG 1  21  -1
M  END
> <minimizedAffinity>
-8.35896

$$$$
2F2H_XTG_A_3015


 36 38  0  0  0  0  0  0  0  0999 V2000
  141.1034   57.9739  131.0212 C   0  0  0  0  0  0  0  0  0  0  0  0
  142.0316   59.0490  131.2404 O   0  0  0  0  0  0  0  0  0  0  0  0
  141.5994   57.2369  129.7615 C   0  0  0  0  0  0  0  0  0  0  0  0
  140.7249   56.1758  129.5021 O   0  0  0  0  0  0  0  0  0  0  0  0
  143.0099   56.7117  129.9757 C   0  0  0  0  0  0  0  0  0  0  0  0
  143.5048   56.0960  128.8345 O   0  0  0  0  0  0  0  0  0  0  0  0
  143.8384   57.8828  130.4060 C   0  0  0  0  0  0  0  0  0  0  0  0
  145.1408   57.5042  130.7355 O   0  0  0  0  0  0  0  0  0  0  0  0
  143.1936   58.3893  131.6672 C   0  0  0  0  0  0  0  0  0  0  0  0
  140.7143   55.5725  130.2616 H   0  0  0  0  0  0  0  0  0  0  0  0
  143.5160   56.7326  128.1027 H   0  0  0  0  0  0  0  0  0  0  0  0
  145.1161   56.8508  131.4520 H   0  0  0  0  0  0  0  0  0  0  0  0
  139.6767   58.3349  130.8905 O   0  0  0  0  0  0  0  0  0  0  0  0
  139.3484   60.1410  129.4266 C   0  0  0  0  0  0  0  0  0  0  0  0
  139.0808   61.4785  129.1705 C   0  0  0  0  0  0  0  0  0  0  0  0
  138.8253   62.3568  130.2220 C   0  0  0  0  0  0  0  0  0  0  0  0
  138.8269   61.8503  131.5241 C   0  0  0  0  0  0  0  0  0  0  0  0
  139.0999   60.5184  131.7760 C   0  0  0  0  0  0  0  0  0  0  0  0
  139.3669   59.6514  130.7232 C   0  0  0  0  0  0  0  0  0  0  0  0
  138.5484   63.6662  130.0021 N   0  0  0  0  0  0  0  0  0  0  0  0
  137.2165   64.0722  130.2264 O   0  0  0  0  0  0  0  0  0  0  0  0
  139.5337   64.6439  129.5610 O   0  0  0  0  0  0  0  0  0  0  0  0
  144.2602   59.1002  132.4308 C   0  0  0  0  0  0  0  0  0  0  0  0
  144.2628   60.8985  132.2257 S   0  0  0  0  0  0  0  0  0  0  0  0
  144.1662   61.8529  133.8335 C   0  0  0  0  0  0  0  0  0  0  0  0
  145.2985   61.6235  134.6813 O   0  0  0  0  0  0  0  0  0  0  0  0
  146.5281   62.2450  134.2032 C   0  0  0  0  0  0  0  0  0  0  0  0
  146.4560   63.7600  133.9183 C   0  0  0  0  0  0  0  0  0  0  0  0
  147.6558   64.1178  133.1769 O   0  0  0  0  0  0  0  0  0  0  0  0
  145.1798   64.0991  133.1064 C   0  0  0  0  0  0  0  0  0  0  0  0
  145.0642   65.5434  132.9272 O   0  0  0  0  0  0  0  0  0  0  0  0
  143.9573   63.3879  133.7703 C   0  0  0  0  0  0  0  0  0  0  0  0
  142.6470   63.5909  133.1939 O   0  0  0  0  0  0  0  0  0  0  0  0
  147.6908   63.6075  132.3527 H   0  0  0  0  0  0  0  0  0  0  0  0
  145.0157   65.9740  133.7950 H   0  0  0  0  0  0  0  0  0  0  0  0
  142.6089   63.1698  132.3209 H   0  0  0  0  0  0  0  0  0  0  0  0
 14 15  2  0  0  0
 14 19  1  0  0  0
 15 16  1  0  0  0
 16 20  1  0  0  0
 16 17  2  0  0  0
 20 21  1  0  0  0
 20 22  2  0  0  0
 17 18  1  0  0  0
 18 19  2  0  0  0
 19 13  1  0  0  0
 13  1  1  0  0  0
  1  2  1  0  0  0
  1  3  1  0  0  0
  2  9  1  0  0  0
  3  4  1  0  0  0
  3  5  1  0  0  0
  5  6  1  0  0  0
  5  7  1  0  0  0
  7  8  1  0  0  0
  7  9  1  0  0  0
  9 23  1  0  0  0
 23 24  1  0  0  0
 24 25  1  0  0  0
 25 26  1  0  0  0
 25 32  1  0  0  0
 26 27  1  0  0  0
 27 28  1  0  0  0
 28 29  1  0  0  0
 28 30  1  0  0  0
 30 31  1  0  0  0
 30 32  1  0  0  0
 32 33  1  0  0  0
  4 10  1  0  0  0
  6 11  1  0  0  0
  8 12  1  0  0  0
 29 34  1  0  0  0
 31 35  1  0  0  0
 33 36  1  0  0  0
M  CHG 1  20   1
M  CHG 1  21  -1
M  END
> <minimizedAffinity>
-8.23395

$$$$
2F2H_XTG_A_3015


 36 38  0  0  0  0  0  0  0  0999 V2000
  144.4844   64.0154  132.8297 C   0  0  0  0  0  0  0  0  0  0  0  0
  143.5341   63.1281  133.4420 O   0  0  0  0  0  0  0  0  0  0  0  0
  145.7408   63.9707  133.7216 C   0  0  0  0  0  0  0  0  0  0  0  0
  146.7019   64.8234  133.1674 O   0  0  0  0  0  0  0  0  0  0  0  0
  146.2836   62.5529  133.8019 C   0  0  0  0  0  0  0  0  0  0  0  0
  147.3803   62.4728  134.6486 O   0  0  0  0  0  0  0  0  0  0  0  0
  145.1454   61.6871  134.2470 C   0  0  0  0  0  0  0  0  0  0  0  0
  145.4949   60.3359  134.2587 O   0  0  0  0  0  0  0  0  0  0  0  0
  144.0779   61.8577  133.2009 C   0  0  0  0  0  0  0  0  0  0  0  0
  146.9173   64.5273  132.2691 H   0  0  0  0  0  0  0  0  0  0  0  0
  147.1233   62.7600  135.5387 H   0  0  0  0  0  0  0  0  0  0  0  0
  145.7720   60.0658  133.3692 H   0  0  0  0  0  0  0  0  0  0  0  0
  144.0514   65.4097  132.6024 O   0  0  0  0  0  0  0  0  0  0  0  0
  142.4911   66.8991  131.6752 C   0  0  0  0  0  0  0  0  0  0  0  0
  141.4237   67.1922  130.8381 C   0  0  0  0  0  0  0  0  0  0  0  0
  140.8732   66.1998  130.0292 C   0  0  0  0  0  0  0  0  0  0  0  0
  141.4360   64.9217  130.0720 C   0  0  0  0  0  0  0  0  0  0  0  0
  142.4956   64.6316  130.9118 C   0  0  0  0  0  0  0  0  0  0  0  0
  143.0306   65.6232  131.7253 C   0  0  0  0  0  0  0  0  0  0  0  0
  139.8381   66.4592  129.1920 N   0  0  0  0  0  0  0  0  0  0  0  0
  138.9041   67.4216  129.6284 O   0  0  0  0  0  0  0  0  0  0  0  0
  139.6532   65.8115  127.9006 O   0  0  0  0  0  0  0  0  0  0  0  0
  143.2377   60.6258  133.2500 C   0  0  0  0  0  0  0  0  0  0  0  0
  142.8314   59.9256  131.6313 S   0  0  0  0  0  0  0  0  0  0  0  0
  141.6401   60.9622  130.6255 C   0  0  0  0  0  0  0  0  0  0  0  0
  141.3065   60.3583  129.3694 O   0  0  0  0  0  0  0  0  0  0  0  0
  140.4387   59.1923  129.4881 C   0  0  0  0  0  0  0  0  0  0  0  0
  139.1251   59.4013  130.2705 C   0  0  0  0  0  0  0  0  0  0  0  0
  138.5662   58.0845  130.5362 O   0  0  0  0  0  0  0  0  0  0  0  0
  139.3961   60.1663  131.5913 C   0  0  0  0  0  0  0  0  0  0  0  0
  138.1392   60.4502  132.2775 O   0  0  0  0  0  0  0  0  0  0  0  0
  140.3048   61.3988  131.2815 C   0  0  0  0  0  0  0  0  0  0  0  0
  140.6624   62.2809  132.3699 O   0  0  0  0  0  0  0  0  0  0  0  0
  139.2009   57.5616  131.0506 H   0  0  0  0  0  0  0  0  0  0  0  0
  137.5730   60.9907  131.7046 H   0  0  0  0  0  0  0  0  0  0  0  0
  141.2488   61.8137  132.9853 H   0  0  0  0  0  0  0  0  0  0  0  0
 14 15  2  0  0  0
 14 19  1  0  0  0
 15 16  1  0  0  0
 16 20  1  0  0  0
 16 17  2  0  0  0
 20 21  1  0  0  0
 20 22  2  0  0  0
 17 18  1  0  0  0
 18 19  2  0  0  0
 19 13  1  0  0  0
 13  1  1  0  0  0
  1  2  1  0  0  0
  1  3  1  0  0  0
  2  9  1  0  0  0
  3  4  1  0  0  0
  3  5  1  0  0  0
  5  6  1  0  0  0
  5  7  1  0  0  0
  7  8  1  0  0  0
  7  9  1  0  0  0
  9 23  1  0  0  0
 23 24  1  0  0  0
 24 25  1  0  0  0
 25 26  1  0  0  0
 25 32  1  0  0  0
 26 27  1  0  0  0
 27 28  1  0  0  0
 28 29  1  0  0  0
 28 30  1  0  0  0
 30 31  1  0  0  0
 30 32  1  0  0  0
 32 33  1  0  0  0
  4 10  1  0  0  0
  6 11  1  0  0  0
  8 12  1  0  0  0
 29 34  1  0  0  0
 31 35  1  0  0  0
 33 36  1  0  0  0
M  CHG 1  20   1
M  CHG 1  21  -1
M  END
> <minimizedAffinity>
-8.04082

$$$$
2F2H_XTG_A_3015


 36 38  0  0  0  0  0  0  0  0999 V2000
  143.1234   60.2806  131.7169 C   0  0  0  0  0  0  0  0  0  0  0  0
  141.8937   60.3097  132.4601 O   0  0  0  0  0  0  0  0  0  0  0  0
  143.4454   58.7903  131.4897 C   0  0  0  0  0  0  0  0  0  0  0  0
  144.6409   58.7057  130.7675 O   0  0  0  0  0  0  0  0  0  0  0  0
  142.3207   58.1165  130.7201 C   0  0  0  0  0  0  0  0  0  0  0  0
  142.5566   56.7589  130.5545 O   0  0  0  0  0  0  0  0  0  0  0  0
  141.0600   58.3957  131.4791 C   0  0  0  0  0  0  0  0  0  0  0  0
  139.9340   57.9121  130.8110 O   0  0  0  0  0  0  0  0  0  0  0  0
  140.9392   59.8946  131.5197 C   0  0  0  0  0  0  0  0  0  0  0  0
  144.5376   59.1602  129.9168 H   0  0  0  0  0  0  0  0  0  0  0  0
  142.6374   56.3364  131.4239 H   0  0  0  0  0  0  0  0  0  0  0  0
  139.8763   58.3240  129.9346 H   0  0  0  0  0  0  0  0  0  0  0  0
  144.2813   60.9836  132.3070 O   0  0  0  0  0  0  0  0  0  0  0  0
  144.7167   62.7505  133.7905 C   0  0  0  0  0  0  0  0  0  0  0  0
  144.5821   64.0703  134.1984 C   0  0  0  0  0  0  0  0  0  0  0  0
  143.8527   64.9724  133.4261 C   0  0  0  0  0  0  0  0  0  0  0  0
  143.2856   64.5170  132.2332 C   0  0  0  0  0  0  0  0  0  0  0  0
  143.4166   63.1999  131.8329 C   0  0  0  0  0  0  0  0  0  0  0  0
  144.1343   62.3029  132.6150 C   0  0  0  0  0  0  0  0  0  0  0  0
  143.7142   66.2710  133.7925 N   0  0  0  0  0  0  0  0  0  0  0  0
  142.6816   66.5576  134.7093 O   0  0  0  0  0  0  0  0  0  0  0  0
  144.5587   67.3505  133.3000 O   0  0  0  0  0  0  0  0  0  0  0  0
  139.4885   60.1968  131.6931 C   0  0  0  0  0  0  0  0  0  0  0  0
  139.0359   61.9219  131.3850 S   0  0  0  0  0  0  0  0  0  0  0  0
  138.9036   62.3670  129.5712 C   0  0  0  0  0  0  0  0  0  0  0  0
  137.7030   63.0871  129.2651 O   0  0  0  0  0  0  0  0  0  0  0  0
  137.6941   64.4573  129.7642 C   0  0  0  0  0  0  0  0  0  0  0  0
  138.8889   65.3396  129.3451 C   0  0  0  0  0  0  0  0  0  0  0  0
  138.8549   66.5350  130.1737 O   0  0  0  0  0  0  0  0  0  0  0  0
  140.2224   64.5717  129.5326 C   0  0  0  0  0  0  0  0  0  0  0  0
  141.3397   65.3721  129.0402 O   0  0  0  0  0  0  0  0  0  0  0  0
  140.0727   63.1448  128.9140 C   0  0  0  0  0  0  0  0  0  0  0  0
  141.2136   62.2574  128.9473 O   0  0  0  0  0  0  0  0  0  0  0  0
  138.9167   66.2825  131.1083 H   0  0  0  0  0  0  0  0  0  0  0  0
  141.2099   65.5635  128.0982 H   0  0  0  0  0  0  0  0  0  0  0  0
  141.3993   62.0038  129.8650 H   0  0  0  0  0  0  0  0  0  0  0  0
 14 15  2  0  0  0
 14 19  1  0  0  0
 15 16  1  0  0  0
 16 20  1  0  0  0
 16 17  2  0  0  0
 20 21  1  0  0  0
 20 22  2  0  0  0
 17 18  1  0  0  0
 18 19  2  0  0  0
 19 13  1  0  0  0
 13  1  1  0  0  0
  1  2  1  0  0  0
  1  3  1  0  0  0
  2  9  1  0  0  0
  3  4  1  0  0  0
  3  5  1  0  0  0
  5  6  1  0  0  0
  5  7  1  0  0  0
  7  8  1  0  0  0
  7  9  1  0  0  0
  9 23  1  0  0  0
 23 24  1  0  0  0
 24 25  1  0  0  0
 25 26  1  0  0  0
 25 32  1  0  0  0
 26 27  1  0  0  0
 27 28  1  0  0  0
 28 29  1  0  0  0
 28 30  1  0  0  0
 30 31  1  0  0  0
 30 32  1  0  0  0
 32 33  1  0  0  0
  4 10  1  0  0  0
  6 11  1  0  0  0
  8 12  1  0  0  0
 29 34  1  0  0  0
 31 35  1  0  0  0
 33 36  1  0  0  0
M  CHG 1  20   1
M  CHG 1  21  -1
M  END
> <minimizedAffinity>
-8.03574

$$$$
