4APP_N53_A_601


 44 49  0  0  0  0  0  0  0  0999 V2000
   45.1175   23.1282   16.4511 N   0  0  0  0  0  0  0  0  0  0  0  0
   45.7046   23.9688   15.3934 C   0  0  0  0  0  0  0  0  0  0  0  0
   45.5244   23.2402   14.0137 C   0  0  0  0  0  0  0  0  0  0  0  0
   44.0749   23.0859   13.7660 N   0  0  0  0  0  0  0  0  0  0  0  0
   43.4703   22.2551   14.8434 C   0  0  0  0  0  0  0  0  0  0  0  0
   43.6644   22.9449   16.1898 C   0  0  0  0  0  0  0  0  0  0  0  0
   45.0044   22.0477   20.9889 C   0  0  0  0  0  0  0  0  0  0  0  0
   45.1689   21.3594   18.7748 C   0  0  0  0  0  0  0  0  0  0  0  0
   45.2075   22.8599   18.8760 N   0  0  0  0  0  0  0  0  0  0  0  0
   45.2129   23.3698   20.2819 C   0  0  0  0  0  0  0  0  0  0  0  0
   44.7722   21.7652   22.2742 N   0  0  0  0  0  0  0  0  0  0  0  0
   44.6505   20.3727   22.3459 N   0  0  0  0  0  0  0  0  0  0  0  0
   44.8023   19.8689   21.1020 C   0  0  0  0  0  0  0  0  0  0  0  0
   46.5417   24.0617   20.6645 C   0  0  0  0  0  0  0  0  0  0  0  0
   44.0234   24.2917   20.6300 C   0  0  0  0  0  0  0  0  0  0  0  0
   45.2136   23.6935   17.8171 C   0  0  0  0  0  0  0  0  0  0  0  0
   45.3150   24.9161   17.9703 O   0  0  0  0  0  0  0  0  0  0  0  0
   43.8090   22.5702   12.4136 C   0  0  0  0  0  0  0  0  0  0  0  0
   45.0226   20.9365   20.1861 C   0  0  0  0  0  0  0  0  0  0  0  0
   44.4830   19.8499   23.1631 H   0  0  0  0  0  0  0  0  0  0  0  0
   44.7112   18.4281   20.7394 N   0  0  0  0  0  0  0  0  0  0  0  0
   43.5854   17.8864   20.2560 C   0  0  0  0  0  0  0  0  0  0  0  0
   42.5775   18.5629   20.0834 O   0  0  0  0  0  0  0  0  0  0  0  0
   45.5031   17.8554   20.8586 H   0  0  0  0  0  0  0  0  0  0  0  0
   43.6491   16.4580   19.9372 C   0  0  0  0  0  0  0  0  0  0  0  0
   43.8000   15.5015   20.9810 C   0  0  0  0  0  0  0  0  0  0  0  0
   43.8785   14.1095   20.6677 C   0  0  0  0  0  0  0  0  0  0  0  0
   43.7857   13.6765   19.2994 C   0  0  0  0  0  0  0  0  0  0  0  0
   43.6100   14.6286   18.2569 C   0  0  0  0  0  0  0  0  0  0  0  0
   43.5356   16.0191   18.5786 C   0  0  0  0  0  0  0  0  0  0  0  0
   44.1449   13.2499   21.8162 O   0  0  0  0  0  0  0  0  0  0  0  0
   45.4424   12.9988   22.4078 C   0  0  0  0  0  0  0  0  0  0  0  0
   46.5251   13.6967   21.7851 C   0  0  0  0  0  0  0  0  0  0  0  0
   47.8302   13.6434   22.3576 C   0  0  0  0  0  0  0  0  0  0  0  0
   48.0425   12.8719   23.5426 C   0  0  0  0  0  0  0  0  0  0  0  0
   46.9788   12.1486   24.1602 C   0  0  0  0  0  0  0  0  0  0  0  0
   45.6772   12.2079   23.5887 C   0  0  0  0  0  0  0  0  0  0  0  0
   47.1619   24.3721   15.7614 C   0  0  0  0  0  0  0  0  0  0  0  0
   47.8544   25.3162   14.8563 C   0  0  0  0  0  0  0  0  0  0  0  0
   47.1529   26.3034   14.0864 C   0  0  0  0  0  0  0  0  0  0  0  0
   47.8828   27.2738   13.3354 C   0  0  0  0  0  0  0  0  0  0  0  0
   49.3121   27.2433   13.3464 C   0  0  0  0  0  0  0  0  0  0  0  0
   50.0219   26.2479   14.0955 C   0  0  0  0  0  0  0  0  0  0  0  0
   49.2862   25.2767   14.8456 C   0  0  0  0  0  0  0  0  0  0  0  0
 32 33  1  0  0  0
 32 37  2  0  0  0
 32 31  1  0  0  0
 33 34  2  0  0  0
 34 35  1  0  0  0
 35 36  2  0  0  0
 36 37  1  0  0  0
 25 26  1  0  0  0
 25 30  2  0  0  0
 25 22  1  0  0  0
 26 27  2  0  0  0
 27 28  1  0  0  0
 27 31  1  0  0  0
 28 29  2  0  0  0
 29 30  1  0  0  0
 39 40  1  0  0  0
 39 44  2  0  0  0
 39 38  1  0  0  0
 40 41  2  0  0  0
 41 42  1  0  0  0
 42 43  2  0  0  0
 43 44  1  0  0  0
  1  2  1  0  0  0
  1  6  1  0  0  0
  1 16  1  0  0  0
  2  3  1  0  0  0
  2 38  1  0  0  0
  3  4  1  0  0  0
  4  5  1  0  0  0
  4 18  1  0  0  0
  5  6  1  0  0  0
  7 10  1  0  0  0
  7 11  2  0  0  0
  7 19  1  0  0  0
  8  9  1  0  0  0
  8 19  1  0  0  0
  9 10  1  0  0  0
  9 16  1  0  0  0
 10 14  1  0  0  0
 10 15  1  0  0  0
 11 12  1  0  0  0
 12 13  1  0  0  0
 13 21  1  0  0  0
 13 19  2  0  0  0
 16 17  2  0  0  0
 21 22  1  0  0  0
 22 23  2  0  0  0
 12 20  1  0  0  0
 21 24  1  0  0  0
M  END
> <minimizedAffinity>
-10.77902

$$$$
4APP_N53_A_601


 44 49  0  0  0  0  0  0  0  0999 V2000
   45.1237   23.1021   16.4490 N   0  0  0  0  0  0  0  0  0  0  0  0
   45.7219   23.9152   15.3762 C   0  0  0  0  0  0  0  0  0  0  0  0
   45.5604   23.1490   14.0147 C   0  0  0  0  0  0  0  0  0  0  0  0
   44.1145   22.9842   13.7534 N   0  0  0  0  0  0  0  0  0  0  0  0
   43.4985   22.1814   14.8455 C   0  0  0  0  0  0  0  0  0  0  0  0
   43.6744   22.9080   16.1749 C   0  0  0  0  0  0  0  0  0  0  0  0
   44.9571   22.1447   21.0127 C   0  0  0  0  0  0  0  0  0  0  0  0
   45.1505   21.3971   18.8204 C   0  0  0  0  0  0  0  0  0  0  0  0
   45.1844   22.8999   18.8812 N   0  0  0  0  0  0  0  0  0  0  0  0
   45.1713   23.4477   20.2727 C   0  0  0  0  0  0  0  0  0  0  0  0
   44.7097   21.8967   22.3024 N   0  0  0  0  0  0  0  0  0  0  0  0
   44.5903   20.5063   22.4103 N   0  0  0  0  0  0  0  0  0  0  0  0
   44.7585   19.9694   21.1825 C   0  0  0  0  0  0  0  0  0  0  0  0
   46.4937   24.1533   20.6526 C   0  0  0  0  0  0  0  0  0  0  0  0
   43.9755   24.3756   20.5811 C   0  0  0  0  0  0  0  0  0  0  0  0
   45.2017   23.7044   17.8002 C   0  0  0  0  0  0  0  0  0  0  0  0
   45.2984   24.9310   17.9214 O   0  0  0  0  0  0  0  0  0  0  0  0
   43.8664   22.4313   12.4125 C   0  0  0  0  0  0  0  0  0  0  0  0
   44.9877   21.0123   20.2407 C   0  0  0  0  0  0  0  0  0  0  0  0
   44.4139   20.0055   23.2393 H   0  0  0  0  0  0  0  0  0  0  0  0
   44.6752   18.5190   20.8581 N   0  0  0  0  0  0  0  0  0  0  0  0
   43.5702   17.9692   20.3374 C   0  0  0  0  0  0  0  0  0  0  0  0
   42.5762   18.6457   20.0970 O   0  0  0  0  0  0  0  0  0  0  0  0
   45.4567   17.9459   21.0317 H   0  0  0  0  0  0  0  0  0  0  0  0
   43.6395   16.5318   20.0637 C   0  0  0  0  0  0  0  0  0  0  0  0
   43.7549   16.0670   18.7229 C   0  0  0  0  0  0  0  0  0  0  0  0
   43.8059   14.6642   18.4556 C   0  0  0  0  0  0  0  0  0  0  0  0
   43.7596   13.7251   19.5438 C   0  0  0  0  0  0  0  0  0  0  0  0
   43.6692   14.1878   20.8861 C   0  0  0  0  0  0  0  0  0  0  0  0
   43.6156   15.5925   21.1446 C   0  0  0  0  0  0  0  0  0  0  0  0
   43.8105   14.3233   17.0368 O   0  0  0  0  0  0  0  0  0  0  0  0
   43.1587   15.0691   15.9808 C   0  0  0  0  0  0  0  0  0  0  0  0
   44.0527   15.7280   15.0789 C   0  0  0  0  0  0  0  0  0  0  0  0
   43.5413   16.3799   13.9180 C   0  0  0  0  0  0  0  0  0  0  0  0
   42.1312   16.3821   13.6820 C   0  0  0  0  0  0  0  0  0  0  0  0
   41.2243   15.7526   14.5861 C   0  0  0  0  0  0  0  0  0  0  0  0
   41.7386   15.0993   15.7407 C   0  0  0  0  0  0  0  0  0  0  0  0
   47.1737   24.3321   15.7510 C   0  0  0  0  0  0  0  0  0  0  0  0
   47.8429   25.3218   14.8776 C   0  0  0  0  0  0  0  0  0  0  0  0
   47.1259   26.3646   14.2010 C   0  0  0  0  0  0  0  0  0  0  0  0
   47.8392   27.3703   13.4812 C   0  0  0  0  0  0  0  0  0  0  0  0
   49.2670   27.3202   13.4296 C   0  0  0  0  0  0  0  0  0  0  0  0
   49.9915   26.2704   14.0847 C   0  0  0  0  0  0  0  0  0  0  0  0
   49.2722   25.2640   14.8036 C   0  0  0  0  0  0  0  0  0  0  0  0
 32 33  1  0  0  0
 32 37  2  0  0  0
 32 31  1  0  0  0
 33 34  2  0  0  0
 34 35  1  0  0  0
 35 36  2  0  0  0
 36 37  1  0  0  0
 25 26  1  0  0  0
 25 30  2  0  0  0
 25 22  1  0  0  0
 26 27  2  0  0  0
 27 28  1  0  0  0
 27 31  1  0  0  0
 28 29  2  0  0  0
 29 30  1  0  0  0
 39 40  1  0  0  0
 39 44  2  0  0  0
 39 38  1  0  0  0
 40 41  2  0  0  0
 41 42  1  0  0  0
 42 43  2  0  0  0
 43 44  1  0  0  0
  1  2  1  0  0  0
  1  6  1  0  0  0
  1 16  1  0  0  0
  2  3  1  0  0  0
  2 38  1  0  0  0
  3  4  1  0  0  0
  4  5  1  0  0  0
  4 18  1  0  0  0
  5  6  1  0  0  0
  7 10  1  0  0  0
  7 11  2  0  0  0
  7 19  1  0  0  0
  8  9  1  0  0  0
  8 19  1  0  0  0
  9 10  1  0  0  0
  9 16  1  0  0  0
 10 14  1  0  0  0
 10 15  1  0  0  0
 11 12  1  0  0  0
 12 13  1  0  0  0
 13 21  1  0  0  0
 13 19  2  0  0  0
 16 17  2  0  0  0
 21 22  1  0  0  0
 22 23  2  0  0  0
 12 20  1  0  0  0
 21 24  1  0  0  0
M  END
> <minimizedAffinity>
-10.68887

$$$$
4APP_N53_A_601


 44 49  0  0  0  0  0  0  0  0999 V2000
   45.0630   23.0742   16.2763 N   0  0  0  0  0  0  0  0  0  0  0  0
   45.5654   23.8423   15.1241 C   0  0  0  0  0  0  0  0  0  0  0  0
   45.5841   22.9049   13.8641 C   0  0  0  0  0  0  0  0  0  0  0  0
   44.1952   22.4749   13.5956 N   0  0  0  0  0  0  0  0  0  0  0  0
   43.6728   21.7162   14.7652 C   0  0  0  0  0  0  0  0  0  0  0  0
   43.6760   22.6134   15.9986 C   0  0  0  0  0  0  0  0  0  0  0  0
   44.8689   22.6473   20.9187 C   0  0  0  0  0  0  0  0  0  0  0  0
   45.2680   21.6884   18.8393 C   0  0  0  0  0  0  0  0  0  0  0  0
   45.0575   23.1729   18.7156 N   0  0  0  0  0  0  0  0  0  0  0  0
   44.9005   23.8713   20.0287 C   0  0  0  0  0  0  0  0  0  0  0  0
   44.6129   22.5157   22.2237 N   0  0  0  0  0  0  0  0  0  0  0  0
   44.7143   21.1472   22.4992 N   0  0  0  0  0  0  0  0  0  0  0  0
   45.0160   20.5043   21.3504 C   0  0  0  0  0  0  0  0  0  0  0  0
   46.0759   24.8245   20.3460 C   0  0  0  0  0  0  0  0  0  0  0  0
   43.5597   24.6197   20.1962 C   0  0  0  0  0  0  0  0  0  0  0  0
   44.9887   23.8362   17.5446 C   0  0  0  0  0  0  0  0  0  0  0  0
   44.8820   25.0676   17.5160 O   0  0  0  0  0  0  0  0  0  0  0  0
   44.0934   21.7346   12.3279 C   0  0  0  0  0  0  0  0  0  0  0  0
   45.1122   21.4522   20.2925 C   0  0  0  0  0  0  0  0  0  0  0  0
   44.5875   20.7254   23.3797 H   0  0  0  0  0  0  0  0  0  0  0  0
   45.1800   19.0320   21.2051 N   0  0  0  0  0  0  0  0  0  0  0  0
   44.2053   18.2526   20.7182 C   0  0  0  0  0  0  0  0  0  0  0  0
   43.1316   18.7253   20.3617 O   0  0  0  0  0  0  0  0  0  0  0  0
   46.0315   18.6180   21.4752 H   0  0  0  0  0  0  0  0  0  0  0  0
   44.5150   16.8237   20.6269 C   0  0  0  0  0  0  0  0  0  0  0  0
   43.4615   15.8726   20.5147 C   0  0  0  0  0  0  0  0  0  0  0  0
   43.7638   14.4778   20.4422 C   0  0  0  0  0  0  0  0  0  0  0  0
   45.1333   14.0393   20.4635 C   0  0  0  0  0  0  0  0  0  0  0  0
   46.1886   14.9894   20.5505 C   0  0  0  0  0  0  0  0  0  0  0  0
   45.8775   16.3823   20.6258 C   0  0  0  0  0  0  0  0  0  0  0  0
   42.5917   13.6087   20.4436 O   0  0  0  0  0  0  0  0  0  0  0  0
   41.8480   13.1821   19.2769 C   0  0  0  0  0  0  0  0  0  0  0  0
   40.6302   12.4899   19.5682 C   0  0  0  0  0  0  0  0  0  0  0  0
   39.7392   12.1398   18.5110 C   0  0  0  0  0  0  0  0  0  0  0  0
   40.0883   12.4708   17.1646 C   0  0  0  0  0  0  0  0  0  0  0  0
   41.3116   13.1370   16.8552 C   0  0  0  0  0  0  0  0  0  0  0  0
   42.1958   13.4887   17.9130 C   0  0  0  0  0  0  0  0  0  0  0  0
   46.9150   24.5336   15.4745 C   0  0  0  0  0  0  0  0  0  0  0  0
   47.4197   25.5555   14.5305 C   0  0  0  0  0  0  0  0  0  0  0  0
   46.5465   26.4099   13.7776 C   0  0  0  0  0  0  0  0  0  0  0  0
   47.0900   27.4662   12.9857 C   0  0  0  0  0  0  0  0  0  0  0  0
   48.5064   27.6543   12.9392 C   0  0  0  0  0  0  0  0  0  0  0  0
   49.3884   26.7926   13.6711 C   0  0  0  0  0  0  0  0  0  0  0  0
   48.8392   25.7345   14.4622 C   0  0  0  0  0  0  0  0  0  0  0  0
 32 33  1  0  0  0
 32 37  2  0  0  0
 32 31  1  0  0  0
 33 34  2  0  0  0
 34 35  1  0  0  0
 35 36  2  0  0  0
 36 37  1  0  0  0
 25 26  1  0  0  0
 25 30  2  0  0  0
 25 22  1  0  0  0
 26 27  2  0  0  0
 27 28  1  0  0  0
 27 31  1  0  0  0
 28 29  2  0  0  0
 29 30  1  0  0  0
 39 40  1  0  0  0
 39 44  2  0  0  0
 39 38  1  0  0  0
 40 41  2  0  0  0
 41 42  1  0  0  0
 42 43  2  0  0  0
 43 44  1  0  0  0
  1  2  1  0  0  0
  1  6  1  0  0  0
  1 16  1  0  0  0
  2  3  1  0  0  0
  2 38  1  0  0  0
  3  4  1  0  0  0
  4  5  1  0  0  0
  4 18  1  0  0  0
  5  6  1  0  0  0
  7 10  1  0  0  0
  7 11  2  0  0  0
  7 19  1  0  0  0
  8  9  1  0  0  0
  8 19  1  0  0  0
  9 10  1  0  0  0
  9 16  1  0  0  0
 10 14  1  0  0  0
 10 15  1  0  0  0
 11 12  1  0  0  0
 12 13  1  0  0  0
 13 21  1  0  0  0
 13 19  2  0  0  0
 16 17  2  0  0  0
 21 22  1  0  0  0
 22 23  2  0  0  0
 12 20  1  0  0  0
 21 24  1  0  0  0
M  END
> <minimizedAffinity>
-10.65468

$$$$
4APP_N53_A_601


 44 49  0  0  0  0  0  0  0  0999 V2000
   45.1943   23.0589   16.0503 N   0  0  0  0  0  0  0  0  0  0  0  0
   45.6794   23.8983   14.9413 C   0  0  0  0  0  0  0  0  0  0  0  0
   45.6589   23.0483   13.6207 C   0  0  0  0  0  0  0  0  0  0  0  0
   44.2594   22.6513   13.3562 N   0  0  0  0  0  0  0  0  0  0  0  0
   43.7548   21.8203   14.4837 C   0  0  0  0  0  0  0  0  0  0  0  0
   43.7962   22.6318   15.7745 C   0  0  0  0  0  0  0  0  0  0  0  0
   45.1001   22.3203   20.6566 C   0  0  0  0  0  0  0  0  0  0  0  0
   45.4412   21.5007   18.5084 C   0  0  0  0  0  0  0  0  0  0  0  0
   45.2450   22.9921   18.4902 N   0  0  0  0  0  0  0  0  0  0  0  0
   45.1257   23.6014   19.8508 C   0  0  0  0  0  0  0  0  0  0  0  0
   44.8722   22.1031   21.9553 N   0  0  0  0  0  0  0  0  0  0  0  0
   44.9641   20.7181   22.1354 N   0  0  0  0  0  0  0  0  0  0  0  0
   45.2323   20.1516   20.9390 C   0  0  0  0  0  0  0  0  0  0  0  0
   46.3188   24.5192   20.2043 C   0  0  0  0  0  0  0  0  0  0  0  0
   43.7976   24.3500   20.0996 C   0  0  0  0  0  0  0  0  0  0  0  0
   45.1573   23.7339   17.3685 C   0  0  0  0  0  0  0  0  0  0  0  0
   45.0642   24.9653   17.4257 O   0  0  0  0  0  0  0  0  0  0  0  0
   44.1205   21.9996   12.0441 C   0  0  0  0  0  0  0  0  0  0  0  0
   45.3155   21.1681   19.9456 C   0  0  0  0  0  0  0  0  0  0  0  0
   44.8523   20.2389   22.9881 H   0  0  0  0  0  0  0  0  0  0  0  0
   45.3762   18.6909   20.6908 N   0  0  0  0  0  0  0  0  0  0  0  0
   44.3220   17.9072   20.4283 C   0  0  0  0  0  0  0  0  0  0  0  0
   43.1865   18.3663   20.3733 O   0  0  0  0  0  0  0  0  0  0  0  0
   46.2741   18.2884   20.7205 H   0  0  0  0  0  0  0  0  0  0  0  0
   44.6197   16.4915   20.1979 C   0  0  0  0  0  0  0  0  0  0  0  0
   43.8358   15.4866   20.8324 C   0  0  0  0  0  0  0  0  0  0  0  0
   44.1373   14.1060   20.6201 C   0  0  0  0  0  0  0  0  0  0  0  0
   45.2205   13.7345   19.7502 C   0  0  0  0  0  0  0  0  0  0  0  0
   45.9896   14.7365   19.0955 C   0  0  0  0  0  0  0  0  0  0  0  0
   45.6835   16.1151   19.3158 C   0  0  0  0  0  0  0  0  0  0  0  0
   43.3309   13.1862   21.4157 O   0  0  0  0  0  0  0  0  0  0  0  0
   43.0489   11.8036   21.0913 C   0  0  0  0  0  0  0  0  0  0  0  0
   42.1484   11.6217   19.9945 C   0  0  0  0  0  0  0  0  0  0  0  0
   41.8979   10.3123   19.4879 C   0  0  0  0  0  0  0  0  0  0  0  0
   42.5398    9.1913   20.1008 C   0  0  0  0  0  0  0  0  0  0  0  0
   43.4196    9.3536   21.2124 C   0  0  0  0  0  0  0  0  0  0  0  0
   43.6706   10.6620   21.7121 C   0  0  0  0  0  0  0  0  0  0  0  0
   47.0444   24.5508   15.3060 C   0  0  0  0  0  0  0  0  0  0  0  0
   47.4754   25.7173   14.5037 C   0  0  0  0  0  0  0  0  0  0  0  0
   48.8481   26.1247   14.4087 C   0  0  0  0  0  0  0  0  0  0  0  0
   49.2211   27.1731   13.5142 C   0  0  0  0  0  0  0  0  0  0  0  0
   48.2165   27.8193   12.7286 C   0  0  0  0  0  0  0  0  0  0  0  0
   46.8393   27.4337   12.8320 C   0  0  0  0  0  0  0  0  0  0  0  0
   46.4701   26.3835   13.7309 C   0  0  0  0  0  0  0  0  0  0  0  0
 32 33  1  0  0  0
 32 37  2  0  0  0
 32 31  1  0  0  0
 33 34  2  0  0  0
 34 35  1  0  0  0
 35 36  2  0  0  0
 36 37  1  0  0  0
 25 26  1  0  0  0
 25 30  2  0  0  0
 25 22  1  0  0  0
 26 27  2  0  0  0
 27 28  1  0  0  0
 27 31  1  0  0  0
 28 29  2  0  0  0
 29 30  1  0  0  0
 39 40  1  0  0  0
 39 44  2  0  0  0
 39 38  1  0  0  0
 40 41  2  0  0  0
 41 42  1  0  0  0
 42 43  2  0  0  0
 43 44  1  0  0  0
  1  2  1  0  0  0
  1  6  1  0  0  0
  1 16  1  0  0  0
  2  3  1  0  0  0
  2 38  1  0  0  0
  3  4  1  0  0  0
  4  5  1  0  0  0
  4 18  1  0  0  0
  5  6  1  0  0  0
  7 10  1  0  0  0
  7 11  2  0  0  0
  7 19  1  0  0  0
  8  9  1  0  0  0
  8 19  1  0  0  0
  9 10  1  0  0  0
  9 16  1  0  0  0
 10 14  1  0  0  0
 10 15  1  0  0  0
 11 12  1  0  0  0
 12 13  1  0  0  0
 13 21  1  0  0  0
 13 19  2  0  0  0
 16 17  2  0  0  0
 21 22  1  0  0  0
 22 23  2  0  0  0
 12 20  1  0  0  0
 21 24  1  0  0  0
M  END
> <minimizedAffinity>
-10.29692

$$$$
4APP_N53_A_601


 44 49  0  0  0  0  0  0  0  0999 V2000
   43.9472   17.6575   17.8201 N   0  0  0  0  0  0  0  0  0  0  0  0
   44.7023   16.9613   18.8761 C   0  0  0  0  0  0  0  0  0  0  0  0
   45.1775   18.0190   19.9355 C   0  0  0  0  0  0  0  0  0  0  0  0
   43.9748   18.6436   20.5266 N   0  0  0  0  0  0  0  0  0  0  0  0
   43.1947   19.3311   19.4611 C   0  0  0  0  0  0  0  0  0  0  0  0
   42.7518   18.3132   18.4152 C   0  0  0  0  0  0  0  0  0  0  0  0
   42.4134   17.6043   13.4137 C   0  0  0  0  0  0  0  0  0  0  0  0
   43.4967   18.7241   15.1386 C   0  0  0  0  0  0  0  0  0  0  0  0
   43.2051   17.2989   15.5221 N   0  0  0  0  0  0  0  0  0  0  0  0
   42.6033   16.4884   14.4187 C   0  0  0  0  0  0  0  0  0  0  0  0
   41.7919   17.6257   12.2309 N   0  0  0  0  0  0  0  0  0  0  0  0
   41.9244   18.9336   11.7505 N   0  0  0  0  0  0  0  0  0  0  0  0
   42.6099   19.6539   12.6647 C   0  0  0  0  0  0  0  0  0  0  0  0
   43.5432   15.3687   13.9149 C   0  0  0  0  0  0  0  0  0  0  0  0
   41.2141   15.8978   14.7464 C   0  0  0  0  0  0  0  0  0  0  0  0
   43.4319   16.7788   16.7444 C   0  0  0  0  0  0  0  0  0  0  0  0
   43.2324   15.5803   16.9730 O   0  0  0  0  0  0  0  0  0  0  0  0
   44.3207   19.5226   21.6550 C   0  0  0  0  0  0  0  0  0  0  0  0
   42.9352   18.8204   13.7721 C   0  0  0  0  0  0  0  0  0  0  0  0
   41.5775   19.2708   10.8931 H   0  0  0  0  0  0  0  0  0  0  0  0
   42.9366   21.1017   12.5511 N   0  0  0  0  0  0  0  0  0  0  0  0
   44.1217   21.5295   12.0961 C   0  0  0  0  0  0  0  0  0  0  0  0
   44.9904   20.7392   11.7438 O   0  0  0  0  0  0  0  0  0  0  0  0
   42.2607   21.7655   12.8188 H   0  0  0  0  0  0  0  0  0  0  0  0
   44.2956   22.9827   12.0335 C   0  0  0  0  0  0  0  0  0  0  0  0
   45.0365   23.6554   13.0461 C   0  0  0  0  0  0  0  0  0  0  0  0
   45.1917   25.0749   12.9931 C   0  0  0  0  0  0  0  0  0  0  0  0
   44.6149   25.8189   11.9059 C   0  0  0  0  0  0  0  0  0  0  0  0
   43.8951   25.1460   10.8796 C   0  0  0  0  0  0  0  0  0  0  0  0
   43.7418   23.7264   10.9419 C   0  0  0  0  0  0  0  0  0  0  0  0
   45.8747   25.6477   14.1484 O   0  0  0  0  0  0  0  0  0  0  0  0
   47.3003   25.8703   14.2693 C   0  0  0  0  0  0  0  0  0  0  0  0
   47.9879   24.9022   15.0673 C   0  0  0  0  0  0  0  0  0  0  0  0
   49.4114   24.9295   15.1513 C   0  0  0  0  0  0  0  0  0  0  0  0
   50.1335   25.9432   14.4476 C   0  0  0  0  0  0  0  0  0  0  0  0
   49.4607   26.9320   13.6693 C   0  0  0  0  0  0  0  0  0  0  0  0
   48.0408   26.8987   13.5843 C   0  0  0  0  0  0  0  0  0  0  0  0
   45.8205   16.0749   18.2549 C   0  0  0  0  0  0  0  0  0  0  0  0
   46.4458   15.0583   19.1298 C   0  0  0  0  0  0  0  0  0  0  0  0
   46.2234   15.0165   20.5468 C   0  0  0  0  0  0  0  0  0  0  0  0
   46.7436   13.9344   21.3194 C   0  0  0  0  0  0  0  0  0  0  0  0
   47.4967   12.9057   20.6726 C   0  0  0  0  0  0  0  0  0  0  0  0
   47.7425   12.9496   19.2606 C   0  0  0  0  0  0  0  0  0  0  0  0
   47.2203   14.0367   18.4908 C   0  0  0  0  0  0  0  0  0  0  0  0
 32 33  1  0  0  0
 32 37  2  0  0  0
 32 31  1  0  0  0
 33 34  2  0  0  0
 34 35  1  0  0  0
 35 36  2  0  0  0
 36 37  1  0  0  0
 25 26  1  0  0  0
 25 30  2  0  0  0
 25 22  1  0  0  0
 26 27  2  0  0  0
 27 28  1  0  0  0
 27 31  1  0  0  0
 28 29  2  0  0  0
 29 30  1  0  0  0
 39 40  1  0  0  0
 39 44  2  0  0  0
 39 38  1  0  0  0
 40 41  2  0  0  0
 41 42  1  0  0  0
 42 43  2  0  0  0
 43 44  1  0  0  0
  1  2  1  0  0  0
  1  6  1  0  0  0
  1 16  1  0  0  0
  2  3  1  0  0  0
  2 38  1  0  0  0
  3  4  1  0  0  0
  4  5  1  0  0  0
  4 18  1  0  0  0
  5  6  1  0  0  0
  7 10  1  0  0  0
  7 11  2  0  0  0
  7 19  1  0  0  0
  8  9  1  0  0  0
  8 19  1  0  0  0
  9 10  1  0  0  0
  9 16  1  0  0  0
 10 14  1  0  0  0
 10 15  1  0  0  0
 11 12  1  0  0  0
 12 13  1  0  0  0
 13 21  1  0  0  0
 13 19  2  0  0  0
 16 17  2  0  0  0
 21 22  1  0  0  0
 22 23  2  0  0  0
 12 20  1  0  0  0
 21 24  1  0  0  0
M  END
> <minimizedAffinity>
-9.66710

$$$$
4APP_N53_A_601


 44 49  0  0  0  0  0  0  0  0999 V2000
   43.4189   19.0661   11.4251 N   0  0  0  0  0  0  0  0  0  0  0  0
   43.4736   17.8824   10.5500 C   0  0  0  0  0  0  0  0  0  0  0  0
   43.1680   16.6053   11.4116 C   0  0  0  0  0  0  0  0  0  0  0  0
   41.8024   16.7428   11.9615 N   0  0  0  0  0  0  0  0  0  0  0  0
   41.7335   17.9500   12.8301 C   0  0  0  0  0  0  0  0  0  0  0  0
   42.0546   19.1918   12.0049 C   0  0  0  0  0  0  0  0  0  0  0  0
   44.7250   23.4915   12.1192 C   0  0  0  0  0  0  0  0  0  0  0  0
   44.5239   21.3189   12.9202 C   0  0  0  0  0  0  0  0  0  0  0  0
   44.1716   21.3883   11.4593 N   0  0  0  0  0  0  0  0  0  0  0  0
   44.3814   22.7387   10.8518 C   0  0  0  0  0  0  0  0  0  0  0  0
   44.9024   24.7966   12.3457 N   0  0  0  0  0  0  0  0  0  0  0  0
   45.1902   24.9142   13.7104 N   0  0  0  0  0  0  0  0  0  0  0  0
   45.1646   23.6796   14.2574 C   0  0  0  0  0  0  0  0  0  0  0  0
   45.5199   22.7560    9.8057 C   0  0  0  0  0  0  0  0  0  0  0  0
   43.1074   23.3714   10.2495 C   0  0  0  0  0  0  0  0  0  0  0  0
   43.6879   20.3538   10.7438 C   0  0  0  0  0  0  0  0  0  0  0  0
   43.4832   20.4607    9.5292 O   0  0  0  0  0  0  0  0  0  0  0  0
   41.3652   15.5116   12.6387 C   0  0  0  0  0  0  0  0  0  0  0  0
   44.8507   22.7250   13.2488 C   0  0  0  0  0  0  0  0  0  0  0  0
   45.3790   25.7533   14.1895 H   0  0  0  0  0  0  0  0  0  0  0  0
   45.3876   23.3705   15.6963 N   0  0  0  0  0  0  0  0  0  0  0  0
   45.7528   24.3112   16.5773 C   0  0  0  0  0  0  0  0  0  0  0  0
   45.9119   25.4772   16.2330 O   0  0  0  0  0  0  0  0  0  0  0  0
   45.2628   22.4458   16.0103 H   0  0  0  0  0  0  0  0  0  0  0  0
   45.9275   23.8590   17.9596 C   0  0  0  0  0  0  0  0  0  0  0  0
   45.2928   22.6644   18.4036 C   0  0  0  0  0  0  0  0  0  0  0  0
   45.4504   22.2328   19.7567 C   0  0  0  0  0  0  0  0  0  0  0  0
   46.2660   22.9965   20.6622 C   0  0  0  0  0  0  0  0  0  0  0  0
   46.9213   24.1771   20.2141 C   0  0  0  0  0  0  0  0  0  0  0  0
   46.7558   24.6035   18.8601 C   0  0  0  0  0  0  0  0  0  0  0  0
   44.6583   21.0589   20.1084 O   0  0  0  0  0  0  0  0  0  0  0  0
   44.9949   19.6838   19.8050 C   0  0  0  0  0  0  0  0  0  0  0  0
   44.6019   18.7404   20.8063 C   0  0  0  0  0  0  0  0  0  0  0  0
   44.7513   17.3425   20.5660 C   0  0  0  0  0  0  0  0  0  0  0  0
   45.3138   16.9027   19.3273 C   0  0  0  0  0  0  0  0  0  0  0  0
   45.7354   17.8318   18.3297 C   0  0  0  0  0  0  0  0  0  0  0  0
   45.5805   19.2254   18.5712 C   0  0  0  0  0  0  0  0  0  0  0  0
   44.8075   17.8560    9.7488 C   0  0  0  0  0  0  0  0  0  0  0  0
   45.9606   17.1689   10.3721 C   0  0  0  0  0  0  0  0  0  0  0  0
   46.4571   15.9086    9.8982 C   0  0  0  0  0  0  0  0  0  0  0  0
   47.6533   15.3593   10.4511 C   0  0  0  0  0  0  0  0  0  0  0  0
   48.3401   16.0668   11.4863 C   0  0  0  0  0  0  0  0  0  0  0  0
   47.8404   17.3164   11.9812 C   0  0  0  0  0  0  0  0  0  0  0  0
   46.6405   17.8622   11.4250 C   0  0  0  0  0  0  0  0  0  0  0  0
 32 33  1  0  0  0
 32 37  2  0  0  0
 32 31  1  0  0  0
 33 34  2  0  0  0
 34 35  1  0  0  0
 35 36  2  0  0  0
 36 37  1  0  0  0
 25 26  1  0  0  0
 25 30  2  0  0  0
 25 22  1  0  0  0
 26 27  2  0  0  0
 27 28  1  0  0  0
 27 31  1  0  0  0
 28 29  2  0  0  0
 29 30  1  0  0  0
 39 40  1  0  0  0
 39 44  2  0  0  0
 39 38  1  0  0  0
 40 41  2  0  0  0
 41 42  1  0  0  0
 42 43  2  0  0  0
 43 44  1  0  0  0
  1  2  1  0  0  0
  1  6  1  0  0  0
  1 16  1  0  0  0
  2  3  1  0  0  0
  2 38  1  0  0  0
  3  4  1  0  0  0
  4  5  1  0  0  0
  4 18  1  0  0  0
  5  6  1  0  0  0
  7 10  1  0  0  0
  7 11  2  0  0  0
  7 19  1  0  0  0
  8  9  1  0  0  0
  8 19  1  0  0  0
  9 10  1  0  0  0
  9 16  1  0  0  0
 10 14  1  0  0  0
 10 15  1  0  0  0
 11 12  1  0  0  0
 12 13  1  0  0  0
 13 21  1  0  0  0
 13 19  2  0  0  0
 16 17  2  0  0  0
 21 22  1  0  0  0
 22 23  2  0  0  0
 12 20  1  0  0  0
 21 24  1  0  0  0
M  END
> <minimizedAffinity>
-9.47436

$$$$
4APP_N53_A_601


 44 49  0  0  0  0  0  0  0  0999 V2000
   44.3328   16.4112   14.7371 N   0  0  0  0  0  0  0  0  0  0  0  0
   43.9283   15.9040   13.4146 C   0  0  0  0  0  0  0  0  0  0  0  0
   44.1799   17.0275   12.3463 C   0  0  0  0  0  0  0  0  0  0  0  0
   45.6279   17.3266   12.3322 N   0  0  0  0  0  0  0  0  0  0  0  0
   46.0487   17.8194   13.6726 C   0  0  0  0  0  0  0  0  0  0  0  0
   45.7831   16.7421   14.7191 C   0  0  0  0  0  0  0  0  0  0  0  0
   43.9029   16.0588   19.3699 C   0  0  0  0  0  0  0  0  0  0  0  0
   43.8987   17.3805   17.4579 C   0  0  0  0  0  0  0  0  0  0  0  0
   43.9807   15.9210   17.1026 N   0  0  0  0  0  0  0  0  0  0  0  0
   43.8808   15.0066   18.2819 C   0  0  0  0  0  0  0  0  0  0  0  0
   43.9815   15.9471   20.6992 N   0  0  0  0  0  0  0  0  0  0  0  0
   43.9741   17.2556   21.1960 N   0  0  0  0  0  0  0  0  0  0  0  0
   43.9028   18.1064   20.1495 C   0  0  0  0  0  0  0  0  0  0  0  0
   42.5858   14.1616   18.2783 C   0  0  0  0  0  0  0  0  0  0  0  0
   45.1056   14.0867   18.4805 C   0  0  0  0  0  0  0  0  0  0  0  0
   44.1517   15.4516   15.8511 C   0  0  0  0  0  0  0  0  0  0  0  0
   44.1423   14.2370   15.6202 O   0  0  0  0  0  0  0  0  0  0  0  0
   45.9803   18.2439   11.2368 C   0  0  0  0  0  0  0  0  0  0  0  0
   43.8676   17.3594   18.9379 C   0  0  0  0  0  0  0  0  0  0  0  0
   44.0140   17.5119   22.1457 H   0  0  0  0  0  0  0  0  0  0  0  0
   43.9037   19.5918   20.2457 N   0  0  0  0  0  0  0  0  0  0  0  0
   44.9073   20.2663   20.8221 C   0  0  0  0  0  0  0  0  0  0  0  0
   45.8786   19.6831   21.2910 O   0  0  0  0  0  0  0  0  0  0  0  0
   43.1429   20.0942   19.8742 H   0  0  0  0  0  0  0  0  0  0  0  0
   44.7724   21.7249   20.8357 C   0  0  0  0  0  0  0  0  0  0  0  0
   45.2656   22.4958   19.7450 C   0  0  0  0  0  0  0  0  0  0  0  0
   45.1482   23.9197   19.7666 C   0  0  0  0  0  0  0  0  0  0  0  0
   44.5147   24.5698   20.8821 C   0  0  0  0  0  0  0  0  0  0  0  0
   43.9990   23.7999   21.9616 C   0  0  0  0  0  0  0  0  0  0  0  0
   44.1232   22.3764   21.9336 C   0  0  0  0  0  0  0  0  0  0  0  0
   45.7930   24.5923   18.6436 O   0  0  0  0  0  0  0  0  0  0  0  0
   45.6327   24.2551   17.2447 C   0  0  0  0  0  0  0  0  0  0  0  0
   46.7781   24.5281   16.4320 C   0  0  0  0  0  0  0  0  0  0  0  0
   46.7982   24.1148   15.0672 C   0  0  0  0  0  0  0  0  0  0  0  0
   45.6575   23.4467   14.5225 C   0  0  0  0  0  0  0  0  0  0  0  0
   44.4971   23.1911   15.3126 C   0  0  0  0  0  0  0  0  0  0  0  0
   44.4826   23.6009   16.6751 C   0  0  0  0  0  0  0  0  0  0  0  0
   42.4823   15.3310   13.4676 C   0  0  0  0  0  0  0  0  0  0  0  0
   42.0411   14.4946   12.3293 C   0  0  0  0  0  0  0  0  0  0  0  0
   41.0064   14.9059   11.4239 C   0  0  0  0  0  0  0  0  0  0  0  0
   40.7164   14.1207   10.2674 C   0  0  0  0  0  0  0  0  0  0  0  0
   41.4534   12.9191   10.0291 C   0  0  0  0  0  0  0  0  0  0  0  0
   42.4746   12.4886   10.9391 C   0  0  0  0  0  0  0  0  0  0  0  0
   42.7607   13.2781   12.0974 C   0  0  0  0  0  0  0  0  0  0  0  0
 32 33  1  0  0  0
 32 37  2  0  0  0
 32 31  1  0  0  0
 33 34  2  0  0  0
 34 35  1  0  0  0
 35 36  2  0  0  0
 36 37  1  0  0  0
 25 26  1  0  0  0
 25 30  2  0  0  0
 25 22  1  0  0  0
 26 27  2  0  0  0
 27 28  1  0  0  0
 27 31  1  0  0  0
 28 29  2  0  0  0
 29 30  1  0  0  0
 39 40  1  0  0  0
 39 44  2  0  0  0
 39 38  1  0  0  0
 40 41  2  0  0  0
 41 42  1  0  0  0
 42 43  2  0  0  0
 43 44  1  0  0  0
  1  2  1  0  0  0
  1  6  1  0  0  0
  1 16  1  0  0  0
  2  3  1  0  0  0
  2 38  1  0  0  0
  3  4  1  0  0  0
  4  5  1  0  0  0
  4 18  1  0  0  0
  5  6  1  0  0  0
  7 10  1  0  0  0
  7 11  2  0  0  0
  7 19  1  0  0  0
  8  9  1  0  0  0
  8 19  1  0  0  0
  9 10  1  0  0  0
  9 16  1  0  0  0
 10 14  1  0  0  0
 10 15  1  0  0  0
 11 12  1  0  0  0
 12 13  1  0  0  0
 13 21  1  0  0  0
 13 19  2  0  0  0
 16 17  2  0  0  0
 21 22  1  0  0  0
 22 23  2  0  0  0
 12 20  1  0  0  0
 21 24  1  0  0  0
M  END
> <minimizedAffinity>
-9.21245

$$$$
4APP_N53_A_601


 44 49  0  0  0  0  0  0  0  0999 V2000
   44.9776   13.7120   15.4237 N   0  0  0  0  0  0  0  0  0  0  0  0
   44.7357   12.8630   14.2444 C   0  0  0  0  0  0  0  0  0  0  0  0
   45.4773   13.4921   13.0111 C   0  0  0  0  0  0  0  0  0  0  0  0
   46.9250   13.5102   13.3107 N   0  0  0  0  0  0  0  0  0  0  0  0
   47.1750   14.3491   14.5150 C   0  0  0  0  0  0  0  0  0  0  0  0
   46.4364   13.7577   15.7113 C   0  0  0  0  0  0  0  0  0  0  0  0
   43.5368   15.0425   19.6576 C   0  0  0  0  0  0  0  0  0  0  0  0
   44.2590   15.6116   17.5228 C   0  0  0  0  0  0  0  0  0  0  0  0
   44.0376   14.1280   17.6382 N   0  0  0  0  0  0  0  0  0  0  0  0
   43.4701   13.7034   18.9551 C   0  0  0  0  0  0  0  0  0  0  0  0
   43.3117   15.3792   20.9311 N   0  0  0  0  0  0  0  0  0  0  0  0
   43.5363   16.7585   21.0095 N   0  0  0  0  0  0  0  0  0  0  0  0
   43.8987   17.1996   19.7855 C   0  0  0  0  0  0  0  0  0  0  0  0
   42.0317   13.1484   18.8379 C   0  0  0  0  0  0  0  0  0  0  0  0
   44.3535   12.7073   19.7383 C   0  0  0  0  0  0  0  0  0  0  0  0
   44.3351   13.2375   16.6715 C   0  0  0  0  0  0  0  0  0  0  0  0
   44.0642   12.0387   16.8055 O   0  0  0  0  0  0  0  0  0  0  0  0
   47.7149   13.9220   12.1394 C   0  0  0  0  0  0  0  0  0  0  0  0
   43.9224   16.1025   18.8784 C   0  0  0  0  0  0  0  0  0  0  0  0
   43.4456   17.3123   21.8184 H   0  0  0  0  0  0  0  0  0  0  0  0
   44.2579   18.6042   19.4479 N   0  0  0  0  0  0  0  0  0  0  0  0
   44.9691   19.3759   20.2804 C   0  0  0  0  0  0  0  0  0  0  0  0
   45.3638   18.9506   21.3605 O   0  0  0  0  0  0  0  0  0  0  0  0
   43.9635   18.9777   18.5859 H   0  0  0  0  0  0  0  0  0  0  0  0
   45.2521   20.7336   19.8086 C   0  0  0  0  0  0  0  0  0  0  0  0
   45.0722   21.0620   18.4350 C   0  0  0  0  0  0  0  0  0  0  0  0
   45.3642   22.3822   17.9726 C   0  0  0  0  0  0  0  0  0  0  0  0
   45.8210   23.3818   18.9001 C   0  0  0  0  0  0  0  0  0  0  0  0
   45.9778   23.0627   20.2776 C   0  0  0  0  0  0  0  0  0  0  0  0
   45.6866   21.7391   20.7313 C   0  0  0  0  0  0  0  0  0  0  0  0
   45.2449   22.5524   16.5282 O   0  0  0  0  0  0  0  0  0  0  0  0
   44.7224   21.5745   15.5970 C   0  0  0  0  0  0  0  0  0  0  0  0
   43.3034   21.6206   15.4199 C   0  0  0  0  0  0  0  0  0  0  0  0
   42.6822   20.8046   14.4288 C   0  0  0  0  0  0  0  0  0  0  0  0
   43.4904   19.9322   13.6351 C   0  0  0  0  0  0  0  0  0  0  0  0
   44.9034   19.8550   13.8179 C   0  0  0  0  0  0  0  0  0  0  0  0
   45.5201   20.6740   14.8046 C   0  0  0  0  0  0  0  0  0  0  0  0
   43.2122   12.6050   14.0597 C   0  0  0  0  0  0  0  0  0  0  0  0
   42.3915   13.7235   13.5444 C   0  0  0  0  0  0  0  0  0  0  0  0
   42.0040   14.8376   14.3616 C   0  0  0  0  0  0  0  0  0  0  0  0
   41.3280   15.9509   13.7767 C   0  0  0  0  0  0  0  0  0  0  0  0
   41.0298   15.9382   12.3786 C   0  0  0  0  0  0  0  0  0  0  0  0
   41.3940   14.8203   11.5577 C   0  0  0  0  0  0  0  0  0  0  0  0
   42.0701   13.7064   12.1487 C   0  0  0  0  0  0  0  0  0  0  0  0
 32 33  1  0  0  0
 32 37  2  0  0  0
 32 31  1  0  0  0
 33 34  2  0  0  0
 34 35  1  0  0  0
 35 36  2  0  0  0
 36 37  1  0  0  0
 25 26  1  0  0  0
 25 30  2  0  0  0
 25 22  1  0  0  0
 26 27  2  0  0  0
 27 28  1  0  0  0
 27 31  1  0  0  0
 28 29  2  0  0  0
 29 30  1  0  0  0
 39 40  1  0  0  0
 39 44  2  0  0  0
 39 38  1  0  0  0
 40 41  2  0  0  0
 41 42  1  0  0  0
 42 43  2  0  0  0
 43 44  1  0  0  0
  1  2  1  0  0  0
  1  6  1  0  0  0
  1 16  1  0  0  0
  2  3  1  0  0  0
  2 38  1  0  0  0
  3  4  1  0  0  0
  4  5  1  0  0  0
  4 18  1  0  0  0
  5  6  1  0  0  0
  7 10  1  0  0  0
  7 11  2  0  0  0
  7 19  1  0  0  0
  8  9  1  0  0  0
  8 19  1  0  0  0
  9 10  1  0  0  0
  9 16  1  0  0  0
 10 14  1  0  0  0
 10 15  1  0  0  0
 11 12  1  0  0  0
 12 13  1  0  0  0
 13 21  1  0  0  0
 13 19  2  0  0  0
 16 17  2  0  0  0
 21 22  1  0  0  0
 22 23  2  0  0  0
 12 20  1  0  0  0
 21 24  1  0  0  0
M  END
> <minimizedAffinity>
-9.06046

$$$$
4APP_N53_A_601


 44 49  0  0  0  0  0  0  0  0999 V2000
   44.0682   17.3517   18.7206 N   0  0  0  0  0  0  0  0  0  0  0  0
   44.6631   16.9173   19.9963 C   0  0  0  0  0  0  0  0  0  0  0  0
   45.1487   18.1870   20.7830 C   0  0  0  0  0  0  0  0  0  0  0  0
   43.9670   19.0319   21.0584 N   0  0  0  0  0  0  0  0  0  0  0  0
   43.3472   19.4571   19.7732 C   0  0  0  0  0  0  0  0  0  0  0  0
   42.8963   18.2270   18.9923 C   0  0  0  0  0  0  0  0  0  0  0  0
   42.9052   16.2111   14.3481 C   0  0  0  0  0  0  0  0  0  0  0  0
   43.9451   17.6783   15.8207 C   0  0  0  0  0  0  0  0  0  0  0  0
   43.4871   16.4353   16.5336 N   0  0  0  0  0  0  0  0  0  0  0  0
   42.9033   15.3999   15.6261 C   0  0  0  0  0  0  0  0  0  0  0  0
   42.3883   15.9539   13.1429 N   0  0  0  0  0  0  0  0  0  0  0  0
   42.6852   17.0693   12.3513 N   0  0  0  0  0  0  0  0  0  0  0  0
   43.3589   17.9608   13.1100 C   0  0  0  0  0  0  0  0  0  0  0  0
   43.7695   14.1221   15.5374 C   0  0  0  0  0  0  0  0  0  0  0  0
   41.4415   15.0199   15.9498 C   0  0  0  0  0  0  0  0  0  0  0  0
   43.5612   16.2523   17.8667 C   0  0  0  0  0  0  0  0  0  0  0  0
   43.2293   15.1782   18.3810 O   0  0  0  0  0  0  0  0  0  0  0  0
   44.3015   20.1579   21.9448 C   0  0  0  0  0  0  0  0  0  0  0  0
   43.5101   17.4389   14.4259 C   0  0  0  0  0  0  0  0  0  0  0  0
   42.4442   17.1844   11.4037 H   0  0  0  0  0  0  0  0  0  0  0  0
   43.8317   19.2965   12.6536 N   0  0  0  0  0  0  0  0  0  0  0  0
   42.9841   20.2464   12.2367 C   0  0  0  0  0  0  0  0  0  0  0  0
   41.7730   20.0556   12.2213 O   0  0  0  0  0  0  0  0  0  0  0  0
   44.7974   19.4878   12.6584 H   0  0  0  0  0  0  0  0  0  0  0  0
   43.5953   21.5125   11.8251 C   0  0  0  0  0  0  0  0  0  0  0  0
   44.1407   22.3911   12.8037 C   0  0  0  0  0  0  0  0  0  0  0  0
   44.7219   23.6334   12.4029 C   0  0  0  0  0  0  0  0  0  0  0  0
   44.7718   23.9848   11.0092 C   0  0  0  0  0  0  0  0  0  0  0  0
   44.2497   23.0973   10.0274 C   0  0  0  0  0  0  0  0  0  0  0  0
   43.6672   21.8581   10.4371 C   0  0  0  0  0  0  0  0  0  0  0  0
   45.1399   24.4858   13.5110 O   0  0  0  0  0  0  0  0  0  0  0  0
   45.9741   25.6649   13.4092 C   0  0  0  0  0  0  0  0  0  0  0  0
   45.4163   26.7220   12.6229 C   0  0  0  0  0  0  0  0  0  0  0  0
   46.0745   27.9856   12.5585 C   0  0  0  0  0  0  0  0  0  0  0  0
   47.3007   28.1719   13.2698 C   0  0  0  0  0  0  0  0  0  0  0  0
   47.8836   27.1190   14.0364 C   0  0  0  0  0  0  0  0  0  0  0  0
   47.2217   25.8612   14.1020 C   0  0  0  0  0  0  0  0  0  0  0  0
   45.7383   15.8191   19.7522 C   0  0  0  0  0  0  0  0  0  0  0  0
   45.8308   14.7265   20.7460 C   0  0  0  0  0  0  0  0  0  0  0  0
   47.0837   14.2634   21.2706 C   0  0  0  0  0  0  0  0  0  0  0  0
   47.1040   13.3009   22.3250 C   0  0  0  0  0  0  0  0  0  0  0  0
   45.8702   12.7950   22.8404 C   0  0  0  0  0  0  0  0  0  0  0  0
   44.6136   13.2356   22.3084 C   0  0  0  0  0  0  0  0  0  0  0  0
   44.5984   14.1992   21.2509 C   0  0  0  0  0  0  0  0  0  0  0  0
 32 33  1  0  0  0
 32 37  2  0  0  0
 32 31  1  0  0  0
 33 34  2  0  0  0
 34 35  1  0  0  0
 35 36  2  0  0  0
 36 37  1  0  0  0
 25 26  1  0  0  0
 25 30  2  0  0  0
 25 22  1  0  0  0
 26 27  2  0  0  0
 27 28  1  0  0  0
 27 31  1  0  0  0
 28 29  2  0  0  0
 29 30  1  0  0  0
 39 40  1  0  0  0
 39 44  2  0  0  0
 39 38  1  0  0  0
 40 41  2  0  0  0
 41 42  1  0  0  0
 42 43  2  0  0  0
 43 44  1  0  0  0
  1  2  1  0  0  0
  1  6  1  0  0  0
  1 16  1  0  0  0
  2  3  1  0  0  0
  2 38  1  0  0  0
  3  4  1  0  0  0
  4  5  1  0  0  0
  4 18  1  0  0  0
  5  6  1  0  0  0
  7 10  1  0  0  0
  7 11  2  0  0  0
  7 19  1  0  0  0
  8  9  1  0  0  0
  8 19  1  0  0  0
  9 10  1  0  0  0
  9 16  1  0  0  0
 10 14  1  0  0  0
 10 15  1  0  0  0
 11 12  1  0  0  0
 12 13  1  0  0  0
 13 21  1  0  0  0
 13 19  2  0  0  0
 16 17  2  0  0  0
 21 22  1  0  0  0
 22 23  2  0  0  0
 12 20  1  0  0  0
 21 24  1  0  0  0
M  END
> <minimizedAffinity>
-8.90640

$$$$
4APP_N53_A_601


 44 49  0  0  0  0  0  0  0  0999 V2000
   44.0874   17.3511   18.7317 N   0  0  0  0  0  0  0  0  0  0  0  0
   44.6707   16.8941   20.0049 C   0  0  0  0  0  0  0  0  0  0  0  0
   45.1079   18.1516   20.8381 C   0  0  0  0  0  0  0  0  0  0  0  0
   43.8993   18.9566   21.1162 N   0  0  0  0  0  0  0  0  0  0  0  0
   43.2916   19.4041   19.8328 C   0  0  0  0  0  0  0  0  0  0  0  0
   42.8879   18.1868   19.0072 C   0  0  0  0  0  0  0  0  0  0  0  0
   43.0343   16.3132   14.3062 C   0  0  0  0  0  0  0  0  0  0  0  0
   44.0080   17.7620   15.8410 C   0  0  0  0  0  0  0  0  0  0  0  0
   43.5706   16.4864   16.5079 N   0  0  0  0  0  0  0  0  0  0  0  0
   43.0310   15.4640   15.5591 C   0  0  0  0  0  0  0  0  0  0  0  0
   42.5463   16.0792   13.0843 N   0  0  0  0  0  0  0  0  0  0  0  0
   42.8275   17.2255   12.3320 N   0  0  0  0  0  0  0  0  0  0  0  0
   43.4634   18.1109   13.1294 C   0  0  0  0  0  0  0  0  0  0  0  0
   43.9326   14.2126   15.4488 C   0  0  0  0  0  0  0  0  0  0  0  0
   41.5743   15.0363   15.8438 C   0  0  0  0  0  0  0  0  0  0  0  0
   43.6255   16.2652   17.8361 C   0  0  0  0  0  0  0  0  0  0  0  0
   43.3132   15.1676   18.3119 O   0  0  0  0  0  0  0  0  0  0  0  0
   44.1876   20.0636   22.0419 C   0  0  0  0  0  0  0  0  0  0  0  0
   43.6047   17.5536   14.4319 C   0  0  0  0  0  0  0  0  0  0  0  0
   42.6006   17.3628   11.3839 H   0  0  0  0  0  0  0  0  0  0  0  0
   43.9084   19.4717   12.7220 N   0  0  0  0  0  0  0  0  0  0  0  0
   43.0395   20.4264   12.3642 C   0  0  0  0  0  0  0  0  0  0  0  0
   41.8311   20.2192   12.3654 O   0  0  0  0  0  0  0  0  0  0  0  0
   44.8713   19.6764   12.7153 H   0  0  0  0  0  0  0  0  0  0  0  0
   43.6248   21.7178   11.9957 C   0  0  0  0  0  0  0  0  0  0  0  0
   44.3639   22.4647   12.9564 C   0  0  0  0  0  0  0  0  0  0  0  0
   44.9205   23.7318   12.6009 C   0  0  0  0  0  0  0  0  0  0  0  0
   44.7489   24.2412   11.2669 C   0  0  0  0  0  0  0  0  0  0  0  0
   44.0319   23.4853   10.2981 C   0  0  0  0  0  0  0  0  0  0  0  0
   43.4757   22.2203   10.6628 C   0  0  0  0  0  0  0  0  0  0  0  0
   45.5549   24.4405   13.7074 O   0  0  0  0  0  0  0  0  0  0  0  0
   45.4709   24.0808   15.1074 C   0  0  0  0  0  0  0  0  0  0  0  0
   46.5558   24.5563   15.9098 C   0  0  0  0  0  0  0  0  0  0  0  0
   46.5218   24.3883   17.3257 C   0  0  0  0  0  0  0  0  0  0  0  0
   45.4055   23.7251   17.9240 C   0  0  0  0  0  0  0  0  0  0  0  0
   44.3286   23.2214   17.1349 C   0  0  0  0  0  0  0  0  0  0  0  0
   44.3638   23.3949   15.7232 C   0  0  0  0  0  0  0  0  0  0  0  0
   45.7791   15.8322   19.7485 C   0  0  0  0  0  0  0  0  0  0  0  0
   45.9103   14.7360   20.7339 C   0  0  0  0  0  0  0  0  0  0  0  0
   47.1709   14.3590   21.3068 C   0  0  0  0  0  0  0  0  0  0  0  0
   47.2180   13.3865   22.3510 C   0  0  0  0  0  0  0  0  0  0  0  0
   46.0045   12.7844   22.8078 C   0  0  0  0  0  0  0  0  0  0  0  0
   44.7422   13.1388   22.2271 C   0  0  0  0  0  0  0  0  0  0  0  0
   44.7002   14.1129   21.1800 C   0  0  0  0  0  0  0  0  0  0  0  0
 32 33  1  0  0  0
 32 37  2  0  0  0
 32 31  1  0  0  0
 33 34  2  0  0  0
 34 35  1  0  0  0
 35 36  2  0  0  0
 36 37  1  0  0  0
 25 26  1  0  0  0
 25 30  2  0  0  0
 25 22  1  0  0  0
 26 27  2  0  0  0
 27 28  1  0  0  0
 27 31  1  0  0  0
 28 29  2  0  0  0
 29 30  1  0  0  0
 39 40  1  0  0  0
 39 44  2  0  0  0
 39 38  1  0  0  0
 40 41  2  0  0  0
 41 42  1  0  0  0
 42 43  2  0  0  0
 43 44  1  0  0  0
  1  2  1  0  0  0
  1  6  1  0  0  0
  1 16  1  0  0  0
  2  3  1  0  0  0
  2 38  1  0  0  0
  3  4  1  0  0  0
  4  5  1  0  0  0
  4 18  1  0  0  0
  5  6  1  0  0  0
  7 10  1  0  0  0
  7 11  2  0  0  0
  7 19  1  0  0  0
  8  9  1  0  0  0
  8 19  1  0  0  0
  9 10  1  0  0  0
  9 16  1  0  0  0
 10 14  1  0  0  0
 10 15  1  0  0  0
 11 12  1  0  0  0
 12 13  1  0  0  0
 13 21  1  0  0  0
 13 19  2  0  0  0
 16 17  2  0  0  0
 21 22  1  0  0  0
 22 23  2  0  0  0
 12 20  1  0  0  0
 21 24  1  0  0  0
M  END
> <minimizedAffinity>
-8.81262

$$$$
