5KM9_ADN_B_201


 24 26  0  0  0  0  0  0  0  0999 V2000
  -11.1845   -2.0451    1.0180 C   0  0  0  0  0  0  0  0  0  0  0  0
   -9.9956   -2.6606    1.5907 O   0  0  0  0  0  0  0  0  0  0  0  0
  -12.3893   -2.8074    1.5957 C   0  0  0  0  0  0  0  0  0  0  0  0
  -12.8769   -3.7748    0.6569 O   0  0  0  0  0  0  0  0  0  0  0  0
  -11.7931   -3.5038    2.8211 C   0  0  0  0  0  0  0  0  0  0  0  0
  -12.4374   -4.6924    3.2347 O   0  0  0  0  0  0  0  0  0  0  0  0
  -10.3693   -3.7770    2.3648 C   0  0  0  0  0  0  0  0  0  0  0  0
  -12.1586   -4.3793    0.4129 H   0  0  0  0  0  0  0  0  0  0  0  0
  -12.4140   -5.3407    2.5136 H   0  0  0  0  0  0  0  0  0  0  0  0
   -9.4476   -3.9146    3.4928 N   0  0  0  0  0  0  0  0  0  0  0  0
   -9.3174   -3.0571    4.5307 C   0  0  0  0  0  0  0  0  0  0  0  0
   -8.3993   -3.5128    5.4188 N   0  0  0  0  0  0  0  0  0  0  0  0
   -7.9346   -4.6856    4.9545 C   0  0  0  0  0  0  0  0  0  0  0  0
   -6.9567   -5.6931    5.4017 C   0  0  0  0  0  0  0  0  0  0  0  0
   -6.2714   -5.5290    6.5523 N   0  0  0  0  0  0  0  0  0  0  0  0
   -6.7680   -6.7736    4.6184 N   0  0  0  0  0  0  0  0  0  0  0  0
   -7.4485   -6.9486    3.4707 C   0  0  0  0  0  0  0  0  0  0  0  0
   -8.3629   -6.0846    3.0072 N   0  0  0  0  0  0  0  0  0  0  0  0
   -8.6350   -4.9483    3.6957 C   0  0  0  0  0  0  0  0  0  0  0  0
   -6.4263   -4.7312    7.1080 H   0  0  0  0  0  0  0  0  0  0  0  0
   -5.6163   -6.2069    6.8361 H   0  0  0  0  0  0  0  0  0  0  0  0
  -11.6896    0.2123    0.2892 O   0  0  0  0  0  0  0  0  0  0  0  0
  -11.1558   -0.5753    1.3549 C   0  0  0  0  0  0  0  0  0  0  0  0
  -11.6584    1.1505    0.5335 H   0  0  0  0  0  0  0  0  0  0  0  0
 22 23  1  0  0  0
 23  1  1  0  0  0
  1  2  1  0  0  0
  1  3  1  0  0  0
  2  7  1  0  0  0
  3  4  1  0  0  0
  3  5  1  0  0  0
  5  6  1  0  0  0
  5  7  1  0  0  0
  7 10  1  0  0  0
 10 11  1  0  0  0
 10 19  1  0  0  0
 11 12  2  0  0  0
 12 13  1  0  0  0
 13 14  1  0  0  0
 13 19  2  0  0  0
 14 15  1  0  0  0
 14 16  2  0  0  0
 16 17  1  0  0  0
 17 18  2  0  0  0
 18 19  1  0  0  0
 22 24  1  0  0  0
  4  8  1  0  0  0
  6  9  1  0  0  0
 15 20  1  0  0  0
 15 21  1  0  0  0
M  END
> <minimizedAffinity>
-7.11651

$$$$
5KM9_ADN_B_201


 24 26  0  0  0  0  0  0  0  0999 V2000
  -13.5869   -1.6579    1.2565 C   0  0  0  0  0  0  0  0  0  0  0  0
  -13.1930   -1.8040    2.6508 O   0  0  0  0  0  0  0  0  0  0  0  0
  -12.6001   -0.6584    0.6290 C   0  0  0  0  0  0  0  0  0  0  0  0
  -13.1796    0.6507    0.5556 O   0  0  0  0  0  0  0  0  0  0  0  0
  -11.4311   -0.6717    1.6166 C   0  0  0  0  0  0  0  0  0  0  0  0
  -10.6431    0.5013    1.6622 O   0  0  0  0  0  0  0  0  0  0  0  0
  -12.1405   -0.9128    2.9390 C   0  0  0  0  0  0  0  0  0  0  0  0
  -13.4545    0.9328    1.4421 H   0  0  0  0  0  0  0  0  0  0  0  0
  -11.2006    1.2559    1.9087 H   0  0  0  0  0  0  0  0  0  0  0  0
  -11.2549   -1.5155    3.9357 N   0  0  0  0  0  0  0  0  0  0  0  0
  -11.1477   -1.1551    5.2351 C   0  0  0  0  0  0  0  0  0  0  0  0
  -10.2617   -1.9511    5.8835 N   0  0  0  0  0  0  0  0  0  0  0  0
   -9.7948   -2.8449    4.9945 C   0  0  0  0  0  0  0  0  0  0  0  0
   -8.8412   -3.9680    5.0177 C   0  0  0  0  0  0  0  0  0  0  0  0
   -8.1895   -4.2989    6.1519 N   0  0  0  0  0  0  0  0  0  0  0  0
   -8.6395   -4.6422    3.8681 N   0  0  0  0  0  0  0  0  0  0  0  0
   -9.2865   -4.3225    2.7323 C   0  0  0  0  0  0  0  0  0  0  0  0
  -10.1776   -3.3254    2.6376 N   0  0  0  0  0  0  0  0  0  0  0  0
  -10.4592   -2.5599    3.7212 C   0  0  0  0  0  0  0  0  0  0  0  0
   -8.3534   -3.7917    6.9796 H   0  0  0  0  0  0  0  0  0  0  0  0
   -7.5503   -5.0476    6.1518 H   0  0  0  0  0  0  0  0  0  0  0  0
  -12.9157   -3.9796    1.4592 O   0  0  0  0  0  0  0  0  0  0  0  0
  -13.5758   -3.0269    0.6239 C   0  0  0  0  0  0  0  0  0  0  0  0
  -12.9240   -4.8484    1.0278 H   0  0  0  0  0  0  0  0  0  0  0  0
 22 23  1  0  0  0
 23  1  1  0  0  0
  1  2  1  0  0  0
  1  3  1  0  0  0
  2  7  1  0  0  0
  3  4  1  0  0  0
  3  5  1  0  0  0
  5  6  1  0  0  0
  5  7  1  0  0  0
  7 10  1  0  0  0
 10 11  1  0  0  0
 10 19  1  0  0  0
 11 12  2  0  0  0
 12 13  1  0  0  0
 13 14  1  0  0  0
 13 19  2  0  0  0
 14 15  1  0  0  0
 14 16  2  0  0  0
 16 17  1  0  0  0
 17 18  2  0  0  0
 18 19  1  0  0  0
 22 24  1  0  0  0
  4  8  1  0  0  0
  6  9  1  0  0  0
 15 20  1  0  0  0
 15 21  1  0  0  0
M  END
> <minimizedAffinity>
-6.43870

$$$$
5KM9_ADN_B_201


 24 26  0  0  0  0  0  0  0  0999 V2000
  -12.9248   -1.9786    1.8522 C   0  0  0  0  0  0  0  0  0  0  0  0
  -12.1296   -2.5706    2.9187 O   0  0  0  0  0  0  0  0  0  0  0  0
  -11.9488   -1.1691    0.9811 C   0  0  0  0  0  0  0  0  0  0  0  0
  -12.0091    0.2248    1.3105 O   0  0  0  0  0  0  0  0  0  0  0  0
  -10.5875   -1.7520    1.3671 C   0  0  0  0  0  0  0  0  0  0  0  0
   -9.4757   -0.8938    1.2045 O   0  0  0  0  0  0  0  0  0  0  0  0
  -10.8019   -2.1078    2.8291 C   0  0  0  0  0  0  0  0  0  0  0  0
  -11.8224    0.3422    2.2551 H   0  0  0  0  0  0  0  0  0  0  0  0
   -9.5975   -0.1002    1.7488 H   0  0  0  0  0  0  0  0  0  0  0  0
   -9.8906   -3.1611    3.2776 N   0  0  0  0  0  0  0  0  0  0  0  0
   -9.2882   -4.0863    2.4961 C   0  0  0  0  0  0  0  0  0  0  0  0
   -8.4764   -4.8839    3.2336 N   0  0  0  0  0  0  0  0  0  0  0  0
   -8.5470   -4.4646    4.5088 C   0  0  0  0  0  0  0  0  0  0  0  0
   -7.9421   -4.8608    5.7927 C   0  0  0  0  0  0  0  0  0  0  0  0
   -7.0797   -5.8963    5.8608 N   0  0  0  0  0  0  0  0  0  0  0  0
   -8.2875   -4.1596    6.8907 N   0  0  0  0  0  0  0  0  0  0  0  0
   -9.1440   -3.1232    6.8334 C   0  0  0  0  0  0  0  0  0  0  0  0
   -9.7218   -2.6956    5.7017 N   0  0  0  0  0  0  0  0  0  0  0  0
   -9.4684   -3.3268    4.5283 C   0  0  0  0  0  0  0  0  0  0  0  0
   -6.8424   -6.3937    5.0450 H   0  0  0  0  0  0  0  0  0  0  0  0
   -6.6877   -6.1544    6.7263 H   0  0  0  0  0  0  0  0  0  0  0  0
  -13.2754   -4.3706    1.6589 O   0  0  0  0  0  0  0  0  0  0  0  0
  -13.6324   -3.0943    1.1250 C   0  0  0  0  0  0  0  0  0  0  0  0
  -13.7444   -5.0669    1.1731 H   0  0  0  0  0  0  0  0  0  0  0  0
 22 23  1  0  0  0
 23  1  1  0  0  0
  1  2  1  0  0  0
  1  3  1  0  0  0
  2  7  1  0  0  0
  3  4  1  0  0  0
  3  5  1  0  0  0
  5  6  1  0  0  0
  5  7  1  0  0  0
  7 10  1  0  0  0
 10 11  1  0  0  0
 10 19  1  0  0  0
 11 12  2  0  0  0
 12 13  1  0  0  0
 13 14  1  0  0  0
 13 19  2  0  0  0
 14 15  1  0  0  0
 14 16  2  0  0  0
 16 17  1  0  0  0
 17 18  2  0  0  0
 18 19  1  0  0  0
 22 24  1  0  0  0
  4  8  1  0  0  0
  6  9  1  0  0  0
 15 20  1  0  0  0
 15 21  1  0  0  0
M  END
> <minimizedAffinity>
-6.30317

$$$$
5KM9_ADN_B_201


 24 26  0  0  0  0  0  0  0  0999 V2000
  -15.6940   -0.3779    2.6721 C   0  0  0  0  0  0  0  0  0  0  0  0
  -14.2764   -0.4269    3.0014 O   0  0  0  0  0  0  0  0  0  0  0  0
  -15.7795   -0.0924    1.1629 C   0  0  0  0  0  0  0  0  0  0  0  0
  -16.0437    1.2958    0.9218 O   0  0  0  0  0  0  0  0  0  0  0  0
  -14.3800   -0.4648    0.6682 C   0  0  0  0  0  0  0  0  0  0  0  0
  -13.9417    0.1896   -0.5060 O   0  0  0  0  0  0  0  0  0  0  0  0
  -13.5163   -0.0942    1.8627 C   0  0  0  0  0  0  0  0  0  0  0  0
  -15.3573    1.8340    1.3463 H   0  0  0  0  0  0  0  0  0  0  0  0
  -13.9332    1.1482   -0.3579 H   0  0  0  0  0  0  0  0  0  0  0  0
  -12.2587   -0.8418    1.8845 N   0  0  0  0  0  0  0  0  0  0  0  0
  -11.0545   -0.3973    1.4581 C   0  0  0  0  0  0  0  0  0  0  0  0
  -10.0958   -1.3344    1.6627 N   0  0  0  0  0  0  0  0  0  0  0  0
  -10.6851   -2.3973    2.2374 C   0  0  0  0  0  0  0  0  0  0  0  0
  -10.2523   -3.7209    2.7189 C   0  0  0  0  0  0  0  0  0  0  0  0
   -8.9628   -4.1057    2.6190 N   0  0  0  0  0  0  0  0  0  0  0  0
  -11.1888   -4.5307    3.2515 N   0  0  0  0  0  0  0  0  0  0  0  0
  -12.4767   -4.1556    3.3588 C   0  0  0  0  0  0  0  0  0  0  0  0
  -12.9419   -2.9640    2.9573 N   0  0  0  0  0  0  0  0  0  0  0  0
  -12.1024   -2.0625    2.3899 C   0  0  0  0  0  0  0  0  0  0  0  0
   -8.2964   -3.4967    2.2262 H   0  0  0  0  0  0  0  0  0  0  0  0
   -8.6884   -4.9954    2.9390 H   0  0  0  0  0  0  0  0  0  0  0  0
  -15.7543   -2.7846    2.3780 O   0  0  0  0  0  0  0  0  0  0  0  0
  -16.3157   -1.6847    3.0965 C   0  0  0  0  0  0  0  0  0  0  0  0
  -16.1722   -3.6094    2.6711 H   0  0  0  0  0  0  0  0  0  0  0  0
 22 23  1  0  0  0
 23  1  1  0  0  0
  1  2  1  0  0  0
  1  3  1  0  0  0
  2  7  1  0  0  0
  3  4  1  0  0  0
  3  5  1  0  0  0
  5  6  1  0  0  0
  5  7  1  0  0  0
  7 10  1  0  0  0
 10 11  1  0  0  0
 10 19  1  0  0  0
 11 12  2  0  0  0
 12 13  1  0  0  0
 13 14  1  0  0  0
 13 19  2  0  0  0
 14 15  1  0  0  0
 14 16  2  0  0  0
 16 17  1  0  0  0
 17 18  2  0  0  0
 18 19  1  0  0  0
 22 24  1  0  0  0
  4  8  1  0  0  0
  6  9  1  0  0  0
 15 20  1  0  0  0
 15 21  1  0  0  0
M  END
> <minimizedAffinity>
-6.24386

$$$$
5KM9_ADN_B_201


 24 26  0  0  0  0  0  0  0  0999 V2000
   -9.9622   -3.7296    5.3567 C   0  0  0  0  0  0  0  0  0  0  0  0
  -10.3568   -2.4640    4.7544 O   0  0  0  0  0  0  0  0  0  0  0  0
  -10.8722   -4.8061    4.7407 C   0  0  0  0  0  0  0  0  0  0  0  0
  -11.9491   -5.1313    5.6293 O   0  0  0  0  0  0  0  0  0  0  0  0
  -11.4058   -4.1183    3.4821 C   0  0  0  0  0  0  0  0  0  0  0  0
  -12.6578   -4.5740    3.0087 O   0  0  0  0  0  0  0  0  0  0  0  0
  -11.4775   -2.6662    3.9248 C   0  0  0  0  0  0  0  0  0  0  0  0
  -12.4464   -4.3263    5.8429 H   0  0  0  0  0  0  0  0  0  0  0  0
  -13.3298   -4.4453    3.6963 H   0  0  0  0  0  0  0  0  0  0  0  0
  -11.4143   -1.7425    2.7917 N   0  0  0  0  0  0  0  0  0  0  0  0
  -10.2973   -1.1761    2.2807 C   0  0  0  0  0  0  0  0  0  0  0  0
  -10.5974   -0.4048    1.2064 N   0  0  0  0  0  0  0  0  0  0  0  0
  -11.9257   -0.4792    1.0133 C   0  0  0  0  0  0  0  0  0  0  0  0
  -12.8937    0.0857    0.0567 C   0  0  0  0  0  0  0  0  0  0  0  0
  -12.4888    0.9101   -0.9318 N   0  0  0  0  0  0  0  0  0  0  0  0
  -14.1916   -0.2435    0.2108 N   0  0  0  0  0  0  0  0  0  0  0  0
  -14.6056   -1.0674    1.1911 C   0  0  0  0  0  0  0  0  0  0  0  0
  -13.7836   -1.6305    2.0881 N   0  0  0  0  0  0  0  0  0  0  0  0
  -12.4536   -1.3675    2.0507 C   0  0  0  0  0  0  0  0  0  0  0  0
  -11.5351    1.1362   -1.0245 H   0  0  0  0  0  0  0  0  0  0  0  0
  -13.1471    1.2855   -1.5603 H   0  0  0  0  0  0  0  0  0  0  0  0
   -8.2289   -5.2389    4.5823 O   0  0  0  0  0  0  0  0  0  0  0  0
   -8.4908   -3.9311    5.0944 C   0  0  0  0  0  0  0  0  0  0  0  0
   -7.2773   -5.3394    4.4235 H   0  0  0  0  0  0  0  0  0  0  0  0
 22 23  1  0  0  0
 23  1  1  0  0  0
  1  2  1  0  0  0
  1  3  1  0  0  0
  2  7  1  0  0  0
  3  4  1  0  0  0
  3  5  1  0  0  0
  5  6  1  0  0  0
  5  7  1  0  0  0
  7 10  1  0  0  0
 10 11  1  0  0  0
 10 19  1  0  0  0
 11 12  2  0  0  0
 12 13  1  0  0  0
 13 14  1  0  0  0
 13 19  2  0  0  0
 14 15  1  0  0  0
 14 16  2  0  0  0
 16 17  1  0  0  0
 17 18  2  0  0  0
 18 19  1  0  0  0
 22 24  1  0  0  0
  4  8  1  0  0  0
  6  9  1  0  0  0
 15 20  1  0  0  0
 15 21  1  0  0  0
M  END
> <minimizedAffinity>
-5.85699

$$$$
5KM9_ADN_B_201


 24 26  0  0  0  0  0  0  0  0999 V2000
   -9.3508   -4.0356    4.1387 C   0  0  0  0  0  0  0  0  0  0  0  0
   -9.7573   -2.7641    3.5571 O   0  0  0  0  0  0  0  0  0  0  0  0
  -10.6459   -4.7699    4.5259 C   0  0  0  0  0  0  0  0  0  0  0  0
  -10.9136   -4.6251    5.9267 O   0  0  0  0  0  0  0  0  0  0  0  0
  -11.7081   -4.0409    3.6998 C   0  0  0  0  0  0  0  0  0  0  0  0
  -13.0230   -4.0646    4.2189 O   0  0  0  0  0  0  0  0  0  0  0  0
  -11.1558   -2.6255    3.6578 C   0  0  0  0  0  0  0  0  0  0  0  0
  -10.9594   -3.6826    6.1514 H   0  0  0  0  0  0  0  0  0  0  0  0
  -13.0311   -3.6542    5.0978 H   0  0  0  0  0  0  0  0  0  0  0  0
  -11.6526   -1.8758    2.5037 N   0  0  0  0  0  0  0  0  0  0  0  0
  -10.9202   -1.4484    1.4499 C   0  0  0  0  0  0  0  0  0  0  0  0
  -11.7066   -0.8213    0.5402 N   0  0  0  0  0  0  0  0  0  0  0  0
  -12.9670   -0.8504    1.0067 C   0  0  0  0  0  0  0  0  0  0  0  0
  -14.2826   -0.3748    0.5437 C   0  0  0  0  0  0  0  0  0  0  0  0
  -14.4082    0.2788   -0.6300 N   0  0  0  0  0  0  0  0  0  0  0  0
  -15.3475   -0.6085    1.3363 N   0  0  0  0  0  0  0  0  0  0  0  0
  -15.2339   -1.2621    2.5070 C   0  0  0  0  0  0  0  0  0  0  0  0
  -14.0752   -1.7366    2.9863 N   0  0  0  0  0  0  0  0  0  0  0  0
  -12.9257   -1.5536    2.2903 C   0  0  0  0  0  0  0  0  0  0  0  0
  -13.6157    0.4378   -1.1921 H   0  0  0  0  0  0  0  0  0  0  0  0
  -15.2922    0.5967   -0.9243 H   0  0  0  0  0  0  0  0  0  0  0  0
   -9.0468   -6.0435    2.8127 O   0  0  0  0  0  0  0  0  0  0  0  0
   -8.5012   -4.7605    3.1252 C   0  0  0  0  0  0  0  0  0  0  0  0
   -8.4810   -6.4852    2.1603 H   0  0  0  0  0  0  0  0  0  0  0  0
 22 23  1  0  0  0
 23  1  1  0  0  0
  1  2  1  0  0  0
  1  3  1  0  0  0
  2  7  1  0  0  0
  3  4  1  0  0  0
  3  5  1  0  0  0
  5  6  1  0  0  0
  5  7  1  0  0  0
  7 10  1  0  0  0
 10 11  1  0  0  0
 10 19  1  0  0  0
 11 12  2  0  0  0
 12 13  1  0  0  0
 13 14  1  0  0  0
 13 19  2  0  0  0
 14 15  1  0  0  0
 14 16  2  0  0  0
 16 17  1  0  0  0
 17 18  2  0  0  0
 18 19  1  0  0  0
 22 24  1  0  0  0
  4  8  1  0  0  0
  6  9  1  0  0  0
 15 20  1  0  0  0
 15 21  1  0  0  0
M  END
> <minimizedAffinity>
-5.84799

$$$$
5KM9_ADN_B_201


 24 26  0  0  0  0  0  0  0  0999 V2000
  -13.9140   -0.9835    0.4647 C   0  0  0  0  0  0  0  0  0  0  0  0
  -12.9087   -1.9947    0.7599 O   0  0  0  0  0  0  0  0  0  0  0  0
  -14.5624   -0.6104    1.8089 C   0  0  0  0  0  0  0  0  0  0  0  0
  -15.8137   -1.2895    1.9761 O   0  0  0  0  0  0  0  0  0  0  0  0
  -13.5393   -1.1141    2.8294 C   0  0  0  0  0  0  0  0  0  0  0  0
  -14.0476   -1.4470    4.1061 O   0  0  0  0  0  0  0  0  0  0  0  0
  -12.9694   -2.3348    2.1258 C   0  0  0  0  0  0  0  0  0  0  0  0
  -15.6743   -2.2467    1.9031 H   0  0  0  0  0  0  0  0  0  0  0  0
  -14.7123   -2.1477    4.0167 H   0  0  0  0  0  0  0  0  0  0  0  0
  -11.6264   -2.6668    2.6025 N   0  0  0  0  0  0  0  0  0  0  0  0
  -10.4606   -2.3723    1.9831 C   0  0  0  0  0  0  0  0  0  0  0  0
   -9.4038   -2.7905    2.7231 N   0  0  0  0  0  0  0  0  0  0  0  0
   -9.8912   -3.3560    3.8410 C   0  0  0  0  0  0  0  0  0  0  0  0
   -9.3254   -3.9942    5.0427 C   0  0  0  0  0  0  0  0  0  0  0  0
   -7.9906   -4.1177    5.1969 N   0  0  0  0  0  0  0  0  0  0  0  0
  -10.1865   -4.4545    5.9718 N   0  0  0  0  0  0  0  0  0  0  0  0
  -11.5192   -4.3334    5.8294 C   0  0  0  0  0  0  0  0  0  0  0  0
  -12.1062   -3.7528    4.7731 N   0  0  0  0  0  0  0  0  0  0  0  0
  -11.3501   -3.2613    3.7601 C   0  0  0  0  0  0  0  0  0  0  0  0
   -7.3812   -3.7736    4.5044 H   0  0  0  0  0  0  0  0  0  0  0  0
   -7.6262   -4.5519    6.0018 H   0  0  0  0  0  0  0  0  0  0  0  0
  -11.8100    0.0851   -0.0951 O   0  0  0  0  0  0  0  0  0  0  0  0
  -13.2295    0.1621   -0.2377 C   0  0  0  0  0  0  0  0  0  0  0  0
  -11.3977    0.8326   -0.5556 H   0  0  0  0  0  0  0  0  0  0  0  0
 22 23  1  0  0  0
 23  1  1  0  0  0
  1  2  1  0  0  0
  1  3  1  0  0  0
  2  7  1  0  0  0
  3  4  1  0  0  0
  3  5  1  0  0  0
  5  6  1  0  0  0
  5  7  1  0  0  0
  7 10  1  0  0  0
 10 11  1  0  0  0
 10 19  1  0  0  0
 11 12  2  0  0  0
 12 13  1  0  0  0
 13 14  1  0  0  0
 13 19  2  0  0  0
 14 15  1  0  0  0
 14 16  2  0  0  0
 16 17  1  0  0  0
 17 18  2  0  0  0
 18 19  1  0  0  0
 22 24  1  0  0  0
  4  8  1  0  0  0
  6  9  1  0  0  0
 15 20  1  0  0  0
 15 21  1  0  0  0
M  END
> <minimizedAffinity>
-5.77158

$$$$
5KM9_ADN_B_201


 24 26  0  0  0  0  0  0  0  0999 V2000
  -11.1996   -2.7661    2.5105 C   0  0  0  0  0  0  0  0  0  0  0  0
  -10.7823   -4.1314    2.7966 O   0  0  0  0  0  0  0  0  0  0  0  0
  -10.4122   -1.8606    3.4730 C   0  0  0  0  0  0  0  0  0  0  0  0
  -11.2198   -1.4895    4.5977 O   0  0  0  0  0  0  0  0  0  0  0  0
   -9.2577   -2.7617    3.9169 C   0  0  0  0  0  0  0  0  0  0  0  0
   -8.6955   -2.4730    5.1817 O   0  0  0  0  0  0  0  0  0  0  0  0
   -9.9081   -4.1352    3.9016 C   0  0  0  0  0  0  0  0  0  0  0  0
  -11.5391   -2.2892    5.0444 H   0  0  0  0  0  0  0  0  0  0  0  0
   -9.3800   -2.5493    5.8648 H   0  0  0  0  0  0  0  0  0  0  0  0
   -8.9254   -5.2068    3.7380 N   0  0  0  0  0  0  0  0  0  0  0  0
   -8.6526   -5.8766    2.5950 C   0  0  0  0  0  0  0  0  0  0  0  0
   -7.6572   -6.7766    2.7907 N   0  0  0  0  0  0  0  0  0  0  0  0
   -7.2739   -6.6829    4.0758 C   0  0  0  0  0  0  0  0  0  0  0  0
   -6.2745   -7.3390    4.9371 C   0  0  0  0  0  0  0  0  0  0  0  0
   -5.4681   -8.3046    4.4493 N   0  0  0  0  0  0  0  0  0  0  0  0
   -6.2029   -6.9465    6.2246 N   0  0  0  0  0  0  0  0  0  0  0  0
   -7.0001   -5.9823    6.7203 C   0  0  0  0  0  0  0  0  0  0  0  0
   -7.9209   -5.3309    5.9957 N   0  0  0  0  0  0  0  0  0  0  0  0
   -8.1029   -5.6430    4.6885 C   0  0  0  0  0  0  0  0  0  0  0  0
   -5.5388   -8.5746    3.5052 H   0  0  0  0  0  0  0  0  0  0  0  0
   -4.8089   -8.7392    5.0375 H   0  0  0  0  0  0  0  0  0  0  0  0
  -10.2553   -1.2585    0.8620 O   0  0  0  0  0  0  0  0  0  0  0  0
  -10.9420   -2.4973    1.0490 C   0  0  0  0  0  0  0  0  0  0  0  0
  -10.1037   -1.1126   -0.0850 H   0  0  0  0  0  0  0  0  0  0  0  0
 22 23  1  0  0  0
 23  1  1  0  0  0
  1  2  1  0  0  0
  1  3  1  0  0  0
  2  7  1  0  0  0
  3  4  1  0  0  0
  3  5  1  0  0  0
  5  6  1  0  0  0
  5  7  1  0  0  0
  7 10  1  0  0  0
 10 11  1  0  0  0
 10 19  1  0  0  0
 11 12  2  0  0  0
 12 13  1  0  0  0
 13 14  1  0  0  0
 13 19  2  0  0  0
 14 15  1  0  0  0
 14 16  2  0  0  0
 16 17  1  0  0  0
 17 18  2  0  0  0
 18 19  1  0  0  0
 22 24  1  0  0  0
  4  8  1  0  0  0
  6  9  1  0  0  0
 15 20  1  0  0  0
 15 21  1  0  0  0
M  END
> <minimizedAffinity>
-5.75024

$$$$
5KM9_ADN_B_201


 24 26  0  0  0  0  0  0  0  0999 V2000
  -10.5050   -3.6567    4.2500 C   0  0  0  0  0  0  0  0  0  0  0  0
  -11.7802   -3.0581    3.8816 O   0  0  0  0  0  0  0  0  0  0  0  0
   -9.6917   -3.7806    2.9501 C   0  0  0  0  0  0  0  0  0  0  0  0
   -9.7597   -5.1157    2.4327 O   0  0  0  0  0  0  0  0  0  0  0  0
  -10.4048   -2.8054    2.0106 C   0  0  0  0  0  0  0  0  0  0  0  0
  -10.2936   -3.0811    0.6283 O   0  0  0  0  0  0  0  0  0  0  0  0
  -11.8458   -2.9133    2.4816 C   0  0  0  0  0  0  0  0  0  0  0  0
  -10.6878   -5.3624    2.2953 H   0  0  0  0  0  0  0  0  0  0  0  0
  -10.6629   -3.9587    0.4429 H   0  0  0  0  0  0  0  0  0  0  0  0
  -12.6220   -1.7169    2.1543 N   0  0  0  0  0  0  0  0  0  0  0  0
  -12.1654   -0.6148    1.5168 C   0  0  0  0  0  0  0  0  0  0  0  0
  -13.1630    0.2868    1.3403 N   0  0  0  0  0  0  0  0  0  0  0  0
  -14.2831   -0.2418    1.8627 C   0  0  0  0  0  0  0  0  0  0  0  0
  -15.6884    0.1771    2.0078 C   0  0  0  0  0  0  0  0  0  0  0  0
  -16.1035    1.3764    1.5497 N   0  0  0  0  0  0  0  0  0  0  0  0
  -16.5358   -0.6742    2.6191 N   0  0  0  0  0  0  0  0  0  0  0  0
  -16.1329   -1.8739    3.0767 C   0  0  0  0  0  0  0  0  0  0  0  0
  -14.8767   -2.3295    2.9681 N   0  0  0  0  0  0  0  0  0  0  0  0
  -13.9229   -1.5614    2.3853 C   0  0  0  0  0  0  0  0  0  0  0  0
  -15.4660    1.9815    1.1063 H   0  0  0  0  0  0  0  0  0  0  0  0
  -17.0440    1.6464    1.6588 H   0  0  0  0  0  0  0  0  0  0  0  0
   -8.4758   -2.5960    5.0496 O   0  0  0  0  0  0  0  0  0  0  0  0
   -9.8689   -2.7851    5.3037 C   0  0  0  0  0  0  0  0  0  0  0  0
   -8.0945   -2.0331    5.7415 H   0  0  0  0  0  0  0  0  0  0  0  0
 22 23  1  0  0  0
 23  1  1  0  0  0
  1  2  1  0  0  0
  1  3  1  0  0  0
  2  7  1  0  0  0
  3  4  1  0  0  0
  3  5  1  0  0  0
  5  6  1  0  0  0
  5  7  1  0  0  0
  7 10  1  0  0  0
 10 11  1  0  0  0
 10 19  1  0  0  0
 11 12  2  0  0  0
 12 13  1  0  0  0
 13 14  1  0  0  0
 13 19  2  0  0  0
 14 15  1  0  0  0
 14 16  2  0  0  0
 16 17  1  0  0  0
 17 18  2  0  0  0
 18 19  1  0  0  0
 22 24  1  0  0  0
  4  8  1  0  0  0
  6  9  1  0  0  0
 15 20  1  0  0  0
 15 21  1  0  0  0
M  END
> <minimizedAffinity>
-5.63488

$$$$
5KM9_ADN_B_201


 24 26  0  0  0  0  0  0  0  0999 V2000
  -10.2751   -4.3838    4.5173 C   0  0  0  0  0  0  0  0  0  0  0  0
  -11.6486   -3.9157    4.3960 O   0  0  0  0  0  0  0  0  0  0  0  0
   -9.5751   -4.0230    3.1958 C   0  0  0  0  0  0  0  0  0  0  0  0
   -9.5069   -5.1624    2.3286 O   0  0  0  0  0  0  0  0  0  0  0  0
  -10.4980   -2.9548    2.6047 C   0  0  0  0  0  0  0  0  0  0  0  0
  -10.4773   -2.8261    1.1969 O   0  0  0  0  0  0  0  0  0  0  0  0
  -11.8614   -3.4106    3.0981 C   0  0  0  0  0  0  0  0  0  0  0  0
  -10.4011   -5.5052    2.1742 H   0  0  0  0  0  0  0  0  0  0  0  0
  -10.7384   -3.6677    0.7914 H   0  0  0  0  0  0  0  0  0  0  0  0
  -12.8207   -2.3073    3.1590 N   0  0  0  0  0  0  0  0  0  0  0  0
  -13.3164   -1.7372    4.2810 C   0  0  0  0  0  0  0  0  0  0  0  0
  -14.1504   -0.7134    3.9722 N   0  0  0  0  0  0  0  0  0  0  0  0
  -14.1890   -0.6132    2.6322 C   0  0  0  0  0  0  0  0  0  0  0  0
  -14.8657    0.2527    1.6504 C   0  0  0  0  0  0  0  0  0  0  0  0
  -15.6934    1.2394    2.0528 N   0  0  0  0  0  0  0  0  0  0  0  0
  -14.6345    0.0175    0.3436 N   0  0  0  0  0  0  0  0  0  0  0  0
  -13.8084   -0.9617   -0.0684 C   0  0  0  0  0  0  0  0  0  0  0  0
  -13.1473   -1.7785    0.7642 N   0  0  0  0  0  0  0  0  0  0  0  0
  -13.3054   -1.6553    2.1055 C   0  0  0  0  0  0  0  0  0  0  0  0
  -15.8468    1.3922    3.0132 H   0  0  0  0  0  0  0  0  0  0  0  0
  -16.1440    1.8065    1.3860 H   0  0  0  0  0  0  0  0  0  0  0  0
   -8.3750   -3.2074    5.4595 O   0  0  0  0  0  0  0  0  0  0  0  0
   -9.6705   -3.7404    5.7400 C   0  0  0  0  0  0  0  0  0  0  0  0
   -8.0118   -2.8012    6.2620 H   0  0  0  0  0  0  0  0  0  0  0  0
 22 23  1  0  0  0
 23  1  1  0  0  0
  1  2  1  0  0  0
  1  3  1  0  0  0
  2  7  1  0  0  0
  3  4  1  0  0  0
  3  5  1  0  0  0
  5  6  1  0  0  0
  5  7  1  0  0  0
  7 10  1  0  0  0
 10 11  1  0  0  0
 10 19  1  0  0  0
 11 12  2  0  0  0
 12 13  1  0  0  0
 13 14  1  0  0  0
 13 19  2  0  0  0
 14 15  1  0  0  0
 14 16  2  0  0  0
 16 17  1  0  0  0
 17 18  2  0  0  0
 18 19  1  0  0  0
 22 24  1  0  0  0
  4  8  1  0  0  0
  6  9  1  0  0  0
 15 20  1  0  0  0
 15 21  1  0  0  0
M  END
> <minimizedAffinity>
-5.63225

$$$$
