5KM9_ADN_B_201
  RCSB PDB12061718383D
Coordinates from PDB:5KM9:B:201 Model:1 without hydrogens
 19 21  0  0  0  0            999 V2000
  -11.3380   -0.4910    3.1350   O 0  0  0  0  0  0  0  0  0  0  0  0
  -10.8560   -0.5630    1.7920   C 0  0  0  0  0  0  0  0  0  0  0  0
  -10.8340   -1.9860    1.2930   C 0  0  0  0  0  0  0  0  0  0  0  0
   -9.7180   -2.6690    1.9320   O 0  0  0  0  0  0  0  0  0  0  0  0
  -12.0940   -2.8000    1.6340   C 0  0  0  0  0  0  0  0  0  0  0  0
  -12.4590   -3.6540    0.5420   O 0  0  0  0  0  0  0  0  0  0  0  0
  -11.6440   -3.6320    2.8370   C 0  0  0  0  0  0  0  0  0  0  0  0
  -12.3250   -4.8550    3.0360   O 0  0  0  0  0  0  0  0  0  0  0  0
  -10.1740   -3.8620    2.5270   C 0  0  0  0  0  0  0  0  0  0  0  0
   -9.3930   -4.1300    3.7350   N 0  0  0  0  0  0  0  0  0  0  0  0
   -9.4410   -3.4310    4.8920   C 0  0  0  0  0  0  0  0  0  0  0  0
   -8.6160   -3.9780    5.8190   N 0  0  0  0  0  0  0  0  0  0  0  0
   -8.0320   -5.0510    5.2580   C 0  0  0  0  0  0  0  0  0  0  0  0
   -7.0620   -6.0760    5.6820   C 0  0  0  0  0  0  0  0  0  0  0  0
   -6.5350   -6.0580    6.9240   N 0  0  0  0  0  0  0  0  0  0  0  0
   -6.7170   -7.0210    4.7850   N 0  0  0  0  0  0  0  0  0  0  0  0
   -7.2390   -7.0500    3.5450   C 0  0  0  0  0  0  0  0  0  0  0  0
   -8.1360   -6.1620    3.0930   N 0  0  0  0  0  0  0  0  0  0  0  0
   -8.5550   -5.1510    3.8940   C 0  0  0  0  0  0  0  0  0  0  0  0
  1  2  1  0  0  0  0
  2  3  1  0  0  0  0
  3  4  1  0  0  0  0
  3  5  1  0  0  0  0
  4  9  1  0  0  0  0
  5  6  1  0  0  0  0
  5  7  1  0  0  0  0
  7  8  1  0  0  0  0
  7  9  1  0  0  0  0
  9 10  1  0  0  0  0
 10 11  1  0  0  0  0
 10 19  1  0  0  0  0
 11 12  2  0  0  0  0
 12 13  1  0  0  0  0
 13 14  1  0  0  0  0
 13 19  2  0  0  0  0
 14 15  1  0  0  0  0
 14 16  2  0  0  0  0
 16 17  1  0  0  0  0
 17 18  2  0  0  0  0
 18 19  1  0  0  0  0
A    1
O5'
A    2
C5'
A    3
C4'
A    4
O4'
A    5
C3'
A    6
O3'
A    7
C2'
A    8
O2'
A    9
C1'
A   10
N9
A   11
C8
A   12
N7
A   13
C5
A   14
C6
A   15
N6
A   16
N1
A   17
C2
A   18
N3
A   19
C4
M  END
>  <InstanceId>
5KM9_ADN_B_201

>  <ChemCompId>
ADN

>  <PdbId>
5KM9

>  <ChainId>
B

>  <ResidueNumber>
201

>  <InsertionCode>


>  <Model>
1

>  <AltIds>


>  <MissingHeavyAtoms>
0

>  <ObservedFormula>
C10 N5 O4

>  <Name>
ADENOSINE

>  <SystematicName>
(2R,3R,4S,5R)-2-(6-aminopurin-9-yl)-5-(hydroxymethyl)oxolane-3,4-diol

>  <Synonyms>


>  <Type>
NON-POLYMER

>  <Formula>
C10 H13 N5 O4

>  <MolecularWeight>
267.241

>  <ModifiedDate>
2011-06-04

>  <Parent>


>  <OneLetterCode>


>  <SubcomponentList>


>  <AmbiguousFlag>
N

>  <InChI>
InChI=1S/C10H13N5O4/c11-8-5-9(13-2-12-8)15(3-14-5)10-7(18)6(17)4(1-16)19-10/h2-4,6-7,10,16-18H,1H2,(H2,11,12,13)/t4-,6-,7-,10-/m1/s1

>  <InChIKey>
OIRDTQYFTABQOQ-KQYNXXCUSA-N

>  <SMILES>
c1nc(c2c(n1)n(cn2)[C@H]3[C@@H]([C@@H]([C@H](O3)CO)O)O)N

$$$$
