4Y3J_HIC_A_415


 15 15  0  0  0  0  0  0  0  0999 V2000
   -1.4852    4.2719    8.8232 N   0  0  0  0  0  0  0  0  0  0  0  0
   -0.4508    4.3384    9.8918 C   0  0  0  0  0  0  0  0  0  0  0  0
   -1.5723    5.1851    8.3771 H   0  0  0  0  0  0  0  0  0  0  0  0
   -2.3808    4.0068    9.2330 H   0  0  0  0  0  0  0  0  0  0  0  0
    0.8770    4.8109    9.2901 C   0  0  0  0  0  0  0  0  0  0  0  0
    1.7578    5.2009   10.0903 O   0  0  0  0  0  0  0  0  0  0  0  0
    0.9796    4.7899    8.0452 O   0  0  0  0  0  0  0  0  0  0  0  0
    0.2669    4.4805    7.5215 H   0  0  0  0  0  0  0  0  0  0  0  0
   -0.2897    2.9824   10.5877 C   0  0  0  0  0  0  0  0  0  0  0  0
   -1.5918    2.2593   10.7198 C   0  0  0  0  0  0  0  0  0  0  0  0
   -2.7128    2.8727   11.2545 N   0  0  0  0  0  0  0  0  0  0  0  0
   -1.8798    0.9687   10.3890 C   0  0  0  0  0  0  0  0  0  0  0  0
   -3.6766    1.9796   11.2680 C   0  0  0  0  0  0  0  0  0  0  0  0
   -3.1811    0.7675   10.7274 N   0  0  0  0  0  0  0  0  0  0  0  0
   -3.9174   -0.4920   10.5640 C   0  0  0  0  0  0  0  0  0  0  0  0
  1  2  1  0  0  0
  2  5  1  0  0  0
  2  9  1  0  0  0
  5  6  2  0  0  0
  5  7  1  0  0  0
  9 10  1  0  0  0
 10 11  1  0  0  0
 10 12  2  0  0  0
 11 13  2  0  0  0
 12 14  1  0  0  0
 13 14  1  0  0  0
 14 15  1  0  0  0
  1  3  1  0  0  0
  1  4  1  0  0  0
  7  8  1  0  0  0
M  END
> <minimizedAffinity>
-5.53860

$$$$
4Y3J_HIC_A_415


 15 15  0  0  0  0  0  0  0  0999 V2000
    1.4011    4.5486    8.8326 N   0  0  0  0  0  0  0  0  0  0  0  0
    0.1226    5.3002    8.9626 C   0  0  0  0  0  0  0  0  0  0  0  0
    1.8987    4.8655    8.0005 H   0  0  0  0  0  0  0  0  0  0  0  0
    1.2025    3.5515    8.7508 H   0  0  0  0  0  0  0  0  0  0  0  0
    0.4153    6.8037    9.0083 C   0  0  0  0  0  0  0  0  0  0  0  0
    0.2321    7.3864   10.1017 O   0  0  0  0  0  0  0  0  0  0  0  0
    0.7982    7.3436    7.9488 O   0  0  0  0  0  0  0  0  0  0  0  0
    0.9090    6.8285    7.1739 H   0  0  0  0  0  0  0  0  0  0  0  0
   -0.6562    4.8517   10.2040 C   0  0  0  0  0  0  0  0  0  0  0  0
   -1.0399    3.4081   10.1366 C   0  0  0  0  0  0  0  0  0  0  0  0
   -0.1146    2.3995   10.3491 N   0  0  0  0  0  0  0  0  0  0  0  0
   -2.2598    2.8696    9.8538 C   0  0  0  0  0  0  0  0  0  0  0  0
   -0.7415    1.2556   10.1903 C   0  0  0  0  0  0  0  0  0  0  0  0
   -2.0977    1.5199    9.8772 N   0  0  0  0  0  0  0  0  0  0  0  0
   -3.1506    0.5321    9.6109 C   0  0  0  0  0  0  0  0  0  0  0  0
  1  2  1  0  0  0
  2  5  1  0  0  0
  2  9  1  0  0  0
  5  6  2  0  0  0
  5  7  1  0  0  0
  9 10  1  0  0  0
 10 11  1  0  0  0
 10 12  2  0  0  0
 11 13  2  0  0  0
 12 14  1  0  0  0
 13 14  1  0  0  0
 14 15  1  0  0  0
  1  3  1  0  0  0
  1  4  1  0  0  0
  7  8  1  0  0  0
M  END
> <minimizedAffinity>
-5.50364

$$$$
4Y3J_HIC_A_415


 15 15  0  0  0  0  0  0  0  0999 V2000
   -0.1656    1.8271   10.0850 N   0  0  0  0  0  0  0  0  0  0  0  0
   -0.9902    2.8035   10.8485 C   0  0  0  0  0  0  0  0  0  0  0  0
    0.1079    1.0598   10.6989 H   0  0  0  0  0  0  0  0  0  0  0  0
    0.6695    2.2922    9.7292 H   0  0  0  0  0  0  0  0  0  0  0  0
   -2.2058    2.0885   11.4481 C   0  0  0  0  0  0  0  0  0  0  0  0
   -2.1791    0.8365   11.4643 O   0  0  0  0  0  0  0  0  0  0  0  0
   -3.1429    2.8039   11.8612 O   0  0  0  0  0  0  0  0  0  0  0  0
   -3.0776    3.7372   11.8100 H   0  0  0  0  0  0  0  0  0  0  0  0
   -1.4221    3.9743    9.9588 C   0  0  0  0  0  0  0  0  0  0  0  0
   -0.3251    4.9725    9.7702 C   0  0  0  0  0  0  0  0  0  0  0  0
    0.9934    4.6680   10.0661 N   0  0  0  0  0  0  0  0  0  0  0  0
   -0.4193    6.2604    9.3337 C   0  0  0  0  0  0  0  0  0  0  0  0
    1.7051    5.7472    9.8304 C   0  0  0  0  0  0  0  0  0  0  0  0
    0.8409    6.7695    9.3665 N   0  0  0  0  0  0  0  0  0  0  0  0
    1.2146    8.1397    8.9947 C   0  0  0  0  0  0  0  0  0  0  0  0
  1  2  1  0  0  0
  2  5  1  0  0  0
  2  9  1  0  0  0
  5  6  2  0  0  0
  5  7  1  0  0  0
  9 10  1  0  0  0
 10 11  1  0  0  0
 10 12  2  0  0  0
 11 13  2  0  0  0
 12 14  1  0  0  0
 13 14  1  0  0  0
 14 15  1  0  0  0
  1  3  1  0  0  0
  1  4  1  0  0  0
  7  8  1  0  0  0
M  END
> <minimizedAffinity>
-5.43677

$$$$
4Y3J_HIC_A_415


 15 15  0  0  0  0  0  0  0  0999 V2000
   -1.0231    0.8194    9.5867 N   0  0  0  0  0  0  0  0  0  0  0  0
   -1.8641    0.7844   10.8145 C   0  0  0  0  0  0  0  0  0  0  0  0
   -1.0387   -0.0963    9.1377 H   0  0  0  0  0  0  0  0  0  0  0  0
   -0.0639    1.0584    9.8383 H   0  0  0  0  0  0  0  0  0  0  0  0
   -3.2874    0.3506   10.4478 C   0  0  0  0  0  0  0  0  0  0  0  0
   -3.4069   -0.6965    9.7712 O   0  0  0  0  0  0  0  0  0  0  0  0
   -4.2246    1.0808   10.8342 O   0  0  0  0  0  0  0  0  0  0  0  0
   -4.0425    1.8492   11.3386 H   0  0  0  0  0  0  0  0  0  0  0  0
   -1.8665    2.1452   11.5196 C   0  0  0  0  0  0  0  0  0  0  0  0
   -1.3951    3.2447   10.6227 C   0  0  0  0  0  0  0  0  0  0  0  0
   -0.0479    3.4589   10.3818 N   0  0  0  0  0  0  0  0  0  0  0  0
   -2.1408    4.1710    9.9566 C   0  0  0  0  0  0  0  0  0  0  0  0
    0.0452    4.5045    9.5915 C   0  0  0  0  0  0  0  0  0  0  0  0
   -1.2597    4.9760    9.3052 N   0  0  0  0  0  0  0  0  0  0  0  0
   -1.6180    6.1289    8.4699 C   0  0  0  0  0  0  0  0  0  0  0  0
  1  2  1  0  0  0
  2  5  1  0  0  0
  2  9  1  0  0  0
  5  6  2  0  0  0
  5  7  1  0  0  0
  9 10  1  0  0  0
 10 11  1  0  0  0
 10 12  2  0  0  0
 11 13  2  0  0  0
 12 14  1  0  0  0
 13 14  1  0  0  0
 14 15  1  0  0  0
  1  3  1  0  0  0
  1  4  1  0  0  0
  7  8  1  0  0  0
M  END
> <minimizedAffinity>
-5.36594

$$$$
4Y3J_HIC_A_415


 15 15  0  0  0  0  0  0  0  0999 V2000
    0.0187    3.1543    9.9649 N   0  0  0  0  0  0  0  0  0  0  0  0
   -1.0453    2.4992   10.7742 C   0  0  0  0  0  0  0  0  0  0  0  0
    0.8739    2.6006   10.0156 H   0  0  0  0  0  0  0  0  0  0  0  0
    0.1971    4.0895   10.3309 H   0  0  0  0  0  0  0  0  0  0  0  0
   -1.2601    1.0668   10.2738 C   0  0  0  0  0  0  0  0  0  0  0  0
   -1.9283    0.3020   11.0066 O   0  0  0  0  0  0  0  0  0  0  0  0
   -0.7391    0.7594    9.1807 O   0  0  0  0  0  0  0  0  0  0  0  0
   -0.2538    1.3984    8.6969 H   0  0  0  0  0  0  0  0  0  0  0  0
   -2.3493    3.3028   10.7234 C   0  0  0  0  0  0  0  0  0  0  0  0
   -2.4047    4.2115    9.5374 C   0  0  0  0  0  0  0  0  0  0  0  0
   -1.9043    5.5022    9.5866 N   0  0  0  0  0  0  0  0  0  0  0  0
   -2.9346    3.9637    8.3062 C   0  0  0  0  0  0  0  0  0  0  0  0
   -2.1280    6.0520    8.4144 C   0  0  0  0  0  0  0  0  0  0  0  0
   -2.7770    5.1051    7.5842 N   0  0  0  0  0  0  0  0  0  0  0  0
   -3.2187    5.3025    6.1982 C   0  0  0  0  0  0  0  0  0  0  0  0
  1  2  1  0  0  0
  2  5  1  0  0  0
  2  9  1  0  0  0
  5  6  2  0  0  0
  5  7  1  0  0  0
  9 10  1  0  0  0
 10 11  1  0  0  0
 10 12  2  0  0  0
 11 13  2  0  0  0
 12 14  1  0  0  0
 13 14  1  0  0  0
 14 15  1  0  0  0
  1  3  1  0  0  0
  1  4  1  0  0  0
  7  8  1  0  0  0
M  END
> <minimizedAffinity>
-5.34816

$$$$
4Y3J_HIC_A_415


 15 15  0  0  0  0  0  0  0  0999 V2000
   -5.2156    1.4152    9.2061 N   0  0  0  0  0  0  0  0  0  0  0  0
   -5.2130    0.2725   10.1603 C   0  0  0  0  0  0  0  0  0  0  0  0
   -6.1619    1.5633    8.8555 H   0  0  0  0  0  0  0  0  0  0  0  0
   -4.5924    1.2079    8.4257 H   0  0  0  0  0  0  0  0  0  0  0  0
   -6.2067    0.5497   11.2934 C   0  0  0  0  0  0  0  0  0  0  0  0
   -6.8272   -0.4332   11.7597 O   0  0  0  0  0  0  0  0  0  0  0  0
   -6.3398    1.7370   11.6588 O   0  0  0  0  0  0  0  0  0  0  0  0
   -5.8321    2.4118   11.2528 H   0  0  0  0  0  0  0  0  0  0  0  0
   -3.8056    0.0176   10.7107 C   0  0  0  0  0  0  0  0  0  0  0  0
   -2.9848    1.2664   10.7577 C   0  0  0  0  0  0  0  0  0  0  0  0
   -3.4511    2.4201   11.3662 N   0  0  0  0  0  0  0  0  0  0  0  0
   -1.7455    1.4842   10.2336 C   0  0  0  0  0  0  0  0  0  0  0  0
   -2.5270    3.3418   11.2143 C   0  0  0  0  0  0  0  0  0  0  0  0
   -1.4376    2.7807   10.5033 N   0  0  0  0  0  0  0  0  0  0  0  0
   -0.1976    3.4603   10.1084 C   0  0  0  0  0  0  0  0  0  0  0  0
  1  2  1  0  0  0
  2  5  1  0  0  0
  2  9  1  0  0  0
  5  6  2  0  0  0
  5  7  1  0  0  0
  9 10  1  0  0  0
 10 11  1  0  0  0
 10 12  2  0  0  0
 11 13  2  0  0  0
 12 14  1  0  0  0
 13 14  1  0  0  0
 14 15  1  0  0  0
  1  3  1  0  0  0
  1  4  1  0  0  0
  7  8  1  0  0  0
M  END
> <minimizedAffinity>
-5.13180

$$$$
4Y3J_HIC_A_415


 15 15  0  0  0  0  0  0  0  0999 V2000
    0.3274    5.0461    8.4873 N   0  0  0  0  0  0  0  0  0  0  0  0
   -0.5641    5.0049    9.6789 C   0  0  0  0  0  0  0  0  0  0  0  0
    1.2282    4.6291    8.7221 H   0  0  0  0  0  0  0  0  0  0  0  0
    0.4658    6.0148    8.1996 H   0  0  0  0  0  0  0  0  0  0  0  0
   -0.7109    3.5569   10.1584 C   0  0  0  0  0  0  0  0  0  0  0  0
   -1.7102    3.2895   10.8644 O   0  0  0  0  0  0  0  0  0  0  0  0
    0.1845    2.7515    9.8261 O   0  0  0  0  0  0  0  0  0  0  0  0
    0.8994    3.0395    9.2933 H   0  0  0  0  0  0  0  0  0  0  0  0
   -1.9308    5.6238    9.3660 C   0  0  0  0  0  0  0  0  0  0  0  0
   -1.8370    6.7046    8.3370 C   0  0  0  0  0  0  0  0  0  0  0  0
   -0.8779    7.7010    8.4149 N   0  0  0  0  0  0  0  0  0  0  0  0
   -2.6265    6.9020    7.2435 C   0  0  0  0  0  0  0  0  0  0  0  0
   -1.0726    8.5097    7.3977 C   0  0  0  0  0  0  0  0  0  0  0  0
   -2.1696    8.0312    6.6396 N   0  0  0  0  0  0  0  0  0  0  0  0
   -2.7346    8.6352    5.4267 C   0  0  0  0  0  0  0  0  0  0  0  0
  1  2  1  0  0  0
  2  5  1  0  0  0
  2  9  1  0  0  0
  5  6  2  0  0  0
  5  7  1  0  0  0
  9 10  1  0  0  0
 10 11  1  0  0  0
 10 12  2  0  0  0
 11 13  2  0  0  0
 12 14  1  0  0  0
 13 14  1  0  0  0
 14 15  1  0  0  0
  1  3  1  0  0  0
  1  4  1  0  0  0
  7  8  1  0  0  0
M  END
> <minimizedAffinity>
-5.11657

$$$$
4Y3J_HIC_A_415


 15 15  0  0  0  0  0  0  0  0999 V2000
   -3.2954    3.1629   11.4352 N   0  0  0  0  0  0  0  0  0  0  0  0
   -2.0153    2.4039   11.4721 C   0  0  0  0  0  0  0  0  0  0  0  0
   -3.1167    4.1420   11.6585 H   0  0  0  0  0  0  0  0  0  0  0  0
   -3.9429    2.7710   12.1191 H   0  0  0  0  0  0  0  0  0  0  0  0
   -1.0153    3.0395   10.5003 C   0  0  0  0  0  0  0  0  0  0  0  0
   -1.2175    4.2316   10.1742 O   0  0  0  0  0  0  0  0  0  0  0  0
   -0.0811    2.3189   10.0895 O   0  0  0  0  0  0  0  0  0  0  0  0
   -0.0061    1.4338   10.3878 H   0  0  0  0  0  0  0  0  0  0  0  0
   -2.2422    0.9247   11.1412 C   0  0  0  0  0  0  0  0  0  0  0  0
   -3.2736    0.7383   10.0749 C   0  0  0  0  0  0  0  0  0  0  0  0
   -4.6249    0.6782   10.3734 N   0  0  0  0  0  0  0  0  0  0  0  0
   -3.0851    0.5823    8.7340 C   0  0  0  0  0  0  0  0  0  0  0  0
   -5.2651    0.4769    9.2437 C   0  0  0  0  0  0  0  0  0  0  0  0
   -4.3197    0.4123    8.1905 N   0  0  0  0  0  0  0  0  0  0  0  0
   -4.5989    0.1909    6.7663 C   0  0  0  0  0  0  0  0  0  0  0  0
  1  2  1  0  0  0
  2  5  1  0  0  0
  2  9  1  0  0  0
  5  6  2  0  0  0
  5  7  1  0  0  0
  9 10  1  0  0  0
 10 11  1  0  0  0
 10 12  2  0  0  0
 11 13  2  0  0  0
 12 14  1  0  0  0
 13 14  1  0  0  0
 14 15  1  0  0  0
  1  3  1  0  0  0
  1  4  1  0  0  0
  7  8  1  0  0  0
M  END
> <minimizedAffinity>
-5.08770

$$$$
4Y3J_HIC_A_415


 15 15  0  0  0  0  0  0  0  0999 V2000
    0.7473    4.9210    8.3906 N   0  0  0  0  0  0  0  0  0  0  0  0
    0.2327    6.1073    9.1282 C   0  0  0  0  0  0  0  0  0  0  0  0
    1.7208    5.0785    8.1303 H   0  0  0  0  0  0  0  0  0  0  0  0
    0.1896    4.7757    7.5490 H   0  0  0  0  0  0  0  0  0  0  0  0
    1.1168    6.3724   10.3515 C   0  0  0  0  0  0  0  0  0  0  0  0
    0.7582    7.2897   11.1250 O   0  0  0  0  0  0  0  0  0  0  0  0
    2.1402    5.6675   10.4802 O   0  0  0  0  0  0  0  0  0  0  0  0
    2.3318    5.0005    9.8507 H   0  0  0  0  0  0  0  0  0  0  0  0
   -1.2308    5.9092    9.5377 C   0  0  0  0  0  0  0  0  0  0  0  0
   -2.0483    5.3157    8.4354 C   0  0  0  0  0  0  0  0  0  0  0  0
   -2.1082    5.8984    7.1802 N   0  0  0  0  0  0  0  0  0  0  0  0
   -2.8348    4.2029    8.4707 C   0  0  0  0  0  0  0  0  0  0  0  0
   -2.9244    5.1710    6.4513 C   0  0  0  0  0  0  0  0  0  0  0  0
   -3.3989    4.0929    7.2385 N   0  0  0  0  0  0  0  0  0  0  0  0
   -4.3381    3.0437    6.8237 C   0  0  0  0  0  0  0  0  0  0  0  0
  1  2  1  0  0  0
  2  5  1  0  0  0
  2  9  1  0  0  0
  5  6  2  0  0  0
  5  7  1  0  0  0
  9 10  1  0  0  0
 10 11  1  0  0  0
 10 12  2  0  0  0
 11 13  2  0  0  0
 12 14  1  0  0  0
 13 14  1  0  0  0
 14 15  1  0  0  0
  1  3  1  0  0  0
  1  4  1  0  0  0
  7  8  1  0  0  0
M  END
> <minimizedAffinity>
-5.06808

$$$$
4Y3J_HIC_A_415


 15 15  0  0  0  0  0  0  0  0999 V2000
    0.1870    3.3333    9.8450 N   0  0  0  0  0  0  0  0  0  0  0  0
   -0.1859    4.6974    9.3800 C   0  0  0  0  0  0  0  0  0  0  0  0
    1.1912    3.1973    9.7293 H   0  0  0  0  0  0  0  0  0  0  0  0
   -0.3160    2.6372    9.2947 H   0  0  0  0  0  0  0  0  0  0  0  0
    0.6262    5.7416   10.1536 C   0  0  0  0  0  0  0  0  0  0  0  0
    1.7698    5.4040   10.5365 O   0  0  0  0  0  0  0  0  0  0  0  0
    0.0836    6.8475   10.3621 O   0  0  0  0  0  0  0  0  0  0  0  0
   -0.7792    7.0147   10.0371 H   0  0  0  0  0  0  0  0  0  0  0  0
   -1.6907    4.9411    9.5379 C   0  0  0  0  0  0  0  0  0  0  0  0
   -2.2908    5.5655    8.3190 C   0  0  0  0  0  0  0  0  0  0  0  0
   -2.3865    6.9402    8.1788 N   0  0  0  0  0  0  0  0  0  0  0  0
   -2.8285    4.9473    7.2296 C   0  0  0  0  0  0  0  0  0  0  0  0
   -2.9823    7.1744    7.0313 C   0  0  0  0  0  0  0  0  0  0  0  0
   -3.2733    5.9356    6.4087 N   0  0  0  0  0  0  0  0  0  0  0  0
   -3.9433    5.7322    5.1183 C   0  0  0  0  0  0  0  0  0  0  0  0
  1  2  1  0  0  0
  2  5  1  0  0  0
  2  9  1  0  0  0
  5  6  2  0  0  0
  5  7  1  0  0  0
  9 10  1  0  0  0
 10 11  1  0  0  0
 10 12  2  0  0  0
 11 13  2  0  0  0
 12 14  1  0  0  0
 13 14  1  0  0  0
 14 15  1  0  0  0
  1  3  1  0  0  0
  1  4  1  0  0  0
  7  8  1  0  0  0
M  END
> <minimizedAffinity>
-4.94359

$$$$
