4YML_4F0_A_301


 24 26  0  0  0  0  0  0  0  0999 V2000
  -25.1061    2.4330  -21.7119 C   0  0  0  0  0  0  0  0  0  0  0  0
  -23.3299    1.2661  -22.5707 C   0  0  0  0  0  0  0  0  0  0  0  0
  -22.5634    2.4928  -22.7777 C   0  0  0  0  0  0  0  0  0  0  0  0
  -23.2195    3.7320  -22.3363 C   0  0  0  0  0  0  0  0  0  0  0  0
  -22.5106    0.1732  -23.0523 C   0  0  0  0  0  0  0  0  0  0  0  0
  -21.3300    0.7721  -23.4983 C   0  0  0  0  0  0  0  0  0  0  0  0
  -21.3695    2.1323  -23.3260 N   0  0  0  0  0  0  0  0  0  0  0  0
  -22.6107    4.9455  -22.4603 N   0  0  0  0  0  0  0  0  0  0  0  0
  -24.4780    3.6219  -21.8375 N   0  0  0  0  0  0  0  0  0  0  0  0
  -24.5814    1.2468  -22.0581 N   0  0  0  0  0  0  0  0  0  0  0  0
  -20.6443    2.7545  -23.5630 H   0  0  0  0  0  0  0  0  0  0  0  0
  -21.6978    5.0033  -22.8243 H   0  0  0  0  0  0  0  0  0  0  0  0
  -23.0839    5.7640  -22.1859 H   0  0  0  0  0  0  0  0  0  0  0  0
  -22.9170   -1.2720  -23.0757 C   0  0  0  0  0  0  0  0  0  0  0  0
  -25.1386   -1.5140  -25.1892 C   0  0  0  0  0  0  0  0  0  0  0  0
  -23.7521   -0.9497  -25.3566 C   0  0  0  0  0  0  0  0  0  0  0  0
  -22.9143   -1.7584  -24.4736 N   0  0  0  0  0  0  0  0  0  0  0  0
  -23.4591   -3.1240  -24.5464 C   0  0  0  0  0  0  0  0  0  0  0  0
  -24.9533   -2.8936  -24.5453 C   0  0  0  0  0  0  0  0  0  0  0  0
  -25.4135   -2.9288  -23.1792 O   0  0  0  0  0  0  0  0  0  0  0  0
  -24.9277   -2.2710  -22.6574 H   0  0  0  0  0  0  0  0  0  0  0  0
  -25.8347   -1.5433  -26.5499 C   0  0  0  0  0  0  0  0  0  0  0  0
  -25.1307   -1.0022  -29.3699 C   0  0  0  0  0  0  0  0  0  0  0  0
  -25.0428   -0.4419  -27.7050 S   0  0  0  0  0  0  0  0  0  0  0  0
 23 24  1  0  0  0
 24 22  1  0  0  0
 22 15  1  0  0  0
 16 15  1  0  0  0
 16 17  1  0  0  0
 15 19  1  0  0  0
 17 18  1  0  0  0
 17 14  1  0  0  0
 18 19  1  0  0  0
 19 20  1  0  0  0
  6  7  1  0  0  0
  6  5  2  0  0  0
  7  3  1  0  0  0
  5 14  1  0  0  0
  5  2  1  0  0  0
  3  4  2  0  0  0
  3  2  1  0  0  0
  8  4  1  0  0  0
  4  9  1  0  0  0
  2 10  2  0  0  0
  9  1  2  0  0  0
 10  1  1  0  0  0
  7 11  1  0  0  0
  8 12  1  0  0  0
  8 13  1  0  0  0
 20 21  1  0  0  0
M  END
> <minimizedAffinity>
-9.71281

$$$$
