5CXA_55L_A_306


 52 54  0  0  0  0  0  0  0  0999 V2000
    7.7237   27.6479    4.7408 N   0  0  0  0  0  0  0  0  0  0  0  0
    8.6445   26.8297    4.2602 C   0  0  0  0  0  0  0  0  0  0  0  0
    9.8381   27.0776    4.3425 O   0  0  0  0  0  0  0  0  0  0  0  0
    6.7785   27.3748    4.7750 H   0  0  0  0  0  0  0  0  0  0  0  0
    8.1343   28.9597    5.2180 C   0  0  0  0  0  0  0  0  0  0  0  0
    8.5967   29.2524    7.5538 N   0  0  0  0  0  0  0  0  0  0  0  0
    7.6517   29.1928    6.6229 C   0  0  0  0  0  0  0  0  0  0  0  0
    6.4460   29.2999    6.8719 O   0  0  0  0  0  0  0  0  0  0  0  0
    9.5115   28.9797    7.3128 H   0  0  0  0  0  0  0  0  0  0  0  0
    8.3423   29.7018    8.9125 C   0  0  0  0  0  0  0  0  0  0  0  0
    9.4818   30.4634    9.5305 C   0  0  0  0  0  0  0  0  0  0  0  0
    9.2318   31.7193    9.8461 N   0  0  0  0  0  0  0  0  0  0  0  0
   10.5850   29.9420    9.6941 O   0  0  0  0  0  0  0  0  0  0  0  0
    9.9355   32.2737   10.2544 H   0  0  0  0  0  0  0  0  0  0  0  0
    8.3415   32.1024    9.6735 H   0  0  0  0  0  0  0  0  0  0  0  0
    8.1180   28.4954    9.8075 C   0  0  0  0  0  0  0  0  0  0  0  0
    7.8257   28.7661   11.2715 C   0  0  0  0  0  0  0  0  0  0  0  0
    9.2813   28.3129   13.0616 O   0  0  0  0  0  0  0  0  0  0  0  0
    8.6512   27.8420   12.1219 C   0  0  0  0  0  0  0  0  0  0  0  0
    8.6586   26.5761   11.8316 O   0  0  0  0  0  0  0  0  0  0  0  0
    8.1615   26.2595   11.1032 H   0  0  0  0  0  0  0  0  0  0  0  0
    7.7483   30.0976    4.2568 C   0  0  0  0  0  0  0  0  0  0  0  0
    8.6452   30.1874    3.0244 C   0  0  0  0  0  0  0  0  0  0  0  0
    7.9764   29.6130    1.7852 C   0  0  0  0  0  0  0  0  0  0  0  0
    6.7965   30.0260    1.4210 O   0  0  0  0  0  0  0  0  0  0  0  0
    8.5880   28.7276    1.1504 O   0  0  0  0  0  0  0  0  0  0  0  0
    6.3599   30.6916    1.9154 H   0  0  0  0  0  0  0  0  0  0  0  0
    8.1803   25.5819    3.5793 C   0  0  0  0  0  0  0  0  0  0  0  0
    9.1099   25.3123    2.3930 C   0  0  0  0  0  0  0  0  0  0  0  0
    8.3648   25.1783    1.0843 C   0  0  0  0  0  0  0  0  0  0  0  0
    7.3893   25.9283    0.8641 O   0  0  0  0  0  0  0  0  0  0  0  0
    8.7495   24.3324    0.2463 O   0  0  0  0  0  0  0  0  0  0  0  0
    7.1232   26.5528    1.5100 H   0  0  0  0  0  0  0  0  0  0  0  0
    8.2652   24.4347    4.5870 C   0  0  0  0  0  0  0  0  0  0  0  0
    7.0182   23.9045    5.2210 C   0  0  0  0  0  0  0  0  0  0  0  0
    5.6934   24.1058    5.1319 C   0  0  0  0  0  0  0  0  0  0  0  0
    7.2462   22.8938    6.1142 O   0  0  0  0  0  0  0  0  0  0  0  0
    5.9950   22.4632    6.6174 N   0  0  0  0  0  0  0  0  0  0  0  0
    5.0928   23.2055    6.0194 C   0  0  0  0  0  0  0  0  0  0  0  0
    3.6485   22.9807    6.3121 C   0  0  0  0  0  0  0  0  0  0  0  0
    2.6794   23.6955    5.6114 C   0  0  0  0  0  0  0  0  0  0  0  0
    1.3308   23.5125    5.8931 C   0  0  0  0  0  0  0  0  0  0  0  0
    3.2512   22.1125    7.3203 C   0  0  0  0  0  0  0  0  0  0  0  0
    1.9043   21.9307    7.5930 C   0  0  0  0  0  0  0  0  0  0  0  0
    0.9323   22.6269    6.8893 C   0  0  0  0  0  0  0  0  0  0  0  0
   -0.4975   22.4134    7.2072 C   0  0  0  0  0  0  0  0  0  0  0  0
   -1.3035   23.4865    7.5570 C   0  0  0  0  0  0  0  0  0  0  0  0
   -1.0308   21.1340    7.1802 C   0  0  0  0  0  0  0  0  0  0  0  0
   -2.3695   20.9208    7.4826 C   0  0  0  0  0  0  0  0  0  0  0  0
   -3.1727   21.9860    7.8245 C   0  0  0  0  0  0  0  0  0  0  0  0
   -2.6385   23.2552    7.8584 C   0  0  0  0  0  0  0  0  0  0  0  0
   -3.6532   24.5889    8.2889 Cl  0  0  0  0  0  0  0  0  0  0  0  0
 32 30  2  0  0  0
 31 30  1  0  0  0
 30 29  1  0  0  0
 26 24  2  0  0  0
 29 28  1  0  0  0
 24 25  1  0  0  0
 24 23  1  0  0  0
 28 34  1  0  0  0
 28  2  1  0  0  0
 23 22  1  0  0  0
 34 35  1  0  0  0
  2  1  1  0  0  0
  2  3  2  0  0  0
 22  5  1  0  0  0
  1  5  1  0  0  0
 36 35  2  0  0  0
 36 39  1  0  0  0
 35 37  1  0  0  0
  5  7  1  0  0  0
 43 44  2  0  0  0
 43 40  1  0  0  0
 39 40  1  0  0  0
 39 38  2  0  0  0
 37 38  1  0  0  0
 44 45  1  0  0  0
 40 41  2  0  0  0
  7  8  2  0  0  0
  7  6  1  0  0  0
 12 11  1  0  0  0
 45 46  1  0  0  0
 45 42  2  0  0  0
 41 42  1  0  0  0
  6 10  1  0  0  0
 46 48  2  0  0  0
 46 47  1  0  0  0
 48 49  1  0  0  0
 47 51  2  0  0  0
 49 50  2  0  0  0
 11 13  2  0  0  0
 11 10  1  0  0  0
 51 50  1  0  0  0
 51 52  1  0  0  0
 10 16  1  0  0  0
 16 17  1  0  0  0
 17 19  1  0  0  0
 18 19  2  0  0  0
 19 20  1  0  0  0
 20 21  1  0  0  0
 12 14  1  0  0  0
 12 15  1  0  0  0
  6  9  1  0  0  0
 25 27  1  0  0  0
  1  4  1  0  0  0
 31 33  1  0  0  0
M  END
> <minimizedAffinity>
-10.86081

$$$$
5CXA_55L_A_306


 52 54  0  0  0  0  0  0  0  0999 V2000
    7.7774   27.9876    4.6788 N   0  0  0  0  0  0  0  0  0  0  0  0
    8.6467   27.0627    4.3084 C   0  0  0  0  0  0  0  0  0  0  0  0
    9.8267   27.1206    4.6201 O   0  0  0  0  0  0  0  0  0  0  0  0
    6.8135   27.8610    4.5236 H   0  0  0  0  0  0  0  0  0  0  0  0
    8.2728   29.1960    5.3203 C   0  0  0  0  0  0  0  0  0  0  0  0
    8.6592   29.4273    7.6767 N   0  0  0  0  0  0  0  0  0  0  0  0
    7.7428   29.3127    6.7226 C   0  0  0  0  0  0  0  0  0  0  0  0
    6.5282   29.2824    6.9482 O   0  0  0  0  0  0  0  0  0  0  0  0
    9.6018   29.2625    7.4450 H   0  0  0  0  0  0  0  0  0  0  0  0
    8.3342   29.7849    9.0476 C   0  0  0  0  0  0  0  0  0  0  0  0
    9.4459   30.4843    9.7793 C   0  0  0  0  0  0  0  0  0  0  0  0
    9.1751   31.7001   10.2129 N   0  0  0  0  0  0  0  0  0  0  0  0
   10.5471   29.9540    9.9269 O   0  0  0  0  0  0  0  0  0  0  0  0
    9.8600   32.2129   10.6999 H   0  0  0  0  0  0  0  0  0  0  0  0
    8.2881   32.0948   10.0496 H   0  0  0  0  0  0  0  0  0  0  0  0
    8.0467   28.5226    9.8418 C   0  0  0  0  0  0  0  0  0  0  0  0
    7.5713   28.6993   11.2717 C   0  0  0  0  0  0  0  0  0  0  0  0
    7.9595   27.5102   13.2627 O   0  0  0  0  0  0  0  0  0  0  0  0
    8.4239   27.8646   12.1854 C   0  0  0  0  0  0  0  0  0  0  0  0
    9.6199   27.5441   11.7934 O   0  0  0  0  0  0  0  0  0  0  0  0
    9.9344   27.8374   10.9609 H   0  0  0  0  0  0  0  0  0  0  0  0
    8.0317   30.4640    4.4825 C   0  0  0  0  0  0  0  0  0  0  0  0
    9.2665   31.3519    4.3483 C   0  0  0  0  0  0  0  0  0  0  0  0
    9.2280   32.5359    5.3019 C   0  0  0  0  0  0  0  0  0  0  0  0
    9.1445   33.7511    4.8416 O   0  0  0  0  0  0  0  0  0  0  0  0
    9.2980   32.3001    6.5268 O   0  0  0  0  0  0  0  0  0  0  0  0
    9.0932   33.8997    3.9179 H   0  0  0  0  0  0  0  0  0  0  0  0
    8.1464   25.9356    3.4625 C   0  0  0  0  0  0  0  0  0  0  0  0
    9.0333   25.8438    2.2179 C   0  0  0  0  0  0  0  0  0  0  0  0
    8.2792   25.3718    0.9954 C   0  0  0  0  0  0  0  0  0  0  0  0
    7.3068   26.0434    0.5879 O   0  0  0  0  0  0  0  0  0  0  0  0
    8.6535   24.3306    0.4111 O   0  0  0  0  0  0  0  0  0  0  0  0
    7.0485   26.8192    1.0455 H   0  0  0  0  0  0  0  0  0  0  0  0
    8.2516   24.6482    4.2811 C   0  0  0  0  0  0  0  0  0  0  0  0
    7.0300   24.0695    4.9221 C   0  0  0  0  0  0  0  0  0  0  0  0
    5.7181   24.3474    4.9955 C   0  0  0  0  0  0  0  0  0  0  0  0
    7.2657   22.8999    5.5914 O   0  0  0  0  0  0  0  0  0  0  0  0
    6.0355   22.4437    6.1229 N   0  0  0  0  0  0  0  0  0  0  0  0
    5.1365   23.3271    5.7569 C   0  0  0  0  0  0  0  0  0  0  0  0
    3.7101   23.1213    6.1378 C   0  0  0  0  0  0  0  0  0  0  0  0
    3.3858   22.2236    7.1528 C   0  0  0  0  0  0  0  0  0  0  0  0
    2.0578   22.0051    7.4996 C   0  0  0  0  0  0  0  0  0  0  0  0
    2.6882   23.7650    5.4526 C   0  0  0  0  0  0  0  0  0  0  0  0
    1.3659   23.5465    5.8065 C   0  0  0  0  0  0  0  0  0  0  0  0
    1.0353   22.6661    6.8266 C   0  0  0  0  0  0  0  0  0  0  0  0
   -0.3865   22.4515    7.1779 C   0  0  0  0  0  0  0  0  0  0  0  0
   -1.1918   23.5273    7.5209 C   0  0  0  0  0  0  0  0  0  0  0  0
   -0.9125   21.1688    7.1893 C   0  0  0  0  0  0  0  0  0  0  0  0
   -2.2435   20.9547    7.5233 C   0  0  0  0  0  0  0  0  0  0  0  0
   -3.0461   22.0225    7.8584 C   0  0  0  0  0  0  0  0  0  0  0  0
   -2.5191   23.2952    7.8542 C   0  0  0  0  0  0  0  0  0  0  0  0
   -3.5329   24.6321    8.2764 Cl  0  0  0  0  0  0  0  0  0  0  0  0
 32 30  2  0  0  0
 31 30  1  0  0  0
 30 29  1  0  0  0
 26 24  2  0  0  0
 29 28  1  0  0  0
 24 25  1  0  0  0
 24 23  1  0  0  0
 28 34  1  0  0  0
 28  2  1  0  0  0
 23 22  1  0  0  0
 34 35  1  0  0  0
  2  1  1  0  0  0
  2  3  2  0  0  0
 22  5  1  0  0  0
  1  5  1  0  0  0
 36 35  2  0  0  0
 36 39  1  0  0  0
 35 37  1  0  0  0
  5  7  1  0  0  0
 43 44  2  0  0  0
 43 40  1  0  0  0
 39 40  1  0  0  0
 39 38  2  0  0  0
 37 38  1  0  0  0
 44 45  1  0  0  0
 40 41  2  0  0  0
  7  8  2  0  0  0
  7  6  1  0  0  0
 12 11  1  0  0  0
 45 46  1  0  0  0
 45 42  2  0  0  0
 41 42  1  0  0  0
  6 10  1  0  0  0
 46 48  2  0  0  0
 46 47  1  0  0  0
 48 49  1  0  0  0
 47 51  2  0  0  0
 49 50  2  0  0  0
 11 13  2  0  0  0
 11 10  1  0  0  0
 51 50  1  0  0  0
 51 52  1  0  0  0
 10 16  1  0  0  0
 16 17  1  0  0  0
 17 19  1  0  0  0
 18 19  2  0  0  0
 19 20  1  0  0  0
 20 21  1  0  0  0
 12 14  1  0  0  0
 12 15  1  0  0  0
  6  9  1  0  0  0
 25 27  1  0  0  0
  1  4  1  0  0  0
 31 33  1  0  0  0
M  END
> <minimizedAffinity>
-10.47734

$$$$
5CXA_55L_A_306


 52 54  0  0  0  0  0  0  0  0999 V2000
    8.7564   25.8474    2.2731 N   0  0  0  0  0  0  0  0  0  0  0  0
    9.3330   25.6722    3.4501 C   0  0  0  0  0  0  0  0  0  0  0  0
   10.5446   25.7367    3.5941 O   0  0  0  0  0  0  0  0  0  0  0  0
    7.7770   25.9136    2.1991 H   0  0  0  0  0  0  0  0  0  0  0  0
    9.5975   25.9403    1.0894 C   0  0  0  0  0  0  0  0  0  0  0  0
   10.9391   27.5454   -0.0850 N   0  0  0  0  0  0  0  0  0  0  0  0
    9.9795   27.3686    0.8157 C   0  0  0  0  0  0  0  0  0  0  0  0
    9.4334   28.2997    1.4174 O   0  0  0  0  0  0  0  0  0  0  0  0
   11.4501   26.7601   -0.3873 H   0  0  0  0  0  0  0  0  0  0  0  0
   11.2694   28.8455   -0.6449 C   0  0  0  0  0  0  0  0  0  0  0  0
   10.4609   29.2147   -1.8575 C   0  0  0  0  0  0  0  0  0  0  0  0
   10.2610   28.2489   -2.7330 N   0  0  0  0  0  0  0  0  0  0  0  0
   10.0466   30.3620   -2.0245 O   0  0  0  0  0  0  0  0  0  0  0  0
    9.7394   28.4247   -3.5493 H   0  0  0  0  0  0  0  0  0  0  0  0
   10.6333   27.3522   -2.5704 H   0  0  0  0  0  0  0  0  0  0  0  0
   12.7186   28.8437   -1.0993 C   0  0  0  0  0  0  0  0  0  0  0  0
   13.4235   27.5012   -1.1551 C   0  0  0  0  0  0  0  0  0  0  0  0
   14.8936   27.4584   -2.9896 O   0  0  0  0  0  0  0  0  0  0  0  0
   13.7715   27.1819   -2.5818 C   0  0  0  0  0  0  0  0  0  0  0  0
   12.8698   26.6169   -3.3265 O   0  0  0  0  0  0  0  0  0  0  0  0
   12.0241   26.4233   -2.9726 H   0  0  0  0  0  0  0  0  0  0  0  0
    8.9891   25.2384   -0.1375 C   0  0  0  0  0  0  0  0  0  0  0  0
    9.7666   24.0020   -0.5823 C   0  0  0  0  0  0  0  0  0  0  0  0
   10.4301   24.1982   -1.9366 C   0  0  0  0  0  0  0  0  0  0  0  0
   10.6027   25.3951   -2.4194 O   0  0  0  0  0  0  0  0  0  0  0  0
   10.7808   23.1780   -2.5669 O   0  0  0  0  0  0  0  0  0  0  0  0
   10.3303   26.1433   -1.9255 H   0  0  0  0  0  0  0  0  0  0  0  0
    8.4518   25.3634    4.6181 C   0  0  0  0  0  0  0  0  0  0  0  0
    7.3454   26.4203    4.6730 C   0  0  0  0  0  0  0  0  0  0  0  0
    7.8852   27.8324    4.6878 C   0  0  0  0  0  0  0  0  0  0  0  0
    7.5939   28.6013    3.7462 O   0  0  0  0  0  0  0  0  0  0  0  0
    8.5971   28.2041    5.6474 O   0  0  0  0  0  0  0  0  0  0  0  0
    7.0587   28.2958    3.0404 H   0  0  0  0  0  0  0  0  0  0  0  0
    7.8458   23.9766    4.3985 C   0  0  0  0  0  0  0  0  0  0  0  0
    6.6012   23.5819    5.1288 C   0  0  0  0  0  0  0  0  0  0  0  0
    5.2732   23.7036    4.9700 C   0  0  0  0  0  0  0  0  0  0  0  0
    6.8394   22.8456    6.2568 O   0  0  0  0  0  0  0  0  0  0  0  0
    5.5906   22.5131    6.8349 N   0  0  0  0  0  0  0  0  0  0  0  0
    4.6801   23.0413    6.0511 C   0  0  0  0  0  0  0  0  0  0  0  0
    3.2370   22.8460    6.3696 C   0  0  0  0  0  0  0  0  0  0  0  0
    2.2813   23.6845    5.7998 C   0  0  0  0  0  0  0  0  0  0  0  0
    0.9353   23.5276    6.1089 C   0  0  0  0  0  0  0  0  0  0  0  0
    2.8313   21.8775    7.2782 C   0  0  0  0  0  0  0  0  0  0  0  0
    1.4869   21.7230    7.5785 C   0  0  0  0  0  0  0  0  0  0  0  0
    0.5273   22.5436    7.0035 C   0  0  0  0  0  0  0  0  0  0  0  0
   -0.9000   22.3556    7.3479 C   0  0  0  0  0  0  0  0  0  0  0  0
   -1.6882   23.4470    7.6811 C   0  0  0  0  0  0  0  0  0  0  0  0
   -1.4485   21.0824    7.3624 C   0  0  0  0  0  0  0  0  0  0  0  0
   -2.7849   20.8932    7.6898 C   0  0  0  0  0  0  0  0  0  0  0  0
   -3.5705   21.9765    8.0153 C   0  0  0  0  0  0  0  0  0  0  0  0
   -3.0212   23.2397    8.0080 C   0  0  0  0  0  0  0  0  0  0  0  0
   -4.0137   24.5963    8.4181 Cl  0  0  0  0  0  0  0  0  0  0  0  0
 32 30  2  0  0  0
 31 30  1  0  0  0
 30 29  1  0  0  0
 26 24  2  0  0  0
 29 28  1  0  0  0
 24 25  1  0  0  0
 24 23  1  0  0  0
 28 34  1  0  0  0
 28  2  1  0  0  0
 23 22  1  0  0  0
 34 35  1  0  0  0
  2  1  1  0  0  0
  2  3  2  0  0  0
 22  5  1  0  0  0
  1  5  1  0  0  0
 36 35  2  0  0  0
 36 39  1  0  0  0
 35 37  1  0  0  0
  5  7  1  0  0  0
 43 44  2  0  0  0
 43 40  1  0  0  0
 39 40  1  0  0  0
 39 38  2  0  0  0
 37 38  1  0  0  0
 44 45  1  0  0  0
 40 41  2  0  0  0
  7  8  2  0  0  0
  7  6  1  0  0  0
 12 11  1  0  0  0
 45 46  1  0  0  0
 45 42  2  0  0  0
 41 42  1  0  0  0
  6 10  1  0  0  0
 46 48  2  0  0  0
 46 47  1  0  0  0
 48 49  1  0  0  0
 47 51  2  0  0  0
 49 50  2  0  0  0
 11 13  2  0  0  0
 11 10  1  0  0  0
 51 50  1  0  0  0
 51 52  1  0  0  0
 10 16  1  0  0  0
 16 17  1  0  0  0
 17 19  1  0  0  0
 18 19  2  0  0  0
 19 20  1  0  0  0
 20 21  1  0  0  0
 12 14  1  0  0  0
 12 15  1  0  0  0
  6  9  1  0  0  0
 25 27  1  0  0  0
  1  4  1  0  0  0
 31 33  1  0  0  0
M  END
> <minimizedAffinity>
-10.34401

$$$$
5CXA_55L_A_306


 52 54  0  0  0  0  0  0  0  0999 V2000
    9.8965   26.3518    1.7563 N   0  0  0  0  0  0  0  0  0  0  0  0
    8.8760   25.7480    2.3414 C   0  0  0  0  0  0  0  0  0  0  0  0
    7.8710   25.4292    1.7239 O   0  0  0  0  0  0  0  0  0  0  0  0
   10.7427   26.4893    2.2402 H   0  0  0  0  0  0  0  0  0  0  0  0
    9.7447   26.8092    0.3833 C   0  0  0  0  0  0  0  0  0  0  0  0
   11.2848   26.6309   -1.4474 N   0  0  0  0  0  0  0  0  0  0  0  0
   10.5616   25.9647   -0.5550 C   0  0  0  0  0  0  0  0  0  0  0  0
   10.5301   24.7310   -0.4915 O   0  0  0  0  0  0  0  0  0  0  0  0
   11.1225   27.5956   -1.5578 H   0  0  0  0  0  0  0  0  0  0  0  0
   12.3052   26.0007   -2.2687 C   0  0  0  0  0  0  0  0  0  0  0  0
   13.4950   26.8763   -2.5482 C   0  0  0  0  0  0  0  0  0  0  0  0
   13.6823   27.8787   -1.7119 N   0  0  0  0  0  0  0  0  0  0  0  0
   14.2211   26.6764   -3.5222 O   0  0  0  0  0  0  0  0  0  0  0  0
   14.4436   28.4899   -1.8387 H   0  0  0  0  0  0  0  0  0  0  0  0
   13.0608   28.0157   -0.9607 H   0  0  0  0  0  0  0  0  0  0  0  0
   11.7168   25.6573   -3.6261 C   0  0  0  0  0  0  0  0  0  0  0  0
   11.7247   24.1956   -4.0327 C   0  0  0  0  0  0  0  0  0  0  0  0
    9.3990   23.9734   -3.7684 O   0  0  0  0  0  0  0  0  0  0  0  0
   10.5008   23.5200   -3.4815 C   0  0  0  0  0  0  0  0  0  0  0  0
   10.6585   22.4746   -2.7270 O   0  0  0  0  0  0  0  0  0  0  0  0
   11.5205   22.1623   -2.5335 H   0  0  0  0  0  0  0  0  0  0  0  0
   10.0116   28.3156    0.2180 C   0  0  0  0  0  0  0  0  0  0  0  0
    9.2789   29.1819    1.2398 C   0  0  0  0  0  0  0  0  0  0  0  0
    7.8053   29.3456    0.9014 C   0  0  0  0  0  0  0  0  0  0  0  0
    6.9697   29.7951    1.7932 O   0  0  0  0  0  0  0  0  0  0  0  0
    7.4307   29.0182   -0.2447 O   0  0  0  0  0  0  0  0  0  0  0  0
    7.2775   30.0335    2.6454 H   0  0  0  0  0  0  0  0  0  0  0  0
    8.9732   25.4815    3.8096 C   0  0  0  0  0  0  0  0  0  0  0  0
    7.9936   26.4126    4.5289 C   0  0  0  0  0  0  0  0  0  0  0  0
    8.4383   27.8574    4.5100 C   0  0  0  0  0  0  0  0  0  0  0  0
    7.5711   28.7568    4.4670 O   0  0  0  0  0  0  0  0  0  0  0  0
    9.6609   28.1208    4.5532 O   0  0  0  0  0  0  0  0  0  0  0  0
    6.6625   28.5303    4.4352 H   0  0  0  0  0  0  0  0  0  0  0  0
    8.5869   24.0215    4.0509 C   0  0  0  0  0  0  0  0  0  0  0  0
    7.3542   23.6953    4.8332 C   0  0  0  0  0  0  0  0  0  0  0  0
    6.0236   23.7293    4.6538 C   0  0  0  0  0  0  0  0  0  0  0  0
    7.6141   23.1644    6.0669 O   0  0  0  0  0  0  0  0  0  0  0  0
    6.3759   22.8745    6.6888 N   0  0  0  0  0  0  0  0  0  0  0  0
    5.4503   23.2261    5.8273 C   0  0  0  0  0  0  0  0  0  0  0  0
    4.0143   23.0201    6.1705 C   0  0  0  0  0  0  0  0  0  0  0  0
    3.0268   23.6948    5.4557 C   0  0  0  0  0  0  0  0  0  0  0  0
    1.6861   23.5298    5.7830 C   0  0  0  0  0  0  0  0  0  0  0  0
    3.6440   22.2115    7.2368 C   0  0  0  0  0  0  0  0  0  0  0  0
    2.3049   22.0473    7.5550 C   0  0  0  0  0  0  0  0  0  0  0  0
    1.3144   22.7032    6.8384 C   0  0  0  0  0  0  0  0  0  0  0  0
   -0.1064   22.5100    7.2057 C   0  0  0  0  0  0  0  0  0  0  0  0
   -0.8882   23.5961    7.5697 C   0  0  0  0  0  0  0  0  0  0  0  0
   -0.6548   21.2366    7.2107 C   0  0  0  0  0  0  0  0  0  0  0  0
   -1.9851   21.0425    7.5594 C   0  0  0  0  0  0  0  0  0  0  0  0
   -2.7644   22.1207    7.9156 C   0  0  0  0  0  0  0  0  0  0  0  0
   -2.2151   23.3838    7.9175 C   0  0  0  0  0  0  0  0  0  0  0  0
   -3.1997   24.7339    8.3661 Cl  0  0  0  0  0  0  0  0  0  0  0  0
 32 30  2  0  0  0
 31 30  1  0  0  0
 30 29  1  0  0  0
 26 24  2  0  0  0
 29 28  1  0  0  0
 24 25  1  0  0  0
 24 23  1  0  0  0
 28 34  1  0  0  0
 28  2  1  0  0  0
 23 22  1  0  0  0
 34 35  1  0  0  0
  2  1  1  0  0  0
  2  3  2  0  0  0
 22  5  1  0  0  0
  1  5  1  0  0  0
 36 35  2  0  0  0
 36 39  1  0  0  0
 35 37  1  0  0  0
  5  7  1  0  0  0
 43 44  2  0  0  0
 43 40  1  0  0  0
 39 40  1  0  0  0
 39 38  2  0  0  0
 37 38  1  0  0  0
 44 45  1  0  0  0
 40 41  2  0  0  0
  7  8  2  0  0  0
  7  6  1  0  0  0
 12 11  1  0  0  0
 45 46  1  0  0  0
 45 42  2  0  0  0
 41 42  1  0  0  0
  6 10  1  0  0  0
 46 48  2  0  0  0
 46 47  1  0  0  0
 48 49  1  0  0  0
 47 51  2  0  0  0
 49 50  2  0  0  0
 11 13  2  0  0  0
 11 10  1  0  0  0
 51 50  1  0  0  0
 51 52  1  0  0  0
 10 16  1  0  0  0
 16 17  1  0  0  0
 17 19  1  0  0  0
 18 19  2  0  0  0
 19 20  1  0  0  0
 20 21  1  0  0  0
 12 14  1  0  0  0
 12 15  1  0  0  0
  6  9  1  0  0  0
 25 27  1  0  0  0
  1  4  1  0  0  0
 31 33  1  0  0  0
M  END
> <minimizedAffinity>
-10.17550

$$$$
5CXA_55L_A_306


 52 54  0  0  0  0  0  0  0  0999 V2000
    8.3149   27.0902    2.0503 N   0  0  0  0  0  0  0  0  0  0  0  0
    9.2218   26.8188    2.9735 C   0  0  0  0  0  0  0  0  0  0  0  0
   10.4043   27.0846    2.8181 O   0  0  0  0  0  0  0  0  0  0  0  0
    7.3554   26.9820    2.2425 H   0  0  0  0  0  0  0  0  0  0  0  0
    8.7623   27.5518    0.7450 C   0  0  0  0  0  0  0  0  0  0  0  0
    9.1238   29.9227    0.6873 N   0  0  0  0  0  0  0  0  0  0  0  0
    8.2576   28.9407    0.4671 C   0  0  0  0  0  0  0  0  0  0  0  0
    7.1004   29.1310    0.0774 O   0  0  0  0  0  0  0  0  0  0  0  0
    9.9586   29.7144    1.1657 H   0  0  0  0  0  0  0  0  0  0  0  0
    8.8957   31.2914    0.2542 C   0  0  0  0  0  0  0  0  0  0  0  0
    9.2675   31.5514   -1.1792 C   0  0  0  0  0  0  0  0  0  0  0  0
    8.8970   32.7189   -1.6681 N   0  0  0  0  0  0  0  0  0  0  0  0
    9.8526   30.7025   -1.8520 O   0  0  0  0  0  0  0  0  0  0  0  0
    9.1095   32.9518   -2.6008 H   0  0  0  0  0  0  0  0  0  0  0  0
    8.4078   33.3575   -1.1005 H   0  0  0  0  0  0  0  0  0  0  0  0
    9.7563   32.2305    1.0813 C   0  0  0  0  0  0  0  0  0  0  0  0
    9.5480   32.2151    2.5842 C   0  0  0  0  0  0  0  0  0  0  0  0
   11.6832   31.9872    3.5419 O   0  0  0  0  0  0  0  0  0  0  0  0
   10.6450   31.4160    3.2295 C   0  0  0  0  0  0  0  0  0  0  0  0
   10.4464   30.1496    3.4386 O   0  0  0  0  0  0  0  0  0  0  0  0
    9.6363   29.7540    3.1832 H   0  0  0  0  0  0  0  0  0  0  0  0
    8.4392   26.5607   -0.3869 C   0  0  0  0  0  0  0  0  0  0  0  0
    9.6325   25.7085   -0.8123 C   0  0  0  0  0  0  0  0  0  0  0  0
    9.5234   24.2772   -0.3098 C   0  0  0  0  0  0  0  0  0  0  0  0
   10.2155   23.3270   -0.8697 O   0  0  0  0  0  0  0  0  0  0  0  0
    8.7395   24.0499    0.6362 O   0  0  0  0  0  0  0  0  0  0  0  0
   10.7963   23.5253   -1.5778 H   0  0  0  0  0  0  0  0  0  0  0  0
    8.7605   26.1440    4.2257 C   0  0  0  0  0  0  0  0  0  0  0  0
    7.6839   27.0208    4.8707 C   0  0  0  0  0  0  0  0  0  0  0  0
    8.1128   28.4634    5.0149 C   0  0  0  0  0  0  0  0  0  0  0  0
    9.0102   28.7483    5.8371 O   0  0  0  0  0  0  0  0  0  0  0  0
    7.5722   29.3358    4.2989 O   0  0  0  0  0  0  0  0  0  0  0  0
    9.3975   28.0743    6.3603 H   0  0  0  0  0  0  0  0  0  0  0  0
    8.1734   24.7853    3.8409 C   0  0  0  0  0  0  0  0  0  0  0  0
    7.0045   24.2366    4.5963 C   0  0  0  0  0  0  0  0  0  0  0  0
    5.6658   24.3406    4.5713 C   0  0  0  0  0  0  0  0  0  0  0  0
    7.3533   23.3325    5.5619 O   0  0  0  0  0  0  0  0  0  0  0  0
    6.1658   22.8700    6.1785 N   0  0  0  0  0  0  0  0  0  0  0  0
    5.1811   23.4909    5.5724 C   0  0  0  0  0  0  0  0  0  0  0  0
    3.7751   23.2001    5.9730 C   0  0  0  0  0  0  0  0  0  0  0  0
    2.7217   23.8305    5.3141 C   0  0  0  0  0  0  0  0  0  0  0  0
    1.4077   23.5860    5.6955 C   0  0  0  0  0  0  0  0  0  0  0  0
    3.4968   22.3551    7.0391 C   0  0  0  0  0  0  0  0  0  0  0  0
    2.1840   22.1116    7.4115 C   0  0  0  0  0  0  0  0  0  0  0  0
    1.1285   22.7231    6.7504 C   0  0  0  0  0  0  0  0  0  0  0  0
   -0.2621   22.4454    7.1748 C   0  0  0  0  0  0  0  0  0  0  0  0
   -1.1438   23.4904    7.4073 C   0  0  0  0  0  0  0  0  0  0  0  0
   -0.6814   21.1378    7.3653 C   0  0  0  0  0  0  0  0  0  0  0  0
   -1.9821   20.8654    7.7692 C   0  0  0  0  0  0  0  0  0  0  0  0
   -2.8606   21.9017    7.9950 C   0  0  0  0  0  0  0  0  0  0  0  0
   -2.4392   23.2004    7.8127 C   0  0  0  0  0  0  0  0  0  0  0  0
   -3.5480   24.4975    8.0982 Cl  0  0  0  0  0  0  0  0  0  0  0  0
 32 30  2  0  0  0
 31 30  1  0  0  0
 30 29  1  0  0  0
 26 24  2  0  0  0
 29 28  1  0  0  0
 24 25  1  0  0  0
 24 23  1  0  0  0
 28 34  1  0  0  0
 28  2  1  0  0  0
 23 22  1  0  0  0
 34 35  1  0  0  0
  2  1  1  0  0  0
  2  3  2  0  0  0
 22  5  1  0  0  0
  1  5  1  0  0  0
 36 35  2  0  0  0
 36 39  1  0  0  0
 35 37  1  0  0  0
  5  7  1  0  0  0
 43 44  2  0  0  0
 43 40  1  0  0  0
 39 40  1  0  0  0
 39 38  2  0  0  0
 37 38  1  0  0  0
 44 45  1  0  0  0
 40 41  2  0  0  0
  7  8  2  0  0  0
  7  6  1  0  0  0
 12 11  1  0  0  0
 45 46  1  0  0  0
 45 42  2  0  0  0
 41 42  1  0  0  0
  6 10  1  0  0  0
 46 48  2  0  0  0
 46 47  1  0  0  0
 48 49  1  0  0  0
 47 51  2  0  0  0
 49 50  2  0  0  0
 11 13  2  0  0  0
 11 10  1  0  0  0
 51 50  1  0  0  0
 51 52  1  0  0  0
 10 16  1  0  0  0
 16 17  1  0  0  0
 17 19  1  0  0  0
 18 19  2  0  0  0
 19 20  1  0  0  0
 20 21  1  0  0  0
 12 14  1  0  0  0
 12 15  1  0  0  0
  6  9  1  0  0  0
 25 27  1  0  0  0
  1  4  1  0  0  0
 31 33  1  0  0  0
M  END
> <minimizedAffinity>
-9.95639

$$$$
5CXA_55L_A_306


 52 54  0  0  0  0  0  0  0  0999 V2000
    8.7759   26.8128    2.3959 N   0  0  0  0  0  0  0  0  0  0  0  0
    9.3231   26.2445    3.4570 C   0  0  0  0  0  0  0  0  0  0  0  0
   10.5245   26.0347    3.5325 O   0  0  0  0  0  0  0  0  0  0  0  0
    7.8296   27.0844    2.4042 H   0  0  0  0  0  0  0  0  0  0  0  0
    9.5992   27.0292    1.2158 C   0  0  0  0  0  0  0  0  0  0  0  0
    9.4137   29.3088    1.9400 N   0  0  0  0  0  0  0  0  0  0  0  0
    9.7856   28.4984    0.9560 C   0  0  0  0  0  0  0  0  0  0  0  0
   10.2404   28.9015   -0.1201 O   0  0  0  0  0  0  0  0  0  0  0  0
    8.8962   28.9326    2.6882 H   0  0  0  0  0  0  0  0  0  0  0  0
    9.7359   30.7260    1.9628 C   0  0  0  0  0  0  0  0  0  0  0  0
   10.4715   31.1683    3.1971 C   0  0  0  0  0  0  0  0  0  0  0  0
    9.7883   31.1189    4.3241 N   0  0  0  0  0  0  0  0  0  0  0  0
   11.6300   31.5808    3.1376 O   0  0  0  0  0  0  0  0  0  0  0  0
   10.2117   31.3949    5.1690 H   0  0  0  0  0  0  0  0  0  0  0  0
    8.8548   30.8061    4.3205 H   0  0  0  0  0  0  0  0  0  0  0  0
    8.4504   31.5343    1.9358 C   0  0  0  0  0  0  0  0  0  0  0  0
    7.1717   30.7879    1.6039 C   0  0  0  0  0  0  0  0  0  0  0  0
    6.1232   31.8189   -0.2307 O   0  0  0  0  0  0  0  0  0  0  0  0
    6.8811   30.9286    0.1362 C   0  0  0  0  0  0  0  0  0  0  0  0
    7.4520   30.1038   -0.6889 O   0  0  0  0  0  0  0  0  0  0  0  0
    8.0250   29.4375   -0.3638 H   0  0  0  0  0  0  0  0  0  0  0  0
    9.0936   26.2630   -0.0191 C   0  0  0  0  0  0  0  0  0  0  0  0
   10.1919   25.5027   -0.7587 C   0  0  0  0  0  0  0  0  0  0  0  0
    9.8841   24.0178   -0.8735 C   0  0  0  0  0  0  0  0  0  0  0  0
    9.0279   23.4575   -0.0682 O   0  0  0  0  0  0  0  0  0  0  0  0
   10.4916   23.3627   -1.7468 O   0  0  0  0  0  0  0  0  0  0  0  0
    8.5861   23.9725    0.5780 H   0  0  0  0  0  0  0  0  0  0  0  0
    8.4162   25.8349    4.5731 C   0  0  0  0  0  0  0  0  0  0  0  0
    7.2232   26.7943    4.5944 C   0  0  0  0  0  0  0  0  0  0  0  0
    7.5600   28.1333    5.2103 C   0  0  0  0  0  0  0  0  0  0  0  0
    7.5411   28.2486    6.4549 O   0  0  0  0  0  0  0  0  0  0  0  0
    7.8644   29.0899    4.4633 O   0  0  0  0  0  0  0  0  0  0  0  0
    7.3092   27.5151    6.9898 H   0  0  0  0  0  0  0  0  0  0  0  0
    7.9406   24.4082    4.2954 C   0  0  0  0  0  0  0  0  0  0  0  0
    6.7154   23.8842    4.9756 C   0  0  0  0  0  0  0  0  0  0  0  0
    5.3879   24.0815    4.9254 C   0  0  0  0  0  0  0  0  0  0  0  0
    6.9739   22.8866    5.8752 O   0  0  0  0  0  0  0  0  0  0  0  0
    5.7402   22.4605    6.4234 N   0  0  0  0  0  0  0  0  0  0  0  0
    4.8178   23.1924    5.8438 C   0  0  0  0  0  0  0  0  0  0  0  0
    3.3840   22.9687    6.1849 C   0  0  0  0  0  0  0  0  0  0  0  0
    2.3987   23.7524    5.5881 C   0  0  0  0  0  0  0  0  0  0  0  0
    1.0608   23.5696    5.9171 C   0  0  0  0  0  0  0  0  0  0  0  0
    3.0154   22.0300    7.1394 C   0  0  0  0  0  0  0  0  0  0  0  0
    1.6788   21.8492    7.4594 C   0  0  0  0  0  0  0  0  0  0  0  0
    0.6901   22.6146    6.8583 C   0  0  0  0  0  0  0  0  0  0  0  0
   -0.7279   22.4000    7.2247 C   0  0  0  0  0  0  0  0  0  0  0  0
   -1.5144   23.4679    7.6303 C   0  0  0  0  0  0  0  0  0  0  0  0
   -1.2687   21.1240    7.1872 C   0  0  0  0  0  0  0  0  0  0  0  0
   -2.5963   20.9096    7.5346 C   0  0  0  0  0  0  0  0  0  0  0  0
   -3.3803   21.9698    7.9321 C   0  0  0  0  0  0  0  0  0  0  0  0
   -2.8383   23.2354    7.9762 C   0  0  0  0  0  0  0  0  0  0  0  0
   -3.8288   24.5629    8.4766 Cl  0  0  0  0  0  0  0  0  0  0  0  0
 32 30  2  0  0  0
 31 30  1  0  0  0
 30 29  1  0  0  0
 26 24  2  0  0  0
 29 28  1  0  0  0
 24 25  1  0  0  0
 24 23  1  0  0  0
 28 34  1  0  0  0
 28  2  1  0  0  0
 23 22  1  0  0  0
 34 35  1  0  0  0
  2  1  1  0  0  0
  2  3  2  0  0  0
 22  5  1  0  0  0
  1  5  1  0  0  0
 36 35  2  0  0  0
 36 39  1  0  0  0
 35 37  1  0  0  0
  5  7  1  0  0  0
 43 44  2  0  0  0
 43 40  1  0  0  0
 39 40  1  0  0  0
 39 38  2  0  0  0
 37 38  1  0  0  0
 44 45  1  0  0  0
 40 41  2  0  0  0
  7  8  2  0  0  0
  7  6  1  0  0  0
 12 11  1  0  0  0
 45 46  1  0  0  0
 45 42  2  0  0  0
 41 42  1  0  0  0
  6 10  1  0  0  0
 46 48  2  0  0  0
 46 47  1  0  0  0
 48 49  1  0  0  0
 47 51  2  0  0  0
 49 50  2  0  0  0
 11 13  2  0  0  0
 11 10  1  0  0  0
 51 50  1  0  0  0
 51 52  1  0  0  0
 10 16  1  0  0  0
 16 17  1  0  0  0
 17 19  1  0  0  0
 18 19  2  0  0  0
 19 20  1  0  0  0
 20 21  1  0  0  0
 12 14  1  0  0  0
 12 15  1  0  0  0
  6  9  1  0  0  0
 25 27  1  0  0  0
  1  4  1  0  0  0
 31 33  1  0  0  0
M  END
> <minimizedAffinity>
-9.91293

$$$$
5CXA_55L_A_306


 52 54  0  0  0  0  0  0  0  0999 V2000
    8.7613   27.4802    1.5534 N   0  0  0  0  0  0  0  0  0  0  0  0
    8.3853   26.3223    2.0692 C   0  0  0  0  0  0  0  0  0  0  0  0
    7.6382   25.5600    1.4745 O   0  0  0  0  0  0  0  0  0  0  0  0
    9.4571   28.0221    1.9909 H   0  0  0  0  0  0  0  0  0  0  0  0
    8.1270   27.9382    0.3266 C   0  0  0  0  0  0  0  0  0  0  0  0
    9.5272   26.2734   -0.6851 N   0  0  0  0  0  0  0  0  0  0  0  0
    8.8397   27.3927   -0.8798 C   0  0  0  0  0  0  0  0  0  0  0  0
    8.7888   27.9775   -1.9673 O   0  0  0  0  0  0  0  0  0  0  0  0
    9.6715   25.9654    0.2388 H   0  0  0  0  0  0  0  0  0  0  0  0
   10.0763   25.4821   -1.7737 C   0  0  0  0  0  0  0  0  0  0  0  0
   10.1780   24.0125   -1.4735 C   0  0  0  0  0  0  0  0  0  0  0  0
    9.8047   23.6441   -0.2634 N   0  0  0  0  0  0  0  0  0  0  0  0
   10.6169   23.2188   -2.3061 O   0  0  0  0  0  0  0  0  0  0  0  0
    9.8468   22.6957   -0.0026 H   0  0  0  0  0  0  0  0  0  0  0  0
    9.4840   24.3175    0.3792 H   0  0  0  0  0  0  0  0  0  0  0  0
   11.4936   25.9434   -2.0654 C   0  0  0  0  0  0  0  0  0  0  0  0
   12.2765   26.5420   -0.9117 C   0  0  0  0  0  0  0  0  0  0  0  0
   14.3228   27.6822   -0.7095 O   0  0  0  0  0  0  0  0  0  0  0  0
   13.6563   26.9054   -1.3834 C   0  0  0  0  0  0  0  0  0  0  0  0
   14.0927   26.3745   -2.4856 O   0  0  0  0  0  0  0  0  0  0  0  0
   13.5483   25.7849   -2.9692 H   0  0  0  0  0  0  0  0  0  0  0  0
    7.9484   29.4657    0.2756 C   0  0  0  0  0  0  0  0  0  0  0  0
    7.5972   30.0855    1.6260 C   0  0  0  0  0  0  0  0  0  0  0  0
    8.6478   31.0823    2.0902 C   0  0  0  0  0  0  0  0  0  0  0  0
    8.4758   32.3588    1.8994 O   0  0  0  0  0  0  0  0  0  0  0  0
    9.6768   30.6320    2.6373 O   0  0  0  0  0  0  0  0  0  0  0  0
    7.6943   32.6697    1.4864 H   0  0  0  0  0  0  0  0  0  0  0  0
    8.8864   25.9723    3.4340 C   0  0  0  0  0  0  0  0  0  0  0  0
    8.1143   26.8123    4.4550 C   0  0  0  0  0  0  0  0  0  0  0  0
    8.9257   27.9677    4.9957 C   0  0  0  0  0  0  0  0  0  0  0  0
    9.9852   28.2873    4.4143 O   0  0  0  0  0  0  0  0  0  0  0  0
    8.5121   28.5867    6.0015 O   0  0  0  0  0  0  0  0  0  0  0  0
   10.2709   27.8057    3.6630 H   0  0  0  0  0  0  0  0  0  0  0  0
    8.6213   24.4843    3.6669 C   0  0  0  0  0  0  0  0  0  0  0  0
    7.4579   24.0557    4.5040 C   0  0  0  0  0  0  0  0  0  0  0  0
    6.1179   24.1348    4.4608 C   0  0  0  0  0  0  0  0  0  0  0  0
    7.8162   23.3344    5.6098 O   0  0  0  0  0  0  0  0  0  0  0  0
    6.6334   22.9669    6.2954 N   0  0  0  0  0  0  0  0  0  0  0  0
    5.6421   23.4613    5.5917 C   0  0  0  0  0  0  0  0  0  0  0  0
    4.2390   23.2231    6.0351 C   0  0  0  0  0  0  0  0  0  0  0  0
    3.9873   22.3868    7.1208 C   0  0  0  0  0  0  0  0  0  0  0  0
    2.6818   22.1376    7.5276 C   0  0  0  0  0  0  0  0  0  0  0  0
    3.1683   23.7728    5.3426 C   0  0  0  0  0  0  0  0  0  0  0  0
    1.8689   23.5242    5.7564 C   0  0  0  0  0  0  0  0  0  0  0  0
    1.6102   22.7053    6.8460 C   0  0  0  0  0  0  0  0  0  0  0  0
    0.2112   22.4564    7.2605 C   0  0  0  0  0  0  0  0  0  0  0  0
   -0.6484   23.5194    7.4938 C   0  0  0  0  0  0  0  0  0  0  0  0
   -0.2383   21.1573    7.4409 C   0  0  0  0  0  0  0  0  0  0  0  0
   -1.5472   20.9117    7.8355 C   0  0  0  0  0  0  0  0  0  0  0  0
   -2.4037   21.9661    8.0620 C   0  0  0  0  0  0  0  0  0  0  0  0
   -1.9524   23.2561    7.8898 C   0  0  0  0  0  0  0  0  0  0  0  0
   -3.0338   24.5760    8.1763 Cl  0  0  0  0  0  0  0  0  0  0  0  0
 32 30  2  0  0  0
 31 30  1  0  0  0
 30 29  1  0  0  0
 26 24  2  0  0  0
 29 28  1  0  0  0
 24 25  1  0  0  0
 24 23  1  0  0  0
 28 34  1  0  0  0
 28  2  1  0  0  0
 23 22  1  0  0  0
 34 35  1  0  0  0
  2  1  1  0  0  0
  2  3  2  0  0  0
 22  5  1  0  0  0
  1  5  1  0  0  0
 36 35  2  0  0  0
 36 39  1  0  0  0
 35 37  1  0  0  0
  5  7  1  0  0  0
 43 44  2  0  0  0
 43 40  1  0  0  0
 39 40  1  0  0  0
 39 38  2  0  0  0
 37 38  1  0  0  0
 44 45  1  0  0  0
 40 41  2  0  0  0
  7  8  2  0  0  0
  7  6  1  0  0  0
 12 11  1  0  0  0
 45 46  1  0  0  0
 45 42  2  0  0  0
 41 42  1  0  0  0
  6 10  1  0  0  0
 46 48  2  0  0  0
 46 47  1  0  0  0
 48 49  1  0  0  0
 47 51  2  0  0  0
 49 50  2  0  0  0
 11 13  2  0  0  0
 11 10  1  0  0  0
 51 50  1  0  0  0
 51 52  1  0  0  0
 10 16  1  0  0  0
 16 17  1  0  0  0
 17 19  1  0  0  0
 18 19  2  0  0  0
 19 20  1  0  0  0
 20 21  1  0  0  0
 12 14  1  0  0  0
 12 15  1  0  0  0
  6  9  1  0  0  0
 25 27  1  0  0  0
  1  4  1  0  0  0
 31 33  1  0  0  0
M  END
> <minimizedAffinity>
-9.79801

$$$$
5CXA_55L_A_306


 52 54  0  0  0  0  0  0  0  0999 V2000
    9.8039   27.8018    2.5245 N   0  0  0  0  0  0  0  0  0  0  0  0
    8.9336   26.8123    2.6341 C   0  0  0  0  0  0  0  0  0  0  0  0
    8.3211   26.3785    1.6700 O   0  0  0  0  0  0  0  0  0  0  0  0
   10.3752   28.0541    3.2856 H   0  0  0  0  0  0  0  0  0  0  0  0
    9.9010   28.5106    1.2575 C   0  0  0  0  0  0  0  0  0  0  0  0
   10.1905   27.4475   -0.8736 N   0  0  0  0  0  0  0  0  0  0  0  0
   10.7622   27.7526    0.2854 C   0  0  0  0  0  0  0  0  0  0  0  0
   11.9187   27.4297    0.5777 O   0  0  0  0  0  0  0  0  0  0  0  0
    9.2188   27.5752   -0.9662 H   0  0  0  0  0  0  0  0  0  0  0  0
   10.9341   26.9336   -2.0119 C   0  0  0  0  0  0  0  0  0  0  0  0
   11.2996   27.9790   -3.0287 C   0  0  0  0  0  0  0  0  0  0  0  0
   11.1689   27.6246   -4.2924 N   0  0  0  0  0  0  0  0  0  0  0  0
   11.7255   29.0823   -2.6866 O   0  0  0  0  0  0  0  0  0  0  0  0
   11.3917   28.2628   -5.0081 H   0  0  0  0  0  0  0  0  0  0  0  0
   10.8487   26.7219   -4.5199 H   0  0  0  0  0  0  0  0  0  0  0  0
   10.0818   25.9174   -2.7519 C   0  0  0  0  0  0  0  0  0  0  0  0
    9.1277   25.0799   -1.9209 C   0  0  0  0  0  0  0  0  0  0  0  0
   10.4600   23.1548   -1.7027 O   0  0  0  0  0  0  0  0  0  0  0  0
    9.9135   24.0823   -1.1172 C   0  0  0  0  0  0  0  0  0  0  0  0
    9.9893   24.2469    0.1689 O   0  0  0  0  0  0  0  0  0  0  0  0
    9.5550   24.9711    0.5749 H   0  0  0  0  0  0  0  0  0  0  0  0
   10.3332   29.9784    1.4207 C   0  0  0  0  0  0  0  0  0  0  0  0
   10.5424   30.3958    2.8744 C   0  0  0  0  0  0  0  0  0  0  0  0
    9.4747   31.3681    3.3513 C   0  0  0  0  0  0  0  0  0  0  0  0
    9.7300   32.6426    3.4281 O   0  0  0  0  0  0  0  0  0  0  0  0
    8.3644   30.8989    3.6800 O   0  0  0  0  0  0  0  0  0  0  0  0
   10.5715   32.9679    3.1750 H   0  0  0  0  0  0  0  0  0  0  0  0
    8.6947   26.2427    3.9959 C   0  0  0  0  0  0  0  0  0  0  0  0
    7.5412   27.0162    4.6403 C   0  0  0  0  0  0  0  0  0  0  0  0
    8.0170   28.1143    5.5643 C   0  0  0  0  0  0  0  0  0  0  0  0
    9.1989   28.5113    5.4736 O   0  0  0  0  0  0  0  0  0  0  0  0
    7.2151   28.6108    6.3866 O   0  0  0  0  0  0  0  0  0  0  0  0
    9.7775   28.1211    4.8485 H   0  0  0  0  0  0  0  0  0  0  0  0
    8.3155   24.7703    3.8317 C   0  0  0  0  0  0  0  0  0  0  0  0
    7.1475   24.2124    4.5819 C   0  0  0  0  0  0  0  0  0  0  0  0
    5.8095   24.3273    4.5690 C   0  0  0  0  0  0  0  0  0  0  0  0
    7.4959   23.2825    5.5229 O   0  0  0  0  0  0  0  0  0  0  0  0
    6.3092   22.8143    6.1366 N   0  0  0  0  0  0  0  0  0  0  0  0
    5.3252   23.4573    5.5527 C   0  0  0  0  0  0  0  0  0  0  0  0
    3.9197   23.1677    5.9562 C   0  0  0  0  0  0  0  0  0  0  0  0
    2.8690   23.8539    5.3509 C   0  0  0  0  0  0  0  0  0  0  0  0
    1.5561   23.6101    5.7366 C   0  0  0  0  0  0  0  0  0  0  0  0
    3.6408   22.2662    6.9748 C   0  0  0  0  0  0  0  0  0  0  0  0
    2.3289   22.0240    7.3515 C   0  0  0  0  0  0  0  0  0  0  0  0
    1.2758   22.6915    6.7430 C   0  0  0  0  0  0  0  0  0  0  0  0
   -0.1137   22.4133    7.1707 C   0  0  0  0  0  0  0  0  0  0  0  0
   -1.0087   23.4557    7.3600 C   0  0  0  0  0  0  0  0  0  0  0  0
   -0.5187   21.1088    7.4078 C   0  0  0  0  0  0  0  0  0  0  0  0
   -1.8183   20.8362    7.8153 C   0  0  0  0  0  0  0  0  0  0  0  0
   -2.7099   21.8697    7.9981 C   0  0  0  0  0  0  0  0  0  0  0  0
   -2.3027   23.1656    7.7697 C   0  0  0  0  0  0  0  0  0  0  0  0
   -3.4280   24.4593    8.0015 Cl  0  0  0  0  0  0  0  0  0  0  0  0
 32 30  2  0  0  0
 31 30  1  0  0  0
 30 29  1  0  0  0
 26 24  2  0  0  0
 29 28  1  0  0  0
 24 25  1  0  0  0
 24 23  1  0  0  0
 28 34  1  0  0  0
 28  2  1  0  0  0
 23 22  1  0  0  0
 34 35  1  0  0  0
  2  1  1  0  0  0
  2  3  2  0  0  0
 22  5  1  0  0  0
  1  5  1  0  0  0
 36 35  2  0  0  0
 36 39  1  0  0  0
 35 37  1  0  0  0
  5  7  1  0  0  0
 43 44  2  0  0  0
 43 40  1  0  0  0
 39 40  1  0  0  0
 39 38  2  0  0  0
 37 38  1  0  0  0
 44 45  1  0  0  0
 40 41  2  0  0  0
  7  8  2  0  0  0
  7  6  1  0  0  0
 12 11  1  0  0  0
 45 46  1  0  0  0
 45 42  2  0  0  0
 41 42  1  0  0  0
  6 10  1  0  0  0
 46 48  2  0  0  0
 46 47  1  0  0  0
 48 49  1  0  0  0
 47 51  2  0  0  0
 49 50  2  0  0  0
 11 13  2  0  0  0
 11 10  1  0  0  0
 51 50  1  0  0  0
 51 52  1  0  0  0
 10 16  1  0  0  0
 16 17  1  0  0  0
 17 19  1  0  0  0
 18 19  2  0  0  0
 19 20  1  0  0  0
 20 21  1  0  0  0
 12 14  1  0  0  0
 12 15  1  0  0  0
  6  9  1  0  0  0
 25 27  1  0  0  0
  1  4  1  0  0  0
 31 33  1  0  0  0
M  END
> <minimizedAffinity>
-9.76675

$$$$
5CXA_55L_A_306


 52 54  0  0  0  0  0  0  0  0999 V2000
    9.6138   27.6784    0.4318 N   0  0  0  0  0  0  0  0  0  0  0  0
   10.4264   27.2466    1.3813 C   0  0  0  0  0  0  0  0  0  0  0  0
   11.6384   27.2114    1.2303 O   0  0  0  0  0  0  0  0  0  0  0  0
    8.6561   27.8148    0.6147 H   0  0  0  0  0  0  0  0  0  0  0  0
   10.1623   27.9483   -0.8887 C   0  0  0  0  0  0  0  0  0  0  0  0
    9.6615   30.2218   -0.3092 N   0  0  0  0  0  0  0  0  0  0  0  0
    9.8902   29.3686   -1.3006 C   0  0  0  0  0  0  0  0  0  0  0  0
    9.8678   29.6919   -2.4932 O   0  0  0  0  0  0  0  0  0  0  0  0
    9.5161   29.8624    0.5958 H   0  0  0  0  0  0  0  0  0  0  0  0
    9.6159   31.6622   -0.4991 C   0  0  0  0  0  0  0  0  0  0  0  0
   10.9654   32.3008   -0.6760 C   0  0  0  0  0  0  0  0  0  0  0  0
   11.3756   32.4462   -1.9210 N   0  0  0  0  0  0  0  0  0  0  0  0
   11.6483   32.6314    0.2936 O   0  0  0  0  0  0  0  0  0  0  0  0
   12.2507   32.8575   -2.1061 H   0  0  0  0  0  0  0  0  0  0  0  0
   10.8066   32.1435   -2.6652 H   0  0  0  0  0  0  0  0  0  0  0  0
    9.0090   32.3126    0.7319 C   0  0  0  0  0  0  0  0  0  0  0  0
    8.6257   31.3967    1.8793 C   0  0  0  0  0  0  0  0  0  0  0  0
    9.6254   31.8910    3.9493 O   0  0  0  0  0  0  0  0  0  0  0  0
    9.7582   31.3350    2.8652 C   0  0  0  0  0  0  0  0  0  0  0  0
   10.8332   30.6867    2.5322 O   0  0  0  0  0  0  0  0  0  0  0  0
   10.8914   30.2764    1.6918 H   0  0  0  0  0  0  0  0  0  0  0  0
    9.7166   26.9232   -1.9462 C   0  0  0  0  0  0  0  0  0  0  0  0
    9.0279   25.6954   -1.3552 C   0  0  0  0  0  0  0  0  0  0  0  0
    9.9226   24.4660   -1.3848 C   0  0  0  0  0  0  0  0  0  0  0  0
   10.7384   24.2676   -2.3801 O   0  0  0  0  0  0  0  0  0  0  0  0
    9.8309   23.6557   -0.4383 O   0  0  0  0  0  0  0  0  0  0  0  0
   10.7873   24.8917   -3.0773 H   0  0  0  0  0  0  0  0  0  0  0  0
    9.8132   26.7706    2.6594 C   0  0  0  0  0  0  0  0  0  0  0  0
    8.6365   27.6908    2.9950 C   0  0  0  0  0  0  0  0  0  0  0  0
    8.7060   28.2402    4.4019 C   0  0  0  0  0  0  0  0  0  0  0  0
    9.7316   28.0278    5.0842 O   0  0  0  0  0  0  0  0  0  0  0  0
    7.7443   28.9067    4.8455 O   0  0  0  0  0  0  0  0  0  0  0  0
   10.4366   27.5251    4.7263 H   0  0  0  0  0  0  0  0  0  0  0  0
    9.3185   25.3401    2.4415 C   0  0  0  0  0  0  0  0  0  0  0  0
    8.3020   24.7526    3.3688 C   0  0  0  0  0  0  0  0  0  0  0  0
    6.9669   24.7577    3.5142 C   0  0  0  0  0  0  0  0  0  0  0  0
    8.8411   23.9335    4.3227 O   0  0  0  0  0  0  0  0  0  0  0  0
    7.7819   23.4226    5.1108 N   0  0  0  0  0  0  0  0  0  0  0  0
    6.6821   23.9345    4.6097 C   0  0  0  0  0  0  0  0  0  0  0  0
    5.3658   23.5662    5.2044 C   0  0  0  0  0  0  0  0  0  0  0  0
    5.2955   22.5569    6.1623 C   0  0  0  0  0  0  0  0  0  0  0  0
    4.0705   22.1879    6.7055 C   0  0  0  0  0  0  0  0  0  0  0  0
    4.1930   24.1713    4.7726 C   0  0  0  0  0  0  0  0  0  0  0  0
    2.9749   23.8022    5.3218 C   0  0  0  0  0  0  0  0  0  0  0  0
    2.8980   22.8090    6.2874 C   0  0  0  0  0  0  0  0  0  0  0  0
    1.5816   22.4350    6.8515 C   0  0  0  0  0  0  0  0  0  0  0  0
    0.4433   23.1451    6.5000 C   0  0  0  0  0  0  0  0  0  0  0  0
    1.4859   21.3870    7.7540 C   0  0  0  0  0  0  0  0  0  0  0  0
    0.2569   21.0309    8.2944 C   0  0  0  0  0  0  0  0  0  0  0  0
   -0.8753   21.7313    7.9420 C   0  0  0  0  0  0  0  0  0  0  0  0
   -0.7763   22.7773    7.0512 C   0  0  0  0  0  0  0  0  0  0  0  0
   -2.2027   23.6531    6.6129 Cl  0  0  0  0  0  0  0  0  0  0  0  0
 32 30  2  0  0  0
 31 30  1  0  0  0
 30 29  1  0  0  0
 26 24  2  0  0  0
 29 28  1  0  0  0
 24 25  1  0  0  0
 24 23  1  0  0  0
 28 34  1  0  0  0
 28  2  1  0  0  0
 23 22  1  0  0  0
 34 35  1  0  0  0
  2  1  1  0  0  0
  2  3  2  0  0  0
 22  5  1  0  0  0
  1  5  1  0  0  0
 36 35  2  0  0  0
 36 39  1  0  0  0
 35 37  1  0  0  0
  5  7  1  0  0  0
 43 44  2  0  0  0
 43 40  1  0  0  0
 39 40  1  0  0  0
 39 38  2  0  0  0
 37 38  1  0  0  0
 44 45  1  0  0  0
 40 41  2  0  0  0
  7  8  2  0  0  0
  7  6  1  0  0  0
 12 11  1  0  0  0
 45 46  1  0  0  0
 45 42  2  0  0  0
 41 42  1  0  0  0
  6 10  1  0  0  0
 46 48  2  0  0  0
 46 47  1  0  0  0
 48 49  1  0  0  0
 47 51  2  0  0  0
 49 50  2  0  0  0
 11 13  2  0  0  0
 11 10  1  0  0  0
 51 50  1  0  0  0
 51 52  1  0  0  0
 10 16  1  0  0  0
 16 17  1  0  0  0
 17 19  1  0  0  0
 18 19  2  0  0  0
 19 20  1  0  0  0
 20 21  1  0  0  0
 12 14  1  0  0  0
 12 15  1  0  0  0
  6  9  1  0  0  0
 25 27  1  0  0  0
  1  4  1  0  0  0
 31 33  1  0  0  0
M  END
> <minimizedAffinity>
-9.16155

$$$$
5CXA_55L_A_306


 52 54  0  0  0  0  0  0  0  0999 V2000
   -3.7991   25.7872    9.3748 N   0  0  0  0  0  0  0  0  0  0  0  0
   -4.5020   24.6921    9.6093 C   0  0  0  0  0  0  0  0  0  0  0  0
   -5.4314   24.6761   10.4023 O   0  0  0  0  0  0  0  0  0  0  0  0
   -3.1373   25.8123    8.6463 H   0  0  0  0  0  0  0  0  0  0  0  0
   -4.0226   26.9547   10.2140 C   0  0  0  0  0  0  0  0  0  0  0  0
   -2.9781   28.8027    9.0964 N   0  0  0  0  0  0  0  0  0  0  0  0
   -4.1275   28.2010    9.3794 C   0  0  0  0  0  0  0  0  0  0  0  0
   -5.2264   28.6279    9.0089 O   0  0  0  0  0  0  0  0  0  0  0  0
   -2.1663   28.5124    9.5718 H   0  0  0  0  0  0  0  0  0  0  0  0
   -2.8637   29.8703    8.1167 C   0  0  0  0  0  0  0  0  0  0  0  0
   -2.6511   29.3902    6.7079 C   0  0  0  0  0  0  0  0  0  0  0  0
   -2.1267   28.1867    6.5820 N   0  0  0  0  0  0  0  0  0  0  0  0
   -2.9237   30.1028    5.7416 O   0  0  0  0  0  0  0  0  0  0  0  0
   -1.9616   27.8129    5.6863 H   0  0  0  0  0  0  0  0  0  0  0  0
   -1.9003   27.6620    7.3837 H   0  0  0  0  0  0  0  0  0  0  0  0
   -1.6555   30.7290    8.4475 C   0  0  0  0  0  0  0  0  0  0  0  0
   -0.4754   30.0375    9.1042 C   0  0  0  0  0  0  0  0  0  0  0  0
    1.4549   30.8679    8.0494 O   0  0  0  0  0  0  0  0  0  0  0  0
    0.6554   29.9418    8.1191 C   0  0  0  0  0  0  0  0  0  0  0  0
    0.7459   28.8752    7.3835 O   0  0  0  0  0  0  0  0  0  0  0  0
    0.1116   28.1910    7.4702 H   0  0  0  0  0  0  0  0  0  0  0  0
   -2.9957   27.0824   11.3529 C   0  0  0  0  0  0  0  0  0  0  0  0
   -3.6199   27.4276   12.7029 C   0  0  0  0  0  0  0  0  0  0  0  0
   -3.7939   26.2009   13.5848 C   0  0  0  0  0  0  0  0  0  0  0  0
   -4.4658   25.1708   13.1571 O   0  0  0  0  0  0  0  0  0  0  0  0
   -3.2895   26.2286   14.7275 O   0  0  0  0  0  0  0  0  0  0  0  0
   -4.8337   25.1764   12.2953 H   0  0  0  0  0  0  0  0  0  0  0  0
   -4.1091   23.4441    8.8853 C   0  0  0  0  0  0  0  0  0  0  0  0
   -5.3651   22.5904    8.6907 C   0  0  0  0  0  0  0  0  0  0  0  0
   -5.0488   21.1366    8.4221 C   0  0  0  0  0  0  0  0  0  0  0  0
   -3.9229   20.6942    8.7374 O   0  0  0  0  0  0  0  0  0  0  0  0
   -5.9240   20.4065    7.9056 O   0  0  0  0  0  0  0  0  0  0  0  0
   -3.2867   21.2641    9.1227 H   0  0  0  0  0  0  0  0  0  0  0  0
   -3.5306   23.8479    7.5284 C   0  0  0  0  0  0  0  0  0  0  0  0
   -2.1222   23.4836    7.1794 C   0  0  0  0  0  0  0  0  0  0  0  0
   -0.9928   24.1122    6.8145 C   0  0  0  0  0  0  0  0  0  0  0  0
   -1.8570   22.1470    7.3010 O   0  0  0  0  0  0  0  0  0  0  0  0
   -0.4956   21.9389    6.9736 N   0  0  0  0  0  0  0  0  0  0  0  0
   -0.0107   23.1236    6.6839 C   0  0  0  0  0  0  0  0  0  0  0  0
    1.4286   23.2567    6.3196 C   0  0  0  0  0  0  0  0  0  0  0  0
    2.4074   22.7185    7.1524 C   0  0  0  0  0  0  0  0  0  0  0  0
    3.7535   22.8582    6.8358 C   0  0  0  0  0  0  0  0  0  0  0  0
    1.8167   23.9663    5.1909 C   0  0  0  0  0  0  0  0  0  0  0  0
    3.1607   24.0978    4.8781 C   0  0  0  0  0  0  0  0  0  0  0  0
    4.1411   23.5514    5.6937 C   0  0  0  0  0  0  0  0  0  0  0  0
    5.5679   23.7127    5.3341 C   0  0  0  0  0  0  0  0  0  0  0  0
    5.9255   24.4004    4.1841 C   0  0  0  0  0  0  0  0  0  0  0  0
    6.5526   23.1543    6.1345 C   0  0  0  0  0  0  0  0  0  0  0  0
    7.8943   23.2940    5.8039 C   0  0  0  0  0  0  0  0  0  0  0  0
    8.2513   23.9816    4.6653 C   0  0  0  0  0  0  0  0  0  0  0  0
    7.2708   24.5286    3.8674 C   0  0  0  0  0  0  0  0  0  0  0  0
    7.7263   25.3910    2.4383 Cl  0  0  0  0  0  0  0  0  0  0  0  0
 32 30  2  0  0  0
 31 30  1  0  0  0
 30 29  1  0  0  0
 26 24  2  0  0  0
 29 28  1  0  0  0
 24 25  1  0  0  0
 24 23  1  0  0  0
 28 34  1  0  0  0
 28  2  1  0  0  0
 23 22  1  0  0  0
 34 35  1  0  0  0
  2  1  1  0  0  0
  2  3  2  0  0  0
 22  5  1  0  0  0
  1  5  1  0  0  0
 36 35  2  0  0  0
 36 39  1  0  0  0
 35 37  1  0  0  0
  5  7  1  0  0  0
 43 44  2  0  0  0
 43 40  1  0  0  0
 39 40  1  0  0  0
 39 38  2  0  0  0
 37 38  1  0  0  0
 44 45  1  0  0  0
 40 41  2  0  0  0
  7  8  2  0  0  0
  7  6  1  0  0  0
 12 11  1  0  0  0
 45 46  1  0  0  0
 45 42  2  0  0  0
 41 42  1  0  0  0
  6 10  1  0  0  0
 46 48  2  0  0  0
 46 47  1  0  0  0
 48 49  1  0  0  0
 47 51  2  0  0  0
 49 50  2  0  0  0
 11 13  2  0  0  0
 11 10  1  0  0  0
 51 50  1  0  0  0
 51 52  1  0  0  0
 10 16  1  0  0  0
 16 17  1  0  0  0
 17 19  1  0  0  0
 18 19  2  0  0  0
 19 20  1  0  0  0
 20 21  1  0  0  0
 12 14  1  0  0  0
 12 15  1  0  0  0
  6  9  1  0  0  0
 25 27  1  0  0  0
  1  4  1  0  0  0
 31 33  1  0  0  0
M  END
> <minimizedAffinity>
-8.88980

$$$$
