4YZU_4K6_A_301


 29 32  0  0  0  0  0  0  0  0999 V2000
  -13.8319  -36.8081  -14.7778 O   0  0  0  0  0  0  0  0  0  0  0  0
  -13.8038  -37.2131  -13.6160 C   0  0  0  0  0  0  0  0  0  0  0  0
  -14.2266  -38.4372  -13.2902 N   0  0  0  0  0  0  0  0  0  0  0  0
  -14.2316  -38.7109  -12.3445 H   0  0  0  0  0  0  0  0  0  0  0  0
  -13.2974  -36.3366  -12.5137 C   0  0  0  0  0  0  0  0  0  0  0  0
  -12.2621  -36.8446  -11.7310 C   0  0  0  0  0  0  0  0  0  0  0  0
  -11.8742  -36.2058  -10.5685 C   0  0  0  0  0  0  0  0  0  0  0  0
  -12.5069  -35.0367  -10.1709 C   0  0  0  0  0  0  0  0  0  0  0  0
  -13.5085  -34.4907  -10.9664 C   0  0  0  0  0  0  0  0  0  0  0  0
  -13.8960  -35.1348  -12.1323 C   0  0  0  0  0  0  0  0  0  0  0  0
  -12.1526  -34.4175   -8.9323 N   0  0  0  0  0  0  0  0  0  0  0  0
  -12.9543  -33.7067   -8.0955 C   0  0  0  0  0  0  0  0  0  0  0  0
  -12.3086  -33.3469   -7.0244 N   0  0  0  0  0  0  0  0  0  0  0  0
  -11.0134  -33.8426   -7.1465 N   0  0  0  0  0  0  0  0  0  0  0  0
  -10.9551  -34.4679   -8.2876 C   0  0  0  0  0  0  0  0  0  0  0  0
  -14.6813  -39.3764  -14.3101 C   0  0  0  0  0  0  0  0  0  0  0  0
  -15.9595  -40.0713  -13.9183 C   0  0  0  0  0  0  0  0  0  0  0  0
  -15.7344  -41.1136  -12.8775 C   0  0  0  0  0  0  0  0  0  0  0  0
  -15.8395  -42.4371  -13.1365 N   0  0  0  0  0  0  0  0  0  0  0  0
  -15.6768  -43.1062  -11.9251 C   0  0  0  0  0  0  0  0  0  0  0  0
  -15.6185  -44.4498  -11.5859 C   0  0  0  0  0  0  0  0  0  0  0  0
  -15.4943  -40.8568  -11.6049 N   0  0  0  0  0  0  0  0  0  0  0  0
  -15.4670  -42.1034  -10.9802 C   0  0  0  0  0  0  0  0  0  0  0  0
  -15.2332  -42.4470   -9.6529 C   0  0  0  0  0  0  0  0  0  0  0  0
  -15.1767  -43.7880   -9.2855 C   0  0  0  0  0  0  0  0  0  0  0  0
  -14.9631  -44.1354   -7.8347 C   0  0  0  0  0  0  0  0  0  0  0  0
  -15.3297  -44.8041  -10.2691 C   0  0  0  0  0  0  0  0  0  0  0  0
  -15.0993  -46.2548   -9.9207 C   0  0  0  0  0  0  0  0  0  0  0  0
  -16.0005  -42.8499  -14.0157 H   0  0  0  0  0  0  0  0  0  0  0  0
 17 16  1  0  0  0
 17 18  1  0  0  0
 16  3  1  0  0  0
  3  2  1  0  0  0
  1  2  2  0  0  0
  2  5  1  0  0  0
 18 22  2  0  0  0
 18 19  1  0  0  0
  6  5  2  0  0  0
  6  7  1  0  0  0
 22 23  1  0  0  0
  5 10  1  0  0  0
 19 20  1  0  0  0
  7  8  2  0  0  0
 10  9  2  0  0  0
 23 20  2  0  0  0
 23 24  1  0  0  0
  8  9  1  0  0  0
  8 11  1  0  0  0
 20 21  1  0  0  0
 15 11  1  0  0  0
 15 14  2  0  0  0
 24 25  2  0  0  0
 11 12  1  0  0  0
 21 27  2  0  0  0
 14 13  1  0  0  0
 25 27  1  0  0  0
 25 26  1  0  0  0
 12 13  2  0  0  0
 27 28  1  0  0  0
  3  4  1  0  0  0
 19 29  1  0  0  0
M  END
> <minimizedAffinity>
-9.85344

$$$$
4YZU_4K6_A_301


 29 32  0  0  0  0  0  0  0  0999 V2000
  -16.4751  -43.3032  -12.7306 O   0  0  0  0  0  0  0  0  0  0  0  0
  -15.4739  -43.2460  -12.0174 C   0  0  0  0  0  0  0  0  0  0  0  0
  -14.3970  -42.5425  -12.3766 N   0  0  0  0  0  0  0  0  0  0  0  0
  -13.5974  -42.5561  -11.8024 H   0  0  0  0  0  0  0  0  0  0  0  0
  -15.4230  -43.9766  -10.7123 C   0  0  0  0  0  0  0  0  0  0  0  0
  -15.3653  -43.1985   -9.5573 C   0  0  0  0  0  0  0  0  0  0  0  0
  -15.1040  -43.7738   -8.3283 C   0  0  0  0  0  0  0  0  0  0  0  0
  -14.9070  -45.1436   -8.2273 C   0  0  0  0  0  0  0  0  0  0  0  0
  -15.0097  -45.9399   -9.3629 C   0  0  0  0  0  0  0  0  0  0  0  0
  -15.2713  -45.3591  -10.5953 C   0  0  0  0  0  0  0  0  0  0  0  0
  -14.5663  -45.7261   -6.9673 N   0  0  0  0  0  0  0  0  0  0  0  0
  -15.0672  -46.8603   -6.4098 C   0  0  0  0  0  0  0  0  0  0  0  0
  -14.4771  -47.1252   -5.2806 N   0  0  0  0  0  0  0  0  0  0  0  0
  -13.5331  -46.1234   -5.0720 N   0  0  0  0  0  0  0  0  0  0  0  0
  -13.6148  -45.3113   -6.0871 C   0  0  0  0  0  0  0  0  0  0  0  0
  -14.3839  -41.7542  -13.6044 C   0  0  0  0  0  0  0  0  0  0  0  0
  -14.9125  -40.3590  -13.3937 C   0  0  0  0  0  0  0  0  0  0  0  0
  -13.8440  -39.4140  -12.9631 C   0  0  0  0  0  0  0  0  0  0  0  0
  -14.0477  -38.4624  -12.0236 N   0  0  0  0  0  0  0  0  0  0  0  0
  -12.8837  -37.6996  -11.9535 C   0  0  0  0  0  0  0  0  0  0  0  0
  -12.4879  -36.6486  -11.1395 C   0  0  0  0  0  0  0  0  0  0  0  0
  -12.6392  -39.3562  -13.4998 N   0  0  0  0  0  0  0  0  0  0  0  0
  -12.0178  -38.2695  -12.8851 C   0  0  0  0  0  0  0  0  0  0  0  0
  -10.7360  -37.7523  -13.0391 C   0  0  0  0  0  0  0  0  0  0  0  0
  -10.3169  -36.6934  -12.2393 C   0  0  0  0  0  0  0  0  0  0  0  0
   -8.9383  -36.1231  -12.4527 C   0  0  0  0  0  0  0  0  0  0  0  0
  -11.1870  -36.1603  -11.2483 C   0  0  0  0  0  0  0  0  0  0  0  0
  -10.6910  -35.1331  -10.2594 C   0  0  0  0  0  0  0  0  0  0  0  0
  -14.8647  -38.3331  -11.4898 H   0  0  0  0  0  0  0  0  0  0  0  0
 17 16  1  0  0  0
 17 18  1  0  0  0
 16  3  1  0  0  0
  3  2  1  0  0  0
  1  2  2  0  0  0
  2  5  1  0  0  0
 18 22  2  0  0  0
 18 19  1  0  0  0
  6  5  2  0  0  0
  6  7  1  0  0  0
 22 23  1  0  0  0
  5 10  1  0  0  0
 19 20  1  0  0  0
  7  8  2  0  0  0
 10  9  2  0  0  0
 23 20  2  0  0  0
 23 24  1  0  0  0
  8  9  1  0  0  0
  8 11  1  0  0  0
 20 21  1  0  0  0
 15 11  1  0  0  0
 15 14  2  0  0  0
 24 25  2  0  0  0
 11 12  1  0  0  0
 21 27  2  0  0  0
 14 13  1  0  0  0
 25 27  1  0  0  0
 25 26  1  0  0  0
 12 13  2  0  0  0
 27 28  1  0  0  0
  3  4  1  0  0  0
 19 29  1  0  0  0
M  END
> <minimizedAffinity>
-9.08949

$$$$
4YZU_4K6_A_301


 29 32  0  0  0  0  0  0  0  0999 V2000
  -13.6133  -39.5834  -11.7328 O   0  0  0  0  0  0  0  0  0  0  0  0
  -14.2860  -39.1711  -12.6772 C   0  0  0  0  0  0  0  0  0  0  0  0
  -14.8956  -40.0075  -13.5212 N   0  0  0  0  0  0  0  0  0  0  0  0
  -15.3881  -39.6426  -14.2916 H   0  0  0  0  0  0  0  0  0  0  0  0
  -14.4402  -37.7027  -12.9215 C   0  0  0  0  0  0  0  0  0  0  0  0
  -15.5373  -37.3032  -13.6828 C   0  0  0  0  0  0  0  0  0  0  0  0
  -15.6481  -36.0027  -14.1371 C   0  0  0  0  0  0  0  0  0  0  0  0
  -14.6680  -35.0703  -13.8282 C   0  0  0  0  0  0  0  0  0  0  0  0
  -13.5921  -35.4410  -13.0288 C   0  0  0  0  0  0  0  0  0  0  0  0
  -13.4834  -36.7474  -12.5751 C   0  0  0  0  0  0  0  0  0  0  0  0
  -14.7488  -33.7455  -14.3588 N   0  0  0  0  0  0  0  0  0  0  0  0
  -14.4882  -32.5738  -13.7205 C   0  0  0  0  0  0  0  0  0  0  0  0
  -14.6018  -31.5642  -14.5336 N   0  0  0  0  0  0  0  0  0  0  0  0
  -14.9516  -32.0830  -15.7773 N   0  0  0  0  0  0  0  0  0  0  0  0
  -15.0328  -33.3754  -15.6373 C   0  0  0  0  0  0  0  0  0  0  0  0
  -14.8452  -41.4521  -13.3222 C   0  0  0  0  0  0  0  0  0  0  0  0
  -16.1205  -41.9924  -12.7289 C   0  0  0  0  0  0  0  0  0  0  0  0
  -15.8609  -42.9179  -11.5903 C   0  0  0  0  0  0  0  0  0  0  0  0
  -15.5889  -42.4775  -10.3406 N   0  0  0  0  0  0  0  0  0  0  0  0
  -15.2926  -43.5978   -9.5666 C   0  0  0  0  0  0  0  0  0  0  0  0
  -15.0097  -43.7703   -8.2198 C   0  0  0  0  0  0  0  0  0  0  0  0
  -15.7911  -44.2317  -11.6985 N   0  0  0  0  0  0  0  0  0  0  0  0
  -15.4196  -44.6827  -10.4322 C   0  0  0  0  0  0  0  0  0  0  0  0
  -15.2190  -45.9726   -9.9523 C   0  0  0  0  0  0  0  0  0  0  0  0
  -14.9271  -46.1721   -8.6063 C   0  0  0  0  0  0  0  0  0  0  0  0
  -14.6733  -47.5751   -8.1182 C   0  0  0  0  0  0  0  0  0  0  0  0
  -14.8619  -45.0625   -7.7187 C   0  0  0  0  0  0  0  0  0  0  0  0
  -14.7194  -45.2734   -6.2307 C   0  0  0  0  0  0  0  0  0  0  0  0
  -15.5984  -41.5416  -10.0353 H   0  0  0  0  0  0  0  0  0  0  0  0
 17 16  1  0  0  0
 17 18  1  0  0  0
 16  3  1  0  0  0
  3  2  1  0  0  0
  1  2  2  0  0  0
  2  5  1  0  0  0
 18 22  2  0  0  0
 18 19  1  0  0  0
  6  5  2  0  0  0
  6  7  1  0  0  0
 22 23  1  0  0  0
  5 10  1  0  0  0
 19 20  1  0  0  0
  7  8  2  0  0  0
 10  9  2  0  0  0
 23 20  2  0  0  0
 23 24  1  0  0  0
  8  9  1  0  0  0
  8 11  1  0  0  0
 20 21  1  0  0  0
 15 11  1  0  0  0
 15 14  2  0  0  0
 24 25  2  0  0  0
 11 12  1  0  0  0
 21 27  2  0  0  0
 14 13  1  0  0  0
 25 27  1  0  0  0
 25 26  1  0  0  0
 12 13  2  0  0  0
 27 28  1  0  0  0
  3  4  1  0  0  0
 19 29  1  0  0  0
M  END
> <minimizedAffinity>
-8.60348

$$$$
4YZU_4K6_A_301


 29 32  0  0  0  0  0  0  0  0999 V2000
  -15.0957  -38.8204  -14.3494 O   0  0  0  0  0  0  0  0  0  0  0  0
  -14.4884  -38.9278  -13.2844 C   0  0  0  0  0  0  0  0  0  0  0  0
  -15.0984  -39.3334  -12.1678 N   0  0  0  0  0  0  0  0  0  0  0  0
  -14.5917  -39.3643  -11.3243 H   0  0  0  0  0  0  0  0  0  0  0  0
  -13.0315  -38.5966  -13.1992 C   0  0  0  0  0  0  0  0  0  0  0  0
  -12.5702  -38.0951  -11.9833 C   0  0  0  0  0  0  0  0  0  0  0  0
  -11.2984  -37.5658  -11.8723 C   0  0  0  0  0  0  0  0  0  0  0  0
  -10.4559  -37.5385  -12.9745 C   0  0  0  0  0  0  0  0  0  0  0  0
  -10.8838  -38.0793  -14.1822 C   0  0  0  0  0  0  0  0  0  0  0  0
  -12.1613  -38.6092  -14.2904 C   0  0  0  0  0  0  0  0  0  0  0  0
   -9.1683  -36.9260  -12.8753 N   0  0  0  0  0  0  0  0  0  0  0  0
   -7.9908  -37.3713  -13.3885 C   0  0  0  0  0  0  0  0  0  0  0  0
   -7.0311  -36.5228  -13.1591 N   0  0  0  0  0  0  0  0  0  0  0  0
   -7.5917  -35.4559  -12.4621 N   0  0  0  0  0  0  0  0  0  0  0  0
   -8.8561  -35.7285  -12.3089 C   0  0  0  0  0  0  0  0  0  0  0  0
  -16.5022  -39.7317  -12.1751 C   0  0  0  0  0  0  0  0  0  0  0  0
  -16.6921  -41.1479  -12.6534 C   0  0  0  0  0  0  0  0  0  0  0  0
  -16.1799  -42.1446  -11.6712 C   0  0  0  0  0  0  0  0  0  0  0  0
  -16.0386  -43.4562  -11.9700 N   0  0  0  0  0  0  0  0  0  0  0  0
  -15.6483  -44.1037  -10.7994 C   0  0  0  0  0  0  0  0  0  0  0  0
  -15.2952  -45.4144  -10.5150 C   0  0  0  0  0  0  0  0  0  0  0  0
  -15.8943  -41.8710  -10.4116 N   0  0  0  0  0  0  0  0  0  0  0  0
  -15.5678  -43.0990   -9.8368 C   0  0  0  0  0  0  0  0  0  0  0  0
  -15.1638  -43.4158   -8.5442 C   0  0  0  0  0  0  0  0  0  0  0  0
  -14.8107  -44.7251   -8.2314 C   0  0  0  0  0  0  0  0  0  0  0  0
  -14.4157  -45.0521   -6.8143 C   0  0  0  0  0  0  0  0  0  0  0  0
  -14.8362  -45.7303   -9.2374 C   0  0  0  0  0  0  0  0  0  0  0  0
  -14.2929  -47.1114   -8.9607 C   0  0  0  0  0  0  0  0  0  0  0  0
  -16.1842  -43.8747  -12.8492 H   0  0  0  0  0  0  0  0  0  0  0  0
 17 16  1  0  0  0
 17 18  1  0  0  0
 16  3  1  0  0  0
  3  2  1  0  0  0
  1  2  2  0  0  0
  2  5  1  0  0  0
 18 22  2  0  0  0
 18 19  1  0  0  0
  6  5  2  0  0  0
  6  7  1  0  0  0
 22 23  1  0  0  0
  5 10  1  0  0  0
 19 20  1  0  0  0
  7  8  2  0  0  0
 10  9  2  0  0  0
 23 20  2  0  0  0
 23 24  1  0  0  0
  8  9  1  0  0  0
  8 11  1  0  0  0
 20 21  1  0  0  0
 15 11  1  0  0  0
 15 14  2  0  0  0
 24 25  2  0  0  0
 11 12  1  0  0  0
 21 27  2  0  0  0
 14 13  1  0  0  0
 25 27  1  0  0  0
 25 26  1  0  0  0
 12 13  2  0  0  0
 27 28  1  0  0  0
  3  4  1  0  0  0
 19 29  1  0  0  0
M  END
> <minimizedAffinity>
-8.37282

$$$$
4YZU_4K6_A_301


 29 32  0  0  0  0  0  0  0  0999 V2000
  -16.4924  -41.7967  -10.4728 O   0  0  0  0  0  0  0  0  0  0  0  0
  -15.3541  -42.2571  -10.3908 C   0  0  0  0  0  0  0  0  0  0  0  0
  -14.3170  -41.6742  -10.9974 N   0  0  0  0  0  0  0  0  0  0  0  0
  -13.4286  -42.0955  -10.9474 H   0  0  0  0  0  0  0  0  0  0  0  0
  -15.0894  -43.5043   -9.6071 C   0  0  0  0  0  0  0  0  0  0  0  0
  -15.2293  -44.7146  -10.2841 C   0  0  0  0  0  0  0  0  0  0  0  0
  -15.2140  -45.9149   -9.5993 C   0  0  0  0  0  0  0  0  0  0  0  0
  -15.0456  -45.9298   -8.2221 C   0  0  0  0  0  0  0  0  0  0  0  0
  -14.8559  -44.7338   -7.5382 C   0  0  0  0  0  0  0  0  0  0  0  0
  -14.8726  -43.5306   -8.2285 C   0  0  0  0  0  0  0  0  0  0  0  0
  -15.1018  -47.1669   -7.5082 N   0  0  0  0  0  0  0  0  0  0  0  0
  -15.3606  -47.3568   -6.1872 C   0  0  0  0  0  0  0  0  0  0  0  0
  -15.3963  -48.6247   -5.8962 N   0  0  0  0  0  0  0  0  0  0  0  0
  -15.1535  -49.3187   -7.0785 N   0  0  0  0  0  0  0  0  0  0  0  0
  -14.9809  -48.4258   -8.0110 C   0  0  0  0  0  0  0  0  0  0  0  0
  -14.4765  -40.4242  -11.7332 C   0  0  0  0  0  0  0  0  0  0  0  0
  -13.9714  -39.2356  -10.9571 C   0  0  0  0  0  0  0  0  0  0  0  0
  -12.7581  -38.6345  -11.5792 C   0  0  0  0  0  0  0  0  0  0  0  0
  -12.2940  -39.0180  -12.7905 N   0  0  0  0  0  0  0  0  0  0  0  0
  -11.0978  -38.3365  -13.0058 C   0  0  0  0  0  0  0  0  0  0  0  0
  -10.2231  -38.2753  -14.0804 C   0  0  0  0  0  0  0  0  0  0  0  0
  -11.9821  -37.7434  -10.9905 N   0  0  0  0  0  0  0  0  0  0  0  0
  -10.9173  -37.5494  -11.8699 C   0  0  0  0  0  0  0  0  0  0  0  0
   -9.8128  -36.7083  -11.7843 C   0  0  0  0  0  0  0  0  0  0  0  0
   -8.9165  -36.6338  -12.8462 C   0  0  0  0  0  0  0  0  0  0  0  0
   -7.7055  -35.7466  -12.7138 C   0  0  0  0  0  0  0  0  0  0  0  0
   -9.1443  -37.3943  -14.0265 C   0  0  0  0  0  0  0  0  0  0  0  0
   -8.2821  -37.1955  -15.2496 C   0  0  0  0  0  0  0  0  0  0  0  0
  -12.7211  -39.6582  -13.4045 H   0  0  0  0  0  0  0  0  0  0  0  0
 17 16  1  0  0  0
 17 18  1  0  0  0
 16  3  1  0  0  0
  3  2  1  0  0  0
  1  2  2  0  0  0
  2  5  1  0  0  0
 18 22  2  0  0  0
 18 19  1  0  0  0
  6  5  2  0  0  0
  6  7  1  0  0  0
 22 23  1  0  0  0
  5 10  1  0  0  0
 19 20  1  0  0  0
  7  8  2  0  0  0
 10  9  2  0  0  0
 23 20  2  0  0  0
 23 24  1  0  0  0
  8  9  1  0  0  0
  8 11  1  0  0  0
 20 21  1  0  0  0
 15 11  1  0  0  0
 15 14  2  0  0  0
 24 25  2  0  0  0
 11 12  1  0  0  0
 21 27  2  0  0  0
 14 13  1  0  0  0
 25 27  1  0  0  0
 25 26  1  0  0  0
 12 13  2  0  0  0
 27 28  1  0  0  0
  3  4  1  0  0  0
 19 29  1  0  0  0
M  END
> <minimizedAffinity>
-8.28964

$$$$
4YZU_4K6_A_301


 29 32  0  0  0  0  0  0  0  0999 V2000
  -16.8676  -42.9845  -12.5984 O   0  0  0  0  0  0  0  0  0  0  0  0
  -15.7945  -42.7235  -12.0555 C   0  0  0  0  0  0  0  0  0  0  0  0
  -14.9677  -41.7970  -12.5468 N   0  0  0  0  0  0  0  0  0  0  0  0
  -14.0974  -41.6465  -12.1119 H   0  0  0  0  0  0  0  0  0  0  0  0
  -15.3691  -43.4479  -10.8170 C   0  0  0  0  0  0  0  0  0  0  0  0
  -15.2032  -44.8279  -10.9208 C   0  0  0  0  0  0  0  0  0  0  0  0
  -15.0206  -45.6060   -9.7933 C   0  0  0  0  0  0  0  0  0  0  0  0
  -14.9878  -45.0168   -8.5374 C   0  0  0  0  0  0  0  0  0  0  0  0
  -15.1029  -43.6358   -8.4212 C   0  0  0  0  0  0  0  0  0  0  0  0
  -15.2868  -42.8578   -9.5549 C   0  0  0  0  0  0  0  0  0  0  0  0
  -14.8706  -45.8311   -7.3685 N   0  0  0  0  0  0  0  0  0  0  0  0
  -15.5315  -46.9850   -7.0859 C   0  0  0  0  0  0  0  0  0  0  0  0
  -15.1250  -47.4914   -5.9581 N   0  0  0  0  0  0  0  0  0  0  0  0
  -14.1423  -46.6390   -5.4621 N   0  0  0  0  0  0  0  0  0  0  0  0
  -14.0193  -45.6662   -6.3196 C   0  0  0  0  0  0  0  0  0  0  0  0
  -15.3306  -41.0037  -13.7165 C   0  0  0  0  0  0  0  0  0  0  0  0
  -14.2866  -41.0731  -14.8007 C   0  0  0  0  0  0  0  0  0  0  0  0
  -13.1600  -40.1293  -14.5552 C   0  0  0  0  0  0  0  0  0  0  0  0
  -12.0572  -40.0915  -15.3375 N   0  0  0  0  0  0  0  0  0  0  0  0
  -11.1743  -39.1824  -14.7580 C   0  0  0  0  0  0  0  0  0  0  0  0
   -9.9364  -38.6886  -15.1417 C   0  0  0  0  0  0  0  0  0  0  0  0
  -13.0873  -39.3072  -13.5248 N   0  0  0  0  0  0  0  0  0  0  0  0
  -11.8326  -38.7066  -13.6254 C   0  0  0  0  0  0  0  0  0  0  0  0
  -11.2233  -37.7419  -12.8301 C   0  0  0  0  0  0  0  0  0  0  0  0
   -9.9781  -37.2351  -13.1896 C   0  0  0  0  0  0  0  0  0  0  0  0
   -9.3195  -36.2208  -12.2905 C   0  0  0  0  0  0  0  0  0  0  0  0
   -9.3434  -37.6820  -14.3816 C   0  0  0  0  0  0  0  0  0  0  0  0
   -8.0799  -37.0202  -14.8763 C   0  0  0  0  0  0  0  0  0  0  0  0
  -11.9066  -40.6089  -16.1615 H   0  0  0  0  0  0  0  0  0  0  0  0
 17 16  1  0  0  0
 17 18  1  0  0  0
 16  3  1  0  0  0
  3  2  1  0  0  0
  1  2  2  0  0  0
  2  5  1  0  0  0
 18 22  2  0  0  0
 18 19  1  0  0  0
  6  5  2  0  0  0
  6  7  1  0  0  0
 22 23  1  0  0  0
  5 10  1  0  0  0
 19 20  1  0  0  0
  7  8  2  0  0  0
 10  9  2  0  0  0
 23 20  2  0  0  0
 23 24  1  0  0  0
  8  9  1  0  0  0
  8 11  1  0  0  0
 20 21  1  0  0  0
 15 11  1  0  0  0
 15 14  2  0  0  0
 24 25  2  0  0  0
 11 12  1  0  0  0
 21 27  2  0  0  0
 14 13  1  0  0  0
 25 27  1  0  0  0
 25 26  1  0  0  0
 12 13  2  0  0  0
 27 28  1  0  0  0
  3  4  1  0  0  0
 19 29  1  0  0  0
M  END
> <minimizedAffinity>
-8.16586

$$$$
4YZU_4K6_A_301


 29 32  0  0  0  0  0  0  0  0999 V2000
  -15.0140  -36.9120  -15.7135 O   0  0  0  0  0  0  0  0  0  0  0  0
  -15.3713  -36.7908  -14.5421 C   0  0  0  0  0  0  0  0  0  0  0  0
  -16.5866  -37.1684  -14.1376 N   0  0  0  0  0  0  0  0  0  0  0  0
  -16.8541  -37.0149  -13.2026 H   0  0  0  0  0  0  0  0  0  0  0  0
  -14.4503  -36.2024  -13.5197 C   0  0  0  0  0  0  0  0  0  0  0  0
  -13.5421  -37.0710  -12.9167 C   0  0  0  0  0  0  0  0  0  0  0  0
  -12.8021  -36.6721  -11.8199 C   0  0  0  0  0  0  0  0  0  0  0  0
  -12.9465  -35.3896  -11.3104 C   0  0  0  0  0  0  0  0  0  0  0  0
  -13.8124  -34.4954  -11.9306 C   0  0  0  0  0  0  0  0  0  0  0  0
  -14.5544  -34.8993  -13.0309 C   0  0  0  0  0  0  0  0  0  0  0  0
  -12.2334  -35.0033  -10.1333 N   0  0  0  0  0  0  0  0  0  0  0  0
  -10.9255  -35.2283   -9.8387 C   0  0  0  0  0  0  0  0  0  0  0  0
  -10.6005  -34.6759   -8.7062 N   0  0  0  0  0  0  0  0  0  0  0  0
  -11.7434  -34.0473   -8.2193 N   0  0  0  0  0  0  0  0  0  0  0  0
  -12.6908  -34.2634   -9.0867 C   0  0  0  0  0  0  0  0  0  0  0  0
  -17.5255  -37.8042  -15.0560 C   0  0  0  0  0  0  0  0  0  0  0  0
  -18.4843  -38.7250  -14.3466 C   0  0  0  0  0  0  0  0  0  0  0  0
  -17.7759  -39.7618  -13.5444 C   0  0  0  0  0  0  0  0  0  0  0  0
  -17.5514  -41.0132  -14.0061 N   0  0  0  0  0  0  0  0  0  0  0  0
  -16.9737  -41.7370  -12.9648 C   0  0  0  0  0  0  0  0  0  0  0  0
  -16.4736  -43.0273  -12.8720 C   0  0  0  0  0  0  0  0  0  0  0  0
  -17.3751  -39.5947  -12.2977 N   0  0  0  0  0  0  0  0  0  0  0  0
  -16.8758  -40.8364  -11.9056 C   0  0  0  0  0  0  0  0  0  0  0  0
  -16.3006  -41.2445  -10.7068 C   0  0  0  0  0  0  0  0  0  0  0  0
  -15.7974  -42.5363  -10.5858 C   0  0  0  0  0  0  0  0  0  0  0  0
  -15.2161  -42.9687   -9.2643 C   0  0  0  0  0  0  0  0  0  0  0  0
  -15.8458  -43.4273  -11.6936 C   0  0  0  0  0  0  0  0  0  0  0  0
  -15.1520  -44.7668  -11.6360 C   0  0  0  0  0  0  0  0  0  0  0  0
  -17.7574  -41.3494  -14.9082 H   0  0  0  0  0  0  0  0  0  0  0  0
 17 16  1  0  0  0
 17 18  1  0  0  0
 16  3  1  0  0  0
  3  2  1  0  0  0
  1  2  2  0  0  0
  2  5  1  0  0  0
 18 22  2  0  0  0
 18 19  1  0  0  0
  6  5  2  0  0  0
  6  7  1  0  0  0
 22 23  1  0  0  0
  5 10  1  0  0  0
 19 20  1  0  0  0
  7  8  2  0  0  0
 10  9  2  0  0  0
 23 20  2  0  0  0
 23 24  1  0  0  0
  8  9  1  0  0  0
  8 11  1  0  0  0
 20 21  1  0  0  0
 15 11  1  0  0  0
 15 14  2  0  0  0
 24 25  2  0  0  0
 11 12  1  0  0  0
 21 27  2  0  0  0
 14 13  1  0  0  0
 25 27  1  0  0  0
 25 26  1  0  0  0
 12 13  2  0  0  0
 27 28  1  0  0  0
  3  4  1  0  0  0
 19 29  1  0  0  0
M  END
> <minimizedAffinity>
-8.11018

$$$$
4YZU_4K6_A_301


 29 32  0  0  0  0  0  0  0  0999 V2000
  -15.0198  -41.0258  -10.6796 O   0  0  0  0  0  0  0  0  0  0  0  0
  -14.9495  -42.1729  -11.1198 C   0  0  0  0  0  0  0  0  0  0  0  0
  -14.6818  -42.4149  -12.4055 N   0  0  0  0  0  0  0  0  0  0  0  0
  -14.6780  -43.3438  -12.7318 H   0  0  0  0  0  0  0  0  0  0  0  0
  -15.1719  -43.3500  -10.2228 C   0  0  0  0  0  0  0  0  0  0  0  0
  -15.0439  -43.1301   -8.8524 C   0  0  0  0  0  0  0  0  0  0  0  0
  -15.0212  -44.1888   -7.9644 C   0  0  0  0  0  0  0  0  0  0  0  0
  -15.1388  -45.4910   -8.4288 C   0  0  0  0  0  0  0  0  0  0  0  0
  -15.3163  -45.7242   -9.7883 C   0  0  0  0  0  0  0  0  0  0  0  0
  -15.3378  -44.6593  -10.6771 C   0  0  0  0  0  0  0  0  0  0  0  0
  -15.0432  -46.5870   -7.5163 N   0  0  0  0  0  0  0  0  0  0  0  0
  -15.0214  -46.5420   -6.1577 C   0  0  0  0  0  0  0  0  0  0  0  0
  -14.9935  -47.7405   -5.6515 N   0  0  0  0  0  0  0  0  0  0  0  0
  -15.0006  -48.6322   -6.7207 N   0  0  0  0  0  0  0  0  0  0  0  0
  -15.0273  -47.9162   -7.8084 C   0  0  0  0  0  0  0  0  0  0  0  0
  -14.3948  -41.3278  -13.3356 C   0  0  0  0  0  0  0  0  0  0  0  0
  -15.6473  -40.7415  -13.9338 C   0  0  0  0  0  0  0  0  0  0  0  0
  -15.5461  -39.2654  -14.1105 C   0  0  0  0  0  0  0  0  0  0  0  0
  -15.6383  -38.6682  -15.3207 N   0  0  0  0  0  0  0  0  0  0  0  0
  -15.3899  -37.3106  -15.1280 C   0  0  0  0  0  0  0  0  0  0  0  0
  -15.4143  -36.2138  -15.9765 C   0  0  0  0  0  0  0  0  0  0  0  0
  -15.2811  -38.4144  -13.1366 N   0  0  0  0  0  0  0  0  0  0  0  0
  -15.1646  -37.1721  -13.7596 C   0  0  0  0  0  0  0  0  0  0  0  0
  -14.9162  -35.9112  -13.2276 C   0  0  0  0  0  0  0  0  0  0  0  0
  -14.9283  -34.7953  -14.0590 C   0  0  0  0  0  0  0  0  0  0  0  0
  -14.6158  -33.4451  -13.4672 C   0  0  0  0  0  0  0  0  0  0  0  0
  -15.2215  -34.9405  -15.4433 C   0  0  0  0  0  0  0  0  0  0  0  0
  -15.4096  -33.7277  -16.3224 C   0  0  0  0  0  0  0  0  0  0  0  0
  -15.8426  -39.1096  -16.1766 H   0  0  0  0  0  0  0  0  0  0  0  0
 17 16  1  0  0  0
 17 18  1  0  0  0
 16  3  1  0  0  0
  3  2  1  0  0  0
  1  2  2  0  0  0
  2  5  1  0  0  0
 18 22  2  0  0  0
 18 19  1  0  0  0
  6  5  2  0  0  0
  6  7  1  0  0  0
 22 23  1  0  0  0
  5 10  1  0  0  0
 19 20  1  0  0  0
  7  8  2  0  0  0
 10  9  2  0  0  0
 23 20  2  0  0  0
 23 24  1  0  0  0
  8  9  1  0  0  0
  8 11  1  0  0  0
 20 21  1  0  0  0
 15 11  1  0  0  0
 15 14  2  0  0  0
 24 25  2  0  0  0
 11 12  1  0  0  0
 21 27  2  0  0  0
 14 13  1  0  0  0
 25 27  1  0  0  0
 25 26  1  0  0  0
 12 13  2  0  0  0
 27 28  1  0  0  0
  3  4  1  0  0  0
 19 29  1  0  0  0
M  END
> <minimizedAffinity>
-7.96332

$$$$
4YZU_4K6_A_301


 29 32  0  0  0  0  0  0  0  0999 V2000
   -9.8639  -38.7029  -14.8555 O   0  0  0  0  0  0  0  0  0  0  0  0
  -10.8558  -38.7215  -14.1273 C   0  0  0  0  0  0  0  0  0  0  0  0
  -11.9130  -39.4893  -14.4029 N   0  0  0  0  0  0  0  0  0  0  0  0
  -12.7070  -39.4448  -13.8226 H   0  0  0  0  0  0  0  0  0  0  0  0
  -10.9171  -37.8696  -12.8984 C   0  0  0  0  0  0  0  0  0  0  0  0
  -11.8809  -38.2037  -11.9485 C   0  0  0  0  0  0  0  0  0  0  0  0
  -12.1547  -37.3585  -10.8900 C   0  0  0  0  0  0  0  0  0  0  0  0
  -11.4600  -36.1653  -10.7527 C   0  0  0  0  0  0  0  0  0  0  0  0
  -10.4615  -35.8407  -11.6647 C   0  0  0  0  0  0  0  0  0  0  0  0
  -10.1896  -36.6909  -12.7266 C   0  0  0  0  0  0  0  0  0  0  0  0
  -11.7947  -35.2602   -9.6983 N   0  0  0  0  0  0  0  0  0  0  0  0
  -10.9821  -34.7844   -8.7178 C   0  0  0  0  0  0  0  0  0  0  0  0
  -11.6095  -33.9262   -7.9672 N   0  0  0  0  0  0  0  0  0  0  0  0
  -12.9033  -33.8181   -8.4699 N   0  0  0  0  0  0  0  0  0  0  0  0
  -12.9792  -34.6227   -9.4914 C   0  0  0  0  0  0  0  0  0  0  0  0
  -11.9130  -40.3931  -15.5485 C   0  0  0  0  0  0  0  0  0  0  0  0
  -13.2305  -41.1049  -15.7153 C   0  0  0  0  0  0  0  0  0  0  0  0
  -13.6640  -41.7827  -14.4610 C   0  0  0  0  0  0  0  0  0  0  0  0
  -13.8599  -43.1189  -14.3848 N   0  0  0  0  0  0  0  0  0  0  0  0
  -14.3624  -43.3877  -13.1132 C   0  0  0  0  0  0  0  0  0  0  0  0
  -14.6822  -44.5635  -12.4506 C   0  0  0  0  0  0  0  0  0  0  0  0
  -13.9729  -41.1536  -13.3422 N   0  0  0  0  0  0  0  0  0  0  0  0
  -14.4302  -42.1487  -12.4787 C   0  0  0  0  0  0  0  0  0  0  0  0
  -14.8677  -42.0740  -11.1606 C   0  0  0  0  0  0  0  0  0  0  0  0
  -15.2012  -43.2386  -10.4757 C   0  0  0  0  0  0  0  0  0  0  0  0
  -15.7118  -43.1290   -9.0620 C   0  0  0  0  0  0  0  0  0  0  0  0
  -15.0683  -44.5034  -11.1126 C   0  0  0  0  0  0  0  0  0  0  0  0
  -15.2580  -45.7824  -10.3333 C   0  0  0  0  0  0  0  0  0  0  0  0
  -13.6810  -43.7776  -15.0943 H   0  0  0  0  0  0  0  0  0  0  0  0
 17 16  1  0  0  0
 17 18  1  0  0  0
 16  3  1  0  0  0
  3  2  1  0  0  0
  1  2  2  0  0  0
  2  5  1  0  0  0
 18 22  2  0  0  0
 18 19  1  0  0  0
  6  5  2  0  0  0
  6  7  1  0  0  0
 22 23  1  0  0  0
  5 10  1  0  0  0
 19 20  1  0  0  0
  7  8  2  0  0  0
 10  9  2  0  0  0
 23 20  2  0  0  0
 23 24  1  0  0  0
  8  9  1  0  0  0
  8 11  1  0  0  0
 20 21  1  0  0  0
 15 11  1  0  0  0
 15 14  2  0  0  0
 24 25  2  0  0  0
 11 12  1  0  0  0
 21 27  2  0  0  0
 14 13  1  0  0  0
 25 27  1  0  0  0
 25 26  1  0  0  0
 12 13  2  0  0  0
 27 28  1  0  0  0
  3  4  1  0  0  0
 19 29  1  0  0  0
M  END
> <minimizedAffinity>
-7.86685

$$$$
4YZU_4K6_A_301


 29 32  0  0  0  0  0  0  0  0999 V2000
  -13.1115  -39.5389  -11.4200 O   0  0  0  0  0  0  0  0  0  0  0  0
  -13.5361  -38.9339  -12.4040 C   0  0  0  0  0  0  0  0  0  0  0  0
  -12.7225  -38.2441  -13.2073 N   0  0  0  0  0  0  0  0  0  0  0  0
  -13.1032  -37.7352  -13.9593 H   0  0  0  0  0  0  0  0  0  0  0  0
  -14.9957  -38.9427  -12.7347 C   0  0  0  0  0  0  0  0  0  0  0  0
  -15.5287  -37.7674  -13.2614 C   0  0  0  0  0  0  0  0  0  0  0  0
  -16.8946  -37.6087  -13.3988 C   0  0  0  0  0  0  0  0  0  0  0  0
  -17.7565  -38.6292  -13.0230 C   0  0  0  0  0  0  0  0  0  0  0  0
  -17.2380  -39.8265  -12.5416 C   0  0  0  0  0  0  0  0  0  0  0  0
  -15.8664  -39.9823  -12.4041 C   0  0  0  0  0  0  0  0  0  0  0  0
  -19.1706  -38.4353  -13.0992 N   0  0  0  0  0  0  0  0  0  0  0  0
  -19.8396  -37.3183  -13.4899 C   0  0  0  0  0  0  0  0  0  0  0  0
  -21.1247  -37.5231  -13.4987 N   0  0  0  0  0  0  0  0  0  0  0  0
  -21.3276  -38.8410  -13.0983 N   0  0  0  0  0  0  0  0  0  0  0  0
  -20.1512  -39.3501  -12.8673 C   0  0  0  0  0  0  0  0  0  0  0  0
  -11.2795  -38.2306  -12.9910 C   0  0  0  0  0  0  0  0  0  0  0  0
  -10.7297  -36.8314  -12.8893 C   0  0  0  0  0  0  0  0  0  0  0  0
  -11.1953  -36.1345  -11.6572 C   0  0  0  0  0  0  0  0  0  0  0  0
  -12.4016  -35.5281  -11.5745 N   0  0  0  0  0  0  0  0  0  0  0  0
  -12.4567  -34.8920  -10.3359 C   0  0  0  0  0  0  0  0  0  0  0  0
  -13.4514  -34.1832   -9.6789 C   0  0  0  0  0  0  0  0  0  0  0  0
  -10.4625  -35.9707  -10.5714 N   0  0  0  0  0  0  0  0  0  0  0  0
  -11.2360  -35.1756   -9.7260 C   0  0  0  0  0  0  0  0  0  0  0  0
  -10.9831  -34.7054   -8.4417 C   0  0  0  0  0  0  0  0  0  0  0  0
  -11.9623  -33.9857   -7.7636 C   0  0  0  0  0  0  0  0  0  0  0  0
  -11.6503  -33.4513   -6.3895 C   0  0  0  0  0  0  0  0  0  0  0  0
  -13.2277  -33.7559   -8.3712 C   0  0  0  0  0  0  0  0  0  0  0  0
  -14.3567  -33.1313   -7.5874 C   0  0  0  0  0  0  0  0  0  0  0  0
  -13.1078  -35.5350  -12.2604 H   0  0  0  0  0  0  0  0  0  0  0  0
 17 16  1  0  0  0
 17 18  1  0  0  0
 16  3  1  0  0  0
  3  2  1  0  0  0
  1  2  2  0  0  0
  2  5  1  0  0  0
 18 22  2  0  0  0
 18 19  1  0  0  0
  6  5  2  0  0  0
  6  7  1  0  0  0
 22 23  1  0  0  0
  5 10  1  0  0  0
 19 20  1  0  0  0
  7  8  2  0  0  0
 10  9  2  0  0  0
 23 20  2  0  0  0
 23 24  1  0  0  0
  8  9  1  0  0  0
  8 11  1  0  0  0
 20 21  1  0  0  0
 15 11  1  0  0  0
 15 14  2  0  0  0
 24 25  2  0  0  0
 11 12  1  0  0  0
 21 27  2  0  0  0
 14 13  1  0  0  0
 25 27  1  0  0  0
 25 26  1  0  0  0
 12 13  2  0  0  0
 27 28  1  0  0  0
  3  4  1  0  0  0
 19 29  1  0  0  0
M  END
> <minimizedAffinity>
-7.85873

$$$$
