2UWL_895_A_1245
  RCSB PDB12061707003D
Coordinates from PDB:2UWL:A:1245 Model:1 without hydrogens
 28 30  0  0  0  0            999 V2000
   13.7720    7.5130   26.1530  Cl 0  0  0  0  0  0  0  0  0  0  0  0
   12.0760    7.7700   26.1550   C 0  0  0  0  0  0  0  0  0  0  0  0
   11.2160    7.3640   27.1950   C 0  0  0  0  0  0  0  0  0  0  0  0
    9.8780    7.6550   26.8610   C 0  0  0  0  0  0  0  0  0  0  0  0
    9.7590    8.2890   25.6240   C 0  0  0  0  0  0  0  0  0  0  0  0
    8.4660    8.7370   25.0060   C 0  0  0  0  0  0  0  0  0  0  0  0
    6.6090    9.3300   23.2520   S 0  0  0  0  0  0  0  0  0  0  0  0
    6.6720   10.6700   22.7810   O 0  0  0  0  0  0  0  0  0  0  0  0
    5.7930    9.0340   24.3880   O 0  0  0  0  0  0  0  0  0  0  0  0
    6.1810    8.3880   22.0080   N 0  0  0  0  0  0  0  0  0  0  0  0
    6.0500    6.9380   22.1510   C 0  0  0  0  0  0  0  0  0  0  0  0
    4.7340    6.3310   21.6280   C 0  0  0  0  0  0  0  0  0  0  0  0
    5.1160    4.8570   21.4380   C 0  0  0  0  0  0  0  0  0  0  0  0
    7.0590    6.1230   21.3770   C 0  0  0  0  0  0  0  0  0  0  0  0
    8.1980    6.4750   21.1190   O 0  0  0  0  0  0  0  0  0  0  0  0
    6.5060    4.9530   21.0050   N 0  0  0  0  0  0  0  0  0  0  0  0
    7.2920    3.9520   20.2640   C 0  0  0  0  0  0  0  0  0  0  0  0
    7.0800    2.5250   20.7880   C 0  0  0  0  0  0  0  0  0  0  0  0
    7.0330    3.9740   18.7690   C 0  0  0  0  0  0  0  0  0  0  0  0
    5.9960    4.4980   18.3700   O 0  0  0  0  0  0  0  0  0  0  0  0
    7.9590    3.4120   17.9470   N 0  0  0  0  0  0  0  0  0  0  0  0
    9.2200    2.7930   18.4080   C 0  0  0  0  0  0  0  0  0  0  0  0
    9.9530    1.9090   17.3900   C 0  0  0  0  0  0  0  0  0  0  0  0
    9.8980    2.5590   16.1310   O 0  0  0  0  0  0  0  0  0  0  0  0
    8.5550    2.5620   15.6480   C 0  0  0  0  0  0  0  0  0  0  0  0
    7.6690    3.4660   16.5110   C 0  0  0  0  0  0  0  0  0  0  0  0
   11.2650    8.5120   24.8510   S 0  0  0  0  0  0  0  0  0  0  0  0
    8.2190    8.8190   23.6890   C 0  0  0  0  0  0  0  0  0  0  0  0
  1  2  1  0  0  0  0
  2  3  2  0  0  0  0
  3  4  1  0  0  0  0
  4  5  2  0  0  0  0
  5  6  1  0  0  0  0
  7  8  2  0  0  0  0
  7  9  2  0  0  0  0
  7 10  1  0  0  0  0
 10 11  1  0  0  0  0
 11 12  1  0  0  0  0
 12 13  1  0  0  0  0
 11 14  1  0  0  0  0
 14 15  2  0  0  0  0
 13 16  1  0  0  0  0
 14 16  1  0  0  0  0
 16 17  1  0  0  0  0
 17 18  1  0  0  0  0
 17 19  1  0  0  0  0
 19 20  2  0  0  0  0
 19 21  1  0  0  0  0
 21 22  1  0  0  0  0
 22 23  1  0  0  0  0
 23 24  1  0  0  0  0
 24 25  1  0  0  0  0
 21 26  1  0  0  0  0
 25 26  1  0  0  0  0
  2 27  1  0  0  0  0
  5 27  1  0  0  0  0
  6 28  2  0  0  0  0
  7 28  1  0  0  0  0
A    1
CL1
A    2
C1
A    3
C2
A    4
C3
A    5
C4
A    6
C9
A    7
S1
A    8
O2
A    9
O1
A   10
N1
A   11
C12
A   12
C13
A   13
C14
A   14
C15
A   15
O3
A   16
N2
A   17
C16
A   18
C17
A   19
C18
A   20
O4
A   21
N3
A   22
C19
A   23
C20
A   24
O5
A   25
C22
A   26
C23
A   27
S6
A   28
C6
M  END
>  <InstanceId>
2UWL_895_A_1245

>  <ChemCompId>
895

>  <PdbId>
2UWL

>  <ChainId>
A

>  <ResidueNumber>
1245

>  <InsertionCode>


>  <Model>
1

>  <AltIds>


>  <MissingHeavyAtoms>
0

>  <ObservedFormula>
C17 N3 O5 S2 Cl

>  <Name>
2-(5-CHLORO-2-THIENYL)-N-{(3S)-1-[(1S)-1-METHYL-2-MORPHOLIN-4-YL-2-OXOETHYL]-2-OXOPYRROLIDIN-3-YL}ETHENESULFONAMIDE

>  <SystematicName>
(E)-2-(5-chlorothiophen-2-yl)-N-[(3S)-1-[(2S)-1-morpholin-4-yl-1-oxo-propan-2-yl]-2-oxo-pyrrolidin-3-yl]ethenesulfonamide

>  <Synonyms>


>  <Type>
NON-POLYMER

>  <Formula>
C17 H22 Cl N3 O5 S2

>  <MolecularWeight>
447.957

>  <ModifiedDate>
2011-06-04

>  <Parent>


>  <OneLetterCode>


>  <SubcomponentList>


>  <AmbiguousFlag>


>  <InChI>
InChI=1S/C17H22ClN3O5S2/c1-12(16(22)20-7-9-26-10-8-20)21-6-4-14(17(21)23)19-28(24,25)11-5-13-2-3-15(18)27-13/h2-3,5,11-12,14,19H,4,6-10H2,1H3/b11-5+/t12-,14-/m0/s1

>  <InChIKey>
ACEFOQMQINFMRW-DYCFVMESSA-N

>  <SMILES>
C[C@@H](C(=O)N1CCOCC1)N2CC[C@@H](C2=O)NS(=O)(=O)\C=C\c3ccc(s3)Cl

$$$$
