3RLQ_3RQ_A_901
  RCSB PDB12061710353D
Coordinates from PDB:3RLQ:A:901 Model:1 without hydrogens
 22 24  0  0  0  0            999 V2000
   17.5740   -2.2510   49.8550   N 0  0  0  0  0  0  0  0  0  0  0  0
   17.5210    0.0570   49.1460   N 0  0  0  0  0  0  0  0  0  0  0  0
   12.5830   -1.2200   51.1210   C 0  0  0  0  0  0  0  0  0  0  0  0
   11.3640   -1.1260   51.8280   C 0  0  0  0  0  0  0  0  0  0  0  0
   11.3350   -1.3100   53.2260   C 0  0  0  0  0  0  0  0  0  0  0  0
   13.5310   -2.0160   56.1540   C 0  0  0  0  0  0  0  0  0  0  0  0
   15.1050   -1.6430   51.1220   C 0  0  0  0  0  0  0  0  0  0  0  0
   17.4080   -4.5430   50.7030   C 0  0  0  0  0  0  0  0  0  0  0  0
   15.6180    0.7690   50.0590   C 0  0  0  0  0  0  0  0  0  0  0  0
   14.5520    1.6520   50.4270   C 0  0  0  0  0  0  0  0  0  0  0  0
   13.7680   -1.6870   53.2290   C 0  0  0  0  0  0  0  0  0  0  0  0
   16.6970    1.1470   49.2930   C 0  0  0  0  0  0  0  0  0  0  0  0
   15.7840   -0.6130   50.3960   C 0  0  0  0  0  0  0  0  0  0  0  0
   13.8200   -1.5110   51.8130   C 0  0  0  0  0  0  0  0  0  0  0  0
   12.5330   -1.5880   53.9620   C 0  0  0  0  0  0  0  0  0  0  0  0
   16.9940   -1.0140   49.8040   C 0  0  0  0  0  0  0  0  0  0  0  0
   16.8520   -3.1520   50.5750   C 0  0  0  0  0  0  0  0  0  0  0  0
   13.6860    2.3450   50.7550   N 0  0  0  0  0  0  0  0  0  0  0  0
   15.6670   -2.9090   51.1960   N 0  0  0  0  0  0  0  0  0  0  0  0
   12.3870   -1.7390   55.3340   O 0  0  0  0  0  0  0  0  0  0  0  0
   12.5000   -0.9690   49.4020  Cl 0  0  0  0  0  0  0  0  0  0  0  0
    9.7980   -1.1840   53.9980  Cl 0  0  0  0  0  0  0  0  0  0  0  0
 16  1  2  0  0  0  0
  1 17  1  0  0  0  0
  2 12  1  0  0  0  0
  2 16  1  0  0  0  0
 21  3  1  0  0  0  0
  3 14  2  0  0  0  0
  3  4  1  0  0  0  0
  4  5  2  0  0  0  0
  5 15  1  0  0  0  0
  5 22  1  0  0  0  0
 20  6  1  0  0  0  0
 13  7  2  0  0  0  0
  7 19  1  0  0  0  0
  7 14  1  0  0  0  0
 17  8  1  0  0  0  0
 12  9  2  0  0  0  0
  9 13  1  0  0  0  0
  9 10  1  0  0  0  0
 10 18  3  0  0  0  0
 14 11  1  0  0  0  0
 11 15  2  0  0  0  0
 16 13  1  0  0  0  0
 15 20  1  0  0  0  0
 17 19  2  0  0  0  0
A    1
N1
A    2
N3
A    3
C4
A    4
C5
A    5
C6
A    6
C7
A    7
C8
A    8
C10
A    9
C13
A   10
C15
A   11
C2
A   12
C14
A   13
C12
A   14
C3
A   15
C1
A   16
C11
A   17
C9
A   18
N4
A   19
N2
A   20
O1
A   21
CL2
A   22
CL1
M  END
>  <InstanceId>
3RLQ_3RQ_A_901

>  <ChemCompId>
3RQ

>  <PdbId>
3RLQ

>  <ChainId>
A

>  <ResidueNumber>
901

>  <InsertionCode>


>  <Model>
1

>  <AltIds>


>  <MissingHeavyAtoms>
0

>  <ObservedFormula>
C15 N4 O Cl2

>  <Name>
4-(2,4-dichloro-5-methoxyphenyl)-2-methyl-7H-pyrrolo[2,3-d]pyrimidine-5-carbonitrile

>  <SystematicName>
4-[2,4-bis(chloranyl)-5-methoxy-phenyl]-2-methyl-7H-pyrrolo[2,3-d]pyrimidine-5-carbonitrile

>  <Synonyms>


>  <Type>
NON-POLYMER

>  <Formula>
C15 H10 Cl2 N4 O

>  <MolecularWeight>
333.172

>  <ModifiedDate>
2011-06-04

>  <Parent>


>  <OneLetterCode>


>  <SubcomponentList>


>  <AmbiguousFlag>
N

>  <InChI>
InChI=1S/C15H10Cl2N4O/c1-7-20-14(13-8(5-18)6-19-15(13)21-7)9-3-12(22-2)11(17)4-10(9)16/h3-4,6H,1-2H3,(H,19,20,21)

>  <InChIKey>
XQAFNWQVIXKAPE-UHFFFAOYSA-N

>  <SMILES>
Cc1nc(c2c(c[nH]c2n1)C#N)c3cc(c(cc3Cl)Cl)OC

$$$$
