1NJS_KEU_A_510


 49 50  0  0  0  0  0  0  0  0999 V2000
   72.5342   22.3728   29.0044 C   0  0  0  0  0  0  0  0  0  0  0  0
   73.8706   22.8545   33.2936 C   0  0  0  0  0  0  0  0  0  0  0  0
   72.8911   23.8636   32.7864 C   0  0  0  0  0  0  0  0  0  0  0  0
   72.4004   23.7715   31.4356 C   0  0  0  0  0  0  0  0  0  0  0  0
   72.9110   22.6032   30.5692 C   0  0  0  0  0  0  0  0  0  0  0  0
   73.8525   21.6147   31.1221 C   0  0  0  0  0  0  0  0  0  0  0  0
   74.3400   21.7204   32.4474 C   0  0  0  0  0  0  0  0  0  0  0  0
   75.3031   22.1893   35.1304 N   0  0  0  0  0  0  0  0  0  0  0  0
   74.3545   23.0691   34.6344 C   0  0  0  0  0  0  0  0  0  0  0  0
   73.9603   24.0136   35.2811 O   0  0  0  0  0  0  0  0  0  0  0  0
   75.5828   21.4226   34.5798 H   0  0  0  0  0  0  0  0  0  0  0  0
   75.9176   22.3801   36.4969 C   0  0  0  0  0  0  0  0  0  0  0  0
   77.4941   22.1560   36.4485 C   0  0  0  0  0  0  0  0  0  0  0  0
   78.1521   22.4420   37.4359 O   0  0  0  0  0  0  0  0  0  0  0  0
   78.1072   21.6493   35.3220 O   0  0  0  0  0  0  0  0  0  0  0  0
   77.5956   21.4320   34.5677 H   0  0  0  0  0  0  0  0  0  0  0  0
   75.1385   21.4429   37.3535 C   0  0  0  0  0  0  0  0  0  0  0  0
   74.8558   20.0988   36.6863 C   0  0  0  0  0  0  0  0  0  0  0  0
   76.7937   18.8918   36.4853 O   0  0  0  0  0  0  0  0  0  0  0  0
   75.6920   18.9984   37.2020 C   0  0  0  0  0  0  0  0  0  0  0  0
   75.3715   18.2945   38.1630 O   0  0  0  0  0  0  0  0  0  0  0  0
   76.9462   19.4782   35.7705 H   0  0  0  0  0  0  0  0  0  0  0  0
   71.3525   21.4442   28.5290 C   0  0  0  0  0  0  0  0  0  0  0  0
   71.5955   20.6241   27.7388 O   0  0  0  0  0  0  0  0  0  0  0  0
   70.6033   22.5122   27.6056 O   0  0  0  0  0  0  0  0  0  0  0  0
   72.0494   19.8456   27.9958 H   0  0  0  0  0  0  0  0  0  0  0  0
   70.2799   23.3087   27.9784 H   0  0  0  0  0  0  0  0  0  0  0  0
   70.1692   21.2153   29.4966 C   0  0  0  0  0  0  0  0  0  0  0  0
   68.9941   20.6398   29.0362 F   0  0  0  0  0  0  0  0  0  0  0  0
   69.8380   22.4752   29.7570 F   0  0  0  0  0  0  0  0  0  0  0  0
   70.6019   20.5542   30.5835 F   0  0  0  0  0  0  0  0  0  0  0  0
   73.7900   21.9715   28.2105 C   0  0  0  0  0  0  0  0  0  0  0  0
   74.4373   23.5041   27.8535 C   0  0  0  0  0  0  0  0  0  0  0  0
   75.2898   23.6143   26.5358 C   0  0  0  0  0  0  0  0  0  0  0  0
   76.4869   24.3201   27.0930 C   0  0  0  0  0  0  0  0  0  0  0  0
   76.3412   25.6308   26.8463 C   0  0  0  0  0  0  0  0  0  0  0  0
   75.3481   26.3910   26.2124 O   0  0  0  0  0  0  0  0  0  0  0  0
   77.3815   26.7896   27.2637 N   0  0  0  0  0  0  0  0  0  0  0  0
   78.4926   26.3753   27.9172 C   0  0  0  0  0  0  0  0  0  0  0  0
   79.4264   27.2507   28.3160 N   0  0  0  0  0  0  0  0  0  0  0  0
   78.6720   25.1468   28.1343 N   0  0  0  0  0  0  0  0  0  0  0  0
   77.7493   24.0442   27.7996 C   0  0  0  0  0  0  0  0  0  0  0  0
   78.1053   22.7592   28.1404 N   0  0  0  0  0  0  0  0  0  0  0  0
   77.2192   27.7382   27.0565 H   0  0  0  0  0  0  0  0  0  0  0  0
   80.3400   26.9527   27.9739 H   0  0  0  0  0  0  0  0  0  0  0  0
   79.4416   27.2910   29.3351 H   0  0  0  0  0  0  0  0  0  0  0  0
   78.8133   25.0752   29.1419 H   0  0  0  0  0  0  0  0  0  0  0  0
   79.1048   22.6303   27.9830 H   0  0  0  0  0  0  0  0  0  0  0  0
   77.5826   22.0980   27.5660 H   0  0  0  0  0  0  0  0  0  0  0  0
 19 20  1  0  0  0
 20 21  2  0  0  0
 20 18  1  0  0  0
 18 17  1  0  0  0
 17 12  1  0  0  0
 12  8  1  0  0  0
 12 13  1  0  0  0
  8  9  1  0  0  0
  9 10  2  0  0  0
  9  2  1  0  0  0
  2  3  2  0  0  0
  2  7  1  0  0  0
  3  4  1  0  0  0
  4  5  2  0  0  0
  5  6  1  0  0  0
  5  1  1  0  0  0
  6  7  2  0  0  0
  1 32  1  0  0  0
  1 23  1  0  0  0
 32 33  1  0  0  0
 33 34  1  0  0  0
 34 35  1  0  0  0
 35 36  1  0  0  0
 35 42  1  0  0  0
 36 37  2  0  0  0
 36 38  1  0  0  0
 38 39  1  0  0  0
 39 40  1  0  0  0
 39 41  1  0  0  0
 41 42  1  0  0  0
 42 43  1  0  0  0
 23 24  1  0  0  0
 23 25  1  0  0  0
 23 28  1  0  0  0
 28 29  1  0  0  0
 28 30  1  0  0  0
 28 31  1  0  0  0
 13 14  2  0  0  0
 13 15  1  0  0  0
 19 22  1  0  0  0
  8 11  1  0  0  0
 38 44  1  0  0  0
 40 45  1  0  0  0
 40 46  1  0  0  0
 41 47  1  0  0  0
 43 48  1  0  0  0
 43 49  1  0  0  0
 24 26  1  0  0  0
 25 27  1  0  0  0
 15 16  1  0  0  0
M  END
> <minimizedAffinity>
-11.88437

$$$$
1NJS_KEU_A_510


 49 50  0  0  0  0  0  0  0  0999 V2000
   72.5270   22.3827   28.9862 C   0  0  0  0  0  0  0  0  0  0  0  0
   73.1708   23.1162   33.3979 C   0  0  0  0  0  0  0  0  0  0  0  0
   73.7731   21.8677   32.8379 C   0  0  0  0  0  0  0  0  0  0  0  0
   73.6298   21.5678   31.4366 C   0  0  0  0  0  0  0  0  0  0  0  0
   72.8583   22.5791   30.5658 C   0  0  0  0  0  0  0  0  0  0  0  0
   72.3089   23.8117   31.1560 C   0  0  0  0  0  0  0  0  0  0  0  0
   72.4432   24.0923   32.5374 C   0  0  0  0  0  0  0  0  0  0  0  0
   74.5454   23.6870   35.3092 N   0  0  0  0  0  0  0  0  0  0  0  0
   73.3090   23.2953   34.8215 C   0  0  0  0  0  0  0  0  0  0  0  0
   72.3559   23.1382   35.5513 O   0  0  0  0  0  0  0  0  0  0  0  0
   75.3000   23.7849   34.6845 H   0  0  0  0  0  0  0  0  0  0  0  0
   74.7613   23.9673   36.7776 C   0  0  0  0  0  0  0  0  0  0  0  0
   75.1335   25.4978   37.0163 C   0  0  0  0  0  0  0  0  0  0  0  0
   76.2593   25.7684   37.4024 O   0  0  0  0  0  0  0  0  0  0  0  0
   74.2114   26.4984   36.7920 O   0  0  0  0  0  0  0  0  0  0  0  0
   73.3490   26.2830   36.4956 H   0  0  0  0  0  0  0  0  0  0  0  0
   75.7911   22.9638   37.1669 C   0  0  0  0  0  0  0  0  0  0  0  0
   76.4053   22.2276   35.9784 C   0  0  0  0  0  0  0  0  0  0  0  0
   78.0783   23.7930   36.0330 O   0  0  0  0  0  0  0  0  0  0  0  0
   77.8372   22.5215   35.7801 C   0  0  0  0  0  0  0  0  0  0  0  0
   78.6608   21.6762   35.4213 O   0  0  0  0  0  0  0  0  0  0  0  0
   77.3806   24.3578   36.3014 H   0  0  0  0  0  0  0  0  0  0  0  0
   71.4002   21.4171   28.4544 C   0  0  0  0  0  0  0  0  0  0  0  0
   71.7088   20.6024   27.6815 O   0  0  0  0  0  0  0  0  0  0  0  0
   70.6681   22.4590   27.4885 O   0  0  0  0  0  0  0  0  0  0  0  0
   72.1720   19.8390   27.9653 H   0  0  0  0  0  0  0  0  0  0  0  0
   70.3017   23.2463   27.8404 H   0  0  0  0  0  0  0  0  0  0  0  0
   70.1757   21.1551   29.3603 C   0  0  0  0  0  0  0  0  0  0  0  0
   69.6155   22.1921   30.0916 F   0  0  0  0  0  0  0  0  0  0  0  0
   70.7313   20.3697   30.2765 F   0  0  0  0  0  0  0  0  0  0  0  0
   69.2194   20.5331   28.6504 F   0  0  0  0  0  0  0  0  0  0  0  0
   73.8171   22.0652   28.2096 C   0  0  0  0  0  0  0  0  0  0  0  0
   74.3091   23.6326   27.7663 C   0  0  0  0  0  0  0  0  0  0  0  0
   75.2016   23.7475   26.4758 C   0  0  0  0  0  0  0  0  0  0  0  0
   76.3973   24.4157   27.0801 C   0  0  0  0  0  0  0  0  0  0  0  0
   76.3227   25.7246   26.7953 C   0  0  0  0  0  0  0  0  0  0  0  0
   75.3988   26.5100   26.0912 O   0  0  0  0  0  0  0  0  0  0  0  0
   77.3894   26.8483   27.2410 N   0  0  0  0  0  0  0  0  0  0  0  0
   78.4451   26.4040   27.9631 C   0  0  0  0  0  0  0  0  0  0  0  0
   79.3941   27.2487   28.3910 N   0  0  0  0  0  0  0  0  0  0  0  0
   78.5585   25.1749   28.2181 N   0  0  0  0  0  0  0  0  0  0  0  0
   77.6072   24.1045   27.8600 C   0  0  0  0  0  0  0  0  0  0  0  0
   77.8879   22.8147   28.2495 N   0  0  0  0  0  0  0  0  0  0  0  0
   77.2801   27.7974   27.0033 H   0  0  0  0  0  0  0  0  0  0  0  0
   80.3105   26.9033   28.1057 H   0  0  0  0  0  0  0  0  0  0  0  0
   79.3571   27.3145   29.4082 H   0  0  0  0  0  0  0  0  0  0  0  0
   78.6431   25.1233   29.2333 H   0  0  0  0  0  0  0  0  0  0  0  0
   78.8877   22.6392   28.1493 H   0  0  0  0  0  0  0  0  0  0  0  0
   77.3677   22.1617   27.6634 H   0  0  0  0  0  0  0  0  0  0  0  0
 19 20  1  0  0  0
 20 21  2  0  0  0
 20 18  1  0  0  0
 18 17  1  0  0  0
 17 12  1  0  0  0
 12  8  1  0  0  0
 12 13  1  0  0  0
  8  9  1  0  0  0
  9 10  2  0  0  0
  9  2  1  0  0  0
  2  3  2  0  0  0
  2  7  1  0  0  0
  3  4  1  0  0  0
  4  5  2  0  0  0
  5  6  1  0  0  0
  5  1  1  0  0  0
  6  7  2  0  0  0
  1 32  1  0  0  0
  1 23  1  0  0  0
 32 33  1  0  0  0
 33 34  1  0  0  0
 34 35  1  0  0  0
 35 36  1  0  0  0
 35 42  1  0  0  0
 36 37  2  0  0  0
 36 38  1  0  0  0
 38 39  1  0  0  0
 39 40  1  0  0  0
 39 41  1  0  0  0
 41 42  1  0  0  0
 42 43  1  0  0  0
 23 24  1  0  0  0
 23 25  1  0  0  0
 23 28  1  0  0  0
 28 29  1  0  0  0
 28 30  1  0  0  0
 28 31  1  0  0  0
 13 14  2  0  0  0
 13 15  1  0  0  0
 19 22  1  0  0  0
  8 11  1  0  0  0
 38 44  1  0  0  0
 40 45  1  0  0  0
 40 46  1  0  0  0
 41 47  1  0  0  0
 43 48  1  0  0  0
 43 49  1  0  0  0
 24 26  1  0  0  0
 25 27  1  0  0  0
 15 16  1  0  0  0
M  END
> <minimizedAffinity>
-11.56031

$$$$
1NJS_KEU_A_510


 49 50  0  0  0  0  0  0  0  0999 V2000
   72.4550   22.2844   28.9703 C   0  0  0  0  0  0  0  0  0  0  0  0
   73.2344   22.7995   33.3911 C   0  0  0  0  0  0  0  0  0  0  0  0
   72.4070   23.8580   32.7353 C   0  0  0  0  0  0  0  0  0  0  0  0
   72.0968   23.7599   31.3324 C   0  0  0  0  0  0  0  0  0  0  0  0
   72.6338   22.5344   30.5670 C   0  0  0  0  0  0  0  0  0  0  0  0
   73.4190   21.5004   31.2624 C   0  0  0  0  0  0  0  0  0  0  0  0
   73.7304   21.6114   32.6393 C   0  0  0  0  0  0  0  0  0  0  0  0
   72.4967   23.2376   35.6565 N   0  0  0  0  0  0  0  0  0  0  0  0
   73.5481   23.0198   34.7807 C   0  0  0  0  0  0  0  0  0  0  0  0
   74.6968   22.9780   35.1606 O   0  0  0  0  0  0  0  0  0  0  0  0
   71.5786   23.2836   35.3042 H   0  0  0  0  0  0  0  0  0  0  0  0
   72.7277   23.4060   37.1397 C   0  0  0  0  0  0  0  0  0  0  0  0
   72.9554   21.9954   37.8441 C   0  0  0  0  0  0  0  0  0  0  0  0
   71.9942   21.4345   38.3454 O   0  0  0  0  0  0  0  0  0  0  0  0
   74.2055   21.4149   37.8883 O   0  0  0  0  0  0  0  0  0  0  0  0
   74.9387   21.8514   37.5013 H   0  0  0  0  0  0  0  0  0  0  0  0
   71.5383   24.1861   37.5821 C   0  0  0  0  0  0  0  0  0  0  0  0
   71.4085   25.5431   36.8939 C   0  0  0  0  0  0  0  0  0  0  0  0
   69.6109   24.5812   35.8471 O   0  0  0  0  0  0  0  0  0  0  0  0
   70.1086   25.7421   36.2255 C   0  0  0  0  0  0  0  0  0  0  0  0
   69.5949   26.8506   36.0554 O   0  0  0  0  0  0  0  0  0  0  0  0
   70.0807   23.7900   36.0239 H   0  0  0  0  0  0  0  0  0  0  0  0
   71.3261   21.3681   28.3615 C   0  0  0  0  0  0  0  0  0  0  0  0
   71.6330   20.6178   27.5254 O   0  0  0  0  0  0  0  0  0  0  0  0
   70.5976   22.4867   27.4827 O   0  0  0  0  0  0  0  0  0  0  0  0
   72.0940   19.8326   27.7467 H   0  0  0  0  0  0  0  0  0  0  0  0
   70.2330   23.2440   27.8969 H   0  0  0  0  0  0  0  0  0  0  0  0
   70.1002   21.0370   29.2426 C   0  0  0  0  0  0  0  0  0  0  0  0
   70.2240   20.1540   30.3052 F   0  0  0  0  0  0  0  0  0  0  0  0
   69.3516   20.3854   28.3595 F   0  0  0  0  0  0  0  0  0  0  0  0
   69.5326   22.1789   29.6662 F   0  0  0  0  0  0  0  0  0  0  0  0
   73.7938   21.8487   28.3490 C   0  0  0  0  0  0  0  0  0  0  0  0
   74.4759   23.3638   27.9819 C   0  0  0  0  0  0  0  0  0  0  0  0
   75.2869   23.4591   26.6371 C   0  0  0  0  0  0  0  0  0  0  0  0
   76.4866   24.1987   27.1422 C   0  0  0  0  0  0  0  0  0  0  0  0
   76.2993   25.5032   26.8910 C   0  0  0  0  0  0  0  0  0  0  0  0
   75.2642   26.2334   26.2899 O   0  0  0  0  0  0  0  0  0  0  0  0
   77.3259   26.6906   27.2589 N   0  0  0  0  0  0  0  0  0  0  0  0
   78.4711   26.3094   27.8725 C   0  0  0  0  0  0  0  0  0  0  0  0
   79.3976   27.2107   28.2280 N   0  0  0  0  0  0  0  0  0  0  0  0
   78.6889   25.0875   28.0921 N   0  0  0  0  0  0  0  0  0  0  0  0
   77.7815   23.9599   27.8019 C   0  0  0  0  0  0  0  0  0  0  0  0
   78.1819   22.6870   28.1388 N   0  0  0  0  0  0  0  0  0  0  0  0
   77.1324   27.6332   27.0507 H   0  0  0  0  0  0  0  0  0  0  0  0
   80.3045   26.9320   27.8534 H   0  0  0  0  0  0  0  0  0  0  0  0
   79.4508   27.2604   29.2454 H   0  0  0  0  0  0  0  0  0  0  0  0
   78.8704   25.0283   29.0941 H   0  0  0  0  0  0  0  0  0  0  0  0
   79.1775   22.5811   27.9441 H   0  0  0  0  0  0  0  0  0  0  0  0
   77.6540   22.0082   27.5902 H   0  0  0  0  0  0  0  0  0  0  0  0
 19 20  1  0  0  0
 20 21  2  0  0  0
 20 18  1  0  0  0
 18 17  1  0  0  0
 17 12  1  0  0  0
 12  8  1  0  0  0
 12 13  1  0  0  0
  8  9  1  0  0  0
  9 10  2  0  0  0
  9  2  1  0  0  0
  2  3  2  0  0  0
  2  7  1  0  0  0
  3  4  1  0  0  0
  4  5  2  0  0  0
  5  6  1  0  0  0
  5  1  1  0  0  0
  6  7  2  0  0  0
  1 32  1  0  0  0
  1 23  1  0  0  0
 32 33  1  0  0  0
 33 34  1  0  0  0
 34 35  1  0  0  0
 35 36  1  0  0  0
 35 42  1  0  0  0
 36 37  2  0  0  0
 36 38  1  0  0  0
 38 39  1  0  0  0
 39 40  1  0  0  0
 39 41  1  0  0  0
 41 42  1  0  0  0
 42 43  1  0  0  0
 23 24  1  0  0  0
 23 25  1  0  0  0
 23 28  1  0  0  0
 28 29  1  0  0  0
 28 30  1  0  0  0
 28 31  1  0  0  0
 13 14  2  0  0  0
 13 15  1  0  0  0
 19 22  1  0  0  0
  8 11  1  0  0  0
 38 44  1  0  0  0
 40 45  1  0  0  0
 40 46  1  0  0  0
 41 47  1  0  0  0
 43 48  1  0  0  0
 43 49  1  0  0  0
 24 26  1  0  0  0
 25 27  1  0  0  0
 15 16  1  0  0  0
M  END
> <minimizedAffinity>
-11.09735

$$$$
1NJS_KEU_A_510


 49 50  0  0  0  0  0  0  0  0999 V2000
   72.5200   22.8220   29.1850 C   0  0  0  0  0  0  0  0  0  0  0  0
   73.7384   22.8162   33.5360 C   0  0  0  0  0  0  0  0  0  0  0  0
   74.1663   21.6352   32.7254 C   0  0  0  0  0  0  0  0  0  0  0  0
   73.8344   21.5671   31.3257 C   0  0  0  0  0  0  0  0  0  0  0  0
   73.0507   22.7483   30.7202 C   0  0  0  0  0  0  0  0  0  0  0  0
   72.6773   23.9057   31.5511 C   0  0  0  0  0  0  0  0  0  0  0  0
   72.9965   23.9584   32.9296 C   0  0  0  0  0  0  0  0  0  0  0  0
   74.5002   21.5556   35.4592 N   0  0  0  0  0  0  0  0  0  0  0  0
   74.0581   22.7620   34.9406 C   0  0  0  0  0  0  0  0  0  0  0  0
   73.9711   23.7571   35.6246 O   0  0  0  0  0  0  0  0  0  0  0  0
   74.5381   20.7651   34.8737 H   0  0  0  0  0  0  0  0  0  0  0  0
   74.9253   21.4261   36.9028 C   0  0  0  0  0  0  0  0  0  0  0  0
   76.4059   20.8482   37.0107 C   0  0  0  0  0  0  0  0  0  0  0  0
   77.3151   21.4808   36.4979 O   0  0  0  0  0  0  0  0  0  0  0  0
   76.6619   19.6633   37.6680 O   0  0  0  0  0  0  0  0  0  0  0  0
   75.9588   19.1831   38.0591 H   0  0  0  0  0  0  0  0  0  0  0  0
   73.8424   20.5974   37.5026 C   0  0  0  0  0  0  0  0  0  0  0  0
   72.9576   21.3658   38.4816 C   0  0  0  0  0  0  0  0  0  0  0  0
   71.5881   22.8215   37.3599 O   0  0  0  0  0  0  0  0  0  0  0  0
   71.6072   21.6467   37.9584 C   0  0  0  0  0  0  0  0  0  0  0  0
   70.6544   20.8740   38.0874 O   0  0  0  0  0  0  0  0  0  0  0  0
   72.3694   23.3367   37.3140 H   0  0  0  0  0  0  0  0  0  0  0  0
   71.1642   22.1742   28.7086 C   0  0  0  0  0  0  0  0  0  0  0  0
   70.7395   22.5093   27.6773 O   0  0  0  0  0  0  0  0  0  0  0  0
   70.1906   22.9778   29.6889 O   0  0  0  0  0  0  0  0  0  0  0  0
   71.1239   22.1878   26.8856 H   0  0  0  0  0  0  0  0  0  0  0  0
   70.2944   22.9031   30.6171 H   0  0  0  0  0  0  0  0  0  0  0  0
   70.7993   20.7698   29.2409 C   0  0  0  0  0  0  0  0  0  0  0  0
   69.6800   20.1099   28.7552 F   0  0  0  0  0  0  0  0  0  0  0  0
   70.4830   21.0741   30.4947 F   0  0  0  0  0  0  0  0  0  0  0  0
   71.8724   19.9659   29.1538 F   0  0  0  0  0  0  0  0  0  0  0  0
   73.6238   22.3547   28.2198 C   0  0  0  0  0  0  0  0  0  0  0  0
   74.3903   23.8355   27.8808 C   0  0  0  0  0  0  0  0  0  0  0  0
   75.2867   23.8802   26.5886 C   0  0  0  0  0  0  0  0  0  0  0  0
   76.4988   24.5387   27.1704 C   0  0  0  0  0  0  0  0  0  0  0  0
   76.4130   25.8531   26.9155 C   0  0  0  0  0  0  0  0  0  0  0  0
   75.4666   26.6505   26.2562 O   0  0  0  0  0  0  0  0  0  0  0  0
   77.4904   26.9701   27.3522 N   0  0  0  0  0  0  0  0  0  0  0  0
   78.5684   26.5136   28.0326 C   0  0  0  0  0  0  0  0  0  0  0  0
   79.5281   27.3517   28.4492 N   0  0  0  0  0  0  0  0  0  0  0  0
   78.6919   25.2797   28.2583 N   0  0  0  0  0  0  0  0  0  0  0  0
   77.7324   24.2145   27.9067 C   0  0  0  0  0  0  0  0  0  0  0  0
   78.0273   22.9176   28.2604 N   0  0  0  0  0  0  0  0  0  0  0  0
   77.3721   27.9236   27.1378 H   0  0  0  0  0  0  0  0  0  0  0  0
   80.4362   27.0148   28.1292 H   0  0  0  0  0  0  0  0  0  0  0  0
   79.5218   27.3961   29.4683 H   0  0  0  0  0  0  0  0  0  0  0  0
   78.8073   25.2072   29.2691 H   0  0  0  0  0  0  0  0  0  0  0  0
   79.0239   22.7469   28.1265 H   0  0  0  0  0  0  0  0  0  0  0  0
   77.4909   22.2757   27.6767 H   0  0  0  0  0  0  0  0  0  0  0  0
 19 20  1  0  0  0
 20 21  2  0  0  0
 20 18  1  0  0  0
 18 17  1  0  0  0
 17 12  1  0  0  0
 12  8  1  0  0  0
 12 13  1  0  0  0
  8  9  1  0  0  0
  9 10  2  0  0  0
  9  2  1  0  0  0
  2  3  2  0  0  0
  2  7  1  0  0  0
  3  4  1  0  0  0
  4  5  2  0  0  0
  5  6  1  0  0  0
  5  1  1  0  0  0
  6  7  2  0  0  0
  1 32  1  0  0  0
  1 23  1  0  0  0
 32 33  1  0  0  0
 33 34  1  0  0  0
 34 35  1  0  0  0
 35 36  1  0  0  0
 35 42  1  0  0  0
 36 37  2  0  0  0
 36 38  1  0  0  0
 38 39  1  0  0  0
 39 40  1  0  0  0
 39 41  1  0  0  0
 41 42  1  0  0  0
 42 43  1  0  0  0
 23 24  1  0  0  0
 23 25  1  0  0  0
 23 28  1  0  0  0
 28 29  1  0  0  0
 28 30  1  0  0  0
 28 31  1  0  0  0
 13 14  2  0  0  0
 13 15  1  0  0  0
 19 22  1  0  0  0
  8 11  1  0  0  0
 38 44  1  0  0  0
 40 45  1  0  0  0
 40 46  1  0  0  0
 41 47  1  0  0  0
 43 48  1  0  0  0
 43 49  1  0  0  0
 24 26  1  0  0  0
 25 27  1  0  0  0
 15 16  1  0  0  0
M  END
> <minimizedAffinity>
-10.91299

$$$$
1NJS_KEU_A_510


 49 50  0  0  0  0  0  0  0  0999 V2000
   72.5515   22.4862   29.0994 C   0  0  0  0  0  0  0  0  0  0  0  0
   73.3817   23.0556   33.5042 C   0  0  0  0  0  0  0  0  0  0  0  0
   72.4869   24.0661   32.8615 C   0  0  0  0  0  0  0  0  0  0  0  0
   72.1571   23.9474   31.4646 C   0  0  0  0  0  0  0  0  0  0  0  0
   72.7454   22.7503   30.6920 C   0  0  0  0  0  0  0  0  0  0  0  0
   73.5976   21.7621   31.3751 C   0  0  0  0  0  0  0  0  0  0  0  0
   73.9273   21.8938   32.7458 C   0  0  0  0  0  0  0  0  0  0  0  0
   72.7191   23.0836   35.8340 N   0  0  0  0  0  0  0  0  0  0  0  0
   73.7081   23.2966   34.8874 C   0  0  0  0  0  0  0  0  0  0  0  0
   74.8263   23.6405   35.1991 O   0  0  0  0  0  0  0  0  0  0  0  0
   71.8172   22.8231   35.5374 H   0  0  0  0  0  0  0  0  0  0  0  0
   72.9935   23.2419   37.3109 C   0  0  0  0  0  0  0  0  0  0  0  0
   72.2406   22.1189   38.1534 C   0  0  0  0  0  0  0  0  0  0  0  0
   71.5141   21.3374   37.5608 O   0  0  0  0  0  0  0  0  0  0  0  0
   72.4029   22.0247   39.5196 O   0  0  0  0  0  0  0  0  0  0  0  0
   72.9624   22.6282   39.9677 H   0  0  0  0  0  0  0  0  0  0  0  0
   72.5983   24.6526   37.5803 C   0  0  0  0  0  0  0  0  0  0  0  0
   71.0943   24.8395   37.7676 C   0  0  0  0  0  0  0  0  0  0  0  0
   70.4036   26.6544   36.5503 O   0  0  0  0  0  0  0  0  0  0  0  0
   70.4082   25.3359   36.5597 C   0  0  0  0  0  0  0  0  0  0  0  0
   69.9146   24.5948   35.7059 O   0  0  0  0  0  0  0  0  0  0  0  0
   70.8078   27.1293   37.2496 H   0  0  0  0  0  0  0  0  0  0  0  0
   71.4951   21.4727   28.5150 C   0  0  0  0  0  0  0  0  0  0  0  0
   71.8600   20.7216   27.7034 O   0  0  0  0  0  0  0  0  0  0  0  0
   70.6926   22.5087   27.5999 O   0  0  0  0  0  0  0  0  0  0  0  0
   72.3752   19.9788   27.9502 H   0  0  0  0  0  0  0  0  0  0  0  0
   70.2721   23.2498   27.9895 H   0  0  0  0  0  0  0  0  0  0  0  0
   70.2913   21.0807   29.4016 C   0  0  0  0  0  0  0  0  0  0  0  0
   69.2062   20.4164   28.8491 F   0  0  0  0  0  0  0  0  0  0  0  0
   69.8215   22.2874   29.6982 F   0  0  0  0  0  0  0  0  0  0  0  0
   70.7302   20.4118   30.4812 F   0  0  0  0  0  0  0  0  0  0  0  0
   73.9087   22.1729   28.4451 C   0  0  0  0  0  0  0  0  0  0  0  0
   74.1891   23.6215   27.5976 C   0  0  0  0  0  0  0  0  0  0  0  0
   75.2187   23.5498   26.4100 C   0  0  0  0  0  0  0  0  0  0  0  0
   76.1038   24.6919   26.8018 C   0  0  0  0  0  0  0  0  0  0  0  0
   77.0668   24.2084   27.6010 C   0  0  0  0  0  0  0  0  0  0  0  0
   77.3646   22.9290   28.0914 O   0  0  0  0  0  0  0  0  0  0  0  0
   78.2558   25.0674   28.2699 N   0  0  0  0  0  0  0  0  0  0  0  0
   78.2573   26.3912   27.9856 C   0  0  0  0  0  0  0  0  0  0  0  0
   79.1999   27.2039   28.4839 N   0  0  0  0  0  0  0  0  0  0  0  0
   77.3465   26.8793   27.2640 N   0  0  0  0  0  0  0  0  0  0  0  0
   76.2487   26.1443   26.6053 C   0  0  0  0  0  0  0  0  0  0  0  0
   75.3569   26.8475   25.8280 N   0  0  0  0  0  0  0  0  0  0  0  0
   78.9377   24.6555   28.8485 H   0  0  0  0  0  0  0  0  0  0  0  0
   78.7552   27.9953   28.9489 H   0  0  0  0  0  0  0  0  0  0  0  0
   79.7914   27.5436   27.7255 H   0  0  0  0  0  0  0  0  0  0  0  0
   77.8370   27.3545   26.5064 H   0  0  0  0  0  0  0  0  0  0  0  0
   75.1541   27.7442   26.2698 H   0  0  0  0  0  0  0  0  0  0  0  0
   74.4937   26.3125   25.7325 H   0  0  0  0  0  0  0  0  0  0  0  0
 19 20  1  0  0  0
 20 21  2  0  0  0
 20 18  1  0  0  0
 18 17  1  0  0  0
 17 12  1  0  0  0
 12  8  1  0  0  0
 12 13  1  0  0  0
  8  9  1  0  0  0
  9 10  2  0  0  0
  9  2  1  0  0  0
  2  3  2  0  0  0
  2  7  1  0  0  0
  3  4  1  0  0  0
  4  5  2  0  0  0
  5  6  1  0  0  0
  5  1  1  0  0  0
  6  7  2  0  0  0
  1 32  1  0  0  0
  1 23  1  0  0  0
 32 33  1  0  0  0
 33 34  1  0  0  0
 34 35  1  0  0  0
 35 36  1  0  0  0
 35 42  1  0  0  0
 36 37  2  0  0  0
 36 38  1  0  0  0
 38 39  1  0  0  0
 39 40  1  0  0  0
 39 41  1  0  0  0
 41 42  1  0  0  0
 42 43  1  0  0  0
 23 24  1  0  0  0
 23 25  1  0  0  0
 23 28  1  0  0  0
 28 29  1  0  0  0
 28 30  1  0  0  0
 28 31  1  0  0  0
 13 14  2  0  0  0
 13 15  1  0  0  0
 19 22  1  0  0  0
  8 11  1  0  0  0
 38 44  1  0  0  0
 40 45  1  0  0  0
 40 46  1  0  0  0
 41 47  1  0  0  0
 43 48  1  0  0  0
 43 49  1  0  0  0
 24 26  1  0  0  0
 25 27  1  0  0  0
 15 16  1  0  0  0
M  END
> <minimizedAffinity>
-10.46320

$$$$
1NJS_KEU_A_510


 49 50  0  0  0  0  0  0  0  0999 V2000
   72.4706   22.7651   29.2870 C   0  0  0  0  0  0  0  0  0  0  0  0
   73.2779   22.6937   33.7321 C   0  0  0  0  0  0  0  0  0  0  0  0
   73.8409   21.5597   32.9371 C   0  0  0  0  0  0  0  0  0  0  0  0
   73.6446   21.5160   31.5111 C   0  0  0  0  0  0  0  0  0  0  0  0
   72.8594   22.6734   30.8632 C   0  0  0  0  0  0  0  0  0  0  0  0
   72.3500   23.7860   31.6830 C   0  0  0  0  0  0  0  0  0  0  0  0
   72.5364   23.8144   33.0864 C   0  0  0  0  0  0  0  0  0  0  0  0
   73.2198   23.7518   35.9105 N   0  0  0  0  0  0  0  0  0  0  0  0
   73.4680   22.6146   35.1589 C   0  0  0  0  0  0  0  0  0  0  0  0
   73.8008   21.5702   35.6727 O   0  0  0  0  0  0  0  0  0  0  0  0
   72.9699   24.5865   35.4522 H   0  0  0  0  0  0  0  0  0  0  0  0
   73.3238   23.7396   37.4173 C   0  0  0  0  0  0  0  0  0  0  0  0
   71.8832   23.6186   38.0865 C   0  0  0  0  0  0  0  0  0  0  0  0
   71.2207   22.6183   37.8623 O   0  0  0  0  0  0  0  0  0  0  0  0
   71.3908   24.6154   38.9024 O   0  0  0  0  0  0  0  0  0  0  0  0
   71.9052   25.3805   39.0700 H   0  0  0  0  0  0  0  0  0  0  0  0
   74.0933   24.9799   37.7146 C   0  0  0  0  0  0  0  0  0  0  0  0
   75.5943   24.7446   37.8675 C   0  0  0  0  0  0  0  0  0  0  0  0
   77.5908   24.5680   36.7560 O   0  0  0  0  0  0  0  0  0  0  0  0
   76.3635   25.0366   36.6431 C   0  0  0  0  0  0  0  0  0  0  0  0
   75.8957   25.6414   35.6750 O   0  0  0  0  0  0  0  0  0  0  0  0
   77.8513   24.1200   37.5366 H   0  0  0  0  0  0  0  0  0  0  0  0
   71.1737   22.1077   28.6785 C   0  0  0  0  0  0  0  0  0  0  0  0
   70.8043   22.4992   27.6458 O   0  0  0  0  0  0  0  0  0  0  0  0
   70.1094   22.8088   29.6429 O   0  0  0  0  0  0  0  0  0  0  0  0
   71.2508   22.2462   26.8619 H   0  0  0  0  0  0  0  0  0  0  0  0
   70.1557   22.6734   30.5689 H   0  0  0  0  0  0  0  0  0  0  0  0
   70.8279   20.6585   29.0898 C   0  0  0  0  0  0  0  0  0  0  0  0
   69.7397   20.0136   28.5206 F   0  0  0  0  0  0  0  0  0  0  0  0
   70.4680   20.8575   30.3530 F   0  0  0  0  0  0  0  0  0  0  0  0
   71.9225   19.8878   28.9744 F   0  0  0  0  0  0  0  0  0  0  0  0
   73.6648   22.3279   28.4204 C   0  0  0  0  0  0  0  0  0  0  0  0
   74.2745   23.8424   27.9410 C   0  0  0  0  0  0  0  0  0  0  0  0
   75.1537   23.8622   26.6365 C   0  0  0  0  0  0  0  0  0  0  0  0
   76.3818   24.5113   27.1949 C   0  0  0  0  0  0  0  0  0  0  0  0
   76.3222   25.8195   26.9036 C   0  0  0  0  0  0  0  0  0  0  0  0
   75.3897   26.6178   26.2259 O   0  0  0  0  0  0  0  0  0  0  0  0
   77.4245   26.9255   27.3047 N   0  0  0  0  0  0  0  0  0  0  0  0
   78.4957   26.4658   27.9935 C   0  0  0  0  0  0  0  0  0  0  0  0
   79.4746   27.2950   28.3828 N   0  0  0  0  0  0  0  0  0  0  0  0
   78.5946   25.2364   28.2532 N   0  0  0  0  0  0  0  0  0  0  0  0
   77.6116   24.1820   27.9353 C   0  0  0  0  0  0  0  0  0  0  0  0
   77.8811   22.8896   28.3241 N   0  0  0  0  0  0  0  0  0  0  0  0
   77.3251   27.8750   27.0641 H   0  0  0  0  0  0  0  0  0  0  0  0
   80.3740   26.9304   28.0689 H   0  0  0  0  0  0  0  0  0  0  0  0
   79.4737   27.3680   29.4002 H   0  0  0  0  0  0  0  0  0  0  0  0
   78.7129   25.1898   29.2653 H   0  0  0  0  0  0  0  0  0  0  0  0
   78.8734   22.6945   28.1912 H   0  0  0  0  0  0  0  0  0  0  0  0
   77.3289   22.2430   27.7607 H   0  0  0  0  0  0  0  0  0  0  0  0
 19 20  1  0  0  0
 20 21  2  0  0  0
 20 18  1  0  0  0
 18 17  1  0  0  0
 17 12  1  0  0  0
 12  8  1  0  0  0
 12 13  1  0  0  0
  8  9  1  0  0  0
  9 10  2  0  0  0
  9  2  1  0  0  0
  2  3  2  0  0  0
  2  7  1  0  0  0
  3  4  1  0  0  0
  4  5  2  0  0  0
  5  6  1  0  0  0
  5  1  1  0  0  0
  6  7  2  0  0  0
  1 32  1  0  0  0
  1 23  1  0  0  0
 32 33  1  0  0  0
 33 34  1  0  0  0
 34 35  1  0  0  0
 35 36  1  0  0  0
 35 42  1  0  0  0
 36 37  2  0  0  0
 36 38  1  0  0  0
 38 39  1  0  0  0
 39 40  1  0  0  0
 39 41  1  0  0  0
 41 42  1  0  0  0
 42 43  1  0  0  0
 23 24  1  0  0  0
 23 25  1  0  0  0
 23 28  1  0  0  0
 28 29  1  0  0  0
 28 30  1  0  0  0
 28 31  1  0  0  0
 13 14  2  0  0  0
 13 15  1  0  0  0
 19 22  1  0  0  0
  8 11  1  0  0  0
 38 44  1  0  0  0
 40 45  1  0  0  0
 40 46  1  0  0  0
 41 47  1  0  0  0
 43 48  1  0  0  0
 43 49  1  0  0  0
 24 26  1  0  0  0
 25 27  1  0  0  0
 15 16  1  0  0  0
M  END
> <minimizedAffinity>
-10.41965

$$$$
1NJS_KEU_A_510


 49 50  0  0  0  0  0  0  0  0999 V2000
   72.4760   22.4350   29.0038 C   0  0  0  0  0  0  0  0  0  0  0  0
   73.4764   22.9433   33.3806 C   0  0  0  0  0  0  0  0  0  0  0  0
   72.5561   23.9614   32.7876 C   0  0  0  0  0  0  0  0  0  0  0  0
   72.1723   23.8619   31.4031 C   0  0  0  0  0  0  0  0  0  0  0  0
   72.7314   22.6768   30.5913 C   0  0  0  0  0  0  0  0  0  0  0  0
   73.6106   21.6804   31.2266 C   0  0  0  0  0  0  0  0  0  0  0  0
   73.9933   21.7932   32.5852 C   0  0  0  0  0  0  0  0  0  0  0  0
   73.4575   22.2311   35.6959 N   0  0  0  0  0  0  0  0  0  0  0  0
   73.8561   23.1652   34.7534 C   0  0  0  0  0  0  0  0  0  0  0  0
   74.5319   24.1243   35.0517 O   0  0  0  0  0  0  0  0  0  0  0  0
   72.8920   21.4756   35.4154 H   0  0  0  0  0  0  0  0  0  0  0  0
   73.8710   22.3459   37.1441 C   0  0  0  0  0  0  0  0  0  0  0  0
   73.7282   23.8465   37.6597 C   0  0  0  0  0  0  0  0  0  0  0  0
   74.6887   24.3678   38.2032 O   0  0  0  0  0  0  0  0  0  0  0  0
   72.5512   24.5465   37.4972 O   0  0  0  0  0  0  0  0  0  0  0  0
   71.8180   24.1396   37.0790 H   0  0  0  0  0  0  0  0  0  0  0  0
   75.2438   21.7677   37.1521 C   0  0  0  0  0  0  0  0  0  0  0  0
   75.3491   20.4573   37.9291 C   0  0  0  0  0  0  0  0  0  0  0  0
   76.6326   18.9839   36.7315 O   0  0  0  0  0  0  0  0  0  0  0  0
   75.3877   19.2623   37.0650 C   0  0  0  0  0  0  0  0  0  0  0  0
   74.3794   18.6421   36.7181 O   0  0  0  0  0  0  0  0  0  0  0  0
   77.3335   19.5189   37.0486 H   0  0  0  0  0  0  0  0  0  0  0  0
   71.3706   21.4592   28.4464 C   0  0  0  0  0  0  0  0  0  0  0  0
   71.7016   20.6565   27.6703 O   0  0  0  0  0  0  0  0  0  0  0  0
   70.6379   22.5003   27.4801 O   0  0  0  0  0  0  0  0  0  0  0  0
   72.1714   19.8968   27.9533 H   0  0  0  0  0  0  0  0  0  0  0  0
   70.2555   23.2790   27.8342 H   0  0  0  0  0  0  0  0  0  0  0  0
   70.1370   21.1713   29.3319 C   0  0  0  0  0  0  0  0  0  0  0  0
   69.5222   22.2026   30.0266 F   0  0  0  0  0  0  0  0  0  0  0  0
   70.7012   20.4286   30.2779 F   0  0  0  0  0  0  0  0  0  0  0  0
   69.2207   20.4975   28.6166 F   0  0  0  0  0  0  0  0  0  0  0  0
   73.8004   22.0886   28.3007 C   0  0  0  0  0  0  0  0  0  0  0  0
   74.1810   23.5890   27.5941 C   0  0  0  0  0  0  0  0  0  0  0  0
   75.1660   23.5554   26.3677 C   0  0  0  0  0  0  0  0  0  0  0  0
   76.0621   24.6890   26.7596 C   0  0  0  0  0  0  0  0  0  0  0  0
   77.0227   24.1955   27.5556 C   0  0  0  0  0  0  0  0  0  0  0  0
   77.3104   22.9126   28.0429 O   0  0  0  0  0  0  0  0  0  0  0  0
   78.2208   25.0428   28.2234 N   0  0  0  0  0  0  0  0  0  0  0  0
   78.2332   26.3671   27.9416 C   0  0  0  0  0  0  0  0  0  0  0  0
   79.1841   27.1705   28.4391 N   0  0  0  0  0  0  0  0  0  0  0  0
   77.3250   26.8645   27.2230 N   0  0  0  0  0  0  0  0  0  0  0  0
   76.2193   26.1405   26.5655 C   0  0  0  0  0  0  0  0  0  0  0  0
   75.3319   26.8529   25.7915 N   0  0  0  0  0  0  0  0  0  0  0  0
   78.9003   24.6238   28.7996 H   0  0  0  0  0  0  0  0  0  0  0  0
   78.7475   27.9649   28.9067 H   0  0  0  0  0  0  0  0  0  0  0  0
   79.7768   27.5064   27.6800 H   0  0  0  0  0  0  0  0  0  0  0  0
   77.8180   27.3368   26.4651 H   0  0  0  0  0  0  0  0  0  0  0  0
   75.1380   27.7505   26.2355 H   0  0  0  0  0  0  0  0  0  0  0  0
   74.4638   26.3257   25.6971 H   0  0  0  0  0  0  0  0  0  0  0  0
 19 20  1  0  0  0
 20 21  2  0  0  0
 20 18  1  0  0  0
 18 17  1  0  0  0
 17 12  1  0  0  0
 12  8  1  0  0  0
 12 13  1  0  0  0
  8  9  1  0  0  0
  9 10  2  0  0  0
  9  2  1  0  0  0
  2  3  2  0  0  0
  2  7  1  0  0  0
  3  4  1  0  0  0
  4  5  2  0  0  0
  5  6  1  0  0  0
  5  1  1  0  0  0
  6  7  2  0  0  0
  1 32  1  0  0  0
  1 23  1  0  0  0
 32 33  1  0  0  0
 33 34  1  0  0  0
 34 35  1  0  0  0
 35 36  1  0  0  0
 35 42  1  0  0  0
 36 37  2  0  0  0
 36 38  1  0  0  0
 38 39  1  0  0  0
 39 40  1  0  0  0
 39 41  1  0  0  0
 41 42  1  0  0  0
 42 43  1  0  0  0
 23 24  1  0  0  0
 23 25  1  0  0  0
 23 28  1  0  0  0
 28 29  1  0  0  0
 28 30  1  0  0  0
 28 31  1  0  0  0
 13 14  2  0  0  0
 13 15  1  0  0  0
 19 22  1  0  0  0
  8 11  1  0  0  0
 38 44  1  0  0  0
 40 45  1  0  0  0
 40 46  1  0  0  0
 41 47  1  0  0  0
 43 48  1  0  0  0
 43 49  1  0  0  0
 24 26  1  0  0  0
 25 27  1  0  0  0
 15 16  1  0  0  0
M  END
> <minimizedAffinity>
-9.94799

$$$$
1NJS_KEU_A_510


 49 50  0  0  0  0  0  0  0  0999 V2000
   73.5121   21.5649   29.3551 C   0  0  0  0  0  0  0  0  0  0  0  0
   72.8192   23.5424   33.3583 C   0  0  0  0  0  0  0  0  0  0  0  0
   73.6478   22.2981   33.3673 C   0  0  0  0  0  0  0  0  0  0  0  0
   73.9314   21.6157   32.1312 C   0  0  0  0  0  0  0  0  0  0  0  0
   73.3653   22.2255   30.8336 C   0  0  0  0  0  0  0  0  0  0  0  0
   72.5798   23.4709   30.8702 C   0  0  0  0  0  0  0  0  0  0  0  0
   72.2948   24.1282   32.0916 C   0  0  0  0  0  0  0  0  0  0  0  0
   71.5083   25.0431   34.7358 N   0  0  0  0  0  0  0  0  0  0  0  0
   72.5335   24.1150   34.6500 C   0  0  0  0  0  0  0  0  0  0  0  0
   73.1558   23.7596   35.6257 O   0  0  0  0  0  0  0  0  0  0  0  0
   71.0397   25.3198   33.9154 H   0  0  0  0  0  0  0  0  0  0  0  0
   71.0935   25.6400   36.0599 C   0  0  0  0  0  0  0  0  0  0  0  0
   69.9391   24.7760   36.7372 C   0  0  0  0  0  0  0  0  0  0  0  0
   70.0492   24.4827   37.9168 O   0  0  0  0  0  0  0  0  0  0  0  0
   68.8379   24.3676   36.0145 O   0  0  0  0  0  0  0  0  0  0  0  0
   68.7603   24.5966   35.1093 H   0  0  0  0  0  0  0  0  0  0  0  0
   70.7517   27.0461   35.7063 C   0  0  0  0  0  0  0  0  0  0  0  0
   69.4099   27.5079   36.2705 C   0  0  0  0  0  0  0  0  0  0  0  0
   67.3318   27.5720   35.3061 O   0  0  0  0  0  0  0  0  0  0  0  0
   68.5281   28.1245   35.2613 C   0  0  0  0  0  0  0  0  0  0  0  0
   68.8937   29.0210   34.4967 O   0  0  0  0  0  0  0  0  0  0  0  0
   67.1519   26.8937   35.9271 H   0  0  0  0  0  0  0  0  0  0  0  0
   74.8243   21.6724   28.4884 C   0  0  0  0  0  0  0  0  0  0  0  0
   74.9838   20.8792   27.6508 O   0  0  0  0  0  0  0  0  0  0  0  0
   75.8489   21.1304   29.5887 O   0  0  0  0  0  0  0  0  0  0  0  0
   74.4996   20.9386   26.8508 H   0  0  0  0  0  0  0  0  0  0  0  0
   75.9432   21.5824   30.4041 H   0  0  0  0  0  0  0  0  0  0  0  0
   75.4832   23.0615   28.3304 C   0  0  0  0  0  0  0  0  0  0  0  0
   74.7898   24.2068   28.6930 F   0  0  0  0  0  0  0  0  0  0  0  0
   75.5609   23.1300   27.0060 F   0  0  0  0  0  0  0  0  0  0  0  0
   76.6886   23.0547   28.9241 F   0  0  0  0  0  0  0  0  0  0  0  0
   72.3303   21.9892   28.4655 C   0  0  0  0  0  0  0  0  0  0  0  0
   71.4089   20.5587   28.4661 C   0  0  0  0  0  0  0  0  0  0  0  0
   69.8712   20.7161   28.1730 C   0  0  0  0  0  0  0  0  0  0  0  0
   69.4333   19.3170   28.4766 C   0  0  0  0  0  0  0  0  0  0  0  0
   68.7550   19.3421   29.6338 C   0  0  0  0  0  0  0  0  0  0  0  0
   68.4127   20.3628   30.5322 O   0  0  0  0  0  0  0  0  0  0  0  0
   68.0866   18.0685   30.3622 N   0  0  0  0  0  0  0  0  0  0  0  0
   68.2407   16.8812   29.7300 C   0  0  0  0  0  0  0  0  0  0  0  0
   67.7249   15.7542   30.2411 N   0  0  0  0  0  0  0  0  0  0  0  0
   68.9008   16.8218   28.6580 N   0  0  0  0  0  0  0  0  0  0  0  0
   69.5143   17.9511   27.9317 C   0  0  0  0  0  0  0  0  0  0  0  0
   70.1789   17.6955   26.7541 N   0  0  0  0  0  0  0  0  0  0  0  0
   67.5973   18.1491   31.2127 H   0  0  0  0  0  0  0  0  0  0  0  0
   68.4548   15.0446   30.3047 H   0  0  0  0  0  0  0  0  0  0  0  0
   66.9759   15.4182   29.6358 H   0  0  0  0  0  0  0  0  0  0  0  0
   68.2705   16.3868   27.9843 H   0  0  0  0  0  0  0  0  0  0  0  0
   70.7009   16.8234   26.8406 H   0  0  0  0  0  0  0  0  0  0  0  0
   70.8244   18.4598   26.5551 H   0  0  0  0  0  0  0  0  0  0  0  0
 19 20  1  0  0  0
 20 21  2  0  0  0
 20 18  1  0  0  0
 18 17  1  0  0  0
 17 12  1  0  0  0
 12  8  1  0  0  0
 12 13  1  0  0  0
  8  9  1  0  0  0
  9 10  2  0  0  0
  9  2  1  0  0  0
  2  3  2  0  0  0
  2  7  1  0  0  0
  3  4  1  0  0  0
  4  5  2  0  0  0
  5  6  1  0  0  0
  5  1  1  0  0  0
  6  7  2  0  0  0
  1 32  1  0  0  0
  1 23  1  0  0  0
 32 33  1  0  0  0
 33 34  1  0  0  0
 34 35  1  0  0  0
 35 36  1  0  0  0
 35 42  1  0  0  0
 36 37  2  0  0  0
 36 38  1  0  0  0
 38 39  1  0  0  0
 39 40  1  0  0  0
 39 41  1  0  0  0
 41 42  1  0  0  0
 42 43  1  0  0  0
 23 24  1  0  0  0
 23 25  1  0  0  0
 23 28  1  0  0  0
 28 29  1  0  0  0
 28 30  1  0  0  0
 28 31  1  0  0  0
 13 14  2  0  0  0
 13 15  1  0  0  0
 19 22  1  0  0  0
  8 11  1  0  0  0
 38 44  1  0  0  0
 40 45  1  0  0  0
 40 46  1  0  0  0
 41 47  1  0  0  0
 43 48  1  0  0  0
 43 49  1  0  0  0
 24 26  1  0  0  0
 25 27  1  0  0  0
 15 16  1  0  0  0
M  END
> <minimizedAffinity>
-9.40079

$$$$
1NJS_KEU_A_510


 49 50  0  0  0  0  0  0  0  0999 V2000
   73.4241   22.6704   29.9163 C   0  0  0  0  0  0  0  0  0  0  0  0
   73.0502   22.5987   34.4186 C   0  0  0  0  0  0  0  0  0  0  0  0
   72.5371   23.8222   33.7295 C   0  0  0  0  0  0  0  0  0  0  0  0
   72.6020   23.9177   32.2940 C   0  0  0  0  0  0  0  0  0  0  0  0
   73.1970   22.7213   31.5255 C   0  0  0  0  0  0  0  0  0  0  0  0
   73.6616   21.5233   32.2455 C   0  0  0  0  0  0  0  0  0  0  0  0
   73.6060   21.4431   33.6581 C   0  0  0  0  0  0  0  0  0  0  0  0
   73.9667   21.9078   36.5519 N   0  0  0  0  0  0  0  0  0  0  0  0
   73.0044   22.6246   35.8592 C   0  0  0  0  0  0  0  0  0  0  0  0
   72.1662   23.2851   36.4308 O   0  0  0  0  0  0  0  0  0  0  0  0
   74.6188   21.3676   36.0496 H   0  0  0  0  0  0  0  0  0  0  0  0
   74.0378   21.9364   38.0604 C   0  0  0  0  0  0  0  0  0  0  0  0
   75.2540   22.8381   38.5560 C   0  0  0  0  0  0  0  0  0  0  0  0
   75.0078   23.9346   39.0323 O   0  0  0  0  0  0  0  0  0  0  0  0
   76.5563   22.3959   38.4544 O   0  0  0  0  0  0  0  0  0  0  0  0
   76.7375   21.5529   38.0877 H   0  0  0  0  0  0  0  0  0  0  0  0
   74.0879   20.4930   38.4254 C   0  0  0  0  0  0  0  0  0  0  0  0
   74.6537   19.6038   37.3204 C   0  0  0  0  0  0  0  0  0  0  0  0
   76.7945   19.5186   38.1342 O   0  0  0  0  0  0  0  0  0  0  0  0
   75.7811   18.7614   37.7623 C   0  0  0  0  0  0  0  0  0  0  0  0
   75.7482   17.5282   37.7630 O   0  0  0  0  0  0  0  0  0  0  0  0
   76.7204   20.4519   38.0966 H   0  0  0  0  0  0  0  0  0  0  0  0
   72.2719   22.3409   28.8923 C   0  0  0  0  0  0  0  0  0  0  0  0
   72.3272   22.8373   27.8402 O   0  0  0  0  0  0  0  0  0  0  0  0
   71.1297   23.2335   29.5654 O   0  0  0  0  0  0  0  0  0  0  0  0
   72.9317   22.5146   27.2011 H   0  0  0  0  0  0  0  0  0  0  0  0
   70.8596   23.0625   30.4462 H   0  0  0  0  0  0  0  0  0  0  0  0
   71.5270   20.9947   29.0397 C   0  0  0  0  0  0  0  0  0  0  0  0
   70.4186   20.7219   28.2516 F   0  0  0  0  0  0  0  0  0  0  0  0
   71.0322   21.1385   30.2641 F   0  0  0  0  0  0  0  0  0  0  0  0
   72.4077   19.9840   28.9481 F   0  0  0  0  0  0  0  0  0  0  0  0
   74.6208   21.7638   29.5784 C   0  0  0  0  0  0  0  0  0  0  0  0
   75.8435   22.9274   29.3627 C   0  0  0  0  0  0  0  0  0  0  0  0
   76.7870   22.7292   28.1194 C   0  0  0  0  0  0  0  0  0  0  0  0
   76.6598   24.0920   27.5127 C   0  0  0  0  0  0  0  0  0  0  0  0
   75.6231   24.0664   26.6616 C   0  0  0  0  0  0  0  0  0  0  0  0
   74.7144   23.0713   26.2741 O   0  0  0  0  0  0  0  0  0  0  0  0
   75.1007   25.3075   25.7751 N   0  0  0  0  0  0  0  0  0  0  0  0
   75.7885   26.4648   25.9198 C   0  0  0  0  0  0  0  0  0  0  0  0
   75.4427   27.5643   25.2352 N   0  0  0  0  0  0  0  0  0  0  0  0
   76.7868   26.5098   26.6879 N   0  0  0  0  0  0  0  0  0  0  0  0
   77.2981   25.4190   27.5409 C   0  0  0  0  0  0  0  0  0  0  0  0
   78.3919   25.6632   28.3397 N   0  0  0  0  0  0  0  0  0  0  0  0
   74.3304   25.2289   25.1671 H   0  0  0  0  0  0  0  0  0  0  0  0
   76.2591   27.9308   24.7458 H   0  0  0  0  0  0  0  0  0  0  0  0
   75.0885   28.2697   25.8813 H   0  0  0  0  0  0  0  0  0  0  0  0
   76.5900   27.2767   27.3309 H   0  0  0  0  0  0  0  0  0  0  0  0
   79.0582   26.2473   27.8345 H   0  0  0  0  0  0  0  0  0  0  0  0
   78.8353   24.7790   28.5887 H   0  0  0  0  0  0  0  0  0  0  0  0
 19 20  1  0  0  0
 20 21  2  0  0  0
 20 18  1  0  0  0
 18 17  1  0  0  0
 17 12  1  0  0  0
 12  8  1  0  0  0
 12 13  1  0  0  0
  8  9  1  0  0  0
  9 10  2  0  0  0
  9  2  1  0  0  0
  2  3  2  0  0  0
  2  7  1  0  0  0
  3  4  1  0  0  0
  4  5  2  0  0  0
  5  6  1  0  0  0
  5  1  1  0  0  0
  6  7  2  0  0  0
  1 32  1  0  0  0
  1 23  1  0  0  0
 32 33  1  0  0  0
 33 34  1  0  0  0
 34 35  1  0  0  0
 35 36  1  0  0  0
 35 42  1  0  0  0
 36 37  2  0  0  0
 36 38  1  0  0  0
 38 39  1  0  0  0
 39 40  1  0  0  0
 39 41  1  0  0  0
 41 42  1  0  0  0
 42 43  1  0  0  0
 23 24  1  0  0  0
 23 25  1  0  0  0
 23 28  1  0  0  0
 28 29  1  0  0  0
 28 30  1  0  0  0
 28 31  1  0  0  0
 13 14  2  0  0  0
 13 15  1  0  0  0
 19 22  1  0  0  0
  8 11  1  0  0  0
 38 44  1  0  0  0
 40 45  1  0  0  0
 40 46  1  0  0  0
 41 47  1  0  0  0
 43 48  1  0  0  0
 43 49  1  0  0  0
 24 26  1  0  0  0
 25 27  1  0  0  0
 15 16  1  0  0  0
M  END
> <minimizedAffinity>
-9.08196

$$$$
1NJS_KEU_A_510


 49 50  0  0  0  0  0  0  0  0999 V2000
   72.4123   22.7418   29.1538 C   0  0  0  0  0  0  0  0  0  0  0  0
   73.2492   22.7711   33.5939 C   0  0  0  0  0  0  0  0  0  0  0  0
   73.7766   21.6013   32.8269 C   0  0  0  0  0  0  0  0  0  0  0  0
   73.5690   21.5236   31.4039 C   0  0  0  0  0  0  0  0  0  0  0  0
   72.8098   22.6832   30.7293 C   0  0  0  0  0  0  0  0  0  0  0  0
   72.3356   23.8309   31.5214 C   0  0  0  0  0  0  0  0  0  0  0  0
   72.5327   23.8928   32.9223 C   0  0  0  0  0  0  0  0  0  0  0  0
   72.8203   23.6902   35.7938 N   0  0  0  0  0  0  0  0  0  0  0  0
   73.4474   22.7262   35.0210 C   0  0  0  0  0  0  0  0  0  0  0  0
   74.1155   21.8465   35.5165 O   0  0  0  0  0  0  0  0  0  0  0  0
   72.3018   24.3999   35.3504 H   0  0  0  0  0  0  0  0  0  0  0  0
   72.9143   23.6765   37.3013 C   0  0  0  0  0  0  0  0  0  0  0  0
   74.2443   24.4010   37.7953 C   0  0  0  0  0  0  0  0  0  0  0  0
   75.2348   24.3445   37.0844 O   0  0  0  0  0  0  0  0  0  0  0  0
   74.2822   25.0793   38.9954 O   0  0  0  0  0  0  0  0  0  0  0  0
   73.5178   25.1183   39.5359 H   0  0  0  0  0  0  0  0  0  0  0  0
   72.7800   22.2314   37.6368 C   0  0  0  0  0  0  0  0  0  0  0  0
   73.5711   21.8168   38.8753 C   0  0  0  0  0  0  0  0  0  0  0  0
   72.2732   20.8184   40.4788 O   0  0  0  0  0  0  0  0  0  0  0  0
   72.8166   21.9691   40.1338 C   0  0  0  0  0  0  0  0  0  0  0  0
   72.7226   23.0369   40.7444 O   0  0  0  0  0  0  0  0  0  0  0  0
   72.4042   20.0596   39.9450 H   0  0  0  0  0  0  0  0  0  0  0  0
   71.1025   22.0879   28.5694 C   0  0  0  0  0  0  0  0  0  0  0  0
   70.7004   22.4986   27.5566 O   0  0  0  0  0  0  0  0  0  0  0  0
   70.0623   22.7607   29.5792 O   0  0  0  0  0  0  0  0  0  0  0  0
   71.1255   22.2655   26.7547 H   0  0  0  0  0  0  0  0  0  0  0  0
   70.1366   22.6060   30.5004 H   0  0  0  0  0  0  0  0  0  0  0  0
   70.7787   20.6279   28.9595 C   0  0  0  0  0  0  0  0  0  0  0  0
   71.6509   19.6053   28.6163 F   0  0  0  0  0  0  0  0  0  0  0  0
   69.7105   20.4179   28.1982 F   0  0  0  0  0  0  0  0  0  0  0  0
   70.5034   20.5666   30.2732 F   0  0  0  0  0  0  0  0  0  0  0  0
   73.5948   22.2669   28.2910 C   0  0  0  0  0  0  0  0  0  0  0  0
   74.1380   23.7512   27.6607 C   0  0  0  0  0  0  0  0  0  0  0  0
   75.1398   23.6731   26.4500 C   0  0  0  0  0  0  0  0  0  0  0  0
   76.0598   24.7885   26.8386 C   0  0  0  0  0  0  0  0  0  0  0  0
   76.9936   24.2825   27.6582 C   0  0  0  0  0  0  0  0  0  0  0  0
   77.2386   23.0004   28.1705 O   0  0  0  0  0  0  0  0  0  0  0  0
   78.2033   25.1081   28.3322 N   0  0  0  0  0  0  0  0  0  0  0  0
   78.2561   26.4268   28.0296 C   0  0  0  0  0  0  0  0  0  0  0  0
   79.2203   27.2124   28.5301 N   0  0  0  0  0  0  0  0  0  0  0  0
   77.3735   26.9366   27.2883 N   0  0  0  0  0  0  0  0  0  0  0  0
   76.2593   26.2318   26.6242 C   0  0  0  0  0  0  0  0  0  0  0  0
   75.4041   26.9551   25.8244 N   0  0  0  0  0  0  0  0  0  0  0  0
   78.8619   24.6805   28.9261 H   0  0  0  0  0  0  0  0  0  0  0  0
   78.7979   28.0258   28.9777 H   0  0  0  0  0  0  0  0  0  0  0  0
   79.8340   27.5199   27.7756 H   0  0  0  0  0  0  0  0  0  0  0  0
   77.8912   27.3831   26.5313 H   0  0  0  0  0  0  0  0  0  0  0  0
   75.2275   27.8647   26.2508 H   0  0  0  0  0  0  0  0  0  0  0  0
   74.5237   26.4499   25.7240 H   0  0  0  0  0  0  0  0  0  0  0  0
 19 20  1  0  0  0
 20 21  2  0  0  0
 20 18  1  0  0  0
 18 17  1  0  0  0
 17 12  1  0  0  0
 12  8  1  0  0  0
 12 13  1  0  0  0
  8  9  1  0  0  0
  9 10  2  0  0  0
  9  2  1  0  0  0
  2  3  2  0  0  0
  2  7  1  0  0  0
  3  4  1  0  0  0
  4  5  2  0  0  0
  5  6  1  0  0  0
  5  1  1  0  0  0
  6  7  2  0  0  0
  1 32  1  0  0  0
  1 23  1  0  0  0
 32 33  1  0  0  0
 33 34  1  0  0  0
 34 35  1  0  0  0
 35 36  1  0  0  0
 35 42  1  0  0  0
 36 37  2  0  0  0
 36 38  1  0  0  0
 38 39  1  0  0  0
 39 40  1  0  0  0
 39 41  1  0  0  0
 41 42  1  0  0  0
 42 43  1  0  0  0
 23 24  1  0  0  0
 23 25  1  0  0  0
 23 28  1  0  0  0
 28 29  1  0  0  0
 28 30  1  0  0  0
 28 31  1  0  0  0
 13 14  2  0  0  0
 13 15  1  0  0  0
 19 22  1  0  0  0
  8 11  1  0  0  0
 38 44  1  0  0  0
 40 45  1  0  0  0
 40 46  1  0  0  0
 41 47  1  0  0  0
 43 48  1  0  0  0
 43 49  1  0  0  0
 24 26  1  0  0  0
 25 27  1  0  0  0
 15 16  1  0  0  0
M  END
> <minimizedAffinity>
-8.98801

$$$$
