5I29_67B_A_1701


 23 25  0  0  0  0  0  0  0  0999 V2000
    3.7699   -8.5814   -4.2311 C   0  0  0  0  0  0  0  0  0  0  0  0
    2.8052   -8.9561   -3.3182 C   0  0  0  0  0  0  0  0  0  0  0  0
    0.5705   -9.4931   -2.5717 C   0  0  0  0  0  0  0  0  0  0  0  0
   -0.1809   -9.2448   -5.1437 O   0  0  0  0  0  0  0  0  0  0  0  0
    1.0034   -9.0599   -4.8898 C   0  0  0  0  0  0  0  0  0  0  0  0
    1.5216   -9.1826   -3.6394 N   0  0  0  0  0  0  0  0  0  0  0  0
    1.9849   -8.7123   -5.9010 C   0  0  0  0  0  0  0  0  0  0  0  0
    1.7846   -8.4854   -7.2155 N   0  0  0  0  0  0  0  0  0  0  0  0
    2.9971   -8.0781   -7.7495 C   0  0  0  0  0  0  0  0  0  0  0  0
    3.9807   -8.0294   -6.7841 C   0  0  0  0  0  0  0  0  0  0  0  0
    3.3171   -8.4441   -5.5647 C   0  0  0  0  0  0  0  0  0  0  0  0
    0.9362   -8.5896   -7.7040 H   0  0  0  0  0  0  0  0  0  0  0  0
    7.7778   -7.7341   -2.9185 C   0  0  0  0  0  0  0  0  0  0  0  0
    7.5185   -8.1433   -4.2149 C   0  0  0  0  0  0  0  0  0  0  0  0
    5.4381   -7.9206   -2.4628 C   0  0  0  0  0  0  0  0  0  0  0  0
    6.2629   -8.4298   -4.6437 C   0  0  0  0  0  0  0  0  0  0  0  0
    5.1900   -8.3355   -3.7831 C   0  0  0  0  0  0  0  0  0  0  0  0
    6.7114   -7.6871   -2.0199 C   0  0  0  0  0  0  0  0  0  0  0  0
    6.8807   -7.2339   -0.6089 C   0  0  0  0  0  0  0  0  0  0  0  0
    7.3228   -9.5176    0.2058 C   0  0  0  0  0  0  0  0  0  0  0  0
    6.6739   -5.9809   -0.3724 O   0  0  0  0  0  0  0  0  0  0  0  0
    7.2159   -8.0486    0.3737 N   0  0  0  0  0  0  0  0  0  0  0  0
    7.3012   -7.5562    1.7241 C   0  0  0  0  0  0  0  0  0  0  0  0
  9  8  1  0  0  0
  9 10  2  0  0  0
  8  7  1  0  0  0
 10 11  1  0  0  0
  7 11  2  0  0  0
  7  5  1  0  0  0
 11  1  1  0  0  0
  4  5  2  0  0  0
  5  6  1  0  0  0
 16 14  2  0  0  0
 16 17  1  0  0  0
 14 13  1  0  0  0
  1 17  1  0  0  0
  1  2  2  0  0  0
 17 15  2  0  0  0
  6  2  1  0  0  0
  6  3  1  0  0  0
 13 18  2  0  0  0
 15 18  1  0  0  0
 18 19  1  0  0  0
 19 21  2  0  0  0
 19 22  1  0  0  0
 20 22  1  0  0  0
 22 23  1  0  0  0
  8 12  1  0  0  0
M  END
> <minimizedAffinity>
-9.18570

$$$$
5I29_67B_A_1701


 23 25  0  0  0  0  0  0  0  0999 V2000
    4.8725   -8.2910   -3.0054 C   0  0  0  0  0  0  0  0  0  0  0  0
    3.5176   -8.5338   -2.9055 C   0  0  0  0  0  0  0  0  0  0  0  0
    1.2917   -8.9703   -3.7386 C   0  0  0  0  0  0  0  0  0  0  0  0
    2.4029   -9.1092   -6.1855 O   0  0  0  0  0  0  0  0  0  0  0  0
    3.1547   -8.8807   -5.2454 C   0  0  0  0  0  0  0  0  0  0  0  0
    2.7302   -8.8140   -3.9560 N   0  0  0  0  0  0  0  0  0  0  0  0
    4.5831   -8.6791   -5.4048 C   0  0  0  0  0  0  0  0  0  0  0  0
    5.2995   -8.6500   -6.5474 N   0  0  0  0  0  0  0  0  0  0  0  0
    6.6010   -8.3174   -6.2055 C   0  0  0  0  0  0  0  0  0  0  0  0
    6.7292   -8.1201   -4.8467 C   0  0  0  0  0  0  0  0  0  0  0  0
    5.4014   -8.3551   -4.3163 C   0  0  0  0  0  0  0  0  0  0  0  0
    4.9614   -8.8309   -7.4541 H   0  0  0  0  0  0  0  0  0  0  0  0
    7.0683   -7.4390    0.5942 C   0  0  0  0  0  0  0  0  0  0  0  0
    6.7276   -6.4336   -0.2938 C   0  0  0  0  0  0  0  0  0  0  0  0
    6.0225   -9.0039   -0.8803 C   0  0  0  0  0  0  0  0  0  0  0  0
    6.0484   -6.6844   -1.4419 C   0  0  0  0  0  0  0  0  0  0  0  0
    5.6834   -7.9720   -1.7732 C   0  0  0  0  0  0  0  0  0  0  0  0
    6.7557   -8.7539    0.2474 C   0  0  0  0  0  0  0  0  0  0  0  0
    7.0556   -9.9056    1.1468 C   0  0  0  0  0  0  0  0  0  0  0  0
    9.2996  -10.2382    0.1833 C   0  0  0  0  0  0  0  0  0  0  0  0
    6.1061  -10.2910    1.9333 O   0  0  0  0  0  0  0  0  0  0  0  0
    8.2198  -10.5271    1.1570 N   0  0  0  0  0  0  0  0  0  0  0  0
    8.4208  -11.6720    2.0067 C   0  0  0  0  0  0  0  0  0  0  0  0
  9  8  1  0  0  0
  9 10  2  0  0  0
  8  7  1  0  0  0
 10 11  1  0  0  0
  7 11  2  0  0  0
  7  5  1  0  0  0
 11  1  1  0  0  0
  4  5  2  0  0  0
  5  6  1  0  0  0
 16 14  2  0  0  0
 16 17  1  0  0  0
 14 13  1  0  0  0
  1 17  1  0  0  0
  1  2  2  0  0  0
 17 15  2  0  0  0
  6  2  1  0  0  0
  6  3  1  0  0  0
 13 18  2  0  0  0
 15 18  1  0  0  0
 18 19  1  0  0  0
 19 21  2  0  0  0
 19 22  1  0  0  0
 20 22  1  0  0  0
 22 23  1  0  0  0
  8 12  1  0  0  0
M  END
> <minimizedAffinity>
-8.39324

$$$$
5I29_67B_A_1701


 23 25  0  0  0  0  0  0  0  0999 V2000
    4.4477   -8.5062   -3.2605 C   0  0  0  0  0  0  0  0  0  0  0  0
    4.6737   -8.1941   -1.9354 C   0  0  0  0  0  0  0  0  0  0  0  0
    6.0128   -7.6489    0.0008 C   0  0  0  0  0  0  0  0  0  0  0  0
    8.1211   -7.5799   -1.6700 O   0  0  0  0  0  0  0  0  0  0  0  0
    7.0299   -7.8415   -2.1619 C   0  0  0  0  0  0  0  0  0  0  0  0
    5.8803   -7.8796   -1.4380 N   0  0  0  0  0  0  0  0  0  0  0  0
    6.8438   -8.1166   -3.5748 C   0  0  0  0  0  0  0  0  0  0  0  0
    7.7816   -8.1884   -4.5417 N   0  0  0  0  0  0  0  0  0  0  0  0
    7.1402   -8.5852   -5.7047 C   0  0  0  0  0  0  0  0  0  0  0  0
    5.7917   -8.7815   -5.4932 C   0  0  0  0  0  0  0  0  0  0  0  0
    5.5932   -8.4762   -4.0908 C   0  0  0  0  0  0  0  0  0  0  0  0
    8.7417   -7.9953   -4.4404 H   0  0  0  0  0  0  0  0  0  0  0  0
    0.4926   -9.6372   -4.5182 C   0  0  0  0  0  0  0  0  0  0  0  0
    1.5345   -9.5435   -5.4242 C   0  0  0  0  0  0  0  0  0  0  0  0
    2.0106   -8.9508   -2.8033 C   0  0  0  0  0  0  0  0  0  0  0  0
    2.7857   -9.1737   -5.0494 C   0  0  0  0  0  0  0  0  0  0  0  0
    3.0594   -8.8597   -3.7353 C   0  0  0  0  0  0  0  0  0  0  0  0
    0.7390   -9.2693   -3.1950 C   0  0  0  0  0  0  0  0  0  0  0  0
   -0.3084   -9.3599   -2.1369 C   0  0  0  0  0  0  0  0  0  0  0  0
   -2.1393   -9.4927   -3.7815 C   0  0  0  0  0  0  0  0  0  0  0  0
    0.0925   -9.2627   -0.9127 O   0  0  0  0  0  0  0  0  0  0  0  0
   -1.5904   -9.5226   -2.4048 N   0  0  0  0  0  0  0  0  0  0  0  0
   -2.5559   -9.5393   -1.3367 C   0  0  0  0  0  0  0  0  0  0  0  0
  9  8  1  0  0  0
  9 10  2  0  0  0
  8  7  1  0  0  0
 10 11  1  0  0  0
  7 11  2  0  0  0
  7  5  1  0  0  0
 11  1  1  0  0  0
  4  5  2  0  0  0
  5  6  1  0  0  0
 16 14  2  0  0  0
 16 17  1  0  0  0
 14 13  1  0  0  0
  1 17  1  0  0  0
  1  2  2  0  0  0
 17 15  2  0  0  0
  6  2  1  0  0  0
  6  3  1  0  0  0
 13 18  2  0  0  0
 15 18  1  0  0  0
 18 19  1  0  0  0
 19 21  2  0  0  0
 19 22  1  0  0  0
 20 22  1  0  0  0
 22 23  1  0  0  0
  8 12  1  0  0  0
M  END
> <minimizedAffinity>
-7.80980

$$$$
5I29_67B_A_1701


 23 25  0  0  0  0  0  0  0  0999 V2000
    3.6862   -8.4394   -4.0099 C   0  0  0  0  0  0  0  0  0  0  0  0
    2.7286   -8.8893   -3.1239 C   0  0  0  0  0  0  0  0  0  0  0  0
    0.5348   -9.6458   -2.4497 C   0  0  0  0  0  0  0  0  0  0  0  0
   -0.1244   -9.5634   -5.0574 O   0  0  0  0  0  0  0  0  0  0  0  0
    1.0203   -9.2410   -4.7626 C   0  0  0  0  0  0  0  0  0  0  0  0
    1.4928   -9.2661   -3.4885 N   0  0  0  0  0  0  0  0  0  0  0  0
    2.0019   -8.8193   -5.7450 C   0  0  0  0  0  0  0  0  0  0  0  0
    1.8366   -8.6576   -7.0739 N   0  0  0  0  0  0  0  0  0  0  0  0
    3.0200   -8.1360   -7.5727 C   0  0  0  0  0  0  0  0  0  0  0  0
    3.9486   -7.9486   -6.5706 C   0  0  0  0  0  0  0  0  0  0  0  0
    3.2807   -8.3952   -5.3648 C   0  0  0  0  0  0  0  0  0  0  0  0
    1.0271   -8.8701   -7.5924 H   0  0  0  0  0  0  0  0  0  0  0  0
    7.6172   -7.4056   -2.6018 C   0  0  0  0  0  0  0  0  0  0  0  0
    6.4892   -7.1274   -1.8498 C   0  0  0  0  0  0  0  0  0  0  0  0
    6.1868   -8.3133   -4.2889 C   0  0  0  0  0  0  0  0  0  0  0  0
    5.2396   -7.4320   -2.2835 C   0  0  0  0  0  0  0  0  0  0  0  0
    5.0498   -8.0243   -3.5138 C   0  0  0  0  0  0  0  0  0  0  0  0
    7.4394   -7.9536   -3.8726 C   0  0  0  0  0  0  0  0  0  0  0  0
    8.5902   -8.3147   -4.7503 C   0  0  0  0  0  0  0  0  0  0  0  0
    7.6688   -7.0879   -6.6791 C   0  0  0  0  0  0  0  0  0  0  0  0
    9.4795   -9.1049   -4.2467 O   0  0  0  0  0  0  0  0  0  0  0  0
    8.7188   -7.8729   -5.9872 N   0  0  0  0  0  0  0  0  0  0  0  0
    9.8231   -8.3113   -6.8006 C   0  0  0  0  0  0  0  0  0  0  0  0
  9  8  1  0  0  0
  9 10  2  0  0  0
  8  7  1  0  0  0
 10 11  1  0  0  0
  7 11  2  0  0  0
  7  5  1  0  0  0
 11  1  1  0  0  0
  4  5  2  0  0  0
  5  6  1  0  0  0
 16 14  2  0  0  0
 16 17  1  0  0  0
 14 13  1  0  0  0
  1 17  1  0  0  0
  1  2  2  0  0  0
 17 15  2  0  0  0
  6  2  1  0  0  0
  6  3  1  0  0  0
 13 18  2  0  0  0
 15 18  1  0  0  0
 18 19  1  0  0  0
 19 21  2  0  0  0
 19 22  1  0  0  0
 20 22  1  0  0  0
 22 23  1  0  0  0
  8 12  1  0  0  0
M  END
> <minimizedAffinity>
-7.73365

$$$$
5I29_67B_A_1701


 23 25  0  0  0  0  0  0  0  0999 V2000
    6.7681   -7.9858   -3.0167 C   0  0  0  0  0  0  0  0  0  0  0  0
    7.7846   -7.8571   -3.9411 C   0  0  0  0  0  0  0  0  0  0  0  0
    8.8056   -8.0069   -6.1262 C   0  0  0  0  0  0  0  0  0  0  0  0
    6.3825   -8.7423   -7.0367 O   0  0  0  0  0  0  0  0  0  0  0  0
    6.4778   -8.5044   -5.8386 C   0  0  0  0  0  0  0  0  0  0  0  0
    7.6343   -8.0951   -5.2537 N   0  0  0  0  0  0  0  0  0  0  0  0
    5.3602   -8.6119   -4.9187 C   0  0  0  0  0  0  0  0  0  0  0  0
    4.1017   -9.0218   -5.1787 N   0  0  0  0  0  0  0  0  0  0  0  0
    3.4268   -9.0624   -3.9687 C   0  0  0  0  0  0  0  0  0  0  0  0
    4.2460   -8.6908   -2.9233 C   0  0  0  0  0  0  0  0  0  0  0  0
    5.5210   -8.3958   -3.5450 C   0  0  0  0  0  0  0  0  0  0  0  0
    3.7318   -9.2495   -6.0622 H   0  0  0  0  0  0  0  0  0  0  0  0
    7.3873   -7.2953    1.1838 C   0  0  0  0  0  0  0  0  0  0  0  0
    7.0616   -6.2590    0.3264 C   0  0  0  0  0  0  0  0  0  0  0  0
    7.3562   -8.7717   -0.6966 C   0  0  0  0  0  0  0  0  0  0  0  0
    6.8771   -6.4541   -1.0042 C   0  0  0  0  0  0  0  0  0  0  0  0
    7.0257   -7.7088   -1.5556 C   0  0  0  0  0  0  0  0  0  0  0  0
    7.5961   -8.5606    0.6337 C   0  0  0  0  0  0  0  0  0  0  0  0
    7.9241   -9.7482    1.4744 C   0  0  0  0  0  0  0  0  0  0  0  0
   10.3355   -9.5829    0.9928 C   0  0  0  0  0  0  0  0  0  0  0  0
    6.9280  -10.3797    2.0017 O   0  0  0  0  0  0  0  0  0  0  0  0
    9.1591  -10.1645    1.6822 N   0  0  0  0  0  0  0  0  0  0  0  0
    9.4005  -11.3559    2.4539 C   0  0  0  0  0  0  0  0  0  0  0  0
  9  8  1  0  0  0
  9 10  2  0  0  0
  8  7  1  0  0  0
 10 11  1  0  0  0
  7 11  2  0  0  0
  7  5  1  0  0  0
 11  1  1  0  0  0
  4  5  2  0  0  0
  5  6  1  0  0  0
 16 14  2  0  0  0
 16 17  1  0  0  0
 14 13  1  0  0  0
  1 17  1  0  0  0
  1  2  2  0  0  0
 17 15  2  0  0  0
  6  2  1  0  0  0
  6  3  1  0  0  0
 13 18  2  0  0  0
 15 18  1  0  0  0
 18 19  1  0  0  0
 19 21  2  0  0  0
 19 22  1  0  0  0
 20 22  1  0  0  0
 22 23  1  0  0  0
  8 12  1  0  0  0
M  END
> <minimizedAffinity>
-7.61049

$$$$
5I29_67B_A_1701


 23 25  0  0  0  0  0  0  0  0999 V2000
    4.9523   -8.5163   -4.0105 C   0  0  0  0  0  0  0  0  0  0  0  0
    5.9540   -8.6021   -4.9559 C   0  0  0  0  0  0  0  0  0  0  0  0
    8.2196   -8.4525   -5.7831 C   0  0  0  0  0  0  0  0  0  0  0  0
    8.9459   -7.9260   -3.2460 O   0  0  0  0  0  0  0  0  0  0  0  0
    7.7536   -8.1158   -3.4553 C   0  0  0  0  0  0  0  0  0  0  0  0
    7.2556   -8.4200   -4.6827 N   0  0  0  0  0  0  0  0  0  0  0  0
    6.7475   -8.0586   -2.4107 C   0  0  0  0  0  0  0  0  0  0  0  0
    6.9134   -7.7501   -1.1081 N   0  0  0  0  0  0  0  0  0  0  0  0
    5.6532   -7.7178   -0.5320 C   0  0  0  0  0  0  0  0  0  0  0  0
    4.6695   -7.9934   -1.4583 C   0  0  0  0  0  0  0  0  0  0  0  0
    5.3865   -8.2160   -2.6976 C   0  0  0  0  0  0  0  0  0  0  0  0
    7.7692   -7.5799   -0.6521 H   0  0  0  0  0  0  0  0  0  0  0  0
    0.8441   -9.2444   -5.0580 C   0  0  0  0  0  0  0  0  0  0  0  0
    1.8154   -9.0847   -6.0308 C   0  0  0  0  0  0  0  0  0  0  0  0
    2.5346   -8.8846   -3.4059 C   0  0  0  0  0  0  0  0  0  0  0  0
    3.1139   -8.8393   -5.7206 C   0  0  0  0  0  0  0  0  0  0  0  0
    3.5105   -8.7243   -4.4053 C   0  0  0  0  0  0  0  0  0  0  0  0
    1.2178   -9.0759   -3.7242 C   0  0  0  0  0  0  0  0  0  0  0  0
    0.2532   -9.2531   -2.6003 C   0  0  0  0  0  0  0  0  0  0  0  0
   -1.6851   -9.3884   -4.1166 C   0  0  0  0  0  0  0  0  0  0  0  0
    0.7373   -9.1923   -1.4041 O   0  0  0  0  0  0  0  0  0  0  0  0
   -1.0379   -9.4551   -2.7846 N   0  0  0  0  0  0  0  0  0  0  0  0
   -1.9228   -9.5557   -1.6532 C   0  0  0  0  0  0  0  0  0  0  0  0
  9  8  1  0  0  0
  9 10  2  0  0  0
  8  7  1  0  0  0
 10 11  1  0  0  0
  7 11  2  0  0  0
  7  5  1  0  0  0
 11  1  1  0  0  0
  4  5  2  0  0  0
  5  6  1  0  0  0
 16 14  2  0  0  0
 16 17  1  0  0  0
 14 13  1  0  0  0
  1 17  1  0  0  0
  1  2  2  0  0  0
 17 15  2  0  0  0
  6  2  1  0  0  0
  6  3  1  0  0  0
 13 18  2  0  0  0
 15 18  1  0  0  0
 18 19  1  0  0  0
 19 21  2  0  0  0
 19 22  1  0  0  0
 20 22  1  0  0  0
 22 23  1  0  0  0
  8 12  1  0  0  0
M  END
> <minimizedAffinity>
-7.44956

$$$$
5I29_67B_A_1701


 23 25  0  0  0  0  0  0  0  0999 V2000
    4.0752   -7.9449   -7.1397 C   0  0  0  0  0  0  0  0  0  0  0  0
    5.3642   -7.9924   -6.6492 C   0  0  0  0  0  0  0  0  0  0  0  0
    7.0754   -8.3907   -4.9900 C   0  0  0  0  0  0  0  0  0  0  0  0
    5.1110   -9.3476   -3.4193 O   0  0  0  0  0  0  0  0  0  0  0  0
    4.7888   -8.9481   -4.5319 C   0  0  0  0  0  0  0  0  0  0  0  0
    5.6837   -8.4685   -5.4353 N   0  0  0  0  0  0  0  0  0  0  0  0
    3.4197   -8.9651   -5.0134 C   0  0  0  0  0  0  0  0  0  0  0  0
    2.3070   -9.3451   -4.3522 N   0  0  0  0  0  0  0  0  0  0  0  0
    1.2283   -9.0801   -5.1812 C   0  0  0  0  0  0  0  0  0  0  0  0
    1.6360   -8.5196   -6.3733 C   0  0  0  0  0  0  0  0  0  0  0  0
    3.0787   -8.4400   -6.2655 C   0  0  0  0  0  0  0  0  0  0  0  0
    2.2685   -9.7371   -3.4499 H   0  0  0  0  0  0  0  0  0  0  0  0
    3.2354   -6.2153  -10.9878 C   0  0  0  0  0  0  0  0  0  0  0  0
    2.6866   -7.4286  -10.6110 C   0  0  0  0  0  0  0  0  0  0  0  0
    4.3665   -6.1491   -8.8824 C   0  0  0  0  0  0  0  0  0  0  0  0
    2.9515   -7.9978   -9.4074 C   0  0  0  0  0  0  0  0  0  0  0  0
    3.8017   -7.3827   -8.5134 C   0  0  0  0  0  0  0  0  0  0  0  0
    4.1412   -5.6069  -10.1181 C   0  0  0  0  0  0  0  0  0  0  0  0
    4.7669   -4.2866  -10.4186 C   0  0  0  0  0  0  0  0  0  0  0  0
    6.7463   -5.3188  -11.4631 C   0  0  0  0  0  0  0  0  0  0  0  0
    4.1436   -3.2381   -9.9932 O   0  0  0  0  0  0  0  0  0  0  0  0
    5.9040   -4.1617  -11.0767 N   0  0  0  0  0  0  0  0  0  0  0  0
    6.4837   -2.8592  -11.2780 C   0  0  0  0  0  0  0  0  0  0  0  0
  9  8  1  0  0  0
  9 10  2  0  0  0
  8  7  1  0  0  0
 10 11  1  0  0  0
  7 11  2  0  0  0
  7  5  1  0  0  0
 11  1  1  0  0  0
  4  5  2  0  0  0
  5  6  1  0  0  0
 16 14  2  0  0  0
 16 17  1  0  0  0
 14 13  1  0  0  0
  1 17  1  0  0  0
  1  2  2  0  0  0
 17 15  2  0  0  0
  6  2  1  0  0  0
  6  3  1  0  0  0
 13 18  2  0  0  0
 15 18  1  0  0  0
 18 19  1  0  0  0
 19 21  2  0  0  0
 19 22  1  0  0  0
 20 22  1  0  0  0
 22 23  1  0  0  0
  8 12  1  0  0  0
M  END
> <minimizedAffinity>
-7.12895

$$$$
5I29_67B_A_1701


 23 25  0  0  0  0  0  0  0  0999 V2000
    0.9990   -9.1145   -3.0368 C   0  0  0  0  0  0  0  0  0  0  0  0
    0.1107   -9.1016   -4.0929 C   0  0  0  0  0  0  0  0  0  0  0  0
   -2.0593   -9.2441   -5.1467 C   0  0  0  0  0  0  0  0  0  0  0  0
   -3.0825   -9.4030   -2.6629 O   0  0  0  0  0  0  0  0  0  0  0  0
   -1.8652   -9.3010   -2.7575 C   0  0  0  0  0  0  0  0  0  0  0  0
   -1.2215   -9.1823   -3.9486 N   0  0  0  0  0  0  0  0  0  0  0  0
   -0.9812   -9.2730   -1.6067 C   0  0  0  0  0  0  0  0  0  0  0  0
   -1.3036   -9.4027   -0.3033 N   0  0  0  0  0  0  0  0  0  0  0  0
   -0.1162   -9.4229    0.4115 C   0  0  0  0  0  0  0  0  0  0  0  0
    0.9756   -9.3179   -0.4243 C   0  0  0  0  0  0  0  0  0  0  0  0
    0.4098   -9.2214   -1.7547 C   0  0  0  0  0  0  0  0  0  0  0  0
   -2.2120   -9.4702    0.0703 H   0  0  0  0  0  0  0  0  0  0  0  0
    5.2224   -8.7199   -3.7520 C   0  0  0  0  0  0  0  0  0  0  0  0
    4.4026   -9.3885   -4.6444 C   0  0  0  0  0  0  0  0  0  0  0  0
    3.3052   -8.3485   -2.3725 C   0  0  0  0  0  0  0  0  0  0  0  0
    3.0706   -9.5366   -4.4290 C   0  0  0  0  0  0  0  0  0  0  0  0
    2.4847   -9.0306   -3.2883 C   0  0  0  0  0  0  0  0  0  0  0  0
    4.6560   -8.2505   -2.5663 C   0  0  0  0  0  0  0  0  0  0  0  0
    5.4471   -7.4946   -1.5526 C   0  0  0  0  0  0  0  0  0  0  0  0
    6.0617   -9.5388   -0.3208 C   0  0  0  0  0  0  0  0  0  0  0  0
    5.4384   -6.2065   -1.6515 O   0  0  0  0  0  0  0  0  0  0  0  0
    6.1260   -8.0816   -0.5851 N   0  0  0  0  0  0  0  0  0  0  0  0
    6.8176   -7.2882    0.3974 C   0  0  0  0  0  0  0  0  0  0  0  0
  9  8  1  0  0  0
  9 10  2  0  0  0
  8  7  1  0  0  0
 10 11  1  0  0  0
  7 11  2  0  0  0
  7  5  1  0  0  0
 11  1  1  0  0  0
  4  5  2  0  0  0
  5  6  1  0  0  0
 16 14  2  0  0  0
 16 17  1  0  0  0
 14 13  1  0  0  0
  1 17  1  0  0  0
  1  2  2  0  0  0
 17 15  2  0  0  0
  6  2  1  0  0  0
  6  3  1  0  0  0
 13 18  2  0  0  0
 15 18  1  0  0  0
 18 19  1  0  0  0
 19 21  2  0  0  0
 19 22  1  0  0  0
 20 22  1  0  0  0
 22 23  1  0  0  0
  8 12  1  0  0  0
M  END
> <minimizedAffinity>
-6.94649

$$$$
5I29_67B_A_1701


 23 25  0  0  0  0  0  0  0  0999 V2000
    4.9395   -8.5262   -2.9359 C   0  0  0  0  0  0  0  0  0  0  0  0
    3.5698   -8.6527   -3.0473 C   0  0  0  0  0  0  0  0  0  0  0  0
    1.4562   -8.7605   -4.2138 C   0  0  0  0  0  0  0  0  0  0  0  0
    2.8856   -8.6650   -6.4918 O   0  0  0  0  0  0  0  0  0  0  0  0
    3.5132   -8.6391   -5.4398 C   0  0  0  0  0  0  0  0  0  0  0  0
    2.9186   -8.7110   -4.2198 N   0  0  0  0  0  0  0  0  0  0  0  0
    4.9609   -8.5520   -5.3835 C   0  0  0  0  0  0  0  0  0  0  0  0
    5.8304   -8.4331   -6.4079 N   0  0  0  0  0  0  0  0  0  0  0  0
    7.0922   -8.2738   -5.8568 C   0  0  0  0  0  0  0  0  0  0  0  0
    7.0431   -8.2780   -4.4787 C   0  0  0  0  0  0  0  0  0  0  0  0
    5.6405   -8.4585   -4.1632 C   0  0  0  0  0  0  0  0  0  0  0  0
    5.6100   -8.4553   -7.3672 H   0  0  0  0  0  0  0  0  0  0  0  0
    6.8491   -8.4739    0.9183 C   0  0  0  0  0  0  0  0  0  0  0  0
    5.4848   -8.2801    0.7905 C   0  0  0  0  0  0  0  0  0  0  0  0
    6.9786   -8.6552   -1.4623 C   0  0  0  0  0  0  0  0  0  0  0  0
    4.8662   -8.2780   -0.4177 C   0  0  0  0  0  0  0  0  0  0  0  0
    5.5914   -8.4567   -1.5765 C   0  0  0  0  0  0  0  0  0  0  0  0
    7.6055   -8.6005   -0.2474 C   0  0  0  0  0  0  0  0  0  0  0  0
    9.0776   -8.8394   -0.2174 C   0  0  0  0  0  0  0  0  0  0  0  0
    9.4440   -7.1530    1.5422 C   0  0  0  0  0  0  0  0  0  0  0  0
    9.5477   -9.6787   -1.0796 O   0  0  0  0  0  0  0  0  0  0  0  0
    9.8883   -8.2333    0.6295 N   0  0  0  0  0  0  0  0  0  0  0  0
   11.3080   -8.4637    0.5623 C   0  0  0  0  0  0  0  0  0  0  0  0
  9  8  1  0  0  0
  9 10  2  0  0  0
  8  7  1  0  0  0
 10 11  1  0  0  0
  7 11  2  0  0  0
  7  5  1  0  0  0
 11  1  1  0  0  0
  4  5  2  0  0  0
  5  6  1  0  0  0
 16 14  2  0  0  0
 16 17  1  0  0  0
 14 13  1  0  0  0
  1 17  1  0  0  0
  1  2  2  0  0  0
 17 15  2  0  0  0
  6  2  1  0  0  0
  6  3  1  0  0  0
 13 18  2  0  0  0
 15 18  1  0  0  0
 18 19  1  0  0  0
 19 21  2  0  0  0
 19 22  1  0  0  0
 20 22  1  0  0  0
 22 23  1  0  0  0
  8 12  1  0  0  0
M  END
> <minimizedAffinity>
-6.75617

$$$$
5I29_67B_A_1701


 23 25  0  0  0  0  0  0  0  0999 V2000
    8.2157   -8.5917   -1.2370 C   0  0  0  0  0  0  0  0  0  0  0  0
    8.5472   -9.3634   -0.1420 C   0  0  0  0  0  0  0  0  0  0  0  0
    8.1311  -10.5586    1.9166 C   0  0  0  0  0  0  0  0  0  0  0  0
    5.5296   -9.9796    1.5451 O   0  0  0  0  0  0  0  0  0  0  0  0
    6.3163   -9.5728    0.6985 C   0  0  0  0  0  0  0  0  0  0  0  0
    7.6519   -9.8197    0.7482 N   0  0  0  0  0  0  0  0  0  0  0  0
    5.9039   -8.8028   -0.4607 C   0  0  0  0  0  0  0  0  0  0  0  0
    4.6667   -8.3681   -0.7767 N   0  0  0  0  0  0  0  0  0  0  0  0
    4.7870   -7.5833   -1.9129 C   0  0  0  0  0  0  0  0  0  0  0  0
    6.0991   -7.4984   -2.3287 C   0  0  0  0  0  0  0  0  0  0  0  0
    6.8381   -8.2985   -1.3731 C   0  0  0  0  0  0  0  0  0  0  0  0
    3.8343   -8.5704   -0.2915 H   0  0  0  0  0  0  0  0  0  0  0  0
   11.2724   -7.3605   -4.0020 C   0  0  0  0  0  0  0  0  0  0  0  0
   11.4816   -7.3171   -2.6347 C   0  0  0  0  0  0  0  0  0  0  0  0
    9.0607   -8.1598   -3.5706 C   0  0  0  0  0  0  0  0  0  0  0  0
   10.5245   -7.6869   -1.7460 C   0  0  0  0  0  0  0  0  0  0  0  0
    9.2877   -8.1101   -2.1839 C   0  0  0  0  0  0  0  0  0  0  0  0
   10.0083   -7.7331   -4.4605 C   0  0  0  0  0  0  0  0  0  0  0  0
    9.6890   -7.8372   -5.9138 C   0  0  0  0  0  0  0  0  0  0  0  0
   10.5583  -10.1381   -6.0703 C   0  0  0  0  0  0  0  0  0  0  0  0
    9.2126   -6.7790   -6.4813 O   0  0  0  0  0  0  0  0  0  0  0  0
    9.8799   -8.9383   -6.6159 N   0  0  0  0  0  0  0  0  0  0  0  0
    9.6084   -8.9505   -8.0299 C   0  0  0  0  0  0  0  0  0  0  0  0
  9  8  1  0  0  0
  9 10  2  0  0  0
  8  7  1  0  0  0
 10 11  1  0  0  0
  7 11  2  0  0  0
  7  5  1  0  0  0
 11  1  1  0  0  0
  4  5  2  0  0  0
  5  6  1  0  0  0
 16 14  2  0  0  0
 16 17  1  0  0  0
 14 13  1  0  0  0
  1 17  1  0  0  0
  1  2  2  0  0  0
 17 15  2  0  0  0
  6  2  1  0  0  0
  6  3  1  0  0  0
 13 18  2  0  0  0
 15 18  1  0  0  0
 18 19  1  0  0  0
 19 21  2  0  0  0
 19 22  1  0  0  0
 20 22  1  0  0  0
 22 23  1  0  0  0
  8 12  1  0  0  0
M  END
> <minimizedAffinity>
-6.69093

$$$$
