5F9B_5VN_B_501


 39 43  0  0  0  0  0  0  0  0999 V2000
   39.0076  -10.1444   40.3042 C   0  0  0  0  0  0  0  0  0  0  0  0
   37.8987   -9.8679   41.2566 C   0  0  0  0  0  0  0  0  0  0  0  0
   37.5072   -8.4843   40.9652 C   0  0  0  0  0  0  0  0  0  0  0  0
   36.7207   -8.2926   39.6039 C   0  0  0  0  0  0  0  0  0  0  0  0
   37.4303   -8.6326   38.3812 O   0  0  0  0  0  0  0  0  0  0  0  0
   35.4597   -9.0640   39.7771 C   0  0  0  0  0  0  0  0  0  0  0  0
   34.4175   -8.8364   38.6753 C   0  0  0  0  0  0  0  0  0  0  0  0
   34.7207   -9.6249   37.3987 C   0  0  0  0  0  0  0  0  0  0  0  0
   34.8298  -11.1173   37.7045 C   0  0  0  0  0  0  0  0  0  0  0  0
   33.5363  -11.6457   38.2798 C   0  0  0  0  0  0  0  0  0  0  0  0
   35.0377  -11.9195   36.4354 C   0  0  0  0  0  0  0  0  0  0  0  0
   35.9807  -11.3114   38.6704 C   0  0  0  0  0  0  0  0  0  0  0  0
   35.6590  -10.5616   39.9700 C   0  0  0  0  0  0  0  0  0  0  0  0
   36.7248  -10.8183   41.0224 C   0  0  0  0  0  0  0  0  0  0  0  0
   36.5393  -11.9841   41.7428 C   0  0  0  0  0  0  0  0  0  0  0  0
   37.5122  -12.3525   42.8103 C   0  0  0  0  0  0  0  0  0  0  0  0
   38.7954  -11.6241   42.4762 C   0  0  0  0  0  0  0  0  0  0  0  0
   38.5676  -10.0760   42.6069 C   0  0  0  0  0  0  0  0  0  0  0  0
   37.6923   -9.5927   43.7974 C   0  0  0  0  0  0  0  0  0  0  0  0
   39.9324   -9.2980   42.5872 C   0  0  0  0  0  0  0  0  0  0  0  0
   41.0328   -9.9577   43.4284 C   0  0  0  0  0  0  0  0  0  0  0  0
   41.2046  -11.3987   42.9358 C   0  0  0  0  0  0  0  0  0  0  0  0
   39.9226  -12.2237   43.2422 C   0  0  0  0  0  0  0  0  0  0  0  0
   39.4575  -12.3173   44.6822 C   0  0  0  0  0  0  0  0  0  0  0  0
   40.1455  -13.6146   42.7391 C   0  0  0  0  0  0  0  0  0  0  0  0
   41.3054  -14.2338   43.4905 C   0  0  0  0  0  0  0  0  0  0  0  0
   42.5532  -13.5207   43.0769 C   0  0  0  0  0  0  0  0  0  0  0  0
   43.6863  -14.1251   43.7191 O   0  0  0  0  0  0  0  0  0  0  0  0
   42.4868  -12.0536   43.4772 C   0  0  0  0  0  0  0  0  0  0  0  0
   42.5993  -11.9333   44.9863 C   0  0  0  0  0  0  0  0  0  0  0  0
   37.6510   -9.5771   38.3873 H   0  0  0  0  0  0  0  0  0  0  0  0
   43.5882  -14.0545   44.6816 H   0  0  0  0  0  0  0  0  0  0  0  0
   35.0152   -8.4671   41.0975 C   0  0  0  0  0  0  0  0  0  0  0  0
   35.0671   -7.2273   41.2308 O   0  0  0  0  0  0  0  0  0  0  0  0
   34.4642   -9.2504   41.8948 O   0  0  0  0  0  0  0  0  0  0  0  0
   35.5012   -6.7045   40.5857 H   0  0  0  0  0  0  0  0  0  0  0  0
   43.6816  -11.3661   42.8620 C   0  0  0  0  0  0  0  0  0  0  0  0
   43.9518  -11.9337   41.5777 O   0  0  0  0  0  0  0  0  0  0  0  0
   43.1799  -11.8141   41.0025 H   0  0  0  0  0  0  0  0  0  0  0  0
 38 37  1  0  0  0
 37 29  1  0  0  0
 28 27  1  0  0  0
 30 29  1  0  0  0
 29 27  1  0  0  0
 29 22  1  0  0  0
 27 26  1  0  0  0
 22 21  1  0  0  0
 22 23  1  0  0  0
 21 20  1  0  0  0
 26 25  1  0  0  0
 20 18  1  0  0  0
 25 23  1  0  0  0
 23 24  1  0  0  0
 23 17  1  0  0  0
  1  2  1  0  0  0
 17 18  1  0  0  0
 17 16  1  0  0  0
 18 19  1  0  0  0
 18  2  1  0  0  0
  2  3  1  0  0  0
  2 14  1  0  0  0
  3  4  1  0  0  0
  5  4  1  0  0  0
 16 15  1  0  0  0
  4  6  1  0  0  0
 14 15  2  0  0  0
 14 13  1  0  0  0
 12 13  1  0  0  0
 12  9  1  0  0  0
 13  6  1  0  0  0
  6 33  1  0  0  0
  6  7  1  0  0  0
 33 35  2  0  0  0
 33 34  1  0  0  0
 11  9  1  0  0  0
  8  9  1  0  0  0
  8  7  1  0  0  0
  9 10  1  0  0  0
  5 31  1  0  0  0
 34 36  1  0  0  0
 28 32  1  0  0  0
 38 39  1  0  0  0
M  END
> <minimizedAffinity>
-7.86602

$$$$
5F9B_5VN_B_501


 39 43  0  0  0  0  0  0  0  0999 V2000
   38.4687   -9.5604   39.7666 C   0  0  0  0  0  0  0  0  0  0  0  0
   37.3465   -9.8821   40.6886 C   0  0  0  0  0  0  0  0  0  0  0  0
   37.5088  -11.3124   40.9719 C   0  0  0  0  0  0  0  0  0  0  0  0
   38.7237  -11.6637   41.9255 C   0  0  0  0  0  0  0  0  0  0  0  0
   40.0550  -11.3343   41.4425 O   0  0  0  0  0  0  0  0  0  0  0  0
   38.3971  -11.0078   43.2210 C   0  0  0  0  0  0  0  0  0  0  0  0
   39.3151  -11.4030   44.3841 C   0  0  0  0  0  0  0  0  0  0  0  0
   40.6591  -10.6706   44.3557 C   0  0  0  0  0  0  0  0  0  0  0  0
   40.4447   -9.1583   44.3593 C   0  0  0  0  0  0  0  0  0  0  0  0
   39.7047   -8.7218   45.6024 C   0  0  0  0  0  0  0  0  0  0  0  0
   41.7672   -8.4209   44.4250 C   0  0  0  0  0  0  0  0  0  0  0  0
   39.6757   -8.7944   43.1057 C   0  0  0  0  0  0  0  0  0  0  0  0
   38.3082   -9.4888   43.1531 C   0  0  0  0  0  0  0  0  0  0  0  0
   37.4439   -9.0654   41.9770 C   0  0  0  0  0  0  0  0  0  0  0  0
   36.7598   -7.8801   42.1754 C   0  0  0  0  0  0  0  0  0  0  0  0
   35.8718   -7.3537   41.1002 C   0  0  0  0  0  0  0  0  0  0  0  0
   36.3626   -7.9748   39.8110 C   0  0  0  0  0  0  0  0  0  0  0  0
   36.1253   -9.5265   39.8541 C   0  0  0  0  0  0  0  0  0  0  0  0
   34.7937  -10.0162   40.4899 C   0  0  0  0  0  0  0  0  0  0  0  0
   36.3158  -10.1693   38.4333 C   0  0  0  0  0  0  0  0  0  0  0  0
   35.6844   -9.3555   37.2963 C   0  0  0  0  0  0  0  0  0  0  0  0
   36.2653   -7.9383   37.3502 C   0  0  0  0  0  0  0  0  0  0  0  0
   35.8066   -7.2229   38.6524 C   0  0  0  0  0  0  0  0  0  0  0  0
   34.3187   -7.0844   38.9082 C   0  0  0  0  0  0  0  0  0  0  0  0
   36.4033   -5.8513   38.6523 C   0  0  0  0  0  0  0  0  0  0  0  0
   35.8677   -5.0776   37.4658 C   0  0  0  0  0  0  0  0  0  0  0  0
   36.4323   -5.6919   36.2246 C   0  0  0  0  0  0  0  0  0  0  0  0
   35.9997   -4.9423   35.0789 O   0  0  0  0  0  0  0  0  0  0  0  0
   35.9574   -7.1306   36.0779 C   0  0  0  0  0  0  0  0  0  0  0  0
   34.4790   -7.1447   35.7331 C   0  0  0  0  0  0  0  0  0  0  0  0
   40.1274  -10.3744   41.3233 H   0  0  0  0  0  0  0  0  0  0  0  0
   35.0313   -4.9616   35.0267 H   0  0  0  0  0  0  0  0  0  0  0  0
   36.9976  -11.5608   43.4020 C   0  0  0  0  0  0  0  0  0  0  0  0
   36.1070  -10.7880   43.8112 O   0  0  0  0  0  0  0  0  0  0  0  0
   36.8012  -12.7095   42.9607 O   0  0  0  0  0  0  0  0  0  0  0  0
   36.3353   -9.9367   44.1292 H   0  0  0  0  0  0  0  0  0  0  0  0
   36.7142   -7.7372   34.9212 C   0  0  0  0  0  0  0  0  0  0  0  0
   36.1542   -7.2770   33.6887 O   0  0  0  0  0  0  0  0  0  0  0  0
   36.2197   -6.3103   33.6447 H   0  0  0  0  0  0  0  0  0  0  0  0
 38 37  1  0  0  0
 37 29  1  0  0  0
 28 27  1  0  0  0
 30 29  1  0  0  0
 29 27  1  0  0  0
 29 22  1  0  0  0
 27 26  1  0  0  0
 22 21  1  0  0  0
 22 23  1  0  0  0
 21 20  1  0  0  0
 26 25  1  0  0  0
 20 18  1  0  0  0
 25 23  1  0  0  0
 23 24  1  0  0  0
 23 17  1  0  0  0
  1  2  1  0  0  0
 17 18  1  0  0  0
 17 16  1  0  0  0
 18 19  1  0  0  0
 18  2  1  0  0  0
  2  3  1  0  0  0
  2 14  1  0  0  0
  3  4  1  0  0  0
  5  4  1  0  0  0
 16 15  1  0  0  0
  4  6  1  0  0  0
 14 15  2  0  0  0
 14 13  1  0  0  0
 12 13  1  0  0  0
 12  9  1  0  0  0
 13  6  1  0  0  0
  6 33  1  0  0  0
  6  7  1  0  0  0
 33 35  2  0  0  0
 33 34  1  0  0  0
 11  9  1  0  0  0
  8  9  1  0  0  0
  8  7  1  0  0  0
  9 10  1  0  0  0
  5 31  1  0  0  0
 34 36  1  0  0  0
 28 32  1  0  0  0
 38 39  1  0  0  0
M  END
> <minimizedAffinity>
-7.12798

$$$$
5F9B_5VN_B_501


 39 43  0  0  0  0  0  0  0  0999 V2000
   40.5683  -10.6020   46.5751 C   0  0  0  0  0  0  0  0  0  0  0  0
   41.7268  -10.9113   45.6945 C   0  0  0  0  0  0  0  0  0  0  0  0
   42.8592  -10.2315   46.3332 C   0  0  0  0  0  0  0  0  0  0  0  0
   43.3716  -10.9125   47.6682 C   0  0  0  0  0  0  0  0  0  0  0  0
   42.4343  -10.9705   48.7783 O   0  0  0  0  0  0  0  0  0  0  0  0
   43.8615  -12.2546   47.2510 C   0  0  0  0  0  0  0  0  0  0  0  0
   44.6293  -13.0181   48.3370 C   0  0  0  0  0  0  0  0  0  0  0  0
   43.7062  -13.6780   49.3646 C   0  0  0  0  0  0  0  0  0  0  0  0
   42.7205  -14.6177   48.6732 C   0  0  0  0  0  0  0  0  0  0  0  0
   43.4501  -15.7146   47.9330 C   0  0  0  0  0  0  0  0  0  0  0  0
   41.8620  -15.3480   49.6865 C   0  0  0  0  0  0  0  0  0  0  0  0
   41.8713  -13.7895   47.7306 C   0  0  0  0  0  0  0  0  0  0  0  0
   42.7872  -13.1646   46.6699 C   0  0  0  0  0  0  0  0  0  0  0  0
   41.9756  -12.4178   45.6245 C   0  0  0  0  0  0  0  0  0  0  0  0
   41.4830  -13.2201   44.6115 C   0  0  0  0  0  0  0  0  0  0  0  0
   40.6729  -12.6114   43.5183 C   0  0  0  0  0  0  0  0  0  0  0  0
   40.1147  -11.3222   44.0795 C   0  0  0  0  0  0  0  0  0  0  0  0
   41.2914  -10.3214   44.3617 C   0  0  0  0  0  0  0  0  0  0  0  0
   42.4404  -10.2750   43.3154 C   0  0  0  0  0  0  0  0  0  0  0  0
   40.7502   -8.8723   44.6364 C   0  0  0  0  0  0  0  0  0  0  0  0
   39.6243   -8.4420   43.6872 C   0  0  0  0  0  0  0  0  0  0  0  0
   38.5038   -9.4833   43.7802 C   0  0  0  0  0  0  0  0  0  0  0  0
   38.9955  -10.8479   43.2198 C   0  0  0  0  0  0  0  0  0  0  0  0
   39.5046  -10.8950   41.7925 C   0  0  0  0  0  0  0  0  0  0  0  0
   37.8665  -11.8219   43.3382 C   0  0  0  0  0  0  0  0  0  0  0  0
   36.7079  -11.3438   42.4883 C   0  0  0  0  0  0  0  0  0  0  0  0
   36.1547  -10.1066   43.1207 C   0  0  0  0  0  0  0  0  0  0  0  0
   35.0093   -9.6598   42.3790 O   0  0  0  0  0  0  0  0  0  0  0  0
   37.1982   -8.9984   43.1272 C   0  0  0  0  0  0  0  0  0  0  0  0
   37.4166   -8.4983   41.7105 C   0  0  0  0  0  0  0  0  0  0  0  0
   41.6675  -11.5085   48.5262 H   0  0  0  0  0  0  0  0  0  0  0  0
   35.2733   -9.4561   41.4682 H   0  0  0  0  0  0  0  0  0  0  0  0
   44.7763  -11.8156   46.1250 C   0  0  0  0  0  0  0  0  0  0  0  0
   45.4435  -10.7724   46.2806 O   0  0  0  0  0  0  0  0  0  0  0  0
   44.9251  -12.6281   45.1919 O   0  0  0  0  0  0  0  0  0  0  0  0
   45.2711  -10.2105   47.0103 H   0  0  0  0  0  0  0  0  0  0  0  0
   36.6385   -7.8598   43.9450 C   0  0  0  0  0  0  0  0  0  0  0  0
   35.9631   -6.9390   43.0846 O   0  0  0  0  0  0  0  0  0  0  0  0
   35.2382   -7.3947   42.6287 H   0  0  0  0  0  0  0  0  0  0  0  0
 38 37  1  0  0  0
 37 29  1  0  0  0
 28 27  1  0  0  0
 30 29  1  0  0  0
 29 27  1  0  0  0
 29 22  1  0  0  0
 27 26  1  0  0  0
 22 21  1  0  0  0
 22 23  1  0  0  0
 21 20  1  0  0  0
 26 25  1  0  0  0
 20 18  1  0  0  0
 25 23  1  0  0  0
 23 24  1  0  0  0
 23 17  1  0  0  0
  1  2  1  0  0  0
 17 18  1  0  0  0
 17 16  1  0  0  0
 18 19  1  0  0  0
 18  2  1  0  0  0
  2  3  1  0  0  0
  2 14  1  0  0  0
  3  4  1  0  0  0
  5  4  1  0  0  0
 16 15  1  0  0  0
  4  6  1  0  0  0
 14 15  2  0  0  0
 14 13  1  0  0  0
 12 13  1  0  0  0
 12  9  1  0  0  0
 13  6  1  0  0  0
  6 33  1  0  0  0
  6  7  1  0  0  0
 33 35  2  0  0  0
 33 34  1  0  0  0
 11  9  1  0  0  0
  8  9  1  0  0  0
  8  7  1  0  0  0
  9 10  1  0  0  0
  5 31  1  0  0  0
 34 36  1  0  0  0
 28 32  1  0  0  0
 38 39  1  0  0  0
M  END
> <minimizedAffinity>
-6.92531

$$$$
5F9B_5VN_B_501


 39 43  0  0  0  0  0  0  0  0999 V2000
   39.9632   -9.0037   42.7028 C   0  0  0  0  0  0  0  0  0  0  0  0
   39.0714  -10.1170   43.1253 C   0  0  0  0  0  0  0  0  0  0  0  0
   37.9542   -9.4494   43.8025 C   0  0  0  0  0  0  0  0  0  0  0  0
   36.9582   -8.6844   42.8373 C   0  0  0  0  0  0  0  0  0  0  0  0
   37.5062   -7.5770   42.0709 O   0  0  0  0  0  0  0  0  0  0  0  0
   36.3631   -9.7457   41.9801 C   0  0  0  0  0  0  0  0  0  0  0  0
   35.1838   -9.2805   41.1173 C   0  0  0  0  0  0  0  0  0  0  0  0
   35.6274   -8.5215   39.8641 C   0  0  0  0  0  0  0  0  0  0  0  0
   36.5727   -9.3793   39.0254 C   0  0  0  0  0  0  0  0  0  0  0  0
   35.8927  -10.6530   38.5799 C   0  0  0  0  0  0  0  0  0  0  0  0
   36.9465   -8.6762   37.7358 C   0  0  0  0  0  0  0  0  0  0  0  0
   37.7994   -9.6755   39.8637 C   0  0  0  0  0  0  0  0  0  0  0  0
   37.3654  -10.4780   41.0975 C   0  0  0  0  0  0  0  0  0  0  0  0
   38.5710  -10.9077   41.9167 C   0  0  0  0  0  0  0  0  0  0  0  0
   39.1727  -12.0703   41.4710 C   0  0  0  0  0  0  0  0  0  0  0  0
   40.3643  -12.6048   42.1893 C   0  0  0  0  0  0  0  0  0  0  0  0
   40.9719  -11.4298   42.9235 C   0  0  0  0  0  0  0  0  0  0  0  0
   39.9772  -10.9351   44.0333 C   0  0  0  0  0  0  0  0  0  0  0  0
   39.2099  -12.0295   44.8275 C   0  0  0  0  0  0  0  0  0  0  0  0
   40.6819   -9.9404   45.0244 C   0  0  0  0  0  0  0  0  0  0  0  0
   42.0943  -10.3749   45.4369 C   0  0  0  0  0  0  0  0  0  0  0  0
   42.9203  -10.5704   44.1609 C   0  0  0  0  0  0  0  0  0  0  0  0
   42.3605  -11.7673   43.3411 C   0  0  0  0  0  0  0  0  0  0  0  0
   42.2858  -13.1241   44.0135 C   0  0  0  0  0  0  0  0  0  0  0  0
   43.2000  -11.9086   42.1112 C   0  0  0  0  0  0  0  0  0  0  0  0
   44.6235  -12.2288   42.5165 C   0  0  0  0  0  0  0  0  0  0  0  0
   45.1959  -11.0163   43.1789 C   0  0  0  0  0  0  0  0  0  0  0  0
   46.5698  -11.2586   43.5183 O   0  0  0  0  0  0  0  0  0  0  0  0
   44.4262  -10.6899   44.4509 C   0  0  0  0  0  0  0  0  0  0  0  0
   44.7255  -11.7371   45.5084 C   0  0  0  0  0  0  0  0  0  0  0  0
   38.1959   -7.9069   41.4738 H   0  0  0  0  0  0  0  0  0  0  0  0
   46.6239  -12.0074   44.1325 H   0  0  0  0  0  0  0  0  0  0  0  0
   35.9135  -10.6897   43.0774 C   0  0  0  0  0  0  0  0  0  0  0  0
   35.2875  -10.2120   44.0457 O   0  0  0  0  0  0  0  0  0  0  0  0
   36.0524  -11.9060   42.8446 O   0  0  0  0  0  0  0  0  0  0  0  0
   35.2277   -9.2831   44.1526 H   0  0  0  0  0  0  0  0  0  0  0  0
   44.9323   -9.3592   44.9526 C   0  0  0  0  0  0  0  0  0  0  0  0
   45.7118   -8.7282   43.9335 O   0  0  0  0  0  0  0  0  0  0  0  0
   45.1623   -8.5878   43.1466 H   0  0  0  0  0  0  0  0  0  0  0  0
 38 37  1  0  0  0
 37 29  1  0  0  0
 28 27  1  0  0  0
 30 29  1  0  0  0
 29 27  1  0  0  0
 29 22  1  0  0  0
 27 26  1  0  0  0
 22 21  1  0  0  0
 22 23  1  0  0  0
 21 20  1  0  0  0
 26 25  1  0  0  0
 20 18  1  0  0  0
 25 23  1  0  0  0
 23 24  1  0  0  0
 23 17  1  0  0  0
  1  2  1  0  0  0
 17 18  1  0  0  0
 17 16  1  0  0  0
 18 19  1  0  0  0
 18  2  1  0  0  0
  2  3  1  0  0  0
  2 14  1  0  0  0
  3  4  1  0  0  0
  5  4  1  0  0  0
 16 15  1  0  0  0
  4  6  1  0  0  0
 14 15  2  0  0  0
 14 13  1  0  0  0
 12 13  1  0  0  0
 12  9  1  0  0  0
 13  6  1  0  0  0
  6 33  1  0  0  0
  6  7  1  0  0  0
 33 35  2  0  0  0
 33 34  1  0  0  0
 11  9  1  0  0  0
  8  9  1  0  0  0
  8  7  1  0  0  0
  9 10  1  0  0  0
  5 31  1  0  0  0
 34 36  1  0  0  0
 28 32  1  0  0  0
 38 39  1  0  0  0
M  END
> <minimizedAffinity>
-6.82337

$$$$
5F9B_5VN_B_501


 39 43  0  0  0  0  0  0  0  0999 V2000
   40.7581  -12.8451   41.5671 C   0  0  0  0  0  0  0  0  0  0  0  0
   40.8779  -12.5993   43.0294 C   0  0  0  0  0  0  0  0  0  0  0  0
   41.2505  -13.9041   43.5869 C   0  0  0  0  0  0  0  0  0  0  0  0
   42.7400  -14.3506   43.2861 C   0  0  0  0  0  0  0  0  0  0  0  0
   43.0991  -14.5441   41.8904 O   0  0  0  0  0  0  0  0  0  0  0  0
   43.5899  -13.3376   43.9694 C   0  0  0  0  0  0  0  0  0  0  0  0
   45.0817  -13.6892   44.0220 C   0  0  0  0  0  0  0  0  0  0  0  0
   45.8063  -13.4035   42.7042 C   0  0  0  0  0  0  0  0  0  0  0  0
   45.6357  -11.9388   42.3061 C   0  0  0  0  0  0  0  0  0  0  0  0
   46.2124  -11.0229   43.3606 C   0  0  0  0  0  0  0  0  0  0  0  0
   46.4248  -11.6198   41.0520 C   0  0  0  0  0  0  0  0  0  0  0  0
   44.1566  -11.6810   42.1036 C   0  0  0  0  0  0  0  0  0  0  0  0
   43.4326  -11.9200   43.4352 C   0  0  0  0  0  0  0  0  0  0  0  0
   41.9602  -11.5610   43.3241 C   0  0  0  0  0  0  0  0  0  0  0  0
   41.6898  -10.2175   43.5098 C   0  0  0  0  0  0  0  0  0  0  0  0
   40.2828   -9.7320   43.4312 C   0  0  0  0  0  0  0  0  0  0  0  0
   39.5312  -10.7584   42.6124 C   0  0  0  0  0  0  0  0  0  0  0  0
   39.4819  -12.1185   43.3957 C   0  0  0  0  0  0  0  0  0  0  0  0
   39.2529  -12.0369   44.9313 C   0  0  0  0  0  0  0  0  0  0  0  0
   38.4510  -13.1103   42.7463 C   0  0  0  0  0  0  0  0  0  0  0  0
   37.1312  -12.4469   42.3315 C   0  0  0  0  0  0  0  0  0  0  0  0
   37.4619  -11.2870   41.3859 C   0  0  0  0  0  0  0  0  0  0  0  0
   38.2393  -10.1793   42.1516 C   0  0  0  0  0  0  0  0  0  0  0  0
   37.5889   -9.5615   43.3738 C   0  0  0  0  0  0  0  0  0  0  0  0
   38.5364   -9.0792   41.1827 C   0  0  0  0  0  0  0  0  0  0  0  0
   37.2326   -8.4925   40.6835 C   0  0  0  0  0  0  0  0  0  0  0  0
   36.5626   -9.5223   39.8308 C   0  0  0  0  0  0  0  0  0  0  0  0
   35.3521   -8.9777   39.2831 O   0  0  0  0  0  0  0  0  0  0  0  0
   36.2176  -10.7548   40.6547 C   0  0  0  0  0  0  0  0  0  0  0  0
   35.0866  -10.4254   41.6123 C   0  0  0  0  0  0  0  0  0  0  0  0
   43.0112  -13.7035   41.4144 H   0  0  0  0  0  0  0  0  0  0  0  0
   34.7536   -8.7296   40.0050 H   0  0  0  0  0  0  0  0  0  0  0  0
   42.9521  -13.4044   45.3427 C   0  0  0  0  0  0  0  0  0  0  0  0
   42.6133  -14.5226   45.7813 O   0  0  0  0  0  0  0  0  0  0  0  0
   42.9722  -12.3507   46.0077 O   0  0  0  0  0  0  0  0  0  0  0  0
   42.6247  -15.2704   45.2168 H   0  0  0  0  0  0  0  0  0  0  0  0
   35.7269  -11.8125   39.6960 C   0  0  0  0  0  0  0  0  0  0  0  0
   34.2981  -11.7877   39.6462 O   0  0  0  0  0  0  0  0  0  0  0  0
   34.0002  -10.9156   39.3436 H   0  0  0  0  0  0  0  0  0  0  0  0
 38 37  1  0  0  0
 37 29  1  0  0  0
 28 27  1  0  0  0
 30 29  1  0  0  0
 29 27  1  0  0  0
 29 22  1  0  0  0
 27 26  1  0  0  0
 22 21  1  0  0  0
 22 23  1  0  0  0
 21 20  1  0  0  0
 26 25  1  0  0  0
 20 18  1  0  0  0
 25 23  1  0  0  0
 23 24  1  0  0  0
 23 17  1  0  0  0
  1  2  1  0  0  0
 17 18  1  0  0  0
 17 16  1  0  0  0
 18 19  1  0  0  0
 18  2  1  0  0  0
  2  3  1  0  0  0
  2 14  1  0  0  0
  3  4  1  0  0  0
  5  4  1  0  0  0
 16 15  1  0  0  0
  4  6  1  0  0  0
 14 15  2  0  0  0
 14 13  1  0  0  0
 12 13  1  0  0  0
 12  9  1  0  0  0
 13  6  1  0  0  0
  6 33  1  0  0  0
  6  7  1  0  0  0
 33 35  2  0  0  0
 33 34  1  0  0  0
 11  9  1  0  0  0
  8  9  1  0  0  0
  8  7  1  0  0  0
  9 10  1  0  0  0
  5 31  1  0  0  0
 34 36  1  0  0  0
 28 32  1  0  0  0
 38 39  1  0  0  0
M  END
> <minimizedAffinity>
-6.50303

$$$$
5F9B_5VN_B_501


 39 43  0  0  0  0  0  0  0  0999 V2000
   40.2055   -9.8775   46.5472 C   0  0  0  0  0  0  0  0  0  0  0  0
   41.4044   -9.5164   45.7439 C   0  0  0  0  0  0  0  0  0  0  0  0
   41.9965   -8.3844   46.4654 C   0  0  0  0  0  0  0  0  0  0  0  0
   42.7133   -8.7687   47.8245 C   0  0  0  0  0  0  0  0  0  0  0  0
   41.8794   -9.3437   48.8677 O   0  0  0  0  0  0  0  0  0  0  0  0
   43.8401   -9.6560   47.4268 C   0  0  0  0  0  0  0  0  0  0  0  0
   44.8313   -9.9706   48.5539 C   0  0  0  0  0  0  0  0  0  0  0  0
   44.3209  -11.0524   49.5092 C   0  0  0  0  0  0  0  0  0  0  0  0
   43.9899  -12.3311   48.7422 C   0  0  0  0  0  0  0  0  0  0  0  0
   45.2147  -12.8715   48.0412 C   0  0  0  0  0  0  0  0  0  0  0  0
   43.5716  -13.4400   49.6868 C   0  0  0  0  0  0  0  0  0  0  0  0
   42.8883  -12.0085   47.7534 C   0  0  0  0  0  0  0  0  0  0  0  0
   43.4122  -10.9589   46.7641 C   0  0  0  0  0  0  0  0  0  0  0  0
   42.3898  -10.6828   45.6744 C   0  0  0  0  0  0  0  0  0  0  0  0
   42.4292  -11.5786   44.6215 C   0  0  0  0  0  0  0  0  0  0  0  0
   41.4810  -11.4184   43.4826 C   0  0  0  0  0  0  0  0  0  0  0  0
   40.3148  -10.6177   44.0189 C   0  0  0  0  0  0  0  0  0  0  0  0
   40.8001   -9.1714   44.3912 C   0  0  0  0  0  0  0  0  0  0  0  0
   41.8184   -8.5018   43.4258 C   0  0  0  0  0  0  0  0  0  0  0  0
   39.5822   -8.2118   44.6445 C   0  0  0  0  0  0  0  0  0  0  0  0
   38.4462   -8.3719   43.6258 C   0  0  0  0  0  0  0  0  0  0  0  0
   38.0099   -9.8410   43.6312 C   0  0  0  0  0  0  0  0  0  0  0  0
   39.1573  -10.7403   43.0905 C   0  0  0  0  0  0  0  0  0  0  0  0
   39.6938  -10.4594   41.7006 C   0  0  0  0  0  0  0  0  0  0  0  0
   38.6782  -12.1570   43.1213 C   0  0  0  0  0  0  0  0  0  0  0  0
   37.4843  -12.2968   42.2001 C   0  0  0  0  0  0  0  0  0  0  0  0
   36.3453  -11.5414   42.8071 C   0  0  0  0  0  0  0  0  0  0  0  0
   35.1731  -11.7063   41.9944 O   0  0  0  0  0  0  0  0  0  0  0  0
   36.6761  -10.0583   42.8965 C   0  0  0  0  0  0  0  0  0  0  0  0
   36.6834   -9.4548   41.5035 C   0  0  0  0  0  0  0  0  0  0  0  0
   41.5085  -10.1849   48.5583 H   0  0  0  0  0  0  0  0  0  0  0  0
   35.3440  -11.3568   41.1058 H   0  0  0  0  0  0  0  0  0  0  0  0
   44.4613   -8.7642   46.3703 C   0  0  0  0  0  0  0  0  0  0  0  0
   44.5199   -7.5378   46.5947 O   0  0  0  0  0  0  0  0  0  0  0  0
   45.0275   -9.3469   45.4255 O   0  0  0  0  0  0  0  0  0  0  0  0
   44.0647   -7.1735   47.3282 H   0  0  0  0  0  0  0  0  0  0  0  0
   35.5719   -9.3991   43.6870 C   0  0  0  0  0  0  0  0  0  0  0  0
   35.0209   -8.3182   42.9304 O   0  0  0  0  0  0  0  0  0  0  0  0
   34.6611   -8.6578   42.0961 H   0  0  0  0  0  0  0  0  0  0  0  0
 38 37  1  0  0  0
 37 29  1  0  0  0
 28 27  1  0  0  0
 30 29  1  0  0  0
 29 27  1  0  0  0
 29 22  1  0  0  0
 27 26  1  0  0  0
 22 21  1  0  0  0
 22 23  1  0  0  0
 21 20  1  0  0  0
 26 25  1  0  0  0
 20 18  1  0  0  0
 25 23  1  0  0  0
 23 24  1  0  0  0
 23 17  1  0  0  0
  1  2  1  0  0  0
 17 18  1  0  0  0
 17 16  1  0  0  0
 18 19  1  0  0  0
 18  2  1  0  0  0
  2  3  1  0  0  0
  2 14  1  0  0  0
  3  4  1  0  0  0
  5  4  1  0  0  0
 16 15  1  0  0  0
  4  6  1  0  0  0
 14 15  2  0  0  0
 14 13  1  0  0  0
 12 13  1  0  0  0
 12  9  1  0  0  0
 13  6  1  0  0  0
  6 33  1  0  0  0
  6  7  1  0  0  0
 33 35  2  0  0  0
 33 34  1  0  0  0
 11  9  1  0  0  0
  8  9  1  0  0  0
  8  7  1  0  0  0
  9 10  1  0  0  0
  5 31  1  0  0  0
 34 36  1  0  0  0
 28 32  1  0  0  0
 38 39  1  0  0  0
M  END
> <minimizedAffinity>
-6.39652

$$$$
5F9B_5VN_B_501


 39 43  0  0  0  0  0  0  0  0999 V2000
   42.7847   -9.3121   43.4391 C   0  0  0  0  0  0  0  0  0  0  0  0
   42.8241  -10.4137   44.4380 C   0  0  0  0  0  0  0  0  0  0  0  0
   44.1111  -11.0756   44.1972 C   0  0  0  0  0  0  0  0  0  0  0  0
   45.3769  -10.2553   44.6804 C   0  0  0  0  0  0  0  0  0  0  0  0
   45.6124   -8.9718   44.0390 O   0  0  0  0  0  0  0  0  0  0  0  0
   45.2238  -10.1473   46.1569 C   0  0  0  0  0  0  0  0  0  0  0  0
   46.4549   -9.5958   46.8861 C   0  0  0  0  0  0  0  0  0  0  0  0
   46.5696   -8.0723   46.7898 C   0  0  0  0  0  0  0  0  0  0  0  0
   45.3074   -7.4052   47.3326 C   0  0  0  0  0  0  0  0  0  0  0  0
   45.0901   -7.7632   48.7845 C   0  0  0  0  0  0  0  0  0  0  0  0
   45.4446   -5.8957   47.3291 C   0  0  0  0  0  0  0  0  0  0  0  0
   44.1402   -7.8514   46.4760 C   0  0  0  0  0  0  0  0  0  0  0  0
   43.9919   -9.3731   46.6074 C   0  0  0  0  0  0  0  0  0  0  0  0
   42.7616   -9.8644   45.8631 C   0  0  0  0  0  0  0  0  0  0  0  0
   41.5867   -9.7677   46.5861 C   0  0  0  0  0  0  0  0  0  0  0  0
   40.3056  -10.2202   45.9732 C   0  0  0  0  0  0  0  0  0  0  0  0
   40.5184  -10.1725   44.4761 C   0  0  0  0  0  0  0  0  0  0  0  0
   41.5990  -11.2357   44.0669 C   0  0  0  0  0  0  0  0  0  0  0  0
   41.5463  -12.6076   44.7966 C   0  0  0  0  0  0  0  0  0  0  0  0
   41.6231  -11.4504   42.5108 C   0  0  0  0  0  0  0  0  0  0  0  0
   40.2289  -11.5302   41.8756 C   0  0  0  0  0  0  0  0  0  0  0  0
   39.4645  -10.2562   42.2516 C   0  0  0  0  0  0  0  0  0  0  0  0
   39.2013  -10.2244   43.7838 C   0  0  0  0  0  0  0  0  0  0  0  0
   38.4386  -11.3786   44.4041 C   0  0  0  0  0  0  0  0  0  0  0  0
   38.4583   -8.9632   44.0918 C   0  0  0  0  0  0  0  0  0  0  0  0
   37.1239   -8.9864   43.3762 C   0  0  0  0  0  0  0  0  0  0  0  0
   37.3881   -8.8732   41.9085 C   0  0  0  0  0  0  0  0  0  0  0  0
   36.1408   -8.8240   41.1990 O   0  0  0  0  0  0  0  0  0  0  0  0
   38.1861  -10.0723   41.4161 C   0  0  0  0  0  0  0  0  0  0  0  0
   37.3065  -11.3095   41.4335 C   0  0  0  0  0  0  0  0  0  0  0  0
   44.8692   -8.3766   44.2243 H   0  0  0  0  0  0  0  0  0  0  0  0
   35.6413   -9.6384   41.3665 H   0  0  0  0  0  0  0  0  0  0  0  0
   45.0044  -11.6152   46.4642 C   0  0  0  0  0  0  0  0  0  0  0  0
   45.6752  -12.4563   45.8315 O   0  0  0  0  0  0  0  0  0  0  0  0
   44.2908  -11.8669   47.4543 O   0  0  0  0  0  0  0  0  0  0  0  0
   46.1885  -12.1881   45.0950 H   0  0  0  0  0  0  0  0  0  0  0  0
   38.5760   -9.7945   39.9845 C   0  0  0  0  0  0  0  0  0  0  0  0
   37.4209   -9.8882   39.1469 O   0  0  0  0  0  0  0  0  0  0  0  0
   36.7606   -9.2377   39.4328 H   0  0  0  0  0  0  0  0  0  0  0  0
 38 37  1  0  0  0
 37 29  1  0  0  0
 28 27  1  0  0  0
 30 29  1  0  0  0
 29 27  1  0  0  0
 29 22  1  0  0  0
 27 26  1  0  0  0
 22 21  1  0  0  0
 22 23  1  0  0  0
 21 20  1  0  0  0
 26 25  1  0  0  0
 20 18  1  0  0  0
 25 23  1  0  0  0
 23 24  1  0  0  0
 23 17  1  0  0  0
  1  2  1  0  0  0
 17 18  1  0  0  0
 17 16  1  0  0  0
 18 19  1  0  0  0
 18  2  1  0  0  0
  2  3  1  0  0  0
  2 14  1  0  0  0
  3  4  1  0  0  0
  5  4  1  0  0  0
 16 15  1  0  0  0
  4  6  1  0  0  0
 14 15  2  0  0  0
 14 13  1  0  0  0
 12 13  1  0  0  0
 12  9  1  0  0  0
 13  6  1  0  0  0
  6 33  1  0  0  0
  6  7  1  0  0  0
 33 35  2  0  0  0
 33 34  1  0  0  0
 11  9  1  0  0  0
  8  9  1  0  0  0
  8  7  1  0  0  0
  9 10  1  0  0  0
  5 31  1  0  0  0
 34 36  1  0  0  0
 28 32  1  0  0  0
 38 39  1  0  0  0
M  END
> <minimizedAffinity>
-5.42329

$$$$
5F9B_5VN_B_501


 39 43  0  0  0  0  0  0  0  0999 V2000
   38.8208  -11.6100   44.4996 C   0  0  0  0  0  0  0  0  0  0  0  0
   39.2278  -11.1906   43.1315 C   0  0  0  0  0  0  0  0  0  0  0  0
   38.1969  -11.7596   42.2564 C   0  0  0  0  0  0  0  0  0  0  0  0
   36.7912  -11.0336   42.3321 C   0  0  0  0  0  0  0  0  0  0  0  0
   36.1026  -11.0664   43.6123 O   0  0  0  0  0  0  0  0  0  0  0  0
   37.0466   -9.6505   41.8452 C   0  0  0  0  0  0  0  0  0  0  0  0
   35.7822   -8.8180   41.6006 C   0  0  0  0  0  0  0  0  0  0  0  0
   35.1858   -8.2502   42.8911 C   0  0  0  0  0  0  0  0  0  0  0  0
   36.2212   -7.4085   43.6343 C   0  0  0  0  0  0  0  0  0  0  0  0
   36.6811   -6.2462   42.7852 C   0  0  0  0  0  0  0  0  0  0  0  0
   35.6169   -6.7644   44.8661 C   0  0  0  0  0  0  0  0  0  0  0  0
   37.3796   -8.3134   44.0012 C   0  0  0  0  0  0  0  0  0  0  0  0
   38.0107   -8.8471   42.7083 C   0  0  0  0  0  0  0  0  0  0  0  0
   39.2539   -9.6672   43.0099 C   0  0  0  0  0  0  0  0  0  0  0  0
   40.4037   -8.9149   43.1663 C   0  0  0  0  0  0  0  0  0  0  0  0
   41.6956   -9.5975   43.4613 C   0  0  0  0  0  0  0  0  0  0  0  0
   41.3329  -10.9346   44.0690 C   0  0  0  0  0  0  0  0  0  0  0  0
   40.6065  -11.8185   42.9934 C   0  0  0  0  0  0  0  0  0  0  0  0
   41.1589  -11.7539   41.5415 C   0  0  0  0  0  0  0  0  0  0  0  0
   40.4987  -13.3129   43.4659 C   0  0  0  0  0  0  0  0  0  0  0  0
   41.7780  -13.8482   44.1221 C   0  0  0  0  0  0  0  0  0  0  0  0
   42.1363  -12.9189   45.2869 C   0  0  0  0  0  0  0  0  0  0  0  0
   42.5251  -11.5131   44.7478 C   0  0  0  0  0  0  0  0  0  0  0  0
   43.6687  -11.4164   43.7572 C   0  0  0  0  0  0  0  0  0  0  0  0
   42.8605  -10.6517   45.9237 C   0  0  0  0  0  0  0  0  0  0  0  0
   44.0577  -11.2378   46.6424 C   0  0  0  0  0  0  0  0  0  0  0  0
   43.6288  -12.5227   47.2761 C   0  0  0  0  0  0  0  0  0  0  0  0
   44.7216  -13.0764   48.0250 O   0  0  0  0  0  0  0  0  0  0  0  0
   43.2038  -13.5260   46.2132 C   0  0  0  0  0  0  0  0  0  0  0  0
   44.4248  -14.0018   45.4468 C   0  0  0  0  0  0  0  0  0  0  0  0
   36.6355  -10.6040   44.2780 H   0  0  0  0  0  0  0  0  0  0  0  0
   45.4657  -13.2532   47.4284 H   0  0  0  0  0  0  0  0  0  0  0  0
   37.7451   -9.9991   40.5461 C   0  0  0  0  0  0  0  0  0  0  0  0
   37.1154  -10.6646   39.6986 O   0  0  0  0  0  0  0  0  0  0  0  0
   38.8429   -9.4436   40.3483 O   0  0  0  0  0  0  0  0  0  0  0  0
   36.2930  -11.0527   39.9245 H   0  0  0  0  0  0  0  0  0  0  0  0
   42.6081  -14.7135   46.9297 C   0  0  0  0  0  0  0  0  0  0  0  0
   41.9706  -14.2766   48.1327 O   0  0  0  0  0  0  0  0  0  0  0  0
   41.2667  -13.6457   47.9148 H   0  0  0  0  0  0  0  0  0  0  0  0
 38 37  1  0  0  0
 37 29  1  0  0  0
 28 27  1  0  0  0
 30 29  1  0  0  0
 29 27  1  0  0  0
 29 22  1  0  0  0
 27 26  1  0  0  0
 22 21  1  0  0  0
 22 23  1  0  0  0
 21 20  1  0  0  0
 26 25  1  0  0  0
 20 18  1  0  0  0
 25 23  1  0  0  0
 23 24  1  0  0  0
 23 17  1  0  0  0
  1  2  1  0  0  0
 17 18  1  0  0  0
 17 16  1  0  0  0
 18 19  1  0  0  0
 18  2  1  0  0  0
  2  3  1  0  0  0
  2 14  1  0  0  0
  3  4  1  0  0  0
  5  4  1  0  0  0
 16 15  1  0  0  0
  4  6  1  0  0  0
 14 15  2  0  0  0
 14 13  1  0  0  0
 12 13  1  0  0  0
 12  9  1  0  0  0
 13  6  1  0  0  0
  6 33  1  0  0  0
  6  7  1  0  0  0
 33 35  2  0  0  0
 33 34  1  0  0  0
 11  9  1  0  0  0
  8  9  1  0  0  0
  8  7  1  0  0  0
  9 10  1  0  0  0
  5 31  1  0  0  0
 34 36  1  0  0  0
 28 32  1  0  0  0
 38 39  1  0  0  0
M  END
> <minimizedAffinity>
-5.28284

$$$$
5F9B_5VN_B_501


 39 43  0  0  0  0  0  0  0  0999 V2000
   37.5238   -8.4365   38.1837 C   0  0  0  0  0  0  0  0  0  0  0  0
   36.2859   -7.6195   38.2986 C   0  0  0  0  0  0  0  0  0  0  0  0
   36.7683   -6.2346   38.3409 C   0  0  0  0  0  0  0  0  0  0  0  0
   37.3064   -5.6795   36.9585 C   0  0  0  0  0  0  0  0  0  0  0  0
   38.4642   -6.3484   36.3874 O   0  0  0  0  0  0  0  0  0  0  0  0
   36.1244   -5.6908   36.0540 C   0  0  0  0  0  0  0  0  0  0  0  0
   36.3388   -4.9708   34.7171 C   0  0  0  0  0  0  0  0  0  0  0  0
   37.1170   -5.8159   33.7053 C   0  0  0  0  0  0  0  0  0  0  0  0
   36.4109   -7.1488   33.4654 C   0  0  0  0  0  0  0  0  0  0  0  0
   35.0203   -6.9308   32.9156 C   0  0  0  0  0  0  0  0  0  0  0  0
   37.1203   -7.9565   32.3970 C   0  0  0  0  0  0  0  0  0  0  0  0
   36.3702   -7.8973   34.7820 C   0  0  0  0  0  0  0  0  0  0  0  0
   35.5500   -7.0756   35.7855 C   0  0  0  0  0  0  0  0  0  0  0  0
   35.3736   -7.8332   37.0909 C   0  0  0  0  0  0  0  0  0  0  0  0
   34.3211   -8.7303   37.0867 C   0  0  0  0  0  0  0  0  0  0  0  0
   34.0354   -9.5357   38.3079 C   0  0  0  0  0  0  0  0  0  0  0  0
   35.3268   -9.5744   39.0951 C   0  0  0  0  0  0  0  0  0  0  0  0
   35.6774   -8.1282   39.5966 C   0  0  0  0  0  0  0  0  0  0  0  0
   34.4943   -7.2515   40.0955 C   0  0  0  0  0  0  0  0  0  0  0  0
   36.8184   -8.1631   40.6760 C   0  0  0  0  0  0  0  0  0  0  0  0
   36.6589   -9.2863   41.7089 C   0  0  0  0  0  0  0  0  0  0  0  0
   36.5661  -10.6153   40.9516 C   0  0  0  0  0  0  0  0  0  0  0  0
   35.2585  -10.6604   40.1112 C   0  0  0  0  0  0  0  0  0  0  0  0
   33.9365  -10.4869   40.8328 C   0  0  0  0  0  0  0  0  0  0  0  0
   35.2231  -11.9729   39.3947 C   0  0  0  0  0  0  0  0  0  0  0  0
   35.1777  -13.0928   40.4131 C   0  0  0  0  0  0  0  0  0  0  0  0
   36.4970  -13.1272   41.1166 C   0  0  0  0  0  0  0  0  0  0  0  0
   36.5167  -14.2217   42.0457 O   0  0  0  0  0  0  0  0  0  0  0  0
   36.7284  -11.8309   41.8801 C   0  0  0  0  0  0  0  0  0  0  0  0
   35.7920  -11.7703   43.0734 C   0  0  0  0  0  0  0  0  0  0  0  0
   38.2404   -7.2718   36.1921 H   0  0  0  0  0  0  0  0  0  0  0  0
   35.8133  -14.1010   42.7026 H   0  0  0  0  0  0  0  0  0  0  0  0
   35.1573   -4.9369   36.9449 C   0  0  0  0  0  0  0  0  0  0  0  0
   35.3341   -3.7115   37.1023 O   0  0  0  0  0  0  0  0  0  0  0  0
   34.1497   -5.5684   37.3173 O   0  0  0  0  0  0  0  0  0  0  0  0
   36.1214   -3.3082   36.7933 H   0  0  0  0  0  0  0  0  0  0  0  0
   38.1459  -11.8620   42.3979 C   0  0  0  0  0  0  0  0  0  0  0  0
   38.1379  -12.1499   43.7984 O   0  0  0  0  0  0  0  0  0  0  0  0
   37.7212  -13.0128   43.9488 H   0  0  0  0  0  0  0  0  0  0  0  0
 38 37  1  0  0  0
 37 29  1  0  0  0
 28 27  1  0  0  0
 30 29  1  0  0  0
 29 27  1  0  0  0
 29 22  1  0  0  0
 27 26  1  0  0  0
 22 21  1  0  0  0
 22 23  1  0  0  0
 21 20  1  0  0  0
 26 25  1  0  0  0
 20 18  1  0  0  0
 25 23  1  0  0  0
 23 24  1  0  0  0
 23 17  1  0  0  0
  1  2  1  0  0  0
 17 18  1  0  0  0
 17 16  1  0  0  0
 18 19  1  0  0  0
 18  2  1  0  0  0
  2  3  1  0  0  0
  2 14  1  0  0  0
  3  4  1  0  0  0
  5  4  1  0  0  0
 16 15  1  0  0  0
  4  6  1  0  0  0
 14 15  2  0  0  0
 14 13  1  0  0  0
 12 13  1  0  0  0
 12  9  1  0  0  0
 13  6  1  0  0  0
  6 33  1  0  0  0
  6  7  1  0  0  0
 33 35  2  0  0  0
 33 34  1  0  0  0
 11  9  1  0  0  0
  8  9  1  0  0  0
  8  7  1  0  0  0
  9 10  1  0  0  0
  5 31  1  0  0  0
 34 36  1  0  0  0
 28 32  1  0  0  0
 38 39  1  0  0  0
M  END
> <minimizedAffinity>
-4.98341

$$$$
