5F9B_5VN_B_501
  RCSB PDB12061717373D
Coordinates from PDB:5F9B:B:501 Model:1 without hydrogens
 35 39  0  0  0  0            999 V2000
   38.6170   -9.7070   39.9720   C 0  0  0  0  0  0  0  0  0  0  0  0
   37.6110  -10.0340   41.0180   C 0  0  0  0  0  0  0  0  0  0  0  0
   37.7980  -11.4680   41.2650   C 0  0  0  0  0  0  0  0  0  0  0  0
   39.1160  -11.8350   42.0630   C 0  0  0  0  0  0  0  0  0  0  0  0
   40.3820  -11.5060   41.4280   O 0  0  0  0  0  0  0  0  0  0  0  0
   38.9500  -11.1920   43.3950   C 0  0  0  0  0  0  0  0  0  0  0  0
   37.5790  -11.7410   43.7360   C 0  0  0  0  0  0  0  0  0  0  0  0
   36.6720  -10.9300   44.0140   O 0  0  0  0  0  0  0  0  0  0  0  0
   37.4140  -12.9610   43.5430   O 0  0  0  0  0  0  0  0  0  0  0  0
   39.9980  -11.6040   44.4360   C 0  0  0  0  0  0  0  0  0  0  0  0
   41.3330  -10.8770   44.2550   C 0  0  0  0  0  0  0  0  0  0  0  0
   41.1290   -9.3640   44.3000   C 0  0  0  0  0  0  0  0  0  0  0  0
   40.5450   -8.9380   45.6270   C 0  0  0  0  0  0  0  0  0  0  0  0
   42.4540   -8.6330   44.2150   C 0  0  0  0  0  0  0  0  0  0  0  0
   40.2180   -8.9830   43.1510   C 0  0  0  0  0  0  0  0  0  0  0  0
   38.8620   -9.6720   43.3540   C 0  0  0  0  0  0  0  0  0  0  0  0
   37.8660   -9.2320   42.2940   C 0  0  0  0  0  0  0  0  0  0  0  0
   37.2170   -8.0460   42.5850   C 0  0  0  0  0  0  0  0  0  0  0  0
   36.2100   -7.5040   41.6290   C 0  0  0  0  0  0  0  0  0  0  0  0
   36.5400   -8.1130   40.2840   C 0  0  0  0  0  0  0  0  0  0  0  0
   36.3010   -9.6640   40.3390   C 0  0  0  0  0  0  0  0  0  0  0  0
   35.0520  -10.1550   41.1240   C 0  0  0  0  0  0  0  0  0  0  0  0
   36.3170  -10.2920   38.8990   C 0  0  0  0  0  0  0  0  0  0  0  0
   35.5590   -9.4630   37.8540   C 0  0  0  0  0  0  0  0  0  0  0  0
   36.1500   -8.0490   37.8530   C 0  0  0  0  0  0  0  0  0  0  0  0
   35.8540   -7.3460   39.2080   C 0  0  0  0  0  0  0  0  0  0  0  0
   34.4080   -7.2040   39.6410   C 0  0  0  0  0  0  0  0  0  0  0  0
   36.4540   -5.9770   39.1510   C 0  0  0  0  0  0  0  0  0  0  0  0
   35.7850   -5.1880   38.0450   C 0  0  0  0  0  0  0  0  0  0  0  0
   36.1940   -5.7910   36.7390   C 0  0  0  0  0  0  0  0  0  0  0  0
   35.6320   -5.0270   35.6610   O 0  0  0  0  0  0  0  0  0  0  0  0
   35.6970   -7.2260   36.6350   C 0  0  0  0  0  0  0  0  0  0  0  0
   34.1880   -7.2300   36.4690   C 0  0  0  0  0  0  0  0  0  0  0  0
   36.3070   -7.8230   35.3900   C 0  0  0  0  0  0  0  0  0  0  0  0
   35.8990   -7.0670   34.2470   O 0  0  0  0  0  0  0  0  0  0  0  0
 35 34  1  0  0  0  0
 34 32  1  0  0  0  0
 31 30  1  0  0  0  0
 33 32  1  0  0  0  0
 32 30  1  0  0  0  0
 32 25  1  0  0  0  0
 30 29  1  0  0  0  0
 25 24  1  0  0  0  0
 25 26  1  0  0  0  0
 24 23  1  0  0  0  0
 29 28  1  0  0  0  0
 23 21  1  0  0  0  0
 28 26  1  0  0  0  0
 26 27  1  0  0  0  0
 26 20  1  0  0  0  0
  1  2  1  0  0  0  0
 20 21  1  0  0  0  0
 20 19  1  0  0  0  0
 21 22  1  0  0  0  0
 21  2  1  0  0  0  0
  2  3  1  0  0  0  0
  2 17  1  0  0  0  0
  3  4  1  0  0  0  0
  5  4  1  0  0  0  0
 19 18  1  0  0  0  0
  4  6  1  0  0  0  0
 17 18  2  0  0  0  0
 17 16  1  0  0  0  0
 15 16  1  0  0  0  0
 15 12  1  0  0  0  0
 16  6  1  0  0  0  0
  6  7  1  0  0  0  0
  6 10  1  0  0  0  0
  7  9  2  0  0  0  0
  7  8  1  0  0  0  0
 14 12  1  0  0  0  0
 11 12  1  0  0  0  0
 11 10  1  0  0  0  0
 12 13  1  0  0  0  0
A    1
C21
A    2
C20
A    3
C34
A    4
C31
A    5
O33
A    6
C27
A    7
C28
A    8
O30
A    9
O29
A   10
C35
A   11
C36
A   12
C37
A   13
C38
A   14
C39
A   15
C40
A   16
C25
A   17
C22
A   18
C23
A   19
C24
A   20
C14
A   21
C16
A   22
C17
A   23
C18
A   24
C19
A   25
C1
A   26
C3
A   27
C4
A   28
C5
A   29
C6
A   30
C7
A   31
O9
A   32
C10
A   33
C11
A   34
C12
A   35
O13
M  END
>  <InstanceId>
5F9B_5VN_B_501

>  <ChemCompId>
5VN

>  <PdbId>
5F9B

>  <ChainId>
B

>  <ResidueNumber>
501

>  <InsertionCode>


>  <Model>
1

>  <AltIds>


>  <MissingHeavyAtoms>
0

>  <ObservedFormula>
C30 O5

>  <Name>
Caulophyllogenin

>  <SystematicName>
(4~{a}~{R},5~{R},6~{a}~{R},6~{a}~{S},6~{b}~{R},8~{a}~{R},9~{R},10~{S},12~{a}~{R},14~{b}~{S})-9-(hydroxymethyl)-2,2,6~{a},6~{b},9,12~{a}-hexamethyl-5,10-bis(oxidanyl)-1,3,4,5,6,6~{a},7,8,8~{a},10,11,12,13,14~{b}-tetradecahydropicene-4~{a}-carboxylic acid

>  <Synonyms>


>  <Type>
NON-POLYMER

>  <Formula>
C30 H48 O5

>  <MolecularWeight>
488.699

>  <ModifiedDate>
2016-06-24

>  <Parent>


>  <OneLetterCode>


>  <SubcomponentList>


>  <AmbiguousFlag>
N

>  <InChI>
InChI=1S/C30H48O5/c1-25(2)13-14-30(24(34)35)19(15-25)18-7-8-21-26(3)11-10-22(32)27(4,17-31)20(26)9-12-28(21,5)29(18,6)16-23(30)33/h7,19-23,31-33H,8-17H2,1-6H3,(H,34,35)/t19-,20+,21+,22-,23+,26-,27-,28+,29+,30+/m0/s1

>  <InChIKey>
FABOBEOYNMHSHB-UAWZMHPWSA-N

>  <SMILES>
C[C@]12CC[C@@H]([C@@]([C@@H]1CC[C@@]3([C@@H]2CC=C4[C@]3(C[C@H]([C@@]5([C@H]4CC(CC5)(C)C)C(=O)O)O)C)C)(C)CO)O

$$$$
