4LVT_1XJ_A_301


 67 73  0  0  0  0  0  0  0  0999 V2000
    3.0277   -5.0444  -11.5492 O   0  0  0  0  0  0  0  0  0  0  0  0
    4.4768   -4.8184  -13.5589 O   0  0  0  0  0  0  0  0  0  0  0  0
    4.3440   -4.8542  -12.1173 S   0  0  0  0  0  0  0  0  0  0  0  0
    7.2546   -7.6125  -11.4339 C   0  0  0  0  0  0  0  0  0  0  0  0
    6.4925   -6.6248  -12.0417 C   0  0  0  0  0  0  0  0  0  0  0  0
    6.8753   -8.0836  -10.1950 C   0  0  0  0  0  0  0  0  0  0  0  0
    5.3686   -6.1228  -11.4083 C   0  0  0  0  0  0  0  0  0  0  0  0
    4.9766   -6.5713  -10.1701 C   0  0  0  0  0  0  0  0  0  0  0  0
    5.7655   -7.5276   -9.5956 C   0  0  0  0  0  0  0  0  0  0  0  0
    6.3167   -8.8081   -7.3139 O   0  0  0  0  0  0  0  0  0  0  0  0
    4.4195   -7.1477   -7.3945 O   0  0  0  0  0  0  0  0  0  0  0  0
    5.2512   -8.1485   -8.0449 S   0  0  0  0  0  0  0  0  0  0  0  0
    4.1584   -9.4510   -8.5895 C   0  0  0  0  0  0  0  0  0  0  0  0
    3.0382   -8.9492   -9.1267 F   0  0  0  0  0  0  0  0  0  0  0  0
    4.6970  -10.2289   -9.5687 F   0  0  0  0  0  0  0  0  0  0  0  0
    3.7829  -10.2759   -7.5744 F   0  0  0  0  0  0  0  0  0  0  0  0
    7.5760   -9.0638   -9.4800 N   0  0  0  0  0  0  0  0  0  0  0  0
    7.2050   -9.4982   -8.6782 H   0  0  0  0  0  0  0  0  0  0  0  0
    8.8912   -9.3935  -10.0075 C   0  0  0  0  0  0  0  0  0  0  0  0
    9.9661   -8.5097   -9.3872 C   0  0  0  0  0  0  0  0  0  0  0  0
    9.5755   -7.9949   -7.6774 S   0  0  0  0  0  0  0  0  0  0  0  0
    8.9723   -6.3469   -7.9730 C   0  0  0  0  0  0  0  0  0  0  0  0
    8.0849   -3.7459   -8.3984 C   0  0  0  0  0  0  0  0  0  0  0  0
    7.6494   -4.4682   -7.3112 C   0  0  0  0  0  0  0  0  0  0  0  0
    8.9745   -4.3173   -9.2782 C   0  0  0  0  0  0  0  0  0  0  0  0
    8.0855   -5.7616   -7.1034 C   0  0  0  0  0  0  0  0  0  0  0  0
    9.4104   -5.6114   -9.0583 C   0  0  0  0  0  0  0  0  0  0  0  0
    9.1025  -10.8362   -9.6017 C   0  0  0  0  0  0  0  0  0  0  0  0
    8.0637  -11.7379  -10.2044 C   0  0  0  0  0  0  0  0  0  0  0  0
    6.5226  -11.3824  -12.1007 C   0  0  0  0  0  0  0  0  0  0  0  0
    8.7943  -12.1755  -12.5128 C   0  0  0  0  0  0  0  0  0  0  0  0
    6.5536  -10.8264  -13.5041 C   0  0  0  0  0  0  0  0  0  0  0  0
    8.6477  -11.6448  -13.9162 C   0  0  0  0  0  0  0  0  0  0  0  0
    7.9189  -11.3650  -11.6346 N   0  0  0  0  0  0  0  0  0  0  0  0
    7.2865  -11.7414  -14.3022 O   0  0  0  0  0  0  0  0  0  0  0  0
    6.1411   -2.8754  -12.0505 C   0  0  0  0  0  0  0  0  0  0  0  0
    4.9627   -3.4107  -11.5143 N   0  0  0  0  0  0  0  0  0  0  0  0
    6.7935   -3.4421  -12.9119 O   0  0  0  0  0  0  0  0  0  0  0  0
    4.4967   -2.9422  -10.7846 H   0  0  0  0  0  0  0  0  0  0  0  0
    7.9125   -1.4016  -11.2663 C   0  0  0  0  0  0  0  0  0  0  0  0
    5.6229   -0.8338  -10.7615 C   0  0  0  0  0  0  0  0  0  0  0  0
    8.3230   -0.2875  -10.5741 C   0  0  0  0  0  0  0  0  0  0  0  0
    6.0586    0.2818  -10.0692 C   0  0  0  0  0  0  0  0  0  0  0  0
    6.5614   -1.6557  -11.3580 C   0  0  0  0  0  0  0  0  0  0  0  0
    7.4162    0.5615   -9.9758 C   0  0  0  0  0  0  0  0  0  0  0  0
    6.8435    2.4625   -8.6627 C   0  0  0  0  0  0  0  0  0  0  0  0
    8.8264    2.4676  -10.0519 C   0  0  0  0  0  0  0  0  0  0  0  0
    7.4694    3.4567   -7.7068 C   0  0  0  0  0  0  0  0  0  0  0  0
    9.4718    3.5319   -9.1782 C   0  0  0  0  0  0  0  0  0  0  0  0
    7.9096    1.6802   -9.2607 N   0  0  0  0  0  0  0  0  0  0  0  0
    8.4478    4.3216   -8.4312 N   0  0  0  0  0  0  0  0  0  0  0  0
    9.1075    5.2624   -7.4637 C   0  0  0  0  0  0  0  0  0  0  0  0
    8.1320    6.1270   -6.7291 C   0  0  0  0  0  0  0  0  0  0  0  0
    6.9179    6.9195   -4.7017 C   0  0  0  0  0  0  0  0  0  0  0  0
    7.9389    6.0942   -5.3985 C   0  0  0  0  0  0  0  0  0  0  0  0
    7.3358    7.0285   -7.6059 C   0  0  0  0  0  0  0  0  0  0  0  0
    5.9475    7.5340   -5.6920 C   0  0  0  0  0  0  0  0  0  0  0  0
    6.7001    8.1602   -6.8313 C   0  0  0  0  0  0  0  0  0  0  0  0
    5.7580    8.9311   -7.7290 C   0  0  0  0  0  0  0  0  0  0  0  0
    7.7268    9.1210   -6.2872 C   0  0  0  0  0  0  0  0  0  0  0  0
   10.0529    5.5499   -4.2620 C   0  0  0  0  0  0  0  0  0  0  0  0
    8.1306    4.1854   -3.8510 C   0  0  0  0  0  0  0  0  0  0  0  0
    8.8608    3.4096   -2.9769 C   0  0  0  0  0  0  0  0  0  0  0  0
    8.7266    5.2479   -4.5009 C   0  0  0  0  0  0  0  0  0  0  0  0
   10.1893    3.7118   -2.7581 C   0  0  0  0  0  0  0  0  0  0  0  0
   10.7997    4.7701   -3.3989 C   0  0  0  0  0  0  0  0  0  0  0  0
   11.0949    2.7285   -1.6720 Cl  0  0  0  0  0  0  0  0  0  0  0  0
  2  3  2  0  0  0
 38 36  2  0  0  0
  3  1  2  0  0  0
  3 37  1  0  0  0
  3  7  1  0  0  0
  5  4  2  0  0  0
  5  7  1  0  0  0
 36 37  1  0  0  0
 36 44  1  0  0  0
  4  6  1  0  0  0
  7  8  2  0  0  0
 40 44  2  0  0  0
 40 42  1  0  0  0
 44 41  1  0  0  0
 42 45  2  0  0  0
 41 43  2  0  0  0
 31 34  1  0  0  0
 31 33  1  0  0  0
 29 34  1  0  0  0
 29 28  1  0  0  0
 19 20  1  0  0  0
 19 28  1  0  0  0
 19 17  1  0  0  0
  6  9  2  0  0  0
  6 17  1  0  0  0
 20 21  1  0  0  0
  8  9  1  0  0  0
 47 50  1  0  0  0
 47 49  1  0  0  0
 45 43  1  0  0  0
 45 50  1  0  0  0
 34 30  1  0  0  0
 33 35  1  0  0  0
  9 12  1  0  0  0
 26 24  2  0  0  0
 26 22  1  0  0  0
 24 23  1  0  0  0
 50 46  1  0  0  0
 15 13  1  0  0  0
 49 51  1  0  0  0
 16 13  1  0  0  0
 46 48  1  0  0  0
 51 48  1  0  0  0
 51 52  1  0  0  0
 35 32  1  0  0  0
 30 32  1  0  0  0
 21 22  1  0  0  0
 13 12  1  0  0  0
 13 14  1  0  0  0
 22 27  2  0  0  0
 59 58  1  0  0  0
 23 25  2  0  0  0
 12 11  2  0  0  0
 12 10  2  0  0  0
 56 58  1  0  0  0
 56 53  1  0  0  0
 52 53  1  0  0  0
 58 60  1  0  0  0
 58 57  1  0  0  0
 27 25  1  0  0  0
 53 55  2  0  0  0
 57 54  1  0  0  0
 55 54  1  0  0  0
 55 64  1  0  0  0
 64 61  2  0  0  0
 64 62  1  0  0  0
 61 66  1  0  0  0
 62 63  2  0  0  0
 66 65  2  0  0  0
 63 65  1  0  0  0
 65 67  1  0  0  0
 17 18  1  0  0  0
 37 39  1  0  0  0
M  END
> <minimizedAffinity>
-11.26325

$$$$
4LVT_1XJ_A_301


 67 73  0  0  0  0  0  0  0  0999 V2000
    2.7708   -4.9262  -11.4629 O   0  0  0  0  0  0  0  0  0  0  0  0
    3.9693   -4.6077  -13.6197 O   0  0  0  0  0  0  0  0  0  0  0  0
    4.0148   -4.7506  -12.1794 S   0  0  0  0  0  0  0  0  0  0  0  0
    6.7330   -7.7763  -12.1286 C   0  0  0  0  0  0  0  0  0  0  0  0
    5.9495   -6.7169  -12.5635 C   0  0  0  0  0  0  0  0  0  0  0  0
    6.6004   -8.2181  -10.8294 C   0  0  0  0  0  0  0  0  0  0  0  0
    5.0494   -6.1153  -11.7008 C   0  0  0  0  0  0  0  0  0  0  0  0
    4.9064   -6.5333  -10.3998 C   0  0  0  0  0  0  0  0  0  0  0  0
    5.7115   -7.5639  -10.0037 C   0  0  0  0  0  0  0  0  0  0  0  0
    6.6562   -8.8734   -7.8725 O   0  0  0  0  0  0  0  0  0  0  0  0
    4.9010   -7.0870   -7.5713 O   0  0  0  0  0  0  0  0  0  0  0  0
    5.5042   -8.1441   -8.3682 S   0  0  0  0  0  0  0  0  0  0  0  0
    4.2356   -9.3700   -8.6421 C   0  0  0  0  0  0  0  0  0  0  0  0
    4.5051  -10.1109   -9.7254 F   0  0  0  0  0  0  0  0  0  0  0  0
    4.1276  -10.2672   -7.6236 F   0  0  0  0  0  0  0  0  0  0  0  0
    3.0065   -8.8166   -8.8293 F   0  0  0  0  0  0  0  0  0  0  0  0
    7.3493   -9.2650  -10.2762 N   0  0  0  0  0  0  0  0  0  0  0  0
    6.9635   -9.9123   -9.6427 H   0  0  0  0  0  0  0  0  0  0  0  0
    8.7382   -9.3269  -10.7053 C   0  0  0  0  0  0  0  0  0  0  0  0
    9.6419   -8.5663   -9.7430 C   0  0  0  0  0  0  0  0  0  0  0  0
   10.0621   -6.8861  -10.3271 S   0  0  0  0  0  0  0  0  0  0  0  0
    9.1249   -5.9066   -9.1742 C   0  0  0  0  0  0  0  0  0  0  0  0
    7.7199   -4.3417   -7.3546 C   0  0  0  0  0  0  0  0  0  0  0  0
    8.2533   -5.5522   -6.9759 C   0  0  0  0  0  0  0  0  0  0  0  0
    7.8918   -3.9007   -8.6460 C   0  0  0  0  0  0  0  0  0  0  0  0
    8.9457   -6.3317   -7.8810 C   0  0  0  0  0  0  0  0  0  0  0  0
    8.5922   -4.6858   -9.5439 C   0  0  0  0  0  0  0  0  0  0  0  0
    9.0696  -10.8034  -10.6769 C   0  0  0  0  0  0  0  0  0  0  0  0
    9.1075  -11.3882  -12.0597 C   0  0  0  0  0  0  0  0  0  0  0  0
    6.7843  -12.1463  -12.4139 C   0  0  0  0  0  0  0  0  0  0  0  0
    7.9261  -10.8724  -14.1554 C   0  0  0  0  0  0  0  0  0  0  0  0
    5.4935  -11.6253  -12.9984 C   0  0  0  0  0  0  0  0  0  0  0  0
    6.5615  -10.5032  -14.6792 C   0  0  0  0  0  0  0  0  0  0  0  0
    7.7956  -11.1155  -12.7000 N   0  0  0  0  0  0  0  0  0  0  0  0
    5.6632  -11.5659  -14.4052 O   0  0  0  0  0  0  0  0  0  0  0  0
    5.9480   -2.9036  -12.1618 C   0  0  0  0  0  0  0  0  0  0  0  0
    4.7806   -3.3879  -11.5577 N   0  0  0  0  0  0  0  0  0  0  0  0
    6.4883   -3.4637  -13.1017 O   0  0  0  0  0  0  0  0  0  0  0  0
    4.4083   -2.9307  -10.7693 H   0  0  0  0  0  0  0  0  0  0  0  0
    5.6407   -0.9595  -10.7298 C   0  0  0  0  0  0  0  0  0  0  0  0
    7.8533   -1.4551  -11.5535 C   0  0  0  0  0  0  0  0  0  0  0  0
    6.1445    0.1511  -10.0958 C   0  0  0  0  0  0  0  0  0  0  0  0
    8.3385   -0.3320  -10.9078 C   0  0  0  0  0  0  0  0  0  0  0  0
    6.5077   -1.7555  -11.4460 C   0  0  0  0  0  0  0  0  0  0  0  0
    7.4822    0.4764  -10.1708 C   0  0  0  0  0  0  0  0  0  0  0  0
    6.9453    2.1593   -8.5754 C   0  0  0  0  0  0  0  0  0  0  0  0
    8.4139    2.6415  -10.4388 C   0  0  0  0  0  0  0  0  0  0  0  0
    7.6098    3.2273   -7.7315 C   0  0  0  0  0  0  0  0  0  0  0  0
    9.0599    3.7851   -9.6723 C   0  0  0  0  0  0  0  0  0  0  0  0
    7.9300    1.6466   -9.5101 N   0  0  0  0  0  0  0  0  0  0  0  0
    8.1554    4.3084   -8.6053 N   0  0  0  0  0  0  0  0  0  0  0  0
    8.8654    5.3309   -7.7645 C   0  0  0  0  0  0  0  0  0  0  0  0
    7.9293    6.2364   -7.0279 C   0  0  0  0  0  0  0  0  0  0  0  0
    6.8030    7.1223   -4.9885 C   0  0  0  0  0  0  0  0  0  0  0  0
    7.7865    6.2570   -5.6907 C   0  0  0  0  0  0  0  0  0  0  0  0
    7.1116    7.1147   -7.9084 C   0  0  0  0  0  0  0  0  0  0  0  0
    5.8033    7.7120   -5.9647 C   0  0  0  0  0  0  0  0  0  0  0  0
    6.5199    8.2839   -7.1548 C   0  0  0  0  0  0  0  0  0  0  0  0
    5.5540    9.0329   -8.0457 C   0  0  0  0  0  0  0  0  0  0  0  0
    7.5783    9.2504   -6.6871 C   0  0  0  0  0  0  0  0  0  0  0  0
    9.8958    5.8076   -4.5050 C   0  0  0  0  0  0  0  0  0  0  0  0
    8.0471    4.3221   -4.1862 C   0  0  0  0  0  0  0  0  0  0  0  0
    8.7968    3.5674   -3.3103 C   0  0  0  0  0  0  0  0  0  0  0  0
    8.5971    5.4348   -4.7912 C   0  0  0  0  0  0  0  0  0  0  0  0
   10.0982    3.9411   -3.0441 C   0  0  0  0  0  0  0  0  0  0  0  0
   10.6627    5.0501   -3.6396 C   0  0  0  0  0  0  0  0  0  0  0  0
   11.0293    2.9840   -1.9562 Cl  0  0  0  0  0  0  0  0  0  0  0  0
  2  3  2  0  0  0
 38 36  2  0  0  0
  3  1  2  0  0  0
  3 37  1  0  0  0
  3  7  1  0  0  0
  5  4  2  0  0  0
  5  7  1  0  0  0
 36 37  1  0  0  0
 36 44  1  0  0  0
  4  6  1  0  0  0
  7  8  2  0  0  0
 40 44  2  0  0  0
 40 42  1  0  0  0
 44 41  1  0  0  0
 42 45  2  0  0  0
 41 43  2  0  0  0
 31 34  1  0  0  0
 31 33  1  0  0  0
 29 34  1  0  0  0
 29 28  1  0  0  0
 19 20  1  0  0  0
 19 28  1  0  0  0
 19 17  1  0  0  0
  6  9  2  0  0  0
  6 17  1  0  0  0
 20 21  1  0  0  0
  8  9  1  0  0  0
 47 50  1  0  0  0
 47 49  1  0  0  0
 45 43  1  0  0  0
 45 50  1  0  0  0
 34 30  1  0  0  0
 33 35  1  0  0  0
  9 12  1  0  0  0
 26 24  2  0  0  0
 26 22  1  0  0  0
 24 23  1  0  0  0
 50 46  1  0  0  0
 15 13  1  0  0  0
 49 51  1  0  0  0
 16 13  1  0  0  0
 46 48  1  0  0  0
 51 48  1  0  0  0
 51 52  1  0  0  0
 35 32  1  0  0  0
 30 32  1  0  0  0
 21 22  1  0  0  0
 13 12  1  0  0  0
 13 14  1  0  0  0
 22 27  2  0  0  0
 59 58  1  0  0  0
 23 25  2  0  0  0
 12 11  2  0  0  0
 12 10  2  0  0  0
 56 58  1  0  0  0
 56 53  1  0  0  0
 52 53  1  0  0  0
 58 60  1  0  0  0
 58 57  1  0  0  0
 27 25  1  0  0  0
 53 55  2  0  0  0
 57 54  1  0  0  0
 55 54  1  0  0  0
 55 64  1  0  0  0
 64 61  2  0  0  0
 64 62  1  0  0  0
 61 66  1  0  0  0
 62 63  2  0  0  0
 66 65  2  0  0  0
 63 65  1  0  0  0
 65 67  1  0  0  0
 17 18  1  0  0  0
 37 39  1  0  0  0
M  END
> <minimizedAffinity>
-10.91851

$$$$
4LVT_1XJ_A_301


 67 73  0  0  0  0  0  0  0  0999 V2000
    2.8279   -5.1628  -11.4768 O   0  0  0  0  0  0  0  0  0  0  0  0
    4.1417   -4.9528  -13.5792 O   0  0  0  0  0  0  0  0  0  0  0  0
    4.1048   -4.9828  -12.1318 S   0  0  0  0  0  0  0  0  0  0  0  0
    7.0050   -7.7946  -11.6531 C   0  0  0  0  0  0  0  0  0  0  0  0
    6.2083   -6.8065  -12.2137 C   0  0  0  0  0  0  0  0  0  0  0  0
    6.7427   -8.2168  -10.3672 C   0  0  0  0  0  0  0  0  0  0  0  0
    5.1664   -6.2555  -11.4875 C   0  0  0  0  0  0  0  0  0  0  0  0
    4.8919   -6.6548  -10.2018 C   0  0  0  0  0  0  0  0  0  0  0  0
    5.7128   -7.6134   -9.6780 C   0  0  0  0  0  0  0  0  0  0  0  0
    6.4737   -8.8050   -7.4084 O   0  0  0  0  0  0  0  0  0  0  0  0
    4.5750   -7.1447   -7.3787 O   0  0  0  0  0  0  0  0  0  0  0  0
    5.3444   -8.1720   -8.0634 S   0  0  0  0  0  0  0  0  0  0  0  0
    4.2079   -9.4923   -8.4535 C   0  0  0  0  0  0  0  0  0  0  0  0
    3.0276   -9.0087   -8.8638 F   0  0  0  0  0  0  0  0  0  0  0  0
    4.6353  -10.2836   -9.4759 F   0  0  0  0  0  0  0  0  0  0  0  0
    3.9620  -10.3016   -7.3875 F   0  0  0  0  0  0  0  0  0  0  0  0
    7.4895   -9.1925   -9.6940 N   0  0  0  0  0  0  0  0  0  0  0  0
    7.1194   -9.7198   -8.9495 H   0  0  0  0  0  0  0  0  0  0  0  0
    8.8514   -9.3706  -10.1740 C   0  0  0  0  0  0  0  0  0  0  0  0
    9.8325   -8.5416   -9.3545 C   0  0  0  0  0  0  0  0  0  0  0  0
   10.1642   -6.8965  -10.0788 S   0  0  0  0  0  0  0  0  0  0  0  0
    9.1956   -5.8716   -8.9934 C   0  0  0  0  0  0  0  0  0  0  0  0
    7.6230   -4.3008   -7.3220 C   0  0  0  0  0  0  0  0  0  0  0  0
    7.9722   -3.8596   -8.5777 C   0  0  0  0  0  0  0  0  0  0  0  0
    8.0523   -5.5358   -6.8949 C   0  0  0  0  0  0  0  0  0  0  0  0
    8.7579   -4.6371   -9.4050 C   0  0  0  0  0  0  0  0  0  0  0  0
    8.8339   -6.3101   -7.7333 C   0  0  0  0  0  0  0  0  0  0  0  0
    9.1236  -10.8465   -9.9784 C   0  0  0  0  0  0  0  0  0  0  0  0
    7.8700  -11.6625  -10.1132 C   0  0  0  0  0  0  0  0  0  0  0  0
    6.4425  -11.5023  -12.1216 C   0  0  0  0  0  0  0  0  0  0  0  0
    7.8830  -13.4479  -11.8062 C   0  0  0  0  0  0  0  0  0  0  0  0
    6.5236  -11.7891  -13.6017 C   0  0  0  0  0  0  0  0  0  0  0  0
    7.8014  -13.6596  -13.2966 C   0  0  0  0  0  0  0  0  0  0  0  0
    7.7047  -11.9998  -11.5500 N   0  0  0  0  0  0  0  0  0  0  0  0
    6.5414  -13.1988  -13.7561 O   0  0  0  0  0  0  0  0  0  0  0  0
    5.9127   -3.0139  -12.1938 C   0  0  0  0  0  0  0  0  0  0  0  0
    4.7710   -3.5413  -11.5768 N   0  0  0  0  0  0  0  0  0  0  0  0
    6.5018   -3.5864  -13.0961 O   0  0  0  0  0  0  0  0  0  0  0  0
    4.3584   -3.0682  -10.8183 H   0  0  0  0  0  0  0  0  0  0  0  0
    5.4427   -0.8784  -11.1244 C   0  0  0  0  0  0  0  0  0  0  0  0
    7.7414   -1.5555  -11.4017 C   0  0  0  0  0  0  0  0  0  0  0  0
    5.8753    0.2938  -10.5519 C   0  0  0  0  0  0  0  0  0  0  0  0
    8.1543   -0.3687  -10.8233 C   0  0  0  0  0  0  0  0  0  0  0  0
    6.3860   -1.7947  -11.5353 C   0  0  0  0  0  0  0  0  0  0  0  0
    7.2181    0.5625  -10.3915 C   0  0  0  0  0  0  0  0  0  0  0  0
    9.0236    2.0339   -9.9007 C   0  0  0  0  0  0  0  0  0  0  0  0
    7.0673    1.9546   -8.4766 C   0  0  0  0  0  0  0  0  0  0  0  0
    9.2882    3.4743   -9.5144 C   0  0  0  0  0  0  0  0  0  0  0  0
    7.3321    3.3687   -7.9837 C   0  0  0  0  0  0  0  0  0  0  0  0
    7.5942    1.7993   -9.8126 N   0  0  0  0  0  0  0  0  0  0  0  0
    8.7696    3.7423   -8.1399 N   0  0  0  0  0  0  0  0  0  0  0  0
    8.9815    5.1877   -7.7902 C   0  0  0  0  0  0  0  0  0  0  0  0
    8.5123    5.5322   -6.4118 C   0  0  0  0  0  0  0  0  0  0  0  0
    7.2549    6.8905   -4.7425 C   0  0  0  0  0  0  0  0  0  0  0  0
    7.6553    6.5291   -6.1275 C   0  0  0  0  0  0  0  0  0  0  0  0
    9.1092    4.6930   -5.3371 C   0  0  0  0  0  0  0  0  0  0  0  0
    8.1574    6.2217   -3.7236 C   0  0  0  0  0  0  0  0  0  0  0  0
    8.3159    4.7645   -4.0524 C   0  0  0  0  0  0  0  0  0  0  0  0
    9.0623    4.0499   -2.9478 C   0  0  0  0  0  0  0  0  0  0  0  0
    6.9552    4.1299   -4.1909 C   0  0  0  0  0  0  0  0  0  0  0  0
    5.9539    6.8482   -7.8769 C   0  0  0  0  0  0  0  0  0  0  0  0
    7.4511    8.6458   -7.3736 C   0  0  0  0  0  0  0  0  0  0  0  0
    6.8313    9.4345   -8.3184 C   0  0  0  0  0  0  0  0  0  0  0  0
    7.0211    7.3514   -7.1588 C   0  0  0  0  0  0  0  0  0  0  0  0
    5.7761    8.9155   -9.0404 C   0  0  0  0  0  0  0  0  0  0  0  0
    5.3338    7.6246   -8.8378 C   0  0  0  0  0  0  0  0  0  0  0  0
    5.0162    9.9067  -10.2264 Cl  0  0  0  0  0  0  0  0  0  0  0  0
  2  3  2  0  0  0
 38 36  2  0  0  0
  3  1  2  0  0  0
  3 37  1  0  0  0
  3  7  1  0  0  0
  5  4  2  0  0  0
  5  7  1  0  0  0
 36 37  1  0  0  0
 36 44  1  0  0  0
  4  6  1  0  0  0
  7  8  2  0  0  0
 40 44  2  0  0  0
 40 42  1  0  0  0
 44 41  1  0  0  0
 42 45  2  0  0  0
 41 43  2  0  0  0
 31 34  1  0  0  0
 31 33  1  0  0  0
 29 34  1  0  0  0
 29 28  1  0  0  0
 19 20  1  0  0  0
 19 28  1  0  0  0
 19 17  1  0  0  0
  6  9  2  0  0  0
  6 17  1  0  0  0
 20 21  1  0  0  0
  8  9  1  0  0  0
 47 50  1  0  0  0
 47 49  1  0  0  0
 45 43  1  0  0  0
 45 50  1  0  0  0
 34 30  1  0  0  0
 33 35  1  0  0  0
  9 12  1  0  0  0
 26 24  2  0  0  0
 26 22  1  0  0  0
 24 23  1  0  0  0
 50 46  1  0  0  0
 15 13  1  0  0  0
 49 51  1  0  0  0
 16 13  1  0  0  0
 46 48  1  0  0  0
 51 48  1  0  0  0
 51 52  1  0  0  0
 35 32  1  0  0  0
 30 32  1  0  0  0
 21 22  1  0  0  0
 13 12  1  0  0  0
 13 14  1  0  0  0
 22 27  2  0  0  0
 59 58  1  0  0  0
 23 25  2  0  0  0
 12 11  2  0  0  0
 12 10  2  0  0  0
 56 58  1  0  0  0
 56 53  1  0  0  0
 52 53  1  0  0  0
 58 60  1  0  0  0
 58 57  1  0  0  0
 27 25  1  0  0  0
 53 55  2  0  0  0
 57 54  1  0  0  0
 55 54  1  0  0  0
 55 64  1  0  0  0
 64 61  2  0  0  0
 64 62  1  0  0  0
 61 66  1  0  0  0
 62 63  2  0  0  0
 66 65  2  0  0  0
 63 65  1  0  0  0
 65 67  1  0  0  0
 17 18  1  0  0  0
 37 39  1  0  0  0
M  END
> <minimizedAffinity>
-10.28398

$$$$
4LVT_1XJ_A_301


 67 73  0  0  0  0  0  0  0  0999 V2000
    6.0590    6.3359  -13.7374 O   0  0  0  0  0  0  0  0  0  0  0  0
    3.8472    6.0186  -12.6433 O   0  0  0  0  0  0  0  0  0  0  0  0
    5.2846    5.8440  -12.6194 S   0  0  0  0  0  0  0  0  0  0  0  0
    5.9726    8.1117   -9.3132 C   0  0  0  0  0  0  0  0  0  0  0  0
    5.3649    7.5762  -10.4400 C   0  0  0  0  0  0  0  0  0  0  0  0
    7.2120    7.6421   -8.9338 C   0  0  0  0  0  0  0  0  0  0  0  0
    5.9985    6.5844  -11.1689 C   0  0  0  0  0  0  0  0  0  0  0  0
    7.2297    6.0954  -10.8047 C   0  0  0  0  0  0  0  0  0  0  0  0
    7.7844    6.6323   -9.6773 C   0  0  0  0  0  0  0  0  0  0  0  0
   10.1940    5.7056  -10.3737 O   0  0  0  0  0  0  0  0  0  0  0  0
    9.9020    6.9213   -8.1829 O   0  0  0  0  0  0  0  0  0  0  0  0
    9.3745    6.0607   -9.2303 S   0  0  0  0  0  0  0  0  0  0  0  0
    8.9315    4.5158   -8.4530 C   0  0  0  0  0  0  0  0  0  0  0  0
    7.7147    4.5861   -7.8964 F   0  0  0  0  0  0  0  0  0  0  0  0
    8.8549    3.4766   -9.3295 F   0  0  0  0  0  0  0  0  0  0  0  0
    9.8025    4.1569   -7.4710 F   0  0  0  0  0  0  0  0  0  0  0  0
    7.9113    8.0942   -7.8071 N   0  0  0  0  0  0  0  0  0  0  0  0
    8.8546    7.8643   -7.6442 H   0  0  0  0  0  0  0  0  0  0  0  0
    7.1433    8.9280   -6.8950 C   0  0  0  0  0  0  0  0  0  0  0  0
    7.1366    8.3386   -5.4901 C   0  0  0  0  0  0  0  0  0  0  0  0
    6.4221    6.6577   -5.4187 S   0  0  0  0  0  0  0  0  0  0  0  0
    7.8228    5.7440   -4.8103 C   0  0  0  0  0  0  0  0  0  0  0  0
   10.0046    4.3487   -3.7969 C   0  0  0  0  0  0  0  0  0  0  0  0
   10.1783    5.5481   -4.4486 C   0  0  0  0  0  0  0  0  0  0  0  0
    8.7358    3.8411   -3.6404 C   0  0  0  0  0  0  0  0  0  0  0  0
    9.0956    6.2377   -4.9569 C   0  0  0  0  0  0  0  0  0  0  0  0
    7.6568    4.5423   -4.1476 C   0  0  0  0  0  0  0  0  0  0  0  0
    7.8724   10.2542   -6.9019 C   0  0  0  0  0  0  0  0  0  0  0  0
    8.9468   10.3000   -5.8535 C   0  0  0  0  0  0  0  0  0  0  0  0
   11.2423    9.4784   -5.4629 C   0  0  0  0  0  0  0  0  0  0  0  0
   10.6846   10.5694   -7.5744 C   0  0  0  0  0  0  0  0  0  0  0  0
   12.3420    8.7708   -6.2174 C   0  0  0  0  0  0  0  0  0  0  0  0
   11.8717    9.8580   -8.1723 C   0  0  0  0  0  0  0  0  0  0  0  0
   10.1849    9.7404   -6.4530 N   0  0  0  0  0  0  0  0  0  0  0  0
   12.8579    9.6890   -7.1673 O   0  0  0  0  0  0  0  0  0  0  0  0
    5.1582    3.5092  -11.3223 C   0  0  0  0  0  0  0  0  0  0  0  0
    5.5936    4.1979  -12.4619 N   0  0  0  0  0  0  0  0  0  0  0  0
    4.6054    4.0623  -10.3856 O   0  0  0  0  0  0  0  0  0  0  0  0
    6.0805    3.7184  -13.1707 H   0  0  0  0  0  0  0  0  0  0  0  0
    5.2419    1.3421  -12.4274 C   0  0  0  0  0  0  0  0  0  0  0  0
    6.2180    1.5631  -10.2324 C   0  0  0  0  0  0  0  0  0  0  0  0
    5.5807    0.0101  -12.4248 C   0  0  0  0  0  0  0  0  0  0  0  0
    6.5489    0.2201  -10.2511 C   0  0  0  0  0  0  0  0  0  0  0  0
    5.5745    2.1055  -11.3297 C   0  0  0  0  0  0  0  0  0  0  0  0
    6.2328   -0.5634  -11.3539 C   0  0  0  0  0  0  0  0  0  0  0  0
    5.3515   -2.7558  -11.6415 C   0  0  0  0  0  0  0  0  0  0  0  0
    7.3110   -2.3778  -10.2707 C   0  0  0  0  0  0  0  0  0  0  0  0
    5.8025   -4.1669  -11.9568 C   0  0  0  0  0  0  0  0  0  0  0  0
    7.7701   -3.8126  -10.4791 C   0  0  0  0  0  0  0  0  0  0  0  0
    6.5335   -1.9465  -11.4091 N   0  0  0  0  0  0  0  0  0  0  0  0
    6.6278   -4.7063  -10.8351 N   0  0  0  0  0  0  0  0  0  0  0  0
    7.1210   -6.0817  -11.1835 C   0  0  0  0  0  0  0  0  0  0  0  0
    7.0192   -7.0469  -10.0447 C   0  0  0  0  0  0  0  0  0  0  0  0
    5.8747   -8.7792   -8.6657 C   0  0  0  0  0  0  0  0  0  0  0  0
    5.9793   -7.8751   -9.8408 C   0  0  0  0  0  0  0  0  0  0  0  0
    8.1684   -6.9984   -9.1000 C   0  0  0  0  0  0  0  0  0  0  0  0
    6.9006   -8.4179   -7.6088 C   0  0  0  0  0  0  0  0  0  0  0  0
    8.2517   -8.2393   -8.2408 C   0  0  0  0  0  0  0  0  0  0  0  0
    9.3138   -8.0582   -7.1792 C   0  0  0  0  0  0  0  0  0  0  0  0
    8.5945   -9.4654   -9.0483 C   0  0  0  0  0  0  0  0  0  0  0  0
    3.7757   -7.1181  -10.6334 C   0  0  0  0  0  0  0  0  0  0  0  0
    4.8831   -8.8884  -11.8020 C   0  0  0  0  0  0  0  0  0  0  0  0
    3.8373   -8.9604  -12.6964 C   0  0  0  0  0  0  0  0  0  0  0  0
    4.8497   -7.9764  -10.7658 C   0  0  0  0  0  0  0  0  0  0  0  0
    2.7627   -8.1081  -12.5446 C   0  0  0  0  0  0  0  0  0  0  0  0
    2.7138   -7.1909  -11.5152 C   0  0  0  0  0  0  0  0  0  0  0  0
    1.4561   -8.2145  -13.6617 Cl  0  0  0  0  0  0  0  0  0  0  0  0
  2  3  2  0  0  0
 38 36  2  0  0  0
  3  1  2  0  0  0
  3 37  1  0  0  0
  3  7  1  0  0  0
  5  4  2  0  0  0
  5  7  1  0  0  0
 36 37  1  0  0  0
 36 44  1  0  0  0
  4  6  1  0  0  0
  7  8  2  0  0  0
 40 44  2  0  0  0
 40 42  1  0  0  0
 44 41  1  0  0  0
 42 45  2  0  0  0
 41 43  2  0  0  0
 31 34  1  0  0  0
 31 33  1  0  0  0
 29 34  1  0  0  0
 29 28  1  0  0  0
 19 20  1  0  0  0
 19 28  1  0  0  0
 19 17  1  0  0  0
  6  9  2  0  0  0
  6 17  1  0  0  0
 20 21  1  0  0  0
  8  9  1  0  0  0
 47 50  1  0  0  0
 47 49  1  0  0  0
 45 43  1  0  0  0
 45 50  1  0  0  0
 34 30  1  0  0  0
 33 35  1  0  0  0
  9 12  1  0  0  0
 26 24  2  0  0  0
 26 22  1  0  0  0
 24 23  1  0  0  0
 50 46  1  0  0  0
 15 13  1  0  0  0
 49 51  1  0  0  0
 16 13  1  0  0  0
 46 48  1  0  0  0
 51 48  1  0  0  0
 51 52  1  0  0  0
 35 32  1  0  0  0
 30 32  1  0  0  0
 21 22  1  0  0  0
 13 12  1  0  0  0
 13 14  1  0  0  0
 22 27  2  0  0  0
 59 58  1  0  0  0
 23 25  2  0  0  0
 12 11  2  0  0  0
 12 10  2  0  0  0
 56 58  1  0  0  0
 56 53  1  0  0  0
 52 53  1  0  0  0
 58 60  1  0  0  0
 58 57  1  0  0  0
 27 25  1  0  0  0
 53 55  2  0  0  0
 57 54  1  0  0  0
 55 54  1  0  0  0
 55 64  1  0  0  0
 64 61  2  0  0  0
 64 62  1  0  0  0
 61 66  1  0  0  0
 62 63  2  0  0  0
 66 65  2  0  0  0
 63 65  1  0  0  0
 65 67  1  0  0  0
 17 18  1  0  0  0
 37 39  1  0  0  0
M  END
> <minimizedAffinity>
-9.14930

$$$$
4LVT_1XJ_A_301


 67 73  0  0  0  0  0  0  0  0999 V2000
    6.1296    6.0398  -13.0715 O   0  0  0  0  0  0  0  0  0  0  0  0
    3.7919    5.7686  -12.2644 O   0  0  0  0  0  0  0  0  0  0  0  0
    5.2009    5.4655  -12.1231 S   0  0  0  0  0  0  0  0  0  0  0  0
    5.5284    6.8685   -8.3190 C   0  0  0  0  0  0  0  0  0  0  0  0
    5.0029    6.5361   -9.5596 C   0  0  0  0  0  0  0  0  0  0  0  0
    6.8512    6.5845   -8.0542 C   0  0  0  0  0  0  0  0  0  0  0  0
    5.8000    5.9274  -10.5139 C   0  0  0  0  0  0  0  0  0  0  0  0
    7.1182    5.6274  -10.2690 C   0  0  0  0  0  0  0  0  0  0  0  0
    7.5916    5.9501   -9.0285 C   0  0  0  0  0  0  0  0  0  0  0  0
   10.0894    5.6187   -9.9234 O   0  0  0  0  0  0  0  0  0  0  0  0
    9.6972    6.3912   -7.5545 O   0  0  0  0  0  0  0  0  0  0  0  0
    9.2808    5.6252   -8.7189 S   0  0  0  0  0  0  0  0  0  0  0  0
    9.1694    3.9204   -8.2006 C   0  0  0  0  0  0  0  0  0  0  0  0
    9.8586    3.7127   -7.0705 F   0  0  0  0  0  0  0  0  0  0  0  0
    7.8977    3.5297   -7.9107 F   0  0  0  0  0  0  0  0  0  0  0  0
    9.6577    3.0582   -9.1334 F   0  0  0  0  0  0  0  0  0  0  0  0
    7.4834    6.8576   -6.8341 N   0  0  0  0  0  0  0  0  0  0  0  0
    8.4602    6.8054   -6.7227 H   0  0  0  0  0  0  0  0  0  0  0  0
    6.5928    7.2240   -5.7435 C   0  0  0  0  0  0  0  0  0  0  0  0
    6.8804    6.3919   -4.5001 C   0  0  0  0  0  0  0  0  0  0  0  0
    7.2141    4.6338   -4.8725 S   0  0  0  0  0  0  0  0  0  0  0  0
    8.7284    4.4004   -3.9673 C   0  0  0  0  0  0  0  0  0  0  0  0
   11.0705    4.0795   -2.5024 C   0  0  0  0  0  0  0  0  0  0  0  0
   10.9706    5.0601   -3.4625 C   0  0  0  0  0  0  0  0  0  0  0  0
    9.9955    3.2556   -2.2623 C   0  0  0  0  0  0  0  0  0  0  0  0
    9.8099    5.2155   -4.1938 C   0  0  0  0  0  0  0  0  0  0  0  0
    8.8348    3.4229   -2.9958 C   0  0  0  0  0  0  0  0  0  0  0  0
    6.9071    8.6811   -5.4815 C   0  0  0  0  0  0  0  0  0  0  0  0
    8.2768    9.0487   -5.9758 C   0  0  0  0  0  0  0  0  0  0  0  0
    8.6442    9.8603   -8.2787 C   0  0  0  0  0  0  0  0  0  0  0  0
    8.6883   11.4347   -6.4136 C   0  0  0  0  0  0  0  0  0  0  0  0
    8.2576   11.0327   -9.1479 C   0  0  0  0  0  0  0  0  0  0  0  0
    8.3835   12.5189   -7.4158 C   0  0  0  0  0  0  0  0  0  0  0  0
    8.1225   10.1699   -6.9374 N   0  0  0  0  0  0  0  0  0  0  0  0
    8.9599   12.1651   -8.6623 O   0  0  0  0  0  0  0  0  0  0  0  0
    5.3010    3.1263  -13.4143 C   0  0  0  0  0  0  0  0  0  0  0  0
    5.3693    3.7928  -12.1840 N   0  0  0  0  0  0  0  0  0  0  0  0
    5.0605    3.6985  -14.4648 O   0  0  0  0  0  0  0  0  0  0  0  0
    5.5158    3.2824  -11.3550 H   0  0  0  0  0  0  0  0  0  0  0  0
    5.2768    1.1477  -11.9966 C   0  0  0  0  0  0  0  0  0  0  0  0
    5.6824    0.8768  -14.3592 C   0  0  0  0  0  0  0  0  0  0  0  0
    5.4211   -0.2094  -11.8341 C   0  0  0  0  0  0  0  0  0  0  0  0
    5.8241   -0.4865  -14.1723 C   0  0  0  0  0  0  0  0  0  0  0  0
    5.4016    1.6732  -13.2641 C   0  0  0  0  0  0  0  0  0  0  0  0
    5.6899   -1.0367  -12.9037 C   0  0  0  0  0  0  0  0  0  0  0  0
    4.5940   -3.1463  -12.7818 C   0  0  0  0  0  0  0  0  0  0  0  0
    6.5425   -2.6815  -11.4221 C   0  0  0  0  0  0  0  0  0  0  0  0
    4.9048   -4.6287  -12.7806 C   0  0  0  0  0  0  0  0  0  0  0  0
    6.8558   -4.1656  -11.3111 C   0  0  0  0  0  0  0  0  0  0  0  0
    5.8467   -2.4235  -12.6613 N   0  0  0  0  0  0  0  0  0  0  0  0
    5.6374   -5.0001  -11.5334 N   0  0  0  0  0  0  0  0  0  0  0  0
    5.9946   -6.4586  -11.5697 C   0  0  0  0  0  0  0  0  0  0  0  0
    5.4600   -7.2225  -10.3995 C   0  0  0  0  0  0  0  0  0  0  0  0
    3.7488   -8.5764   -9.1947 C   0  0  0  0  0  0  0  0  0  0  0  0
    4.2858   -7.8782  -10.3920 C   0  0  0  0  0  0  0  0  0  0  0  0
    6.3277   -7.1726   -9.1911 C   0  0  0  0  0  0  0  0  0  0  0  0
    4.5196   -8.1878   -7.9477 C   0  0  0  0  0  0  0  0  0  0  0  0
    5.9969   -8.2714   -8.2071 C   0  0  0  0  0  0  0  0  0  0  0  0
    6.7729   -8.0634   -6.9255 C   0  0  0  0  0  0  0  0  0  0  0  0
    6.3354   -9.6373   -8.7484 C   0  0  0  0  0  0  0  0  0  0  0  0
    3.6875   -8.9334  -12.5334 C   0  0  0  0  0  0  0  0  0  0  0  0
    2.3170   -7.1621  -11.6905 C   0  0  0  0  0  0  0  0  0  0  0  0
    1.4827   -7.2807  -12.7808 C   0  0  0  0  0  0  0  0  0  0  0  0
    3.4235   -7.9793  -11.5703 C   0  0  0  0  0  0  0  0  0  0  0  0
    1.7655   -8.2272  -13.7443 C   0  0  0  0  0  0  0  0  0  0  0  0
    2.8666   -9.0518  -13.6392 C   0  0  0  0  0  0  0  0  0  0  0  0
    0.7221   -8.3589  -15.1083 Cl  0  0  0  0  0  0  0  0  0  0  0  0
  2  3  2  0  0  0
 38 36  2  0  0  0
  3  1  2  0  0  0
  3 37  1  0  0  0
  3  7  1  0  0  0
  5  4  2  0  0  0
  5  7  1  0  0  0
 36 37  1  0  0  0
 36 44  1  0  0  0
  4  6  1  0  0  0
  7  8  2  0  0  0
 40 44  2  0  0  0
 40 42  1  0  0  0
 44 41  1  0  0  0
 42 45  2  0  0  0
 41 43  2  0  0  0
 31 34  1  0  0  0
 31 33  1  0  0  0
 29 34  1  0  0  0
 29 28  1  0  0  0
 19 20  1  0  0  0
 19 28  1  0  0  0
 19 17  1  0  0  0
  6  9  2  0  0  0
  6 17  1  0  0  0
 20 21  1  0  0  0
  8  9  1  0  0  0
 47 50  1  0  0  0
 47 49  1  0  0  0
 45 43  1  0  0  0
 45 50  1  0  0  0
 34 30  1  0  0  0
 33 35  1  0  0  0
  9 12  1  0  0  0
 26 24  2  0  0  0
 26 22  1  0  0  0
 24 23  1  0  0  0
 50 46  1  0  0  0
 15 13  1  0  0  0
 49 51  1  0  0  0
 16 13  1  0  0  0
 46 48  1  0  0  0
 51 48  1  0  0  0
 51 52  1  0  0  0
 35 32  1  0  0  0
 30 32  1  0  0  0
 21 22  1  0  0  0
 13 12  1  0  0  0
 13 14  1  0  0  0
 22 27  2  0  0  0
 59 58  1  0  0  0
 23 25  2  0  0  0
 12 11  2  0  0  0
 12 10  2  0  0  0
 56 58  1  0  0  0
 56 53  1  0  0  0
 52 53  1  0  0  0
 58 60  1  0  0  0
 58 57  1  0  0  0
 27 25  1  0  0  0
 53 55  2  0  0  0
 57 54  1  0  0  0
 55 54  1  0  0  0
 55 64  1  0  0  0
 64 61  2  0  0  0
 64 62  1  0  0  0
 61 66  1  0  0  0
 62 63  2  0  0  0
 66 65  2  0  0  0
 63 65  1  0  0  0
 65 67  1  0  0  0
 17 18  1  0  0  0
 37 39  1  0  0  0
M  END
> <minimizedAffinity>
-9.01487

$$$$
4LVT_1XJ_A_301


 67 73  0  0  0  0  0  0  0  0999 V2000
    3.3422   -4.8296  -11.6096 O   0  0  0  0  0  0  0  0  0  0  0  0
    4.7089   -4.5610  -13.6711 O   0  0  0  0  0  0  0  0  0  0  0  0
    4.6319   -4.6091  -12.2259 S   0  0  0  0  0  0  0  0  0  0  0  0
    7.8744   -6.7855  -11.0873 C   0  0  0  0  0  0  0  0  0  0  0  0
    7.0883   -5.7764  -11.6253 C   0  0  0  0  0  0  0  0  0  0  0  0
    7.2608   -7.8691  -10.4959 C   0  0  0  0  0  0  0  0  0  0  0  0
    5.7078   -5.8615  -11.5657 C   0  0  0  0  0  0  0  0  0  0  0  0
    5.0749   -6.9277  -10.9738 C   0  0  0  0  0  0  0  0  0  0  0  0
    5.8838   -7.8889  -10.4363 C   0  0  0  0  0  0  0  0  0  0  0  0
    3.7747   -9.5246  -10.2753 O   0  0  0  0  0  0  0  0  0  0  0  0
    6.0632  -10.3596   -9.6211 O   0  0  0  0  0  0  0  0  0  0  0  0
    5.0955   -9.2787   -9.7279 S   0  0  0  0  0  0  0  0  0  0  0  0
    4.8277   -8.6622   -8.0740 C   0  0  0  0  0  0  0  0  0  0  0  0
    5.5001   -9.3900   -7.1720 F   0  0  0  0  0  0  0  0  0  0  0  0
    5.2742   -7.3881   -7.8973 F   0  0  0  0  0  0  0  0  0  0  0  0
    3.5157   -8.6876   -7.7134 F   0  0  0  0  0  0  0  0  0  0  0  0
    7.9509   -8.9359   -9.9054 N   0  0  0  0  0  0  0  0  0  0  0  0
    7.5140   -9.7909   -9.6877 H   0  0  0  0  0  0  0  0  0  0  0  0
    9.3594   -8.6895   -9.6369 C   0  0  0  0  0  0  0  0  0  0  0  0
    9.6177   -8.5697   -8.1402 C   0  0  0  0  0  0  0  0  0  0  0  0
   10.7229   -7.1788   -7.7102 S   0  0  0  0  0  0  0  0  0  0  0  0
    9.6278   -5.8050   -7.9936 C   0  0  0  0  0  0  0  0  0  0  0  0
    7.8846   -3.6953   -8.4879 C   0  0  0  0  0  0  0  0  0  0  0  0
    9.0988   -3.7693   -9.1310 C   0  0  0  0  0  0  0  0  0  0  0  0
    7.5294   -4.6813   -7.5971 C   0  0  0  0  0  0  0  0  0  0  0  0
    9.9667   -4.8136   -8.8810 C   0  0  0  0  0  0  0  0  0  0  0  0
    8.4029   -5.7268   -7.3578 C   0  0  0  0  0  0  0  0  0  0  0  0
   10.0618   -9.9096  -10.1925 C   0  0  0  0  0  0  0  0  0  0  0  0
    9.5373  -11.1764   -9.5797 C   0  0  0  0  0  0  0  0  0  0  0  0
   10.0755  -13.4482  -10.3837 C   0  0  0  0  0  0  0  0  0  0  0  0
   11.2758  -12.5194   -8.4716 C   0  0  0  0  0  0  0  0  0  0  0  0
   11.2890  -14.3161  -10.6152 C   0  0  0  0  0  0  0  0  0  0  0  0
   12.3749  -13.5058   -8.7743 C   0  0  0  0  0  0  0  0  0  0  0  0
   10.5794  -12.2215   -9.7447 N   0  0  0  0  0  0  0  0  0  0  0  0
   11.8002  -14.6719   -9.3411 O   0  0  0  0  0  0  0  0  0  0  0  0
    6.2389   -2.4756  -12.3490 C   0  0  0  0  0  0  0  0  0  0  0  0
    5.2443   -3.1575  -11.6361 N   0  0  0  0  0  0  0  0  0  0  0  0
    6.7418   -2.9163  -13.3697 O   0  0  0  0  0  0  0  0  0  0  0  0
    4.9037   -2.7872  -10.7898 H   0  0  0  0  0  0  0  0  0  0  0  0
    5.8557   -0.7185  -10.7088 C   0  0  0  0  0  0  0  0  0  0  0  0
    7.8989   -0.6827  -11.9908 C   0  0  0  0  0  0  0  0  0  0  0  0
    6.2480    0.4412  -10.0840 C   0  0  0  0  0  0  0  0  0  0  0  0
    8.2734    0.4845  -11.3497 C   0  0  0  0  0  0  0  0  0  0  0  0
    6.6944   -1.2714  -11.6517 C   0  0  0  0  0  0  0  0  0  0  0  0
    7.4468    1.0508  -10.3874 C   0  0  0  0  0  0  0  0  0  0  0  0
    9.1835    2.5921   -9.8637 C   0  0  0  0  0  0  0  0  0  0  0  0
    7.3245    2.2580   -8.3490 C   0  0  0  0  0  0  0  0  0  0  0  0
    9.3806    4.0081   -9.3634 C   0  0  0  0  0  0  0  0  0  0  0  0
    7.5299    3.6386   -7.7452 C   0  0  0  0  0  0  0  0  0  0  0  0
    7.7792    2.2551   -9.7200 N   0  0  0  0  0  0  0  0  0  0  0  0
    8.9294    4.1202   -7.9443 N   0  0  0  0  0  0  0  0  0  0  0  0
    9.0715    5.5408   -7.4771 C   0  0  0  0  0  0  0  0  0  0  0  0
    8.5537    5.7563   -6.0900 C   0  0  0  0  0  0  0  0  0  0  0  0
    7.1857    6.9169   -4.3595 C   0  0  0  0  0  0  0  0  0  0  0  0
    7.6361    6.6813   -5.7563 C   0  0  0  0  0  0  0  0  0  0  0  0
    9.1730    4.8735   -5.0640 C   0  0  0  0  0  0  0  0  0  0  0  0
    8.1019    6.2245   -3.3689 C   0  0  0  0  0  0  0  0  0  0  0  0
    8.3490    4.8064   -3.7985 C   0  0  0  0  0  0  0  0  0  0  0  0
    9.1100    4.0536   -2.7298 C   0  0  0  0  0  0  0  0  0  0  0  0
    7.0295    4.1108   -4.0180 C   0  0  0  0  0  0  0  0  0  0  0  0
    5.9768    7.0286   -7.5404 C   0  0  0  0  0  0  0  0  0  0  0  0
    7.3215    8.8767   -6.8315 C   0  0  0  0  0  0  0  0  0  0  0  0
    6.6787    9.6977   -7.7325 C   0  0  0  0  0  0  0  0  0  0  0  0
    6.9794    7.5420   -6.7412 C   0  0  0  0  0  0  0  0  0  0  0  0
    5.6892    9.1697   -8.5364 C   0  0  0  0  0  0  0  0  0  0  0  0
    5.3351    7.8386   -8.4585 C   0  0  0  0  0  0  0  0  0  0  0  0
    4.9004   10.2027   -9.6665 Cl  0  0  0  0  0  0  0  0  0  0  0  0
  2  3  2  0  0  0
 38 36  2  0  0  0
  3  1  2  0  0  0
  3 37  1  0  0  0
  3  7  1  0  0  0
  5  4  2  0  0  0
  5  7  1  0  0  0
 36 37  1  0  0  0
 36 44  1  0  0  0
  4  6  1  0  0  0
  7  8  2  0  0  0
 40 44  2  0  0  0
 40 42  1  0  0  0
 44 41  1  0  0  0
 42 45  2  0  0  0
 41 43  2  0  0  0
 31 34  1  0  0  0
 31 33  1  0  0  0
 29 34  1  0  0  0
 29 28  1  0  0  0
 19 20  1  0  0  0
 19 28  1  0  0  0
 19 17  1  0  0  0
  6  9  2  0  0  0
  6 17  1  0  0  0
 20 21  1  0  0  0
  8  9  1  0  0  0
 47 50  1  0  0  0
 47 49  1  0  0  0
 45 43  1  0  0  0
 45 50  1  0  0  0
 34 30  1  0  0  0
 33 35  1  0  0  0
  9 12  1  0  0  0
 26 24  2  0  0  0
 26 22  1  0  0  0
 24 23  1  0  0  0
 50 46  1  0  0  0
 15 13  1  0  0  0
 49 51  1  0  0  0
 16 13  1  0  0  0
 46 48  1  0  0  0
 51 48  1  0  0  0
 51 52  1  0  0  0
 35 32  1  0  0  0
 30 32  1  0  0  0
 21 22  1  0  0  0
 13 12  1  0  0  0
 13 14  1  0  0  0
 22 27  2  0  0  0
 59 58  1  0  0  0
 23 25  2  0  0  0
 12 11  2  0  0  0
 12 10  2  0  0  0
 56 58  1  0  0  0
 56 53  1  0  0  0
 52 53  1  0  0  0
 58 60  1  0  0  0
 58 57  1  0  0  0
 27 25  1  0  0  0
 53 55  2  0  0  0
 57 54  1  0  0  0
 55 54  1  0  0  0
 55 64  1  0  0  0
 64 61  2  0  0  0
 64 62  1  0  0  0
 61 66  1  0  0  0
 62 63  2  0  0  0
 66 65  2  0  0  0
 63 65  1  0  0  0
 65 67  1  0  0  0
 17 18  1  0  0  0
 37 39  1  0  0  0
M  END
> <minimizedAffinity>
-8.99295

$$$$
4LVT_1XJ_A_301


 67 73  0  0  0  0  0  0  0  0999 V2000
    2.4893   -5.0189  -11.4866 O   0  0  0  0  0  0  0  0  0  0  0  0
    3.6184   -4.5083  -13.6440 O   0  0  0  0  0  0  0  0  0  0  0  0
    3.7096   -4.7747  -12.2235 S   0  0  0  0  0  0  0  0  0  0  0  0
    6.3034   -7.8896  -12.5645 C   0  0  0  0  0  0  0  0  0  0  0  0
    5.4948   -6.8080  -12.8837 C   0  0  0  0  0  0  0  0  0  0  0  0
    6.3653   -8.3160  -11.2549 C   0  0  0  0  0  0  0  0  0  0  0  0
    4.7631   -6.1694  -11.8971 C   0  0  0  0  0  0  0  0  0  0  0  0
    4.8159   -6.5717  -10.5844 C   0  0  0  0  0  0  0  0  0  0  0  0
    5.6405   -7.6255  -10.3074 C   0  0  0  0  0  0  0  0  0  0  0  0
    4.6308   -7.6058   -7.8315 O   0  0  0  0  0  0  0  0  0  0  0  0
    5.9073   -9.6215   -8.6503 O   0  0  0  0  0  0  0  0  0  0  0  0
    5.6778   -8.1850   -8.6520 S   0  0  0  0  0  0  0  0  0  0  0  0
    7.1972   -7.4203   -8.1100 C   0  0  0  0  0  0  0  0  0  0  0  0
    7.0326   -6.7972   -6.9353 F   0  0  0  0  0  0  0  0  0  0  0  0
    8.2005   -8.3150   -7.8929 F   0  0  0  0  0  0  0  0  0  0  0  0
    7.6606   -6.4955   -8.9941 F   0  0  0  0  0  0  0  0  0  0  0  0
    7.1589   -9.3829  -10.8137 N   0  0  0  0  0  0  0  0  0  0  0  0
    7.3590   -9.5332   -9.8615 H   0  0  0  0  0  0  0  0  0  0  0  0
    7.6663  -10.2529  -11.8637 C   0  0  0  0  0  0  0  0  0  0  0  0
    9.1897  -10.2565  -11.8819 C   0  0  0  0  0  0  0  0  0  0  0  0
    9.9293  -10.0520  -10.2230 S   0  0  0  0  0  0  0  0  0  0  0  0
   10.5113  -11.7080   -9.9297 C   0  0  0  0  0  0  0  0  0  0  0  0
   11.4748  -14.2691   -9.4336 C   0  0  0  0  0  0  0  0  0  0  0  0
   11.8642  -13.5770  -10.5573 C   0  0  0  0  0  0  0  0  0  0  0  0
   10.6051  -13.6817   -8.5445 C   0  0  0  0  0  0  0  0  0  0  0  0
   11.3812  -12.3079  -10.8065 C   0  0  0  0  0  0  0  0  0  0  0  0
   10.1313  -12.4075   -8.7996 C   0  0  0  0  0  0  0  0  0  0  0  0
    7.1449  -11.6246  -11.4932 C   0  0  0  0  0  0  0  0  0  0  0  0
    6.7025  -12.3938  -12.7048 C   0  0  0  0  0  0  0  0  0  0  0  0
    8.0350  -14.0195  -11.4091 C   0  0  0  0  0  0  0  0  0  0  0  0
    8.4400  -13.7477  -13.8011 C   0  0  0  0  0  0  0  0  0  0  0  0
    8.5885  -15.4159  -11.5609 C   0  0  0  0  0  0  0  0  0  0  0  0
    9.0456  -15.1282  -13.7820 C   0  0  0  0  0  0  0  0  0  0  0  0
    7.4377  -13.6841  -12.7121 N   0  0  0  0  0  0  0  0  0  0  0  0
    9.6378  -15.3506  -12.5127 O   0  0  0  0  0  0  0  0  0  0  0  0
    5.6461   -2.9354  -12.0972 C   0  0  0  0  0  0  0  0  0  0  0  0
    4.4901   -3.4663  -11.5104 N   0  0  0  0  0  0  0  0  0  0  0  0
    6.1665   -3.4186  -13.0895 O   0  0  0  0  0  0  0  0  0  0  0  0
    4.1345   -3.0735  -10.6806 H   0  0  0  0  0  0  0  0  0  0  0  0
    5.4653   -0.7107  -11.1263 C   0  0  0  0  0  0  0  0  0  0  0  0
    7.5114   -1.9497  -10.8138 C   0  0  0  0  0  0  0  0  0  0  0  0
    6.0140    0.3378  -10.4273 C   0  0  0  0  0  0  0  0  0  0  0  0
    8.0438   -0.8819  -10.1137 C   0  0  0  0  0  0  0  0  0  0  0  0
    6.2221   -1.8483  -11.3032 C   0  0  0  0  0  0  0  0  0  0  0  0
    7.2920    0.2692   -9.9145 C   0  0  0  0  0  0  0  0  0  0  0  0
    6.7468    2.2558   -8.7220 C   0  0  0  0  0  0  0  0  0  0  0  0
    8.8014    2.0976   -9.9930 C   0  0  0  0  0  0  0  0  0  0  0  0
    7.3695    3.2618   -7.7763 C   0  0  0  0  0  0  0  0  0  0  0  0
    9.4518    3.1687   -9.1312 C   0  0  0  0  0  0  0  0  0  0  0  0
    7.8024    1.3945   -9.2221 N   0  0  0  0  0  0  0  0  0  0  0  0
    8.4302    4.0423   -8.4804 N   0  0  0  0  0  0  0  0  0  0  0  0
    9.0832    4.9937   -7.5188 C   0  0  0  0  0  0  0  0  0  0  0  0
    8.1144    5.9379   -6.8794 C   0  0  0  0  0  0  0  0  0  0  0  0
    6.8949    6.9366   -4.9486 C   0  0  0  0  0  0  0  0  0  0  0  0
    7.9095    6.0346   -5.5536 C   0  0  0  0  0  0  0  0  0  0  0  0
    7.3391    6.7629   -7.8457 C   0  0  0  0  0  0  0  0  0  0  0  0
    5.9422    7.4676   -6.0023 C   0  0  0  0  0  0  0  0  0  0  0  0
    6.7137    7.9720   -7.1885 C   0  0  0  0  0  0  0  0  0  0  0  0
    5.7908    8.6670   -8.1647 C   0  0  0  0  0  0  0  0  0  0  0  0
    7.7499    8.9658   -6.7281 C   0  0  0  0  0  0  0  0  0  0  0  0
    8.1060    4.1653   -3.9649 C   0  0  0  0  0  0  0  0  0  0  0  0
    9.9861    5.6081   -4.2963 C   0  0  0  0  0  0  0  0  0  0  0  0
   10.7225    4.8643   -3.3999 C   0  0  0  0  0  0  0  0  0  0  0  0
    8.6769    5.2667   -4.5720 C   0  0  0  0  0  0  0  0  0  0  0  0
   10.1363    3.7752   -2.7881 C   0  0  0  0  0  0  0  0  0  0  0  0
    8.8297    3.4203   -3.0528 C   0  0  0  0  0  0  0  0  0  0  0  0
   11.0627    2.8595   -1.6613 Cl  0  0  0  0  0  0  0  0  0  0  0  0
  2  3  2  0  0  0
 38 36  2  0  0  0
  3  1  2  0  0  0
  3 37  1  0  0  0
  3  7  1  0  0  0
  5  4  2  0  0  0
  5  7  1  0  0  0
 36 37  1  0  0  0
 36 44  1  0  0  0
  4  6  1  0  0  0
  7  8  2  0  0  0
 40 44  2  0  0  0
 40 42  1  0  0  0
 44 41  1  0  0  0
 42 45  2  0  0  0
 41 43  2  0  0  0
 31 34  1  0  0  0
 31 33  1  0  0  0
 29 34  1  0  0  0
 29 28  1  0  0  0
 19 20  1  0  0  0
 19 28  1  0  0  0
 19 17  1  0  0  0
  6  9  2  0  0  0
  6 17  1  0  0  0
 20 21  1  0  0  0
  8  9  1  0  0  0
 47 50  1  0  0  0
 47 49  1  0  0  0
 45 43  1  0  0  0
 45 50  1  0  0  0
 34 30  1  0  0  0
 33 35  1  0  0  0
  9 12  1  0  0  0
 26 24  2  0  0  0
 26 22  1  0  0  0
 24 23  1  0  0  0
 50 46  1  0  0  0
 15 13  1  0  0  0
 49 51  1  0  0  0
 16 13  1  0  0  0
 46 48  1  0  0  0
 51 48  1  0  0  0
 51 52  1  0  0  0
 35 32  1  0  0  0
 30 32  1  0  0  0
 21 22  1  0  0  0
 13 12  1  0  0  0
 13 14  1  0  0  0
 22 27  2  0  0  0
 59 58  1  0  0  0
 23 25  2  0  0  0
 12 11  2  0  0  0
 12 10  2  0  0  0
 56 58  1  0  0  0
 56 53  1  0  0  0
 52 53  1  0  0  0
 58 60  1  0  0  0
 58 57  1  0  0  0
 27 25  1  0  0  0
 53 55  2  0  0  0
 57 54  1  0  0  0
 55 54  1  0  0  0
 55 64  1  0  0  0
 64 61  2  0  0  0
 64 62  1  0  0  0
 61 66  1  0  0  0
 62 63  2  0  0  0
 66 65  2  0  0  0
 63 65  1  0  0  0
 65 67  1  0  0  0
 17 18  1  0  0  0
 37 39  1  0  0  0
M  END
> <minimizedAffinity>
-8.93840

$$$$
4LVT_1XJ_A_301


 67 73  0  0  0  0  0  0  0  0999 V2000
    2.8476   -4.9224  -11.5051 O   0  0  0  0  0  0  0  0  0  0  0  0
    4.2812   -4.7176  -13.5283 O   0  0  0  0  0  0  0  0  0  0  0  0
    4.1627   -4.7630  -12.0857 S   0  0  0  0  0  0  0  0  0  0  0  0
    5.7849   -8.3720  -11.1425 C   0  0  0  0  0  0  0  0  0  0  0  0
    4.9702   -7.4016  -11.7084 C   0  0  0  0  0  0  0  0  0  0  0  0
    6.7807   -7.9854  -10.2710 C   0  0  0  0  0  0  0  0  0  0  0  0
    5.1594   -6.0656  -11.3990 C   0  0  0  0  0  0  0  0  0  0  0  0
    6.1506   -5.6566  -10.5399 C   0  0  0  0  0  0  0  0  0  0  0  0
    6.9453   -6.6399  -10.0215 C   0  0  0  0  0  0  0  0  0  0  0  0
    9.1580   -7.1777   -8.6198 O   0  0  0  0  0  0  0  0  0  0  0  0
    8.5996   -4.7914   -9.2170 O   0  0  0  0  0  0  0  0  0  0  0  0
    8.1762   -6.1428   -8.8846 S   0  0  0  0  0  0  0  0  0  0  0  0
    7.1871   -6.0227   -7.4033 C   0  0  0  0  0  0  0  0  0  0  0  0
    7.7658   -6.6685   -6.3818 F   0  0  0  0  0  0  0  0  0  0  0  0
    7.0315   -4.7433   -6.9642 F   0  0  0  0  0  0  0  0  0  0  0  0
    5.9438   -6.5530   -7.5613 F   0  0  0  0  0  0  0  0  0  0  0  0
    7.6726   -8.8731   -9.6550 N   0  0  0  0  0  0  0  0  0  0  0  0
    7.9315   -8.7892   -8.7089 H   0  0  0  0  0  0  0  0  0  0  0  0
    8.1888   -9.9279  -10.5139 C   0  0  0  0  0  0  0  0  0  0  0  0
    9.4630   -9.4828  -11.2207 C   0  0  0  0  0  0  0  0  0  0  0  0
    9.2000   -9.0611  -12.9796 S   0  0  0  0  0  0  0  0  0  0  0  0
   10.0473   -7.4983  -13.0606 C   0  0  0  0  0  0  0  0  0  0  0  0
   11.3112   -5.0256  -13.2094 C   0  0  0  0  0  0  0  0  0  0  0  0
   11.3219   -5.8862  -14.2829 C   0  0  0  0  0  0  0  0  0  0  0  0
   10.6611   -5.3927  -12.0542 C   0  0  0  0  0  0  0  0  0  0  0  0
   10.6995   -7.1162  -14.2068 C   0  0  0  0  0  0  0  0  0  0  0  0
   10.0351   -6.6245  -11.9896 C   0  0  0  0  0  0  0  0  0  0  0  0
    8.4890  -11.0667   -9.5633 C   0  0  0  0  0  0  0  0  0  0  0  0
    8.6906  -12.3612  -10.2975 C   0  0  0  0  0  0  0  0  0  0  0  0
   10.6704  -12.1376   -8.8388 C   0  0  0  0  0  0  0  0  0  0  0  0
   10.9338  -12.9315  -11.1323 C   0  0  0  0  0  0  0  0  0  0  0  0
   11.9429  -12.8867   -8.5241 C   0  0  0  0  0  0  0  0  0  0  0  0
   12.2323  -13.5569  -10.6902 C   0  0  0  0  0  0  0  0  0  0  0  0
   10.0422  -12.8697   -9.9509 N   0  0  0  0  0  0  0  0  0  0  0  0
   12.7916  -12.7664   -9.6540 O   0  0  0  0  0  0  0  0  0  0  0  0
    5.5313   -2.4785  -12.3251 C   0  0  0  0  0  0  0  0  0  0  0  0
    4.8270   -3.3426  -11.4766 N   0  0  0  0  0  0  0  0  0  0  0  0
    5.7470   -2.7335  -13.4987 O   0  0  0  0  0  0  0  0  0  0  0  0
    4.7209   -3.1185  -10.5238 H   0  0  0  0  0  0  0  0  0  0  0  0
    7.2333   -1.5346  -10.8633 C   0  0  0  0  0  0  0  0  0  0  0  0
    5.4446   -0.1100  -11.6317 C   0  0  0  0  0  0  0  0  0  0  0  0
    7.7407   -0.4795  -10.1432 C   0  0  0  0  0  0  0  0  0  0  0  0
    5.9725    0.9378  -10.8988 C   0  0  0  0  0  0  0  0  0  0  0  0
    6.0918   -1.3317  -11.6077 C   0  0  0  0  0  0  0  0  0  0  0  0
    7.1295    0.7563  -10.1516 C   0  0  0  0  0  0  0  0  0  0  0  0
    6.7515    2.8680   -9.1201 C   0  0  0  0  0  0  0  0  0  0  0  0
    8.9564    2.2495   -9.9058 C   0  0  0  0  0  0  0  0  0  0  0  0
    7.3456    3.7793   -8.0662 C   0  0  0  0  0  0  0  0  0  0  0  0
    9.6081    3.2150   -8.9281 C   0  0  0  0  0  0  0  0  0  0  0  0
    7.6947    1.7938   -9.3702 N   0  0  0  0  0  0  0  0  0  0  0  0
    8.6675    4.3021   -8.5236 N   0  0  0  0  0  0  0  0  0  0  0  0
    9.2761    5.1549   -7.4471 C   0  0  0  0  0  0  0  0  0  0  0  0
    8.2664    5.9750   -6.7078 C   0  0  0  0  0  0  0  0  0  0  0  0
    6.9984    6.6833   -4.6822 C   0  0  0  0  0  0  0  0  0  0  0  0
    8.0520    5.9027   -5.3820 C   0  0  0  0  0  0  0  0  0  0  0  0
    7.4618    6.8783   -7.5750 C   0  0  0  0  0  0  0  0  0  0  0  0
    6.0290    7.2983   -5.6732 C   0  0  0  0  0  0  0  0  0  0  0  0
    6.7841    7.9730   -6.7829 C   0  0  0  0  0  0  0  0  0  0  0  0
    5.8373    8.7426   -7.6769 C   0  0  0  0  0  0  0  0  0  0  0  0
    7.7762    8.9452   -6.1968 C   0  0  0  0  0  0  0  0  0  0  0  0
   10.2146    4.9739   -4.6626 C   0  0  0  0  0  0  0  0  0  0  0  0
    8.2374    4.3805   -3.4523 C   0  0  0  0  0  0  0  0  0  0  0  0
    8.9885    3.6102   -2.5913 C   0  0  0  0  0  0  0  0  0  0  0  0
    8.8463    5.0539   -4.4928 C   0  0  0  0  0  0  0  0  0  0  0  0
   10.3527    3.5257   -2.7805 C   0  0  0  0  0  0  0  0  0  0  0  0
   10.9767    4.1925   -3.8145 C   0  0  0  0  0  0  0  0  0  0  0  0
   11.2799    2.5510   -1.7048 Cl  0  0  0  0  0  0  0  0  0  0  0  0
  2  3  2  0  0  0
 38 36  2  0  0  0
  3  1  2  0  0  0
  3 37  1  0  0  0
  3  7  1  0  0  0
  5  4  2  0  0  0
  5  7  1  0  0  0
 36 37  1  0  0  0
 36 44  1  0  0  0
  4  6  1  0  0  0
  7  8  2  0  0  0
 40 44  2  0  0  0
 40 42  1  0  0  0
 44 41  1  0  0  0
 42 45  2  0  0  0
 41 43  2  0  0  0
 31 34  1  0  0  0
 31 33  1  0  0  0
 29 34  1  0  0  0
 29 28  1  0  0  0
 19 20  1  0  0  0
 19 28  1  0  0  0
 19 17  1  0  0  0
  6  9  2  0  0  0
  6 17  1  0  0  0
 20 21  1  0  0  0
  8  9  1  0  0  0
 47 50  1  0  0  0
 47 49  1  0  0  0
 45 43  1  0  0  0
 45 50  1  0  0  0
 34 30  1  0  0  0
 33 35  1  0  0  0
  9 12  1  0  0  0
 26 24  2  0  0  0
 26 22  1  0  0  0
 24 23  1  0  0  0
 50 46  1  0  0  0
 15 13  1  0  0  0
 49 51  1  0  0  0
 16 13  1  0  0  0
 46 48  1  0  0  0
 51 48  1  0  0  0
 51 52  1  0  0  0
 35 32  1  0  0  0
 30 32  1  0  0  0
 21 22  1  0  0  0
 13 12  1  0  0  0
 13 14  1  0  0  0
 22 27  2  0  0  0
 59 58  1  0  0  0
 23 25  2  0  0  0
 12 11  2  0  0  0
 12 10  2  0  0  0
 56 58  1  0  0  0
 56 53  1  0  0  0
 52 53  1  0  0  0
 58 60  1  0  0  0
 58 57  1  0  0  0
 27 25  1  0  0  0
 53 55  2  0  0  0
 57 54  1  0  0  0
 55 54  1  0  0  0
 55 64  1  0  0  0
 64 61  2  0  0  0
 64 62  1  0  0  0
 61 66  1  0  0  0
 62 63  2  0  0  0
 66 65  2  0  0  0
 63 65  1  0  0  0
 65 67  1  0  0  0
 17 18  1  0  0  0
 37 39  1  0  0  0
M  END
> <minimizedAffinity>
-8.64975

$$$$
4LVT_1XJ_A_301


 67 73  0  0  0  0  0  0  0  0999 V2000
    7.2986    5.2273  -14.4374 O   0  0  0  0  0  0  0  0  0  0  0  0
    5.0435    5.3284  -13.3913 O   0  0  0  0  0  0  0  0  0  0  0  0
    6.4038    4.8322  -13.3720 S   0  0  0  0  0  0  0  0  0  0  0  0
    8.3084    6.8301  -10.3842 C   0  0  0  0  0  0  0  0  0  0  0  0
    7.6769    6.5504  -11.5877 C   0  0  0  0  0  0  0  0  0  0  0  0
    8.4796    5.8158   -9.4663 C   0  0  0  0  0  0  0  0  0  0  0  0
    7.2266    5.2694  -11.8576 C   0  0  0  0  0  0  0  0  0  0  0  0
    7.3788    4.2453  -10.9544 C   0  0  0  0  0  0  0  0  0  0  0  0
    7.9851    4.5662   -9.7726 C   0  0  0  0  0  0  0  0  0  0  0  0
    8.5660    3.7286   -7.3006 O   0  0  0  0  0  0  0  0  0  0  0  0
    7.1962    2.2654   -8.8320 O   0  0  0  0  0  0  0  0  0  0  0  0
    8.2358    3.2636   -8.6346 S   0  0  0  0  0  0  0  0  0  0  0  0
    9.7442    2.5734   -9.2945 C   0  0  0  0  0  0  0  0  0  0  0  0
   10.7120    2.5522   -8.3680 F   0  0  0  0  0  0  0  0  0  0  0  0
    9.6127    1.2776   -9.6915 F   0  0  0  0  0  0  0  0  0  0  0  0
   10.2201    3.2784  -10.3567 F   0  0  0  0  0  0  0  0  0  0  0  0
    9.0854    5.9845   -8.2142 N   0  0  0  0  0  0  0  0  0  0  0  0
    9.8016    5.3917   -7.8905 H   0  0  0  0  0  0  0  0  0  0  0  0
    8.5800    7.0987   -7.4269 C   0  0  0  0  0  0  0  0  0  0  0  0
    7.0977    6.9238   -7.1211 C   0  0  0  0  0  0  0  0  0  0  0  0
    6.1551    8.4872   -7.2127 S   0  0  0  0  0  0  0  0  0  0  0  0
    5.3371    8.2722   -8.7784 C   0  0  0  0  0  0  0  0  0  0  0  0
    4.1208    7.9181  -11.2542 C   0  0  0  0  0  0  0  0  0  0  0  0
    4.6093    9.1490  -10.8806 C   0  0  0  0  0  0  0  0  0  0  0  0
    4.2438    6.8518  -10.3941 C   0  0  0  0  0  0  0  0  0  0  0  0
    5.2078    9.3260   -9.6491 C   0  0  0  0  0  0  0  0  0  0  0  0
    4.8503    7.0375   -9.1649 C   0  0  0  0  0  0  0  0  0  0  0  0
    9.3873    7.0453   -6.1478 C   0  0  0  0  0  0  0  0  0  0  0  0
    8.5422    6.6311   -4.9775 C   0  0  0  0  0  0  0  0  0  0  0  0
    8.5180    4.9765   -3.1448 C   0  0  0  0  0  0  0  0  0  0  0  0
   10.5947    5.4308   -4.3450 C   0  0  0  0  0  0  0  0  0  0  0  0
    9.0974    3.6184   -2.8295 C   0  0  0  0  0  0  0  0  0  0  0  0
   11.0741    4.0789   -3.8808 C   0  0  0  0  0  0  0  0  0  0  0  0
    9.1167    5.3764   -4.4288 N   0  0  0  0  0  0  0  0  0  0  0  0
   10.4892    3.7937   -2.6208 O   0  0  0  0  0  0  0  0  0  0  0  0
    5.6095    2.4719  -14.3453 C   0  0  0  0  0  0  0  0  0  0  0  0
    6.3312    3.1516  -13.3556 N   0  0  0  0  0  0  0  0  0  0  0  0
    4.9642    3.0469  -15.2066 O   0  0  0  0  0  0  0  0  0  0  0  0
    6.7960    2.6457  -12.6504 H   0  0  0  0  0  0  0  0  0  0  0  0
    5.1705    0.5559  -12.9096 C   0  0  0  0  0  0  0  0  0  0  0  0
    6.0854    0.1720  -15.1085 C   0  0  0  0  0  0  0  0  0  0  0  0
    5.2086   -0.7981  -12.6765 C   0  0  0  0  0  0  0  0  0  0  0  0
    6.1154   -1.1870  -14.8521 C   0  0  0  0  0  0  0  0  0  0  0  0
    5.6034    1.0234  -14.1312 C   0  0  0  0  0  0  0  0  0  0  0  0
    5.6718   -1.6788  -13.6308 C   0  0  0  0  0  0  0  0  0  0  0  0
    5.2403   -3.3248  -11.9664 C   0  0  0  0  0  0  0  0  0  0  0  0
    6.9858   -3.6539  -13.6117 C   0  0  0  0  0  0  0  0  0  0  0  0
    5.0491   -4.8203  -11.8205 C   0  0  0  0  0  0  0  0  0  0  0  0
    6.9011   -5.1629  -13.4432 C   0  0  0  0  0  0  0  0  0  0  0  0
    5.7028   -3.0595  -13.3162 N   0  0  0  0  0  0  0  0  0  0  0  0
    6.3273   -5.5339  -12.1153 N   0  0  0  0  0  0  0  0  0  0  0  0
    6.1120   -7.0180  -12.0280 C   0  0  0  0  0  0  0  0  0  0  0  0
    5.5354   -7.4506  -10.7168 C   0  0  0  0  0  0  0  0  0  0  0  0
    3.6961   -8.2021   -9.2119 C   0  0  0  0  0  0  0  0  0  0  0  0
    4.2598   -7.8377  -10.5381 C   0  0  0  0  0  0  0  0  0  0  0  0
    6.4920   -7.3837   -9.5784 C   0  0  0  0  0  0  0  0  0  0  0  0
    4.6277   -7.7821   -8.0913 C   0  0  0  0  0  0  0  0  0  0  0  0
    6.0334   -8.2123   -8.4003 C   0  0  0  0  0  0  0  0  0  0  0  0
    6.9374   -7.9618   -7.2137 C   0  0  0  0  0  0  0  0  0  0  0  0
    6.0514   -9.6888   -8.7049 C   0  0  0  0  0  0  0  0  0  0  0  0
    3.5098   -8.8802  -12.6375 C   0  0  0  0  0  0  0  0  0  0  0  0
    2.1623   -7.1691  -11.6464 C   0  0  0  0  0  0  0  0  0  0  0  0
    1.2396   -7.2994  -12.6616 C   0  0  0  0  0  0  0  0  0  0  0  0
    3.3009   -7.9502  -11.6381 C   0  0  0  0  0  0  0  0  0  0  0  0
    1.4670   -8.2212  -13.6629 C   0  0  0  0  0  0  0  0  0  0  0  0
    2.5990   -9.0097  -13.6692 C   0  0  0  0  0  0  0  0  0  0  0  0
    0.3124   -8.3676  -14.9325 Cl  0  0  0  0  0  0  0  0  0  0  0  0
  2  3  2  0  0  0
 38 36  2  0  0  0
  3  1  2  0  0  0
  3 37  1  0  0  0
  3  7  1  0  0  0
  5  4  2  0  0  0
  5  7  1  0  0  0
 36 37  1  0  0  0
 36 44  1  0  0  0
  4  6  1  0  0  0
  7  8  2  0  0  0
 40 44  2  0  0  0
 40 42  1  0  0  0
 44 41  1  0  0  0
 42 45  2  0  0  0
 41 43  2  0  0  0
 31 34  1  0  0  0
 31 33  1  0  0  0
 29 34  1  0  0  0
 29 28  1  0  0  0
 19 20  1  0  0  0
 19 28  1  0  0  0
 19 17  1  0  0  0
  6  9  2  0  0  0
  6 17  1  0  0  0
 20 21  1  0  0  0
  8  9  1  0  0  0
 47 50  1  0  0  0
 47 49  1  0  0  0
 45 43  1  0  0  0
 45 50  1  0  0  0
 34 30  1  0  0  0
 33 35  1  0  0  0
  9 12  1  0  0  0
 26 24  2  0  0  0
 26 22  1  0  0  0
 24 23  1  0  0  0
 50 46  1  0  0  0
 15 13  1  0  0  0
 49 51  1  0  0  0
 16 13  1  0  0  0
 46 48  1  0  0  0
 51 48  1  0  0  0
 51 52  1  0  0  0
 35 32  1  0  0  0
 30 32  1  0  0  0
 21 22  1  0  0  0
 13 12  1  0  0  0
 13 14  1  0  0  0
 22 27  2  0  0  0
 59 58  1  0  0  0
 23 25  2  0  0  0
 12 11  2  0  0  0
 12 10  2  0  0  0
 56 58  1  0  0  0
 56 53  1  0  0  0
 52 53  1  0  0  0
 58 60  1  0  0  0
 58 57  1  0  0  0
 27 25  1  0  0  0
 53 55  2  0  0  0
 57 54  1  0  0  0
 55 54  1  0  0  0
 55 64  1  0  0  0
 64 61  2  0  0  0
 64 62  1  0  0  0
 61 66  1  0  0  0
 62 63  2  0  0  0
 66 65  2  0  0  0
 63 65  1  0  0  0
 65 67  1  0  0  0
 17 18  1  0  0  0
 37 39  1  0  0  0
M  END
> <minimizedAffinity>
-8.53390

$$$$
4LVT_1XJ_A_301


 67 73  0  0  0  0  0  0  0  0999 V2000
    5.8487    6.1570  -13.2947 O   0  0  0  0  0  0  0  0  0  0  0  0
    3.6162    5.8429  -12.2426 O   0  0  0  0  0  0  0  0  0  0  0  0
    5.0454    5.6107  -12.2233 S   0  0  0  0  0  0  0  0  0  0  0  0
    5.6784    6.8494   -8.4007 C   0  0  0  0  0  0  0  0  0  0  0  0
    5.0511    6.3836   -9.5475 C   0  0  0  0  0  0  0  0  0  0  0  0
    7.0266    7.1337   -8.4435 C   0  0  0  0  0  0  0  0  0  0  0  0
    5.7738    6.2082  -10.7152 C   0  0  0  0  0  0  0  0  0  0  0  0
    7.1197    6.4771  -10.7786 C   0  0  0  0  0  0  0  0  0  0  0  0
    7.7047    6.9122   -9.6229 C   0  0  0  0  0  0  0  0  0  0  0  0
   10.0161    7.4523   -8.3920 O   0  0  0  0  0  0  0  0  0  0  0  0
   10.0309    6.4871  -10.7224 O   0  0  0  0  0  0  0  0  0  0  0  0
    9.4046    7.3109   -9.7000 S   0  0  0  0  0  0  0  0  0  0  0  0
    9.2963    8.9639  -10.3657 C   0  0  0  0  0  0  0  0  0  0  0  0
    8.2581    9.6291   -9.8414 F   0  0  0  0  0  0  0  0  0  0  0  0
   10.3838    9.7308  -10.0773 F   0  0  0  0  0  0  0  0  0  0  0  0
    9.1383    8.9731  -11.7173 F   0  0  0  0  0  0  0  0  0  0  0  0
    7.7673    7.5913   -7.3458 N   0  0  0  0  0  0  0  0  0  0  0  0
    8.5731    8.1477   -7.4480 H   0  0  0  0  0  0  0  0  0  0  0  0
    7.2602    7.1853   -6.0439 C   0  0  0  0  0  0  0  0  0  0  0  0
    8.2510    6.2730   -5.3317 C   0  0  0  0  0  0  0  0  0  0  0  0
    7.6993    4.5321   -5.2556 S   0  0  0  0  0  0  0  0  0  0  0  0
    8.0911    4.0034   -6.9091 C   0  0  0  0  0  0  0  0  0  0  0  0
    8.7152    3.1116   -9.4682 C   0  0  0  0  0  0  0  0  0  0  0  0
    9.6881    3.6401   -8.6512 C   0  0  0  0  0  0  0  0  0  0  0  0
    7.4223    3.0182   -9.0080 C   0  0  0  0  0  0  0  0  0  0  0  0
    9.3769    4.0883   -7.3830 C   0  0  0  0  0  0  0  0  0  0  0  0
    7.1215    3.4642   -7.7337 C   0  0  0  0  0  0  0  0  0  0  0  0
    7.1069    8.4851   -5.2838 C   0  0  0  0  0  0  0  0  0  0  0  0
    7.5658    9.6598   -6.0991 C   0  0  0  0  0  0  0  0  0  0  0  0
    8.4877   11.7269   -5.1120 C   0  0  0  0  0  0  0  0  0  0  0  0
    9.9944   10.0516   -6.0516 C   0  0  0  0  0  0  0  0  0  0  0  0
    9.6446   12.1552   -4.2416 C   0  0  0  0  0  0  0  0  0  0  0  0
   11.0762   10.6428   -5.1839 C   0  0  0  0  0  0  0  0  0  0  0  0
    8.6980   10.2942   -5.3772 N   0  0  0  0  0  0  0  0  0  0  0  0
   10.8242   12.0286   -5.0186 O   0  0  0  0  0  0  0  0  0  0  0  0
    6.5338    3.4141  -12.5528 C   0  0  0  0  0  0  0  0  0  0  0  0
    5.2893    3.9466  -12.1922 N   0  0  0  0  0  0  0  0  0  0  0  0
    7.4568    4.1029  -12.9560 O   0  0  0  0  0  0  0  0  0  0  0  0
    4.5573    3.3468  -11.9205 H   0  0  0  0  0  0  0  0  0  0  0  0
    5.3310    1.3058  -12.3707 C   0  0  0  0  0  0  0  0  0  0  0  0
    7.7322    1.2553  -12.5970 C   0  0  0  0  0  0  0  0  0  0  0  0
    5.3268   -0.0665  -12.2952 C   0  0  0  0  0  0  0  0  0  0  0  0
    7.7044   -0.1255  -12.5181 C   0  0  0  0  0  0  0  0  0  0  0  0
    6.5384    1.9501  -12.5298 C   0  0  0  0  0  0  0  0  0  0  0  0
    6.4957   -0.7939  -12.3697 C   0  0  0  0  0  0  0  0  0  0  0  0
    5.0496   -2.6810  -12.2519 C   0  0  0  0  0  0  0  0  0  0  0  0
    7.2143   -2.7089  -11.1680 C   0  0  0  0  0  0  0  0  0  0  0  0
    5.0740   -4.1867  -12.4148 C   0  0  0  0  0  0  0  0  0  0  0  0
    7.2555   -4.2281  -11.2232 C   0  0  0  0  0  0  0  0  0  0  0  0
    6.4204   -2.2045  -12.2642 N   0  0  0  0  0  0  0  0  0  0  0  0
    5.8836   -4.8093  -11.3253 N   0  0  0  0  0  0  0  0  0  0  0  0
    5.9527   -6.2957  -11.5302 C   0  0  0  0  0  0  0  0  0  0  0  0
    5.4353   -7.0734  -10.3613 C   0  0  0  0  0  0  0  0  0  0  0  0
    3.7294   -8.4148   -9.1353 C   0  0  0  0  0  0  0  0  0  0  0  0
    4.2468   -7.7022  -10.3327 C   0  0  0  0  0  0  0  0  0  0  0  0
    6.3395   -7.0706   -9.1789 C   0  0  0  0  0  0  0  0  0  0  0  0
    4.5458   -8.0722   -7.9040 C   0  0  0  0  0  0  0  0  0  0  0  0
    6.0123   -8.1835   -8.2097 C   0  0  0  0  0  0  0  0  0  0  0  0
    6.8307   -8.0222   -6.9479 C   0  0  0  0  0  0  0  0  0  0  0  0
    6.3025   -9.5442   -8.7907 C   0  0  0  0  0  0  0  0  0  0  0  0
    3.5153   -8.7419  -12.4401 C   0  0  0  0  0  0  0  0  0  0  0  0
    2.3009   -6.8627  -11.5913 C   0  0  0  0  0  0  0  0  0  0  0  0
    1.4310   -6.9357  -12.6575 C   0  0  0  0  0  0  0  0  0  0  0  0
    3.3478   -7.7570  -11.4864 C   0  0  0  0  0  0  0  0  0  0  0  0
    1.6177   -7.9144  -13.6122 C   0  0  0  0  0  0  0  0  0  0  0  0
    2.6581   -8.8159  -13.5220 C   0  0  0  0  0  0  0  0  0  0  0  0
    0.5308   -7.9892  -14.9462 Cl  0  0  0  0  0  0  0  0  0  0  0  0
  2  3  2  0  0  0
 38 36  2  0  0  0
  3  1  2  0  0  0
  3 37  1  0  0  0
  3  7  1  0  0  0
  5  4  2  0  0  0
  5  7  1  0  0  0
 36 37  1  0  0  0
 36 44  1  0  0  0
  4  6  1  0  0  0
  7  8  2  0  0  0
 40 44  2  0  0  0
 40 42  1  0  0  0
 44 41  1  0  0  0
 42 45  2  0  0  0
 41 43  2  0  0  0
 31 34  1  0  0  0
 31 33  1  0  0  0
 29 34  1  0  0  0
 29 28  1  0  0  0
 19 20  1  0  0  0
 19 28  1  0  0  0
 19 17  1  0  0  0
  6  9  2  0  0  0
  6 17  1  0  0  0
 20 21  1  0  0  0
  8  9  1  0  0  0
 47 50  1  0  0  0
 47 49  1  0  0  0
 45 43  1  0  0  0
 45 50  1  0  0  0
 34 30  1  0  0  0
 33 35  1  0  0  0
  9 12  1  0  0  0
 26 24  2  0  0  0
 26 22  1  0  0  0
 24 23  1  0  0  0
 50 46  1  0  0  0
 15 13  1  0  0  0
 49 51  1  0  0  0
 16 13  1  0  0  0
 46 48  1  0  0  0
 51 48  1  0  0  0
 51 52  1  0  0  0
 35 32  1  0  0  0
 30 32  1  0  0  0
 21 22  1  0  0  0
 13 12  1  0  0  0
 13 14  1  0  0  0
 22 27  2  0  0  0
 59 58  1  0  0  0
 23 25  2  0  0  0
 12 11  2  0  0  0
 12 10  2  0  0  0
 56 58  1  0  0  0
 56 53  1  0  0  0
 52 53  1  0  0  0
 58 60  1  0  0  0
 58 57  1  0  0  0
 27 25  1  0  0  0
 53 55  2  0  0  0
 57 54  1  0  0  0
 55 54  1  0  0  0
 55 64  1  0  0  0
 64 61  2  0  0  0
 64 62  1  0  0  0
 61 66  1  0  0  0
 62 63  2  0  0  0
 66 65  2  0  0  0
 63 65  1  0  0  0
 65 67  1  0  0  0
 17 18  1  0  0  0
 37 39  1  0  0  0
M  END
> <minimizedAffinity>
-8.50530

$$$$
