1EZQ_RPR_A_265


 40 42  0  0  0  0  0  0  0  0999 V2000
    5.0531    4.1396   22.3885 C   0  0  0  0  0  0  0  0  0  0  0  0
    5.3531    5.4800   22.2998 N   0  0  0  0  0  0  0  0  0  0  0  0
    4.2325    3.7121   23.2081 O   0  0  0  0  0  0  0  0  0  0  0  0
    6.0149    5.7676   21.6301 H   0  0  0  0  0  0  0  0  0  0  0  0
    5.3114    1.9387   21.1527 C   0  0  0  0  0  0  0  0  0  0  0  0
    5.7862    3.2506   21.4447 C   0  0  0  0  0  0  0  0  0  0  0  0
    6.9870    3.6825   20.7994 C   0  0  0  0  0  0  0  0  0  0  0  0
    7.6755    2.8254   19.8981 C   0  0  0  0  0  0  0  0  0  0  0  0
    7.1998    1.5216   19.6107 C   0  0  0  0  0  0  0  0  0  0  0  0
    6.0075    1.0984   20.2548 C   0  0  0  0  0  0  0  0  0  0  0  0
    9.2910    0.2572   18.8602 C   0  0  0  0  0  0  0  0  0  0  0  0
    7.9332    0.6057   18.6507 C   0  0  0  0  0  0  0  0  0  0  0  0
    7.2846    0.0662   17.5119 C   0  0  0  0  0  0  0  0  0  0  0  0
    7.9539   -0.7947   16.6057 C   0  0  0  0  0  0  0  0  0  0  0  0
    9.3096   -1.1368   16.8226 C   0  0  0  0  0  0  0  0  0  0  0  0
    9.9835   -0.6090   17.9567 C   0  0  0  0  0  0  0  0  0  0  0  0
   11.4237   -0.9585   18.2064 C   0  0  0  0  0  0  0  0  0  0  0  0
   11.8388   -2.1149   17.4045 N   0  0  0  0  0  0  0  0  0  0  0  0
   11.2725   -2.9248   17.6572 H   0  0  0  0  0  0  0  0  0  0  0  0
   12.8221   -2.3181   17.5844 H   0  0  0  0  0  0  0  0  0  0  0  0
    4.7357    6.5026   23.1539 C   0  0  0  0  0  0  0  0  0  0  0  0
    4.0655    7.5469   22.2465 C   0  0  0  0  0  0  0  0  0  0  0  0
    5.8383    7.1225   24.0933 C   0  0  0  0  0  0  0  0  0  0  0  0
    5.1923    8.2599   24.9312 C   0  0  0  0  0  0  0  0  0  0  0  0
    5.5406    9.4076   24.9147 O   0  0  0  0  0  0  0  0  0  0  0  0
    4.0401    7.8144   25.6462 O   0  0  0  0  0  0  0  0  0  0  0  0
    2.9068    8.6849   25.7838 C   0  0  0  0  0  0  0  0  0  0  0  0
    7.0525    7.6679   23.2551 C   0  0  0  0  0  0  0  0  0  0  0  0
    8.7037    7.3636   25.2241 C   0  0  0  0  0  0  0  0  0  0  0  0
    9.9163    7.6956   25.8779 C   0  0  0  0  0  0  0  0  0  0  0  0
   10.7768    8.6674   25.2996 C   0  0  0  0  0  0  0  0  0  0  0  0
   10.4260    9.2913   24.0872 C   0  0  0  0  0  0  0  0  0  0  0  0
    9.2191    8.9545   23.4436 C   0  0  0  0  0  0  0  0  0  0  0  0
    8.3411    7.9880   23.9993 C   0  0  0  0  0  0  0  0  0  0  0  0
   10.2857    7.0506   27.1429 C   0  0  0  0  0  0  0  0  0  0  0  0
   11.5595    6.6743   27.3725 N   0  0  0  0  0  0  0  0  0  0  0  0
    9.3567    6.8332   28.0849 N   0  0  0  0  0  0  0  0  0  0  0  0
   12.2496    6.8292   26.6876 H   0  0  0  0  0  0  0  0  0  0  0  0
   11.7998    6.2446   28.2250 H   0  0  0  0  0  0  0  0  0  0  0  0
    8.4234    7.1040   27.9277 H   0  0  0  0  0  0  0  0  0  0  0  0
 11 12  2  0  0  0
 11 16  1  0  0  0
 12 13  1  0  0  0
 12  9  1  0  0  0
 13 14  2  0  0  0
 14 15  1  0  0  0
 15 16  2  0  0  0
 16 17  1  0  0  0
  5  6  2  0  0  0
  5 10  1  0  0  0
  6  7  1  0  0  0
  6  1  1  0  0  0
  7  8  2  0  0  0
  8  9  1  0  0  0
  9 10  2  0  0  0
  1  2  1  0  0  0
  1  3  2  0  0  0
  2 21  1  0  0  0
 21 22  1  0  0  0
 21 23  1  0  0  0
 23 24  1  0  0  0
 23 28  1  0  0  0
 24 26  1  0  0  0
 24 25  2  0  0  0
 26 27  1  0  0  0
 28 34  1  0  0  0
 17 18  1  0  0  0
 29 30  2  0  0  0
 29 34  1  0  0  0
 30 31  1  0  0  0
 30 35  1  0  0  0
 31 32  2  0  0  0
 32 33  1  0  0  0
 33 34  2  0  0  0
 35 36  1  0  0  0
 35 37  2  0  0  0
  2  4  1  0  0  0
 18 19  1  0  0  0
 18 20  1  0  0  0
 36 38  1  0  0  0
 36 39  1  0  0  0
 37 40  1  0  0  0
M  END
> <minimizedAffinity>
-11.27306

$$$$
1EZQ_RPR_A_265


 40 42  0  0  0  0  0  0  0  0999 V2000
    4.8444    4.1538   22.5753 C   0  0  0  0  0  0  0  0  0  0  0  0
    5.1865    5.4870   22.5777 N   0  0  0  0  0  0  0  0  0  0  0  0
    3.9598    3.7104   23.3161 O   0  0  0  0  0  0  0  0  0  0  0  0
    5.8989    5.7880   21.9685 H   0  0  0  0  0  0  0  0  0  0  0  0
    6.3506    3.8597   20.5547 C   0  0  0  0  0  0  0  0  0  0  0  0
    5.6137    3.2922   21.6349 C   0  0  0  0  0  0  0  0  0  0  0  0
    5.6409    1.8703   21.7845 C   0  0  0  0  0  0  0  0  0  0  0  0
    6.3817    1.0594   20.8818 C   0  0  0  0  0  0  0  0  0  0  0  0
    7.1130    1.6279   19.8091 C   0  0  0  0  0  0  0  0  0  0  0  0
    7.0817    3.0399   19.6656 C   0  0  0  0  0  0  0  0  0  0  0  0
    7.2592    0.0439   17.8079 C   0  0  0  0  0  0  0  0  0  0  0  0
    7.9027    0.7647   18.8449 C   0  0  0  0  0  0  0  0  0  0  0  0
    9.3116    0.6510   18.9477 C   0  0  0  0  0  0  0  0  0  0  0  0
   10.0664   -0.1486   18.0527 C   0  0  0  0  0  0  0  0  0  0  0  0
    9.4155   -0.8652   17.0207 C   0  0  0  0  0  0  0  0  0  0  0  0
    8.0034   -0.7688   16.8958 C   0  0  0  0  0  0  0  0  0  0  0  0
    7.2910   -1.5217   15.8075 C   0  0  0  0  0  0  0  0  0  0  0  0
    8.1895   -2.4688   15.1379 N   0  0  0  0  0  0  0  0  0  0  0  0
    8.9631   -1.9595   14.7106 H   0  0  0  0  0  0  0  0  0  0  0  0
    7.6749   -2.9736   14.4163 H   0  0  0  0  0  0  0  0  0  0  0  0
    4.5423    6.4830   23.4433 C   0  0  0  0  0  0  0  0  0  0  0  0
    3.7517    7.4552   22.5527 C   0  0  0  0  0  0  0  0  0  0  0  0
    5.6448    7.2020   24.3094 C   0  0  0  0  0  0  0  0  0  0  0  0
    4.9827    8.3809   25.0742 C   0  0  0  0  0  0  0  0  0  0  0  0
    5.2678    9.5374   24.9329 O   0  0  0  0  0  0  0  0  0  0  0  0
    3.8941    7.9497   25.8905 O   0  0  0  0  0  0  0  0  0  0  0  0
    2.6230    8.6092   25.7888 C   0  0  0  0  0  0  0  0  0  0  0  0
    6.8257    7.7161   23.4063 C   0  0  0  0  0  0  0  0  0  0  0  0
    8.5858    7.4019   25.2770 C   0  0  0  0  0  0  0  0  0  0  0  0
    9.8268    7.7415   25.8709 C   0  0  0  0  0  0  0  0  0  0  0  0
   10.6394    8.7382   25.2664 C   0  0  0  0  0  0  0  0  0  0  0  0
   10.2137    9.3791   24.0873 C   0  0  0  0  0  0  0  0  0  0  0  0
    8.9790    9.0346   23.5032 C   0  0  0  0  0  0  0  0  0  0  0  0
    8.1476    8.0433   24.0861 C   0  0  0  0  0  0  0  0  0  0  0  0
   10.2742    7.0788   27.1011 C   0  0  0  0  0  0  0  0  0  0  0  0
   11.5777    6.7909   27.2877 N   0  0  0  0  0  0  0  0  0  0  0  0
    9.3875    6.7568   28.0538 N   0  0  0  0  0  0  0  0  0  0  0  0
   12.2372    7.0230   26.5946 H   0  0  0  0  0  0  0  0  0  0  0  0
   11.8703    6.3486   28.1172 H   0  0  0  0  0  0  0  0  0  0  0  0
    8.4330    6.9624   27.9278 H   0  0  0  0  0  0  0  0  0  0  0  0
 11 12  2  0  0  0
 11 16  1  0  0  0
 12 13  1  0  0  0
 12  9  1  0  0  0
 13 14  2  0  0  0
 14 15  1  0  0  0
 15 16  2  0  0  0
 16 17  1  0  0  0
  5  6  2  0  0  0
  5 10  1  0  0  0
  6  7  1  0  0  0
  6  1  1  0  0  0
  7  8  2  0  0  0
  8  9  1  0  0  0
  9 10  2  0  0  0
  1  2  1  0  0  0
  1  3  2  0  0  0
  2 21  1  0  0  0
 21 22  1  0  0  0
 21 23  1  0  0  0
 23 24  1  0  0  0
 23 28  1  0  0  0
 24 26  1  0  0  0
 24 25  2  0  0  0
 26 27  1  0  0  0
 28 34  1  0  0  0
 17 18  1  0  0  0
 29 30  2  0  0  0
 29 34  1  0  0  0
 30 31  1  0  0  0
 30 35  1  0  0  0
 31 32  2  0  0  0
 32 33  1  0  0  0
 33 34  2  0  0  0
 35 36  1  0  0  0
 35 37  2  0  0  0
  2  4  1  0  0  0
 18 19  1  0  0  0
 18 20  1  0  0  0
 36 38  1  0  0  0
 36 39  1  0  0  0
 37 40  1  0  0  0
M  END
> <minimizedAffinity>
-11.05247

$$$$
1EZQ_RPR_A_265


 40 42  0  0  0  0  0  0  0  0999 V2000
    5.3018    4.3836   22.3793 C   0  0  0  0  0  0  0  0  0  0  0  0
    5.6959    5.6967   22.2565 N   0  0  0  0  0  0  0  0  0  0  0  0
    4.4707    4.0327   23.2243 O   0  0  0  0  0  0  0  0  0  0  0  0
    6.3618    5.9225   21.5675 H   0  0  0  0  0  0  0  0  0  0  0  0
    6.4247    3.8547   20.1663 C   0  0  0  0  0  0  0  0  0  0  0  0
    5.9478    3.4257   21.4392 C   0  0  0  0  0  0  0  0  0  0  0  0
    6.1130    2.0472   21.7816 C   0  0  0  0  0  0  0  0  0  0  0  0
    6.7341    1.1437   20.8766 C   0  0  0  0  0  0  0  0  0  0  0  0
    7.2069    1.5746   19.6118 C   0  0  0  0  0  0  0  0  0  0  0  0
    7.0396    2.9442   19.2775 C   0  0  0  0  0  0  0  0  0  0  0  0
    9.2289    0.2426   18.7919 C   0  0  0  0  0  0  0  0  0  0  0  0
    7.8686    0.6125   18.6450 C   0  0  0  0  0  0  0  0  0  0  0  0
    7.1479    0.0497   17.5621 C   0  0  0  0  0  0  0  0  0  0  0  0
    7.7496   -0.8543   16.6505 C   0  0  0  0  0  0  0  0  0  0  0  0
    9.1084   -1.2175   16.8046 C   0  0  0  0  0  0  0  0  0  0  0  0
    9.8538   -0.6671   17.8819 C   0  0  0  0  0  0  0  0  0  0  0  0
   11.2986   -1.0384   18.0645 C   0  0  0  0  0  0  0  0  0  0  0  0
   11.6373   -2.2506   17.3105 N   0  0  0  0  0  0  0  0  0  0  0  0
   11.0700   -3.0292   17.6457 H   0  0  0  0  0  0  0  0  0  0  0  0
   12.6251   -2.4681   17.4423 H   0  0  0  0  0  0  0  0  0  0  0  0
    5.1730    6.7777   23.1017 C   0  0  0  0  0  0  0  0  0  0  0  0
    3.7610    7.1337   22.6089 C   0  0  0  0  0  0  0  0  0  0  0  0
    6.1676    7.9985   23.0494 C   0  0  0  0  0  0  0  0  0  0  0  0
    7.4079    7.5909   22.2076 C   0  0  0  0  0  0  0  0  0  0  0  0
    8.2161    6.7658   22.5310 O   0  0  0  0  0  0  0  0  0  0  0  0
    7.4224    8.2240   20.9284 O   0  0  0  0  0  0  0  0  0  0  0  0
    8.5885    8.9460   20.5043 C   0  0  0  0  0  0  0  0  0  0  0  0
    6.5965    8.4396   24.4971 C   0  0  0  0  0  0  0  0  0  0  0  0
    8.6627    7.6292   25.8277 C   0  0  0  0  0  0  0  0  0  0  0  0
   10.0540    7.6769   26.0927 C   0  0  0  0  0  0  0  0  0  0  0  0
   10.8763    8.5617   25.3443 C   0  0  0  0  0  0  0  0  0  0  0  0
   10.3114    9.3806   24.3480 C   0  0  0  0  0  0  0  0  0  0  0  0
    8.9276    9.3260   24.0906 C   0  0  0  0  0  0  0  0  0  0  0  0
    8.0832    8.4520   24.8233 C   0  0  0  0  0  0  0  0  0  0  0  0
   10.6476    6.8278   27.1316 C   0  0  0  0  0  0  0  0  0  0  0  0
   11.9608    6.9187   27.4215 N   0  0  0  0  0  0  0  0  0  0  0  0
    9.8852    5.9546   27.8053 N   0  0  0  0  0  0  0  0  0  0  0  0
   12.5298    7.5565   26.9329 H   0  0  0  0  0  0  0  0  0  0  0  0
   12.3510    6.3474   28.1219 H   0  0  0  0  0  0  0  0  0  0  0  0
    8.9249    5.8800   27.6016 H   0  0  0  0  0  0  0  0  0  0  0  0
 11 12  2  0  0  0
 11 16  1  0  0  0
 12 13  1  0  0  0
 12  9  1  0  0  0
 13 14  2  0  0  0
 14 15  1  0  0  0
 15 16  2  0  0  0
 16 17  1  0  0  0
  5  6  2  0  0  0
  5 10  1  0  0  0
  6  7  1  0  0  0
  6  1  1  0  0  0
  7  8  2  0  0  0
  8  9  1  0  0  0
  9 10  2  0  0  0
  1  2  1  0  0  0
  1  3  2  0  0  0
  2 21  1  0  0  0
 21 22  1  0  0  0
 21 23  1  0  0  0
 23 24  1  0  0  0
 23 28  1  0  0  0
 24 26  1  0  0  0
 24 25  2  0  0  0
 26 27  1  0  0  0
 28 34  1  0  0  0
 17 18  1  0  0  0
 29 30  2  0  0  0
 29 34  1  0  0  0
 30 31  1  0  0  0
 30 35  1  0  0  0
 31 32  2  0  0  0
 32 33  1  0  0  0
 33 34  2  0  0  0
 35 36  1  0  0  0
 35 37  2  0  0  0
  2  4  1  0  0  0
 18 19  1  0  0  0
 18 20  1  0  0  0
 36 38  1  0  0  0
 36 39  1  0  0  0
 37 40  1  0  0  0
M  END
> <minimizedAffinity>
-10.18620

$$$$
1EZQ_RPR_A_265


 40 42  0  0  0  0  0  0  0  0999 V2000
    4.3507    4.1668   22.5306 C   0  0  0  0  0  0  0  0  0  0  0  0
    4.1177    5.4591   22.1180 N   0  0  0  0  0  0  0  0  0  0  0  0
    3.9331    3.7479   23.6160 O   0  0  0  0  0  0  0  0  0  0  0  0
    4.4734    5.7423   21.2447 H   0  0  0  0  0  0  0  0  0  0  0  0
    6.3166    3.8264   20.9630 C   0  0  0  0  0  0  0  0  0  0  0  0
    5.1408    3.3224   21.5918 C   0  0  0  0  0  0  0  0  0  0  0  0
    4.7491    1.9803   21.2919 C   0  0  0  0  0  0  0  0  0  0  0  0
    5.5138    1.1837   20.3965 C   0  0  0  0  0  0  0  0  0  0  0  0
    6.6822    1.6889   19.7734 C   0  0  0  0  0  0  0  0  0  0  0  0
    7.0657    3.0221   20.0748 C   0  0  0  0  0  0  0  0  0  0  0  0
    8.8894    0.6495   19.0100 C   0  0  0  0  0  0  0  0  0  0  0  0
    7.4984    0.8413   18.8175 C   0  0  0  0  0  0  0  0  0  0  0  0
    6.8968    0.2112   17.6996 C   0  0  0  0  0  0  0  0  0  0  0  0
    7.6439   -0.5877   16.7975 C   0  0  0  0  0  0  0  0  0  0  0  0
    9.0324   -0.7733   16.9973 C   0  0  0  0  0  0  0  0  0  0  0  0
    9.6603   -0.1521   18.1103 C   0  0  0  0  0  0  0  0  0  0  0  0
   11.1340   -0.3350   18.3417 C   0  0  0  0  0  0  0  0  0  0  0  0
   11.6068   -1.6090   17.7885 N   0  0  0  0  0  0  0  0  0  0  0  0
   11.1207   -2.3799   18.2467 H   0  0  0  0  0  0  0  0  0  0  0  0
   12.6104   -1.6973   17.9479 H   0  0  0  0  0  0  0  0  0  0  0  0
    3.3653    6.4366   22.9146 C   0  0  0  0  0  0  0  0  0  0  0  0
    2.6832    7.4206   21.9503 C   0  0  0  0  0  0  0  0  0  0  0  0
    4.3482    7.1453   23.9216 C   0  0  0  0  0  0  0  0  0  0  0  0
    3.5519    7.5398   25.1958 C   0  0  0  0  0  0  0  0  0  0  0  0
    3.8751    8.3979   25.9691 O   0  0  0  0  0  0  0  0  0  0  0  0
    2.3081    6.8461   25.2900 O   0  0  0  0  0  0  0  0  0  0  0  0
    1.1336    7.5463   25.7273 C   0  0  0  0  0  0  0  0  0  0  0  0
    5.0131    8.4108   23.2653 C   0  0  0  0  0  0  0  0  0  0  0  0
    7.2939    8.1114   24.4502 C   0  0  0  0  0  0  0  0  0  0  0  0
    8.7052    8.2392   24.4569 C   0  0  0  0  0  0  0  0  0  0  0  0
    9.3605    8.7924   23.3239 C   0  0  0  0  0  0  0  0  0  0  0  0
    8.6119    9.2068   22.2058 C   0  0  0  0  0  0  0  0  0  0  0  0
    7.2095    9.0753   22.2073 C   0  0  0  0  0  0  0  0  0  0  0  0
    6.5296    8.5267   23.3256 C   0  0  0  0  0  0  0  0  0  0  0  0
    9.4901    7.8115   25.6204 C   0  0  0  0  0  0  0  0  0  0  0  0
   10.6740    8.3929   25.8981 N   0  0  0  0  0  0  0  0  0  0  0  0
    9.0325    6.8383   26.4212 N   0  0  0  0  0  0  0  0  0  0  0  0
   11.0194    9.1084   25.3167 H   0  0  0  0  0  0  0  0  0  0  0  0
   11.1934    8.1021   26.6822 H   0  0  0  0  0  0  0  0  0  0  0  0
    8.1690    6.4068   26.2276 H   0  0  0  0  0  0  0  0  0  0  0  0
 11 12  2  0  0  0
 11 16  1  0  0  0
 12 13  1  0  0  0
 12  9  1  0  0  0
 13 14  2  0  0  0
 14 15  1  0  0  0
 15 16  2  0  0  0
 16 17  1  0  0  0
  5  6  2  0  0  0
  5 10  1  0  0  0
  6  7  1  0  0  0
  6  1  1  0  0  0
  7  8  2  0  0  0
  8  9  1  0  0  0
  9 10  2  0  0  0
  1  2  1  0  0  0
  1  3  2  0  0  0
  2 21  1  0  0  0
 21 22  1  0  0  0
 21 23  1  0  0  0
 23 24  1  0  0  0
 23 28  1  0  0  0
 24 26  1  0  0  0
 24 25  2  0  0  0
 26 27  1  0  0  0
 28 34  1  0  0  0
 17 18  1  0  0  0
 29 30  2  0  0  0
 29 34  1  0  0  0
 30 31  1  0  0  0
 30 35  1  0  0  0
 31 32  2  0  0  0
 32 33  1  0  0  0
 33 34  2  0  0  0
 35 36  1  0  0  0
 35 37  2  0  0  0
  2  4  1  0  0  0
 18 19  1  0  0  0
 18 20  1  0  0  0
 36 38  1  0  0  0
 36 39  1  0  0  0
 37 40  1  0  0  0
M  END
> <minimizedAffinity>
-9.73312

$$$$
1EZQ_RPR_A_265


 40 42  0  0  0  0  0  0  0  0999 V2000
    4.1501    4.3712   22.5462 C   0  0  0  0  0  0  0  0  0  0  0  0
    3.9209    5.6610   22.1238 N   0  0  0  0  0  0  0  0  0  0  0  0
    3.6787    3.9429   23.6056 O   0  0  0  0  0  0  0  0  0  0  0  0
    4.3207    5.9521   21.2725 H   0  0  0  0  0  0  0  0  0  0  0  0
    5.3607    2.2077   22.0062 C   0  0  0  0  0  0  0  0  0  0  0  0
    5.0043    3.5416   21.6516 C   0  0  0  0  0  0  0  0  0  0  0  0
    5.4931    4.0527   20.4087 C   0  0  0  0  0  0  0  0  0  0  0  0
    6.3051    3.2493   19.5623 C   0  0  0  0  0  0  0  0  0  0  0  0
    6.6570    1.9235   19.9189 C   0  0  0  0  0  0  0  0  0  0  0  0
    6.1691    1.4219   21.1542 C   0  0  0  0  0  0  0  0  0  0  0  0
    6.9607    0.3103   17.9593 C   0  0  0  0  0  0  0  0  0  0  0  0
    7.5236    1.0656   19.0182 C   0  0  0  0  0  0  0  0  0  0  0  0
    8.9267    0.9915   19.2046 C   0  0  0  0  0  0  0  0  0  0  0  0
    9.7528    0.1974   18.3697 C   0  0  0  0  0  0  0  0  0  0  0  0
    9.1819   -0.5539   17.3152 C   0  0  0  0  0  0  0  0  0  0  0  0
    7.7775   -0.4976   17.1070 C   0  0  0  0  0  0  0  0  0  0  0  0
    7.1496   -1.2877   15.9935 C   0  0  0  0  0  0  0  0  0  0  0  0
    8.1489   -2.0907   15.2798 N   0  0  0  0  0  0  0  0  0  0  0  0
    8.8498   -1.4742   14.8686 H   0  0  0  0  0  0  0  0  0  0  0  0
    7.6912   -2.6253   14.5414 H   0  0  0  0  0  0  0  0  0  0  0  0
    3.1102    6.6247   22.8790 C   0  0  0  0  0  0  0  0  0  0  0  0
    2.6643    7.7374   21.9164 C   0  0  0  0  0  0  0  0  0  0  0  0
    3.9540    7.1660   24.0945 C   0  0  0  0  0  0  0  0  0  0  0  0
    3.0133    7.3187   25.3213 C   0  0  0  0  0  0  0  0  0  0  0  0
    3.2338    8.0144   26.2731 O   0  0  0  0  0  0  0  0  0  0  0  0
    1.7779    6.6267   25.1421 O   0  0  0  0  0  0  0  0  0  0  0  0
    0.5987    7.0879   25.8186 C   0  0  0  0  0  0  0  0  0  0  0  0
    4.6370    8.5382   23.7411 C   0  0  0  0  0  0  0  0  0  0  0  0
    6.7980    8.8438   22.3509 C   0  0  0  0  0  0  0  0  0  0  0  0
    8.2119    8.8503   22.2566 C   0  0  0  0  0  0  0  0  0  0  0  0
    8.9889    8.5637   23.4112 C   0  0  0  0  0  0  0  0  0  0  0  0
    8.3570    8.2782   24.6365 C   0  0  0  0  0  0  0  0  0  0  0  0
    6.9509    8.2748   24.7214 C   0  0  0  0  0  0  0  0  0  0  0  0
    6.1508    8.5571   23.5839 C   0  0  0  0  0  0  0  0  0  0  0  0
    8.8758    9.1445   20.9817 C   0  0  0  0  0  0  0  0  0  0  0  0
    9.5510    8.1811   20.3238 N   0  0  0  0  0  0  0  0  0  0  0  0
    8.8126   10.3770   20.4576 N   0  0  0  0  0  0  0  0  0  0  0  0
    9.6037    7.2727   20.6996 H   0  0  0  0  0  0  0  0  0  0  0  0
    9.9914    8.3859   19.4674 H   0  0  0  0  0  0  0  0  0  0  0  0
    8.3221   11.0882   20.9297 H   0  0  0  0  0  0  0  0  0  0  0  0
 11 12  2  0  0  0
 11 16  1  0  0  0
 12 13  1  0  0  0
 12  9  1  0  0  0
 13 14  2  0  0  0
 14 15  1  0  0  0
 15 16  2  0  0  0
 16 17  1  0  0  0
  5  6  2  0  0  0
  5 10  1  0  0  0
  6  7  1  0  0  0
  6  1  1  0  0  0
  7  8  2  0  0  0
  8  9  1  0  0  0
  9 10  2  0  0  0
  1  2  1  0  0  0
  1  3  2  0  0  0
  2 21  1  0  0  0
 21 22  1  0  0  0
 21 23  1  0  0  0
 23 24  1  0  0  0
 23 28  1  0  0  0
 24 26  1  0  0  0
 24 25  2  0  0  0
 26 27  1  0  0  0
 28 34  1  0  0  0
 17 18  1  0  0  0
 29 30  2  0  0  0
 29 34  1  0  0  0
 30 31  1  0  0  0
 30 35  1  0  0  0
 31 32  2  0  0  0
 32 33  1  0  0  0
 33 34  2  0  0  0
 35 36  1  0  0  0
 35 37  2  0  0  0
  2  4  1  0  0  0
 18 19  1  0  0  0
 18 20  1  0  0  0
 36 38  1  0  0  0
 36 39  1  0  0  0
 37 40  1  0  0  0
M  END
> <minimizedAffinity>
-9.53776

$$$$
1EZQ_RPR_A_265


 40 42  0  0  0  0  0  0  0  0999 V2000
    6.9956    3.1204   20.0843 C   0  0  0  0  0  0  0  0  0  0  0  0
    5.7269    3.0755   20.6161 N   0  0  0  0  0  0  0  0  0  0  0  0
    7.7673    4.0550   20.3270 O   0  0  0  0  0  0  0  0  0  0  0  0
    5.1521    2.3089   20.3901 H   0  0  0  0  0  0  0  0  0  0  0  0
    8.6337    1.3431   19.3125 C   0  0  0  0  0  0  0  0  0  0  0  0
    7.3643    1.9814   19.1982 C   0  0  0  0  0  0  0  0  0  0  0  0
    6.4590    1.4891   18.2067 C   0  0  0  0  0  0  0  0  0  0  0  0
    6.8220    0.3991   17.3694 C   0  0  0  0  0  0  0  0  0  0  0  0
    8.0853   -0.2326   17.4865 C   0  0  0  0  0  0  0  0  0  0  0  0
    8.9798    0.2609   18.4723 C   0  0  0  0  0  0  0  0  0  0  0  0
    9.7932   -1.9142   16.5975 C   0  0  0  0  0  0  0  0  0  0  0  0
    8.4746   -1.3944   16.5938 C   0  0  0  0  0  0  0  0  0  0  0  0
    7.5319   -2.0005   15.7262 C   0  0  0  0  0  0  0  0  0  0  0  0
    7.8775   -3.0899   14.8873 C   0  0  0  0  0  0  0  0  0  0  0  0
    9.1965   -3.6021   14.8973 C   0  0  0  0  0  0  0  0  0  0  0  0
   10.1612   -3.0121   15.7577 C   0  0  0  0  0  0  0  0  0  0  0  0
   11.5683   -3.5394   15.7843 C   0  0  0  0  0  0  0  0  0  0  0  0
   12.4436   -2.6834   16.5928 N   0  0  0  0  0  0  0  0  0  0  0  0
   12.4687   -1.7464   16.1905 H   0  0  0  0  0  0  0  0  0  0  0  0
   13.3857   -3.0741   16.6036 H   0  0  0  0  0  0  0  0  0  0  0  0
    5.1876    4.1136   21.5037 C   0  0  0  0  0  0  0  0  0  0  0  0
    4.4385    3.4216   22.6542 C   0  0  0  0  0  0  0  0  0  0  0  0
    4.2678    5.0801   20.6657 C   0  0  0  0  0  0  0  0  0  0  0  0
    3.7070    4.2968   19.4470 C   0  0  0  0  0  0  0  0  0  0  0  0
    4.1511    4.3489   18.3340 O   0  0  0  0  0  0  0  0  0  0  0  0
    2.6634    3.3970   19.8190 O   0  0  0  0  0  0  0  0  0  0  0  0
    1.3606    3.5359   19.2322 C   0  0  0  0  0  0  0  0  0  0  0  0
    5.0663    6.3503   20.1929 C   0  0  0  0  0  0  0  0  0  0  0  0
    7.0994    7.6184   21.1697 C   0  0  0  0  0  0  0  0  0  0  0  0
    7.6841    8.4102   22.1892 C   0  0  0  0  0  0  0  0  0  0  0  0
    6.9024    8.7857   23.3148 C   0  0  0  0  0  0  0  0  0  0  0  0
    5.5592    8.3751   23.4124 C   0  0  0  0  0  0  0  0  0  0  0  0
    4.9858    7.5890   22.3938 C   0  0  0  0  0  0  0  0  0  0  0  0
    5.7438    7.1994   21.2591 C   0  0  0  0  0  0  0  0  0  0  0  0
    9.0841    8.8386   22.0941 C   0  0  0  0  0  0  0  0  0  0  0  0
    9.8358    8.9714   23.2051 N   0  0  0  0  0  0  0  0  0  0  0  0
    9.6295    9.0986   20.8972 N   0  0  0  0  0  0  0  0  0  0  0  0
    9.4453    8.7831   24.0890 H   0  0  0  0  0  0  0  0  0  0  0  0
   10.7753    9.2567   23.1326 H   0  0  0  0  0  0  0  0  0  0  0  0
    9.0895    9.0049   20.0793 H   0  0  0  0  0  0  0  0  0  0  0  0
 11 12  2  0  0  0
 11 16  1  0  0  0
 12 13  1  0  0  0
 12  9  1  0  0  0
 13 14  2  0  0  0
 14 15  1  0  0  0
 15 16  2  0  0  0
 16 17  1  0  0  0
  5  6  2  0  0  0
  5 10  1  0  0  0
  6  7  1  0  0  0
  6  1  1  0  0  0
  7  8  2  0  0  0
  8  9  1  0  0  0
  9 10  2  0  0  0
  1  2  1  0  0  0
  1  3  2  0  0  0
  2 21  1  0  0  0
 21 22  1  0  0  0
 21 23  1  0  0  0
 23 24  1  0  0  0
 23 28  1  0  0  0
 24 26  1  0  0  0
 24 25  2  0  0  0
 26 27  1  0  0  0
 28 34  1  0  0  0
 17 18  1  0  0  0
 29 30  2  0  0  0
 29 34  1  0  0  0
 30 31  1  0  0  0
 30 35  1  0  0  0
 31 32  2  0  0  0
 32 33  1  0  0  0
 33 34  2  0  0  0
 35 36  1  0  0  0
 35 37  2  0  0  0
  2  4  1  0  0  0
 18 19  1  0  0  0
 18 20  1  0  0  0
 36 38  1  0  0  0
 36 39  1  0  0  0
 37 40  1  0  0  0
M  END
> <minimizedAffinity>
-9.19423

$$$$
1EZQ_RPR_A_265


 40 42  0  0  0  0  0  0  0  0999 V2000
    5.2877    3.5051   19.3482 C   0  0  0  0  0  0  0  0  0  0  0  0
    5.8017    4.5679   20.0559 N   0  0  0  0  0  0  0  0  0  0  0  0
    4.0805    3.4164   19.0978 O   0  0  0  0  0  0  0  0  0  0  0  0
    6.7707    4.5896   20.2289 H   0  0  0  0  0  0  0  0  0  0  0  0
    6.0359    1.6580   17.7777 C   0  0  0  0  0  0  0  0  0  0  0  0
    6.2765    2.4770   18.9193 C   0  0  0  0  0  0  0  0  0  0  0  0
    7.4985    2.2786   19.6350 C   0  0  0  0  0  0  0  0  0  0  0  0
    8.4354    1.2960   19.2133 C   0  0  0  0  0  0  0  0  0  0  0  0
    8.1921    0.4838   18.0776 C   0  0  0  0  0  0  0  0  0  0  0  0
    6.9770    0.6852   17.3716 C   0  0  0  0  0  0  0  0  0  0  0  0
    8.8622   -1.5045   16.6172 C   0  0  0  0  0  0  0  0  0  0  0  0
    9.1895   -0.5653   17.6270 C   0  0  0  0  0  0  0  0  0  0  0  0
   10.4836   -0.6407   18.1999 C   0  0  0  0  0  0  0  0  0  0  0  0
   11.4301   -1.6128   17.7883 C   0  0  0  0  0  0  0  0  0  0  0  0
   11.0944   -2.5468   16.7798 C   0  0  0  0  0  0  0  0  0  0  0  0
    9.8032   -2.4932   16.1892 C   0  0  0  0  0  0  0  0  0  0  0  0
    9.4248   -3.4758   15.1168 C   0  0  0  0  0  0  0  0  0  0  0  0
    8.9199   -2.7921   13.9208 N   0  0  0  0  0  0  0  0  0  0  0  0
    8.0860   -2.2564   14.1620 H   0  0  0  0  0  0  0  0  0  0  0  0
    8.6859   -3.4827   13.2077 H   0  0  0  0  0  0  0  0  0  0  0  0
    4.9776    5.6711   20.5659 C   0  0  0  0  0  0  0  0  0  0  0  0
    5.2191    6.9026   19.6780 C   0  0  0  0  0  0  0  0  0  0  0  0
    5.3367    5.9248   22.0788 C   0  0  0  0  0  0  0  0  0  0  0  0
    4.1850    5.3693   22.9610 C   0  0  0  0  0  0  0  0  0  0  0  0
    3.1535    5.9399   23.1826 O   0  0  0  0  0  0  0  0  0  0  0  0
    4.4333    4.0312   23.3911 O   0  0  0  0  0  0  0  0  0  0  0  0
    3.7659    2.9388   22.7413 C   0  0  0  0  0  0  0  0  0  0  0  0
    5.5627    7.4566   22.3562 C   0  0  0  0  0  0  0  0  0  0  0  0
    7.5567    7.6946   23.9881 C   0  0  0  0  0  0  0  0  0  0  0  0
    8.8731    8.1378   24.2689 C   0  0  0  0  0  0  0  0  0  0  0  0
    9.6123    8.8109   23.2591 C   0  0  0  0  0  0  0  0  0  0  0  0
    9.0402    9.0319   21.9917 C   0  0  0  0  0  0  0  0  0  0  0  0
    7.7314    8.5870   21.7210 C   0  0  0  0  0  0  0  0  0  0  0  0
    6.9707    7.9128   22.7112 C   0  0  0  0  0  0  0  0  0  0  0  0
    9.4733    7.9127   25.5886 C   0  0  0  0  0  0  0  0  0  0  0  0
    8.9611    6.9872   26.4241 N   0  0  0  0  0  0  0  0  0  0  0  0
   10.5417    8.6255   25.9736 N   0  0  0  0  0  0  0  0  0  0  0  0
    8.1768    6.4582   26.1515 H   0  0  0  0  0  0  0  0  0  0  0  0
    9.3713    6.8402   27.3069 H   0  0  0  0  0  0  0  0  0  0  0  0
   10.9238    9.3040   25.3712 H   0  0  0  0  0  0  0  0  0  0  0  0
 11 12  2  0  0  0
 11 16  1  0  0  0
 12 13  1  0  0  0
 12  9  1  0  0  0
 13 14  2  0  0  0
 14 15  1  0  0  0
 15 16  2  0  0  0
 16 17  1  0  0  0
  5  6  2  0  0  0
  5 10  1  0  0  0
  6  7  1  0  0  0
  6  1  1  0  0  0
  7  8  2  0  0  0
  8  9  1  0  0  0
  9 10  2  0  0  0
  1  2  1  0  0  0
  1  3  2  0  0  0
  2 21  1  0  0  0
 21 22  1  0  0  0
 21 23  1  0  0  0
 23 24  1  0  0  0
 23 28  1  0  0  0
 24 26  1  0  0  0
 24 25  2  0  0  0
 26 27  1  0  0  0
 28 34  1  0  0  0
 17 18  1  0  0  0
 29 30  2  0  0  0
 29 34  1  0  0  0
 30 31  1  0  0  0
 30 35  1  0  0  0
 31 32  2  0  0  0
 32 33  1  0  0  0
 33 34  2  0  0  0
 35 36  1  0  0  0
 35 37  2  0  0  0
  2  4  1  0  0  0
 18 19  1  0  0  0
 18 20  1  0  0  0
 36 38  1  0  0  0
 36 39  1  0  0  0
 37 40  1  0  0  0
M  END
> <minimizedAffinity>
-9.12662

$$$$
1EZQ_RPR_A_265


 40 42  0  0  0  0  0  0  0  0999 V2000
    5.0021    4.5967   21.3712 C   0  0  0  0  0  0  0  0  0  0  0  0
    5.5830    5.3024   22.4003 N   0  0  0  0  0  0  0  0  0  0  0  0
    4.9318    5.0591   20.2270 O   0  0  0  0  0  0  0  0  0  0  0  0
    5.6123    4.8883   23.2930 H   0  0  0  0  0  0  0  0  0  0  0  0
    4.5894    2.1493   20.8437 C   0  0  0  0  0  0  0  0  0  0  0  0
    4.4618    3.2565   21.7325 C   0  0  0  0  0  0  0  0  0  0  0  0
    3.8004    3.0348   22.9808 C   0  0  0  0  0  0  0  0  0  0  0  0
    3.2920    1.7499   23.3148 C   0  0  0  0  0  0  0  0  0  0  0  0
    3.4210    0.6518   22.4281 C   0  0  0  0  0  0  0  0  0  0  0  0
    4.0782    0.8783   21.1902 C   0  0  0  0  0  0  0  0  0  0  0  0
    2.9330   -1.2099   24.1105 C   0  0  0  0  0  0  0  0  0  0  0  0
    2.8786   -0.7189   22.7821 C   0  0  0  0  0  0  0  0  0  0  0  0
    2.2976   -1.5547   21.7959 C   0  0  0  0  0  0  0  0  0  0  0  0
    1.7822   -2.8376   22.1097 C   0  0  0  0  0  0  0  0  0  0  0  0
    1.8412   -3.3200   23.4386 C   0  0  0  0  0  0  0  0  0  0  0  0
    2.4192   -2.5020   24.4465 C   0  0  0  0  0  0  0  0  0  0  0  0
    2.4930   -2.9942   25.8646 C   0  0  0  0  0  0  0  0  0  0  0  0
    2.9413   -1.9342   26.7746 N   0  0  0  0  0  0  0  0  0  0  0  0
    3.8743   -1.6246   26.5025 H   0  0  0  0  0  0  0  0  0  0  0  0
    2.9672   -2.2937   27.7288 H   0  0  0  0  0  0  0  0  0  0  0  0
    6.1615    6.6417   22.2336 C   0  0  0  0  0  0  0  0  0  0  0  0
    7.5567    6.4888   21.6063 C   0  0  0  0  0  0  0  0  0  0  0  0
    6.1931    7.3663   23.6323 C   0  0  0  0  0  0  0  0  0  0  0  0
    4.7369    7.7252   24.0370 C   0  0  0  0  0  0  0  0  0  0  0  0
    3.8773    6.9270   24.2871 O   0  0  0  0  0  0  0  0  0  0  0  0
    4.5548    9.1311   24.2025 O   0  0  0  0  0  0  0  0  0  0  0  0
    3.6826    9.6198   25.2327 C   0  0  0  0  0  0  0  0  0  0  0  0
    7.0915    8.6564   23.5796 C   0  0  0  0  0  0  0  0  0  0  0  0
    8.7186    7.8109   25.4055 C   0  0  0  0  0  0  0  0  0  0  0  0
   10.0080    7.7893   25.9928 C   0  0  0  0  0  0  0  0  0  0  0  0
   11.0488    8.5679   25.4183 C   0  0  0  0  0  0  0  0  0  0  0  0
   10.7985    9.3507   24.2752 C   0  0  0  0  0  0  0  0  0  0  0  0
    9.5139    9.3655   23.6974 C   0  0  0  0  0  0  0  0  0  0  0  0
    8.4563    8.5980   24.2508 C   0  0  0  0  0  0  0  0  0  0  0  0
   10.2739    6.9775   27.1856 C   0  0  0  0  0  0  0  0  0  0  0  0
    9.2749    6.6583   28.0324 N   0  0  0  0  0  0  0  0  0  0  0  0
   11.5159    6.5421   27.4414 N   0  0  0  0  0  0  0  0  0  0  0  0
    8.3591    6.9727   27.8540 H   0  0  0  0  0  0  0  0  0  0  0  0
    9.4610    6.1108   28.8291 H   0  0  0  0  0  0  0  0  0  0  0  0
   12.2530    6.7694   26.8296 H   0  0  0  0  0  0  0  0  0  0  0  0
 11 12  2  0  0  0
 11 16  1  0  0  0
 12 13  1  0  0  0
 12  9  1  0  0  0
 13 14  2  0  0  0
 14 15  1  0  0  0
 15 16  2  0  0  0
 16 17  1  0  0  0
  5  6  2  0  0  0
  5 10  1  0  0  0
  6  7  1  0  0  0
  6  1  1  0  0  0
  7  8  2  0  0  0
  8  9  1  0  0  0
  9 10  2  0  0  0
  1  2  1  0  0  0
  1  3  2  0  0  0
  2 21  1  0  0  0
 21 22  1  0  0  0
 21 23  1  0  0  0
 23 24  1  0  0  0
 23 28  1  0  0  0
 24 26  1  0  0  0
 24 25  2  0  0  0
 26 27  1  0  0  0
 28 34  1  0  0  0
 17 18  1  0  0  0
 29 30  2  0  0  0
 29 34  1  0  0  0
 30 31  1  0  0  0
 30 35  1  0  0  0
 31 32  2  0  0  0
 32 33  1  0  0  0
 33 34  2  0  0  0
 35 36  1  0  0  0
 35 37  2  0  0  0
  2  4  1  0  0  0
 18 19  1  0  0  0
 18 20  1  0  0  0
 36 38  1  0  0  0
 36 39  1  0  0  0
 37 40  1  0  0  0
M  END
> <minimizedAffinity>
-9.07816

$$$$
1EZQ_RPR_A_265


 40 42  0  0  0  0  0  0  0  0999 V2000
    5.2909    5.0139   20.7367 C   0  0  0  0  0  0  0  0  0  0  0  0
    5.9709    6.2105   20.7547 N   0  0  0  0  0  0  0  0  0  0  0  0
    4.1832    4.8899   21.2712 O   0  0  0  0  0  0  0  0  0  0  0  0
    6.8504    6.2550   20.3147 H   0  0  0  0  0  0  0  0  0  0  0  0
    7.2053    3.3596   20.5457 C   0  0  0  0  0  0  0  0  0  0  0  0
    5.9809    3.8901   20.0443 C   0  0  0  0  0  0  0  0  0  0  0  0
    5.4390    3.3052   18.8572 C   0  0  0  0  0  0  0  0  0  0  0  0
    6.1060    2.2309   18.2076 C   0  0  0  0  0  0  0  0  0  0  0  0
    7.3232    1.7065   18.7096 C   0  0  0  0  0  0  0  0  0  0  0  0
    7.8563    2.2917   19.8881 C   0  0  0  0  0  0  0  0  0  0  0  0
    7.3697   -0.2533   17.0689 C   0  0  0  0  0  0  0  0  0  0  0  0
    8.0364    0.5616   18.0177 C   0  0  0  0  0  0  0  0  0  0  0  0
    9.3949    0.2687   18.2960 C   0  0  0  0  0  0  0  0  0  0  0  0
   10.0786   -0.7956   17.6558 C   0  0  0  0  0  0  0  0  0  0  0  0
    9.4048   -1.6043   16.7102 C   0  0  0  0  0  0  0  0  0  0  0  0
    8.0421   -1.3323   16.4133 C   0  0  0  0  0  0  0  0  0  0  0  0
    7.3065   -2.1786   15.4127 C   0  0  0  0  0  0  0  0  0  0  0  0
    6.3868   -1.3706   14.6040 N   0  0  0  0  0  0  0  0  0  0  0  0
    5.6945   -0.9328   15.2119 H   0  0  0  0  0  0  0  0  0  0  0  0
    5.9144   -1.9690   13.9264 H   0  0  0  0  0  0  0  0  0  0  0  0
    5.4504    7.4240   21.3972 C   0  0  0  0  0  0  0  0  0  0  0  0
    4.5969    8.1845   20.3694 C   0  0  0  0  0  0  0  0  0  0  0  0
    6.6584    8.2757   21.9429 C   0  0  0  0  0  0  0  0  0  0  0  0
    7.9704    7.7366   21.3096 C   0  0  0  0  0  0  0  0  0  0  0  0
    8.3708    6.6107   21.4134 O   0  0  0  0  0  0  0  0  0  0  0  0
    8.6024    8.7052   20.4732 O   0  0  0  0  0  0  0  0  0  0  0  0
    7.8046    9.6768   19.7802 C   0  0  0  0  0  0  0  0  0  0  0  0
    6.7299    8.2126   23.5130 C   0  0  0  0  0  0  0  0  0  0  0  0
    8.4991    7.6362   25.3112 C   0  0  0  0  0  0  0  0  0  0  0  0
    9.7816    7.8257   25.8834 C   0  0  0  0  0  0  0  0  0  0  0  0
   10.6700    8.7720   25.3051 C   0  0  0  0  0  0  0  0  0  0  0  0
   10.2775    9.5114   24.1731 C   0  0  0  0  0  0  0  0  0  0  0  0
    9.0011    9.3158   23.6103 C   0  0  0  0  0  0  0  0  0  0  0  0
    8.0940    8.3778   24.1679 C   0  0  0  0  0  0  0  0  0  0  0  0
   10.1949    7.0600   27.0647 C   0  0  0  0  0  0  0  0  0  0  0  0
   11.4940    6.7630   27.2673 N   0  0  0  0  0  0  0  0  0  0  0  0
    9.2810    6.6516   27.9568 N   0  0  0  0  0  0  0  0  0  0  0  0
   12.1733    7.0579   26.6186 H   0  0  0  0  0  0  0  0  0  0  0  0
   11.7635    6.2511   28.0639 H   0  0  0  0  0  0  0  0  0  0  0  0
    8.3295    6.8631   27.8187 H   0  0  0  0  0  0  0  0  0  0  0  0
 11 12  2  0  0  0
 11 16  1  0  0  0
 12 13  1  0  0  0
 12  9  1  0  0  0
 13 14  2  0  0  0
 14 15  1  0  0  0
 15 16  2  0  0  0
 16 17  1  0  0  0
  5  6  2  0  0  0
  5 10  1  0  0  0
  6  7  1  0  0  0
  6  1  1  0  0  0
  7  8  2  0  0  0
  8  9  1  0  0  0
  9 10  2  0  0  0
  1  2  1  0  0  0
  1  3  2  0  0  0
  2 21  1  0  0  0
 21 22  1  0  0  0
 21 23  1  0  0  0
 23 24  1  0  0  0
 23 28  1  0  0  0
 24 26  1  0  0  0
 24 25  2  0  0  0
 26 27  1  0  0  0
 28 34  1  0  0  0
 17 18  1  0  0  0
 29 30  2  0  0  0
 29 34  1  0  0  0
 30 31  1  0  0  0
 30 35  1  0  0  0
 31 32  2  0  0  0
 32 33  1  0  0  0
 33 34  2  0  0  0
 35 36  1  0  0  0
 35 37  2  0  0  0
  2  4  1  0  0  0
 18 19  1  0  0  0
 18 20  1  0  0  0
 36 38  1  0  0  0
 36 39  1  0  0  0
 37 40  1  0  0  0
M  END
> <minimizedAffinity>
-8.97592

$$$$
1EZQ_RPR_A_265


 40 42  0  0  0  0  0  0  0  0999 V2000
    5.3032    4.3381   20.0321 C   0  0  0  0  0  0  0  0  0  0  0  0
    5.5455    5.5956   19.5275 N   0  0  0  0  0  0  0  0  0  0  0  0
    4.4241    4.1375   20.8776 O   0  0  0  0  0  0  0  0  0  0  0  0
    6.2581    5.7006   18.8563 H   0  0  0  0  0  0  0  0  0  0  0  0
    5.7190    2.3942   18.4553 C   0  0  0  0  0  0  0  0  0  0  0  0
    6.1719    3.2512   19.5004 C   0  0  0  0  0  0  0  0  0  0  0  0
    7.4870    3.0324   20.0174 C   0  0  0  0  0  0  0  0  0  0  0  0
    8.3073    1.9934   19.4990 C   0  0  0  0  0  0  0  0  0  0  0  0
    7.8530    1.1436   18.4597 C   0  0  0  0  0  0  0  0  0  0  0  0
    6.5463    1.3655   17.9510 C   0  0  0  0  0  0  0  0  0  0  0  0
    8.2375   -0.8648   16.9256 C   0  0  0  0  0  0  0  0  0  0  0  0
    8.7258    0.0345   17.9063 C   0  0  0  0  0  0  0  0  0  0  0  0
   10.0604   -0.1392   18.3506 C   0  0  0  0  0  0  0  0  0  0  0  0
   10.8920   -1.1686   17.8415 C   0  0  0  0  0  0  0  0  0  0  0  0
   10.3958   -2.0621   16.8629 C   0  0  0  0  0  0  0  0  0  0  0  0
    9.0608   -1.9101   16.4006 C   0  0  0  0  0  0  0  0  0  0  0  0
    8.5127   -2.8481   15.3621 C   0  0  0  0  0  0  0  0  0  0  0  0
    7.3002   -2.3051   14.7396 N   0  0  0  0  0  0  0  0  0  0  0  0
    6.5820   -2.1735   15.4518 H   0  0  0  0  0  0  0  0  0  0  0  0
    6.9612   -2.9558   14.0310 H   0  0  0  0  0  0  0  0  0  0  0  0
    4.7946    6.7882   19.9398 C   0  0  0  0  0  0  0  0  0  0  0  0
    3.9130    7.2331   18.7616 C   0  0  0  0  0  0  0  0  0  0  0  0
    5.8098    7.9012   20.4016 C   0  0  0  0  0  0  0  0  0  0  0  0
    6.1873    8.7689   19.1697 C   0  0  0  0  0  0  0  0  0  0  0  0
    6.3385    8.3507   18.0557 O   0  0  0  0  0  0  0  0  0  0  0  0
    6.2178   10.1616   19.4807 O   0  0  0  0  0  0  0  0  0  0  0  0
    7.3736   10.7232   20.1206 C   0  0  0  0  0  0  0  0  0  0  0  0
    7.0934    7.2614   21.0478 C   0  0  0  0  0  0  0  0  0  0  0  0
    8.7321    8.0471   22.8898 C   0  0  0  0  0  0  0  0  0  0  0  0
    8.9956    8.3951   24.2380 C   0  0  0  0  0  0  0  0  0  0  0  0
    7.9435    8.3368   25.1914 C   0  0  0  0  0  0  0  0  0  0  0  0
    6.6521    7.9385   24.7968 C   0  0  0  0  0  0  0  0  0  0  0  0
    6.3989    7.5952   23.4543 C   0  0  0  0  0  0  0  0  0  0  0  0
    7.4312    7.6441   22.4817 C   0  0  0  0  0  0  0  0  0  0  0  0
   10.3401    8.8083   24.6555 C   0  0  0  0  0  0  0  0  0  0  0  0
   10.7890    8.5248   25.8944 N   0  0  0  0  0  0  0  0  0  0  0  0
   11.1367    9.4699   23.8037 N   0  0  0  0  0  0  0  0  0  0  0  0
   10.2124    8.0394   26.5278 H   0  0  0  0  0  0  0  0  0  0  0  0
   11.6934    8.8031   26.1659 H   0  0  0  0  0  0  0  0  0  0  0  0
   10.8188    9.6822   22.8964 H   0  0  0  0  0  0  0  0  0  0  0  0
 11 12  2  0  0  0
 11 16  1  0  0  0
 12 13  1  0  0  0
 12  9  1  0  0  0
 13 14  2  0  0  0
 14 15  1  0  0  0
 15 16  2  0  0  0
 16 17  1  0  0  0
  5  6  2  0  0  0
  5 10  1  0  0  0
  6  7  1  0  0  0
  6  1  1  0  0  0
  7  8  2  0  0  0
  8  9  1  0  0  0
  9 10  2  0  0  0
  1  2  1  0  0  0
  1  3  2  0  0  0
  2 21  1  0  0  0
 21 22  1  0  0  0
 21 23  1  0  0  0
 23 24  1  0  0  0
 23 28  1  0  0  0
 24 26  1  0  0  0
 24 25  2  0  0  0
 26 27  1  0  0  0
 28 34  1  0  0  0
 17 18  1  0  0  0
 29 30  2  0  0  0
 29 34  1  0  0  0
 30 31  1  0  0  0
 30 35  1  0  0  0
 31 32  2  0  0  0
 32 33  1  0  0  0
 33 34  2  0  0  0
 35 36  1  0  0  0
 35 37  2  0  0  0
  2  4  1  0  0  0
 18 19  1  0  0  0
 18 20  1  0  0  0
 36 38  1  0  0  0
 36 39  1  0  0  0
 37 40  1  0  0  0
M  END
> <minimizedAffinity>
-8.92657

$$$$
