4URZ_VJP_R_1167
  RCSB PDB12061715183D
Coordinates from PDB:4URZ:R:1167 Model:1 without hydrogens
 17 18  0  0  0  0            999 V2000
   57.3840   39.3920   64.0290   C 0  0  0  0  0  0  0  0  0  0  0  0
   58.5990   39.2930   63.4420   N 0  0  0  0  0  0  0  0  0  0  0  0
   53.5140   40.0480   67.3840   O 0  0  0  0  0  0  0  0  0  0  0  0
   53.2980   39.6950   66.0150   S 0  0  0  0  0  0  0  0  0  0  0  0
   57.1890   40.2170   65.1450   C 0  0  0  0  0  0  0  0  0  0  0  0
   52.4900   41.0210   65.3430   N 0  0  0  0  0  0  0  0  0  0  0  0
   52.5680   38.5080   65.6930   O 0  0  0  0  0  0  0  0  0  0  0  0
   55.9490   40.3040   65.7570   C 0  0  0  0  0  0  0  0  0  0  0  0
   52.6500   40.2950   63.2500   O 0  0  0  0  0  0  0  0  0  0  0  0
   54.8820   39.5770   65.2470   C 0  0  0  0  0  0  0  0  0  0  0  0
   55.0630   38.7170   64.1710   C 0  0  0  0  0  0  0  0  0  0  0  0
   56.2960   38.6540   63.5500   C 0  0  0  0  0  0  0  0  0  0  0  0
   51.8350   42.0400   66.2090   C 0  0  0  0  0  0  0  0  0  0  0  0
   51.9860   43.4380   65.6600   C 0  0  0  0  0  0  0  0  0  0  0  0
   51.3210   43.5640   64.3090   C 0  0  0  0  0  0  0  0  0  0  0  0
   51.7750   42.4840   63.3470   C 0  0  0  0  0  0  0  0  0  0  0  0
   52.3290   41.2240   63.9660   C 0  0  0  0  0  0  0  0  0  0  0  0
  1  2  1  0  0  0  0
  1  5  2  0  0  0  0
  1 12  1  0  0  0  0
  3  4  2  0  0  0  0
  4  6  1  0  0  0  0
  4  7  2  0  0  0  0
  4 10  1  0  0  0  0
  5  8  1  0  0  0  0
  6 13  1  0  0  0  0
  6 17  1  0  0  0  0
  8 10  2  0  0  0  0
  9 17  2  0  0  0  0
 10 11  1  0  0  0  0
 11 12  2  0  0  0  0
 13 14  1  0  0  0  0
 14 15  1  0  0  0  0
 15 16  1  0  0  0  0
 16 17  1  0  0  0  0
A    1
C
A    2
N
A    3
O
A    4
S
A    5
C1
A    6
N1
A    7
O1
A    8
C2
A    9
O2
A   10
C3
A   11
C4
A   12
C5
A   13
C6
A   14
C7
A   15
C8
A   16
C9
A   17
C10
M  END
>  <InstanceId>
4URZ_VJP_R_1167

>  <ChemCompId>
VJP

>  <PdbId>
4URZ

>  <ChainId>
R

>  <ResidueNumber>
1167

>  <InsertionCode>


>  <Model>
1

>  <AltIds>


>  <MissingHeavyAtoms>
0

>  <ObservedFormula>
C11 N2 O3 S

>  <Name>
1-[(4-aminophenyl)sulfonyl]piperidin-2-one

>  <SystematicName>
1-(4-aminophenyl)sulfonylpiperidin-2-one

>  <Synonyms>


>  <Type>
NON-POLYMER

>  <Formula>
C11 H14 N2 O3 S

>  <MolecularWeight>
254.305

>  <ModifiedDate>
2015-02-27

>  <Parent>


>  <OneLetterCode>


>  <SubcomponentList>


>  <AmbiguousFlag>
N

>  <InChI>
InChI=1S/C11H14N2O3S/c12-9-4-6-10(7-5-9)17(15,16)13-8-2-1-3-11(13)14/h4-7H,1-3,8,12H2

>  <InChIKey>
OWUDZSOVUCVZKR-UHFFFAOYSA-N

>  <SMILES>
c1cc(ccc1N)S(=O)(=O)N2CCCCC2=O

$$$$
