4LL3_017_A_201
  RCSB PDB12061713353D
Coordinates from PDB:4LL3:A:201 Model:1 without hydrogens
 38 41  0  0  0  0            999 V2000
   -8.7280   16.1900   18.4900   N 0  0  0  0  0  0  0  0  0  0  0  0
   -8.6590   15.9120   19.8190   C 0  0  0  0  0  0  0  0  0  0  0  0
   -9.8260   15.8320   20.5830   C 0  0  0  0  0  0  0  0  0  0  0  0
   -9.7470   15.5250   21.9410   C 0  0  0  0  0  0  0  0  0  0  0  0
   -8.5060   15.3090   22.5460   C 0  0  0  0  0  0  0  0  0  0  0  0
   -7.3390   15.3710   21.7760   C 0  0  0  0  0  0  0  0  0  0  0  0
   -7.4180   15.6730   20.4120   C 0  0  0  0  0  0  0  0  0  0  0  0
   -8.4250   14.9710   24.1160   S 0  0  0  0  0  0  0  0  0  0  0  0
   -9.5890   14.2270   24.4950   O 0  0  0  0  0  0  0  0  0  0  0  0
   -7.2730   14.1690   24.3740   O 0  0  0  0  0  0  0  0  0  0  0  0
   -8.3020   16.3060   25.0580   N 0  0  0  0  0  0  0  0  0  0  0  0
   -7.1690   17.1940   24.7030   C 0  0  0  0  0  0  0  0  0  0  0  0
   -6.5900   17.9220   25.9210   C 0  0  0  0  0  0  0  0  0  0  0  0
   -6.2160   16.9660   27.0530   C 0  0  0  0  0  0  0  0  0  0  0  0
   -5.3960   18.8010   25.5250   C 0  0  0  0  0  0  0  0  0  0  0  0
   -9.5550   17.0850   25.1760   C 0  0  0  0  0  0  0  0  0  0  0  0
  -10.0020   17.1050   26.6460   C 0  0  0  0  0  0  0  0  0  0  0  0
  -11.0830   18.0300   26.8900   O 0  0  0  0  0  0  0  0  0  0  0  0
  -10.4000   15.7310   27.1610   C 0  0  0  0  0  0  0  0  0  0  0  0
  -10.4980   15.9210   28.6040   N 0  0  0  0  0  0  0  0  0  0  0  0
   -9.7140   15.2600   29.4470   C 0  0  0  0  0  0  0  0  0  0  0  0
   -8.8440   14.4450   29.1150   O 0  0  0  0  0  0  0  0  0  0  0  0
   -9.9400   15.5810   30.8450   O 0  0  0  0  0  0  0  0  0  0  0  0
   -9.3450   14.7250   31.7950   C 0  0  0  0  0  0  0  0  0  0  0  0
   -9.0900   15.6300   32.9840   C 0  0  0  0  0  0  0  0  0  0  0  0
  -10.3190   15.6340   33.7110   O 0  0  0  0  0  0  0  0  0  0  0  0
  -11.1070   14.4780   33.3920   C 0  0  0  0  0  0  0  0  0  0  0  0
  -12.3680   14.8560   32.8400   O 0  0  0  0  0  0  0  0  0  0  0  0
  -12.7230   13.9900   31.7550   C 0  0  0  0  0  0  0  0  0  0  0  0
  -11.4400   13.3300   31.2910   C 0  0  0  0  0  0  0  0  0  0  0  0
  -10.3790   13.7390   32.3000   C 0  0  0  0  0  0  0  0  0  0  0  0
  -11.7920   15.2870   26.7040   C 0  0  0  0  0  0  0  0  0  0  0  0
  -13.2800   13.8750   28.1470   C 0  0  0  0  0  0  0  0  0  0  0  0
  -13.6490   12.6530   28.7060   C 0  0  0  0  0  0  0  0  0  0  0  0
  -12.8910   11.5160   28.4230   C 0  0  0  0  0  0  0  0  0  0  0  0
  -11.7820   11.6020   27.5810   C 0  0  0  0  0  0  0  0  0  0  0  0
  -11.4090   12.8190   27.0170   C 0  0  0  0  0  0  0  0  0  0  0  0
  -12.1600   13.9570   27.3060   C 0  0  0  0  0  0  0  0  0  0  0  0
  1  2  1  0  0  0  0
  2  3  2  0  0  0  0
  2  7  1  0  0  0  0
  3  4  1  0  0  0  0
  4  5  2  0  0  0  0
  5  6  1  0  0  0  0
  5  8  1  0  0  0  0
  6  7  2  0  0  0  0
  8  9  2  0  0  0  0
  8 10  2  0  0  0  0
  8 11  1  0  0  0  0
 11 12  1  0  0  0  0
 11 16  1  0  0  0  0
 12 13  1  0  0  0  0
 13 14  1  0  0  0  0
 13 15  1  0  0  0  0
 16 17  1  0  0  0  0
 17 18  1  0  0  0  0
 17 19  1  0  0  0  0
 19 20  1  0  0  0  0
 19 32  1  0  0  0  0
 20 21  1  0  0  0  0
 21 22  2  0  0  0  0
 21 23  1  0  0  0  0
 23 24  1  0  0  0  0
 24 25  1  0  0  0  0
 24 31  1  0  0  0  0
 25 26  1  0  0  0  0
 26 27  1  0  0  0  0
 27 28  1  0  0  0  0
 27 31  1  0  0  0  0
 28 29  1  0  0  0  0
 29 30  1  0  0  0  0
 30 31  1  0  0  0  0
 32 38  1  0  0  0  0
 33 34  2  0  0  0  0
 33 38  1  0  0  0  0
 34 35  1  0  0  0  0
 35 36  2  0  0  0  0
 36 37  1  0  0  0  0
 37 38  2  0  0  0  0
A    1
N1
A    2
C2
A    3
C3
A    4
C4
A    5
C5
A    6
C6
A    7
C7
A    8
S8
A    9
O9
A   10
O10
A   11
N11
A   12
C12
A   13
C13
A   14
C14
A   15
C15
A   16
C16
A   17
C17
A   18
O18
A   19
C19
A   20
N20
A   21
C21
A   22
O22
A   23
O23
A   24
C24
A   25
C25
A   26
O26
A   27
C27
A   28
O28
A   29
C29
A   30
C30
A   31
C31
A   32
C32
A   33
C33
A   34
C34
A   35
C35
A   36
C36
A   37
C37
A   38
C38
M  END
>  <InstanceId>
4LL3_017_A_201

>  <ChemCompId>
017

>  <PdbId>
4LL3

>  <ChainId>
A

>  <ResidueNumber>
201

>  <InsertionCode>


>  <Model>
1

>  <AltIds>


>  <MissingHeavyAtoms>
0

>  <ObservedFormula>
C27 N3 O7 S

>  <Name>
(3R,3AS,6AR)-HEXAHYDROFURO[2,3-B]FURAN-3-YL(1S,2R)-3-[[(4-AMINOPHENYL)SULFONYL](ISOBUTYL)AMINO]-1-BENZYL-2-HYDROXYPROPYLCARBAMATE

>  <SystematicName>
[(3R,3aS,6aR)-2,3,3a,4,5,6a-hexahydrofuro[2,3-b]furan-3-yl] N-[(2S,3R)-4-[(4-aminophenyl)sulfonyl-(2-methylpropyl)amino]-3-hydroxy-1-phenyl-butan-2-yl]carbamate

>  <Synonyms>
Darunavir, TMC114, UIC-94017

>  <Type>
NON-POLYMER

>  <Formula>
C27 H37 N3 O7 S

>  <MolecularWeight>
547.664

>  <ModifiedDate>
2011-06-04

>  <Parent>


>  <OneLetterCode>


>  <SubcomponentList>


>  <AmbiguousFlag>
N

>  <InChI>
InChI=1S/C27H37N3O7S/c1-18(2)15-30(38(33,34)21-10-8-20(28)9-11-21)16-24(31)23(14-19-6-4-3-5-7-19)29-27(32)37-25-17-36-26-22(25)12-13-35-26/h3-11,18,22-26,31H,12-17,28H2,1-2H3,(H,29,32)/t22-,23-,24+,25-,26+/m0/s1

>  <InChIKey>
CJBJHOAVZSMMDJ-HEXNFIEUSA-N

>  <SMILES>
CC(C)C[N@@](C[C@H]([C@H](Cc1ccccc1)NC(=O)O[C@H]2CO[C@@H]3[C@H]2CCO3)O)S(=O)(=O)c4ccc(cc4)N

$$$$
