6BDY_SFG_A_1301
  RCSB PDB05261800293D
Coordinates from PDB:6BDY:A:1301 Model:1 without hydrogens
 27 29  0  0  0  0            999 V2000
  -10.1220   20.6750  -13.9270   N 0  0  0  0  0  0  0  0  0  0  0  0
   -9.4700   19.3770  -13.6500   C 0  0  0  0  0  0  0  0  0  0  0  0
   -8.5740   19.4920  -12.4470   C 0  0  0  0  0  0  0  0  0  0  0  0
   -7.8440   20.5020  -12.3210   O 0  0  0  0  0  0  0  0  0  0  0  0
   -8.6010   18.5780  -11.5810   O 0  0  0  0  0  0  0  0  0  0  0  0
   -8.7030   18.9290  -14.9010   C 0  0  0  0  0  0  0  0  0  0  0  0
   -7.8850   17.6530  -14.6660   C 0  0  0  0  0  0  0  0  0  0  0  0
   -8.7300   16.4050  -14.3550   C 0  0  0  0  0  0  0  0  0  0  0  0
   -7.8090   15.4350  -13.7050   N 0  0  0  0  0  0  0  0  0  0  0  0
   -9.3270   15.7310  -15.6080   C 0  0  0  0  0  0  0  0  0  0  0  0
   -8.3030   14.9490  -16.4470   C 0  0  0  0  0  0  0  0  0  0  0  0
   -7.9760   13.6490  -15.9300   O 0  0  0  0  0  0  0  0  0  0  0  0
   -8.7960   14.6510  -17.8570   C 0  0  0  0  0  0  0  0  0  0  0  0
   -8.5990   15.7610  -18.7340   O 0  0  0  0  0  0  0  0  0  0  0  0
   -7.9620   13.4500  -18.2520   C 0  0  0  0  0  0  0  0  0  0  0  0
   -6.6330   13.8430  -18.6160   O 0  0  0  0  0  0  0  0  0  0  0  0
   -7.8570   12.6880  -16.9760   C 0  0  0  0  0  0  0  0  0  0  0  0
   -8.9450   11.7240  -16.8030   N 0  0  0  0  0  0  0  0  0  0  0  0
  -10.0410   11.8480  -16.0340   C 0  0  0  0  0  0  0  0  0  0  0  0
  -10.8010   10.7150  -16.0920   N 0  0  0  0  0  0  0  0  0  0  0  0
  -10.1680    9.8600  -16.9080   C 0  0  0  0  0  0  0  0  0  0  0  0
  -10.4130    8.4980  -17.3870   C 0  0  0  0  0  0  0  0  0  0  0  0
  -11.5300    7.8160  -16.9940   N 0  0  0  0  0  0  0  0  0  0  0  0
   -9.4420    7.9970  -18.1920   N 0  0  0  0  0  0  0  0  0  0  0  0
   -8.3570    8.6890  -18.6000   C 0  0  0  0  0  0  0  0  0  0  0  0
   -8.0790    9.9540  -18.1940   N 0  0  0  0  0  0  0  0  0  0  0  0
   -8.9500   10.5240  -17.3600   C 0  0  0  0  0  0  0  0  0  0  0  0
  1  2  1  0  0  0  0
  2  3  1  0  0  0  0
  2  6  1  0  0  0  0
  3  4  2  0  0  0  0
  3  5  1  0  0  0  0
  6  7  1  0  0  0  0
  7  8  1  0  0  0  0
  8  9  1  0  0  0  0
  8 10  1  0  0  0  0
 10 11  1  0  0  0  0
 11 12  1  0  0  0  0
 11 13  1  0  0  0  0
 12 17  1  0  0  0  0
 13 14  1  0  0  0  0
 13 15  1  0  0  0  0
 15 16  1  0  0  0  0
 15 17  1  0  0  0  0
 17 18  1  0  0  0  0
 18 19  1  0  0  0  0
 18 27  1  0  0  0  0
 19 20  2  0  0  0  0
 20 21  1  0  0  0  0
 21 22  1  0  0  0  0
 21 27  2  0  0  0  0
 22 23  1  0  0  0  0
 22 24  2  0  0  0  0
 24 25  1  0  0  0  0
 25 26  2  0  0  0  0
 26 27  1  0  0  0  0
A    1
N
A    2
CA
A    3
C
A    4
O
A    5
OXT
A    6
CB
A    7
CG
A    8
CD
A    9
NE
A   10
C5'
A   11
C4'
A   12
O4'
A   13
C3'
A   14
O3'
A   15
C2'
A   16
O2'
A   17
C1'
A   18
N9
A   19
C8
A   20
N7
A   21
C5
A   22
C6
A   23
N6
A   24
N1
A   25
C2
A   26
N3
A   27
C4
M  END
>  <InstanceId>
6BDY_SFG_A_1301

>  <ChemCompId>
SFG

>  <PdbId>
6BDY

>  <ChainId>
A

>  <ResidueNumber>
1301

>  <InsertionCode>


>  <Model>
1

>  <AltIds>


>  <MissingHeavyAtoms>
0

>  <ObservedFormula>
C15 N7 O5

>  <Name>
SINEFUNGIN

>  <SystematicName>
(2S,5S)-6-[(2R,3S,4R,5R)-5-(6-aminopurin-9-yl)-3,4-dihydroxy-oxolan-2-yl]-2,5-bis(azanyl)hexanoic acid

>  <Synonyms>
ADENOSYL-ORNITHINE

>  <Type>
NON-POLYMER

>  <Formula>
C15 H23 N7 O5

>  <MolecularWeight>
381.387

>  <ModifiedDate>
2011-06-04

>  <Parent>


>  <OneLetterCode>


>  <SubcomponentList>


>  <AmbiguousFlag>
N

>  <InChI>
InChI=1S/C15H23N7O5/c16-6(1-2-7(17)15(25)26)3-8-10(23)11(24)14(27-8)22-5-21-9-12(18)19-4-20-13(9)22/h4-8,10-11,14,23-24H,1-3,16-17H2,(H,25,26)(H2,18,19,20)/t6-,7-,8+,10+,11+,14+/m0/s1

>  <InChIKey>
LMXOHSDXUQEUSF-YECHIGJVSA-N

>  <SMILES>
c1nc(c2c(n1)n(cn2)[C@H]3[C@@H]([C@@H]([C@H](O3)C[C@H](CC[C@@H](C(=O)O)N)N)O)O)N

$$$$
