5N24_8HE_A_302
  RCSB PDB01031823323D
Coordinates from PDB:5N24:A:302 Model:1 without hydrogens
 18 19  0  0  0  0            999 V2000
   -3.6430    4.2240   14.5250   C 0  0  0  0  0  0  0  0  0  0  0  0
   -5.0350    4.3270   14.7590   C 0  0  0  0  0  0  0  0  0  0  0  0
   -5.7260    3.2730   15.4020   C 0  0  0  0  0  0  0  0  0  0  0  0
   -1.8690    5.0370   12.9230   C 0  0  0  0  0  0  0  0  0  0  0  0
   -1.1050    6.0760   12.3900   C 0  0  0  0  0  0  0  0  0  0  0  0
   -1.2650    7.3750   12.8730   C 0  0  0  0  0  0  0  0  0  0  0  0
   -2.1880    7.6480   13.8800   C 0  0  0  0  0  0  0  0  0  0  0  0
   -2.9580    6.6080   14.4020   C 0  0  0  0  0  0  0  0  0  0  0  0
   -5.0620    2.1040   15.8170   C 0  0  0  0  0  0  0  0  0  0  0  0
   -3.6800    2.0300   15.5800   C 0  0  0  0  0  0  0  0  0  0  0  0
   -2.9860    3.0670   14.9470   C 0  0  0  0  0  0  0  0  0  0  0  0
   -5.8300    0.8840   16.6020   S 0  0  0  0  0  0  0  0  0  0  0  0
   -7.2730    1.0100   16.4250   O 0  0  0  0  0  0  0  0  0  0  0  0
   -5.3670    1.0010   17.9600   O 0  0  0  0  0  0  0  0  0  0  0  0
   -5.3550   -0.5300   16.0220   N 0  0  0  0  0  0  0  0  0  0  0  0
   -2.8240    5.3080   13.8960   C 0  0  0  0  0  0  0  0  0  0  0  0
    0.0970    9.1690   11.9080   N 0  0  0  0  0  0  0  0  0  0  0  0
   -0.5490    8.3250   12.3740   C 0  0  0  0  0  0  0  0  0  0  0  0
 17 18  3  0  0  0  0
 18  6  1  0  0  0  0
  5  6  2  0  0  0  0
  5  4  1  0  0  0  0
  6  7  1  0  0  0  0
  4 16  2  0  0  0  0
  7  8  2  0  0  0  0
 16  8  1  0  0  0  0
 16  1  1  0  0  0  0
  1  2  2  0  0  0  0
  1 11  1  0  0  0  0
  2  3  1  0  0  0  0
 11 10  2  0  0  0  0
  3  9  2  0  0  0  0
 10  9  1  0  0  0  0
  9 12  1  0  0  0  0
 15 12  1  0  0  0  0
 13 12  2  0  0  0  0
 12 14  2  0  0  0  0
A    1
C1
A    2
C2
A    3
C3
A    4
C5
A    5
C6
A    6
C7
A    7
C8
A    8
C9
A    9
C10
A   10
C11
A   11
C12
A   12
S1
A   13
O1
A   14
O2
A   15
N3
A   16
C4
A   17
N7
A   18
C81
M  END
>  <InstanceId>
5N24_8HE_A_302

>  <ChemCompId>
8HE

>  <PdbId>
5N24

>  <ChainId>
A

>  <ResidueNumber>
302

>  <InsertionCode>


>  <Model>
1

>  <AltIds>


>  <MissingHeavyAtoms>
0

>  <ObservedFormula>
C13 N2 O2 S

>  <Name>
4-(4-cyanophenyl)benzenesulfonamide

>  <SystematicName>
4-(4-cyanophenyl)benzenesulfonamide

>  <Synonyms>


>  <Type>
NON-POLYMER

>  <Formula>
C13 H10 N2 O2 S

>  <MolecularWeight>
258.296

>  <ModifiedDate>
2017-12-22

>  <Parent>


>  <OneLetterCode>


>  <SubcomponentList>


>  <AmbiguousFlag>
N

>  <InChI>
InChI=1S/C13H10N2O2S/c14-9-10-1-3-11(4-2-10)12-5-7-13(8-6-12)18(15,16)17/h1-8H,(H2,15,16,17)

>  <InChIKey>
LPESBVCEXRGQGA-UHFFFAOYSA-N

>  <SMILES>
c1cc(ccc1C#N)c2ccc(cc2)S(=O)(=O)N

$$$$
