5WP5_SAH_A_501


 33 35  0  0  0  0  0  0  0  0999 V2000
    0.7483    8.4177  -50.5126 C   0  0  0  0  0  0  0  0  0  0  0  0
    0.2539    9.0068  -51.7419 O   0  0  0  0  0  0  0  0  0  0  0  0
   -0.4363    8.2554  -49.6437 C   0  0  0  0  0  0  0  0  0  0  0  0
   -0.1898    8.9609  -48.4442 O   0  0  0  0  0  0  0  0  0  0  0  0
   -1.5648    8.8255  -50.3898 C   0  0  0  0  0  0  0  0  0  0  0  0
   -2.4552    9.5425  -49.5602 O   0  0  0  0  0  0  0  0  0  0  0  0
   -0.9096    9.6866  -51.4149 C   0  0  0  0  0  0  0  0  0  0  0  0
    0.0048    9.8888  -48.6490 H   0  0  0  0  0  0  0  0  0  0  0  0
   -1.9754   10.2562  -49.1116 H   0  0  0  0  0  0  0  0  0  0  0  0
   -1.7505    9.9815  -52.6316 N   0  0  0  0  0  0  0  0  0  0  0  0
   -2.5582    9.1741  -53.3380 C   0  0  0  0  0  0  0  0  0  0  0  0
   -3.0350    9.8990  -54.3551 N   0  0  0  0  0  0  0  0  0  0  0  0
   -2.5300   11.1413  -54.3018 C   0  0  0  0  0  0  0  0  0  0  0  0
   -2.6778   12.2973  -55.0891 C   0  0  0  0  0  0  0  0  0  0  0  0
   -3.5260   12.3158  -56.1717 N   0  0  0  0  0  0  0  0  0  0  0  0
   -2.0010   13.4071  -54.7351 N   0  0  0  0  0  0  0  0  0  0  0  0
   -1.1979   13.4285  -53.6649 C   0  0  0  0  0  0  0  0  0  0  0  0
   -1.0389   12.3319  -52.8897 N   0  0  0  0  0  0  0  0  0  0  0  0
   -1.6895   11.1933  -53.1897 C   0  0  0  0  0  0  0  0  0  0  0  0
   -4.0179   11.5017  -56.4256 H   0  0  0  0  0  0  0  0  0  0  0  0
   -3.6412   13.1432  -56.6926 H   0  0  0  0  0  0  0  0  0  0  0  0
    1.3381    7.1490  -50.8069 C   0  0  0  0  0  0  0  0  0  0  0  0
    2.5083    6.4583  -49.6066 S   0  0  0  0  0  0  0  0  0  0  0  0
    3.3631    7.8760  -48.8352 C   0  0  0  0  0  0  0  0  0  0  0  0
    4.8789    7.7747  -48.6536 C   0  0  0  0  0  0  0  0  0  0  0  0
    6.1880    9.8932  -48.3505 N   0  0  0  0  0  0  0  0  0  0  0  0
    5.5083    8.7993  -47.6298 C   0  0  0  0  0  0  0  0  0  0  0  0
    5.5377   10.3221  -49.0089 H   0  0  0  0  0  0  0  0  0  0  0  0
    6.9892    9.5191  -48.8589 H   0  0  0  0  0  0  0  0  0  0  0  0
    6.4646    8.1982  -46.6887 C   0  0  0  0  0  0  0  0  0  0  0  0
    6.9145    7.0939  -46.9370 O   0  0  0  0  0  0  0  0  0  0  0  0
    6.6461    8.7078  -45.6002 O   0  0  0  0  0  0  0  0  0  0  0  0
    6.2968    9.5576  -45.4167 H   0  0  0  0  0  0  0  0  0  0  0  0
 26 27  1  0  0  0
 27 25  1  0  0  0
 27 30  1  0  0  0
 25 24  1  0  0  0
 24 23  1  0  0  0
 23 22  1  0  0  0
 30 31  2  0  0  0
 30 32  1  0  0  0
 22  1  1  0  0  0
  1  2  1  0  0  0
  1  3  1  0  0  0
  2  7  1  0  0  0
  3  4  1  0  0  0
  3  5  1  0  0  0
  5  6  1  0  0  0
  5  7  1  0  0  0
  7 10  1  0  0  0
 10 11  1  0  0  0
 10 19  1  0  0  0
 11 12  2  0  0  0
 12 13  1  0  0  0
 13 14  1  0  0  0
 13 19  2  0  0  0
 14 15  1  0  0  0
 14 16  2  0  0  0
 16 17  1  0  0  0
 17 18  2  0  0  0
 18 19  1  0  0  0
 26 28  1  0  0  0
 26 29  1  0  0  0
 32 33  1  0  0  0
  4  8  1  0  0  0
  6  9  1  0  0  0
 15 20  1  0  0  0
 15 21  1  0  0  0
M  END
> <minimizedAffinity>
-9.78397

$$$$
5WP5_SAH_A_501


 33 35  0  0  0  0  0  0  0  0999 V2000
    2.4493    6.8748  -48.7654 C   0  0  0  0  0  0  0  0  0  0  0  0
    1.1088    7.2791  -48.3879 O   0  0  0  0  0  0  0  0  0  0  0  0
    2.3234    6.2892  -50.1166 C   0  0  0  0  0  0  0  0  0  0  0  0
    2.8215    4.9678  -50.0608 O   0  0  0  0  0  0  0  0  0  0  0  0
    0.8911    6.3191  -50.4372 C   0  0  0  0  0  0  0  0  0  0  0  0
    0.4657    5.1599  -51.1232 O   0  0  0  0  0  0  0  0  0  0  0  0
    0.2362    6.4770  -49.1076 C   0  0  0  0  0  0  0  0  0  0  0  0
    2.3372    4.4679  -49.3853 H   0  0  0  0  0  0  0  0  0  0  0  0
    0.6561    4.3767  -50.5836 H   0  0  0  0  0  0  0  0  0  0  0  0
   -1.1565    7.0541  -49.1474 N   0  0  0  0  0  0  0  0  0  0  0  0
   -2.2824    6.6316  -48.5500 C   0  0  0  0  0  0  0  0  0  0  0  0
   -3.2598    7.4554  -48.9418 N   0  0  0  0  0  0  0  0  0  0  0  0
   -2.7652    8.3776  -49.7821 C   0  0  0  0  0  0  0  0  0  0  0  0
   -3.3165    9.4646  -50.4840 C   0  0  0  0  0  0  0  0  0  0  0  0
   -4.6440    9.7978  -50.3487 N   0  0  0  0  0  0  0  0  0  0  0  0
   -2.5046   10.2050  -51.2635 N   0  0  0  0  0  0  0  0  0  0  0  0
   -1.2012    9.9264  -51.3842 C   0  0  0  0  0  0  0  0  0  0  0  0
   -0.6450    8.8884  -50.7195 N   0  0  0  0  0  0  0  0  0  0  0  0
   -1.4029    8.1128  -49.9235 C   0  0  0  0  0  0  0  0  0  0  0  0
   -5.2325    9.2530  -49.7777 H   0  0  0  0  0  0  0  0  0  0  0  0
   -5.0058   10.5810  -50.8229 H   0  0  0  0  0  0  0  0  0  0  0  0
    3.2951    8.0272  -48.7898 C   0  0  0  0  0  0  0  0  0  0  0  0
    5.0825    7.7715  -48.6251 S   0  0  0  0  0  0  0  0  0  0  0  0
    5.6701    8.9750  -47.3833 C   0  0  0  0  0  0  0  0  0  0  0  0
    7.0904    8.7975  -46.8428 C   0  0  0  0  0  0  0  0  0  0  0  0
    6.8213   10.5708  -45.0889 N   0  0  0  0  0  0  0  0  0  0  0  0
    7.7161   10.0720  -46.1512 C   0  0  0  0  0  0  0  0  0  0  0  0
    6.6126    9.8143  -44.4372 H   0  0  0  0  0  0  0  0  0  0  0  0
    5.9542   10.9093  -45.5058 H   0  0  0  0  0  0  0  0  0  0  0  0
    8.0016   11.1787  -47.0759 C   0  0  0  0  0  0  0  0  0  0  0  0
    8.4457   10.9190  -48.1800 O   0  0  0  0  0  0  0  0  0  0  0  0
    7.9785   12.3258  -46.6744 O   0  0  0  0  0  0  0  0  0  0  0  0
    7.6354   12.5176  -45.8239 H   0  0  0  0  0  0  0  0  0  0  0  0
 26 27  1  0  0  0
 27 25  1  0  0  0
 27 30  1  0  0  0
 25 24  1  0  0  0
 24 23  1  0  0  0
 23 22  1  0  0  0
 30 31  2  0  0  0
 30 32  1  0  0  0
 22  1  1  0  0  0
  1  2  1  0  0  0
  1  3  1  0  0  0
  2  7  1  0  0  0
  3  4  1  0  0  0
  3  5  1  0  0  0
  5  6  1  0  0  0
  5  7  1  0  0  0
  7 10  1  0  0  0
 10 11  1  0  0  0
 10 19  1  0  0  0
 11 12  2  0  0  0
 12 13  1  0  0  0
 13 14  1  0  0  0
 13 19  2  0  0  0
 14 15  1  0  0  0
 14 16  2  0  0  0
 16 17  1  0  0  0
 17 18  2  0  0  0
 18 19  1  0  0  0
 26 28  1  0  0  0
 26 29  1  0  0  0
 32 33  1  0  0  0
  4  8  1  0  0  0
  6  9  1  0  0  0
 15 20  1  0  0  0
 15 21  1  0  0  0
M  END
> <minimizedAffinity>
-8.48925

$$$$
5WP5_SAH_A_501


 33 35  0  0  0  0  0  0  0  0999 V2000
    0.6621    8.5333  -50.4278 C   0  0  0  0  0  0  0  0  0  0  0  0
    0.2085    9.0769  -51.6934 O   0  0  0  0  0  0  0  0  0  0  0  0
   -0.5544    8.3738  -49.6036 C   0  0  0  0  0  0  0  0  0  0  0  0
   -0.3705    9.1185  -48.4166 O   0  0  0  0  0  0  0  0  0  0  0  0
   -1.6611    8.9002  -50.4119 C   0  0  0  0  0  0  0  0  0  0  0  0
   -2.5978    9.6239  -49.6411 O   0  0  0  0  0  0  0  0  0  0  0  0
   -0.9796    9.7435  -51.4346 C   0  0  0  0  0  0  0  0  0  0  0  0
   -0.1842   10.0436  -48.6410 H   0  0  0  0  0  0  0  0  0  0  0  0
   -2.1499   10.3594  -49.1948 H   0  0  0  0  0  0  0  0  0  0  0  0
   -1.7745    9.9867  -52.6929 N   0  0  0  0  0  0  0  0  0  0  0  0
   -2.5008    9.1331  -53.4326 C   0  0  0  0  0  0  0  0  0  0  0  0
   -2.9662    9.8266  -54.4765 N   0  0  0  0  0  0  0  0  0  0  0  0
   -2.5335   11.0951  -54.4068 C   0  0  0  0  0  0  0  0  0  0  0  0
   -2.7058   12.2382  -55.2080 C   0  0  0  0  0  0  0  0  0  0  0  0
   -3.4994   12.2055  -56.3309 N   0  0  0  0  0  0  0  0  0  0  0  0
   -2.1094   13.3850  -54.8287 N   0  0  0  0  0  0  0  0  0  0  0  0
   -1.3623   13.4549  -53.7206 C   0  0  0  0  0  0  0  0  0  0  0  0
   -1.1815   12.3718  -52.9314 N   0  0  0  0  0  0  0  0  0  0  0  0
   -1.7529   11.1978  -53.2553 C   0  0  0  0  0  0  0  0  0  0  0  0
   -3.9327   11.3645  -56.6032 H   0  0  0  0  0  0  0  0  0  0  0  0
   -3.6343   13.0232  -56.8623 H   0  0  0  0  0  0  0  0  0  0  0  0
    1.2861    7.2681  -50.6597 C   0  0  0  0  0  0  0  0  0  0  0  0
    2.3565    6.5987  -49.3585 S   0  0  0  0  0  0  0  0  0  0  0  0
    2.5773    4.8232  -49.7257 C   0  0  0  0  0  0  0  0  0  0  0  0
    1.5725    3.8442  -49.1150 C   0  0  0  0  0  0  0  0  0  0  0  0
    0.5272    3.8627  -51.3954 N   0  0  0  0  0  0  0  0  0  0  0  0
    0.2671    3.5937  -49.9679 C   0  0  0  0  0  0  0  0  0  0  0  0
    1.3282    3.3121  -51.7047 H   0  0  0  0  0  0  0  0  0  0  0  0
    0.7265    4.8547  -51.5237 H   0  0  0  0  0  0  0  0  0  0  0  0
   -0.8897    4.3973  -49.5467 C   0  0  0  0  0  0  0  0  0  0  0  0
   -0.8141    5.0340  -48.5111 O   0  0  0  0  0  0  0  0  0  0  0  0
   -1.9558    4.2708  -50.1166 O   0  0  0  0  0  0  0  0  0  0  0  0
   -2.0060    3.7796  -50.9129 H   0  0  0  0  0  0  0  0  0  0  0  0
 26 27  1  0  0  0
 27 25  1  0  0  0
 27 30  1  0  0  0
 25 24  1  0  0  0
 24 23  1  0  0  0
 23 22  1  0  0  0
 30 31  2  0  0  0
 30 32  1  0  0  0
 22  1  1  0  0  0
  1  2  1  0  0  0
  1  3  1  0  0  0
  2  7  1  0  0  0
  3  4  1  0  0  0
  3  5  1  0  0  0
  5  6  1  0  0  0
  5  7  1  0  0  0
  7 10  1  0  0  0
 10 11  1  0  0  0
 10 19  1  0  0  0
 11 12  2  0  0  0
 12 13  1  0  0  0
 13 14  1  0  0  0
 13 19  2  0  0  0
 14 15  1  0  0  0
 14 16  2  0  0  0
 16 17  1  0  0  0
 17 18  2  0  0  0
 18 19  1  0  0  0
 26 28  1  0  0  0
 26 29  1  0  0  0
 32 33  1  0  0  0
  4  8  1  0  0  0
  6  9  1  0  0  0
 15 20  1  0  0  0
 15 21  1  0  0  0
M  END
> <minimizedAffinity>
-8.39972

$$$$
5WP5_SAH_A_501


 33 35  0  0  0  0  0  0  0  0999 V2000
    3.1541    6.9901  -49.4732 C   0  0  0  0  0  0  0  0  0  0  0  0
    2.3664    5.8825  -48.9676 O   0  0  0  0  0  0  0  0  0  0  0  0
    2.3676    8.2061  -49.1780 C   0  0  0  0  0  0  0  0  0  0  0  0
    2.1383    8.8773  -50.4003 O   0  0  0  0  0  0  0  0  0  0  0  0
    1.1161    7.7390  -48.5690 C   0  0  0  0  0  0  0  0  0  0  0  0
   -0.0054    8.4825  -48.9988 O   0  0  0  0  0  0  0  0  0  0  0  0
    1.0455    6.3043  -48.9668 C   0  0  0  0  0  0  0  0  0  0  0  0
    1.6913    8.2787  -51.0190 H   0  0  0  0  0  0  0  0  0  0  0  0
   -0.0795    8.4269  -49.9643 H   0  0  0  0  0  0  0  0  0  0  0  0
    0.1789    5.4404  -48.0853 N   0  0  0  0  0  0  0  0  0  0  0  0
    0.5171    4.6414  -47.0604 C   0  0  0  0  0  0  0  0  0  0  0  0
   -0.6080    4.0525  -46.6425 N   0  0  0  0  0  0  0  0  0  0  0  0
   -1.6403    4.4616  -47.3962 C   0  0  0  0  0  0  0  0  0  0  0  0
   -3.0186    4.1818  -47.4111 C   0  0  0  0  0  0  0  0  0  0  0  0
   -3.5831    3.3425  -46.4791 N   0  0  0  0  0  0  0  0  0  0  0  0
   -3.7881    4.7892  -48.3351 N   0  0  0  0  0  0  0  0  0  0  0  0
   -3.2715    5.6394  -49.2302 C   0  0  0  0  0  0  0  0  0  0  0  0
   -1.9502    5.9276  -49.2373 N   0  0  0  0  0  0  0  0  0  0  0  0
   -1.1297    5.3548  -48.3383 C   0  0  0  0  0  0  0  0  0  0  0  0
   -3.0157    2.9013  -45.8062 H   0  0  0  0  0  0  0  0  0  0  0  0
   -4.5546    3.1828  -46.4848 H   0  0  0  0  0  0  0  0  0  0  0  0
    4.4095    7.0206  -48.7898 C   0  0  0  0  0  0  0  0  0  0  0  0
    5.1926    8.6343  -48.5254 S   0  0  0  0  0  0  0  0  0  0  0  0
    5.8771    8.6115  -46.8322 C   0  0  0  0  0  0  0  0  0  0  0  0
    7.3973    8.6980  -46.6825 C   0  0  0  0  0  0  0  0  0  0  0  0
    7.1093   10.5675  -45.0348 N   0  0  0  0  0  0  0  0  0  0  0  0
    7.9477   10.0777  -46.1461 C   0  0  0  0  0  0  0  0  0  0  0  0
    7.0436    9.8473  -44.3154 H   0  0  0  0  0  0  0  0  0  0  0  0
    6.1760   10.7859  -45.3835 H   0  0  0  0  0  0  0  0  0  0  0  0
    8.0269   11.1316  -47.1681 C   0  0  0  0  0  0  0  0  0  0  0  0
    8.2525   10.8124  -48.3217 O   0  0  0  0  0  0  0  0  0  0  0  0
    8.0607   12.2996  -46.8333 O   0  0  0  0  0  0  0  0  0  0  0  0
    7.8860   12.5373  -45.9440 H   0  0  0  0  0  0  0  0  0  0  0  0
 26 27  1  0  0  0
 27 25  1  0  0  0
 27 30  1  0  0  0
 25 24  1  0  0  0
 24 23  1  0  0  0
 23 22  1  0  0  0
 30 31  2  0  0  0
 30 32  1  0  0  0
 22  1  1  0  0  0
  1  2  1  0  0  0
  1  3  1  0  0  0
  2  7  1  0  0  0
  3  4  1  0  0  0
  3  5  1  0  0  0
  5  6  1  0  0  0
  5  7  1  0  0  0
  7 10  1  0  0  0
 10 11  1  0  0  0
 10 19  1  0  0  0
 11 12  2  0  0  0
 12 13  1  0  0  0
 13 14  1  0  0  0
 13 19  2  0  0  0
 14 15  1  0  0  0
 14 16  2  0  0  0
 16 17  1  0  0  0
 17 18  2  0  0  0
 18 19  1  0  0  0
 26 28  1  0  0  0
 26 29  1  0  0  0
 32 33  1  0  0  0
  4  8  1  0  0  0
  6  9  1  0  0  0
 15 20  1  0  0  0
 15 21  1  0  0  0
M  END
> <minimizedAffinity>
-8.39864

$$$$
5WP5_SAH_A_501


 33 35  0  0  0  0  0  0  0  0999 V2000
   -1.9499    7.4239  -50.1403 C   0  0  0  0  0  0  0  0  0  0  0  0
   -1.9990    7.8493  -51.5257 O   0  0  0  0  0  0  0  0  0  0  0  0
   -2.9359    8.2651  -49.4298 C   0  0  0  0  0  0  0  0  0  0  0  0
   -2.2553    8.9433  -48.3934 O   0  0  0  0  0  0  0  0  0  0  0  0
   -3.4690    9.1957  -50.4324 C   0  0  0  0  0  0  0  0  0  0  0  0
   -3.6702   10.4938  -49.9131 O   0  0  0  0  0  0  0  0  0  0  0  0
   -2.4519    9.1599  -51.5214 C   0  0  0  0  0  0  0  0  0  0  0  0
   -1.5221    9.4553  -48.7690 H   0  0  0  0  0  0  0  0  0  0  0  0
   -2.8306   10.8389  -49.5711 H   0  0  0  0  0  0  0  0  0  0  0  0
   -2.9548    9.5866  -52.8776 N   0  0  0  0  0  0  0  0  0  0  0  0
   -3.7552    8.9425  -53.7423 C   0  0  0  0  0  0  0  0  0  0  0  0
   -3.8600    9.7208  -54.8243 N   0  0  0  0  0  0  0  0  0  0  0  0
   -3.1299   10.8340  -54.6540 C   0  0  0  0  0  0  0  0  0  0  0  0
   -2.8760   11.9730  -55.4391 C   0  0  0  0  0  0  0  0  0  0  0  0
   -3.4696   12.1346  -56.6692 N   0  0  0  0  0  0  0  0  0  0  0  0
   -2.0685   12.9298  -54.9417 N   0  0  0  0  0  0  0  0  0  0  0  0
   -1.5074   12.8161  -53.7321 C   0  0  0  0  0  0  0  0  0  0  0  0
   -1.7358   11.7326  -52.9559 N   0  0  0  0  0  0  0  0  0  0  0  0
   -2.5349   10.7438  -53.3955 C   0  0  0  0  0  0  0  0  0  0  0  0
   -4.0588   11.4319  -57.0276 H   0  0  0  0  0  0  0  0  0  0  0  0
   -3.3055   12.9529  -57.1913 H   0  0  0  0  0  0  0  0  0  0  0  0
   -2.3129    6.0432  -50.0626 C   0  0  0  0  0  0  0  0  0  0  0  0
   -1.1807    4.9151  -49.2066 S   0  0  0  0  0  0  0  0  0  0  0  0
    0.5107    5.5127  -49.5500 C   0  0  0  0  0  0  0  0  0  0  0  0
    1.2309    6.2765  -48.4369 C   0  0  0  0  0  0  0  0  0  0  0  0
    0.8123    8.7491  -48.4997 N   0  0  0  0  0  0  0  0  0  0  0  0
    1.7891    7.6972  -48.8420 C   0  0  0  0  0  0  0  0  0  0  0  0
    0.5641    8.6747  -47.5132 H   0  0  0  0  0  0  0  0  0  0  0  0
   -0.0252    8.6342  -49.0706 H   0  0  0  0  0  0  0  0  0  0  0  0
    2.1303    7.8253  -50.2662 C   0  0  0  0  0  0  0  0  0  0  0  0
    1.3518    8.4015  -51.0049 O   0  0  0  0  0  0  0  0  0  0  0  0
    3.0683    7.2022  -50.7236 O   0  0  0  0  0  0  0  0  0  0  0  0
    3.6629    6.7616  -50.1489 H   0  0  0  0  0  0  0  0  0  0  0  0
 26 27  1  0  0  0
 27 25  1  0  0  0
 27 30  1  0  0  0
 25 24  1  0  0  0
 24 23  1  0  0  0
 23 22  1  0  0  0
 30 31  2  0  0  0
 30 32  1  0  0  0
 22  1  1  0  0  0
  1  2  1  0  0  0
  1  3  1  0  0  0
  2  7  1  0  0  0
  3  4  1  0  0  0
  3  5  1  0  0  0
  5  6  1  0  0  0
  5  7  1  0  0  0
  7 10  1  0  0  0
 10 11  1  0  0  0
 10 19  1  0  0  0
 11 12  2  0  0  0
 12 13  1  0  0  0
 13 14  1  0  0  0
 13 19  2  0  0  0
 14 15  1  0  0  0
 14 16  2  0  0  0
 16 17  1  0  0  0
 17 18  2  0  0  0
 18 19  1  0  0  0
 26 28  1  0  0  0
 26 29  1  0  0  0
 32 33  1  0  0  0
  4  8  1  0  0  0
  6  9  1  0  0  0
 15 20  1  0  0  0
 15 21  1  0  0  0
M  END
> <minimizedAffinity>
-8.01836

$$$$
5WP5_SAH_A_501


 33 35  0  0  0  0  0  0  0  0999 V2000
    2.4849    7.6928  -48.6956 C   0  0  0  0  0  0  0  0  0  0  0  0
    1.4621    8.5039  -49.3270 O   0  0  0  0  0  0  0  0  0  0  0  0
    2.3561    6.3491  -49.2977 C   0  0  0  0  0  0  0  0  0  0  0  0
    2.1329    5.4277  -48.2495 O   0  0  0  0  0  0  0  0  0  0  0  0
    1.2092    6.4246  -50.2110 C   0  0  0  0  0  0  0  0  0  0  0  0
    0.4191    5.2540  -50.1855 O   0  0  0  0  0  0  0  0  0  0  0  0
    0.4688    7.6320  -49.7467 C   0  0  0  0  0  0  0  0  0  0  0  0
    1.3472    5.6939  -47.7469 H   0  0  0  0  0  0  0  0  0  0  0  0
    0.0992    5.0994  -49.2829 H   0  0  0  0  0  0  0  0  0  0  0  0
   -0.4344    8.2614  -50.7775 N   0  0  0  0  0  0  0  0  0  0  0  0
   -0.2199    9.3122  -51.5855 C   0  0  0  0  0  0  0  0  0  0  0  0
   -1.3485    9.5049  -52.2758 N   0  0  0  0  0  0  0  0  0  0  0  0
   -2.2670    8.5996  -51.9042 C   0  0  0  0  0  0  0  0  0  0  0  0
   -3.5946    8.3328  -52.2844 C   0  0  0  0  0  0  0  0  0  0  0  0
   -4.2105    9.0631  -53.2738 N   0  0  0  0  0  0  0  0  0  0  0  0
   -4.2418    7.3133  -51.6872 N   0  0  0  0  0  0  0  0  0  0  0  0
   -3.6543    6.5624  -50.7482 C   0  0  0  0  0  0  0  0  0  0  0  0
   -2.3786    6.7959  -50.3650 N   0  0  0  0  0  0  0  0  0  0  0  0
   -1.6783    7.7983  -50.9257 C   0  0  0  0  0  0  0  0  0  0  0  0
   -3.7325    9.8070  -53.7066 H   0  0  0  0  0  0  0  0  0  0  0  0
   -5.1295    8.8419  -53.5492 H   0  0  0  0  0  0  0  0  0  0  0  0
    3.7684    8.2545  -48.9807 C   0  0  0  0  0  0  0  0  0  0  0  0
    5.2309    7.4015  -48.3321 S   0  0  0  0  0  0  0  0  0  0  0  0
    6.2415    8.6666  -47.4870 C   0  0  0  0  0  0  0  0  0  0  0  0
    7.6511    8.2674  -47.0460 C   0  0  0  0  0  0  0  0  0  0  0  0
    9.6030    7.1159  -48.1218 N   0  0  0  0  0  0  0  0  0  0  0  0
    8.7548    8.3224  -48.1742 C   0  0  0  0  0  0  0  0  0  0  0  0
    9.0142    6.2842  -48.1676 H   0  0  0  0  0  0  0  0  0  0  0  0
   10.1325    7.1100  -47.2500 H   0  0  0  0  0  0  0  0  0  0  0  0
    9.6250    9.5055  -48.1068 C   0  0  0  0  0  0  0  0  0  0  0  0
   10.8220    9.3434  -47.9508 O   0  0  0  0  0  0  0  0  0  0  0  0
    9.1352   10.6140  -48.0130 O   0  0  0  0  0  0  0  0  0  0  0  0
    8.2135   10.7308  -48.1343 H   0  0  0  0  0  0  0  0  0  0  0  0
 26 27  1  0  0  0
 27 25  1  0  0  0
 27 30  1  0  0  0
 25 24  1  0  0  0
 24 23  1  0  0  0
 23 22  1  0  0  0
 30 31  2  0  0  0
 30 32  1  0  0  0
 22  1  1  0  0  0
  1  2  1  0  0  0
  1  3  1  0  0  0
  2  7  1  0  0  0
  3  4  1  0  0  0
  3  5  1  0  0  0
  5  6  1  0  0  0
  5  7  1  0  0  0
  7 10  1  0  0  0
 10 11  1  0  0  0
 10 19  1  0  0  0
 11 12  2  0  0  0
 12 13  1  0  0  0
 13 14  1  0  0  0
 13 19  2  0  0  0
 14 15  1  0  0  0
 14 16  2  0  0  0
 16 17  1  0  0  0
 17 18  2  0  0  0
 18 19  1  0  0  0
 26 28  1  0  0  0
 26 29  1  0  0  0
 32 33  1  0  0  0
  4  8  1  0  0  0
  6  9  1  0  0  0
 15 20  1  0  0  0
 15 21  1  0  0  0
M  END
> <minimizedAffinity>
-7.97331

$$$$
5WP5_SAH_A_501


 33 35  0  0  0  0  0  0  0  0999 V2000
    1.6750    8.3608  -49.5168 C   0  0  0  0  0  0  0  0  0  0  0  0
    2.9140    8.8201  -48.9196 O   0  0  0  0  0  0  0  0  0  0  0  0
    1.8889    6.9323  -49.8300 C   0  0  0  0  0  0  0  0  0  0  0  0
    1.6682    6.7578  -51.2149 O   0  0  0  0  0  0  0  0  0  0  0  0
    3.2792    6.6417  -49.4584 C   0  0  0  0  0  0  0  0  0  0  0  0
    3.9152    5.7767  -50.3761 O   0  0  0  0  0  0  0  0  0  0  0  0
    3.9155    7.9882  -49.3968 C   0  0  0  0  0  0  0  0  0  0  0  0
    2.2567    7.3464  -51.7128 H   0  0  0  0  0  0  0  0  0  0  0  0
    3.8972    6.1740  -51.2608 H   0  0  0  0  0  0  0  0  0  0  0  0
    5.1625    8.0660  -48.5522 N   0  0  0  0  0  0  0  0  0  0  0  0
    5.4605    7.4518  -47.3959 C   0  0  0  0  0  0  0  0  0  0  0  0
    6.6668    7.8925  -47.0245 N   0  0  0  0  0  0  0  0  0  0  0  0
    7.1215    8.7794  -47.9233 C   0  0  0  0  0  0  0  0  0  0  0  0
    8.2970    9.5421  -48.0442 C   0  0  0  0  0  0  0  0  0  0  0  0
    9.3133    9.4314  -47.1241 N   0  0  0  0  0  0  0  0  0  0  0  0
    8.4281   10.3568  -49.1091 N   0  0  0  0  0  0  0  0  0  0  0  0
    7.4713   10.4560  -50.0394 C   0  0  0  0  0  0  0  0  0  0  0  0
    6.3321    9.7331  -49.9487 N   0  0  0  0  0  0  0  0  0  0  0  0
    6.1426    8.8997  -48.9099 C   0  0  0  0  0  0  0  0  0  0  0  0
    9.2118    8.8344  -46.3479 H   0  0  0  0  0  0  0  0  0  0  0  0
   10.1423    9.9493  -47.2417 H   0  0  0  0  0  0  0  0  0  0  0  0
    0.6142    8.5186  -48.5714 C   0  0  0  0  0  0  0  0  0  0  0  0
   -1.0018    7.8067  -48.9825 S   0  0  0  0  0  0  0  0  0  0  0  0
   -1.7931    8.9542  -50.1627 C   0  0  0  0  0  0  0  0  0  0  0  0
   -1.5483    8.7153  -51.6540 C   0  0  0  0  0  0  0  0  0  0  0  0
   -1.4459   11.2217  -51.6789 N   0  0  0  0  0  0  0  0  0  0  0  0
   -1.3046   10.0153  -52.5170 C   0  0  0  0  0  0  0  0  0  0  0  0
   -0.8291   11.1479  -50.8699 H   0  0  0  0  0  0  0  0  0  0  0  0
   -2.4123   11.3052  -51.3632 H   0  0  0  0  0  0  0  0  0  0  0  0
   -2.2020   10.1455  -53.6743 C   0  0  0  0  0  0  0  0  0  0  0  0
   -2.1555   11.1651  -54.3390 O   0  0  0  0  0  0  0  0  0  0  0  0
   -3.0977    9.3409  -53.8408 O   0  0  0  0  0  0  0  0  0  0  0  0
   -3.1266    8.5588  -53.3256 H   0  0  0  0  0  0  0  0  0  0  0  0
 26 27  1  0  0  0
 27 25  1  0  0  0
 27 30  1  0  0  0
 25 24  1  0  0  0
 24 23  1  0  0  0
 23 22  1  0  0  0
 30 31  2  0  0  0
 30 32  1  0  0  0
 22  1  1  0  0  0
  1  2  1  0  0  0
  1  3  1  0  0  0
  2  7  1  0  0  0
  3  4  1  0  0  0
  3  5  1  0  0  0
  5  6  1  0  0  0
  5  7  1  0  0  0
  7 10  1  0  0  0
 10 11  1  0  0  0
 10 19  1  0  0  0
 11 12  2  0  0  0
 12 13  1  0  0  0
 13 14  1  0  0  0
 13 19  2  0  0  0
 14 15  1  0  0  0
 14 16  2  0  0  0
 16 17  1  0  0  0
 17 18  2  0  0  0
 18 19  1  0  0  0
 26 28  1  0  0  0
 26 29  1  0  0  0
 32 33  1  0  0  0
  4  8  1  0  0  0
  6  9  1  0  0  0
 15 20  1  0  0  0
 15 21  1  0  0  0
M  END
> <minimizedAffinity>
-7.90717

$$$$
5WP5_SAH_A_501


 33 35  0  0  0  0  0  0  0  0999 V2000
    2.0418    7.1769  -50.2543 C   0  0  0  0  0  0  0  0  0  0  0  0
    1.0881    6.1110  -50.0154 O   0  0  0  0  0  0  0  0  0  0  0  0
    1.4900    8.3660  -49.5716 C   0  0  0  0  0  0  0  0  0  0  0  0
    1.3445    9.3875  -50.5374 O   0  0  0  0  0  0  0  0  0  0  0  0
    0.1952    7.9493  -49.0192 C   0  0  0  0  0  0  0  0  0  0  0  0
   -0.7913    8.9536  -49.1353 O   0  0  0  0  0  0  0  0  0  0  0  0
   -0.1379    6.7196  -49.7928 C   0  0  0  0  0  0  0  0  0  0  0  0
    0.7808    9.0710  -51.2605 H   0  0  0  0  0  0  0  0  0  0  0  0
   -0.9035    9.1901  -50.0693 H   0  0  0  0  0  0  0  0  0  0  0  0
   -1.1151    5.7885  -49.1201 N   0  0  0  0  0  0  0  0  0  0  0  0
   -2.4333    5.6301  -49.3210 C   0  0  0  0  0  0  0  0  0  0  0  0
   -2.8516    4.7183  -48.4373 N   0  0  0  0  0  0  0  0  0  0  0  0
   -1.8193    4.3135  -47.6811 C   0  0  0  0  0  0  0  0  0  0  0  0
   -1.6744    3.3960  -46.6250 C   0  0  0  0  0  0  0  0  0  0  0  0
   -2.7402    2.6472  -46.1833 N   0  0  0  0  0  0  0  0  0  0  0  0
   -0.4539    3.2318  -46.0788 N   0  0  0  0  0  0  0  0  0  0  0  0
    0.6084    3.9197  -46.5139 C   0  0  0  0  0  0  0  0  0  0  0  0
    0.4976    4.8066  -47.5287 N   0  0  0  0  0  0  0  0  0  0  0  0
   -0.6943    5.0137  -48.1169 C   0  0  0  0  0  0  0  0  0  0  0  0
   -3.6298    2.7716  -46.5862 H   0  0  0  0  0  0  0  0  0  0  0  0
   -2.6135    1.9868  -45.4642 H   0  0  0  0  0  0  0  0  0  0  0  0
    3.3035    6.8096  -49.6910 C   0  0  0  0  0  0  0  0  0  0  0  0
    4.0796    7.9609  -48.5251 S   0  0  0  0  0  0  0  0  0  0  0  0
    5.8432    8.0641  -48.9887 C   0  0  0  0  0  0  0  0  0  0  0  0
    6.7798    8.8206  -48.0446 C   0  0  0  0  0  0  0  0  0  0  0  0
    6.9050   10.6408  -49.7663 N   0  0  0  0  0  0  0  0  0  0  0  0
    6.9067   10.3713  -48.3153 C   0  0  0  0  0  0  0  0  0  0  0  0
    6.0782   10.2193  -50.1894 H   0  0  0  0  0  0  0  0  0  0  0  0
    7.7437   10.2410  -50.1873 H   0  0  0  0  0  0  0  0  0  0  0  0
    8.1059   10.9877  -47.7294 C   0  0  0  0  0  0  0  0  0  0  0  0
    9.1734   10.4118  -47.8400 O   0  0  0  0  0  0  0  0  0  0  0  0
    7.9953   11.9453  -46.9890 O   0  0  0  0  0  0  0  0  0  0  0  0
    7.1708   12.3832  -46.9092 H   0  0  0  0  0  0  0  0  0  0  0  0
 26 27  1  0  0  0
 27 25  1  0  0  0
 27 30  1  0  0  0
 25 24  1  0  0  0
 24 23  1  0  0  0
 23 22  1  0  0  0
 30 31  2  0  0  0
 30 32  1  0  0  0
 22  1  1  0  0  0
  1  2  1  0  0  0
  1  3  1  0  0  0
  2  7  1  0  0  0
  3  4  1  0  0  0
  3  5  1  0  0  0
  5  6  1  0  0  0
  5  7  1  0  0  0
  7 10  1  0  0  0
 10 11  1  0  0  0
 10 19  1  0  0  0
 11 12  2  0  0  0
 12 13  1  0  0  0
 13 14  1  0  0  0
 13 19  2  0  0  0
 14 15  1  0  0  0
 14 16  2  0  0  0
 16 17  1  0  0  0
 17 18  2  0  0  0
 18 19  1  0  0  0
 26 28  1  0  0  0
 26 29  1  0  0  0
 32 33  1  0  0  0
  4  8  1  0  0  0
  6  9  1  0  0  0
 15 20  1  0  0  0
 15 21  1  0  0  0
M  END
> <minimizedAffinity>
-7.70169

$$$$
5WP5_SAH_A_501


 33 35  0  0  0  0  0  0  0  0999 V2000
   -1.1919    7.8055  -50.2179 C   0  0  0  0  0  0  0  0  0  0  0  0
   -1.3542    8.2415  -51.5914 O   0  0  0  0  0  0  0  0  0  0  0  0
   -2.3327    8.3852  -49.4783 C   0  0  0  0  0  0  0  0  0  0  0  0
   -1.8089    9.1748  -48.4298 O   0  0  0  0  0  0  0  0  0  0  0  0
   -3.0753    9.1948  -50.4522 C   0  0  0  0  0  0  0  0  0  0  0  0
   -3.5572   10.4012  -49.8977 O   0  0  0  0  0  0  0  0  0  0  0  0
   -2.0910    9.4155  -51.5494 C   0  0  0  0  0  0  0  0  0  0  0  0
   -1.2152    9.8480  -48.7975 H   0  0  0  0  0  0  0  0  0  0  0  0
   -2.8128   10.9188  -49.5532 H   0  0  0  0  0  0  0  0  0  0  0  0
   -2.6952    9.7495  -52.8902 N   0  0  0  0  0  0  0  0  0  0  0  0
   -3.4819    9.0111  -53.6896 C   0  0  0  0  0  0  0  0  0  0  0  0
   -3.7053    9.7378  -54.7893 N   0  0  0  0  0  0  0  0  0  0  0  0
   -3.0623   10.9120  -54.6947 C   0  0  0  0  0  0  0  0  0  0  0  0
   -2.9436   12.0381  -55.5290 C   0  0  0  0  0  0  0  0  0  0  0  0
   -3.6098   12.1054  -56.7304 N   0  0  0  0  0  0  0  0  0  0  0  0
   -2.1942   13.0750  -55.1068 N   0  0  0  0  0  0  0  0  0  0  0  0
   -1.5654   13.0520  -53.9257 C   0  0  0  0  0  0  0  0  0  0  0  0
   -1.6638   11.9830  -53.1034 N   0  0  0  0  0  0  0  0  0  0  0  0
   -2.3992   10.9170  -53.4673 C   0  0  0  0  0  0  0  0  0  0  0  0
   -4.1559   11.3445  -57.0337 H   0  0  0  0  0  0  0  0  0  0  0  0
   -3.5406   12.9145  -57.2870 H   0  0  0  0  0  0  0  0  0  0  0  0
   -1.2329    6.3771  -50.1735 C   0  0  0  0  0  0  0  0  0  0  0  0
    0.3137    5.4940  -49.8338 S   0  0  0  0  0  0  0  0  0  0  0  0
   -0.1536    3.8257  -49.2558 C   0  0  0  0  0  0  0  0  0  0  0  0
    0.5769    2.6322  -49.8747 C   0  0  0  0  0  0  0  0  0  0  0  0
    2.1030    2.3344  -51.8433 N   0  0  0  0  0  0  0  0  0  0  0  0
    1.9861    2.9557  -50.5098 C   0  0  0  0  0  0  0  0  0  0  0  0
    1.3172    2.6262  -52.4244 H   0  0  0  0  0  0  0  0  0  0  0  0
    2.0961    1.3190  -51.7471 H   0  0  0  0  0  0  0  0  0  0  0  0
    3.1281    2.5206  -49.6926 C   0  0  0  0  0  0  0  0  0  0  0  0
    4.1772    2.2505  -50.2496 O   0  0  0  0  0  0  0  0  0  0  0  0
    2.9661    2.2516  -48.5183 O   0  0  0  0  0  0  0  0  0  0  0  0
    2.1563    2.4625  -48.0968 H   0  0  0  0  0  0  0  0  0  0  0  0
 26 27  1  0  0  0
 27 25  1  0  0  0
 27 30  1  0  0  0
 25 24  1  0  0  0
 24 23  1  0  0  0
 23 22  1  0  0  0
 30 31  2  0  0  0
 30 32  1  0  0  0
 22  1  1  0  0  0
  1  2  1  0  0  0
  1  3  1  0  0  0
  2  7  1  0  0  0
  3  4  1  0  0  0
  3  5  1  0  0  0
  5  6  1  0  0  0
  5  7  1  0  0  0
  7 10  1  0  0  0
 10 11  1  0  0  0
 10 19  1  0  0  0
 11 12  2  0  0  0
 12 13  1  0  0  0
 13 14  1  0  0  0
 13 19  2  0  0  0
 14 15  1  0  0  0
 14 16  2  0  0  0
 16 17  1  0  0  0
 17 18  2  0  0  0
 18 19  1  0  0  0
 26 28  1  0  0  0
 26 29  1  0  0  0
 32 33  1  0  0  0
  4  8  1  0  0  0
  6  9  1  0  0  0
 15 20  1  0  0  0
 15 21  1  0  0  0
M  END
> <minimizedAffinity>
-7.29336

$$$$
5WP5_SAH_A_501


 33 35  0  0  0  0  0  0  0  0999 V2000
    4.9558    7.2474  -48.7985 C   0  0  0  0  0  0  0  0  0  0  0  0
    3.8796    6.3116  -48.5360 O   0  0  0  0  0  0  0  0  0  0  0  0
    4.2978    8.5226  -49.1524 C   0  0  0  0  0  0  0  0  0  0  0  0
    4.7536    8.9002  -50.4358 O   0  0  0  0  0  0  0  0  0  0  0  0
    2.8556    8.2480  -49.1448 C   0  0  0  0  0  0  0  0  0  0  0  0
    2.1737    8.9067  -50.1919 O   0  0  0  0  0  0  0  0  0  0  0  0
    2.7798    6.7631  -49.2497 C   0  0  0  0  0  0  0  0  0  0  0  0
    4.5652    8.1890  -51.0680 H   0  0  0  0  0  0  0  0  0  0  0  0
    2.5469    8.6318  -51.0440 H   0  0  0  0  0  0  0  0  0  0  0  0
    1.4944    6.1535  -48.7490 N   0  0  0  0  0  0  0  0  0  0  0  0
    1.2885    5.2602  -47.7678 C   0  0  0  0  0  0  0  0  0  0  0  0
   -0.0231    5.0018  -47.7501 N   0  0  0  0  0  0  0  0  0  0  0  0
   -0.6372    5.7098  -48.7107 C   0  0  0  0  0  0  0  0  0  0  0  0
   -1.9705    5.8328  -49.1413 C   0  0  0  0  0  0  0  0  0  0  0  0
   -2.9873    5.1597  -48.5053 N   0  0  0  0  0  0  0  0  0  0  0  0
   -2.2405    6.6617  -50.1685 N   0  0  0  0  0  0  0  0  0  0  0  0
   -1.2758    7.3578  -50.7814 C   0  0  0  0  0  0  0  0  0  0  0  0
    0.0139    7.2596  -50.3867 N   0  0  0  0  0  0  0  0  0  0  0  0
    0.3473    6.4502  -49.3653 C   0  0  0  0  0  0  0  0  0  0  0  0
   -2.7839    4.5552  -47.7553 H   0  0  0  0  0  0  0  0  0  0  0  0
   -3.9186    5.2822  -48.8001 H   0  0  0  0  0  0  0  0  0  0  0  0
    5.7446    7.3958  -47.6154 C   0  0  0  0  0  0  0  0  0  0  0  0
    5.3713    8.7884  -46.5159 S   0  0  0  0  0  0  0  0  0  0  0  0
    6.9736    9.4100  -45.8979 C   0  0  0  0  0  0  0  0  0  0  0  0
    8.1598    9.3918  -46.8640 C   0  0  0  0  0  0  0  0  0  0  0  0
    7.9363   11.8894  -46.9346 N   0  0  0  0  0  0  0  0  0  0  0  0
    8.3641   10.7092  -47.7105 C   0  0  0  0  0  0  0  0  0  0  0  0
    8.4225   11.9013  -46.0380 H   0  0  0  0  0  0  0  0  0  0  0  0
    6.9299   11.8448  -46.7750 H   0  0  0  0  0  0  0  0  0  0  0  0
    7.6507   10.7147  -48.9960 C   0  0  0  0  0  0  0  0  0  0  0  0
    8.2911   10.5658  -50.0213 O   0  0  0  0  0  0  0  0  0  0  0  0
    6.4844   11.0541  -49.0409 O   0  0  0  0  0  0  0  0  0  0  0  0
    5.9983   11.1666  -48.2478 H   0  0  0  0  0  0  0  0  0  0  0  0
 26 27  1  0  0  0
 27 25  1  0  0  0
 27 30  1  0  0  0
 25 24  1  0  0  0
 24 23  1  0  0  0
 23 22  1  0  0  0
 30 31  2  0  0  0
 30 32  1  0  0  0
 22  1  1  0  0  0
  1  2  1  0  0  0
  1  3  1  0  0  0
  2  7  1  0  0  0
  3  4  1  0  0  0
  3  5  1  0  0  0
  5  6  1  0  0  0
  5  7  1  0  0  0
  7 10  1  0  0  0
 10 11  1  0  0  0
 10 19  1  0  0  0
 11 12  2  0  0  0
 12 13  1  0  0  0
 13 14  1  0  0  0
 13 19  2  0  0  0
 14 15  1  0  0  0
 14 16  2  0  0  0
 16 17  1  0  0  0
 17 18  2  0  0  0
 18 19  1  0  0  0
 26 28  1  0  0  0
 26 29  1  0  0  0
 32 33  1  0  0  0
  4  8  1  0  0  0
  6  9  1  0  0  0
 15 20  1  0  0  0
 15 21  1  0  0  0
M  END
> <minimizedAffinity>
-7.11608

$$$$
