5FND_IQ5_A_1225


 18 19  0  0  0  0  0  0  0  0999 V2000
   33.5165    9.6714   25.4659 C   0  0  0  0  0  0  0  0  0  0  0  0
   32.4081   10.0343   24.7745 C   0  0  0  0  0  0  0  0  0  0  0  0
   32.5301   10.9970   23.7699 C   0  0  0  0  0  0  0  0  0  0  0  0
   31.4483   11.4179   23.0718 C   0  0  0  0  0  0  0  0  0  0  0  0
   31.3837   12.6069   21.7680 S   0  0  0  0  0  0  0  0  0  0  0  0
   29.5740   12.2903   21.6173 C   0  0  0  0  0  0  0  0  0  0  0  0
   28.7483   12.8362   20.7592 N   0  0  0  0  0  0  0  0  0  0  0  0
   29.1659   11.4364   22.5716 N   0  0  0  0  0  0  0  0  0  0  0  0
   30.1847   10.9171   23.3353 C   0  0  0  0  0  0  0  0  0  0  0  0
   30.0579    9.9580   24.2774 C   0  0  0  0  0  0  0  0  0  0  0  0
   31.1460    9.4736   25.0150 C   0  0  0  0  0  0  0  0  0  0  0  0
   29.0887   13.4572   20.0753 H   0  0  0  0  0  0  0  0  0  0  0  0
   27.7874   12.6255   20.7983 H   0  0  0  0  0  0  0  0  0  0  0  0
   30.9364    8.6159   26.0501 N   0  0  0  0  0  0  0  0  0  0  0  0
   31.1345    7.2552   26.0784 C   0  0  0  0  0  0  0  0  0  0  0  0
   31.5069    6.5852   25.1332 O   0  0  0  0  0  0  0  0  0  0  0  0
   30.7755    6.5870   27.4066 C   0  0  0  0  0  0  0  0  0  0  0  0
   30.6010    9.0198   26.8830 H   0  0  0  0  0  0  0  0  0  0  0  0
  1  2  1  0  0  0
  2  3  1  0  0  0
  2 11  2  0  0  0
  3  4  2  0  0  0
  4  5  1  0  0  0
  4  9  1  0  0  0
  5  6  1  0  0  0
  6  7  1  0  0  0
  6  8  2  0  0  0
  8  9  1  0  0  0
  9 10  2  0  0  0
 10 11  1  0  0  0
 11 14  1  0  0  0
 14 15  1  0  0  0
 15 16  2  0  0  0
 15 17  1  0  0  0
  7 12  1  0  0  0
  7 13  1  0  0  0
 14 18  1  0  0  0
M  END
> <minimizedAffinity>
-6.68328

$$$$
5FND_IQ5_A_1225


 18 19  0  0  0  0  0  0  0  0999 V2000
   30.7001    9.4136   24.6876 C   0  0  0  0  0  0  0  0  0  0  0  0
   31.8732    8.9762   24.1673 C   0  0  0  0  0  0  0  0  0  0  0  0
   32.0259    7.6114   23.9123 C   0  0  0  0  0  0  0  0  0  0  0  0
   33.1891    7.1189   23.4233 C   0  0  0  0  0  0  0  0  0  0  0  0
   33.5856    5.4448   23.0255 S   0  0  0  0  0  0  0  0  0  0  0  0
   35.2456    6.0107   22.4577 C   0  0  0  0  0  0  0  0  0  0  0  0
   36.1975    5.2697   21.9469 N   0  0  0  0  0  0  0  0  0  0  0  0
   35.3983    7.3255   22.6910 N   0  0  0  0  0  0  0  0  0  0  0  0
   34.2686    7.9473   23.1686 C   0  0  0  0  0  0  0  0  0  0  0  0
   34.1223    9.2739   23.3740 C   0  0  0  0  0  0  0  0  0  0  0  0
   32.9356    9.8377   23.8602 C   0  0  0  0  0  0  0  0  0  0  0  0
   36.0443    4.3096   21.7919 H   0  0  0  0  0  0  0  0  0  0  0  0
   37.0660    5.6728   21.7181 H   0  0  0  0  0  0  0  0  0  0  0  0
   32.8952   11.1580   24.1863 N   0  0  0  0  0  0  0  0  0  0  0  0
   32.6043   12.2255   23.3694 C   0  0  0  0  0  0  0  0  0  0  0  0
   32.3662   12.1474   22.1785 O   0  0  0  0  0  0  0  0  0  0  0  0
   32.6698   13.5900   24.0573 C   0  0  0  0  0  0  0  0  0  0  0  0
   33.0997   11.3765   25.1242 H   0  0  0  0  0  0  0  0  0  0  0  0
  1  2  1  0  0  0
  2  3  1  0  0  0
  2 11  2  0  0  0
  3  4  2  0  0  0
  4  5  1  0  0  0
  4  9  1  0  0  0
  5  6  1  0  0  0
  6  7  1  0  0  0
  6  8  2  0  0  0
  8  9  1  0  0  0
  9 10  2  0  0  0
 10 11  1  0  0  0
 11 14  1  0  0  0
 14 15  1  0  0  0
 15 16  2  0  0  0
 15 17  1  0  0  0
  7 12  1  0  0  0
  7 13  1  0  0  0
 14 18  1  0  0  0
M  END
> <minimizedAffinity>
-6.53208

$$$$
5FND_IQ5_A_1225


 18 19  0  0  0  0  0  0  0  0999 V2000
   30.1567    8.9369   27.5622 C   0  0  0  0  0  0  0  0  0  0  0  0
   30.7549    9.5041   26.4857 C   0  0  0  0  0  0  0  0  0  0  0  0
   29.9855   10.2985   25.6325 C   0  0  0  0  0  0  0  0  0  0  0  0
   30.5272   10.8614   24.5259 C   0  0  0  0  0  0  0  0  0  0  0  0
   29.7421   11.8971   23.3306 S   0  0  0  0  0  0  0  0  0  0  0  0
   31.3565   12.0478   22.4536 C   0  0  0  0  0  0  0  0  0  0  0  0
   31.6043   12.7508   21.3764 N   0  0  0  0  0  0  0  0  0  0  0  0
   32.2835   11.2713   23.0403 N   0  0  0  0  0  0  0  0  0  0  0  0
   31.8570   10.6618   24.1968 C   0  0  0  0  0  0  0  0  0  0  0  0
   32.6221    9.9278   25.0331 C   0  0  0  0  0  0  0  0  0  0  0  0
   32.1173    9.3392   26.1998 C   0  0  0  0  0  0  0  0  0  0  0  0
   30.8965   13.3071   20.9780 H   0  0  0  0  0  0  0  0  0  0  0  0
   32.4984   12.7229   20.9653 H   0  0  0  0  0  0  0  0  0  0  0  0
   32.8964    8.4909   26.9240 N   0  0  0  0  0  0  0  0  0  0  0  0
   33.1158    7.1499   26.7118 C   0  0  0  0  0  0  0  0  0  0  0  0
   32.5964    6.4893   25.8314 O   0  0  0  0  0  0  0  0  0  0  0  0
   34.0376    6.4856   27.7357 C   0  0  0  0  0  0  0  0  0  0  0  0
   33.3612    8.8864   27.6965 H   0  0  0  0  0  0  0  0  0  0  0  0
  1  2  1  0  0  0
  2  3  1  0  0  0
  2 11  2  0  0  0
  3  4  2  0  0  0
  4  5  1  0  0  0
  4  9  1  0  0  0
  5  6  1  0  0  0
  6  7  1  0  0  0
  6  8  2  0  0  0
  8  9  1  0  0  0
  9 10  2  0  0  0
 10 11  1  0  0  0
 11 14  1  0  0  0
 14 15  1  0  0  0
 15 16  2  0  0  0
 15 17  1  0  0  0
  7 12  1  0  0  0
  7 13  1  0  0  0
 14 18  1  0  0  0
M  END
> <minimizedAffinity>
-6.50785

$$$$
5FND_IQ5_A_1225


 18 19  0  0  0  0  0  0  0  0999 V2000
   33.0416   11.8924   23.0680 C   0  0  0  0  0  0  0  0  0  0  0  0
   32.4287   11.1867   24.0502 C   0  0  0  0  0  0  0  0  0  0  0  0
   33.1449   10.1768   24.6968 C   0  0  0  0  0  0  0  0  0  0  0  0
   32.5687    9.4213   25.6621 C   0  0  0  0  0  0  0  0  0  0  0  0
   33.2907    8.1128   26.6026 S   0  0  0  0  0  0  0  0  0  0  0  0
   31.7024    7.9464   27.5234 C   0  0  0  0  0  0  0  0  0  0  0  0
   31.4442    7.1166   28.5035 N   0  0  0  0  0  0  0  0  0  0  0  0
   30.7750    8.7744   27.0127 N   0  0  0  0  0  0  0  0  0  0  0  0
   31.2496    9.6162   26.0345 C   0  0  0  0  0  0  0  0  0  0  0  0
   30.5570   10.6143   25.4449 C   0  0  0  0  0  0  0  0  0  0  0  0
   31.1102   11.4371   24.4552 C   0  0  0  0  0  0  0  0  0  0  0  0
   32.1528    6.5266   28.8486 H   0  0  0  0  0  0  0  0  0  0  0  0
   30.5415    7.0829   28.8951 H   0  0  0  0  0  0  0  0  0  0  0  0
   30.3221   12.3276   23.7941 N   0  0  0  0  0  0  0  0  0  0  0  0
   29.3701   12.0702   22.8355 C   0  0  0  0  0  0  0  0  0  0  0  0
   29.1067   10.9675   22.3930 O   0  0  0  0  0  0  0  0  0  0  0  0
   28.6765   13.3137   22.2770 C   0  0  0  0  0  0  0  0  0  0  0  0
   30.4492   13.2745   24.0316 H   0  0  0  0  0  0  0  0  0  0  0  0
  1  2  1  0  0  0
  2  3  1  0  0  0
  2 11  2  0  0  0
  3  4  2  0  0  0
  4  5  1  0  0  0
  4  9  1  0  0  0
  5  6  1  0  0  0
  6  7  1  0  0  0
  6  8  2  0  0  0
  8  9  1  0  0  0
  9 10  2  0  0  0
 10 11  1  0  0  0
 11 14  1  0  0  0
 14 15  1  0  0  0
 15 16  2  0  0  0
 15 17  1  0  0  0
  7 12  1  0  0  0
  7 13  1  0  0  0
 14 18  1  0  0  0
M  END
> <minimizedAffinity>
-6.35566

$$$$
5FND_IQ5_A_1225


 18 19  0  0  0  0  0  0  0  0999 V2000
   30.0213    9.9957   26.8239 C   0  0  0  0  0  0  0  0  0  0  0  0
   30.9059    9.2031   26.1701 C   0  0  0  0  0  0  0  0  0  0  0  0
   31.8107    8.4480   26.9199 C   0  0  0  0  0  0  0  0  0  0  0  0
   32.7359    7.6653   26.3148 C   0  0  0  0  0  0  0  0  0  0  0  0
   33.9553    6.6335   27.0674 S   0  0  0  0  0  0  0  0  0  0  0  0
   34.4913    6.1015   25.3857 C   0  0  0  0  0  0  0  0  0  0  0  0
   35.4303    5.2352   25.0964 N   0  0  0  0  0  0  0  0  0  0  0  0
   33.8153    6.7784   24.4417 N   0  0  0  0  0  0  0  0  0  0  0  0
   32.8237    7.5936   24.9350 C   0  0  0  0  0  0  0  0  0  0  0  0
   31.9306    8.2882   24.1980 C   0  0  0  0  0  0  0  0  0  0  0  0
   30.9420    9.0976   24.7727 C   0  0  0  0  0  0  0  0  0  0  0  0
   35.9015    4.7604   25.8187 H   0  0  0  0  0  0  0  0  0  0  0  0
   35.6649    5.0590   24.1566 H   0  0  0  0  0  0  0  0  0  0  0  0
   30.1665    9.8872   23.9815 N   0  0  0  0  0  0  0  0  0  0  0  0
   30.4657   11.1266   23.4657 C   0  0  0  0  0  0  0  0  0  0  0  0
   31.4947   11.7404   23.6788 O   0  0  0  0  0  0  0  0  0  0  0  0
   29.3508   11.7530   22.6266 C   0  0  0  0  0  0  0  0  0  0  0  0
   29.2805    9.5264   23.7491 H   0  0  0  0  0  0  0  0  0  0  0  0
  1  2  1  0  0  0
  2  3  1  0  0  0
  2 11  2  0  0  0
  3  4  2  0  0  0
  4  5  1  0  0  0
  4  9  1  0  0  0
  5  6  1  0  0  0
  6  7  1  0  0  0
  6  8  2  0  0  0
  8  9  1  0  0  0
  9 10  2  0  0  0
 10 11  1  0  0  0
 11 14  1  0  0  0
 14 15  1  0  0  0
 15 16  2  0  0  0
 15 17  1  0  0  0
  7 12  1  0  0  0
  7 13  1  0  0  0
 14 18  1  0  0  0
M  END
> <minimizedAffinity>
-6.34804

$$$$
5FND_IQ5_A_1225


 18 19  0  0  0  0  0  0  0  0999 V2000
   34.0627    7.4136   27.5541 C   0  0  0  0  0  0  0  0  0  0  0  0
   32.9331    8.0653   27.1831 C   0  0  0  0  0  0  0  0  0  0  0  0
   32.8922    8.6729   25.9260 C   0  0  0  0  0  0  0  0  0  0  0  0
   31.7999    9.3636   25.5203 C   0  0  0  0  0  0  0  0  0  0  0  0
   31.5396   10.1920   23.9827 S   0  0  0  0  0  0  0  0  0  0  0  0
   29.8445   10.6399   24.5521 C   0  0  0  0  0  0  0  0  0  0  0  0
   28.9376   11.3031   23.8785 N   0  0  0  0  0  0  0  0  0  0  0  0
   29.6543   10.2388   25.8208 N   0  0  0  0  0  0  0  0  0  0  0  0
   30.6918    9.4999   26.3390 C   0  0  0  0  0  0  0  0  0  0  0  0
   30.7026    8.8854   27.5413 C   0  0  0  0  0  0  0  0  0  0  0  0
   31.7979    8.1433   28.0018 C   0  0  0  0  0  0  0  0  0  0  0  0
   29.1172   11.5785   22.9505 H   0  0  0  0  0  0  0  0  0  0  0  0
   28.0765   11.5262   24.3003 H   0  0  0  0  0  0  0  0  0  0  0  0
   31.8100    7.6715   29.2779 N   0  0  0  0  0  0  0  0  0  0  0  0
   31.7839    6.3625   29.6991 C   0  0  0  0  0  0  0  0  0  0  0  0
   31.7066    5.3952   28.9646 O   0  0  0  0  0  0  0  0  0  0  0  0
   31.7854    6.1823   31.2179 C   0  0  0  0  0  0  0  0  0  0  0  0
   31.8413    8.3521   29.9885 H   0  0  0  0  0  0  0  0  0  0  0  0
  1  2  1  0  0  0
  2  3  1  0  0  0
  2 11  2  0  0  0
  3  4  2  0  0  0
  4  5  1  0  0  0
  4  9  1  0  0  0
  5  6  1  0  0  0
  6  7  1  0  0  0
  6  8  2  0  0  0
  8  9  1  0  0  0
  9 10  2  0  0  0
 10 11  1  0  0  0
 11 14  1  0  0  0
 14 15  1  0  0  0
 15 16  2  0  0  0
 15 17  1  0  0  0
  7 12  1  0  0  0
  7 13  1  0  0  0
 14 18  1  0  0  0
M  END
> <minimizedAffinity>
-6.26565

$$$$
5FND_IQ5_A_1225


 18 19  0  0  0  0  0  0  0  0999 V2000
   33.1984    8.2991   23.5578 C   0  0  0  0  0  0  0  0  0  0  0  0
   32.7224    8.2396   24.8259 C   0  0  0  0  0  0  0  0  0  0  0  0
   33.4702    7.5616   25.7914 C   0  0  0  0  0  0  0  0  0  0  0  0
   33.0237    7.4453   27.0649 C   0  0  0  0  0  0  0  0  0  0  0  0
   33.8087    6.6457   28.4296 S   0  0  0  0  0  0  0  0  0  0  0  0
   32.4020    7.1695   29.4995 C   0  0  0  0  0  0  0  0  0  0  0  0
   32.2651    6.9488   30.7835 N   0  0  0  0  0  0  0  0  0  0  0  0
   31.4584    7.7846   28.7662 N   0  0  0  0  0  0  0  0  0  0  0  0
   31.8087    7.9847   27.4516 C   0  0  0  0  0  0  0  0  0  0  0  0
   31.0935    8.6759   26.5384 C   0  0  0  0  0  0  0  0  0  0  0  0
   31.5177    8.8424   25.2136 C   0  0  0  0  0  0  0  0  0  0  0  0
   32.9810    6.4946   31.2839 H   0  0  0  0  0  0  0  0  0  0  0  0
   31.4464    7.2372   31.2480 H   0  0  0  0  0  0  0  0  0  0  0  0
   30.6884    9.4204   24.3029 N   0  0  0  0  0  0  0  0  0  0  0  0
   30.4936   10.7605   24.0628 C   0  0  0  0  0  0  0  0  0  0  0  0
   31.0282   11.6639   24.6785 O   0  0  0  0  0  0  0  0  0  0  0  0
   29.4642   11.0693   22.9746 C   0  0  0  0  0  0  0  0  0  0  0  0
   30.1621    8.8020   23.7462 H   0  0  0  0  0  0  0  0  0  0  0  0
  1  2  1  0  0  0
  2  3  1  0  0  0
  2 11  2  0  0  0
  3  4  2  0  0  0
  4  5  1  0  0  0
  4  9  1  0  0  0
  5  6  1  0  0  0
  6  7  1  0  0  0
  6  8  2  0  0  0
  8  9  1  0  0  0
  9 10  2  0  0  0
 10 11  1  0  0  0
 11 14  1  0  0  0
 14 15  1  0  0  0
 15 16  2  0  0  0
 15 17  1  0  0  0
  7 12  1  0  0  0
  7 13  1  0  0  0
 14 18  1  0  0  0
M  END
> <minimizedAffinity>
-6.24386

$$$$
5FND_IQ5_A_1225


 18 19  0  0  0  0  0  0  0  0999 V2000
   29.2951   10.6333   25.1297 C   0  0  0  0  0  0  0  0  0  0  0  0
   30.4219    9.9083   25.3370 C   0  0  0  0  0  0  0  0  0  0  0  0
   30.5181    9.1361   26.4969 C   0  0  0  0  0  0  0  0  0  0  0  0
   31.6352    8.4191   26.7670 C   0  0  0  0  0  0  0  0  0  0  0  0
   31.9571    7.3798   28.1578 S   0  0  0  0  0  0  0  0  0  0  0  0
   33.5972    6.9671   27.4243 C   0  0  0  0  0  0  0  0  0  0  0  0
   34.4946    6.1481   27.9140 N   0  0  0  0  0  0  0  0  0  0  0  0
   33.8029    7.6800   26.3037 N   0  0  0  0  0  0  0  0  0  0  0  0
   32.7224    8.4341   25.9101 C   0  0  0  0  0  0  0  0  0  0  0  0
   32.6285    9.1456   24.7663 C   0  0  0  0  0  0  0  0  0  0  0  0
   31.4899    9.8891   24.4292 C   0  0  0  0  0  0  0  0  0  0  0  0
   34.3037    5.6443   28.7381 H   0  0  0  0  0  0  0  0  0  0  0  0
   35.3600    6.0363   27.4581 H   0  0  0  0  0  0  0  0  0  0  0  0
   31.5085   10.7022   23.3385 N   0  0  0  0  0  0  0  0  0  0  0  0
   32.0101   11.9790   23.2402 C   0  0  0  0  0  0  0  0  0  0  0  0
   32.4981   12.6090   24.1600 O   0  0  0  0  0  0  0  0  0  0  0  0
   31.8484   12.6222   21.8619 C   0  0  0  0  0  0  0  0  0  0  0  0
   31.1136   10.3301   22.5170 H   0  0  0  0  0  0  0  0  0  0  0  0
  1  2  1  0  0  0
  2  3  1  0  0  0
  2 11  2  0  0  0
  3  4  2  0  0  0
  4  5  1  0  0  0
  4  9  1  0  0  0
  5  6  1  0  0  0
  6  7  1  0  0  0
  6  8  2  0  0  0
  8  9  1  0  0  0
  9 10  2  0  0  0
 10 11  1  0  0  0
 11 14  1  0  0  0
 14 15  1  0  0  0
 15 16  2  0  0  0
 15 17  1  0  0  0
  7 12  1  0  0  0
  7 13  1  0  0  0
 14 18  1  0  0  0
M  END
> <minimizedAffinity>
-6.13907

$$$$
5FND_IQ5_A_1225


 18 19  0  0  0  0  0  0  0  0999 V2000
   33.5769    7.5741   27.4238 C   0  0  0  0  0  0  0  0  0  0  0  0
   32.9602    8.1825   26.3807 C   0  0  0  0  0  0  0  0  0  0  0  0
   31.7563    8.8520   26.6117 C   0  0  0  0  0  0  0  0  0  0  0  0
   31.0839    9.4483   25.5983 C   0  0  0  0  0  0  0  0  0  0  0  0
   29.5653   10.3460   25.6732 S   0  0  0  0  0  0  0  0  0  0  0  0
   29.7109   10.6731   23.8649 C   0  0  0  0  0  0  0  0  0  0  0  0
   28.8886   11.3726   23.1230 N   0  0  0  0  0  0  0  0  0  0  0  0
   30.7785   10.0339   23.3569 N   0  0  0  0  0  0  0  0  0  0  0  0
   31.5600    9.4070   24.2989 C   0  0  0  0  0  0  0  0  0  0  0  0
   32.7419    8.7964   24.0673 C   0  0  0  0  0  0  0  0  0  0  0  0
   33.4869    8.1808   25.0816 C   0  0  0  0  0  0  0  0  0  0  0  0
   28.1179   11.8257   23.5352 H   0  0  0  0  0  0  0  0  0  0  0  0
   29.0413   11.4452   22.1531 H   0  0  0  0  0  0  0  0  0  0  0  0
   34.5939    7.4556   24.7659 N   0  0  0  0  0  0  0  0  0  0  0  0
   34.6631    6.1385   24.3761 C   0  0  0  0  0  0  0  0  0  0  0  0
   33.7101    5.3868   24.2873 O   0  0  0  0  0  0  0  0  0  0  0  0
   36.0802    5.6249   24.1165 C   0  0  0  0  0  0  0  0  0  0  0  0
   35.4527    7.9334   24.8238 H   0  0  0  0  0  0  0  0  0  0  0  0
  1  2  1  0  0  0
  2  3  1  0  0  0
  2 11  2  0  0  0
  3  4  2  0  0  0
  4  5  1  0  0  0
  4  9  1  0  0  0
  5  6  1  0  0  0
  6  7  1  0  0  0
  6  8  2  0  0  0
  8  9  1  0  0  0
  9 10  2  0  0  0
 10 11  1  0  0  0
 11 14  1  0  0  0
 14 15  1  0  0  0
 15 16  2  0  0  0
 15 17  1  0  0  0
  7 12  1  0  0  0
  7 13  1  0  0  0
 14 18  1  0  0  0
M  END
> <minimizedAffinity>
-6.12466

$$$$
5FND_IQ5_A_1225


 18 19  0  0  0  0  0  0  0  0999 V2000
   32.7260    8.3897   26.7171 C   0  0  0  0  0  0  0  0  0  0  0  0
   32.9902    7.7416   25.5559 C   0  0  0  0  0  0  0  0  0  0  0  0
   34.1939    7.0430   25.4372 C   0  0  0  0  0  0  0  0  0  0  0  0
   34.5204    6.4060   24.2872 C   0  0  0  0  0  0  0  0  0  0  0  0
   35.9730    5.4668   23.9325 S   0  0  0  0  0  0  0  0  0  0  0  0
   35.2874    5.1053   22.2599 C   0  0  0  0  0  0  0  0  0  0  0  0
   35.8358    4.3667   21.3274 N   0  0  0  0  0  0  0  0  0  0  0  0
   34.1304    5.7638   22.0746 N   0  0  0  0  0  0  0  0  0  0  0  0
   33.6791    6.4329   23.1880 C   0  0  0  0  0  0  0  0  0  0  0  0
   32.4950    7.0720   23.3014 C   0  0  0  0  0  0  0  0  0  0  0  0
   32.0999    7.7305   24.4731 C   0  0  0  0  0  0  0  0  0  0  0  0
   36.6848    3.9006   21.5043 H   0  0  0  0  0  0  0  0  0  0  0  0
   35.3990    4.2777   20.4496 H   0  0  0  0  0  0  0  0  0  0  0  0
   30.9646    8.4801   24.4806 N   0  0  0  0  0  0  0  0  0  0  0  0
   30.8068    9.7855   24.0775 C   0  0  0  0  0  0  0  0  0  0  0  0
   31.7023   10.5031   23.6722 O   0  0  0  0  0  0  0  0  0  0  0  0
   29.3890   10.3356   24.2413 C   0  0  0  0  0  0  0  0  0  0  0  0
   30.1548    8.0322   24.8167 H   0  0  0  0  0  0  0  0  0  0  0  0
  1  2  1  0  0  0
  2  3  1  0  0  0
  2 11  2  0  0  0
  3  4  2  0  0  0
  4  5  1  0  0  0
  4  9  1  0  0  0
  5  6  1  0  0  0
  6  7  1  0  0  0
  6  8  2  0  0  0
  8  9  1  0  0  0
  9 10  2  0  0  0
 10 11  1  0  0  0
 11 14  1  0  0  0
 14 15  1  0  0  0
 15 16  2  0  0  0
 15 17  1  0  0  0
  7 12  1  0  0  0
  7 13  1  0  0  0
 14 18  1  0  0  0
M  END
> <minimizedAffinity>
-5.87809

$$$$
