3RT8_CWD_A_401
  RCSB PDB12061710373D
Coordinates from PDB:3RT8:A:401 Model:1 without hydrogens
 15 15  0  0  0  0            999 V2000
  -19.9490   -1.1050  -19.3070   N 0  0  0  0  0  0  0  0  0  0  0  0
  -18.7100   -0.6520  -19.5120   C 0  0  0  0  0  0  0  0  0  0  0  0
  -17.8150   -1.4220  -19.6540   O 0  0  0  0  0  0  0  0  0  0  0  0
  -18.4560    0.7020  -19.5210   N 0  0  0  0  0  0  0  0  0  0  0  0
  -19.4780    1.5920  -19.3260   C 0  0  0  0  0  0  0  0  0  0  0  0
  -19.2000    2.9510  -19.3700   O 0  0  0  0  0  0  0  0  0  0  0  0
  -20.7740    1.1330  -19.1140   C 0  0  0  0  0  0  0  0  0  0  0  0
  -22.1790    2.2360  -18.8900  Cl 0  0  0  0  0  0  0  0  0  0  0  0
  -21.0010   -0.1940  -19.1070   C 0  0  0  0  0  0  0  0  0  0  0  0
  -20.1870   -2.5310  -19.3610   C 0  0  0  0  0  0  0  0  0  0  0  0
  -20.1940   -3.1210  -20.7740   C 0  0  0  0  0  0  0  0  0  0  0  0
  -21.3320   -2.7120  -21.5770   N 0  0  0  0  0  0  0  0  0  0  0  0
  -19.7830   -4.5920  -20.8810   C 0  0  0  0  0  0  0  0  0  0  0  0
  -20.5380   -5.3750  -21.3560   O 0  0  0  0  0  0  0  0  0  0  0  0
  -18.6850   -5.0160  -20.1220   O 0  0  0  0  0  0  0  0  0  0  0  0
  1  2  1  0  0  0  0
  1  9  1  0  0  0  0
  1 10  1  0  0  0  0
  2  3  2  0  0  0  0
  2  4  1  0  0  0  0
  4  5  1  0  0  0  0
  5  6  2  0  0  0  0
  5  7  1  0  0  0  0
  7  8  1  0  0  0  0
  7  9  2  0  0  0  0
 10 11  1  0  0  0  0
 11 12  1  0  0  0  0
 11 13  1  0  0  0  0
 13 14  2  0  0  0  0
 13 15  1  0  0  0  0
A    1
N1
A    2
C2
A    3
O2
A    4
N3
A    5
C4
A    6
O4
A    7
C5
A    8
CL5
A    9
C6
A   10
C7
A   11
C8
A   12
N8
A   13
C9
A   14
O91
A   15
O92
M  END
>  <InstanceId>
3RT8_CWD_A_401

>  <ChemCompId>
CWD

>  <PdbId>
3RT8

>  <ChainId>
A

>  <ResidueNumber>
401

>  <InsertionCode>


>  <Model>
1

>  <AltIds>


>  <MissingHeavyAtoms>
0

>  <ObservedFormula>
C7 N3 O4 Cl

>  <Name>
3-(5-chloro-2,4-dioxo-3,4-dihydropyrimidin-1(2H)-yl)-L-alanine

>  <SystematicName>
(2S)-2-azanyl-3-[5-chloranyl-2,4-bis(oxidanylidene)pyrimidin-1-yl]propanoic acid

>  <Synonyms>
chlorowillardiine

>  <Type>
L-peptide linking

>  <Formula>
C7 H8 Cl N3 O4

>  <MolecularWeight>
233.609

>  <ModifiedDate>
2011-06-04

>  <Parent>
ALA

>  <OneLetterCode>


>  <SubcomponentList>


>  <AmbiguousFlag>
N

>  <InChI>
InChI=1S/C7H8ClN3O4/c8-3-1-11(2-4(9)6(13)14)7(15)10-5(3)12/h1,4H,2,9H2,(H,13,14)(H,10,12,15)/t4-/m0/s1

>  <InChIKey>
HEHLSRRDKJVHOM-BYPYZUCNSA-N

>  <SMILES>
C1=C(C(=O)NC(=O)N1C[C@@H](C(=O)O)N)Cl

$$$$
