5GMN_949_A_302
  RCSB PDB12061717523D
Coordinates from PDB:5GMN:A:302 Model:1 without hydrogens
 25 27  0  0  0  0            999 V2000
    9.0460    1.1530   10.6980   C 0  0  0  0  0  0  0  0  0  0  0  0
   10.4040    1.2510   10.4170   C 0  0  0  0  0  0  0  0  0  0  0  0
    9.4490    1.9170   12.9630   C 0  0  0  0  0  0  0  0  0  0  0  0
   11.2760    1.7010   11.4080   C 0  0  0  0  0  0  0  0  0  0  0  0
    8.4490    3.1110   16.3710   C 0  0  0  0  0  0  0  0  0  0  0  0
    7.1570    3.3010   15.6340   C 0  0  0  0  0  0  0  0  0  0  0  0
   11.6150    3.5100   16.2930   C 0  0  0  0  0  0  0  0  0  0  0  0
   12.9470    3.3890   16.6780   C 0  0  0  0  0  0  0  0  0  0  0  0
   13.5550    2.1370   16.6450   C 0  0  0  0  0  0  0  0  0  0  0  0
   12.8370    1.0150   16.2350   C 0  0  0  0  0  0  0  0  0  0  0  0
   11.5060    1.1420   15.8470   C 0  0  0  0  0  0  0  0  0  0  0  0
   10.8930    2.3870   15.8830   C 0  0  0  0  0  0  0  0  0  0  0  0
    8.5690    1.4960   11.9640   C 0  0  0  0  0  0  0  0  0  0  0  0
    8.8740    2.3240   14.2940   C 0  0  0  0  0  0  0  0  0  0  0  0
    9.4570    2.5520   15.4770   C 0  0  0  0  0  0  0  0  0  0  0  0
   10.8020    2.0370   12.6730   C 0  0  0  0  0  0  0  0  0  0  0  0
    6.0240    2.5470   16.3160   C 0  0  0  0  0  0  0  0  0  0  0  0
    6.8510    4.7890   15.5160   C 0  0  0  0  0  0  0  0  0  0  0  0
   13.6440    4.4790   17.0790   F 0  0  0  0  0  0  0  0  0  0  0  0
    8.6180    3.3980   17.5500   O 0  0  0  0  0  0  0  0  0  0  0  0
    7.4790    2.7060   14.3640   O 0  0  0  0  0  0  0  0  0  0  0  0
   10.9750    0.9040    8.9550   S 0  0  0  0  0  0  0  0  0  0  0  0
   10.5290    1.9580    8.0950   O 0  0  0  0  0  0  0  0  0  0  0  0
   10.4330   -0.4960    8.4050   N 0  0  0  0  0  0  0  0  0  0  0  0
   12.4140    0.8840    8.9920   O 0  0  0  0  0  0  0  0  0  0  0  0
 10  9  2  0  0  0  0
 10 11  1  0  0  0  0
  9  8  1  0  0  0  0
 20  5  2  0  0  0  0
 11 12  2  0  0  0  0
  8 19  1  0  0  0  0
  8  7  2  0  0  0  0
 12  7  1  0  0  0  0
 12 15  1  0  0  0  0
  5 15  1  0  0  0  0
  5  6  1  0  0  0  0
 18  6  1  0  0  0  0
 15 14  2  0  0  0  0
  6 17  1  0  0  0  0
  6 21  1  0  0  0  0
 14 21  1  0  0  0  0
 14  3  1  0  0  0  0
  3 13  2  0  0  0  0
  3 16  1  0  0  0  0
 13  1  1  0  0  0  0
 16  4  2  0  0  0  0
  1  2  2  0  0  0  0
  4  2  1  0  0  0  0
  2 22  1  0  0  0  0
 24 22  1  0  0  0  0
 22 23  2  0  0  0  0
 22 25  2  0  0  0  0
A    1
C15
A    2
C16
A    3
C13
A    4
C17
A    5
C11
A    6
C10
A    7
C2
A    8
C1
A    9
C6
A   10
C5
A   11
C4
A   12
C3
A   13
C14
A   14
C8
A   15
C7
A   16
C18
A   17
C24
A   18
C23
A   19
F25
A   20
O12
A   21
O9
A   22
S19
A   23
O21
A   24
N22
A   25
O20
M  END
>  <InstanceId>
5GMN_949_A_302

>  <ChemCompId>
949

>  <PdbId>
5GMN

>  <ChainId>
A

>  <ResidueNumber>
302

>  <InsertionCode>


>  <Model>
1

>  <AltIds>


>  <MissingHeavyAtoms>
0

>  <ObservedFormula>
C18 N O4 S F

>  <Name>
4-[3-(3-fluorophenyl)-5,5-dimethyl-4-oxidanylidene-furan-2-yl]benzenesulfonamide

>  <SystematicName>
4-[3-(3-fluorophenyl)-5,5-dimethyl-4-oxidanylidene-furan-2-yl]benzenesulfonamide

>  <Synonyms>
Polmacoxib

>  <Type>
NON-POLYMER

>  <Formula>
C18 H16 F N O4 S

>  <MolecularWeight>
361.387

>  <ModifiedDate>
2017-05-19

>  <Parent>


>  <OneLetterCode>


>  <SubcomponentList>


>  <AmbiguousFlag>
N

>  <InChI>
InChI=1S/C18H16FNO4S/c1-18(2)17(21)15(12-4-3-5-13(19)10-12)16(24-18)11-6-8-14(9-7-11)25(20,22)23/h3-10H,1-2H3,(H2,20,22,23)

>  <InChIKey>
IJWPAFMIFNSIGD-UHFFFAOYSA-N

>  <SMILES>
CC1(C(=O)C(=C(O1)c2ccc(cc2)S(=O)(=O)N)c3cccc(c3)F)C

$$$$
