4AZ5_NGW_A_1615


 18 19  0  0  0  0  0  0  0  0999 V2000
   14.2329   28.6945   23.3528 O   0  0  0  0  0  0  0  0  0  0  0  0
   15.3972   29.3732   23.8091 C   0  0  0  0  0  0  0  0  0  0  0  0
   15.4005   29.3841   25.3320 C   0  0  0  0  0  0  0  0  0  0  0  0
   16.6484   28.6006   23.2986 C   0  0  0  0  0  0  0  0  0  0  0  0
   14.3182   30.2024   25.8028 O   0  0  0  0  0  0  0  0  0  0  0  0
   16.7091   30.0498   25.7894 C   0  0  0  0  0  0  0  0  0  0  0  0
   16.9684   29.8693   27.2327 N   0  0  0  0  0  0  0  0  0  0  0  0
   18.0030   29.4916   25.1089 C   0  0  0  0  0  0  0  0  0  0  0  0
   17.3346   28.4664   27.4870 C   0  0  0  0  0  0  0  0  0  0  0  0
   18.0489   28.2828   28.8264 C   0  0  0  0  0  0  0  0  0  0  0  0
   18.2832   27.9364   26.0484 S   0  0  0  0  0  0  0  0  0  0  0  0
   17.8507   29.2572   23.7098 O   0  0  0  0  0  0  0  0  0  0  0  0
   13.4427   29.1638   23.6628 H   0  0  0  0  0  0  0  0  0  0  0  0
   14.4181   31.1023   25.4548 H   0  0  0  0  0  0  0  0  0  0  0  0
   16.1288   30.1041   27.7621 H   0  0  0  0  0  0  0  0  0  0  0  0
   16.7873   28.4427   21.7658 C   0  0  0  0  0  0  0  0  0  0  0  0
   15.6906   29.1006   21.1184 O   0  0  0  0  0  0  0  0  0  0  0  0
   14.8561   28.7022   21.4115 H   0  0  0  0  0  0  0  0  0  0  0  0
  1  2  1  0  0  0
  2  3  1  0  0  0
  2  4  1  0  0  0
  3  5  1  0  0  0
  3  6  1  0  0  0
  6  7  1  0  0  0
  6  8  1  0  0  0
  7  9  1  0  0  0
  9 10  1  0  0  0
  9 11  1  0  0  0
 11  8  1  0  0  0
  8 12  1  0  0  0
 12  4  1  0  0  0
  4 16  1  0  0  0
 17 16  1  0  0  0
  1 13  1  0  0  0
  5 14  1  0  0  0
  7 15  1  0  0  0
 17 18  1  0  0  0
M  END
> <minimizedAffinity>
-7.12990

$$$$
4AZ5_NGW_A_1615


 18 19  0  0  0  0  0  0  0  0999 V2000
   14.4283   30.1817   26.3413 O   0  0  0  0  0  0  0  0  0  0  0  0
   15.5538   29.4543   25.8634 C   0  0  0  0  0  0  0  0  0  0  0  0
   15.1935   28.7970   24.5377 C   0  0  0  0  0  0  0  0  0  0  0  0
   16.7259   30.4537   25.6390 C   0  0  0  0  0  0  0  0  0  0  0  0
   14.2004   27.7846   24.7647 O   0  0  0  0  0  0  0  0  0  0  0  0
   16.4540   28.0906   24.0112 C   0  0  0  0  0  0  0  0  0  0  0  0
   16.3214   27.6573   22.6050 N   0  0  0  0  0  0  0  0  0  0  0  0
   17.7472   28.9718   24.0060 C   0  0  0  0  0  0  0  0  0  0  0  0
   16.3500   28.8401   21.7292 C   0  0  0  0  0  0  0  0  0  0  0  0
   16.6753   28.4847   20.2781 C   0  0  0  0  0  0  0  0  0  0  0  0
   17.5012   29.9948   22.4984 S   0  0  0  0  0  0  0  0  0  0  0  0
   17.8945   29.7680   25.1807 O   0  0  0  0  0  0  0  0  0  0  0  0
   13.6875   29.5725   26.4866 H   0  0  0  0  0  0  0  0  0  0  0  0
   14.5456   27.1273   25.3889 H   0  0  0  0  0  0  0  0  0  0  0  0
   15.4376   27.1632   22.4821 H   0  0  0  0  0  0  0  0  0  0  0  0
   17.1969   31.2577   26.8742 C   0  0  0  0  0  0  0  0  0  0  0  0
   17.1266   30.4249   28.0388 O   0  0  0  0  0  0  0  0  0  0  0  0
   16.2116   30.1318   28.1719 H   0  0  0  0  0  0  0  0  0  0  0  0
  1  2  1  0  0  0
  2  3  1  0  0  0
  2  4  1  0  0  0
  3  5  1  0  0  0
  3  6  1  0  0  0
  6  7  1  0  0  0
  6  8  1  0  0  0
  7  9  1  0  0  0
  9 10  1  0  0  0
  9 11  1  0  0  0
 11  8  1  0  0  0
  8 12  1  0  0  0
 12  4  1  0  0  0
  4 16  1  0  0  0
 17 16  1  0  0  0
  1 13  1  0  0  0
  5 14  1  0  0  0
  7 15  1  0  0  0
 17 18  1  0  0  0
M  END
> <minimizedAffinity>
-7.02412

$$$$
4AZ5_NGW_A_1615


 18 19  0  0  0  0  0  0  0  0999 V2000
   17.2780   26.0376   27.5419 O   0  0  0  0  0  0  0  0  0  0  0  0
   16.9634   27.3749   27.1720 C   0  0  0  0  0  0  0  0  0  0  0  0
   17.7194   27.7283   25.8981 C   0  0  0  0  0  0  0  0  0  0  0  0
   15.4330   27.4633   26.9019 C   0  0  0  0  0  0  0  0  0  0  0  0
   19.1274   27.7708   26.1784 O   0  0  0  0  0  0  0  0  0  0  0  0
   17.2934   29.1464   25.4828 C   0  0  0  0  0  0  0  0  0  0  0  0
   17.7331   29.4987   24.1170 N   0  0  0  0  0  0  0  0  0  0  0  0
   15.7470   29.3835   25.4458 C   0  0  0  0  0  0  0  0  0  0  0  0
   16.9386   28.7355   23.1407 C   0  0  0  0  0  0  0  0  0  0  0  0
   16.9912   29.3460   21.7399 C   0  0  0  0  0  0  0  0  0  0  0  0
   15.2840   28.6071   23.8450 S   0  0  0  0  0  0  0  0  0  0  0  0
   15.0579   28.7977   26.5493 O   0  0  0  0  0  0  0  0  0  0  0  0
   18.2298   25.9651   27.7140 H   0  0  0  0  0  0  0  0  0  0  0  0
   19.2996   28.4278   26.8709 H   0  0  0  0  0  0  0  0  0  0  0  0
   18.7208   29.2693   24.0068 H   0  0  0  0  0  0  0  0  0  0  0  0
   14.4993   27.0864   28.0766 C   0  0  0  0  0  0  0  0  0  0  0  0
   15.2241   27.1812   29.3096 O   0  0  0  0  0  0  0  0  0  0  0  0
   15.9800   26.5736   29.2879 H   0  0  0  0  0  0  0  0  0  0  0  0
  1  2  1  0  0  0
  2  3  1  0  0  0
  2  4  1  0  0  0
  3  5  1  0  0  0
  3  6  1  0  0  0
  6  7  1  0  0  0
  6  8  1  0  0  0
  7  9  1  0  0  0
  9 10  1  0  0  0
  9 11  1  0  0  0
 11  8  1  0  0  0
  8 12  1  0  0  0
 12  4  1  0  0  0
  4 16  1  0  0  0
 17 16  1  0  0  0
  1 13  1  0  0  0
  5 14  1  0  0  0
  7 15  1  0  0  0
 17 18  1  0  0  0
M  END
> <minimizedAffinity>
-6.15524

$$$$
4AZ5_NGW_A_1615


 18 19  0  0  0  0  0  0  0  0999 V2000
   14.4591   27.6951   25.5636 O   0  0  0  0  0  0  0  0  0  0  0  0
   15.1942   27.8547   26.7712 C   0  0  0  0  0  0  0  0  0  0  0  0
   15.7858   26.5102   27.1735 C   0  0  0  0  0  0  0  0  0  0  0  0
   16.3483   28.8670   26.5142 C   0  0  0  0  0  0  0  0  0  0  0  0
   14.7235   25.6131   27.5331 O   0  0  0  0  0  0  0  0  0  0  0  0
   16.6392   26.7357   28.4328 C   0  0  0  0  0  0  0  0  0  0  0  0
   17.4933   25.5755   28.7601 N   0  0  0  0  0  0  0  0  0  0  0  0
   17.6521   27.9246   28.3357 C   0  0  0  0  0  0  0  0  0  0  0  0
   18.5802   25.4804   27.7718 C   0  0  0  0  0  0  0  0  0  0  0  0
   19.7463   24.6241   28.2666 C   0  0  0  0  0  0  0  0  0  0  0  0
   19.0167   27.1791   27.3547 S   0  0  0  0  0  0  0  0  0  0  0  0
   17.1063   29.0836   27.7077 O   0  0  0  0  0  0  0  0  0  0  0  0
   13.7347   27.0661   25.7067 H   0  0  0  0  0  0  0  0  0  0  0  0
   14.2124   25.9937   28.2644 H   0  0  0  0  0  0  0  0  0  0  0  0
   16.9344   24.7226   28.7355 H   0  0  0  0  0  0  0  0  0  0  0  0
   15.9365   30.2823   26.0439 C   0  0  0  0  0  0  0  0  0  0  0  0
   14.5068   30.3668   25.9852 O   0  0  0  0  0  0  0  0  0  0  0  0
   14.1693   29.7060   25.3604 H   0  0  0  0  0  0  0  0  0  0  0  0
  1  2  1  0  0  0
  2  3  1  0  0  0
  2  4  1  0  0  0
  3  5  1  0  0  0
  3  6  1  0  0  0
  6  7  1  0  0  0
  6  8  1  0  0  0
  7  9  1  0  0  0
  9 10  1  0  0  0
  9 11  1  0  0  0
 11  8  1  0  0  0
  8 12  1  0  0  0
 12  4  1  0  0  0
  4 16  1  0  0  0
 17 16  1  0  0  0
  1 13  1  0  0  0
  5 14  1  0  0  0
  7 15  1  0  0  0
 17 18  1  0  0  0
M  END
> <minimizedAffinity>
-5.77060

$$$$
4AZ5_NGW_A_1615


 18 19  0  0  0  0  0  0  0  0999 V2000
   14.5818   30.7390   25.8604 O   0  0  0  0  0  0  0  0  0  0  0  0
   15.7430   29.9355   25.6870 C   0  0  0  0  0  0  0  0  0  0  0  0
   16.4466   29.7839   27.0292 C   0  0  0  0  0  0  0  0  0  0  0  0
   15.2989   28.5328   25.1790 C   0  0  0  0  0  0  0  0  0  0  0  0
   16.9677   31.0582   27.4382 O   0  0  0  0  0  0  0  0  0  0  0  0
   17.6466   28.8448   26.8217 C   0  0  0  0  0  0  0  0  0  0  0  0
   18.2432   28.3895   28.0944 N   0  0  0  0  0  0  0  0  0  0  0  0
   17.3160   27.5122   26.0710 C   0  0  0  0  0  0  0  0  0  0  0  0
   17.3283   27.4370   28.7445 C   0  0  0  0  0  0  0  0  0  0  0  0
   18.0293   26.5819   29.8005 C   0  0  0  0  0  0  0  0  0  0  0  0
   16.5586   26.5032   27.4082 S   0  0  0  0  0  0  0  0  0  0  0  0
   16.4343   27.6900   24.9635 O   0  0  0  0  0  0  0  0  0  0  0  0
   14.8414   31.6183   26.1773 H   0  0  0  0  0  0  0  0  0  0  0  0
   17.5839   31.3867   26.7650 H   0  0  0  0  0  0  0  0  0  0  0  0
   18.3929   29.1912   28.7071 H   0  0  0  0  0  0  0  0  0  0  0  0
   14.5180   28.4948   23.8439 C   0  0  0  0  0  0  0  0  0  0  0  0
   13.2579   29.1575   24.0109 O   0  0  0  0  0  0  0  0  0  0  0  0
   12.7447   28.7074   24.7000 H   0  0  0  0  0  0  0  0  0  0  0  0
  1  2  1  0  0  0
  2  3  1  0  0  0
  2  4  1  0  0  0
  3  5  1  0  0  0
  3  6  1  0  0  0
  6  7  1  0  0  0
  6  8  1  0  0  0
  7  9  1  0  0  0
  9 10  1  0  0  0
  9 11  1  0  0  0
 11  8  1  0  0  0
  8 12  1  0  0  0
 12  4  1  0  0  0
  4 16  1  0  0  0
 17 16  1  0  0  0
  1 13  1  0  0  0
  5 14  1  0  0  0
  7 15  1  0  0  0
 17 18  1  0  0  0
M  END
> <minimizedAffinity>
-5.43019

$$$$
4AZ5_NGW_A_1615


 18 19  0  0  0  0  0  0  0  0999 V2000
   14.5201   27.3005   26.0499 O   0  0  0  0  0  0  0  0  0  0  0  0
   15.7125   27.9288   26.5054 C   0  0  0  0  0  0  0  0  0  0  0  0
   16.2675   27.1434   27.6862 C   0  0  0  0  0  0  0  0  0  0  0  0
   16.7503   27.9136   25.3454 C   0  0  0  0  0  0  0  0  0  0  0  0
   15.3684   27.2625   28.7999 O   0  0  0  0  0  0  0  0  0  0  0  0
   17.5954   27.8002   28.0988 C   0  0  0  0  0  0  0  0  0  0  0  0
   18.3744   26.9717   29.0420 N   0  0  0  0  0  0  0  0  0  0  0  0
   18.5941   28.0585   26.9220 C   0  0  0  0  0  0  0  0  0  0  0  0
   18.9185   25.8058   28.3268 C   0  0  0  0  0  0  0  0  0  0  0  0
   20.0824   25.1535   29.0735 C   0  0  0  0  0  0  0  0  0  0  0  0
   19.3191   26.3883   26.6683 S   0  0  0  0  0  0  0  0  0  0  0  0
   17.9635   28.5581   25.7437 O   0  0  0  0  0  0  0  0  0  0  0  0
   13.8616   27.3016   26.7621 H   0  0  0  0  0  0  0  0  0  0  0  0
   15.2632   28.1985   29.0317 H   0  0  0  0  0  0  0  0  0  0  0  0
   17.7684   26.6553   29.7989 H   0  0  0  0  0  0  0  0  0  0  0  0
   16.3354   28.6243   24.0353 C   0  0  0  0  0  0  0  0  0  0  0  0
   15.2660   27.8968   23.4175 O   0  0  0  0  0  0  0  0  0  0  0  0
   15.5616   26.9947   23.2179 H   0  0  0  0  0  0  0  0  0  0  0  0
  1  2  1  0  0  0
  2  3  1  0  0  0
  2  4  1  0  0  0
  3  5  1  0  0  0
  3  6  1  0  0  0
  6  7  1  0  0  0
  6  8  1  0  0  0
  7  9  1  0  0  0
  9 10  1  0  0  0
  9 11  1  0  0  0
 11  8  1  0  0  0
  8 12  1  0  0  0
 12  4  1  0  0  0
  4 16  1  0  0  0
 17 16  1  0  0  0
  1 13  1  0  0  0
  5 14  1  0  0  0
  7 15  1  0  0  0
 17 18  1  0  0  0
M  END
> <minimizedAffinity>
-5.00210

$$$$
4AZ5_NGW_A_1615


 18 19  0  0  0  0  0  0  0  0999 V2000
   15.3809   27.0001   29.9925 O   0  0  0  0  0  0  0  0  0  0  0  0
   16.3860   27.0165   28.9857 C   0  0  0  0  0  0  0  0  0  0  0  0
   15.7199   27.1379   27.6215 C   0  0  0  0  0  0  0  0  0  0  0  0
   17.2994   28.2544   29.2229 C   0  0  0  0  0  0  0  0  0  0  0  0
   14.9778   25.9392   27.3476 O   0  0  0  0  0  0  0  0  0  0  0  0
   16.8348   27.2360   26.5668 C   0  0  0  0  0  0  0  0  0  0  0  0
   16.3311   27.6417   25.2384 N   0  0  0  0  0  0  0  0  0  0  0  0
   17.9444   28.2940   26.8801 C   0  0  0  0  0  0  0  0  0  0  0  0
   15.9427   29.0610   25.2807 C   0  0  0  0  0  0  0  0  0  0  0  0
   15.8477   29.6823   23.8869 C   0  0  0  0  0  0  0  0  0  0  0  0
   17.1226   29.8618   26.3838 S   0  0  0  0  0  0  0  0  0  0  0  0
   18.3459   28.3048   28.2492 O   0  0  0  0  0  0  0  0  0  0  0  0
   14.8020   26.2334   29.8590 H   0  0  0  0  0  0  0  0  0  0  0  0
   15.5766   25.1763   27.3685 H   0  0  0  0  0  0  0  0  0  0  0  0
   15.5206   27.0734   24.9927 H   0  0  0  0  0  0  0  0  0  0  0  0
   18.0239   28.3294   30.5879 C   0  0  0  0  0  0  0  0  0  0  0  0
   17.1641   28.9549   31.5491 O   0  0  0  0  0  0  0  0  0  0  0  0
   16.9421   29.8505   31.2498 H   0  0  0  0  0  0  0  0  0  0  0  0
  1  2  1  0  0  0
  2  3  1  0  0  0
  2  4  1  0  0  0
  3  5  1  0  0  0
  3  6  1  0  0  0
  6  7  1  0  0  0
  6  8  1  0  0  0
  7  9  1  0  0  0
  9 10  1  0  0  0
  9 11  1  0  0  0
 11  8  1  0  0  0
  8 12  1  0  0  0
 12  4  1  0  0  0
  4 16  1  0  0  0
 17 16  1  0  0  0
  1 13  1  0  0  0
  5 14  1  0  0  0
  7 15  1  0  0  0
 17 18  1  0  0  0
M  END
> <minimizedAffinity>
-4.92792

$$$$
4AZ5_NGW_A_1615


 18 19  0  0  0  0  0  0  0  0999 V2000
   16.0045   29.1442   26.7496 O   0  0  0  0  0  0  0  0  0  0  0  0
   16.6875   27.9117   26.5531 C   0  0  0  0  0  0  0  0  0  0  0  0
   18.1887   28.1620   26.6084 C   0  0  0  0  0  0  0  0  0  0  0  0
   16.2866   26.9391   27.7003 C   0  0  0  0  0  0  0  0  0  0  0  0
   18.5793   28.9562   25.4773 O   0  0  0  0  0  0  0  0  0  0  0  0
   18.8923   26.8010   26.4758 C   0  0  0  0  0  0  0  0  0  0  0  0
   20.3326   26.8680   26.7980 N   0  0  0  0  0  0  0  0  0  0  0  0
   18.3514   25.6859   27.4312 C   0  0  0  0  0  0  0  0  0  0  0  0
   20.4958   27.0595   28.2483 C   0  0  0  0  0  0  0  0  0  0  0  0
   21.8985   26.6904   28.7321 C   0  0  0  0  0  0  0  0  0  0  0  0
   19.1619   26.1253   29.0217 S   0  0  0  0  0  0  0  0  0  0  0  0
   16.9285   25.6715   27.5361 O   0  0  0  0  0  0  0  0  0  0  0  0
   16.2436   29.7629   26.0418 H   0  0  0  0  0  0  0  0  0  0  0  0
   18.3404   28.4932   24.6592 H   0  0  0  0  0  0  0  0  0  0  0  0
   20.7574   27.6506   26.3006 H   0  0  0  0  0  0  0  0  0  0  0  0
   14.7813   26.6069   27.8327 C   0  0  0  0  0  0  0  0  0  0  0  0
   14.0501   27.8110   28.0976 O   0  0  0  0  0  0  0  0  0  0  0  0
   14.3688   28.2077   28.9233 H   0  0  0  0  0  0  0  0  0  0  0  0
  1  2  1  0  0  0
  2  3  1  0  0  0
  2  4  1  0  0  0
  3  5  1  0  0  0
  3  6  1  0  0  0
  6  7  1  0  0  0
  6  8  1  0  0  0
  7  9  1  0  0  0
  9 10  1  0  0  0
  9 11  1  0  0  0
 11  8  1  0  0  0
  8 12  1  0  0  0
 12  4  1  0  0  0
  4 16  1  0  0  0
 17 16  1  0  0  0
  1 13  1  0  0  0
  5 14  1  0  0  0
  7 15  1  0  0  0
 17 18  1  0  0  0
M  END
> <minimizedAffinity>
-4.88333

$$$$
4AZ5_NGW_A_1615


 18 19  0  0  0  0  0  0  0  0999 V2000
   18.0829   27.9588   27.1120 O   0  0  0  0  0  0  0  0  0  0  0  0
   16.8977   27.2100   26.8695 C   0  0  0  0  0  0  0  0  0  0  0  0
   16.7555   26.1433   27.9471 C   0  0  0  0  0  0  0  0  0  0  0  0
   15.6810   28.1781   26.9418 C   0  0  0  0  0  0  0  0  0  0  0  0
   17.8087   25.1779   27.8009 O   0  0  0  0  0  0  0  0  0  0  0  0
   15.4262   25.4097   27.7026 C   0  0  0  0  0  0  0  0  0  0  0  0
   15.0319   24.5476   28.8359 N   0  0  0  0  0  0  0  0  0  0  0  0
   14.1874   26.3443   27.5009 C   0  0  0  0  0  0  0  0  0  0  0  0
   14.6118   25.3940   29.9647 C   0  0  0  0  0  0  0  0  0  0  0  0
   13.7741   24.6280   30.9890 C   0  0  0  0  0  0  0  0  0  0  0  0
   13.7868   26.8193   29.2311 S   0  0  0  0  0  0  0  0  0  0  0  0
   14.4615   27.4782   26.6794 O   0  0  0  0  0  0  0  0  0  0  0  0
   18.8520   27.3693   27.0704 H   0  0  0  0  0  0  0  0  0  0  0  0
   17.7617   24.7793   26.9178 H   0  0  0  0  0  0  0  0  0  0  0  0
   15.8248   23.9714   29.1182 H   0  0  0  0  0  0  0  0  0  0  0  0
   15.6791   29.3639   25.9479 C   0  0  0  0  0  0  0  0  0  0  0  0
   14.4467   30.0854   26.0707 O   0  0  0  0  0  0  0  0  0  0  0  0
   13.7043   29.4937   25.8714 H   0  0  0  0  0  0  0  0  0  0  0  0
  1  2  1  0  0  0
  2  3  1  0  0  0
  2  4  1  0  0  0
  3  5  1  0  0  0
  3  6  1  0  0  0
  6  7  1  0  0  0
  6  8  1  0  0  0
  7  9  1  0  0  0
  9 10  1  0  0  0
  9 11  1  0  0  0
 11  8  1  0  0  0
  8 12  1  0  0  0
 12  4  1  0  0  0
  4 16  1  0  0  0
 17 16  1  0  0  0
  1 13  1  0  0  0
  5 14  1  0  0  0
  7 15  1  0  0  0
 17 18  1  0  0  0
M  END
> <minimizedAffinity>
-4.81050

$$$$
4AZ5_NGW_A_1615


 18 19  0  0  0  0  0  0  0  0999 V2000
   18.1762   28.4252   24.9020 O   0  0  0  0  0  0  0  0  0  0  0  0
   17.6212   27.7593   26.0303 C   0  0  0  0  0  0  0  0  0  0  0  0
   18.7513   27.1726   26.8657 C   0  0  0  0  0  0  0  0  0  0  0  0
   16.8413   28.8027   26.8824 C   0  0  0  0  0  0  0  0  0  0  0  0
   19.3915   26.1211   26.1259 O   0  0  0  0  0  0  0  0  0  0  0  0
   18.1226   26.5344   28.1157 C   0  0  0  0  0  0  0  0  0  0  0  0
   19.1242   26.1822   29.1432 N   0  0  0  0  0  0  0  0  0  0  0  0
   17.1120   27.4500   28.8832 C   0  0  0  0  0  0  0  0  0  0  0  0
   19.6383   27.4156   29.7608 C   0  0  0  0  0  0  0  0  0  0  0  0
   20.3131   27.1567   31.1082 C   0  0  0  0  0  0  0  0  0  0  0  0
   18.2417   28.5540   29.8239 S   0  0  0  0  0  0  0  0  0  0  0  0
   16.2401   28.1785   28.0203 O   0  0  0  0  0  0  0  0  0  0  0  0
   18.6665   27.7879   24.3594 H   0  0  0  0  0  0  0  0  0  0  0  0
   18.7395   25.4375   25.9056 H   0  0  0  0  0  0  0  0  0  0  0  0
   19.8933   25.6718   28.7092 H   0  0  0  0  0  0  0  0  0  0  0  0
   15.6807   29.5443   26.1776 C   0  0  0  0  0  0  0  0  0  0  0  0
   14.4392   29.1801   26.7947 O   0  0  0  0  0  0  0  0  0  0  0  0
   14.3078   28.2222   26.7159 H   0  0  0  0  0  0  0  0  0  0  0  0
  1  2  1  0  0  0
  2  3  1  0  0  0
  2  4  1  0  0  0
  3  5  1  0  0  0
  3  6  1  0  0  0
  6  7  1  0  0  0
  6  8  1  0  0  0
  7  9  1  0  0  0
  9 10  1  0  0  0
  9 11  1  0  0  0
 11  8  1  0  0  0
  8 12  1  0  0  0
 12  4  1  0  0  0
  4 16  1  0  0  0
 17 16  1  0  0  0
  1 13  1  0  0  0
  5 14  1  0  0  0
  7 15  1  0  0  0
 17 18  1  0  0  0
M  END
> <minimizedAffinity>
-4.77532

$$$$
