3OCP_CMP_A_250


 26 29  0  0  0  0  0  0  0  0999 V2000
   -2.9549   33.9685   27.3561 P   0  0  0  0  0  0  0  0  0  0  0  0
   -1.7789   33.1215   27.5959 O   0  0  0  0  0  0  0  0  0  0  0  0
   -4.2940   33.1790   26.8299 O   0  0  0  0  0  0  0  0  0  0  0  0
   -3.4081   34.7027   28.6581 O   0  0  0  0  0  0  0  0  0  0  0  0
   -2.4478   35.6680   29.0735 C   0  0  0  0  0  0  0  0  0  0  0  0
   -2.2257   36.6045   27.9286 C   0  0  0  0  0  0  0  0  0  0  0  0
   -1.2207   37.6074   28.1753 O   0  0  0  0  0  0  0  0  0  0  0  0
   -1.7123   35.9436   26.6798 C   0  0  0  0  0  0  0  0  0  0  0  0
   -2.6800   35.0525   26.1582 O   0  0  0  0  0  0  0  0  0  0  0  0
   -1.4005   37.1707   25.8398 C   0  0  0  0  0  0  0  0  0  0  0  0
   -2.5909   37.7653   25.3331 O   0  0  0  0  0  0  0  0  0  0  0  0
   -0.7842   38.0819   26.9116 C   0  0  0  0  0  0  0  0  0  0  0  0
   -4.5462   32.5028   27.4780 H   0  0  0  0  0  0  0  0  0  0  0  0
   -3.1905   37.9660   26.0688 H   0  0  0  0  0  0  0  0  0  0  0  0
    0.6897   38.0012   26.8969 N   0  0  0  0  0  0  0  0  0  0  0  0
    1.4317   37.0822   27.5097 C   0  0  0  0  0  0  0  0  0  0  0  0
    2.7528   37.3666   27.2616 N   0  0  0  0  0  0  0  0  0  0  0  0
    2.7966   38.4874   26.4739 C   0  0  0  0  0  0  0  0  0  0  0  0
    3.9096   39.2431   25.9060 C   0  0  0  0  0  0  0  0  0  0  0  0
    5.2683   38.8183   26.1663 N   0  0  0  0  0  0  0  0  0  0  0  0
    3.6817   40.3027   25.1677 N   0  0  0  0  0  0  0  0  0  0  0  0
    2.3825   40.7067   24.9329 C   0  0  0  0  0  0  0  0  0  0  0  0
    1.3097   39.9832   25.4833 N   0  0  0  0  0  0  0  0  0  0  0  0
    1.5494   38.8888   26.2443 C   0  0  0  0  0  0  0  0  0  0  0  0
    5.4377   38.0226   26.7208 H   0  0  0  0  0  0  0  0  0  0  0  0
    6.0233   39.3251   25.7889 H   0  0  0  0  0  0  0  0  0  0  0  0
  1  2  2  0  0  0
  1  3  1  0  0  0
  1  4  1  0  0  0
  1  9  1  0  0  0
  4  5  1  0  0  0
  5  6  1  0  0  0
  6  7  1  0  0  0
  6  8  1  0  0  0
  7 12  1  0  0  0
  8  9  1  0  0  0
  8 10  1  0  0  0
 10 11  1  0  0  0
 10 12  1  0  0  0
 12 15  1  0  0  0
 15 16  1  0  0  0
 15 24  1  0  0  0
 16 17  2  0  0  0
 17 18  1  0  0  0
 18 19  1  0  0  0
 18 24  2  0  0  0
 19 20  1  0  0  0
 19 21  2  0  0  0
 21 22  1  0  0  0
 22 23  2  0  0  0
 23 24  1  0  0  0
  3 13  1  0  0  0
 11 14  1  0  0  0
 20 25  1  0  0  0
 20 26  1  0  0  0
M  END
> <minimizedAffinity>
-8.72217

$$$$
3OCP_CMP_A_250


 26 29  0  0  0  0  0  0  0  0999 V2000
    1.7291   41.6731   22.9083 P   0  0  0  0  0  0  0  0  0  0  0  0
    2.2364   42.0254   24.2411 O   0  0  0  0  0  0  0  0  0  0  0  0
    1.8937   42.8374   21.7634 O   0  0  0  0  0  0  0  0  0  0  0  0
    2.4695   40.4283   22.3234 O   0  0  0  0  0  0  0  0  0  0  0  0
    2.1663   39.2480   23.0593 C   0  0  0  0  0  0  0  0  0  0  0  0
    0.6792   39.0881   23.0624 C   0  0  0  0  0  0  0  0  0  0  0  0
    0.2099   37.9637   23.8320 O   0  0  0  0  0  0  0  0  0  0  0  0
   -0.0645   40.2334   23.6910 C   0  0  0  0  0  0  0  0  0  0  0  0
    0.1111   41.4139   22.9307 O   0  0  0  0  0  0  0  0  0  0  0  0
   -1.4680   39.6520   23.7230 C   0  0  0  0  0  0  0  0  0  0  0  0
   -2.0578   39.6560   22.4271 O   0  0  0  0  0  0  0  0  0  0  0  0
   -1.1526   38.2085   24.1421 C   0  0  0  0  0  0  0  0  0  0  0  0
    2.8311   43.0682   21.6694 H   0  0  0  0  0  0  0  0  0  0  0  0
   -1.4790   39.1855   21.8069 H   0  0  0  0  0  0  0  0  0  0  0  0
   -1.3109   38.0294   25.5988 N   0  0  0  0  0  0  0  0  0  0  0  0
   -0.9715   38.9077   26.5391 C   0  0  0  0  0  0  0  0  0  0  0  0
   -1.2672   38.3572   27.7628 N   0  0  0  0  0  0  0  0  0  0  0  0
   -1.8022   37.1147   27.5421 C   0  0  0  0  0  0  0  0  0  0  0  0
   -2.2922   36.0831   28.4520 C   0  0  0  0  0  0  0  0  0  0  0  0
   -2.2452   36.3093   29.8806 N   0  0  0  0  0  0  0  0  0  0  0  0
   -2.7685   34.9561   27.9798 N   0  0  0  0  0  0  0  0  0  0  0  0
   -2.8001   34.7445   26.6158 C   0  0  0  0  0  0  0  0  0  0  0  0
   -2.3239   35.7348   25.7384 N   0  0  0  0  0  0  0  0  0  0  0  0
   -1.8338   36.8977   26.2301 C   0  0  0  0  0  0  0  0  0  0  0  0
   -1.8873   37.1559   30.2334 H   0  0  0  0  0  0  0  0  0  0  0  0
   -2.5712   35.6167   30.4996 H   0  0  0  0  0  0  0  0  0  0  0  0
  1  2  2  0  0  0
  1  3  1  0  0  0
  1  4  1  0  0  0
  1  9  1  0  0  0
  4  5  1  0  0  0
  5  6  1  0  0  0
  6  7  1  0  0  0
  6  8  1  0  0  0
  7 12  1  0  0  0
  8  9  1  0  0  0
  8 10  1  0  0  0
 10 11  1  0  0  0
 10 12  1  0  0  0
 12 15  1  0  0  0
 15 16  1  0  0  0
 15 24  1  0  0  0
 16 17  2  0  0  0
 17 18  1  0  0  0
 18 19  1  0  0  0
 18 24  2  0  0  0
 19 20  1  0  0  0
 19 21  2  0  0  0
 21 22  1  0  0  0
 22 23  2  0  0  0
 23 24  1  0  0  0
  3 13  1  0  0  0
 11 14  1  0  0  0
 20 25  1  0  0  0
 20 26  1  0  0  0
M  END
> <minimizedAffinity>
-7.33233

$$$$
3OCP_CMP_A_250


 26 29  0  0  0  0  0  0  0  0999 V2000
   -2.1551   35.6964   26.6456 P   0  0  0  0  0  0  0  0  0  0  0  0
   -0.9736   35.0987   27.2819 O   0  0  0  0  0  0  0  0  0  0  0  0
   -3.3108   34.6325   26.1703 O   0  0  0  0  0  0  0  0  0  0  0  0
   -2.8893   36.6815   27.6101 O   0  0  0  0  0  0  0  0  0  0  0  0
   -2.1002   37.8362   27.8757 C   0  0  0  0  0  0  0  0  0  0  0  0
   -1.7585   38.4611   26.5604 C   0  0  0  0  0  0  0  0  0  0  0  0
   -0.8989   39.6133   26.6621 O   0  0  0  0  0  0  0  0  0  0  0  0
   -0.9806   37.5675   25.6349 C   0  0  0  0  0  0  0  0  0  0  0  0
   -1.7645   36.4552   25.2467 O   0  0  0  0  0  0  0  0  0  0  0  0
   -0.6285   38.5617   24.5411 C   0  0  0  0  0  0  0  0  0  0  0  0
   -1.7563   38.8462   23.7199 O   0  0  0  0  0  0  0  0  0  0  0  0
   -0.2878   39.7924   25.3944 C   0  0  0  0  0  0  0  0  0  0  0  0
   -3.6163   34.1229   26.9370 H   0  0  0  0  0  0  0  0  0  0  0  0
   -2.4904   39.1541   24.2741 H   0  0  0  0  0  0  0  0  0  0  0  0
    1.1672   39.8993   25.6191 N   0  0  0  0  0  0  0  0  0  0  0  0
    1.8148   39.5773   26.7361 C   0  0  0  0  0  0  0  0  0  0  0  0
    3.1506   39.8352   26.5435 N   0  0  0  0  0  0  0  0  0  0  0  0
    3.3014   40.3222   25.2711 C   0  0  0  0  0  0  0  0  0  0  0  0
    4.4756   40.7634   24.5236 C   0  0  0  0  0  0  0  0  0  0  0  0
    5.7785   40.7268   25.1525 N   0  0  0  0  0  0  0  0  0  0  0  0
    4.3521   41.1942   23.2911 N   0  0  0  0  0  0  0  0  0  0  0  0
    3.1038   41.2353   22.7023 C   0  0  0  0  0  0  0  0  0  0  0  0
    1.9714   40.8157   23.4226 N   0  0  0  0  0  0  0  0  0  0  0  0
    2.1036   40.3705   24.6948 C   0  0  0  0  0  0  0  0  0  0  0  0
    5.8695   40.4031   26.0778 H   0  0  0  0  0  0  0  0  0  0  0  0
    6.5738   41.0256   24.6551 H   0  0  0  0  0  0  0  0  0  0  0  0
  1  2  2  0  0  0
  1  3  1  0  0  0
  1  4  1  0  0  0
  1  9  1  0  0  0
  4  5  1  0  0  0
  5  6  1  0  0  0
  6  7  1  0  0  0
  6  8  1  0  0  0
  7 12  1  0  0  0
  8  9  1  0  0  0
  8 10  1  0  0  0
 10 11  1  0  0  0
 10 12  1  0  0  0
 12 15  1  0  0  0
 15 16  1  0  0  0
 15 24  1  0  0  0
 16 17  2  0  0  0
 17 18  1  0  0  0
 18 19  1  0  0  0
 18 24  2  0  0  0
 19 20  1  0  0  0
 19 21  2  0  0  0
 21 22  1  0  0  0
 22 23  2  0  0  0
 23 24  1  0  0  0
  3 13  1  0  0  0
 11 14  1  0  0  0
 20 25  1  0  0  0
 20 26  1  0  0  0
M  END
> <minimizedAffinity>
-7.11138

$$$$
3OCP_CMP_A_250


 26 29  0  0  0  0  0  0  0  0999 V2000
    1.6826   39.7797   22.6076 P   0  0  0  0  0  0  0  0  0  0  0  0
    1.4394   38.5790   21.7970 O   0  0  0  0  0  0  0  0  0  0  0  0
    3.0602   40.5988   22.2546 O   0  0  0  0  0  0  0  0  0  0  0  0
    0.5377   40.8285   22.4368 O   0  0  0  0  0  0  0  0  0  0  0  0
   -0.6863   40.3592   22.9918 C   0  0  0  0  0  0  0  0  0  0  0  0
   -0.4284   40.0120   24.4236 C   0  0  0  0  0  0  0  0  0  0  0  0
   -1.5674   39.4543   25.1081 O   0  0  0  0  0  0  0  0  0  0  0  0
    0.6130   38.9465   24.6236 C   0  0  0  0  0  0  0  0  0  0  0  0
    1.8797   39.4056   24.1908 O   0  0  0  0  0  0  0  0  0  0  0  0
    0.4562   38.6996   26.1146 C   0  0  0  0  0  0  0  0  0  0  0  0
    1.0335   39.7553   26.8759 O   0  0  0  0  0  0  0  0  0  0  0  0
   -1.0738   38.7517   26.2373 C   0  0  0  0  0  0  0  0  0  0  0  0
    3.0451   40.8709   21.3237 H   0  0  0  0  0  0  0  0  0  0  0  0
    0.6469   40.6013   26.6007 H   0  0  0  0  0  0  0  0  0  0  0  0
   -1.6581   37.3965   26.2016 N   0  0  0  0  0  0  0  0  0  0  0  0
   -1.9980   36.7168   25.1093 C   0  0  0  0  0  0  0  0  0  0  0  0
   -2.5159   35.5070   25.5044 N   0  0  0  0  0  0  0  0  0  0  0  0
   -2.4791   35.4656   26.8740 C   0  0  0  0  0  0  0  0  0  0  0  0
   -2.8928   34.4469   27.8350 C   0  0  0  0  0  0  0  0  0  0  0  0
   -3.4698   33.2080   27.3592 N   0  0  0  0  0  0  0  0  0  0  0  0
   -2.7469   34.6531   29.1218 N   0  0  0  0  0  0  0  0  0  0  0  0
   -2.2049   35.8423   29.5674 C   0  0  0  0  0  0  0  0  0  0  0  0
   -1.8108   36.8264   28.6435 N   0  0  0  0  0  0  0  0  0  0  0  0
   -1.9622   36.6090   27.3153 C   0  0  0  0  0  0  0  0  0  0  0  0
   -3.5786   33.0548   26.3928 H   0  0  0  0  0  0  0  0  0  0  0  0
   -3.7535   32.5183   28.0019 H   0  0  0  0  0  0  0  0  0  0  0  0
  1  2  2  0  0  0
  1  3  1  0  0  0
  1  4  1  0  0  0
  1  9  1  0  0  0
  4  5  1  0  0  0
  5  6  1  0  0  0
  6  7  1  0  0  0
  6  8  1  0  0  0
  7 12  1  0  0  0
  8  9  1  0  0  0
  8 10  1  0  0  0
 10 11  1  0  0  0
 10 12  1  0  0  0
 12 15  1  0  0  0
 15 16  1  0  0  0
 15 24  1  0  0  0
 16 17  2  0  0  0
 17 18  1  0  0  0
 18 19  1  0  0  0
 18 24  2  0  0  0
 19 20  1  0  0  0
 19 21  2  0  0  0
 21 22  1  0  0  0
 22 23  2  0  0  0
 23 24  1  0  0  0
  3 13  1  0  0  0
 11 14  1  0  0  0
 20 25  1  0  0  0
 20 26  1  0  0  0
M  END
> <minimizedAffinity>
-7.06250

$$$$
3OCP_CMP_A_250


 26 29  0  0  0  0  0  0  0  0999 V2000
   -2.7621   34.0150   27.4789 P   0  0  0  0  0  0  0  0  0  0  0  0
   -1.7363   32.9820   27.2821 O   0  0  0  0  0  0  0  0  0  0  0  0
   -4.3110   33.4727   27.4974 O   0  0  0  0  0  0  0  0  0  0  0  0
   -2.5791   34.7522   28.8437 O   0  0  0  0  0  0  0  0  0  0  0  0
   -1.3889   35.5331   28.8590 C   0  0  0  0  0  0  0  0  0  0  0  0
   -1.4515   36.4732   27.6973 C   0  0  0  0  0  0  0  0  0  0  0  0
   -0.2759   37.2916   27.5388 O   0  0  0  0  0  0  0  0  0  0  0  0
   -1.5477   35.7961   26.3586 C   0  0  0  0  0  0  0  0  0  0  0  0
   -2.7715   35.0945   26.2460 O   0  0  0  0  0  0  0  0  0  0  0  0
   -1.3686   36.9948   25.4422 C   0  0  0  0  0  0  0  0  0  0  0  0
   -2.5468   37.7932   25.4007 O   0  0  0  0  0  0  0  0  0  0  0  0
   -0.2616   37.7473   26.1955 C   0  0  0  0  0  0  0  0  0  0  0  0
   -4.4154   32.8165   28.2042 H   0  0  0  0  0  0  0  0  0  0  0  0
   -2.7932   38.0531   26.3021 H   0  0  0  0  0  0  0  0  0  0  0  0
    1.0695   37.4343   25.6393 N   0  0  0  0  0  0  0  0  0  0  0  0
    1.5109   37.7623   24.4276 C   0  0  0  0  0  0  0  0  0  0  0  0
    2.7895   37.2772   24.2942 N   0  0  0  0  0  0  0  0  0  0  0  0
    3.1190   36.6445   25.4646 C   0  0  0  0  0  0  0  0  0  0  0  0
    4.3281   35.9482   25.8953 C   0  0  0  0  0  0  0  0  0  0  0  0
    5.4522   35.8418   24.9903 N   0  0  0  0  0  0  0  0  0  0  0  0
    4.3954   35.4183   27.0930 N   0  0  0  0  0  0  0  0  0  0  0  0
    3.3143   35.5157   27.9464 C   0  0  0  0  0  0  0  0  0  0  0  0
    2.1474   36.1814   27.5313 N   0  0  0  0  0  0  0  0  0  0  0  0
    2.0823   36.7282   26.2939 C   0  0  0  0  0  0  0  0  0  0  0  0
    5.4000   36.2402   24.0915 H   0  0  0  0  0  0  0  0  0  0  0  0
    6.2693   35.3711   25.2733 H   0  0  0  0  0  0  0  0  0  0  0  0
  1  2  2  0  0  0
  1  3  1  0  0  0
  1  4  1  0  0  0
  1  9  1  0  0  0
  4  5  1  0  0  0
  5  6  1  0  0  0
  6  7  1  0  0  0
  6  8  1  0  0  0
  7 12  1  0  0  0
  8  9  1  0  0  0
  8 10  1  0  0  0
 10 11  1  0  0  0
 10 12  1  0  0  0
 12 15  1  0  0  0
 15 16  1  0  0  0
 15 24  1  0  0  0
 16 17  2  0  0  0
 17 18  1  0  0  0
 18 19  1  0  0  0
 18 24  2  0  0  0
 19 20  1  0  0  0
 19 21  2  0  0  0
 21 22  1  0  0  0
 22 23  2  0  0  0
 23 24  1  0  0  0
  3 13  1  0  0  0
 11 14  1  0  0  0
 20 25  1  0  0  0
 20 26  1  0  0  0
M  END
> <minimizedAffinity>
-6.83586

$$$$
3OCP_CMP_A_250


 26 29  0  0  0  0  0  0  0  0999 V2000
   -2.4193   35.7854   28.5281 P   0  0  0  0  0  0  0  0  0  0  0  0
   -3.2905   36.9664   28.5920 O   0  0  0  0  0  0  0  0  0  0  0  0
   -2.5653   34.7358   29.7813 O   0  0  0  0  0  0  0  0  0  0  0  0
   -2.7056   34.9298   27.2531 O   0  0  0  0  0  0  0  0  0  0  0  0
   -2.3288   35.6201   26.0665 C   0  0  0  0  0  0  0  0  0  0  0  0
   -0.8867   35.9938   26.2008 C   0  0  0  0  0  0  0  0  0  0  0  0
   -0.3732   36.7640   25.0964 O   0  0  0  0  0  0  0  0  0  0  0  0
   -0.5855   36.8842   27.3740 C   0  0  0  0  0  0  0  0  0  0  0  0
   -0.8359   36.2033   28.5889 O   0  0  0  0  0  0  0  0  0  0  0  0
    0.8644   37.2297   27.0786 C   0  0  0  0  0  0  0  0  0  0  0  0
    1.7259   36.1346   27.3719 O   0  0  0  0  0  0  0  0  0  0  0  0
    0.7888   37.4340   25.5583 C   0  0  0  0  0  0  0  0  0  0  0  0
   -3.4817   34.4223   29.8353 H   0  0  0  0  0  0  0  0  0  0  0  0
    1.4284   35.3499   26.8855 H   0  0  0  0  0  0  0  0  0  0  0  0
    0.6366   38.8626   25.2191 N   0  0  0  0  0  0  0  0  0  0  0  0
    0.5661   39.8715   26.0838 C   0  0  0  0  0  0  0  0  0  0  0  0
    0.4136   41.0352   25.3692 N   0  0  0  0  0  0  0  0  0  0  0  0
    0.3964   40.7074   24.0385 C   0  0  0  0  0  0  0  0  0  0  0  0
    0.2597   41.5176   22.8314 C   0  0  0  0  0  0  0  0  0  0  0  0
    0.1005   42.9513   22.9473 N   0  0  0  0  0  0  0  0  0  0  0  0
    0.2768   40.9512   21.6487 N   0  0  0  0  0  0  0  0  0  0  0  0
    0.4189   39.5815   21.5478 C   0  0  0  0  0  0  0  0  0  0  0  0
    0.5454   38.7992   22.7093 N   0  0  0  0  0  0  0  0  0  0  0  0
    0.5283   39.3883   23.9288 C   0  0  0  0  0  0  0  0  0  0  0  0
    0.0879   43.3749   23.8360 H   0  0  0  0  0  0  0  0  0  0  0  0
    0.0049   43.5031   22.1376 H   0  0  0  0  0  0  0  0  0  0  0  0
  1  2  2  0  0  0
  1  3  1  0  0  0
  1  4  1  0  0  0
  1  9  1  0  0  0
  4  5  1  0  0  0
  5  6  1  0  0  0
  6  7  1  0  0  0
  6  8  1  0  0  0
  7 12  1  0  0  0
  8  9  1  0  0  0
  8 10  1  0  0  0
 10 11  1  0  0  0
 10 12  1  0  0  0
 12 15  1  0  0  0
 15 16  1  0  0  0
 15 24  1  0  0  0
 16 17  2  0  0  0
 17 18  1  0  0  0
 18 19  1  0  0  0
 18 24  2  0  0  0
 19 20  1  0  0  0
 19 21  2  0  0  0
 21 22  1  0  0  0
 22 23  2  0  0  0
 23 24  1  0  0  0
  3 13  1  0  0  0
 11 14  1  0  0  0
 20 25  1  0  0  0
 20 26  1  0  0  0
M  END
> <minimizedAffinity>
-6.80441

$$$$
3OCP_CMP_A_250


 26 29  0  0  0  0  0  0  0  0999 V2000
   -2.0217   35.8423   26.5631 P   0  0  0  0  0  0  0  0  0  0  0  0
   -0.7526   35.2301   26.9784 O   0  0  0  0  0  0  0  0  0  0  0  0
   -3.2481   34.7905   26.2748 O   0  0  0  0  0  0  0  0  0  0  0  0
   -2.5745   36.8131   27.6549 O   0  0  0  0  0  0  0  0  0  0  0  0
   -1.7446   37.9605   27.8007 C   0  0  0  0  0  0  0  0  0  0  0  0
   -1.6287   38.6068   26.4568 C   0  0  0  0  0  0  0  0  0  0  0  0
   -0.7574   39.7544   26.4291 O   0  0  0  0  0  0  0  0  0  0  0  0
   -1.0257   37.7269   25.3975 C   0  0  0  0  0  0  0  0  0  0  0  0
   -1.8711   36.6239   25.1307 O   0  0  0  0  0  0  0  0  0  0  0  0
   -0.8594   38.7385   24.2761 C   0  0  0  0  0  0  0  0  0  0  0  0
   -2.1092   39.0408   23.6644 O   0  0  0  0  0  0  0  0  0  0  0  0
   -0.3706   39.9533   25.0788 C   0  0  0  0  0  0  0  0  0  0  0  0
   -3.4213   34.2688   27.0740 H   0  0  0  0  0  0  0  0  0  0  0  0
   -2.7360   39.3414   24.3408 H   0  0  0  0  0  0  0  0  0  0  0  0
    1.1020   40.0517   25.0533 N   0  0  0  0  0  0  0  0  0  0  0  0
    1.8139   41.0298   24.4989 C   0  0  0  0  0  0  0  0  0  0  0  0
    3.1454   40.7424   24.6792 N   0  0  0  0  0  0  0  0  0  0  0  0
    3.2267   39.5586   25.3653 C   0  0  0  0  0  0  0  0  0  0  0  0
    4.3655   38.7716   25.8299 C   0  0  0  0  0  0  0  0  0  0  0  0
    5.7105   39.2349   25.5641 N   0  0  0  0  0  0  0  0  0  0  0  0
    4.1730   37.6495   26.4807 N   0  0  0  0  0  0  0  0  0  0  0  0
    2.8864   37.2097   26.7211 C   0  0  0  0  0  0  0  0  0  0  0  0
    1.7887   37.9637   26.2698 N   0  0  0  0  0  0  0  0  0  0  0  0
    1.9919   39.1226   25.5990 C   0  0  0  0  0  0  0  0  0  0  0  0
    5.8533   40.0775   25.0754 H   0  0  0  0  0  0  0  0  0  0  0  0
    6.4827   38.7075   25.8720 H   0  0  0  0  0  0  0  0  0  0  0  0
  1  2  2  0  0  0
  1  3  1  0  0  0
  1  4  1  0  0  0
  1  9  1  0  0  0
  4  5  1  0  0  0
  5  6  1  0  0  0
  6  7  1  0  0  0
  6  8  1  0  0  0
  7 12  1  0  0  0
  8  9  1  0  0  0
  8 10  1  0  0  0
 10 11  1  0  0  0
 10 12  1  0  0  0
 12 15  1  0  0  0
 15 16  1  0  0  0
 15 24  1  0  0  0
 16 17  2  0  0  0
 17 18  1  0  0  0
 18 19  1  0  0  0
 18 24  2  0  0  0
 19 20  1  0  0  0
 19 21  2  0  0  0
 21 22  1  0  0  0
 22 23  2  0  0  0
 23 24  1  0  0  0
  3 13  1  0  0  0
 11 14  1  0  0  0
 20 25  1  0  0  0
 20 26  1  0  0  0
M  END
> <minimizedAffinity>
-6.50380

$$$$
3OCP_CMP_A_250


 26 29  0  0  0  0  0  0  0  0999 V2000
   -2.3441   36.7047   28.4390 P   0  0  0  0  0  0  0  0  0  0  0  0
   -3.3587   37.7258   28.1461 O   0  0  0  0  0  0  0  0  0  0  0  0
   -2.4723   35.9883   29.9101 O   0  0  0  0  0  0  0  0  0  0  0  0
   -2.4020   35.5278   27.4136 O   0  0  0  0  0  0  0  0  0  0  0  0
   -2.0070   35.9498   26.1127 C   0  0  0  0  0  0  0  0  0  0  0  0
   -0.6417   36.5497   26.2286 C   0  0  0  0  0  0  0  0  0  0  0  0
   -0.1292   37.0884   24.9941 O   0  0  0  0  0  0  0  0  0  0  0  0
   -0.5640   37.7369   27.1476 C   0  0  0  0  0  0  0  0  0  0  0  0
   -0.8380   37.3492   28.4806 O   0  0  0  0  0  0  0  0  0  0  0  0
    0.8522   38.2045   26.8566 C   0  0  0  0  0  0  0  0  0  0  0  0
    1.8134   37.3527   27.4714 O   0  0  0  0  0  0  0  0  0  0  0  0
    0.8921   38.0128   25.3333 C   0  0  0  0  0  0  0  0  0  0  0  0
   -3.3432   35.5688   29.9905 H   0  0  0  0  0  0  0  0  0  0  0  0
    1.6628   36.4375   27.1876 H   0  0  0  0  0  0  0  0  0  0  0  0
    0.5939   39.2753   24.6289 N   0  0  0  0  0  0  0  0  0  0  0  0
   -0.5739   39.6164   24.0896 C   0  0  0  0  0  0  0  0  0  0  0  0
   -0.4333   40.8588   23.5199 N   0  0  0  0  0  0  0  0  0  0  0  0
    0.8572   41.2699   23.7306 C   0  0  0  0  0  0  0  0  0  0  0  0
    1.5717   42.4867   23.3548 C   0  0  0  0  0  0  0  0  0  0  0  0
    0.8827   43.5191   22.6109 N   0  0  0  0  0  0  0  0  0  0  0  0
    2.8313   42.6431   23.6849 N   0  0  0  0  0  0  0  0  0  0  0  0
    3.4838   41.6485   24.3859 C   0  0  0  0  0  0  0  0  0  0  0  0
    2.7987   40.4739   24.7440 N   0  0  0  0  0  0  0  0  0  0  0  0
    1.4976   40.3168   24.4021 C   0  0  0  0  0  0  0  0  0  0  0  0
   -0.0629   43.4001   22.3639 H   0  0  0  0  0  0  0  0  0  0  0  0
    1.3594   44.3406   22.3519 H   0  0  0  0  0  0  0  0  0  0  0  0
  1  2  2  0  0  0
  1  3  1  0  0  0
  1  4  1  0  0  0
  1  9  1  0  0  0
  4  5  1  0  0  0
  5  6  1  0  0  0
  6  7  1  0  0  0
  6  8  1  0  0  0
  7 12  1  0  0  0
  8  9  1  0  0  0
  8 10  1  0  0  0
 10 11  1  0  0  0
 10 12  1  0  0  0
 12 15  1  0  0  0
 15 16  1  0  0  0
 15 24  1  0  0  0
 16 17  2  0  0  0
 17 18  1  0  0  0
 18 19  1  0  0  0
 18 24  2  0  0  0
 19 20  1  0  0  0
 19 21  2  0  0  0
 21 22  1  0  0  0
 22 23  2  0  0  0
 23 24  1  0  0  0
  3 13  1  0  0  0
 11 14  1  0  0  0
 20 25  1  0  0  0
 20 26  1  0  0  0
M  END
> <minimizedAffinity>
-6.43427

$$$$
3OCP_CMP_A_250


 26 29  0  0  0  0  0  0  0  0999 V2000
    2.9840   40.3691   22.2137 P   0  0  0  0  0  0  0  0  0  0  0  0
    2.4420   39.1471   21.6048 O   0  0  0  0  0  0  0  0  0  0  0  0
    4.1315   41.1439   21.3326 O   0  0  0  0  0  0  0  0  0  0  0  0
    1.8683   41.4372   22.4466 O   0  0  0  0  0  0  0  0  0  0  0  0
    0.9423   41.0153   23.4421 C   0  0  0  0  0  0  0  0  0  0  0  0
    1.7210   40.7120   24.6826 C   0  0  0  0  0  0  0  0  0  0  0  0
    0.9222   40.2043   25.7693 O   0  0  0  0  0  0  0  0  0  0  0  0
    2.7519   39.6305   24.5165 C   0  0  0  0  0  0  0  0  0  0  0  0
    3.7636   40.0454   23.6183 O   0  0  0  0  0  0  0  0  0  0  0  0
    3.1701   39.4387   25.9646 C   0  0  0  0  0  0  0  0  0  0  0  0
    4.0014   40.5066   26.4073 O   0  0  0  0  0  0  0  0  0  0  0  0
    1.8013   39.5299   26.6551 C   0  0  0  0  0  0  0  0  0  0  0  0
    3.7667   41.3841   20.4665 H   0  0  0  0  0  0  0  0  0  0  0  0
    3.5461   41.3512   26.2649 H   0  0  0  0  0  0  0  0  0  0  0  0
    1.2363   38.1880   26.8982 N   0  0  0  0  0  0  0  0  0  0  0  0
    1.9042   37.0375   26.8669 C   0  0  0  0  0  0  0  0  0  0  0  0
    1.0170   36.0224   27.1323 N   0  0  0  0  0  0  0  0  0  0  0  0
   -0.2156   36.5881   27.3310 C   0  0  0  0  0  0  0  0  0  0  0  0
   -1.5205   36.0103   27.6399 C   0  0  0  0  0  0  0  0  0  0  0  0
   -1.6521   34.5759   27.7793 N   0  0  0  0  0  0  0  0  0  0  0  0
   -2.5690   36.7843   27.7867 N   0  0  0  0  0  0  0  0  0  0  0  0
   -2.4364   38.1510   27.6419 C   0  0  0  0  0  0  0  0  0  0  0  0
   -1.1815   38.7086   27.3392 N   0  0  0  0  0  0  0  0  0  0  0  0
   -0.1010   37.9057   27.1896 C   0  0  0  0  0  0  0  0  0  0  0  0
   -0.8640   33.9963   27.6689 H   0  0  0  0  0  0  0  0  0  0  0  0
   -2.5296   34.1797   27.9846 H   0  0  0  0  0  0  0  0  0  0  0  0
  1  2  2  0  0  0
  1  3  1  0  0  0
  1  4  1  0  0  0
  1  9  1  0  0  0
  4  5  1  0  0  0
  5  6  1  0  0  0
  6  7  1  0  0  0
  6  8  1  0  0  0
  7 12  1  0  0  0
  8  9  1  0  0  0
  8 10  1  0  0  0
 10 11  1  0  0  0
 10 12  1  0  0  0
 12 15  1  0  0  0
 15 16  1  0  0  0
 15 24  1  0  0  0
 16 17  2  0  0  0
 17 18  1  0  0  0
 18 19  1  0  0  0
 18 24  2  0  0  0
 19 20  1  0  0  0
 19 21  2  0  0  0
 21 22  1  0  0  0
 22 23  2  0  0  0
 23 24  1  0  0  0
  3 13  1  0  0  0
 11 14  1  0  0  0
 20 25  1  0  0  0
 20 26  1  0  0  0
M  END
> <minimizedAffinity>
-6.22652

$$$$
3OCP_CMP_A_250


 26 29  0  0  0  0  0  0  0  0999 V2000
   -1.8621   37.7311   27.2374 P   0  0  0  0  0  0  0  0  0  0  0  0
   -1.8922   39.1564   27.5918 O   0  0  0  0  0  0  0  0  0  0  0  0
   -2.9281   36.7827   28.0485 O   0  0  0  0  0  0  0  0  0  0  0  0
   -2.1954   37.5083   25.7278 O   0  0  0  0  0  0  0  0  0  0  0  0
   -1.1719   38.0278   24.8857 C   0  0  0  0  0  0  0  0  0  0  0  0
    0.1165   37.3874   25.2945 C   0  0  0  0  0  0  0  0  0  0  0  0
    1.2671   37.8663   24.5710 O   0  0  0  0  0  0  0  0  0  0  0  0
    0.5105   37.6470   26.7218 C   0  0  0  0  0  0  0  0  0  0  0  0
   -0.4181   37.0505   27.6075 O   0  0  0  0  0  0  0  0  0  0  0  0
    1.9136   37.0639   26.7194 C   0  0  0  0  0  0  0  0  0  0  0  0
    1.8808   35.6405   26.7271 O   0  0  0  0  0  0  0  0  0  0  0  0
    2.4102   37.5613   25.3538 C   0  0  0  0  0  0  0  0  0  0  0  0
   -3.8299   37.1049   27.8942 H   0  0  0  0  0  0  0  0  0  0  0  0
    1.3503   35.3252   25.9787 H   0  0  0  0  0  0  0  0  0  0  0  0
    3.1931   38.8051   25.4917 N   0  0  0  0  0  0  0  0  0  0  0  0
    2.7627   40.0367   25.2299 C   0  0  0  0  0  0  0  0  0  0  0  0
    3.7959   40.9095   25.4720 N   0  0  0  0  0  0  0  0  0  0  0  0
    4.8724   40.1735   25.8942 C   0  0  0  0  0  0  0  0  0  0  0  0
    6.2261   40.5543   26.2875 C   0  0  0  0  0  0  0  0  0  0  0  0
    6.6136   41.9483   26.2574 N   0  0  0  0  0  0  0  0  0  0  0  0
    7.0883   39.6399   26.6623 N   0  0  0  0  0  0  0  0  0  0  0  0
    6.7132   38.3112   26.6783 C   0  0  0  0  0  0  0  0  0  0  0  0
    5.4116   37.9423   26.2949 N   0  0  0  0  0  0  0  0  0  0  0  0
    4.5240   38.8899   25.9096 C   0  0  0  0  0  0  0  0  0  0  0  0
    5.9652   42.6335   25.9758 H   0  0  0  0  0  0  0  0  0  0  0  0
    7.5257   42.2115   26.5184 H   0  0  0  0  0  0  0  0  0  0  0  0
  1  2  2  0  0  0
  1  3  1  0  0  0
  1  4  1  0  0  0
  1  9  1  0  0  0
  4  5  1  0  0  0
  5  6  1  0  0  0
  6  7  1  0  0  0
  6  8  1  0  0  0
  7 12  1  0  0  0
  8  9  1  0  0  0
  8 10  1  0  0  0
 10 11  1  0  0  0
 10 12  1  0  0  0
 12 15  1  0  0  0
 15 16  1  0  0  0
 15 24  1  0  0  0
 16 17  2  0  0  0
 17 18  1  0  0  0
 18 19  1  0  0  0
 18 24  2  0  0  0
 19 20  1  0  0  0
 19 21  2  0  0  0
 21 22  1  0  0  0
 22 23  2  0  0  0
 23 24  1  0  0  0
  3 13  1  0  0  0
 11 14  1  0  0  0
 20 25  1  0  0  0
 20 26  1  0  0  0
M  END
> <minimizedAffinity>
-6.17554

$$$$
