3OCP_CMP_A_250
  RCSB PDB12061710033D
Coordinates from PDB:3OCP:A:250 Model:1 without hydrogens
 22 25  0  0  0  0            999 V2000
   -3.0200   33.7660   27.3530   P 0  0  0  0  0  0  0  0  0  0  0  0
   -1.8590   32.8890   27.5550   O 0  0  0  0  0  0  0  0  0  0  0  0
   -4.3880   33.0150   26.8450   O 0  0  0  0  0  0  0  0  0  0  0  0
   -3.4280   34.4910   28.6750   O 0  0  0  0  0  0  0  0  0  0  0  0
   -2.4370   35.4280   29.0830   C 0  0  0  0  0  0  0  0  0  0  0  0
   -2.2180   36.3760   27.9470   C 0  0  0  0  0  0  0  0  0  0  0  0
   -1.1850   37.3520   28.1860   O 0  0  0  0  0  0  0  0  0  0  0  0
   -1.7470   35.7220   26.6780   C 0  0  0  0  0  0  0  0  0  0  0  0
   -2.7460   34.8610   26.1650   O 0  0  0  0  0  0  0  0  0  0  0  0
   -1.4250   36.9540   25.8490   C 0  0  0  0  0  0  0  0  0  0  0  0
   -2.6120   37.5830   25.3770   O 0  0  0  0  0  0  0  0  0  0  0  0
   -0.7650   37.8350   26.9200   C 0  0  0  0  0  0  0  0  0  0  0  0
    0.7060   37.7210   26.8720   N 0  0  0  0  0  0  0  0  0  0  0  0
    1.4260   36.6770   27.2750   C 0  0  0  0  0  0  0  0  0  0  0  0
    2.7530   36.9720   27.0750   N 0  0  0  0  0  0  0  0  0  0  0  0
    2.8230   38.2290   26.5330   C 0  0  0  0  0  0  0  0  0  0  0  0
    3.9530   39.0560   26.1190   C 0  0  0  0  0  0  0  0  0  0  0  0
    5.3010   38.5520   26.2710   N 0  0  0  0  0  0  0  0  0  0  0  0
    3.7500   40.2500   25.6160   N 0  0  0  0  0  0  0  0  0  0  0  0
    2.4610   40.7270   25.4840   C 0  0  0  0  0  0  0  0  0  0  0  0
    1.3720   39.9340   25.8870   N 0  0  0  0  0  0  0  0  0  0  0  0
    1.5860   38.7010   26.4050   C 0  0  0  0  0  0  0  0  0  0  0  0
  1  2  2  0  0  0  0
  1  3  1  0  0  0  0
  1  4  1  0  0  0  0
  1  9  1  0  0  0  0
  4  5  1  0  0  0  0
  5  6  1  0  0  0  0
  6  7  1  0  0  0  0
  6  8  1  0  0  0  0
  7 12  1  0  0  0  0
  8  9  1  0  0  0  0
  8 10  1  0  0  0  0
 10 11  1  0  0  0  0
 10 12  1  0  0  0  0
 12 13  1  0  0  0  0
 13 14  1  0  0  0  0
 13 22  1  0  0  0  0
 14 15  2  0  0  0  0
 15 16  1  0  0  0  0
 16 17  1  0  0  0  0
 16 22  2  0  0  0  0
 17 18  1  0  0  0  0
 17 19  2  0  0  0  0
 19 20  1  0  0  0  0
 20 21  2  0  0  0  0
 21 22  1  0  0  0  0
A    1
P
A    2
O1P
A    3
O2P
A    4
O5'
A    5
C5'
A    6
C4'
A    7
O4'
A    8
C3'
A    9
O3'
A   10
C2'
A   11
O2'
A   12
C1'
A   13
N9
A   14
C8
A   15
N7
A   16
C5
A   17
C6
A   18
N6
A   19
N1
A   20
C2
A   21
N3
A   22
C4
M  END
>  <InstanceId>
3OCP_CMP_A_250

>  <ChemCompId>
CMP

>  <PdbId>
3OCP

>  <ChainId>
A

>  <ResidueNumber>
250

>  <InsertionCode>


>  <Model>
1

>  <AltIds>


>  <MissingHeavyAtoms>
0

>  <ObservedFormula>
C10 N5 O6 P

>  <Name>
ADENOSINE-3',5'-CYCLIC-MONOPHOSPHATE

>  <SystematicName>
(1R,4R,6S,7R,8R)-8-(6-aminopurin-9-yl)-4-hydroxy-4-oxo-3,5,9-trioxa-4$l^{5}-phosphabicyclo[4.3.0]nonan-7-ol

>  <Synonyms>
CYCLIC AMP; CAMP

>  <Type>
NON-POLYMER

>  <Formula>
C10 H12 N5 O6 P

>  <MolecularWeight>
329.206

>  <ModifiedDate>
2011-06-04

>  <Parent>


>  <OneLetterCode>


>  <SubcomponentList>


>  <AmbiguousFlag>
N

>  <InChI>
InChI=1S/C10H12N5O6P/c11-8-5-9(13-2-12-8)15(3-14-5)10-6(16)7-4(20-10)1-19-22(17,18)21-7/h2-4,6-7,10,16H,1H2,(H,17,18)(H2,11,12,13)/t4-,6-,7-,10-/m1/s1

>  <InChIKey>
IVOMOUWHDPKRLL-KQYNXXCUSA-N

>  <SMILES>
c1nc(c2c(n1)n(cn2)[C@H]3[C@@H]([C@H]4[C@H](O3)CO[P@](=O)(O4)O)O)N

$$$$
