5UEU_0S6_A_501
  RCSB PDB12061719513D
Coordinates from PDB:5UEU:A:501 Model:1 without hydrogens
 28 31  0  0  0  0            999 V2000
   30.0930   10.0650  -14.3610  Cl 0  0  0  0  0  0  0  0  0  0  0  0
   28.5170   10.5530  -13.8270   C 0  0  0  0  0  0  0  0  0  0  0  0
   27.6260   11.1330  -14.7000   C 0  0  0  0  0  0  0  0  0  0  0  0
   26.3700   11.5230  -14.2800   C 0  0  0  0  0  0  0  0  0  0  0  0
   28.1450   10.3690  -12.5170   C 0  0  0  0  0  0  0  0  0  0  0  0
   26.8880   10.7600  -12.1050   C 0  0  0  0  0  0  0  0  0  0  0  0
   25.9780   11.3430  -12.9670   C 0  0  0  0  0  0  0  0  0  0  0  0
   24.6310   11.7380  -12.4830   C 0  0  0  0  0  0  0  0  0  0  0  0
   24.4360   12.1080  -11.0910   C 0  0  0  0  0  0  0  0  0  0  0  0
   25.2280   13.0220  -10.3370   C 0  0  0  0  0  0  0  0  0  0  0  0
   26.3820   13.7630  -10.8730   C 0  0  0  0  0  0  0  0  0  0  0  0
   24.7940   13.1620   -9.0320   C 0  0  0  0  0  0  0  0  0  0  0  0
   25.3530   14.0020   -7.9580   C 0  0  0  0  0  0  0  0  0  0  0  0
   23.4090   12.2010   -8.7100   S 0  0  0  0  0  0  0  0  0  0  0  0
   23.4130   11.5880  -10.3180   C 0  0  0  0  0  0  0  0  0  0  0  0
   22.4280   10.7220  -10.7910   N 0  0  0  0  0  0  0  0  0  0  0  0
   21.7700    9.6440  -10.2550   C 0  0  0  0  0  0  0  0  0  0  0  0
   22.0640    9.0370   -8.9450   C 0  0  0  0  0  0  0  0  0  0  0  0
   20.8330    9.2190  -11.0700   N 0  0  0  0  0  0  0  0  0  0  0  0
   20.8560   10.0120  -12.1760   N 0  0  0  0  0  0  0  0  0  0  0  0
   21.8040   10.9060  -12.0000   C 0  0  0  0  0  0  0  0  0  0  0  0
   23.6310   11.6680  -13.3130   N 0  0  0  0  0  0  0  0  0  0  0  0
   22.2430   11.9740  -12.9230   C 0  0  0  0  0  0  0  0  0  0  0  0
   21.3690   12.0610  -14.1570   C 0  0  0  0  0  0  0  0  0  0  0  0
   21.7210   13.2660  -14.9860   C 0  0  0  0  0  0  0  0  0  0  0  0
   22.4600   14.1770  -14.6390   O 0  0  0  0  0  0  0  0  0  0  0  0
   21.0790   13.1840  -16.1820   O 0  0  0  0  0  0  0  0  0  0  0  0
   21.4360   14.2280  -17.0910   C 0  0  0  0  0  0  0  0  0  0  0  0
  1  2  1  0  0  0  0
  5  2  2  0  0  0  0
  5  6  1  0  0  0  0
  2  3  1  0  0  0  0
 28 27  1  0  0  0  0
  6  7  2  0  0  0  0
  3  4  2  0  0  0  0
 27 25  1  0  0  0  0
  7  4  1  0  0  0  0
  7  8  1  0  0  0  0
 26 25  2  0  0  0  0
 25 24  1  0  0  0  0
 22  8  2  0  0  0  0
 22 23  1  0  0  0  0
  8  9  1  0  0  0  0
 24 23  1  0  0  0  0
 23 21  1  0  0  0  0
 11 10  1  0  0  0  0
  9 10  1  0  0  0  0
  9 15  2  0  0  0  0
 10 12  2  0  0  0  0
 21 20  2  0  0  0  0
 21 16  1  0  0  0  0
 20 19  1  0  0  0  0
 16 15  1  0  0  0  0
 16 17  1  0  0  0  0
 15 14  1  0  0  0  0
 19 17  2  0  0  0  0
 12 13  1  0  0  0  0
 12 14  1  0  0  0  0
 17 18  1  0  0  0  0
A    1
CL1
A    2
C15
A    3
C16
A    4
C17
A    5
C13
A    6
C14
A    7
C12
A    8
C8
A    9
C5
A   10
C4
A   11
C7
A   12
C2
A   13
C6
A   14
S1
A   15
C3
A   16
N9
A   17
C11
A   18
C28
A   19
N27
A   20
N21
A   21
C19
A   22
N10
A   23
C20
A   24
C22
A   25
C23
A   26
O24
A   27
O25
A   28
C26
M  END
>  <InstanceId>
5UEU_0S6_A_501

>  <ChemCompId>
0S6

>  <PdbId>
5UEU

>  <ChainId>
A

>  <ResidueNumber>
501

>  <InsertionCode>


>  <Model>
1

>  <AltIds>


>  <MissingHeavyAtoms>
0

>  <ObservedFormula>
C20 N4 O2 S Cl

>  <Name>
methyl [(6S)-4-(4-chlorophenyl)-2,3,9-trimethyl-6H-thieno[3,2-f][1,2,4]triazolo[4,3-a][1,4]diazepin-6-yl]acetate

>  <SystematicName>


>  <Synonyms>


>  <Type>
NON-POLYMER

>  <Formula>
C20 H19 Cl N4 O2 S

>  <MolecularWeight>
414.908

>  <ModifiedDate>
2012-09-07

>  <Parent>


>  <OneLetterCode>


>  <SubcomponentList>


>  <AmbiguousFlag>
N

>  <InChI>
InChI=1S/C20H19ClN4O2S/c1-10-11(2)28-20-17(10)18(13-5-7-14(21)8-6-13)22-15(9-16(26)27-4)19-24-23-12(3)25(19)20/h5-8,15H,9H2,1-4H3/t15-/m0/s1

>  <InChIKey>
GGRCIHACOIMRKY-HNNXBMFYSA-N

>  <SMILES>
Cc1c(sc-2c1C(=N[C@H](c3n2c(nn3)C)CC(=O)OC)c4ccc(cc4)Cl)C

$$$$
