5UEU_0S6_A_501


 28 31  0  0  0  0  0  0  0  0999 V2000
   24.7299   11.7463  -12.4190 C   0  0  0  0  0  0  0  0  0  0  0  0
   24.5135   12.2266  -11.0644 C   0  0  0  0  0  0  0  0  0  0  0  0
   25.2356   13.2644  -10.4066 C   0  0  0  0  0  0  0  0  0  0  0  0
   26.3256   14.0399  -11.0219 C   0  0  0  0  0  0  0  0  0  0  0  0
   24.7984   13.4899   -9.1146 C   0  0  0  0  0  0  0  0  0  0  0  0
   25.2955   14.4657   -8.1286 C   0  0  0  0  0  0  0  0  0  0  0  0
   23.4942   12.4585   -8.6896 S   0  0  0  0  0  0  0  0  0  0  0  0
   23.5380   11.7024  -10.2348 C   0  0  0  0  0  0  0  0  0  0  0  0
   22.6213   10.7231  -10.6149 N   0  0  0  0  0  0  0  0  0  0  0  0
   22.0520    9.6514   -9.9748 C   0  0  0  0  0  0  0  0  0  0  0  0
   22.3989    9.1920   -8.6185 C   0  0  0  0  0  0  0  0  0  0  0  0
   21.1470    9.0822  -10.7362 N   0  0  0  0  0  0  0  0  0  0  0  0
   21.1026    9.7696  -11.9102 N   0  0  0  0  0  0  0  0  0  0  0  0
   21.9788   10.7465  -11.8280 C   0  0  0  0  0  0  0  0  0  0  0  0
   23.7344   11.5233  -13.2270 N   0  0  0  0  0  0  0  0  0  0  0  0
   22.3287   11.7558  -12.8499 C   0  0  0  0  0  0  0  0  0  0  0  0
   30.2796   10.4847  -14.3602 Cl  0  0  0  0  0  0  0  0  0  0  0  0
   28.6800   10.8418  -13.7939 C   0  0  0  0  0  0  0  0  0  0  0  0
   28.2652   10.4288  -12.5489 C   0  0  0  0  0  0  0  0  0  0  0  0
   26.9929   10.7108  -12.0932 C   0  0  0  0  0  0  0  0  0  0  0  0
   27.8055   11.5394  -14.5919 C   0  0  0  0  0  0  0  0  0  0  0  0
   26.5364   11.8185  -14.1293 C   0  0  0  0  0  0  0  0  0  0  0  0
   26.1012   11.4137  -12.8812 C   0  0  0  0  0  0  0  0  0  0  0  0
   21.4445   11.6612  -14.0760 C   0  0  0  0  0  0  0  0  0  0  0  0
   21.5385   12.9103  -14.9091 C   0  0  0  0  0  0  0  0  0  0  0  0
   21.8284   14.0233  -14.4922 O   0  0  0  0  0  0  0  0  0  0  0  0
   21.2416   12.6051  -16.2006 O   0  0  0  0  0  0  0  0  0  0  0  0
   22.3929   12.2985  -16.9907 C   0  0  0  0  0  0  0  0  0  0  0  0
 17 18  1  0  0  0
 21 18  2  0  0  0
 21 22  1  0  0  0
 18 19  1  0  0  0
 28 27  1  0  0  0
 22 23  2  0  0  0
 19 20  2  0  0  0
 27 25  1  0  0  0
 23 20  1  0  0  0
 23  1  1  0  0  0
 26 25  2  0  0  0
 25 24  1  0  0  0
 15  1  2  0  0  0
 15 16  1  0  0  0
  1  2  1  0  0  0
 24 16  1  0  0  0
 16 14  1  0  0  0
  4  3  1  0  0  0
  2  3  1  0  0  0
  2  8  2  0  0  0
  3  5  2  0  0  0
 14 13  2  0  0  0
 14  9  1  0  0  0
 13 12  1  0  0  0
  9  8  1  0  0  0
  9 10  1  0  0  0
  8  7  1  0  0  0
 12 10  2  0  0  0
  5  6  1  0  0  0
  5  7  1  0  0  0
 10 11  1  0  0  0
M  END
> <minimizedAffinity>
-8.17501

$$$$
5UEU_0S6_A_501


 28 31  0  0  0  0  0  0  0  0999 V2000
   24.1915   11.9627  -11.3997 C   0  0  0  0  0  0  0  0  0  0  0  0
   24.8296   11.6081  -12.6566 C   0  0  0  0  0  0  0  0  0  0  0  0
   26.1823   11.1966  -12.8349 C   0  0  0  0  0  0  0  0  0  0  0  0
   27.1583   11.0467  -11.7426 C   0  0  0  0  0  0  0  0  0  0  0  0
   26.4956   10.9319  -14.1551 C   0  0  0  0  0  0  0  0  0  0  0  0
   27.7799   10.4932  -14.7293 C   0  0  0  0  0  0  0  0  0  0  0  0
   25.1478   11.1608  -15.1926 S   0  0  0  0  0  0  0  0  0  0  0  0
   24.1583   11.6331  -13.8662 C   0  0  0  0  0  0  0  0  0  0  0  0
   22.8028   11.9259  -14.0110 N   0  0  0  0  0  0  0  0  0  0  0  0
   22.0698   12.6030  -14.9526 C   0  0  0  0  0  0  0  0  0  0  0  0
   22.6336   13.3359  -16.0997 C   0  0  0  0  0  0  0  0  0  0  0  0
   20.7858   12.5114  -14.6962 N   0  0  0  0  0  0  0  0  0  0  0  0
   20.6419   11.7688  -13.5647 N   0  0  0  0  0  0  0  0  0  0  0  0
   21.8457   11.4207  -13.1663 C   0  0  0  0  0  0  0  0  0  0  0  0
   23.0037   11.5267  -11.0950 N   0  0  0  0  0  0  0  0  0  0  0  0
   22.2277   10.6341  -11.9744 C   0  0  0  0  0  0  0  0  0  0  0  0
   26.8891   15.7218   -7.5590 Cl  0  0  0  0  0  0  0  0  0  0  0  0
   26.1110   14.6446   -8.6731 C   0  0  0  0  0  0  0  0  0  0  0  0
   26.1068   14.9101  -10.0229 C   0  0  0  0  0  0  0  0  0  0  0  0
   25.4891   14.0555  -10.9141 C   0  0  0  0  0  0  0  0  0  0  0  0
   25.4824   13.5125   -8.2130 C   0  0  0  0  0  0  0  0  0  0  0  0
   24.8685   12.6628   -9.1095 C   0  0  0  0  0  0  0  0  0  0  0  0
   24.8546   12.9111  -10.4694 C   0  0  0  0  0  0  0  0  0  0  0  0
   21.0223   10.0986  -11.2298 C   0  0  0  0  0  0  0  0  0  0  0  0
   21.4281    9.0650  -10.2148 C   0  0  0  0  0  0  0  0  0  0  0  0
   22.5506    8.9287   -9.7480 O   0  0  0  0  0  0  0  0  0  0  0  0
   20.3472    8.3004   -9.9044 O   0  0  0  0  0  0  0  0  0  0  0  0
   20.3243    7.8768   -8.5392 C   0  0  0  0  0  0  0  0  0  0  0  0
 17 18  1  0  0  0
 21 18  2  0  0  0
 21 22  1  0  0  0
 18 19  1  0  0  0
 28 27  1  0  0  0
 22 23  2  0  0  0
 19 20  2  0  0  0
 27 25  1  0  0  0
 23 20  1  0  0  0
 23  1  1  0  0  0
 26 25  2  0  0  0
 25 24  1  0  0  0
 15  1  2  0  0  0
 15 16  1  0  0  0
  1  2  1  0  0  0
 24 16  1  0  0  0
 16 14  1  0  0  0
  4  3  1  0  0  0
  2  3  1  0  0  0
  2  8  2  0  0  0
  3  5  2  0  0  0
 14 13  2  0  0  0
 14  9  1  0  0  0
 13 12  1  0  0  0
  9  8  1  0  0  0
  9 10  1  0  0  0
  8  7  1  0  0  0
 12 10  2  0  0  0
  5  6  1  0  0  0
  5  7  1  0  0  0
 10 11  1  0  0  0
M  END
> <minimizedAffinity>
-8.01922

$$$$
5UEU_0S6_A_501


 28 31  0  0  0  0  0  0  0  0999 V2000
   23.4114   11.4484  -11.0569 C   0  0  0  0  0  0  0  0  0  0  0  0
   23.0999   11.8205  -12.4269 C   0  0  0  0  0  0  0  0  0  0  0  0
   21.8098   12.1234  -12.9514 C   0  0  0  0  0  0  0  0  0  0  0  0
   20.5679   12.1235  -12.1603 C   0  0  0  0  0  0  0  0  0  0  0  0
   21.8354   12.4379  -14.2973 C   0  0  0  0  0  0  0  0  0  0  0  0
   20.7139   12.7972  -15.1832 C   0  0  0  0  0  0  0  0  0  0  0  0
   23.4269   12.3882  -14.9375 S   0  0  0  0  0  0  0  0  0  0  0  0
   24.0685   11.9253  -13.4093 C   0  0  0  0  0  0  0  0  0  0  0  0
   25.4356   11.7598  -13.1909 N   0  0  0  0  0  0  0  0  0  0  0  0
   26.4566   11.2056  -13.9208 C   0  0  0  0  0  0  0  0  0  0  0  0
   26.2948   10.4961  -15.2019 C   0  0  0  0  0  0  0  0  0  0  0  0
   27.6101   11.3925  -13.3229 N   0  0  0  0  0  0  0  0  0  0  0  0
   27.3725   12.0763  -12.1703 N   0  0  0  0  0  0  0  0  0  0  0  0
   26.0777   12.2949  -12.1018 C   0  0  0  0  0  0  0  0  0  0  0  0
   24.4256   11.9666  -10.4269 N   0  0  0  0  0  0  0  0  0  0  0  0
   25.3155   12.9735  -11.0323 C   0  0  0  0  0  0  0  0  0  0  0  0
   20.2250    7.2274   -8.1952 Cl  0  0  0  0  0  0  0  0  0  0  0  0
   21.1420    8.4405   -9.0287 C   0  0  0  0  0  0  0  0  0  0  0  0
   20.9865    8.6351  -10.3816 C   0  0  0  0  0  0  0  0  0  0  0  0
   21.7139    9.5997  -11.0498 C   0  0  0  0  0  0  0  0  0  0  0  0
   22.0423    9.2183   -8.3411 C   0  0  0  0  0  0  0  0  0  0  0  0
   22.7646   10.1808   -9.0152 C   0  0  0  0  0  0  0  0  0  0  0  0
   22.6217   10.3928  -10.3738 C   0  0  0  0  0  0  0  0  0  0  0  0
   26.2193   13.5660   -9.9710 C   0  0  0  0  0  0  0  0  0  0  0  0
   25.4252   14.0272   -8.7794 C   0  0  0  0  0  0  0  0  0  0  0  0
   24.6745   14.9928   -8.7553 O   0  0  0  0  0  0  0  0  0  0  0  0
   25.6818   13.2019   -7.7295 O   0  0  0  0  0  0  0  0  0  0  0  0
   26.2803   13.8690   -6.6157 C   0  0  0  0  0  0  0  0  0  0  0  0
 17 18  1  0  0  0
 21 18  2  0  0  0
 21 22  1  0  0  0
 18 19  1  0  0  0
 28 27  1  0  0  0
 22 23  2  0  0  0
 19 20  2  0  0  0
 27 25  1  0  0  0
 23 20  1  0  0  0
 23  1  1  0  0  0
 26 25  2  0  0  0
 25 24  1  0  0  0
 15  1  2  0  0  0
 15 16  1  0  0  0
  1  2  1  0  0  0
 24 16  1  0  0  0
 16 14  1  0  0  0
  4  3  1  0  0  0
  2  3  1  0  0  0
  2  8  2  0  0  0
  3  5  2  0  0  0
 14 13  2  0  0  0
 14  9  1  0  0  0
 13 12  1  0  0  0
  9  8  1  0  0  0
  9 10  1  0  0  0
  8  7  1  0  0  0
 12 10  2  0  0  0
  5  6  1  0  0  0
  5  7  1  0  0  0
 10 11  1  0  0  0
M  END
> <minimizedAffinity>
-7.27530

$$$$
5UEU_0S6_A_501


 28 31  0  0  0  0  0  0  0  0999 V2000
   24.6800   12.5562  -12.0773 C   0  0  0  0  0  0  0  0  0  0  0  0
   25.1970   11.8823  -13.2567 C   0  0  0  0  0  0  0  0  0  0  0  0
   26.4968   11.3182  -13.4103 C   0  0  0  0  0  0  0  0  0  0  0  0
   27.5329   11.3162  -12.3641 C   0  0  0  0  0  0  0  0  0  0  0  0
   26.6935   10.7483  -14.6543 C   0  0  0  0  0  0  0  0  0  0  0  0
   27.8949   10.0792  -15.1840 C   0  0  0  0  0  0  0  0  0  0  0  0
   25.2978   10.8735  -15.6452 S   0  0  0  0  0  0  0  0  0  0  0  0
   24.4456   11.7094  -14.4056 C   0  0  0  0  0  0  0  0  0  0  0  0
   23.1109   12.0890  -14.5406 N   0  0  0  0  0  0  0  0  0  0  0  0
   22.3689   12.6133  -15.5686 C   0  0  0  0  0  0  0  0  0  0  0  0
   22.9062   13.0273  -16.8766 C   0  0  0  0  0  0  0  0  0  0  0  0
   21.1031   12.6987  -15.2320 N   0  0  0  0  0  0  0  0  0  0  0  0
   20.9815   12.2329  -13.9588 N   0  0  0  0  0  0  0  0  0  0  0  0
   22.1790   11.8681  -13.5568 C   0  0  0  0  0  0  0  0  0  0  0  0
   23.4860   12.3081  -11.6227 N   0  0  0  0  0  0  0  0  0  0  0  0
   22.5812   11.3236  -12.2426 C   0  0  0  0  0  0  0  0  0  0  0  0
   27.9092   16.9139   -9.4806 Cl  0  0  0  0  0  0  0  0  0  0  0  0
   26.9784   15.6522  -10.2215 C   0  0  0  0  0  0  0  0  0  0  0  0
   26.3430   14.7030   -9.4548 C   0  0  0  0  0  0  0  0  0  0  0  0
   25.6005   13.6966  -10.0397 C   0  0  0  0  0  0  0  0  0  0  0  0
   26.8724   15.5860  -11.5899 C   0  0  0  0  0  0  0  0  0  0  0  0
   26.1278   14.5784  -12.1670 C   0  0  0  0  0  0  0  0  0  0  0  0
   25.4807   13.6164  -11.4142 C   0  0  0  0  0  0  0  0  0  0  0  0
   21.3930   11.0749  -11.3367 C   0  0  0  0  0  0  0  0  0  0  0  0
   21.2473    9.6105  -11.0246 C   0  0  0  0  0  0  0  0  0  0  0  0
   21.1094    8.7176  -11.8493 O   0  0  0  0  0  0  0  0  0  0  0  0
   21.2858    9.4388   -9.6761 O   0  0  0  0  0  0  0  0  0  0  0  0
   22.6033    9.2113   -9.1699 C   0  0  0  0  0  0  0  0  0  0  0  0
 17 18  1  0  0  0
 21 18  2  0  0  0
 21 22  1  0  0  0
 18 19  1  0  0  0
 28 27  1  0  0  0
 22 23  2  0  0  0
 19 20  2  0  0  0
 27 25  1  0  0  0
 23 20  1  0  0  0
 23  1  1  0  0  0
 26 25  2  0  0  0
 25 24  1  0  0  0
 15  1  2  0  0  0
 15 16  1  0  0  0
  1  2  1  0  0  0
 24 16  1  0  0  0
 16 14  1  0  0  0
  4  3  1  0  0  0
  2  3  1  0  0  0
  2  8  2  0  0  0
  3  5  2  0  0  0
 14 13  2  0  0  0
 14  9  1  0  0  0
 13 12  1  0  0  0
  9  8  1  0  0  0
  9 10  1  0  0  0
  8  7  1  0  0  0
 12 10  2  0  0  0
  5  6  1  0  0  0
  5  7  1  0  0  0
 10 11  1  0  0  0
M  END
> <minimizedAffinity>
-7.23859

$$$$
5UEU_0S6_A_501


 28 31  0  0  0  0  0  0  0  0999 V2000
   24.6124   12.5326  -12.6665 C   0  0  0  0  0  0  0  0  0  0  0  0
   25.5009   11.8820  -13.6151 C   0  0  0  0  0  0  0  0  0  0  0  0
   26.6462   11.0938  -13.3019 C   0  0  0  0  0  0  0  0  0  0  0  0
   27.1038   10.7961  -11.9344 C   0  0  0  0  0  0  0  0  0  0  0  0
   27.2929   10.6126  -14.4250 C   0  0  0  0  0  0  0  0  0  0  0  0
   28.5026    9.7751  -14.5062 C   0  0  0  0  0  0  0  0  0  0  0  0
   26.5082   11.0950  -15.8731 S   0  0  0  0  0  0  0  0  0  0  0  0
   25.3176   11.9632  -14.9842 C   0  0  0  0  0  0  0  0  0  0  0  0
   24.2437   12.6043  -15.6003 N   0  0  0  0  0  0  0  0  0  0  0  0
   24.1092   13.3537  -16.7417 C   0  0  0  0  0  0  0  0  0  0  0  0
   25.2185   13.7736  -17.6158 C   0  0  0  0  0  0  0  0  0  0  0  0
   22.8489   13.6509  -16.9568 N   0  0  0  0  0  0  0  0  0  0  0  0
   22.1169   13.1033  -15.9484 N   0  0  0  0  0  0  0  0  0  0  0  0
   22.9532   12.4787  -15.1488 C   0  0  0  0  0  0  0  0  0  0  0  0
   23.3191   12.4796  -12.8017 N   0  0  0  0  0  0  0  0  0  0  0  0
   22.6573   11.7492  -13.8976 C   0  0  0  0  0  0  0  0  0  0  0  0
   26.9017   15.9366   -8.2697 Cl  0  0  0  0  0  0  0  0  0  0  0  0
   26.2390   14.9484   -9.5313 C   0  0  0  0  0  0  0  0  0  0  0  0
   25.3509   13.9386   -9.2417 C   0  0  0  0  0  0  0  0  0  0  0  0
   24.8202   13.1493  -10.2424 C   0  0  0  0  0  0  0  0  0  0  0  0
   26.6031   15.1633  -10.8389 C   0  0  0  0  0  0  0  0  0  0  0  0
   26.0677   14.3715  -11.8334 C   0  0  0  0  0  0  0  0  0  0  0  0
   25.1729   13.3530  -11.5631 C   0  0  0  0  0  0  0  0  0  0  0  0
   21.1700   11.6532  -13.6275 C   0  0  0  0  0  0  0  0  0  0  0  0
   20.9020   11.0024  -12.2979 C   0  0  0  0  0  0  0  0  0  0  0  0
   20.3212   11.5228  -11.3554 O   0  0  0  0  0  0  0  0  0  0  0  0
   21.4164    9.7436  -12.3089 O   0  0  0  0  0  0  0  0  0  0  0  0
   21.4470    9.1313  -11.0174 C   0  0  0  0  0  0  0  0  0  0  0  0
 17 18  1  0  0  0
 21 18  2  0  0  0
 21 22  1  0  0  0
 18 19  1  0  0  0
 28 27  1  0  0  0
 22 23  2  0  0  0
 19 20  2  0  0  0
 27 25  1  0  0  0
 23 20  1  0  0  0
 23  1  1  0  0  0
 26 25  2  0  0  0
 25 24  1  0  0  0
 15  1  2  0  0  0
 15 16  1  0  0  0
  1  2  1  0  0  0
 24 16  1  0  0  0
 16 14  1  0  0  0
  4  3  1  0  0  0
  2  3  1  0  0  0
  2  8  2  0  0  0
  3  5  2  0  0  0
 14 13  2  0  0  0
 14  9  1  0  0  0
 13 12  1  0  0  0
  9  8  1  0  0  0
  9 10  1  0  0  0
  8  7  1  0  0  0
 12 10  2  0  0  0
  5  6  1  0  0  0
  5  7  1  0  0  0
 10 11  1  0  0  0
M  END
> <minimizedAffinity>
-7.18410

$$$$
5UEU_0S6_A_501


 28 31  0  0  0  0  0  0  0  0999 V2000
   24.0519   12.8584  -14.9249 C   0  0  0  0  0  0  0  0  0  0  0  0
   23.2210   12.2949  -13.8738 C   0  0  0  0  0  0  0  0  0  0  0  0
   21.8072   12.1192  -13.9122 C   0  0  0  0  0  0  0  0  0  0  0  0
   20.9546   12.4737  -15.0592 C   0  0  0  0  0  0  0  0  0  0  0  0
   21.3019   11.5598  -12.7534 C   0  0  0  0  0  0  0  0  0  0  0  0
   19.9043   11.2341  -12.4185 C   0  0  0  0  0  0  0  0  0  0  0  0
   22.5382   11.2232  -11.6116 S   0  0  0  0  0  0  0  0  0  0  0  0
   23.7408   11.8489  -12.6716 C   0  0  0  0  0  0  0  0  0  0  0  0
   25.0996   11.8218  -12.3605 N   0  0  0  0  0  0  0  0  0  0  0  0
   25.8196   12.0521  -11.2156 C   0  0  0  0  0  0  0  0  0  0  0  0
   25.2549   12.5276   -9.9404 C   0  0  0  0  0  0  0  0  0  0  0  0
   27.0916   11.7901  -11.4056 N   0  0  0  0  0  0  0  0  0  0  0  0
   27.2416   11.3823  -12.6955 N   0  0  0  0  0  0  0  0  0  0  0  0
   26.0518   11.3994  -13.2549 C   0  0  0  0  0  0  0  0  0  0  0  0
   25.1781   12.3048  -15.2697 N   0  0  0  0  0  0  0  0  0  0  0  0
   25.6866   11.0687  -14.6486 C   0  0  0  0  0  0  0  0  0  0  0  0
   22.4633   17.9901  -17.6270 Cl  0  0  0  0  0  0  0  0  0  0  0  0
   22.9238   16.5150  -16.8401 C   0  0  0  0  0  0  0  0  0  0  0  0
   23.0517   16.4573  -15.4716 C   0  0  0  0  0  0  0  0  0  0  0  0
   23.4178   15.2853  -14.8402 C   0  0  0  0  0  0  0  0  0  0  0  0
   23.1726   15.3858  -17.5825 C   0  0  0  0  0  0  0  0  0  0  0  0
   23.5366   14.2182  -16.9445 C   0  0  0  0  0  0  0  0  0  0  0  0
   23.6691   14.1394  -15.5707 C   0  0  0  0  0  0  0  0  0  0  0  0
   26.8651   10.5418  -15.4410 C   0  0  0  0  0  0  0  0  0  0  0  0
   26.4176    9.9567  -16.7527 C   0  0  0  0  0  0  0  0  0  0  0  0
   25.7463    8.9429  -16.8874 O   0  0  0  0  0  0  0  0  0  0  0  0
   26.8860   10.7323  -17.7667 O   0  0  0  0  0  0  0  0  0  0  0  0
   25.8779   11.1040  -18.7097 C   0  0  0  0  0  0  0  0  0  0  0  0
 17 18  1  0  0  0
 21 18  2  0  0  0
 21 22  1  0  0  0
 18 19  1  0  0  0
 28 27  1  0  0  0
 22 23  2  0  0  0
 19 20  2  0  0  0
 27 25  1  0  0  0
 23 20  1  0  0  0
 23  1  1  0  0  0
 26 25  2  0  0  0
 25 24  1  0  0  0
 15  1  2  0  0  0
 15 16  1  0  0  0
  1  2  1  0  0  0
 24 16  1  0  0  0
 16 14  1  0  0  0
  4  3  1  0  0  0
  2  3  1  0  0  0
  2  8  2  0  0  0
  3  5  2  0  0  0
 14 13  2  0  0  0
 14  9  1  0  0  0
 13 12  1  0  0  0
  9  8  1  0  0  0
  9 10  1  0  0  0
  8  7  1  0  0  0
 12 10  2  0  0  0
  5  6  1  0  0  0
  5  7  1  0  0  0
 10 11  1  0  0  0
M  END
> <minimizedAffinity>
-6.75180

$$$$
5UEU_0S6_A_501


 28 31  0  0  0  0  0  0  0  0999 V2000
   23.6093   11.3911  -12.2170 C   0  0  0  0  0  0  0  0  0  0  0  0
   23.1332   11.7129  -13.5520 C   0  0  0  0  0  0  0  0  0  0  0  0
   21.8273   12.1644  -13.9012 C   0  0  0  0  0  0  0  0  0  0  0  0
   20.7404   12.3971  -12.9354 C   0  0  0  0  0  0  0  0  0  0  0  0
   21.6770   12.3820  -15.2580 C   0  0  0  0  0  0  0  0  0  0  0  0
   20.4852   12.8408  -15.9933 C   0  0  0  0  0  0  0  0  0  0  0  0
   23.1236   12.0595  -16.1234 S   0  0  0  0  0  0  0  0  0  0  0  0
   23.9360   11.6107  -14.6743 C   0  0  0  0  0  0  0  0  0  0  0  0
   25.2860   11.2634  -14.6502 N   0  0  0  0  0  0  0  0  0  0  0  0
   26.0932   10.5198  -15.4736 C   0  0  0  0  0  0  0  0  0  0  0  0
   25.6340    9.7579  -16.6482 C   0  0  0  0  0  0  0  0  0  0  0  0
   27.3424   10.5764  -15.0748 N   0  0  0  0  0  0  0  0  0  0  0  0
   27.3868   11.3623  -13.9644 N   0  0  0  0  0  0  0  0  0  0  0  0
   26.1608   11.7706  -13.7215 C   0  0  0  0  0  0  0  0  0  0  0  0
   24.7716   11.7972  -11.7949 N   0  0  0  0  0  0  0  0  0  0  0  0
   25.6781   12.6219  -12.6136 C   0  0  0  0  0  0  0  0  0  0  0  0
   20.3800    7.8859   -8.5504 Cl  0  0  0  0  0  0  0  0  0  0  0  0
   21.3086    8.8914   -9.6151 C   0  0  0  0  0  0  0  0  0  0  0  0
   21.0817    8.8788  -10.9718 C   0  0  0  0  0  0  0  0  0  0  0  0
   21.8181    9.6776  -11.8237 C   0  0  0  0  0  0  0  0  0  0  0  0
   22.2899    9.7099   -9.1095 C   0  0  0  0  0  0  0  0  0  0  0  0
   23.0206   10.5061   -9.9667 C   0  0  0  0  0  0  0  0  0  0  0  0
   22.8068   10.5089  -11.3325 C   0  0  0  0  0  0  0  0  0  0  0  0
   26.8118   13.1460  -11.7568 C   0  0  0  0  0  0  0  0  0  0  0  0
   26.7267   14.6399  -11.6007 C   0  0  0  0  0  0  0  0  0  0  0  0
   26.5789   15.4430  -12.5114 O   0  0  0  0  0  0  0  0  0  0  0  0
   26.8483   14.9554  -10.2835 O   0  0  0  0  0  0  0  0  0  0  0  0
   25.6884   14.6326   -9.5127 C   0  0  0  0  0  0  0  0  0  0  0  0
 17 18  1  0  0  0
 21 18  2  0  0  0
 21 22  1  0  0  0
 18 19  1  0  0  0
 28 27  1  0  0  0
 22 23  2  0  0  0
 19 20  2  0  0  0
 27 25  1  0  0  0
 23 20  1  0  0  0
 23  1  1  0  0  0
 26 25  2  0  0  0
 25 24  1  0  0  0
 15  1  2  0  0  0
 15 16  1  0  0  0
  1  2  1  0  0  0
 24 16  1  0  0  0
 16 14  1  0  0  0
  4  3  1  0  0  0
  2  3  1  0  0  0
  2  8  2  0  0  0
  3  5  2  0  0  0
 14 13  2  0  0  0
 14  9  1  0  0  0
 13 12  1  0  0  0
  9  8  1  0  0  0
  9 10  1  0  0  0
  8  7  1  0  0  0
 12 10  2  0  0  0
  5  6  1  0  0  0
  5  7  1  0  0  0
 10 11  1  0  0  0
M  END
> <minimizedAffinity>
-6.69012

$$$$
5UEU_0S6_A_501


 28 31  0  0  0  0  0  0  0  0999 V2000
   24.2680   11.8045  -14.6084 C   0  0  0  0  0  0  0  0  0  0  0  0
   24.2446   11.7558  -13.1559 C   0  0  0  0  0  0  0  0  0  0  0  0
   23.1990   11.2323  -12.3412 C   0  0  0  0  0  0  0  0  0  0  0  0
   21.9605   10.6290  -12.8611 C   0  0  0  0  0  0  0  0  0  0  0  0
   23.4678   11.3326  -10.9889 C   0  0  0  0  0  0  0  0  0  0  0  0
   22.6356   10.9111   -9.8482 C   0  0  0  0  0  0  0  0  0  0  0  0
   25.0001   12.0459  -10.6906 S   0  0  0  0  0  0  0  0  0  0  0  0
   25.2839   12.2338  -12.3775 C   0  0  0  0  0  0  0  0  0  0  0  0
   26.4798   12.7420  -12.8829 N   0  0  0  0  0  0  0  0  0  0  0  0
   27.3144   13.7643  -12.5079 C   0  0  0  0  0  0  0  0  0  0  0  0
   27.0477   14.7202  -11.4188 C   0  0  0  0  0  0  0  0  0  0  0  0
   28.3945   13.7800  -13.2535 N   0  0  0  0  0  0  0  0  0  0  0  0
   28.2927   12.7611  -14.1503 N   0  0  0  0  0  0  0  0  0  0  0  0
   27.1536   12.1461  -13.9201 C   0  0  0  0  0  0  0  0  0  0  0  0
   25.3294   11.4671  -15.2817 N   0  0  0  0  0  0  0  0  0  0  0  0
   26.5690   10.9946  -14.6395 C   0  0  0  0  0  0  0  0  0  0  0  0
   19.5191   13.8378  -17.6863 Cl  0  0  0  0  0  0  0  0  0  0  0  0
   20.8885   13.2593  -16.7934 C   0  0  0  0  0  0  0  0  0  0  0  0
   21.2071   13.7952  -15.5672 C   0  0  0  0  0  0  0  0  0  0  0  0
   22.2961   13.3380  -14.8522 C   0  0  0  0  0  0  0  0  0  0  0  0
   21.6757   12.2583  -17.3098 C   0  0  0  0  0  0  0  0  0  0  0  0
   22.7613   11.8058  -16.5891 C   0  0  0  0  0  0  0  0  0  0  0  0
   23.0970   12.3302  -15.3549 C   0  0  0  0  0  0  0  0  0  0  0  0
   27.5096   10.4344  -15.6863 C   0  0  0  0  0  0  0  0  0  0  0  0
   26.7462    9.8586  -16.8477 C   0  0  0  0  0  0  0  0  0  0  0  0
   25.9453    8.9360  -16.7853 O   0  0  0  0  0  0  0  0  0  0  0  0
   27.0953   10.5240  -17.9811 O   0  0  0  0  0  0  0  0  0  0  0  0
   26.4567   10.0185  -19.1560 C   0  0  0  0  0  0  0  0  0  0  0  0
 17 18  1  0  0  0
 21 18  2  0  0  0
 21 22  1  0  0  0
 18 19  1  0  0  0
 28 27  1  0  0  0
 22 23  2  0  0  0
 19 20  2  0  0  0
 27 25  1  0  0  0
 23 20  1  0  0  0
 23  1  1  0  0  0
 26 25  2  0  0  0
 25 24  1  0  0  0
 15  1  2  0  0  0
 15 16  1  0  0  0
  1  2  1  0  0  0
 24 16  1  0  0  0
 16 14  1  0  0  0
  4  3  1  0  0  0
  2  3  1  0  0  0
  2  8  2  0  0  0
  3  5  2  0  0  0
 14 13  2  0  0  0
 14  9  1  0  0  0
 13 12  1  0  0  0
  9  8  1  0  0  0
  9 10  1  0  0  0
  8  7  1  0  0  0
 12 10  2  0  0  0
  5  6  1  0  0  0
  5  7  1  0  0  0
 10 11  1  0  0  0
M  END
> <minimizedAffinity>
-6.38497

$$$$
5UEU_0S6_A_501


 28 31  0  0  0  0  0  0  0  0999 V2000
   23.3458   12.2517  -12.7792 C   0  0  0  0  0  0  0  0  0  0  0  0
   23.5294   12.3085  -14.2200 C   0  0  0  0  0  0  0  0  0  0  0  0
   22.5139   12.5216  -15.1970 C   0  0  0  0  0  0  0  0  0  0  0  0
   21.0915   12.7407  -14.8858 C   0  0  0  0  0  0  0  0  0  0  0  0
   23.0012   12.5177  -16.4906 C   0  0  0  0  0  0  0  0  0  0  0  0
   22.2660   12.6976  -17.7549 C   0  0  0  0  0  0  0  0  0  0  0  0
   24.6995   12.2744  -16.5356 S   0  0  0  0  0  0  0  0  0  0  0  0
   24.7667   12.1557  -14.8201 C   0  0  0  0  0  0  0  0  0  0  0  0
   25.9669   12.0037  -14.1271 N   0  0  0  0  0  0  0  0  0  0  0  0
   27.1038   11.2662  -14.3414 C   0  0  0  0  0  0  0  0  0  0  0  0
   27.2868   10.2866  -15.4267 C   0  0  0  0  0  0  0  0  0  0  0  0
   28.0184   11.5505  -13.4439 N   0  0  0  0  0  0  0  0  0  0  0  0
   27.4977   12.4876  -12.6053 N   0  0  0  0  0  0  0  0  0  0  0  0
   26.2794   12.7550  -13.0213 C   0  0  0  0  0  0  0  0  0  0  0  0
   24.1537   12.8699  -11.9674 N   0  0  0  0  0  0  0  0  0  0  0  0
   25.2906   13.6836  -12.4337 C   0  0  0  0  0  0  0  0  0  0  0  0
   19.0787    8.7543  -10.3879 Cl  0  0  0  0  0  0  0  0  0  0  0  0
   20.3027    9.7692  -11.0798 C   0  0  0  0  0  0  0  0  0  0  0  0
   20.0645   11.1050  -11.3066 C   0  0  0  0  0  0  0  0  0  0  0  0
   21.0357   11.9174  -11.8568 C   0  0  0  0  0  0  0  0  0  0  0  0
   21.5268    9.2426  -11.4155 C   0  0  0  0  0  0  0  0  0  0  0  0
   22.4926   10.0608  -11.9637 C   0  0  0  0  0  0  0  0  0  0  0  0
   22.2732   11.4055  -12.1979 C   0  0  0  0  0  0  0  0  0  0  0  0
   25.8644   14.4765  -11.2778 C   0  0  0  0  0  0  0  0  0  0  0  0
   25.5735   13.8051   -9.9633 C   0  0  0  0  0  0  0  0  0  0  0  0
   25.9761   12.7009   -9.6241 O   0  0  0  0  0  0  0  0  0  0  0  0
   24.7837   14.6204   -9.2144 O   0  0  0  0  0  0  0  0  0  0  0  0
   24.6508   14.1921   -7.8570 C   0  0  0  0  0  0  0  0  0  0  0  0
 17 18  1  0  0  0
 21 18  2  0  0  0
 21 22  1  0  0  0
 18 19  1  0  0  0
 28 27  1  0  0  0
 22 23  2  0  0  0
 19 20  2  0  0  0
 27 25  1  0  0  0
 23 20  1  0  0  0
 23  1  1  0  0  0
 26 25  2  0  0  0
 25 24  1  0  0  0
 15  1  2  0  0  0
 15 16  1  0  0  0
  1  2  1  0  0  0
 24 16  1  0  0  0
 16 14  1  0  0  0
  4  3  1  0  0  0
  2  3  1  0  0  0
  2  8  2  0  0  0
  3  5  2  0  0  0
 14 13  2  0  0  0
 14  9  1  0  0  0
 13 12  1  0  0  0
  9  8  1  0  0  0
  9 10  1  0  0  0
  8  7  1  0  0  0
 12 10  2  0  0  0
  5  6  1  0  0  0
  5  7  1  0  0  0
 10 11  1  0  0  0
M  END
> <minimizedAffinity>
-6.25288

$$$$
5UEU_0S6_A_501


 28 31  0  0  0  0  0  0  0  0999 V2000
   24.9385   12.5019  -13.7621 C   0  0  0  0  0  0  0  0  0  0  0  0
   24.8036   12.4245  -12.3170 C   0  0  0  0  0  0  0  0  0  0  0  0
   23.8157   11.6938  -11.5950 C   0  0  0  0  0  0  0  0  0  0  0  0
   22.7666   10.8705  -12.2193 C   0  0  0  0  0  0  0  0  0  0  0  0
   23.9456   11.8210  -10.2246 C   0  0  0  0  0  0  0  0  0  0  0  0
   23.1190   11.2262   -9.1595 C   0  0  0  0  0  0  0  0  0  0  0  0
   25.2789   12.8131   -9.7960 S   0  0  0  0  0  0  0  0  0  0  0  0
   25.6608   13.0817  -11.4523 C   0  0  0  0  0  0  0  0  0  0  0  0
   26.7726   13.8213  -11.8533 N   0  0  0  0  0  0  0  0  0  0  0  0
   27.3574   14.9796  -11.4076 C   0  0  0  0  0  0  0  0  0  0  0  0
   26.8192   15.8464  -10.3446 C   0  0  0  0  0  0  0  0  0  0  0  0
   28.4723   15.2177  -12.0582 N   0  0  0  0  0  0  0  0  0  0  0  0
   28.6466   14.2142  -12.9610 N   0  0  0  0  0  0  0  0  0  0  0  0
   27.6341   13.3857  -12.8295 C   0  0  0  0  0  0  0  0  0  0  0  0
   26.0979   12.3889  -14.3424 N   0  0  0  0  0  0  0  0  0  0  0  0
   27.3477   12.1551  -13.5970 C   0  0  0  0  0  0  0  0  0  0  0  0
   20.1370   13.6147  -17.2070 Cl  0  0  0  0  0  0  0  0  0  0  0  0
   21.5215   13.3027  -16.2105 C   0  0  0  0  0  0  0  0  0  0  0  0
   21.8365   14.1357  -15.1620 C   0  0  0  0  0  0  0  0  0  0  0  0
   22.9373   13.8915  -14.3654 C   0  0  0  0  0  0  0  0  0  0  0  0
   22.3244   12.2171  -16.4656 C   0  0  0  0  0  0  0  0  0  0  0  0
   23.4218   11.9789  -15.6647 C   0  0  0  0  0  0  0  0  0  0  0  0
   23.7542   12.8030  -14.6057 C   0  0  0  0  0  0  0  0  0  0  0  0
   28.4637   11.8066  -14.5599 C   0  0  0  0  0  0  0  0  0  0  0  0
   28.7758   10.3356  -14.5175 C   0  0  0  0  0  0  0  0  0  0  0  0
   27.9775    9.4462  -14.2564 O   0  0  0  0  0  0  0  0  0  0  0  0
   30.0915   10.1531  -14.8090 O   0  0  0  0  0  0  0  0  0  0  0  0
   30.9598   10.4154  -13.7040 C   0  0  0  0  0  0  0  0  0  0  0  0
 17 18  1  0  0  0
 21 18  2  0  0  0
 21 22  1  0  0  0
 18 19  1  0  0  0
 28 27  1  0  0  0
 22 23  2  0  0  0
 19 20  2  0  0  0
 27 25  1  0  0  0
 23 20  1  0  0  0
 23  1  1  0  0  0
 26 25  2  0  0  0
 25 24  1  0  0  0
 15  1  2  0  0  0
 15 16  1  0  0  0
  1  2  1  0  0  0
 24 16  1  0  0  0
 16 14  1  0  0  0
  4  3  1  0  0  0
  2  3  1  0  0  0
  2  8  2  0  0  0
  3  5  2  0  0  0
 14 13  2  0  0  0
 14  9  1  0  0  0
 13 12  1  0  0  0
  9  8  1  0  0  0
  9 10  1  0  0  0
  8  7  1  0  0  0
 12 10  2  0  0  0
  5  6  1  0  0  0
  5  7  1  0  0  0
 10 11  1  0  0  0
M  END
> <minimizedAffinity>
-6.03369

$$$$
