4LOI_1YC_B_401


 54 60  0  0  0  0  0  0  0  0999 V2000
   43.7375   35.0896   15.5846 C   0  0  0  0  0  0  0  0  0  0  0  0
   43.0233   35.2254   16.7901 O   0  0  0  0  0  0  0  0  0  0  0  0
   41.6070   34.9111   16.5609 C   0  0  0  0  0  0  0  0  0  0  0  0
   41.1886   33.5912   17.2390 C   0  0  0  0  0  0  0  0  0  0  0  0
   42.0169   32.5316   16.8157 O   0  0  0  0  0  0  0  0  0  0  0  0
   41.6824   30.9722   17.1436 P   0  0  0  0  0  0  0  0  0  0  0  0
   40.7204   30.5375   15.9978 O   0  0  0  0  0  0  0  0  0  0  0  0
   40.9342   30.9259   18.4636 O   0  0  0  0  0  0  0  0  0  0  0  0
   43.0282   30.2492   17.0721 O   0  0  0  0  0  0  0  0  0  0  0  0
   41.4523   34.8079   15.0864 C   0  0  0  0  0  0  0  0  0  0  0  0
   41.1669   36.1003   14.5652 O   0  0  0  0  0  0  0  0  0  0  0  0
   42.8091   34.3631   14.6494 C   0  0  0  0  0  0  0  0  0  0  0  0
   43.0500   34.7599   13.2792 O   0  0  0  0  0  0  0  0  0  0  0  0
   43.1900   33.6271   12.1442 P   0  0  0  0  0  0  0  0  0  0  0  0
   44.6736   33.1441   12.2676 O   0  0  0  0  0  0  0  0  0  0  0  0
   42.8357   34.1698   10.7696 O   0  0  0  0  0  0  0  0  0  0  0  0
   42.2437   32.3463   12.5125 O   0  0  0  0  0  0  0  0  0  0  0  0
   41.0134   32.2956   11.9543 C   0  0  0  0  0  0  0  0  0  0  0  0
   40.2630   31.0960   12.5254 C   0  0  0  0  0  0  0  0  0  0  0  0
   41.0732   29.8952   12.4940 O   0  0  0  0  0  0  0  0  0  0  0  0
   40.0047   31.3661   13.9646 C   0  0  0  0  0  0  0  0  0  0  0  0
   38.8279   30.6912   14.4031 O   0  0  0  0  0  0  0  0  0  0  0  0
   41.1370   30.7952   14.6556 C   0  0  0  0  0  0  0  0  0  0  0  0
   41.3601   29.5306   13.8142 C   0  0  0  0  0  0  0  0  0  0  0  0
   40.1020   31.4173   18.3810 H   0  0  0  0  0  0  0  0  0  0  0  0
   41.8607   36.7201   14.8397 H   0  0  0  0  0  0  0  0  0  0  0  0
   44.8440   32.4517   11.6100 H   0  0  0  0  0  0  0  0  0  0  0  0
   38.9248   29.7386   14.2483 H   0  0  0  0  0  0  0  0  0  0  0  0
   49.1668   32.8480   15.8499 O   0  0  0  0  0  0  0  0  0  0  0  0
   48.3691   33.7557   15.6144 C   0  0  0  0  0  0  0  0  0  0  0  0
   48.9070   34.9581   15.1941 N   0  0  0  0  0  0  0  0  0  0  0  0
   48.0540   36.0004   14.8993 C   0  0  0  0  0  0  0  0  0  0  0  0
   48.5733   37.1503   14.4878 N   0  0  0  0  0  0  0  0  0  0  0  0
   46.7219   35.8350   15.0788 N   0  0  0  0  0  0  0  0  0  0  0  0
   46.2134   34.6533   15.5154 C   0  0  0  0  0  0  0  0  0  0  0  0
   47.0278   33.6275   15.7830 C   0  0  0  0  0  0  0  0  0  0  0  0
   46.2661   32.6207   16.2280 N   0  0  0  0  0  0  0  0  0  0  0  0
   44.9861   33.0120   16.1926 C   0  0  0  0  0  0  0  0  0  0  0  0
   44.9649   34.2783   15.7879 N   0  0  0  0  0  0  0  0  0  0  0  0
   49.8815   35.0681   15.1070 H   0  0  0  0  0  0  0  0  0  0  0  0
   47.9828   37.9078   14.2718 H   0  0  0  0  0  0  0  0  0  0  0  0
   49.5491   37.2457   14.3986 H   0  0  0  0  0  0  0  0  0  0  0  0
   42.7407   29.1154   13.7599 N   0  0  0  0  0  0  0  0  0  0  0  0
   43.7983   29.8444   13.3587 C   0  0  0  0  0  0  0  0  0  0  0  0
   44.9120   29.1028   13.4901 N   0  0  0  0  0  0  0  0  0  0  0  0
   44.5548   27.8986   13.9744 C   0  0  0  0  0  0  0  0  0  0  0  0
   43.2050   27.9137   14.1292 C   0  0  0  0  0  0  0  0  0  0  0  0
   42.5451   26.8461   14.6172 N   0  0  0  0  0  0  0  0  0  0  0  0
   43.2904   25.7056   14.9180 C   0  0  0  0  0  0  0  0  0  0  0  0
   44.6580   25.6987   14.7420 N   0  0  0  0  0  0  0  0  0  0  0  0
   45.2661   26.7922   14.2670 C   0  0  0  0  0  0  0  0  0  0  0  0
   46.5996   26.8004   14.0846 N   0  0  0  0  0  0  0  0  0  0  0  0
   47.0437   27.6066   13.7351 H   0  0  0  0  0  0  0  0  0  0  0  0
   47.1310   26.0003   14.3008 H   0  0  0  0  0  0  0  0  0  0  0  0
 16 14  2  0  0  0
 18 19  1  0  0  0
 18 17  1  0  0  0
 14 15  1  0  0  0
 14 17  1  0  0  0
 14 13  1  0  0  0
 20 19  1  0  0  0
 20 24  1  0  0  0
 19 21  1  0  0  0
 44 45  2  0  0  0
 44 43  1  0  0  0
 13 12  1  0  0  0
 45 46  1  0  0  0
 43 24  1  0  0  0
 43 47  1  0  0  0
 24 23  1  0  0  0
 21 22  1  0  0  0
 21 23  1  0  0  0
 46 47  2  0  0  0
 46 51  1  0  0  0
 47 48  1  0  0  0
 52 51  1  0  0  0
 51 50  2  0  0  0
 33 32  1  0  0  0
 48 49  2  0  0  0
 23  7  1  0  0  0
 11 10  1  0  0  0
 50 49  1  0  0  0
 12 10  1  0  0  0
 12  1  1  0  0  0
 32 34  2  0  0  0
 32 31  1  0  0  0
 34 35  1  0  0  0
 10  3  1  0  0  0
 31 30  1  0  0  0
 35 36  2  0  0  0
 35 39  1  0  0  0
 30 36  1  0  0  0
 30 29  2  0  0  0
  1 39  1  0  0  0
  1  2  1  0  0  0
  7  6  1  0  0  0
 36 37  1  0  0  0
 39 38  1  0  0  0
 38 37  2  0  0  0
  3  2  1  0  0  0
  3  4  1  0  0  0
  5  6  1  0  0  0
  5  4  1  0  0  0
  9  6  2  0  0  0
  6  8  1  0  0  0
 31 40  1  0  0  0
 33 41  1  0  0  0
 33 42  1  0  0  0
  8 25  1  0  0  0
 11 26  1  0  0  0
 15 27  1  0  0  0
 22 28  1  0  0  0
 52 53  1  0  0  0
 52 54  1  0  0  0
M  END
> <minimizedAffinity>
-16.36184

$$$$
4LOI_1YC_B_401


 54 60  0  0  0  0  0  0  0  0999 V2000
   41.2410   29.5967   13.7794 C   0  0  0  0  0  0  0  0  0  0  0  0
   40.8296   29.9989   12.4945 O   0  0  0  0  0  0  0  0  0  0  0  0
   40.1678   31.3076   12.5771 C   0  0  0  0  0  0  0  0  0  0  0  0
   41.0089   32.4248   11.9281 C   0  0  0  0  0  0  0  0  0  0  0  0
   42.2968   32.4721   12.5001 O   0  0  0  0  0  0  0  0  0  0  0  0
   43.3359   33.6942   12.2211 P   0  0  0  0  0  0  0  0  0  0  0  0
   42.9453   34.7768   13.2712 O   0  0  0  0  0  0  0  0  0  0  0  0
   43.0576   34.2310   10.8286 O   0  0  0  0  0  0  0  0  0  0  0  0
   44.7241   33.1092   12.4849 O   0  0  0  0  0  0  0  0  0  0  0  0
   39.9839   31.5735   14.0277 C   0  0  0  0  0  0  0  0  0  0  0  0
   38.7450   31.0107   14.4420 O   0  0  0  0  0  0  0  0  0  0  0  0
   41.1215   30.8250   14.6402 C   0  0  0  0  0  0  0  0  0  0  0  0
   40.8073   30.4640   16.0055 O   0  0  0  0  0  0  0  0  0  0  0  0
   41.6436   31.1304   17.2088 P   0  0  0  0  0  0  0  0  0  0  0  0
   42.9533   30.2768   17.2821 O   0  0  0  0  0  0  0  0  0  0  0  0
   40.8461   31.1394   18.5025 O   0  0  0  0  0  0  0  0  0  0  0  0
   42.0913   32.6495   16.8047 O   0  0  0  0  0  0  0  0  0  0  0  0
   41.3032   33.6662   17.2205 C   0  0  0  0  0  0  0  0  0  0  0  0
   41.8326   34.9712   16.6332 C   0  0  0  0  0  0  0  0  0  0  0  0
   43.2635   35.0998   16.8220 O   0  0  0  0  0  0  0  0  0  0  0  0
   41.6267   34.9225   15.1614 C   0  0  0  0  0  0  0  0  0  0  0  0
   41.4694   36.2355   14.6285 O   0  0  0  0  0  0  0  0  0  0  0  0
   42.8513   34.3654   14.6363 C   0  0  0  0  0  0  0  0  0  0  0  0
   43.8747   35.0340   15.5650 C   0  0  0  0  0  0  0  0  0  0  0  0
   42.1504   34.5718   10.7888 H   0  0  0  0  0  0  0  0  0  0  0  0
   38.7263   30.0677   14.2155 H   0  0  0  0  0  0  0  0  0  0  0  0
   43.5213   30.6163   17.9914 H   0  0  0  0  0  0  0  0  0  0  0  0
   42.2508   36.7679   14.8448 H   0  0  0  0  0  0  0  0  0  0  0  0
   46.3692   26.7483   14.1797 O   0  0  0  0  0  0  0  0  0  0  0  0
   45.1414   26.8046   14.2510 C   0  0  0  0  0  0  0  0  0  0  0  0
   44.4863   25.6305   14.5739 N   0  0  0  0  0  0  0  0  0  0  0  0
   43.1120   25.6457   14.6847 C   0  0  0  0  0  0  0  0  0  0  0  0
   42.4873   24.5190   15.0033 N   0  0  0  0  0  0  0  0  0  0  0  0
   42.4408   26.7926   14.4241 N   0  0  0  0  0  0  0  0  0  0  0  0
   43.1003   27.9309   14.0849 C   0  0  0  0  0  0  0  0  0  0  0  0
   44.4341   27.9354   13.9963 C   0  0  0  0  0  0  0  0  0  0  0  0
   44.8029   29.1629   13.6100 N   0  0  0  0  0  0  0  0  0  0  0  0
   43.7037   29.9201   13.5041 C   0  0  0  0  0  0  0  0  0  0  0  0
   42.6555   29.1439   13.7619 N   0  0  0  0  0  0  0  0  0  0  0  0
   44.9918   24.7989   14.7221 H   0  0  0  0  0  0  0  0  0  0  0  0
   41.5065   24.5069   15.0878 H   0  0  0  0  0  0  0  0  0  0  0  0
   43.0046   23.6953   15.1553 H   0  0  0  0  0  0  0  0  0  0  0  0
   45.0478   34.2274   15.7991 N   0  0  0  0  0  0  0  0  0  0  0  0
   45.0995   32.9999   16.3481 C   0  0  0  0  0  0  0  0  0  0  0  0
   46.3772   32.5820   16.3582 N   0  0  0  0  0  0  0  0  0  0  0  0
   47.1361   33.5521   15.8149 C   0  0  0  0  0  0  0  0  0  0  0  0
   46.3030   34.5720   15.4802 C   0  0  0  0  0  0  0  0  0  0  0  0
   46.7683   35.6916   14.8943 N   0  0  0  0  0  0  0  0  0  0  0  0
   48.1440   35.7879   14.6819 C   0  0  0  0  0  0  0  0  0  0  0  0
   48.9802   34.7517   15.0401 N   0  0  0  0  0  0  0  0  0  0  0  0
   48.4634   33.6546   15.6065 C   0  0  0  0  0  0  0  0  0  0  0  0
   49.2662   32.6361   15.9666 N   0  0  0  0  0  0  0  0  0  0  0  0
   48.8828   31.8306   16.3830 H   0  0  0  0  0  0  0  0  0  0  0  0
   50.2369   32.6966   15.8136 H   0  0  0  0  0  0  0  0  0  0  0  0
 16 14  2  0  0  0
 18 19  1  0  0  0
 18 17  1  0  0  0
 14 15  1  0  0  0
 14 17  1  0  0  0
 14 13  1  0  0  0
 20 19  1  0  0  0
 20 24  1  0  0  0
 19 21  1  0  0  0
 44 45  2  0  0  0
 44 43  1  0  0  0
 13 12  1  0  0  0
 45 46  1  0  0  0
 43 24  1  0  0  0
 43 47  1  0  0  0
 24 23  1  0  0  0
 21 22  1  0  0  0
 21 23  1  0  0  0
 46 47  2  0  0  0
 46 51  1  0  0  0
 47 48  1  0  0  0
 52 51  1  0  0  0
 51 50  2  0  0  0
 33 32  1  0  0  0
 48 49  2  0  0  0
 23  7  1  0  0  0
 11 10  1  0  0  0
 50 49  1  0  0  0
 12 10  1  0  0  0
 12  1  1  0  0  0
 32 34  2  0  0  0
 32 31  1  0  0  0
 34 35  1  0  0  0
 10  3  1  0  0  0
 31 30  1  0  0  0
 35 36  2  0  0  0
 35 39  1  0  0  0
 30 36  1  0  0  0
 30 29  2  0  0  0
  1 39  1  0  0  0
  1  2  1  0  0  0
  7  6  1  0  0  0
 36 37  1  0  0  0
 39 38  1  0  0  0
 38 37  2  0  0  0
  3  2  1  0  0  0
  3  4  1  0  0  0
  5  6  1  0  0  0
  5  4  1  0  0  0
  9  6  2  0  0  0
  6  8  1  0  0  0
 31 40  1  0  0  0
 33 41  1  0  0  0
 33 42  1  0  0  0
  8 25  1  0  0  0
 11 26  1  0  0  0
 15 27  1  0  0  0
 22 28  1  0  0  0
 52 53  1  0  0  0
 52 54  1  0  0  0
M  END
> <minimizedAffinity>
-15.99151

$$$$
