3KGP_4AZ_A_4069


 14 14  0  0  0  0  0  0  0  0999 V2000
  -28.3746   87.3195  -10.7141 C   0  0  0  0  0  0  0  0  0  0  0  0
  -29.3298   87.5807   -9.6688 C   0  0  0  0  0  0  0  0  0  0  0  0
  -30.5198   88.2728   -9.9534 C   0  0  0  0  0  0  0  0  0  0  0  0
  -30.7819   88.7131  -11.2680 C   0  0  0  0  0  0  0  0  0  0  0  0
  -29.8499   88.4582  -12.2952 C   0  0  0  0  0  0  0  0  0  0  0  0
  -28.6586   87.7681  -12.0244 C   0  0  0  0  0  0  0  0  0  0  0  0
  -27.2606   86.6624  -10.4104 C   0  0  0  0  0  0  0  0  0  0  0  0
  -26.4036   87.0548   -9.6825 O   0  0  0  0  0  0  0  0  0  0  0  0
  -26.7953   85.5412  -10.7831 O   0  0  0  0  0  0  0  0  0  0  0  0
  -26.4936   87.8850   -9.2575 H   0  0  0  0  0  0  0  0  0  0  0  0
  -31.7828   90.6796  -12.3473 N   0  0  0  0  0  0  0  0  0  0  0  0
  -32.0629   89.4538  -11.5744 C   0  0  0  0  0  0  0  0  0  0  0  0
  -32.6580   91.1650  -12.5441 H   0  0  0  0  0  0  0  0  0  0  0  0
  -31.3269   90.4312  -13.2253 H   0  0  0  0  0  0  0  0  0  0  0  0
  9  7  2  0  0  0
  7  1  1  0  0  0
  7  8  1  0  0  0
  6  1  2  0  0  0
  1  2  1  0  0  0
 11 12  1  0  0  0
  2  3  2  0  0  0
  4  3  1  0  0  0
  5  4  2  0  0  0
  4 12  1  0  0  0
  6  5  1  0  0  0
  8 10  1  0  0  0
 11 13  1  0  0  0
 11 14  1  0  0  0
M  END
> <minimizedAffinity>
-6.06671

$$$$
3KGP_4AZ_A_4069


 14 14  0  0  0  0  0  0  0  0999 V2000
  -30.8537   88.9312  -11.2743 C   0  0  0  0  0  0  0  0  0  0  0  0
  -29.9659   88.6959  -12.3832 C   0  0  0  0  0  0  0  0  0  0  0  0
  -28.8239   87.8928  -12.2184 C   0  0  0  0  0  0  0  0  0  0  0  0
  -28.5452   87.3131  -10.9626 C   0  0  0  0  0  0  0  0  0  0  0  0
  -29.4127   87.5396   -9.8742 C   0  0  0  0  0  0  0  0  0  0  0  0
  -30.5560   88.3388  -10.0256 C   0  0  0  0  0  0  0  0  0  0  0  0
  -31.9241   89.6946  -11.4650 C   0  0  0  0  0  0  0  0  0  0  0  0
  -32.2277   90.6367  -10.8027 O   0  0  0  0  0  0  0  0  0  0  0  0
  -32.8741   89.6482  -12.3063 O   0  0  0  0  0  0  0  0  0  0  0  0
  -31.6829   90.9021  -10.0880 H   0  0  0  0  0  0  0  0  0  0  0  0
  -26.4363   87.0014   -9.7424 N   0  0  0  0  0  0  0  0  0  0  0  0
  -27.3196   86.4469  -10.7868 C   0  0  0  0  0  0  0  0  0  0  0  0
  -25.6161   86.4041   -9.6384 H   0  0  0  0  0  0  0  0  0  0  0  0
  -26.9411   87.0429   -8.8570 H   0  0  0  0  0  0  0  0  0  0  0  0
  9  7  2  0  0  0
  7  1  1  0  0  0
  7  8  1  0  0  0
  6  1  2  0  0  0
  1  2  1  0  0  0
 11 12  1  0  0  0
  2  3  2  0  0  0
  4  3  1  0  0  0
  5  4  2  0  0  0
  4 12  1  0  0  0
  6  5  1  0  0  0
  8 10  1  0  0  0
 11 13  1  0  0  0
 11 14  1  0  0  0
M  END
> <minimizedAffinity>
-6.01643

$$$$
3KGP_4AZ_A_4069


 14 14  0  0  0  0  0  0  0  0999 V2000
  -31.0476   88.8087  -11.4237 C   0  0  0  0  0  0  0  0  0  0  0  0
  -30.7067   88.3308  -10.1090 C   0  0  0  0  0  0  0  0  0  0  0  0
  -29.7134   87.3492   -9.9476 C   0  0  0  0  0  0  0  0  0  0  0  0
  -29.0457   86.8298  -11.0768 C   0  0  0  0  0  0  0  0  0  0  0  0
  -29.3753   87.2960  -12.3662 C   0  0  0  0  0  0  0  0  0  0  0  0
  -30.3645   88.2757  -12.5409 C   0  0  0  0  0  0  0  0  0  0  0  0
  -31.9907   89.7372  -11.5401 C   0  0  0  0  0  0  0  0  0  0  0  0
  -32.1252   90.6790  -10.8238 O   0  0  0  0  0  0  0  0  0  0  0  0
  -32.9592   89.8819  -12.3484 O   0  0  0  0  0  0  0  0  0  0  0  0
  -31.5262   90.8194  -10.1171 H   0  0  0  0  0  0  0  0  0  0  0  0
  -28.5141   84.6000  -10.1942 N   0  0  0  0  0  0  0  0  0  0  0  0
  -27.9753   85.7774  -10.9026 C   0  0  0  0  0  0  0  0  0  0  0  0
  -27.7783   83.9019  -10.0863 H   0  0  0  0  0  0  0  0  0  0  0  0
  -29.2839   84.2022  -10.7324 H   0  0  0  0  0  0  0  0  0  0  0  0
  9  7  2  0  0  0
  7  1  1  0  0  0
  7  8  1  0  0  0
  6  1  2  0  0  0
  1  2  1  0  0  0
 11 12  1  0  0  0
  2  3  2  0  0  0
  4  3  1  0  0  0
  5  4  2  0  0  0
  4 12  1  0  0  0
  6  5  1  0  0  0
  8 10  1  0  0  0
 11 13  1  0  0  0
 11 14  1  0  0  0
M  END
> <minimizedAffinity>
-6.01594

$$$$
3KGP_4AZ_A_4069


 14 14  0  0  0  0  0  0  0  0999 V2000
  -29.9877   88.5041  -11.3559 C   0  0  0  0  0  0  0  0  0  0  0  0
  -29.5837   87.9380  -10.0952 C   0  0  0  0  0  0  0  0  0  0  0  0
  -28.4574   87.0997  -10.0234 C   0  0  0  0  0  0  0  0  0  0  0  0
  -27.7179   86.8116  -11.1900 C   0  0  0  0  0  0  0  0  0  0  0  0
  -28.1091   87.3650  -12.4266 C   0  0  0  0  0  0  0  0  0  0  0  0
  -29.2309   88.2035  -12.5116 C   0  0  0  0  0  0  0  0  0  0  0  0
  -31.0565   89.2925  -11.3877 C   0  0  0  0  0  0  0  0  0  0  0  0
  -31.2905   90.1056  -12.2258 O   0  0  0  0  0  0  0  0  0  0  0  0
  -32.0453   89.4321  -10.6034 O   0  0  0  0  0  0  0  0  0  0  0  0
  -30.7031   90.2173  -12.9472 H   0  0  0  0  0  0  0  0  0  0  0  0
  -25.7080   86.2196   -9.9079 N   0  0  0  0  0  0  0  0  0  0  0  0
  -26.5051   85.9135  -11.1118 C   0  0  0  0  0  0  0  0  0  0  0  0
  -24.8952   85.6044   -9.8727 H   0  0  0  0  0  0  0  0  0  0  0  0
  -26.2799   86.0753   -9.0758 H   0  0  0  0  0  0  0  0  0  0  0  0
  9  7  2  0  0  0
  7  1  1  0  0  0
  7  8  1  0  0  0
  6  1  2  0  0  0
  1  2  1  0  0  0
 11 12  1  0  0  0
  2  3  2  0  0  0
  4  3  1  0  0  0
  5  4  2  0  0  0
  4 12  1  0  0  0
  6  5  1  0  0  0
  8 10  1  0  0  0
 11 13  1  0  0  0
 11 14  1  0  0  0
M  END
> <minimizedAffinity>
-5.70912

$$$$
3KGP_4AZ_A_4069


 14 14  0  0  0  0  0  0  0  0999 V2000
  -28.6524   85.5433  -11.0548 C   0  0  0  0  0  0  0  0  0  0  0  0
  -29.0738   86.2969   -9.9026 C   0  0  0  0  0  0  0  0  0  0  0  0
  -29.8254   87.4742  -10.0622 C   0  0  0  0  0  0  0  0  0  0  0  0
  -30.1703   87.9203  -11.3556 C   0  0  0  0  0  0  0  0  0  0  0  0
  -29.7610   87.1845  -12.4868 C   0  0  0  0  0  0  0  0  0  0  0  0
  -29.0109   86.0077  -12.3412 C   0  0  0  0  0  0  0  0  0  0  0  0
  -27.9439   84.4352  -10.8679 C   0  0  0  0  0  0  0  0  0  0  0  0
  -28.3839   83.3837  -10.5230 O   0  0  0  0  0  0  0  0  0  0  0  0
  -26.7029   84.1825  -10.9608 O   0  0  0  0  0  0  0  0  0  0  0  0
  -29.3042   83.2863  -10.3763 H   0  0  0  0  0  0  0  0  0  0  0  0
  -32.0969   89.2203  -10.5608 N   0  0  0  0  0  0  0  0  0  0  0  0
  -30.9814   89.1837  -11.5267 C   0  0  0  0  0  0  0  0  0  0  0  0
  -32.6318   90.0789  -10.6915 H   0  0  0  0  0  0  0  0  0  0  0  0
  -31.7254   89.1924   -9.6112 H   0  0  0  0  0  0  0  0  0  0  0  0
  9  7  2  0  0  0
  7  1  1  0  0  0
  7  8  1  0  0  0
  6  1  2  0  0  0
  1  2  1  0  0  0
 11 12  1  0  0  0
  2  3  2  0  0  0
  4  3  1  0  0  0
  5  4  2  0  0  0
  4 12  1  0  0  0
  6  5  1  0  0  0
  8 10  1  0  0  0
 11 13  1  0  0  0
 11 14  1  0  0  0
M  END
> <minimizedAffinity>
-5.18844

$$$$
3KGP_4AZ_A_4069


 14 14  0  0  0  0  0  0  0  0999 V2000
  -30.1131   88.1730  -10.9762 C   0  0  0  0  0  0  0  0  0  0  0  0
  -29.9927   88.0701  -12.4073 C   0  0  0  0  0  0  0  0  0  0  0  0
  -28.8897   87.4131  -12.9800 C   0  0  0  0  0  0  0  0  0  0  0  0
  -27.8962   86.8504  -12.1511 C   0  0  0  0  0  0  0  0  0  0  0  0
  -28.0108   86.9475  -10.7489 C   0  0  0  0  0  0  0  0  0  0  0  0
  -29.1069   87.6002  -10.1648 C   0  0  0  0  0  0  0  0  0  0  0  0
  -31.1685   88.8001  -10.4684 C   0  0  0  0  0  0  0  0  0  0  0  0
  -31.7100   88.5234   -9.4444 O   0  0  0  0  0  0  0  0  0  0  0  0
  -31.8741   89.7704  -10.8844 O   0  0  0  0  0  0  0  0  0  0  0  0
  -31.3842   87.8206   -8.9172 H   0  0  0  0  0  0  0  0  0  0  0  0
  -27.0432   84.7315  -13.0544 N   0  0  0  0  0  0  0  0  0  0  0  0
  -26.7126   86.1409  -12.7669 C   0  0  0  0  0  0  0  0  0  0  0  0
  -26.2335   84.2700  -13.4689 H   0  0  0  0  0  0  0  0  0  0  0  0
  -27.8273   84.6921  -13.7056 H   0  0  0  0  0  0  0  0  0  0  0  0
  9  7  2  0  0  0
  7  1  1  0  0  0
  7  8  1  0  0  0
  6  1  2  0  0  0
  1  2  1  0  0  0
 11 12  1  0  0  0
  2  3  2  0  0  0
  4  3  1  0  0  0
  5  4  2  0  0  0
  4 12  1  0  0  0
  6  5  1  0  0  0
  8 10  1  0  0  0
 11 13  1  0  0  0
 11 14  1  0  0  0
M  END
> <minimizedAffinity>
-5.08375

$$$$
3KGP_4AZ_A_4069


 14 14  0  0  0  0  0  0  0  0999 V2000
  -29.5552   87.4651  -10.9615 C   0  0  0  0  0  0  0  0  0  0  0  0
  -29.0130   86.3961  -10.1638 C   0  0  0  0  0  0  0  0  0  0  0  0
  -28.6367   85.1831  -10.7665 C   0  0  0  0  0  0  0  0  0  0  0  0
  -28.7891   85.0107  -12.1586 C   0  0  0  0  0  0  0  0  0  0  0  0
  -29.3183   86.0556  -12.9439 C   0  0  0  0  0  0  0  0  0  0  0  0
  -29.6973   87.2713  -12.3547 C   0  0  0  0  0  0  0  0  0  0  0  0
  -29.9000   88.5983  -10.3597 C   0  0  0  0  0  0  0  0  0  0  0  0
  -29.2707   89.1498   -9.5124 O   0  0  0  0  0  0  0  0  0  0  0  0
  -30.9146   89.3543  -10.4670 O   0  0  0  0  0  0  0  0  0  0  0  0
  -28.4510   88.7937   -9.2308 H   0  0  0  0  0  0  0  0  0  0  0  0
  -29.2672   82.6108  -12.3717 N   0  0  0  0  0  0  0  0  0  0  0  0
  -28.3810   83.7081  -12.8067 C   0  0  0  0  0  0  0  0  0  0  0  0
  -28.9765   81.7414  -12.8189 H   0  0  0  0  0  0  0  0  0  0  0  0
  -30.2285   82.8247  -12.6370 H   0  0  0  0  0  0  0  0  0  0  0  0
  9  7  2  0  0  0
  7  1  1  0  0  0
  7  8  1  0  0  0
  6  1  2  0  0  0
  1  2  1  0  0  0
 11 12  1  0  0  0
  2  3  2  0  0  0
  4  3  1  0  0  0
  5  4  2  0  0  0
  4 12  1  0  0  0
  6  5  1  0  0  0
  8 10  1  0  0  0
 11 13  1  0  0  0
 11 14  1  0  0  0
M  END
> <minimizedAffinity>
-5.07926

$$$$
3KGP_4AZ_A_4069


 14 14  0  0  0  0  0  0  0  0999 V2000
  -27.8578   86.6876  -11.7593 C   0  0  0  0  0  0  0  0  0  0  0  0
  -28.3528   87.6327  -12.7261 C   0  0  0  0  0  0  0  0  0  0  0  0
  -29.5221   88.3678  -12.4638 C   0  0  0  0  0  0  0  0  0  0  0  0
  -30.2142   88.1811  -11.2486 C   0  0  0  0  0  0  0  0  0  0  0  0
  -29.7322   87.2576  -10.2982 C   0  0  0  0  0  0  0  0  0  0  0  0
  -28.5662   86.5180  -10.5475 C   0  0  0  0  0  0  0  0  0  0  0  0
  -26.7498   86.0101  -12.0390 C   0  0  0  0  0  0  0  0  0  0  0  0
  -25.9263   85.6749  -11.2467 O   0  0  0  0  0  0  0  0  0  0  0  0
  -26.2584   85.5776  -13.1270 O   0  0  0  0  0  0  0  0  0  0  0  0
  -26.0418   85.8737  -10.3383 H   0  0  0  0  0  0  0  0  0  0  0  0
  -31.9196   88.7563   -9.5769 N   0  0  0  0  0  0  0  0  0  0  0  0
  -31.4690   88.9742  -10.9654 C   0  0  0  0  0  0  0  0  0  0  0  0
  -32.7660   89.2988   -9.4050 H   0  0  0  0  0  0  0  0  0  0  0  0
  -31.1880   89.0539   -8.9314 H   0  0  0  0  0  0  0  0  0  0  0  0
  9  7  2  0  0  0
  7  1  1  0  0  0
  7  8  1  0  0  0
  6  1  2  0  0  0
  1  2  1  0  0  0
 11 12  1  0  0  0
  2  3  2  0  0  0
  4  3  1  0  0  0
  5  4  2  0  0  0
  4 12  1  0  0  0
  6  5  1  0  0  0
  8 10  1  0  0  0
 11 13  1  0  0  0
 11 14  1  0  0  0
M  END
> <minimizedAffinity>
-4.90259

$$$$
3KGP_4AZ_A_4069


 14 14  0  0  0  0  0  0  0  0999 V2000
  -30.5218   87.8673  -10.1242 C   0  0  0  0  0  0  0  0  0  0  0  0
  -29.4127   87.0523   -9.7016 C   0  0  0  0  0  0  0  0  0  0  0  0
  -28.3747   86.7477  -10.5994 C   0  0  0  0  0  0  0  0  0  0  0  0
  -28.4173   87.2427  -11.9200 C   0  0  0  0  0  0  0  0  0  0  0  0
  -29.5008   88.0426  -12.3378 C   0  0  0  0  0  0  0  0  0  0  0  0
  -30.5429   88.3542  -11.4514 C   0  0  0  0  0  0  0  0  0  0  0  0
  -31.4854   88.1362   -9.2500 C   0  0  0  0  0  0  0  0  0  0  0  0
  -31.7469   87.4847   -8.2880 O   0  0  0  0  0  0  0  0  0  0  0  0
  -32.3562   89.0582   -9.1871 O   0  0  0  0  0  0  0  0  0  0  0  0
  -31.2434   86.7200   -8.0890 H   0  0  0  0  0  0  0  0  0  0  0  0
  -27.2459   87.9139  -13.9720 N   0  0  0  0  0  0  0  0  0  0  0  0
  -27.2994   86.9183  -12.8837 C   0  0  0  0  0  0  0  0  0  0  0  0
  -26.4866   87.6784  -14.6111 H   0  0  0  0  0  0  0  0  0  0  0  0
  -27.0834   88.8404  -13.5777 H   0  0  0  0  0  0  0  0  0  0  0  0
  9  7  2  0  0  0
  7  1  1  0  0  0
  7  8  1  0  0  0
  6  1  2  0  0  0
  1  2  1  0  0  0
 11 12  1  0  0  0
  2  3  2  0  0  0
  4  3  1  0  0  0
  5  4  2  0  0  0
  4 12  1  0  0  0
  6  5  1  0  0  0
  8 10  1  0  0  0
 11 13  1  0  0  0
 11 14  1  0  0  0
M  END
> <minimizedAffinity>
-4.81447

$$$$
3KGP_4AZ_A_4069


 14 14  0  0  0  0  0  0  0  0999 V2000
  -28.8786   86.9845  -11.9089 C   0  0  0  0  0  0  0  0  0  0  0  0
  -27.6306   86.9656  -12.6267 C   0  0  0  0  0  0  0  0  0  0  0  0
  -26.6917   85.9467  -12.3886 C   0  0  0  0  0  0  0  0  0  0  0  0
  -26.9719   84.9370  -11.4437 C   0  0  0  0  0  0  0  0  0  0  0  0
  -28.1935   84.9507  -10.7395 C   0  0  0  0  0  0  0  0  0  0  0  0
  -29.1392   85.9617  -10.9682 C   0  0  0  0  0  0  0  0  0  0  0  0
  -29.7434   87.9615  -12.1588 C   0  0  0  0  0  0  0  0  0  0  0  0
  -30.5558   87.9592  -13.0296 O   0  0  0  0  0  0  0  0  0  0  0  0
  -29.9365   89.0964  -11.6229 O   0  0  0  0  0  0  0  0  0  0  0  0
  -30.6324   87.2174  -13.5969 H   0  0  0  0  0  0  0  0  0  0  0  0
  -25.3119   84.0250   -9.8797 N   0  0  0  0  0  0  0  0  0  0  0  0
  -25.9641   83.8398  -11.1908 C   0  0  0  0  0  0  0  0  0  0  0  0
  -24.6363   83.2761   -9.7272 H   0  0  0  0  0  0  0  0  0  0  0  0
  -26.0170   84.0020   -9.1430 H   0  0  0  0  0  0  0  0  0  0  0  0
  9  7  2  0  0  0
  7  1  1  0  0  0
  7  8  1  0  0  0
  6  1  2  0  0  0
  1  2  1  0  0  0
 11 12  1  0  0  0
  2  3  2  0  0  0
  4  3  1  0  0  0
  5  4  2  0  0  0
  4 12  1  0  0  0
  6  5  1  0  0  0
  8 10  1  0  0  0
 11 13  1  0  0  0
 11 14  1  0  0  0
M  END
> <minimizedAffinity>
-4.78641

$$$$
