2POG_WST_A_201
  RCSB PDB12061706403D
Coordinates from PDB:2POG:A:201 Model:1 without hydrogens
 21 24  0  0  0  0            999 V2000
   14.5050   51.0830   58.9950   C 0  0  0  0  0  0  0  0  0  0  0  0
   15.8900   50.8660   58.6040   C 0  0  0  0  0  0  0  0  0  0  0  0
   16.9020   51.3380   59.2370   O 0  0  0  0  0  0  0  0  0  0  0  0
   16.0760   50.0670   57.4220   C 0  0  0  0  0  0  0  0  0  0  0  0
   15.0010   49.5080   56.6680   C 0  0  0  0  0  0  0  0  0  0  0  0
   13.6700   49.7320   57.0740   C 0  0  0  0  0  0  0  0  0  0  0  0
   13.4230   50.5100   58.2250   C 0  0  0  0  0  0  0  0  0  0  0  0
   12.0970   50.6770   58.5540   O 0  0  0  0  0  0  0  0  0  0  0  0
   11.7640   51.9600   59.1550   C 0  0  0  0  0  0  0  0  0  0  0  0
   12.6450   52.2650   60.4200   C 0  0  0  0  0  0  0  0  0  0  0  0
   14.1540   51.9210   60.2370   C 0  0  0  0  0  0  0  0  0  0  0  0
   14.5790   51.2410   61.5600   C 0  0  0  0  0  0  0  0  0  0  0  0
   13.4980   51.5960   62.5590   C 0  0  0  0  0  0  0  0  0  0  0  0
   12.2370   51.5520   61.7220   C 0  0  0  0  0  0  0  0  0  0  0  0
   10.2580   52.0450   59.4310   C 0  0  0  0  0  0  0  0  0  0  0  0
    9.4580   50.8660   59.3060   C 0  0  0  0  0  0  0  0  0  0  0  0
    8.0670   50.9000   59.5580   C 0  0  0  0  0  0  0  0  0  0  0  0
    7.3750   52.0940   59.9470   C 0  0  0  0  0  0  0  0  0  0  0  0
    6.1260   52.1100   60.1730   O 0  0  0  0  0  0  0  0  0  0  0  0
    8.2010   53.2630   60.0640   C 0  0  0  0  0  0  0  0  0  0  0  0
    9.6070   53.2550   59.8170   C 0  0  0  0  0  0  0  0  0  0  0  0
  1 11  1  0  0  0  0
  1  2  2  0  0  0  0
  1  7  1  0  0  0  0
  2  3  1  0  0  0  0
  2  4  1  0  0  0  0
  4  5  2  0  0  0  0
  5  6  1  0  0  0  0
  6  7  2  0  0  0  0
  7  8  1  0  0  0  0
  8  9  1  0  0  0  0
  9 10  1  0  0  0  0
  9 15  1  0  0  0  0
 10 14  1  0  0  0  0
 10 11  1  0  0  0  0
 11 12  1  0  0  0  0
 12 13  1  0  0  0  0
 13 14  1  0  0  0  0
 15 21  2  0  0  0  0
 15 16  1  0  0  0  0
 16 17  2  0  0  0  0
 17 18  1  0  0  0  0
 18 19  1  0  0  0  0
 18 20  2  0  0  0  0
 20 21  1  0  0  0  0
A    1
C1
A    2
C2
A    3
O3
A    4
C4
A    5
C5
A    6
C6
A    7
C7
A    8
O8
A    9
C9
A   10
C11
A   11
C13
A   12
C15
A   13
C16
A   14
C17
A   15
C18
A   16
C19
A   17
C20
A   18
C21
A   19
O22
A   20
C23
A   21
C24
M  END
>  <InstanceId>
2POG_WST_A_201

>  <ChemCompId>
WST

>  <PdbId>
2POG

>  <ChainId>
A

>  <ResidueNumber>
201

>  <InsertionCode>


>  <Model>
1

>  <AltIds>


>  <MissingHeavyAtoms>
0

>  <ObservedFormula>
C18 O3

>  <Name>
(3AS,4R,9BR)-4-(4-HYDROXYPHENYL)-1,2,3,3A,4,9B-HEXAHYDROCYCLOPENTA[C]CHROMEN-9-OL

>  <SystematicName>
(3aS,4R,9bR)-4-(4-hydroxyphenyl)-1,2,3,3a,4,9b-hexahydrocyclopenta[c]chromen-9-ol

>  <Synonyms>


>  <Type>
NON-POLYMER

>  <Formula>
C18 H18 O3

>  <MolecularWeight>
282.334

>  <ModifiedDate>
2011-06-04

>  <Parent>


>  <OneLetterCode>


>  <SubcomponentList>


>  <AmbiguousFlag>


>  <InChI>
InChI=1S/C18H18O3/c19-12-9-7-11(8-10-12)18-14-4-1-3-13(14)17-15(20)5-2-6-16(17)21-18/h2,5-10,13-14,18-20H,1,3-4H2/t13-,14+,18+/m1/s1

>  <InChIKey>
FSYFYSFYUHBIHE-GLJUWKHASA-N

>  <SMILES>
c1cc(c2c(c1)O[C@H]([C@@H]3[C@H]2CCC3)c4ccc(cc4)O)O

$$$$
