1O30_693_A_246


 39 42  0  0  0  0  0  0  0  0999 V2000
   41.9004   -1.1739   31.0927 C   0  0  0  0  0  0  0  0  0  0  0  0
   42.7042   -1.1764   32.2408 C   0  0  0  0  0  0  0  0  0  0  0  0
   42.2170   -0.8964   33.5256 C   0  0  0  0  0  0  0  0  0  0  0  0
   40.8733   -0.5974   33.6490 C   0  0  0  0  0  0  0  0  0  0  0  0
   40.0062   -0.5666   32.5548 C   0  0  0  0  0  0  0  0  0  0  0  0
   40.5218   -0.8647   31.2840 C   0  0  0  0  0  0  0  0  0  0  0  0
   39.6259   -0.8763   30.2268 O   0  0  0  0  0  0  0  0  0  0  0  0
   44.0274   -2.9486   26.0059 C   0  0  0  0  0  0  0  0  0  0  0  0
   44.5847   -1.6327   26.0406 C   0  0  0  0  0  0  0  0  0  0  0  0
   44.3568   -0.7469   27.0923 C   0  0  0  0  0  0  0  0  0  0  0  0
   43.5603   -1.1997   28.1153 C   0  0  0  0  0  0  0  0  0  0  0  0
   43.0111   -2.4214   28.1361 C   0  0  0  0  0  0  0  0  0  0  0  0
   43.2118   -3.3361   27.1081 C   0  0  0  0  0  0  0  0  0  0  0  0
   43.1894   -0.6105   29.1953 N   0  0  0  0  0  0  0  0  0  0  0  0
   42.2807   -2.6291   29.2184 N   0  0  0  0  0  0  0  0  0  0  0  0
   42.4441   -1.4642   29.8187 C   0  0  0  0  0  0  0  0  0  0  0  0
   43.4236    0.3001   29.4871 H   0  0  0  0  0  0  0  0  0  0  0  0
   44.3013   -3.8004   24.9198 C   0  0  0  0  0  0  0  0  0  0  0  0
   44.2108   -5.1083   25.0650 N   0  0  0  0  0  0  0  0  0  0  0  0
   44.6516   -3.2587   23.7635 N   0  0  0  0  0  0  0  0  0  0  0  0
   43.9485   -5.4901   25.9338 H   0  0  0  0  0  0  0  0  0  0  0  0
   44.4055   -5.7027   24.3047 H   0  0  0  0  0  0  0  0  0  0  0  0
   44.7130   -2.2800   23.6770 H   0  0  0  0  0  0  0  0  0  0  0  0
   44.8507   -3.8347   22.9903 H   0  0  0  0  0  0  0  0  0  0  0  0
   38.6764   -0.1959   32.7551 C   0  0  0  0  0  0  0  0  0  0  0  0
   37.6720   -1.1749   32.8768 C   0  0  0  0  0  0  0  0  0  0  0  0
   36.3507   -0.8170   33.0316 C   0  0  0  0  0  0  0  0  0  0  0  0
   35.9836    0.5239   33.0743 C   0  0  0  0  0  0  0  0  0  0  0  0
   36.9493    1.5038   32.9675 C   0  0  0  0  0  0  0  0  0  0  0  0
   38.2779    1.1472   32.8085 C   0  0  0  0  0  0  0  0  0  0  0  0
   37.9861   -2.5471   32.8613 F   0  0  0  0  0  0  0  0  0  0  0  0
   43.1944   -0.9520   34.7342 C   0  0  0  0  0  0  0  0  0  0  0  0
   42.3167   -1.5176   35.8749 C   0  0  0  0  0  0  0  0  0  0  0  0
   41.8425   -0.7315   36.6793 O   0  0  0  0  0  0  0  0  0  0  0  0
   42.1562   -2.7213   35.9236 O   0  0  0  0  0  0  0  0  0  0  0  0
   43.8370    0.4662   35.0966 C   0  0  0  0  0  0  0  0  0  0  0  0
   44.7267    1.1358   33.9889 C   0  0  0  0  0  0  0  0  0  0  0  0
   45.8869    0.7822   33.8387 O   0  0  0  0  0  0  0  0  0  0  0  0
   44.2037    2.0151   33.3053 O   0  0  0  0  0  0  0  0  0  0  0  0
  8  9  2  0  0  0
  8 13  1  0  0  0
  8 18  1  0  0  0
  9 10  1  0  0  0
 10 11  2  0  0  0
 11 12  1  0  0  0
 11 14  1  0  0  0
 12 13  2  0  0  0
 12 15  1  0  0  0
 18 19  1  0  0  0
 18 20  2  0  0  0
 14 16  1  0  0  0
 15 16  2  0  0  0
 16  1  1  0  0  0
  1  2  2  0  0  0
  1  6  1  0  0  0
  2  3  1  0  0  0
  3 32  1  0  0  0
  3  4  2  0  0  0
 32 33  1  0  0  0
 32 36  1  0  0  0
 33 34  2  0  0  0
 33 35  1  0  0  0
 36 37  1  0  0  0
 37 38  2  0  0  0
 37 39  1  0  0  0
  4  5  1  0  0  0
  5  6  2  0  0  0
  5 25  1  0  0  0
  6  7  1  0  0  0
 25 26  2  0  0  0
 25 30  1  0  0  0
 26 27  1  0  0  0
 26 31  1  0  0  0
 27 28  2  0  0  0
 28 29  1  0  0  0
 29 30  2  0  0  0
 19 21  1  0  0  0
 19 22  1  0  0  0
 20 23  1  0  0  0
 20 24  1  0  0  0
 14 17  1  0  0  0
M  CHG 1   7  -1
M  CHG 1  20   1
M  CHG 1  35  -1
M  CHG 1  39  -1
M  END
> <minimizedAffinity>
-9.22115

$$$$
1O30_693_A_246


 39 42  0  0  0  0  0  0  0  0999 V2000
   42.7468   -2.4306   31.6341 C   0  0  0  0  0  0  0  0  0  0  0  0
   42.6223   -3.6175   32.3690 C   0  0  0  0  0  0  0  0  0  0  0  0
   42.3218   -3.6504   33.7383 C   0  0  0  0  0  0  0  0  0  0  0  0
   42.1491   -2.4410   34.3845 C   0  0  0  0  0  0  0  0  0  0  0  0
   42.2630   -1.2142   33.7272 C   0  0  0  0  0  0  0  0  0  0  0  0
   42.5513   -1.2153   32.3537 C   0  0  0  0  0  0  0  0  0  0  0  0
   42.6067    0.0158   31.7199 O   0  0  0  0  0  0  0  0  0  0  0  0
   43.9533   -3.1345   26.0129 C   0  0  0  0  0  0  0  0  0  0  0  0
   44.4367   -1.8004   26.1855 C   0  0  0  0  0  0  0  0  0  0  0  0
   44.3676   -1.1272   27.4040 C   0  0  0  0  0  0  0  0  0  0  0  0
   43.8062   -1.8124   28.4535 C   0  0  0  0  0  0  0  0  0  0  0  0
   43.3363   -3.0626   28.3502 C   0  0  0  0  0  0  0  0  0  0  0  0
   43.3849   -3.7705   27.1542 C   0  0  0  0  0  0  0  0  0  0  0  0
   43.6180   -1.4474   29.6710 N   0  0  0  0  0  0  0  0  0  0  0  0
   42.8382   -3.5114   29.4896 N   0  0  0  0  0  0  0  0  0  0  0  0
   43.0516   -2.4545   30.2523 C   0  0  0  0  0  0  0  0  0  0  0  0
   43.8552   -0.5822   30.0766 H   0  0  0  0  0  0  0  0  0  0  0  0
   44.0591   -3.7646   24.7591 C   0  0  0  0  0  0  0  0  0  0  0  0
   44.7042   -3.1722   23.7728 N   0  0  0  0  0  0  0  0  0  0  0  0
   43.4965   -4.9524   24.5984 N   0  0  0  0  0  0  0  0  0  0  0  0
   45.1153   -2.2888   23.9140 H   0  0  0  0  0  0  0  0  0  0  0  0
   44.7747   -3.6134   22.8956 H   0  0  0  0  0  0  0  0  0  0  0  0
   43.0197   -5.3767   25.3479 H   0  0  0  0  0  0  0  0  0  0  0  0
   43.5550   -5.4112   23.7293 H   0  0  0  0  0  0  0  0  0  0  0  0
   42.1345   -0.0368   34.4642 C   0  0  0  0  0  0  0  0  0  0  0  0
   43.2735    0.6160   34.9726 C   0  0  0  0  0  0  0  0  0  0  0  0
   43.1530    1.7553   35.7378 C   0  0  0  0  0  0  0  0  0  0  0  0
   41.8986    2.2858   36.0200 C   0  0  0  0  0  0  0  0  0  0  0  0
   40.7662    1.6714   35.5257 C   0  0  0  0  0  0  0  0  0  0  0  0
   40.8839    0.5242   34.7591 C   0  0  0  0  0  0  0  0  0  0  0  0
   44.5694    0.1371   34.7025 F   0  0  0  0  0  0  0  0  0  0  0  0
   42.1825   -5.0266   34.4494 C   0  0  0  0  0  0  0  0  0  0  0  0
   40.9258   -5.6413   33.7904 C   0  0  0  0  0  0  0  0  0  0  0  0
   41.0644   -6.6509   33.1186 O   0  0  0  0  0  0  0  0  0  0  0  0
   39.8627   -5.0775   33.9608 O   0  0  0  0  0  0  0  0  0  0  0  0
   42.0502   -4.9096   36.0382 C   0  0  0  0  0  0  0  0  0  0  0  0
   42.8409   -5.9684   36.8870 C   0  0  0  0  0  0  0  0  0  0  0  0
   42.3393   -7.0559   37.1310 O   0  0  0  0  0  0  0  0  0  0  0  0
   43.9598   -5.6459   37.2846 O   0  0  0  0  0  0  0  0  0  0  0  0
  8  9  2  0  0  0
  8 13  1  0  0  0
  8 18  1  0  0  0
  9 10  1  0  0  0
 10 11  2  0  0  0
 11 12  1  0  0  0
 11 14  1  0  0  0
 12 13  2  0  0  0
 12 15  1  0  0  0
 18 19  1  0  0  0
 18 20  2  0  0  0
 14 16  1  0  0  0
 15 16  2  0  0  0
 16  1  1  0  0  0
  1  2  2  0  0  0
  1  6  1  0  0  0
  2  3  1  0  0  0
  3 32  1  0  0  0
  3  4  2  0  0  0
 32 33  1  0  0  0
 32 36  1  0  0  0
 33 34  2  0  0  0
 33 35  1  0  0  0
 36 37  1  0  0  0
 37 38  2  0  0  0
 37 39  1  0  0  0
  4  5  1  0  0  0
  5  6  2  0  0  0
  5 25  1  0  0  0
  6  7  1  0  0  0
 25 26  2  0  0  0
 25 30  1  0  0  0
 26 27  1  0  0  0
 26 31  1  0  0  0
 27 28  2  0  0  0
 28 29  1  0  0  0
 29 30  2  0  0  0
 19 21  1  0  0  0
 19 22  1  0  0  0
 20 23  1  0  0  0
 20 24  1  0  0  0
 14 17  1  0  0  0
M  CHG 1   7  -1
M  CHG 1  20   1
M  CHG 1  35  -1
M  CHG 1  39  -1
M  END
> <minimizedAffinity>
-8.72837

$$$$
1O30_693_A_246


 39 42  0  0  0  0  0  0  0  0999 V2000
   42.7747   -2.2638   31.8595 C   0  0  0  0  0  0  0  0  0  0  0  0
   42.2096   -3.3734   32.5027 C   0  0  0  0  0  0  0  0  0  0  0  0
   41.8925   -3.3961   33.8684 C   0  0  0  0  0  0  0  0  0  0  0  0
   42.1638   -2.2599   34.6070 C   0  0  0  0  0  0  0  0  0  0  0  0
   42.7323   -1.1152   34.0443 C   0  0  0  0  0  0  0  0  0  0  0  0
   43.0256   -1.1193   32.6719 C   0  0  0  0  0  0  0  0  0  0  0  0
   43.5408    0.0491   32.1336 O   0  0  0  0  0  0  0  0  0  0  0  0
   44.0516   -2.9931   26.2572 C   0  0  0  0  0  0  0  0  0  0  0  0
   44.3364   -1.5974   26.3771 C   0  0  0  0  0  0  0  0  0  0  0  0
   44.1743   -0.8966   27.5710 C   0  0  0  0  0  0  0  0  0  0  0  0
   43.7221   -1.6167   28.6494 C   0  0  0  0  0  0  0  0  0  0  0  0
   43.4387   -2.9249   28.5956 C   0  0  0  0  0  0  0  0  0  0  0  0
   43.5856   -3.6621   27.4256 C   0  0  0  0  0  0  0  0  0  0  0  0
   43.4869   -1.2380   29.8546 N   0  0  0  0  0  0  0  0  0  0  0  0
   43.0150   -3.3987   29.7548 N   0  0  0  0  0  0  0  0  0  0  0  0
   43.0750   -2.2945   30.4769 C   0  0  0  0  0  0  0  0  0  0  0  0
   43.5972   -0.3332   30.2264 H   0  0  0  0  0  0  0  0  0  0  0  0
   44.2437   -3.6472   25.0261 C   0  0  0  0  0  0  0  0  0  0  0  0
   44.5485   -2.9519   23.9474 N   0  0  0  0  0  0  0  0  0  0  0  0
   44.1077   -4.9635   24.9810 N   0  0  0  0  0  0  0  0  0  0  0  0
   44.6448   -1.9737   24.0033 H   0  0  0  0  0  0  0  0  0  0  0  0
   44.6797   -3.4111   23.0865 H   0  0  0  0  0  0  0  0  0  0  0  0
   43.8798   -5.4631   25.7981 H   0  0  0  0  0  0  0  0  0  0  0  0
   44.2345   -5.4426   24.1304 H   0  0  0  0  0  0  0  0  0  0  0  0
   43.0314   -0.0317   34.8705 C   0  0  0  0  0  0  0  0  0  0  0  0
   42.0561    0.9441   35.1508 C   0  0  0  0  0  0  0  0  0  0  0  0
   42.3556    2.0397   35.9305 C   0  0  0  0  0  0  0  0  0  0  0  0
   43.6315    2.2005   36.4605 C   0  0  0  0  0  0  0  0  0  0  0  0
   44.6035    1.2538   36.2096 C   0  0  0  0  0  0  0  0  0  0  0  0
   44.3065    0.1531   35.4235 C   0  0  0  0  0  0  0  0  0  0  0  0
   40.7426    0.8239   34.6590 F   0  0  0  0  0  0  0  0  0  0  0  0
   41.2446   -4.6740   34.4737 C   0  0  0  0  0  0  0  0  0  0  0  0
   42.4614   -5.4851   34.9765 C   0  0  0  0  0  0  0  0  0  0  0  0
   42.8780   -5.2592   36.1013 O   0  0  0  0  0  0  0  0  0  0  0  0
   42.9541   -6.2973   34.2184 O   0  0  0  0  0  0  0  0  0  0  0  0
   40.3507   -5.4884   33.4282 C   0  0  0  0  0  0  0  0  0  0  0  0
   38.8137   -5.1652   33.4192 C   0  0  0  0  0  0  0  0  0  0  0  0
   37.9989   -6.0584   33.5977 O   0  0  0  0  0  0  0  0  0  0  0  0
   38.4880   -3.9950   33.2222 O   0  0  0  0  0  0  0  0  0  0  0  0
  8  9  2  0  0  0
  8 13  1  0  0  0
  8 18  1  0  0  0
  9 10  1  0  0  0
 10 11  2  0  0  0
 11 12  1  0  0  0
 11 14  1  0  0  0
 12 13  2  0  0  0
 12 15  1  0  0  0
 18 19  1  0  0  0
 18 20  2  0  0  0
 14 16  1  0  0  0
 15 16  2  0  0  0
 16  1  1  0  0  0
  1  2  2  0  0  0
  1  6  1  0  0  0
  2  3  1  0  0  0
  3 32  1  0  0  0
  3  4  2  0  0  0
 32 33  1  0  0  0
 32 36  1  0  0  0
 33 34  2  0  0  0
 33 35  1  0  0  0
 36 37  1  0  0  0
 37 38  2  0  0  0
 37 39  1  0  0  0
  4  5  1  0  0  0
  5  6  2  0  0  0
  5 25  1  0  0  0
  6  7  1  0  0  0
 25 26  2  0  0  0
 25 30  1  0  0  0
 26 27  1  0  0  0
 26 31  1  0  0  0
 27 28  2  0  0  0
 28 29  1  0  0  0
 29 30  2  0  0  0
 19 21  1  0  0  0
 19 22  1  0  0  0
 20 23  1  0  0  0
 20 24  1  0  0  0
 14 17  1  0  0  0
M  CHG 1   7  -1
M  CHG 1  20   1
M  CHG 1  35  -1
M  CHG 1  39  -1
M  END
> <minimizedAffinity>
-8.66680

$$$$
1O30_693_A_246


 39 42  0  0  0  0  0  0  0  0999 V2000
   42.3704   -0.6583   32.1760 C   0  0  0  0  0  0  0  0  0  0  0  0
   41.0177   -0.5703   32.5319 C   0  0  0  0  0  0  0  0  0  0  0  0
   40.5686    0.0225   33.7207 C   0  0  0  0  0  0  0  0  0  0  0  0
   41.5221    0.5361   34.5793 C   0  0  0  0  0  0  0  0  0  0  0  0
   42.8898    0.4825   34.3029 C   0  0  0  0  0  0  0  0  0  0  0  0
   43.3064   -0.1052   33.0984 C   0  0  0  0  0  0  0  0  0  0  0  0
   44.6658   -0.0967   32.8296 O   0  0  0  0  0  0  0  0  0  0  0  0
   43.8211   -2.6420   26.9311 C   0  0  0  0  0  0  0  0  0  0  0  0
   43.7817   -3.8815   27.6419 C   0  0  0  0  0  0  0  0  0  0  0  0
   43.4808   -3.9602   29.0006 C   0  0  0  0  0  0  0  0  0  0  0  0
   43.2168   -2.7744   29.6410 C   0  0  0  0  0  0  0  0  0  0  0  0
   43.2397   -1.5841   29.0267 C   0  0  0  0  0  0  0  0  0  0  0  0
   43.5354   -1.4599   27.6736 C   0  0  0  0  0  0  0  0  0  0  0  0
   42.9125   -2.5495   30.8689 N   0  0  0  0  0  0  0  0  0  0  0  0
   42.9588   -0.5862   29.8471 N   0  0  0  0  0  0  0  0  0  0  0  0
   42.7692   -1.2675   30.9625 C   0  0  0  0  0  0  0  0  0  0  0  0
   42.8100   -3.2140   31.5881 H   0  0  0  0  0  0  0  0  0  0  0  0
   44.1229   -2.6281   25.5567 C   0  0  0  0  0  0  0  0  0  0  0  0
   44.3485   -3.7595   24.9171 N   0  0  0  0  0  0  0  0  0  0  0  0
   44.1770   -1.4617   24.9324 N   0  0  0  0  0  0  0  0  0  0  0  0
   44.3032   -4.6158   25.4006 H   0  0  0  0  0  0  0  0  0  0  0  0
   44.5623   -3.7475   23.9561 H   0  0  0  0  0  0  0  0  0  0  0  0
   44.0052   -0.6292   25.4290 H   0  0  0  0  0  0  0  0  0  0  0  0
   44.3891   -1.4270   23.9717 H   0  0  0  0  0  0  0  0  0  0  0  0
   43.7915    0.9687   35.2498 C   0  0  0  0  0  0  0  0  0  0  0  0
   44.0714    2.3462   35.3289 C   0  0  0  0  0  0  0  0  0  0  0  0
   44.9926    2.8298   36.2319 C   0  0  0  0  0  0  0  0  0  0  0  0
   45.6630    1.9627   37.0883 C   0  0  0  0  0  0  0  0  0  0  0  0
   45.4001    0.6090   37.0386 C   0  0  0  0  0  0  0  0  0  0  0  0
   44.4772    0.1195   36.1296 C   0  0  0  0  0  0  0  0  0  0  0  0
   43.4090    3.2731   34.5021 F   0  0  0  0  0  0  0  0  0  0  0  0
   39.0405    0.0878   34.0034 C   0  0  0  0  0  0  0  0  0  0  0  0
   38.6620   -1.3908   34.2527 C   0  0  0  0  0  0  0  0  0  0  0  0
   39.1757   -1.9639   35.2000 O   0  0  0  0  0  0  0  0  0  0  0  0
   37.8827   -1.9146   33.4810 O   0  0  0  0  0  0  0  0  0  0  0  0
   38.2022    0.7459   32.8121 C   0  0  0  0  0  0  0  0  0  0  0  0
   36.8550    1.4493   33.2086 C   0  0  0  0  0  0  0  0  0  0  0  0
   36.8724    2.4813   33.8631 O   0  0  0  0  0  0  0  0  0  0  0  0
   35.8118    0.9128   32.8371 O   0  0  0  0  0  0  0  0  0  0  0  0
  8  9  2  0  0  0
  8 13  1  0  0  0
  8 18  1  0  0  0
  9 10  1  0  0  0
 10 11  2  0  0  0
 11 12  1  0  0  0
 11 14  1  0  0  0
 12 13  2  0  0  0
 12 15  1  0  0  0
 18 19  1  0  0  0
 18 20  2  0  0  0
 14 16  1  0  0  0
 15 16  2  0  0  0
 16  1  1  0  0  0
  1  2  2  0  0  0
  1  6  1  0  0  0
  2  3  1  0  0  0
  3 32  1  0  0  0
  3  4  2  0  0  0
 32 33  1  0  0  0
 32 36  1  0  0  0
 33 34  2  0  0  0
 33 35  1  0  0  0
 36 37  1  0  0  0
 37 38  2  0  0  0
 37 39  1  0  0  0
  4  5  1  0  0  0
  5  6  2  0  0  0
  5 25  1  0  0  0
  6  7  1  0  0  0
 25 26  2  0  0  0
 25 30  1  0  0  0
 26 27  1  0  0  0
 26 31  1  0  0  0
 27 28  2  0  0  0
 28 29  1  0  0  0
 29 30  2  0  0  0
 19 21  1  0  0  0
 19 22  1  0  0  0
 20 23  1  0  0  0
 20 24  1  0  0  0
 14 17  1  0  0  0
M  CHG 1   7  -1
M  CHG 1  20   1
M  CHG 1  35  -1
M  CHG 1  39  -1
M  END
> <minimizedAffinity>
-8.63216

$$$$
1O30_693_A_246


 39 42  0  0  0  0  0  0  0  0999 V2000
   42.2913   -0.8137   32.0587 C   0  0  0  0  0  0  0  0  0  0  0  0
   43.2186   -0.3632   33.0081 C   0  0  0  0  0  0  0  0  0  0  0  0
   42.8525    0.2000   34.2390 C   0  0  0  0  0  0  0  0  0  0  0  0
   41.5029    0.3166   34.5129 C   0  0  0  0  0  0  0  0  0  0  0  0
   40.5153   -0.1011   33.6184 C   0  0  0  0  0  0  0  0  0  0  0  0
   40.9142   -0.6731   32.4005 C   0  0  0  0  0  0  0  0  0  0  0  0
   39.9115   -1.1245   31.5572 O   0  0  0  0  0  0  0  0  0  0  0  0
   43.8695   -2.5840   26.7744 C   0  0  0  0  0  0  0  0  0  0  0  0
   43.7746   -3.8545   27.4226 C   0  0  0  0  0  0  0  0  0  0  0  0
   43.4256   -3.9895   28.7653 C   0  0  0  0  0  0  0  0  0  0  0  0
   43.1699   -2.8288   29.4533 C   0  0  0  0  0  0  0  0  0  0  0  0
   43.2438   -1.6117   28.8985 C   0  0  0  0  0  0  0  0  0  0  0  0
   43.5885   -1.4314   27.5634 C   0  0  0  0  0  0  0  0  0  0  0  0
   42.8297   -2.6545   30.6801 N   0  0  0  0  0  0  0  0  0  0  0  0
   42.9605   -0.6468   29.7566 N   0  0  0  0  0  0  0  0  0  0  0  0
   42.7157   -1.3750   30.8309 C   0  0  0  0  0  0  0  0  0  0  0  0
   42.6860   -3.3494   31.3625 H   0  0  0  0  0  0  0  0  0  0  0  0
   44.2183   -2.5130   25.4129 C   0  0  0  0  0  0  0  0  0  0  0  0
   44.6160   -3.5963   24.7741 N   0  0  0  0  0  0  0  0  0  0  0  0
   44.1405   -1.3419   24.8001 N   0  0  0  0  0  0  0  0  0  0  0  0
   44.6665   -4.4572   25.2490 H   0  0  0  0  0  0  0  0  0  0  0  0
   44.8623   -3.5440   23.8223 H   0  0  0  0  0  0  0  0  0  0  0  0
   43.8411   -0.5458   25.2959 H   0  0  0  0  0  0  0  0  0  0  0  0
   44.3821   -1.2672   23.8486 H   0  0  0  0  0  0  0  0  0  0  0  0
   39.1749    0.1075   33.9439 C   0  0  0  0  0  0  0  0  0  0  0  0
   38.4686   -0.8416   34.7071 C   0  0  0  0  0  0  0  0  0  0  0  0
   37.1334   -0.6642   34.9965 C   0  0  0  0  0  0  0  0  0  0  0  0
   36.4568    0.4626   34.5412 C   0  0  0  0  0  0  0  0  0  0  0  0
   37.1277    1.4134   33.7996 C   0  0  0  0  0  0  0  0  0  0  0  0
   38.4690    1.2362   33.5043 C   0  0  0  0  0  0  0  0  0  0  0  0
   39.1058   -1.9908   35.2120 F   0  0  0  0  0  0  0  0  0  0  0  0
   43.9667    0.6439   35.2293 C   0  0  0  0  0  0  0  0  0  0  0  0
   43.5114    2.0558   35.6662 C   0  0  0  0  0  0  0  0  0  0  0  0
   43.0945    2.1989   36.8044 O   0  0  0  0  0  0  0  0  0  0  0  0
   43.5759    2.9514   34.8471 O   0  0  0  0  0  0  0  0  0  0  0  0
   45.4287    0.6406   34.5829 C   0  0  0  0  0  0  0  0  0  0  0  0
   46.6222    0.3178   35.5514 C   0  0  0  0  0  0  0  0  0  0  0  0
   46.4815    0.4413   36.7592 O   0  0  0  0  0  0  0  0  0  0  0  0
   47.6777   -0.0505   35.0372 O   0  0  0  0  0  0  0  0  0  0  0  0
  8  9  2  0  0  0
  8 13  1  0  0  0
  8 18  1  0  0  0
  9 10  1  0  0  0
 10 11  2  0  0  0
 11 12  1  0  0  0
 11 14  1  0  0  0
 12 13  2  0  0  0
 12 15  1  0  0  0
 18 19  1  0  0  0
 18 20  2  0  0  0
 14 16  1  0  0  0
 15 16  2  0  0  0
 16  1  1  0  0  0
  1  2  2  0  0  0
  1  6  1  0  0  0
  2  3  1  0  0  0
  3 32  1  0  0  0
  3  4  2  0  0  0
 32 33  1  0  0  0
 32 36  1  0  0  0
 33 34  2  0  0  0
 33 35  1  0  0  0
 36 37  1  0  0  0
 37 38  2  0  0  0
 37 39  1  0  0  0
  4  5  1  0  0  0
  5  6  2  0  0  0
  5 25  1  0  0  0
  6  7  1  0  0  0
 25 26  2  0  0  0
 25 30  1  0  0  0
 26 27  1  0  0  0
 26 31  1  0  0  0
 27 28  2  0  0  0
 28 29  1  0  0  0
 29 30  2  0  0  0
 19 21  1  0  0  0
 19 22  1  0  0  0
 20 23  1  0  0  0
 20 24  1  0  0  0
 14 17  1  0  0  0
M  CHG 1   7  -1
M  CHG 1  20   1
M  CHG 1  35  -1
M  CHG 1  39  -1
M  END
> <minimizedAffinity>
-8.43768

$$$$
1O30_693_A_246


 39 42  0  0  0  0  0  0  0  0999 V2000
   42.4157   -0.8536   32.1873 C   0  0  0  0  0  0  0  0  0  0  0  0
   43.3026   -0.0510   32.9178 C   0  0  0  0  0  0  0  0  0  0  0  0
   42.9721    0.5504   34.1406 C   0  0  0  0  0  0  0  0  0  0  0  0
   41.6992    0.3369   34.6350 C   0  0  0  0  0  0  0  0  0  0  0  0
   40.7537   -0.4432   33.9660 C   0  0  0  0  0  0  0  0  0  0  0  0
   41.1198   -1.0425   32.7510 C   0  0  0  0  0  0  0  0  0  0  0  0
   40.1770   -1.8521   32.1378 O   0  0  0  0  0  0  0  0  0  0  0  0
   43.8402   -2.7151   26.8907 C   0  0  0  0  0  0  0  0  0  0  0  0
   43.7343   -3.9760   27.5557 C   0  0  0  0  0  0  0  0  0  0  0  0
   43.4126   -4.0888   28.9072 C   0  0  0  0  0  0  0  0  0  0  0  0
   43.1956   -2.9154   29.5870 C   0  0  0  0  0  0  0  0  0  0  0  0
   43.2816   -1.7064   29.0165 C   0  0  0  0  0  0  0  0  0  0  0  0
   43.6001   -1.5482   27.6721 C   0  0  0  0  0  0  0  0  0  0  0  0
   42.8864   -2.7204   30.8188 N   0  0  0  0  0  0  0  0  0  0  0  0
   43.0368   -0.7263   29.8692 N   0  0  0  0  0  0  0  0  0  0  0  0
   42.8014   -1.4372   30.9571 C   0  0  0  0  0  0  0  0  0  0  0  0
   42.7439   -3.4046   31.5123 H   0  0  0  0  0  0  0  0  0  0  0  0
   44.1601   -2.6665   25.5211 C   0  0  0  0  0  0  0  0  0  0  0  0
   44.4822   -3.7716   24.8770 N   0  0  0  0  0  0  0  0  0  0  0  0
   44.1325   -1.4943   24.9061 N   0  0  0  0  0  0  0  0  0  0  0  0
   44.4965   -4.6329   25.3537 H   0  0  0  0  0  0  0  0  0  0  0  0
   44.7084   -3.7351   23.9195 H   0  0  0  0  0  0  0  0  0  0  0  0
   43.8892   -0.6818   25.4060 H   0  0  0  0  0  0  0  0  0  0  0  0
   44.3552   -1.4353   23.9489 H   0  0  0  0  0  0  0  0  0  0  0  0
   39.4709   -0.5595   34.5016 C   0  0  0  0  0  0  0  0  0  0  0  0
   38.4505    0.3290   34.1122 C   0  0  0  0  0  0  0  0  0  0  0  0
   37.1926    0.2484   34.6681 C   0  0  0  0  0  0  0  0  0  0  0  0
   36.9053   -0.7188   35.6255 C   0  0  0  0  0  0  0  0  0  0  0  0
   37.8842   -1.6086   36.0178 C   0  0  0  0  0  0  0  0  0  0  0  0
   39.1506   -1.5280   35.4634 C   0  0  0  0  0  0  0  0  0  0  0  0
   38.6770    1.3147   33.1331 F   0  0  0  0  0  0  0  0  0  0  0  0
   44.0437    1.4019   34.8792 C   0  0  0  0  0  0  0  0  0  0  0  0
   45.1037    0.3555   35.2954 C   0  0  0  0  0  0  0  0  0  0  0  0
   44.7720   -0.5176   36.0812 O   0  0  0  0  0  0  0  0  0  0  0  0
   46.2216    0.4650   34.8312 O   0  0  0  0  0  0  0  0  0  0  0  0
   43.4596    2.2161   36.1247 C   0  0  0  0  0  0  0  0  0  0  0  0
   44.3635    3.3668   36.6955 C   0  0  0  0  0  0  0  0  0  0  0  0
   44.0726    4.5352   36.4863 O   0  0  0  0  0  0  0  0  0  0  0  0
   45.3556    3.0321   37.3420 O   0  0  0  0  0  0  0  0  0  0  0  0
  8  9  2  0  0  0
  8 13  1  0  0  0
  8 18  1  0  0  0
  9 10  1  0  0  0
 10 11  2  0  0  0
 11 12  1  0  0  0
 11 14  1  0  0  0
 12 13  2  0  0  0
 12 15  1  0  0  0
 18 19  1  0  0  0
 18 20  2  0  0  0
 14 16  1  0  0  0
 15 16  2  0  0  0
 16  1  1  0  0  0
  1  2  2  0  0  0
  1  6  1  0  0  0
  2  3  1  0  0  0
  3 32  1  0  0  0
  3  4  2  0  0  0
 32 33  1  0  0  0
 32 36  1  0  0  0
 33 34  2  0  0  0
 33 35  1  0  0  0
 36 37  1  0  0  0
 37 38  2  0  0  0
 37 39  1  0  0  0
  4  5  1  0  0  0
  5  6  2  0  0  0
  5 25  1  0  0  0
  6  7  1  0  0  0
 25 26  2  0  0  0
 25 30  1  0  0  0
 26 27  1  0  0  0
 26 31  1  0  0  0
 27 28  2  0  0  0
 28 29  1  0  0  0
 29 30  2  0  0  0
 19 21  1  0  0  0
 19 22  1  0  0  0
 20 23  1  0  0  0
 20 24  1  0  0  0
 14 17  1  0  0  0
M  CHG 1   7  -1
M  CHG 1  20   1
M  CHG 1  35  -1
M  CHG 1  39  -1
M  END
> <minimizedAffinity>
-8.41661

$$$$
1O30_693_A_246


 39 42  0  0  0  0  0  0  0  0999 V2000
   42.7848   -1.3583   31.9551 C   0  0  0  0  0  0  0  0  0  0  0  0
   43.4447   -0.2617   32.5262 C   0  0  0  0  0  0  0  0  0  0  0  0
   43.1853    0.2067   33.8223 C   0  0  0  0  0  0  0  0  0  0  0  0
   42.2210   -0.4536   34.5600 C   0  0  0  0  0  0  0  0  0  0  0  0
   41.5131   -1.5497   34.0623 C   0  0  0  0  0  0  0  0  0  0  0  0
   41.8055   -2.0026   32.7666 C   0  0  0  0  0  0  0  0  0  0  0  0
   41.1229   -3.1234   32.3212 O   0  0  0  0  0  0  0  0  0  0  0  0
   43.9051   -2.5536   26.3994 C   0  0  0  0  0  0  0  0  0  0  0  0
   43.7009   -3.8832   26.8830 C   0  0  0  0  0  0  0  0  0  0  0  0
   43.4031   -4.1612   28.2159 C   0  0  0  0  0  0  0  0  0  0  0  0
   43.3104   -3.0837   29.0624 C   0  0  0  0  0  0  0  0  0  0  0  0
   43.4923   -1.8172   28.6657 C   0  0  0  0  0  0  0  0  0  0  0  0
   43.7913   -1.4951   27.3463 C   0  0  0  0  0  0  0  0  0  0  0  0
   43.0502   -3.0422   30.3200 N   0  0  0  0  0  0  0  0  0  0  0  0
   43.3586   -0.9526   29.6568 N   0  0  0  0  0  0  0  0  0  0  0  0
   43.0858   -1.7898   30.6413 C   0  0  0  0  0  0  0  0  0  0  0  0
   42.8628   -3.8041   30.9145 H   0  0  0  0  0  0  0  0  0  0  0  0
   44.1948   -2.3361   25.0396 C   0  0  0  0  0  0  0  0  0  0  0  0
   44.0780   -1.1280   24.5229 N   0  0  0  0  0  0  0  0  0  0  0  0
   44.5794   -3.3661   24.3019 N   0  0  0  0  0  0  0  0  0  0  0  0
   43.7904   -0.3760   25.0894 H   0  0  0  0  0  0  0  0  0  0  0  0
   44.2783   -0.9785   23.5707 H   0  0  0  0  0  0  0  0  0  0  0  0
   44.6600   -4.2594   24.7078 H   0  0  0  0  0  0  0  0  0  0  0  0
   44.7847   -3.2387   23.3476 H   0  0  0  0  0  0  0  0  0  0  0  0
   40.5125   -2.1225   34.8476 C   0  0  0  0  0  0  0  0  0  0  0  0
   40.7942   -3.2323   35.6668 C   0  0  0  0  0  0  0  0  0  0  0  0
   39.8024   -3.8307   36.4125 C   0  0  0  0  0  0  0  0  0  0  0  0
   38.4996   -3.3451   36.3722 C   0  0  0  0  0  0  0  0  0  0  0  0
   38.1982   -2.2524   35.5853 C   0  0  0  0  0  0  0  0  0  0  0  0
   39.1924   -1.6507   34.8321 C   0  0  0  0  0  0  0  0  0  0  0  0
   42.0979   -3.7544   35.7635 F   0  0  0  0  0  0  0  0  0  0  0  0
   43.9957    1.4181   34.3653 C   0  0  0  0  0  0  0  0  0  0  0  0
   45.4652    0.9889   34.1470 C   0  0  0  0  0  0  0  0  0  0  0  0
   46.0140    1.3238   33.1094 O   0  0  0  0  0  0  0  0  0  0  0  0
   45.9966    0.3234   35.0142 O   0  0  0  0  0  0  0  0  0  0  0  0
   43.6749    1.7628   35.8929 C   0  0  0  0  0  0  0  0  0  0  0  0
   44.3726    3.0395   36.4845 C   0  0  0  0  0  0  0  0  0  0  0  0
   44.0070    4.1532   36.1383 O   0  0  0  0  0  0  0  0  0  0  0  0
   45.2858    2.8576   37.2890 O   0  0  0  0  0  0  0  0  0  0  0  0
  8  9  2  0  0  0
  8 13  1  0  0  0
  8 18  1  0  0  0
  9 10  1  0  0  0
 10 11  2  0  0  0
 11 12  1  0  0  0
 11 14  1  0  0  0
 12 13  2  0  0  0
 12 15  1  0  0  0
 18 19  1  0  0  0
 18 20  2  0  0  0
 14 16  1  0  0  0
 15 16  2  0  0  0
 16  1  1  0  0  0
  1  2  2  0  0  0
  1  6  1  0  0  0
  2  3  1  0  0  0
  3 32  1  0  0  0
  3  4  2  0  0  0
 32 33  1  0  0  0
 32 36  1  0  0  0
 33 34  2  0  0  0
 33 35  1  0  0  0
 36 37  1  0  0  0
 37 38  2  0  0  0
 37 39  1  0  0  0
  4  5  1  0  0  0
  5  6  2  0  0  0
  5 25  1  0  0  0
  6  7  1  0  0  0
 25 26  2  0  0  0
 25 30  1  0  0  0
 26 27  1  0  0  0
 26 31  1  0  0  0
 27 28  2  0  0  0
 28 29  1  0  0  0
 29 30  2  0  0  0
 19 21  1  0  0  0
 19 22  1  0  0  0
 20 23  1  0  0  0
 20 24  1  0  0  0
 14 17  1  0  0  0
M  CHG 1   7  -1
M  CHG 1  20   1
M  CHG 1  35  -1
M  CHG 1  39  -1
M  END
> <minimizedAffinity>
-8.37845

$$$$
1O30_693_A_246


 39 42  0  0  0  0  0  0  0  0999 V2000
   42.3908   -0.7434   32.2658 C   0  0  0  0  0  0  0  0  0  0  0  0
   41.0480   -0.7384   32.6673 C   0  0  0  0  0  0  0  0  0  0  0  0
   40.6041   -0.1752   33.8724 C   0  0  0  0  0  0  0  0  0  0  0  0
   41.5531    0.3947   34.6999 C   0  0  0  0  0  0  0  0  0  0  0  0
   42.9114    0.4249   34.3773 C   0  0  0  0  0  0  0  0  0  0  0  0
   43.3221   -0.1352   33.1577 C   0  0  0  0  0  0  0  0  0  0  0  0
   44.6686   -0.0435   32.8432 O   0  0  0  0  0  0  0  0  0  0  0  0
   43.8185   -2.6129   26.9728 C   0  0  0  0  0  0  0  0  0  0  0  0
   43.7863   -3.8672   27.6577 C   0  0  0  0  0  0  0  0  0  0  0  0
   43.4930   -3.9751   29.0160 C   0  0  0  0  0  0  0  0  0  0  0  0
   43.2292   -2.8036   29.6825 C   0  0  0  0  0  0  0  0  0  0  0  0
   43.2455   -1.6007   29.0931 C   0  0  0  0  0  0  0  0  0  0  0  0
   43.5336   -1.4475   27.7413 C   0  0  0  0  0  0  0  0  0  0  0  0
   42.9310   -2.6053   30.9165 N   0  0  0  0  0  0  0  0  0  0  0  0
   42.9664   -0.6210   29.9357 N   0  0  0  0  0  0  0  0  0  0  0  0
   42.7847   -1.3259   31.0376 C   0  0  0  0  0  0  0  0  0  0  0  0
   42.8342   -3.2850   31.6221 H   0  0  0  0  0  0  0  0  0  0  0  0
   44.1128   -2.5695   25.5974 C   0  0  0  0  0  0  0  0  0  0  0  0
   44.1306   -1.4146   24.9603 N   0  0  0  0  0  0  0  0  0  0  0  0
   44.3645   -3.7069   24.9680 N   0  0  0  0  0  0  0  0  0  0  0  0
   43.9406   -0.5806   25.4477 H   0  0  0  0  0  0  0  0  0  0  0  0
   44.3340   -1.3867   23.9975 H   0  0  0  0  0  0  0  0  0  0  0  0
   44.3459   -4.5579   25.4627 H   0  0  0  0  0  0  0  0  0  0  0  0
   44.5702   -3.7017   24.0052 H   0  0  0  0  0  0  0  0  0  0  0  0
   43.8133    0.9643   35.2947 C   0  0  0  0  0  0  0  0  0  0  0  0
   44.0300    2.3543   35.3513 C   0  0  0  0  0  0  0  0  0  0  0  0
   44.9503    2.8915   36.2245 C   0  0  0  0  0  0  0  0  0  0  0  0
   45.6827    2.0672   37.0723 C   0  0  0  0  0  0  0  0  0  0  0  0
   45.4828    0.7022   37.0444 C   0  0  0  0  0  0  0  0  0  0  0  0
   44.5608    0.1589   36.1654 C   0  0  0  0  0  0  0  0  0  0  0  0
   43.3035    3.2390   34.5322 F   0  0  0  0  0  0  0  0  0  0  0  0
   39.0854   -0.2035   34.2066 C   0  0  0  0  0  0  0  0  0  0  0  0
   38.5934    1.1866   33.7408 C   0  0  0  0  0  0  0  0  0  0  0  0
   38.2652    1.3186   32.5726 O   0  0  0  0  0  0  0  0  0  0  0  0
   38.5739    2.0850   34.5591 O   0  0  0  0  0  0  0  0  0  0  0  0
   38.7805   -0.4791   35.7514 C   0  0  0  0  0  0  0  0  0  0  0  0
   38.9857   -1.9530   36.2539 C   0  0  0  0  0  0  0  0  0  0  0  0
   39.2359   -2.8433   35.4549 O   0  0  0  0  0  0  0  0  0  0  0  0
   38.8773   -2.1533   37.4631 O   0  0  0  0  0  0  0  0  0  0  0  0
  8  9  2  0  0  0
  8 13  1  0  0  0
  8 18  1  0  0  0
  9 10  1  0  0  0
 10 11  2  0  0  0
 11 12  1  0  0  0
 11 14  1  0  0  0
 12 13  2  0  0  0
 12 15  1  0  0  0
 18 19  1  0  0  0
 18 20  2  0  0  0
 14 16  1  0  0  0
 15 16  2  0  0  0
 16  1  1  0  0  0
  1  2  2  0  0  0
  1  6  1  0  0  0
  2  3  1  0  0  0
  3 32  1  0  0  0
  3  4  2  0  0  0
 32 33  1  0  0  0
 32 36  1  0  0  0
 33 34  2  0  0  0
 33 35  1  0  0  0
 36 37  1  0  0  0
 37 38  2  0  0  0
 37 39  1  0  0  0
  4  5  1  0  0  0
  5  6  2  0  0  0
  5 25  1  0  0  0
  6  7  1  0  0  0
 25 26  2  0  0  0
 25 30  1  0  0  0
 26 27  1  0  0  0
 26 31  1  0  0  0
 27 28  2  0  0  0
 28 29  1  0  0  0
 29 30  2  0  0  0
 19 21  1  0  0  0
 19 22  1  0  0  0
 20 23  1  0  0  0
 20 24  1  0  0  0
 14 17  1  0  0  0
M  CHG 1   7  -1
M  CHG 1  20   1
M  CHG 1  35  -1
M  CHG 1  39  -1
M  END
> <minimizedAffinity>
-8.35697

$$$$
1O30_693_A_246


 39 42  0  0  0  0  0  0  0  0999 V2000
   42.3007   -1.7182   31.2318 C   0  0  0  0  0  0  0  0  0  0  0  0
   43.1574   -1.8933   30.1364 C   0  0  0  0  0  0  0  0  0  0  0  0
   42.7698   -2.5245   28.9457 C   0  0  0  0  0  0  0  0  0  0  0  0
   41.4744   -2.9996   28.8660 C   0  0  0  0  0  0  0  0  0  0  0  0
   40.5607   -2.8719   29.9143 C   0  0  0  0  0  0  0  0  0  0  0  0
   40.9753   -2.2233   31.0878 C   0  0  0  0  0  0  0  0  0  0  0  0
   40.0304   -2.0668   32.0894 O   0  0  0  0  0  0  0  0  0  0  0  0
   44.5532    1.1716   35.7178 C   0  0  0  0  0  0  0  0  0  0  0  0
   43.7829    0.2028   36.4330 C   0  0  0  0  0  0  0  0  0  0  0  0
   43.0080   -0.7631   35.7932 C   0  0  0  0  0  0  0  0  0  0  0  0
   43.0163   -0.7466   34.4200 C   0  0  0  0  0  0  0  0  0  0  0  0
   43.7177    0.1371   33.6978 C   0  0  0  0  0  0  0  0  0  0  0  0
   44.5030    1.1171   34.2950 C   0  0  0  0  0  0  0  0  0  0  0  0
   42.4081   -1.5074   33.5819 N   0  0  0  0  0  0  0  0  0  0  0  0
   43.5655   -0.0391   32.3965 N   0  0  0  0  0  0  0  0  0  0  0  0
   42.7438   -1.0730   32.4108 C   0  0  0  0  0  0  0  0  0  0  0  0
   41.8114   -2.2629   33.7881 H   0  0  0  0  0  0  0  0  0  0  0  0
   45.3230    2.1168   36.4208 C   0  0  0  0  0  0  0  0  0  0  0  0
   46.4908    1.7732   36.9291 N   0  0  0  0  0  0  0  0  0  0  0  0
   44.8463    3.3443   36.5592 N   0  0  0  0  0  0  0  0  0  0  0  0
   46.8265    0.8549   36.8145 H   0  0  0  0  0  0  0  0  0  0  0  0
   47.0266    2.4352   37.4230 H   0  0  0  0  0  0  0  0  0  0  0  0
   43.9723    3.5795   36.1718 H   0  0  0  0  0  0  0  0  0  0  0  0
   45.3658    4.0218   37.0494 H   0  0  0  0  0  0  0  0  0  0  0  0
   39.2908   -3.4327   29.7776 C   0  0  0  0  0  0  0  0  0  0  0  0
   39.0393   -4.7476   30.2133 C   0  0  0  0  0  0  0  0  0  0  0  0
   37.7998   -5.3242   30.0429 C   0  0  0  0  0  0  0  0  0  0  0  0
   36.7685   -4.6133   29.4381 C   0  0  0  0  0  0  0  0  0  0  0  0
   36.9850   -3.3192   29.0108 C   0  0  0  0  0  0  0  0  0  0  0  0
   38.2309   -2.7381   29.1776 C   0  0  0  0  0  0  0  0  0  0  0  0
   40.0383   -5.5078   30.8505 F   0  0  0  0  0  0  0  0  0  0  0  0
   43.7961   -2.6424   27.7830 C   0  0  0  0  0  0  0  0  0  0  0  0
   44.1391   -1.1691   27.4614 C   0  0  0  0  0  0  0  0  0  0  0  0
   44.9227   -0.5879   28.1948 O   0  0  0  0  0  0  0  0  0  0  0  0
   43.5969   -0.6570   26.5017 O   0  0  0  0  0  0  0  0  0  0  0  0
   43.2303   -3.4342   26.5149 C   0  0  0  0  0  0  0  0  0  0  0  0
   44.2405   -3.6872   25.3391 C   0  0  0  0  0  0  0  0  0  0  0  0
   44.5387   -2.7761   24.5811 O   0  0  0  0  0  0  0  0  0  0  0  0
   44.6960   -4.8247   25.2262 O   0  0  0  0  0  0  0  0  0  0  0  0
  8  9  2  0  0  0
  8 13  1  0  0  0
  8 18  1  0  0  0
  9 10  1  0  0  0
 10 11  2  0  0  0
 11 12  1  0  0  0
 11 14  1  0  0  0
 12 13  2  0  0  0
 12 15  1  0  0  0
 18 19  1  0  0  0
 18 20  2  0  0  0
 14 16  1  0  0  0
 15 16  2  0  0  0
 16  1  1  0  0  0
  1  2  2  0  0  0
  1  6  1  0  0  0
  2  3  1  0  0  0
  3 32  1  0  0  0
  3  4  2  0  0  0
 32 33  1  0  0  0
 32 36  1  0  0  0
 33 34  2  0  0  0
 33 35  1  0  0  0
 36 37  1  0  0  0
 37 38  2  0  0  0
 37 39  1  0  0  0
  4  5  1  0  0  0
  5  6  2  0  0  0
  5 25  1  0  0  0
  6  7  1  0  0  0
 25 26  2  0  0  0
 25 30  1  0  0  0
 26 27  1  0  0  0
 26 31  1  0  0  0
 27 28  2  0  0  0
 28 29  1  0  0  0
 29 30  2  0  0  0
 19 21  1  0  0  0
 19 22  1  0  0  0
 20 23  1  0  0  0
 20 24  1  0  0  0
 14 17  1  0  0  0
M  CHG 1   7  -1
M  CHG 1  20   1
M  CHG 1  35  -1
M  CHG 1  39  -1
M  END
> <minimizedAffinity>
-8.01297

$$$$
1O30_693_A_246


 39 42  0  0  0  0  0  0  0  0999 V2000
   41.6507   -1.1239   31.1758 C   0  0  0  0  0  0  0  0  0  0  0  0
   42.3533   -0.4883   32.2087 C   0  0  0  0  0  0  0  0  0  0  0  0
   41.7866   -0.1826   33.4543 C   0  0  0  0  0  0  0  0  0  0  0  0
   40.4632   -0.5260   33.6566 C   0  0  0  0  0  0  0  0  0  0  0  0
   39.6914   -1.1547   32.6773 C   0  0  0  0  0  0  0  0  0  0  0  0
   40.2916   -1.4594   31.4458 C   0  0  0  0  0  0  0  0  0  0  0  0
   39.5146   -2.1292   30.5141 O   0  0  0  0  0  0  0  0  0  0  0  0
   44.0448   -2.8750   26.2008 C   0  0  0  0  0  0  0  0  0  0  0  0
   44.6874   -1.6046   26.3294 C   0  0  0  0  0  0  0  0  0  0  0  0
   44.4390   -0.7406   27.3946 C   0  0  0  0  0  0  0  0  0  0  0  0
   43.5348   -1.1690   28.3352 C   0  0  0  0  0  0  0  0  0  0  0  0
   42.9024   -2.3480   28.2661 C   0  0  0  0  0  0  0  0  0  0  0  0
   43.1198   -3.2395   27.2214 C   0  0  0  0  0  0  0  0  0  0  0  0
   43.1215   -0.5913   29.4059 N   0  0  0  0  0  0  0  0  0  0  0  0
   42.0762   -2.5388   29.2804 N   0  0  0  0  0  0  0  0  0  0  0  0
   42.2719   -1.4095   29.9367 C   0  0  0  0  0  0  0  0  0  0  0  0
   43.3943    0.2897   29.7502 H   0  0  0  0  0  0  0  0  0  0  0  0
   44.3439   -3.7072   25.1062 C   0  0  0  0  0  0  0  0  0  0  0  0
   44.6755   -3.1788   23.9440 N   0  0  0  0  0  0  0  0  0  0  0  0
   44.2802   -5.0192   25.2728 N   0  0  0  0  0  0  0  0  0  0  0  0
   44.7169   -2.2005   23.8419 H   0  0  0  0  0  0  0  0  0  0  0  0
   44.8817   -3.7628   23.1786 H   0  0  0  0  0  0  0  0  0  0  0  0
   44.0305   -5.3926   26.1489 H   0  0  0  0  0  0  0  0  0  0  0  0
   44.4824   -5.6214   24.5207 H   0  0  0  0  0  0  0  0  0  0  0  0
   38.3455   -1.4128   32.9383 C   0  0  0  0  0  0  0  0  0  0  0  0
   37.3594   -0.4617   32.6145 C   0  0  0  0  0  0  0  0  0  0  0  0
   36.0329   -0.6903   32.9082 C   0  0  0  0  0  0  0  0  0  0  0  0
   35.6416   -1.8718   33.5293 C   0  0  0  0  0  0  0  0  0  0  0  0
   36.5866   -2.8253   33.8485 C   0  0  0  0  0  0  0  0  0  0  0  0
   37.9211   -2.5969   33.5576 C   0  0  0  0  0  0  0  0  0  0  0  0
   37.6933    0.7428   31.9670 F   0  0  0  0  0  0  0  0  0  0  0  0
   42.6667    0.5025   34.5384 C   0  0  0  0  0  0  0  0  0  0  0  0
   43.3788   -0.6879   35.2220 C   0  0  0  0  0  0  0  0  0  0  0  0
   44.5495   -0.5522   35.5396 O   0  0  0  0  0  0  0  0  0  0  0  0
   42.7405   -1.7077   35.3943 O   0  0  0  0  0  0  0  0  0  0  0  0
   41.8277    1.3922   35.5679 C   0  0  0  0  0  0  0  0  0  0  0  0
   42.6550    2.2082   36.6246 C   0  0  0  0  0  0  0  0  0  0  0  0
   42.9005    1.7217   37.7185 O   0  0  0  0  0  0  0  0  0  0  0  0
   43.0255    3.3352   36.2976 O   0  0  0  0  0  0  0  0  0  0  0  0
  8  9  2  0  0  0
  8 13  1  0  0  0
  8 18  1  0  0  0
  9 10  1  0  0  0
 10 11  2  0  0  0
 11 12  1  0  0  0
 11 14  1  0  0  0
 12 13  2  0  0  0
 12 15  1  0  0  0
 18 19  1  0  0  0
 18 20  2  0  0  0
 14 16  1  0  0  0
 15 16  2  0  0  0
 16  1  1  0  0  0
  1  2  2  0  0  0
  1  6  1  0  0  0
  2  3  1  0  0  0
  3 32  1  0  0  0
  3  4  2  0  0  0
 32 33  1  0  0  0
 32 36  1  0  0  0
 33 34  2  0  0  0
 33 35  1  0  0  0
 36 37  1  0  0  0
 37 38  2  0  0  0
 37 39  1  0  0  0
  4  5  1  0  0  0
  5  6  2  0  0  0
  5 25  1  0  0  0
  6  7  1  0  0  0
 25 26  2  0  0  0
 25 30  1  0  0  0
 26 27  1  0  0  0
 26 31  1  0  0  0
 27 28  2  0  0  0
 28 29  1  0  0  0
 29 30  2  0  0  0
 19 21  1  0  0  0
 19 22  1  0  0  0
 20 23  1  0  0  0
 20 24  1  0  0  0
 14 17  1  0  0  0
M  CHG 1   7  -1
M  CHG 1  20   1
M  CHG 1  35  -1
M  CHG 1  39  -1
M  END
> <minimizedAffinity>
-7.99711

$$$$
