3BGC_LJH_A_2501


 46 49  0  0  0  0  0  0  0  0999 V2000
  -10.1665   22.2296  -16.1625 N   0  0  0  0  0  0  0  0  0  0  0  0
  -10.8919   22.1921  -15.4464 H   0  0  0  0  0  0  0  0  0  0  0  0
  -10.8089   22.2401  -17.5075 C   0  0  0  0  0  0  0  0  0  0  0  0
  -12.2977   22.6160  -17.5154 C   0  0  0  0  0  0  0  0  0  0  0  0
  -13.2551   21.5334  -17.6438 N   0  0  0  0  0  0  0  0  0  0  0  0
  -14.2249   21.4975  -18.9883 S   0  0  0  0  0  0  0  0  0  0  0  0
  -15.0790   20.3325  -18.9304 O   0  0  0  0  0  0  0  0  0  0  0  0
  -13.3104   21.6573  -20.1007 O   0  0  0  0  0  0  0  0  0  0  0  0
  -15.2207   22.9594  -18.8258 C   0  0  0  0  0  0  0  0  0  0  0  0
  -14.9159   24.0934  -19.5886 C   0  0  0  0  0  0  0  0  0  0  0  0
  -15.6957   25.2429  -19.4601 C   0  0  0  0  0  0  0  0  0  0  0  0
  -16.7784   25.2689  -18.5790 C   0  0  0  0  0  0  0  0  0  0  0  0
  -17.5227   26.4624  -18.4542 N   0  0  0  0  0  0  0  0  0  0  0  0
  -17.0924   24.1328  -17.8317 C   0  0  0  0  0  0  0  0  0  0  0  0
  -16.3128   22.9745  -17.9577 C   0  0  0  0  0  0  0  0  0  0  0  0
  -17.2821   27.2511  -18.9921 H   0  0  0  0  0  0  0  0  0  0  0  0
  -18.2822   26.5059  -17.8293 H   0  0  0  0  0  0  0  0  0  0  0  0
  -13.4456   20.4332  -16.7071 C   0  0  0  0  0  0  0  0  0  0  0  0
  -15.7340   20.8344  -13.6425 C   0  0  0  0  0  0  0  0  0  0  0  0
  -15.3215   20.6565  -14.9627 C   0  0  0  0  0  0  0  0  0  0  0  0
  -13.0327   20.8990  -14.2657 C   0  0  0  0  0  0  0  0  0  0  0  0
  -13.4410   21.1425  -12.9552 C   0  0  0  0  0  0  0  0  0  0  0  0
  -14.8062   21.1798  -12.6526 C   0  0  0  0  0  0  0  0  0  0  0  0
  -13.9592   20.6699  -15.2957 C   0  0  0  0  0  0  0  0  0  0  0  0
   -9.2690   21.0496  -16.0101 C   0  0  0  0  0  0  0  0  0  0  0  0
  -10.0621   19.7122  -16.0321 C   0  0  0  0  0  0  0  0  0  0  0  0
   -9.3049   18.4961  -16.3263 N   0  0  0  0  0  0  0  0  0  0  0  0
   -9.8910   17.4130  -17.4520 S   0  0  0  0  0  0  0  0  0  0  0  0
   -9.0010   16.2870  -17.5426 O   0  0  0  0  0  0  0  0  0  0  0  0
  -11.3012   17.2917  -17.2367 O   0  0  0  0  0  0  0  0  0  0  0  0
  -10.7417   19.0398  -19.5187 C   0  0  0  0  0  0  0  0  0  0  0  0
  -10.5090   19.8439  -20.6473 C   0  0  0  0  0  0  0  0  0  0  0  0
   -9.6413   18.4483  -18.8943 C   0  0  0  0  0  0  0  0  0  0  0  0
   -8.3241   18.6192  -19.3310 C   0  0  0  0  0  0  0  0  0  0  0  0
   -8.1040   19.4382  -20.4393 C   0  0  0  0  0  0  0  0  0  0  0  0
   -9.1911   19.9987  -21.1093 C   0  0  0  0  0  0  0  0  0  0  0  0
   -8.9196   20.7750  -22.2511 N   0  0  0  0  0  0  0  0  0  0  0  0
   -9.6591   21.1883  -22.7527 H   0  0  0  0  0  0  0  0  0  0  0  0
   -7.9901   20.9048  -22.5485 H   0  0  0  0  0  0  0  0  0  0  0  0
   -8.0117   18.1745  -15.7340 C   0  0  0  0  0  0  0  0  0  0  0  0
   -9.1416   16.7365  -13.9662 C   0  0  0  0  0  0  0  0  0  0  0  0
   -7.0490   14.8938  -14.0149 C   0  0  0  0  0  0  0  0  0  0  0  0
   -6.9987   16.0383  -14.8151 C   0  0  0  0  0  0  0  0  0  0  0  0
   -8.0561   16.9498  -14.8182 C   0  0  0  0  0  0  0  0  0  0  0  0
   -9.1792   15.6173  -13.1402 C   0  0  0  0  0  0  0  0  0  0  0  0
   -8.1145   14.7148  -13.1320 C   0  0  0  0  0  0  0  0  0  0  0  0
  1  3  1  0  0  0
  1 25  1  0  0  0
  3  4  1  0  0  0
  4  5  1  0  0  0
 40 27  1  0  0  0
 40 44  1  0  0  0
 41 44  2  0  0  0
 41 45  1  0  0  0
 42 43  2  0  0  0
 42 46  1  0  0  0
 31 32  2  0  0  0
 31 33  1  0  0  0
 19 20  2  0  0  0
 19 23  1  0  0  0
 25 26  1  0  0  0
 26 27  1  0  0  0
 27 28  1  0  0  0
 20 24  1  0  0  0
 21 22  1  0  0  0
 21 24  2  0  0  0
 22 23  2  0  0  0
 18  5  1  0  0  0
 18 24  1  0  0  0
  5  6  1  0  0  0
 32 36  1  0  0  0
 33 28  1  0  0  0
 33 34  2  0  0  0
 43 44  1  0  0  0
 45 46  2  0  0  0
 28 29  2  0  0  0
 28 30  2  0  0  0
 34 35  1  0  0  0
 35 36  2  0  0  0
 36 37  1  0  0  0
  6  7  2  0  0  0
  6  8  2  0  0  0
  6  9  1  0  0  0
  9 10  2  0  0  0
  9 15  1  0  0  0
 10 11  1  0  0  0
 11 12  2  0  0  0
 12 13  1  0  0  0
 12 14  1  0  0  0
 14 15  2  0  0  0
  1  2  1  0  0  0
 37 38  1  0  0  0
 37 39  1  0  0  0
 13 16  1  0  0  0
 13 17  1  0  0  0
M  END
> <minimizedAffinity>
-9.97006

$$$$
3BGC_LJH_A_2501


 46 49  0  0  0  0  0  0  0  0999 V2000
  -13.0445   18.2191  -18.3122 N   0  0  0  0  0  0  0  0  0  0  0  0
  -13.1659   17.4029  -17.7126 H   0  0  0  0  0  0  0  0  0  0  0  0
  -11.6253   18.2863  -18.7631 C   0  0  0  0  0  0  0  0  0  0  0  0
  -10.5816   17.9959  -17.6749 C   0  0  0  0  0  0  0  0  0  0  0  0
   -9.8882   19.1332  -17.0996 N   0  0  0  0  0  0  0  0  0  0  0  0
   -9.9692   19.3549  -15.4583 S   0  0  0  0  0  0  0  0  0  0  0  0
  -11.3493   19.5370  -15.0682 O   0  0  0  0  0  0  0  0  0  0  0  0
   -9.0061   20.4023  -15.1849 O   0  0  0  0  0  0  0  0  0  0  0  0
   -9.3746   17.8168  -14.7981 C   0  0  0  0  0  0  0  0  0  0  0  0
   -8.0378   17.4493  -14.9945 C   0  0  0  0  0  0  0  0  0  0  0  0
   -7.5703   16.2405  -14.4786 C   0  0  0  0  0  0  0  0  0  0  0  0
   -8.4249   15.3973  -13.7659 C   0  0  0  0  0  0  0  0  0  0  0  0
   -7.9211   14.1676  -13.2882 N   0  0  0  0  0  0  0  0  0  0  0  0
   -9.7526   15.7720  -13.5553 C   0  0  0  0  0  0  0  0  0  0  0  0
  -10.2276   16.9861  -14.0707 C   0  0  0  0  0  0  0  0  0  0  0  0
   -6.9806   13.9251  -13.4492 H   0  0  0  0  0  0  0  0  0  0  0  0
   -8.5103   13.5528  -12.7943 H   0  0  0  0  0  0  0  0  0  0  0  0
   -9.0886   20.1136  -17.8232 C   0  0  0  0  0  0  0  0  0  0  0  0
   -8.1314   19.1120  -21.4107 C   0  0  0  0  0  0  0  0  0  0  0  0
   -8.1762   19.1304  -20.0170 C   0  0  0  0  0  0  0  0  0  0  0  0
   -9.6691   21.0138  -20.1037 C   0  0  0  0  0  0  0  0  0  0  0  0
   -9.5774   21.0425  -21.4944 C   0  0  0  0  0  0  0  0  0  0  0  0
   -8.7471   20.1282  -22.1511 C   0  0  0  0  0  0  0  0  0  0  0  0
   -8.9605   20.0741  -19.3378 C   0  0  0  0  0  0  0  0  0  0  0  0
  -13.4199   19.4440  -17.5506 C   0  0  0  0  0  0  0  0  0  0  0  0
  -14.4768   20.2961  -18.3089 C   0  0  0  0  0  0  0  0  0  0  0  0
  -14.5316   21.7225  -17.9911 N   0  0  0  0  0  0  0  0  0  0  0  0
  -13.4943   22.7784  -18.7611 S   0  0  0  0  0  0  0  0  0  0  0  0
  -12.7364   23.5070  -17.7799 O   0  0  0  0  0  0  0  0  0  0  0  0
  -12.9001   22.0734  -19.8564 O   0  0  0  0  0  0  0  0  0  0  0  0
  -15.4231   23.5144  -20.5995 C   0  0  0  0  0  0  0  0  0  0  0  0
  -16.4030   24.3926  -21.0924 C   0  0  0  0  0  0  0  0  0  0  0  0
  -14.7535   23.8678  -19.4258 C   0  0  0  0  0  0  0  0  0  0  0  0
  -15.0116   25.0448  -18.7165 C   0  0  0  0  0  0  0  0  0  0  0  0
  -16.0027   25.8977  -19.2040 C   0  0  0  0  0  0  0  0  0  0  0  0
  -16.6493   25.5906  -20.4009 C   0  0  0  0  0  0  0  0  0  0  0  0
  -17.6045   26.5081  -20.8764 N   0  0  0  0  0  0  0  0  0  0  0  0
  -18.0833   26.3285  -21.7176 H   0  0  0  0  0  0  0  0  0  0  0  0
  -17.7939   27.3295  -20.3678 H   0  0  0  0  0  0  0  0  0  0  0  0
  -15.4886   22.3182  -17.0658 C   0  0  0  0  0  0  0  0  0  0  0  0
  -16.2404   21.0195  -15.0120 C   0  0  0  0  0  0  0  0  0  0  0  0
  -13.9822   21.8176  -13.5838 C   0  0  0  0  0  0  0  0  0  0  0  0
  -14.1869   22.2718  -14.8893 C   0  0  0  0  0  0  0  0  0  0  0  0
  -15.2996   21.8526  -15.6208 C   0  0  0  0  0  0  0  0  0  0  0  0
  -16.0597   20.5942  -13.6995 C   0  0  0  0  0  0  0  0  0  0  0  0
  -14.9517   21.0252  -12.9682 C   0  0  0  0  0  0  0  0  0  0  0  0
  1  3  1  0  0  0
  1 25  1  0  0  0
  3  4  1  0  0  0
  4  5  1  0  0  0
 40 27  1  0  0  0
 40 44  1  0  0  0
 41 44  2  0  0  0
 41 45  1  0  0  0
 42 43  2  0  0  0
 42 46  1  0  0  0
 31 32  2  0  0  0
 31 33  1  0  0  0
 19 20  2  0  0  0
 19 23  1  0  0  0
 25 26  1  0  0  0
 26 27  1  0  0  0
 27 28  1  0  0  0
 20 24  1  0  0  0
 21 22  1  0  0  0
 21 24  2  0  0  0
 22 23  2  0  0  0
 18  5  1  0  0  0
 18 24  1  0  0  0
  5  6  1  0  0  0
 32 36  1  0  0  0
 33 28  1  0  0  0
 33 34  2  0  0  0
 43 44  1  0  0  0
 45 46  2  0  0  0
 28 29  2  0  0  0
 28 30  2  0  0  0
 34 35  1  0  0  0
 35 36  2  0  0  0
 36 37  1  0  0  0
  6  7  2  0  0  0
  6  8  2  0  0  0
  6  9  1  0  0  0
  9 10  2  0  0  0
  9 15  1  0  0  0
 10 11  1  0  0  0
 11 12  2  0  0  0
 12 13  1  0  0  0
 12 14  1  0  0  0
 14 15  2  0  0  0
  1  2  1  0  0  0
 37 38  1  0  0  0
 37 39  1  0  0  0
 13 16  1  0  0  0
 13 17  1  0  0  0
M  END
> <minimizedAffinity>
-9.86889

$$$$
3BGC_LJH_A_2501


 46 49  0  0  0  0  0  0  0  0999 V2000
  -12.8904   19.0175  -18.2493 N   0  0  0  0  0  0  0  0  0  0  0  0
  -13.3956   18.2083  -18.6104 H   0  0  0  0  0  0  0  0  0  0  0  0
  -11.7903   18.5484  -17.3595 C   0  0  0  0  0  0  0  0  0  0  0  0
  -11.6499   19.3161  -16.0371 C   0  0  0  0  0  0  0  0  0  0  0  0
  -10.4159   20.0483  -15.8223 N   0  0  0  0  0  0  0  0  0  0  0  0
  -10.2806   21.5679  -16.4718 S   0  0  0  0  0  0  0  0  0  0  0  0
   -9.1553   22.2467  -15.8693 O   0  0  0  0  0  0  0  0  0  0  0  0
  -11.6074   22.1363  -16.3465 O   0  0  0  0  0  0  0  0  0  0  0  0
   -9.9273   21.2611  -18.1854 C   0  0  0  0  0  0  0  0  0  0  0  0
   -8.8951   20.3812  -18.5331 C   0  0  0  0  0  0  0  0  0  0  0  0
   -8.6151   20.1413  -19.8785 C   0  0  0  0  0  0  0  0  0  0  0  0
   -9.3585   20.7699  -20.8792 C   0  0  0  0  0  0  0  0  0  0  0  0
   -9.0222   20.5255  -22.2287 N   0  0  0  0  0  0  0  0  0  0  0  0
  -10.3986   21.6334  -20.5323 C   0  0  0  0  0  0  0  0  0  0  0  0
  -10.6851   21.8773  -19.1817 C   0  0  0  0  0  0  0  0  0  0  0  0
   -8.2843   19.9121  -22.4488 H   0  0  0  0  0  0  0  0  0  0  0  0
   -9.5257   20.9684  -22.9495 H   0  0  0  0  0  0  0  0  0  0  0  0
   -9.2620   19.5908  -15.0584 C   0  0  0  0  0  0  0  0  0  0  0  0
   -9.9783   16.1160  -13.5747 C   0  0  0  0  0  0  0  0  0  0  0  0
  -10.1379   17.4571  -13.9219 C   0  0  0  0  0  0  0  0  0  0  0  0
   -7.9441   17.4489  -14.9069 C   0  0  0  0  0  0  0  0  0  0  0  0
   -7.7515   16.1279  -14.5055 C   0  0  0  0  0  0  0  0  0  0  0  0
   -8.7488   15.4763  -13.7722 C   0  0  0  0  0  0  0  0  0  0  0  0
   -9.1273   18.1443  -14.6099 C   0  0  0  0  0  0  0  0  0  0  0  0
  -13.8398   19.8933  -17.5059 C   0  0  0  0  0  0  0  0  0  0  0  0
  -14.7818   20.6730  -18.4667 C   0  0  0  0  0  0  0  0  0  0  0  0
  -15.0696   22.0664  -18.1284 N   0  0  0  0  0  0  0  0  0  0  0  0
  -14.2932   23.2914  -18.9532 S   0  0  0  0  0  0  0  0  0  0  0  0
  -13.3495   23.9348  -18.0792 O   0  0  0  0  0  0  0  0  0  0  0  0
  -13.9549   22.7879  -20.2500 O   0  0  0  0  0  0  0  0  0  0  0  0
  -16.5684   24.2044  -20.2303 C   0  0  0  0  0  0  0  0  0  0  0  0
  -17.6750   25.0633  -20.3404 C   0  0  0  0  0  0  0  0  0  0  0  0
  -15.7185   24.3639  -19.1335 C   0  0  0  0  0  0  0  0  0  0  0  0
  -15.9153   25.3283  -18.1405 C   0  0  0  0  0  0  0  0  0  0  0  0
  -17.0304   26.1603  -18.2493 C   0  0  0  0  0  0  0  0  0  0  0  0
  -17.8650   26.0532  -19.3615 C   0  0  0  0  0  0  0  0  0  0  0  0
  -18.9466   26.9490  -19.4499 N   0  0  0  0  0  0  0  0  0  0  0  0
  -19.5593   26.9065  -20.2193 H   0  0  0  0  0  0  0  0  0  0  0  0
  -19.0905   27.6182  -18.7423 H   0  0  0  0  0  0  0  0  0  0  0  0
  -16.0525   22.4803  -17.1338 C   0  0  0  0  0  0  0  0  0  0  0  0
  -16.4015   20.9889  -15.1032 C   0  0  0  0  0  0  0  0  0  0  0  0
  -14.3211   22.2389  -13.7296 C   0  0  0  0  0  0  0  0  0  0  0  0
  -14.6799   22.6706  -15.0093 C   0  0  0  0  0  0  0  0  0  0  0  0
  -15.7003   22.0302  -15.7147 C   0  0  0  0  0  0  0  0  0  0  0  0
  -16.0722   20.5797  -13.8146 C   0  0  0  0  0  0  0  0  0  0  0  0
  -15.0590   21.2305  -13.1088 C   0  0  0  0  0  0  0  0  0  0  0  0
  1  3  1  0  0  0
  1 25  1  0  0  0
  3  4  1  0  0  0
  4  5  1  0  0  0
 40 27  1  0  0  0
 40 44  1  0  0  0
 41 44  2  0  0  0
 41 45  1  0  0  0
 42 43  2  0  0  0
 42 46  1  0  0  0
 31 32  2  0  0  0
 31 33  1  0  0  0
 19 20  2  0  0  0
 19 23  1  0  0  0
 25 26  1  0  0  0
 26 27  1  0  0  0
 27 28  1  0  0  0
 20 24  1  0  0  0
 21 22  1  0  0  0
 21 24  2  0  0  0
 22 23  2  0  0  0
 18  5  1  0  0  0
 18 24  1  0  0  0
  5  6  1  0  0  0
 32 36  1  0  0  0
 33 28  1  0  0  0
 33 34  2  0  0  0
 43 44  1  0  0  0
 45 46  2  0  0  0
 28 29  2  0  0  0
 28 30  2  0  0  0
 34 35  1  0  0  0
 35 36  2  0  0  0
 36 37  1  0  0  0
  6  7  2  0  0  0
  6  8  2  0  0  0
  6  9  1  0  0  0
  9 10  2  0  0  0
  9 15  1  0  0  0
 10 11  1  0  0  0
 11 12  2  0  0  0
 12 13  1  0  0  0
 12 14  1  0  0  0
 14 15  2  0  0  0
  1  2  1  0  0  0
 37 38  1  0  0  0
 37 39  1  0  0  0
 13 16  1  0  0  0
 13 17  1  0  0  0
M  END
> <minimizedAffinity>
-9.83278

$$$$
3BGC_LJH_A_2501


 46 49  0  0  0  0  0  0  0  0999 V2000
  -10.1528   22.6440  -16.3980 N   0  0  0  0  0  0  0  0  0  0  0  0
   -9.3240   23.1834  -16.6479 H   0  0  0  0  0  0  0  0  0  0  0  0
   -9.7291   21.3234  -15.8518 C   0  0  0  0  0  0  0  0  0  0  0  0
   -9.5911   20.2022  -16.8919 C   0  0  0  0  0  0  0  0  0  0  0  0
  -10.0841   18.8888  -16.5216 N   0  0  0  0  0  0  0  0  0  0  0  0
  -10.3977   17.7978  -17.7303 S   0  0  0  0  0  0  0  0  0  0  0  0
  -11.8191   17.5390  -17.7834 O   0  0  0  0  0  0  0  0  0  0  0  0
   -9.4820   16.7035  -17.4789 O   0  0  0  0  0  0  0  0  0  0  0  0
   -9.9053   18.6547  -19.2063 C   0  0  0  0  0  0  0  0  0  0  0  0
  -10.8148   19.5015  -19.8517 C   0  0  0  0  0  0  0  0  0  0  0  0
  -10.4301   20.1730  -21.0122 C   0  0  0  0  0  0  0  0  0  0  0  0
   -9.1447   20.0088  -21.5320 C   0  0  0  0  0  0  0  0  0  0  0  0
   -8.8054   20.6809  -22.7267 N   0  0  0  0  0  0  0  0  0  0  0  0
   -8.2329   19.1784  -20.8788 C   0  0  0  0  0  0  0  0  0  0  0  0
   -8.6138   18.5018  -19.7115 C   0  0  0  0  0  0  0  0  0  0  0  0
   -9.4657   21.2616  -23.1694 H   0  0  0  0  0  0  0  0  0  0  0  0
   -7.9084   20.5688  -23.1168 H   0  0  0  0  0  0  0  0  0  0  0  0
  -10.3172   18.4040  -15.1671 C   0  0  0  0  0  0  0  0  0  0  0  0
   -9.2294   15.2148  -13.3138 C   0  0  0  0  0  0  0  0  0  0  0  0
  -10.0338   16.2455  -13.7988 C   0  0  0  0  0  0  0  0  0  0  0  0
   -8.1012   17.2602  -14.8081 C   0  0  0  0  0  0  0  0  0  0  0  0
   -7.2810   16.2688  -14.2718 C   0  0  0  0  0  0  0  0  0  0  0  0
   -7.8384   15.2755  -13.4597 C   0  0  0  0  0  0  0  0  0  0  0  0
   -9.4849   17.2804  -14.5699 C   0  0  0  0  0  0  0  0  0  0  0  0
  -11.0054   22.4710  -17.6081 C   0  0  0  0  0  0  0  0  0  0  0  0
  -12.5188   22.5955  -17.2730 C   0  0  0  0  0  0  0  0  0  0  0  0
  -13.3594   21.4328  -17.5566 N   0  0  0  0  0  0  0  0  0  0  0  0
  -14.2222   21.3687  -18.9832 S   0  0  0  0  0  0  0  0  0  0  0  0
  -13.3416   21.6350  -20.0885 O   0  0  0  0  0  0  0  0  0  0  0  0
  -15.0814   20.2256  -18.9136 O   0  0  0  0  0  0  0  0  0  0  0  0
  -16.2292   22.7941  -17.7255 C   0  0  0  0  0  0  0  0  0  0  0  0
  -16.9946   23.9554  -17.5259 C   0  0  0  0  0  0  0  0  0  0  0  0
  -15.2226   22.8279  -18.6933 C   0  0  0  0  0  0  0  0  0  0  0  0
  -14.9360   23.9565  -19.4672 C   0  0  0  0  0  0  0  0  0  0  0  0
  -15.6882   25.1105  -19.2438 C   0  0  0  0  0  0  0  0  0  0  0  0
  -16.7314   25.0854  -18.3184 C   0  0  0  0  0  0  0  0  0  0  0  0
  -17.4925   26.2591  -18.1666 N   0  0  0  0  0  0  0  0  0  0  0  0
  -18.2378   26.2828  -17.5238 H   0  0  0  0  0  0  0  0  0  0  0  0
  -17.2797   27.0566  -18.7032 H   0  0  0  0  0  0  0  0  0  0  0  0
  -13.4618   20.2661  -16.6877 C   0  0  0  0  0  0  0  0  0  0  0  0
  -12.9874   20.8358  -14.2546 C   0  0  0  0  0  0  0  0  0  0  0  0
  -15.7106   21.0403  -13.6896 C   0  0  0  0  0  0  0  0  0  0  0  0
  -15.2817   20.6846  -14.9712 C   0  0  0  0  0  0  0  0  0  0  0  0
  -13.9198   20.6096  -15.2690 C   0  0  0  0  0  0  0  0  0  0  0  0
  -13.4101   21.1543  -12.9677 C   0  0  0  0  0  0  0  0  0  0  0  0
  -14.7727   21.2167  -12.6717 C   0  0  0  0  0  0  0  0  0  0  0  0
  1  3  1  0  0  0
  1 25  1  0  0  0
  3  4  1  0  0  0
  4  5  1  0  0  0
 40 27  1  0  0  0
 40 44  1  0  0  0
 41 44  2  0  0  0
 41 45  1  0  0  0
 42 43  2  0  0  0
 42 46  1  0  0  0
 31 32  2  0  0  0
 31 33  1  0  0  0
 19 20  2  0  0  0
 19 23  1  0  0  0
 25 26  1  0  0  0
 26 27  1  0  0  0
 27 28  1  0  0  0
 20 24  1  0  0  0
 21 22  1  0  0  0
 21 24  2  0  0  0
 22 23  2  0  0  0
 18  5  1  0  0  0
 18 24  1  0  0  0
  5  6  1  0  0  0
 32 36  1  0  0  0
 33 28  1  0  0  0
 33 34  2  0  0  0
 43 44  1  0  0  0
 45 46  2  0  0  0
 28 29  2  0  0  0
 28 30  2  0  0  0
 34 35  1  0  0  0
 35 36  2  0  0  0
 36 37  1  0  0  0
  6  7  2  0  0  0
  6  8  2  0  0  0
  6  9  1  0  0  0
  9 10  2  0  0  0
  9 15  1  0  0  0
 10 11  1  0  0  0
 11 12  2  0  0  0
 12 13  1  0  0  0
 12 14  1  0  0  0
 14 15  2  0  0  0
  1  2  1  0  0  0
 37 38  1  0  0  0
 37 39  1  0  0  0
 13 16  1  0  0  0
 13 17  1  0  0  0
M  END
> <minimizedAffinity>
-9.83020

$$$$
3BGC_LJH_A_2501


 46 49  0  0  0  0  0  0  0  0999 V2000
  -10.3924   21.9766  -17.6336 N   0  0  0  0  0  0  0  0  0  0  0  0
   -9.7334   22.4868  -18.2217 H   0  0  0  0  0  0  0  0  0  0  0  0
  -11.2807   22.9506  -16.9379 C   0  0  0  0  0  0  0  0  0  0  0  0
  -12.7425   22.9502  -17.4083 C   0  0  0  0  0  0  0  0  0  0  0  0
  -13.3774   21.6600  -17.6013 N   0  0  0  0  0  0  0  0  0  0  0  0
  -14.1559   21.3744  -19.0372 S   0  0  0  0  0  0  0  0  0  0  0  0
  -14.9979   20.2072  -18.9004 O   0  0  0  0  0  0  0  0  0  0  0  0
  -13.1009   21.3808  -20.0303 O   0  0  0  0  0  0  0  0  0  0  0  0
  -15.1795   22.8101  -19.2516 C   0  0  0  0  0  0  0  0  0  0  0  0
  -16.2390   23.0439  -18.3663 C   0  0  0  0  0  0  0  0  0  0  0  0
  -17.0451   24.1698  -18.5352 C   0  0  0  0  0  0  0  0  0  0  0  0
  -16.8007   25.0654  -19.5780 C   0  0  0  0  0  0  0  0  0  0  0  0
  -17.6597   26.1754  -19.7339 N   0  0  0  0  0  0  0  0  0  0  0  0
  -15.7341   24.8414  -20.4495 C   0  0  0  0  0  0  0  0  0  0  0  0
  -14.9200   23.7121  -20.2840 C   0  0  0  0  0  0  0  0  0  0  0  0
  -18.4057   26.3125  -19.1062 H   0  0  0  0  0  0  0  0  0  0  0  0
  -17.5126   26.8121  -20.4702 H   0  0  0  0  0  0  0  0  0  0  0  0
  -13.3855   20.5512  -16.6555 C   0  0  0  0  0  0  0  0  0  0  0  0
  -13.4560   21.1981  -12.8653 C   0  0  0  0  0  0  0  0  0  0  0  0
  -12.9710   20.9934  -14.1566 C   0  0  0  0  0  0  0  0  0  0  0  0
  -15.2217   20.6561  -14.9336 C   0  0  0  0  0  0  0  0  0  0  0  0
  -15.7078   20.7946  -13.6344 C   0  0  0  0  0  0  0  0  0  0  0  0
  -14.8118   20.9983  -12.5796 C   0  0  0  0  0  0  0  0  0  0  0  0
  -13.8490   20.7340  -15.2190 C   0  0  0  0  0  0  0  0  0  0  0  0
   -9.6326   21.1527  -16.6512 C   0  0  0  0  0  0  0  0  0  0  0  0
   -9.1862   19.7926  -17.2585 C   0  0  0  0  0  0  0  0  0  0  0  0
  -10.2423   18.8453  -17.6134 N   0  0  0  0  0  0  0  0  0  0  0  0
  -10.8007   17.7675  -16.4686 S   0  0  0  0  0  0  0  0  0  0  0  0
  -10.9546   18.4434  -15.2086 O   0  0  0  0  0  0  0  0  0  0  0  0
  -11.8349   16.9894  -17.0808 O   0  0  0  0  0  0  0  0  0  0  0  0
   -8.7270   16.3105  -17.5724 C   0  0  0  0  0  0  0  0  0  0  0  0
   -7.5710   15.5179  -17.4732 C   0  0  0  0  0  0  0  0  0  0  0  0
   -9.3232   16.7551  -16.3902 C   0  0  0  0  0  0  0  0  0  0  0  0
   -8.8268   16.4563  -15.1176 C   0  0  0  0  0  0  0  0  0  0  0  0
   -7.6654   15.6872  -15.0331 C   0  0  0  0  0  0  0  0  0  0  0  0
   -7.0811   15.1901  -16.1978 C   0  0  0  0  0  0  0  0  0  0  0  0
   -5.9410   14.3776  -16.0561 N   0  0  0  0  0  0  0  0  0  0  0  0
   -5.4986   14.0068  -16.8536 H   0  0  0  0  0  0  0  0  0  0  0  0
   -5.5857   14.1801  -15.1595 H   0  0  0  0  0  0  0  0  0  0  0  0
  -10.9026   18.8057  -18.9130 C   0  0  0  0  0  0  0  0  0  0  0  0
   -9.9854   20.3041  -20.7523 C   0  0  0  0  0  0  0  0  0  0  0  0
   -8.1491   18.3557  -21.5322 C   0  0  0  0  0  0  0  0  0  0  0  0
   -9.0508   18.0993  -20.4959 C   0  0  0  0  0  0  0  0  0  0  0  0
   -9.9527   19.0806  -20.0803 C   0  0  0  0  0  0  0  0  0  0  0  0
   -9.1144   20.5507  -21.8091 C   0  0  0  0  0  0  0  0  0  0  0  0
   -8.2224   19.5625  -22.2287 C   0  0  0  0  0  0  0  0  0  0  0  0
  1  3  1  0  0  0
  1 25  1  0  0  0
  3  4  1  0  0  0
  4  5  1  0  0  0
 40 27  1  0  0  0
 40 44  1  0  0  0
 41 44  2  0  0  0
 41 45  1  0  0  0
 42 43  2  0  0  0
 42 46  1  0  0  0
 31 32  2  0  0  0
 31 33  1  0  0  0
 19 20  2  0  0  0
 19 23  1  0  0  0
 25 26  1  0  0  0
 26 27  1  0  0  0
 27 28  1  0  0  0
 20 24  1  0  0  0
 21 22  1  0  0  0
 21 24  2  0  0  0
 22 23  2  0  0  0
 18  5  1  0  0  0
 18 24  1  0  0  0
  5  6  1  0  0  0
 32 36  1  0  0  0
 33 28  1  0  0  0
 33 34  2  0  0  0
 43 44  1  0  0  0
 45 46  2  0  0  0
 28 29  2  0  0  0
 28 30  2  0  0  0
 34 35  1  0  0  0
 35 36  2  0  0  0
 36 37  1  0  0  0
  6  7  2  0  0  0
  6  8  2  0  0  0
  6  9  1  0  0  0
  9 10  2  0  0  0
  9 15  1  0  0  0
 10 11  1  0  0  0
 11 12  2  0  0  0
 12 13  1  0  0  0
 12 14  1  0  0  0
 14 15  2  0  0  0
  1  2  1  0  0  0
 37 38  1  0  0  0
 37 39  1  0  0  0
 13 16  1  0  0  0
 13 17  1  0  0  0
M  END
> <minimizedAffinity>
-9.82424

$$$$
3BGC_LJH_A_2501


 46 49  0  0  0  0  0  0  0  0999 V2000
  -10.2341   22.4260  -16.2865 N   0  0  0  0  0  0  0  0  0  0  0  0
   -9.3813   22.9759  -16.3904 H   0  0  0  0  0  0  0  0  0  0  0  0
   -9.8704   20.9926  -16.0992 C   0  0  0  0  0  0  0  0  0  0  0  0
   -9.1512   20.3421  -17.2898 C   0  0  0  0  0  0  0  0  0  0  0  0
   -9.8574   19.2912  -17.9983 N   0  0  0  0  0  0  0  0  0  0  0  0
   -9.8338   19.3084  -19.6562 S   0  0  0  0  0  0  0  0  0  0  0  0
   -9.8595   20.6773  -20.1203 O   0  0  0  0  0  0  0  0  0  0  0  0
  -10.8965   18.4032  -20.0444 O   0  0  0  0  0  0  0  0  0  0  0  0
   -8.2627   18.5849  -20.0604 C   0  0  0  0  0  0  0  0  0  0  0  0
   -7.8626   18.5014  -21.3997 C   0  0  0  0  0  0  0  0  0  0  0  0
   -6.6300   17.9312  -21.7186 C   0  0  0  0  0  0  0  0  0  0  0  0
   -5.7927   17.4465  -20.7120 C   0  0  0  0  0  0  0  0  0  0  0  0
   -4.5679   16.8472  -21.0789 N   0  0  0  0  0  0  0  0  0  0  0  0
   -6.1842   17.5457  -19.3761 C   0  0  0  0  0  0  0  0  0  0  0  0
   -7.4213   18.1188  -19.0498 C   0  0  0  0  0  0  0  0  0  0  0  0
   -4.3133   16.7888  -22.0281 H   0  0  0  0  0  0  0  0  0  0  0  0
   -3.9686   16.4877  -20.3854 H   0  0  0  0  0  0  0  0  0  0  0  0
  -10.5840   18.1807  -17.3958 C   0  0  0  0  0  0  0  0  0  0  0  0
   -8.5254   16.1366  -14.8712 C   0  0  0  0  0  0  0  0  0  0  0  0
   -8.9543   16.6927  -16.0760 C   0  0  0  0  0  0  0  0  0  0  0  0
  -10.8044   17.7154  -14.9295 C   0  0  0  0  0  0  0  0  0  0  0  0
  -10.4190   17.1099  -13.7345 C   0  0  0  0  0  0  0  0  0  0  0  0
   -9.3103   16.2571  -13.7182 C   0  0  0  0  0  0  0  0  0  0  0  0
  -10.0952   17.5070  -16.1234 C   0  0  0  0  0  0  0  0  0  0  0  0
  -11.0814   22.6064  -17.4992 C   0  0  0  0  0  0  0  0  0  0  0  0
  -12.5977   22.5821  -17.1550 C   0  0  0  0  0  0  0  0  0  0  0  0
  -13.3291   21.3539  -17.4639 N   0  0  0  0  0  0  0  0  0  0  0  0
  -14.0941   21.1996  -18.9386 S   0  0  0  0  0  0  0  0  0  0  0  0
  -13.1261   21.3181  -19.9956 O   0  0  0  0  0  0  0  0  0  0  0  0
  -15.0185   20.1117  -18.8305 O   0  0  0  0  0  0  0  0  0  0  0  0
  -14.7061   23.7825  -19.7106 C   0  0  0  0  0  0  0  0  0  0  0  0
  -15.4590   24.9651  -19.6163 C   0  0  0  0  0  0  0  0  0  0  0  0
  -15.0291   22.7271  -18.8547 C   0  0  0  0  0  0  0  0  0  0  0  0
  -16.0633   22.7860  -17.9155 C   0  0  0  0  0  0  0  0  0  0  0  0
  -16.8181   23.9577  -17.8472 C   0  0  0  0  0  0  0  0  0  0  0  0
  -16.4822   25.0428  -18.6565 C   0  0  0  0  0  0  0  0  0  0  0  0
  -17.2417   26.2186  -18.5136 N   0  0  0  0  0  0  0  0  0  0  0  0
  -17.0368   27.0072  -19.0662 H   0  0  0  0  0  0  0  0  0  0  0  0
  -17.9781   26.2527  -17.8610 H   0  0  0  0  0  0  0  0  0  0  0  0
  -13.3973   20.1977  -16.5777 C   0  0  0  0  0  0  0  0  0  0  0  0
  -12.9400   20.7053  -14.1277 C   0  0  0  0  0  0  0  0  0  0  0  0
  -15.6572   21.0650  -13.6138 C   0  0  0  0  0  0  0  0  0  0  0  0
  -15.2240   20.7015  -14.8916 C   0  0  0  0  0  0  0  0  0  0  0  0
  -13.8632   20.5490  -15.1635 C   0  0  0  0  0  0  0  0  0  0  0  0
  -13.3694   21.0312  -12.8448 C   0  0  0  0  0  0  0  0  0  0  0  0
  -14.7317   21.1713  -12.5750 C   0  0  0  0  0  0  0  0  0  0  0  0
  1  3  1  0  0  0
  1 25  1  0  0  0
  3  4  1  0  0  0
  4  5  1  0  0  0
 40 27  1  0  0  0
 40 44  1  0  0  0
 41 44  2  0  0  0
 41 45  1  0  0  0
 42 43  2  0  0  0
 42 46  1  0  0  0
 31 32  2  0  0  0
 31 33  1  0  0  0
 19 20  2  0  0  0
 19 23  1  0  0  0
 25 26  1  0  0  0
 26 27  1  0  0  0
 27 28  1  0  0  0
 20 24  1  0  0  0
 21 22  1  0  0  0
 21 24  2  0  0  0
 22 23  2  0  0  0
 18  5  1  0  0  0
 18 24  1  0  0  0
  5  6  1  0  0  0
 32 36  1  0  0  0
 33 28  1  0  0  0
 33 34  2  0  0  0
 43 44  1  0  0  0
 45 46  2  0  0  0
 28 29  2  0  0  0
 28 30  2  0  0  0
 34 35  1  0  0  0
 35 36  2  0  0  0
 36 37  1  0  0  0
  6  7  2  0  0  0
  6  8  2  0  0  0
  6  9  1  0  0  0
  9 10  2  0  0  0
  9 15  1  0  0  0
 10 11  1  0  0  0
 11 12  2  0  0  0
 12 13  1  0  0  0
 12 14  1  0  0  0
 14 15  2  0  0  0
  1  2  1  0  0  0
 37 38  1  0  0  0
 37 39  1  0  0  0
 13 16  1  0  0  0
 13 17  1  0  0  0
M  END
> <minimizedAffinity>
-9.76451

$$$$
3BGC_LJH_A_2501


 46 49  0  0  0  0  0  0  0  0999 V2000
  -12.3821   19.2822  -18.3160 N   0  0  0  0  0  0  0  0  0  0  0  0
  -11.7500   19.9067  -17.8151 H   0  0  0  0  0  0  0  0  0  0  0  0
  -13.7309   19.3443  -17.6847 C   0  0  0  0  0  0  0  0  0  0  0  0
  -14.6812   20.3932  -18.2802 C   0  0  0  0  0  0  0  0  0  0  0  0
  -14.5448   21.7577  -17.8063 N   0  0  0  0  0  0  0  0  0  0  0  0
  -13.5450   22.7834  -18.6418 S   0  0  0  0  0  0  0  0  0  0  0  0
  -12.8052   22.0303  -19.6295 O   0  0  0  0  0  0  0  0  0  0  0  0
  -12.8277   23.5096  -17.6135 O   0  0  0  0  0  0  0  0  0  0  0  0
  -14.6690   23.8828  -19.4684 C   0  0  0  0  0  0  0  0  0  0  0  0
  -15.1077   23.5799  -20.7632 C   0  0  0  0  0  0  0  0  0  0  0  0
  -15.9885   24.4438  -21.4143 C   0  0  0  0  0  0  0  0  0  0  0  0
  -16.4370   25.6055  -20.7829 C   0  0  0  0  0  0  0  0  0  0  0  0
  -17.3023   26.4700  -21.4885 N   0  0  0  0  0  0  0  0  0  0  0  0
  -16.0132   25.8981  -19.4858 C   0  0  0  0  0  0  0  0  0  0  0  0
  -15.1289   25.0329  -18.8263 C   0  0  0  0  0  0  0  0  0  0  0  0
  -17.5876   26.2422  -22.4028 H   0  0  0  0  0  0  0  0  0  0  0  0
  -17.6202   27.3006  -21.0662 H   0  0  0  0  0  0  0  0  0  0  0  0
  -15.2264   22.3464  -16.6604 C   0  0  0  0  0  0  0  0  0  0  0  0
  -13.7223   21.6783  -13.1846 C   0  0  0  0  0  0  0  0  0  0  0  0
  -13.8581   22.1415  -14.4929 C   0  0  0  0  0  0  0  0  0  0  0  0
  -15.9774   21.0167  -14.6565 C   0  0  0  0  0  0  0  0  0  0  0  0
  -15.8182   20.4964  -13.3730 C   0  0  0  0  0  0  0  0  0  0  0  0
  -14.6491   20.7720  -12.6560 C   0  0  0  0  0  0  0  0  0  0  0  0
  -14.9984   21.8311  -15.2482 C   0  0  0  0  0  0  0  0  0  0  0  0
  -11.8360   17.8963  -18.2705 C   0  0  0  0  0  0  0  0  0  0  0  0
  -10.4040   17.8577  -17.6654 C   0  0  0  0  0  0  0  0  0  0  0  0
   -9.8489   19.1251  -17.1919 N   0  0  0  0  0  0  0  0  0  0  0  0
   -9.9806   19.5305  -15.5788 S   0  0  0  0  0  0  0  0  0  0  0  0
   -9.0456   20.5787  -15.2699 O   0  0  0  0  0  0  0  0  0  0  0  0
  -11.3761   19.5974  -15.2660 O   0  0  0  0  0  0  0  0  0  0  0  0
   -7.9872   17.6845  -15.0687 C   0  0  0  0  0  0  0  0  0  0  0  0
   -7.5213   16.4686  -14.5404 C   0  0  0  0  0  0  0  0  0  0  0  0
   -9.3417   17.9907  -14.9191 C   0  0  0  0  0  0  0  0  0  0  0  0
  -10.2532   17.1537  -14.2682 C   0  0  0  0  0  0  0  0  0  0  0  0
   -9.7737   15.9596  -13.7283 C   0  0  0  0  0  0  0  0  0  0  0  0
   -8.4359   15.6090  -13.9090 C   0  0  0  0  0  0  0  0  0  0  0  0
   -8.0136   14.3713  -13.3897 N   0  0  0  0  0  0  0  0  0  0  0  0
   -7.0772   14.0865  -13.4961 H   0  0  0  0  0  0  0  0  0  0  0  0
   -8.6545   13.7900  -12.9201 H   0  0  0  0  0  0  0  0  0  0  0  0
   -9.1194   20.0646  -18.0357 C   0  0  0  0  0  0  0  0  0  0  0  0
   -9.1857   19.5617  -20.5281 C   0  0  0  0  0  0  0  0  0  0  0  0
   -6.8108   18.1076  -20.3777 C   0  0  0  0  0  0  0  0  0  0  0  0
   -7.3699   18.6648  -19.2246 C   0  0  0  0  0  0  0  0  0  0  0  0
   -8.5424   19.4192  -19.2970 C   0  0  0  0  0  0  0  0  0  0  0  0
   -8.6525   18.9776  -21.6730 C   0  0  0  0  0  0  0  0  0  0  0  0
   -7.4864   18.2146  -21.5939 C   0  0  0  0  0  0  0  0  0  0  0  0
  1  3  1  0  0  0
  1 25  1  0  0  0
  3  4  1  0  0  0
  4  5  1  0  0  0
 40 27  1  0  0  0
 40 44  1  0  0  0
 41 44  2  0  0  0
 41 45  1  0  0  0
 42 43  2  0  0  0
 42 46  1  0  0  0
 31 32  2  0  0  0
 31 33  1  0  0  0
 19 20  2  0  0  0
 19 23  1  0  0  0
 25 26  1  0  0  0
 26 27  1  0  0  0
 27 28  1  0  0  0
 20 24  1  0  0  0
 21 22  1  0  0  0
 21 24  2  0  0  0
 22 23  2  0  0  0
 18  5  1  0  0  0
 18 24  1  0  0  0
  5  6  1  0  0  0
 32 36  1  0  0  0
 33 28  1  0  0  0
 33 34  2  0  0  0
 43 44  1  0  0  0
 45 46  2  0  0  0
 28 29  2  0  0  0
 28 30  2  0  0  0
 34 35  1  0  0  0
 35 36  2  0  0  0
 36 37  1  0  0  0
  6  7  2  0  0  0
  6  8  2  0  0  0
  6  9  1  0  0  0
  9 10  2  0  0  0
  9 15  1  0  0  0
 10 11  1  0  0  0
 11 12  2  0  0  0
 12 13  1  0  0  0
 12 14  1  0  0  0
 14 15  2  0  0  0
  1  2  1  0  0  0
 37 38  1  0  0  0
 37 39  1  0  0  0
 13 16  1  0  0  0
 13 17  1  0  0  0
M  END
> <minimizedAffinity>
-9.76003

$$$$
3BGC_LJH_A_2501


 46 49  0  0  0  0  0  0  0  0999 V2000
  -13.7569   20.1445  -18.6903 N   0  0  0  0  0  0  0  0  0  0  0  0
  -14.4936   19.5293  -19.0356 H   0  0  0  0  0  0  0  0  0  0  0  0
  -13.3187   19.6739  -17.3455 C   0  0  0  0  0  0  0  0  0  0  0  0
  -11.8284   19.3219  -17.2323 C   0  0  0  0  0  0  0  0  0  0  0  0
  -11.0411   20.0691  -16.2695 N   0  0  0  0  0  0  0  0  0  0  0  0
  -10.3682   21.5061  -16.7509 S   0  0  0  0  0  0  0  0  0  0  0  0
   -9.1478   21.7343  -16.0101 O   0  0  0  0  0  0  0  0  0  0  0  0
  -11.4506   22.4645  -16.6556 O   0  0  0  0  0  0  0  0  0  0  0  0
   -9.9701   21.2306  -18.4599 C   0  0  0  0  0  0  0  0  0  0  0  0
   -8.9303   20.3553  -18.7965 C   0  0  0  0  0  0  0  0  0  0  0  0
   -8.6152   20.1400  -20.1383 C   0  0  0  0  0  0  0  0  0  0  0  0
   -9.3309   20.7886  -21.1464 C   0  0  0  0  0  0  0  0  0  0  0  0
   -8.9593   20.5686  -22.4909 N   0  0  0  0  0  0  0  0  0  0  0  0
  -10.3785   21.6474  -20.8111 C   0  0  0  0  0  0  0  0  0  0  0  0
  -10.7003   21.8667  -19.4643 C   0  0  0  0  0  0  0  0  0  0  0  0
   -8.2167   19.9580  -22.7028 H   0  0  0  0  0  0  0  0  0  0  0  0
   -9.4429   21.0259  -23.2164 H   0  0  0  0  0  0  0  0  0  0  0  0
  -10.7905   19.6959  -14.8831 C   0  0  0  0  0  0  0  0  0  0  0  0
   -9.7587   16.1691  -13.7489 C   0  0  0  0  0  0  0  0  0  0  0  0
  -10.5480   17.2872  -14.0164 C   0  0  0  0  0  0  0  0  0  0  0  0
   -8.5869   18.4847  -14.7257 C   0  0  0  0  0  0  0  0  0  0  0  0
   -7.7831   17.3935  -14.3991 C   0  0  0  0  0  0  0  0  0  0  0  0
   -8.3641   16.2501  -13.8407 C   0  0  0  0  0  0  0  0  0  0  0  0
   -9.9766   18.4623  -14.5259 C   0  0  0  0  0  0  0  0  0  0  0  0
  -14.2779   21.5392  -18.6228 C   0  0  0  0  0  0  0  0  0  0  0  0
  -15.5779   21.6313  -17.7744 C   0  0  0  0  0  0  0  0  0  0  0  0
  -15.9073   22.9370  -17.2039 N   0  0  0  0  0  0  0  0  0  0  0  0
  -16.9821   23.0323  -15.9313 S   0  0  0  0  0  0  0  0  0  0  0  0
  -17.1717   24.4102  -15.5660 O   0  0  0  0  0  0  0  0  0  0  0  0
  -18.0598   22.1325  -16.2119 O   0  0  0  0  0  0  0  0  0  0  0  0
  -14.7374   22.8876  -14.3244 C   0  0  0  0  0  0  0  0  0  0  0  0
  -13.9348   22.2548  -13.3602 C   0  0  0  0  0  0  0  0  0  0  0  0
  -15.9274   22.2620  -14.7031 C   0  0  0  0  0  0  0  0  0  0  0  0
  -16.3610   21.0445  -14.1695 C   0  0  0  0  0  0  0  0  0  0  0  0
  -15.5662   20.4373  -13.1964 C   0  0  0  0  0  0  0  0  0  0  0  0
  -14.3494   21.0177  -12.8389 C   0  0  0  0  0  0  0  0  0  0  0  0
  -13.5610   20.3401  -11.8906 N   0  0  0  0  0  0  0  0  0  0  0  0
  -12.6952   20.7164  -11.6112 H   0  0  0  0  0  0  0  0  0  0  0  0
  -13.8752   19.4898  -11.5065 H   0  0  0  0  0  0  0  0  0  0  0  0
  -15.3091   24.1939  -17.6385 C   0  0  0  0  0  0  0  0  0  0  0  0
  -15.4114   24.6106  -20.1456 C   0  0  0  0  0  0  0  0  0  0  0  0
  -17.8060   26.0174  -19.8935 C   0  0  0  0  0  0  0  0  0  0  0  0
  -17.1626   25.5131  -18.7602 C   0  0  0  0  0  0  0  0  0  0  0  0
  -15.9793   24.7822  -18.8816 C   0  0  0  0  0  0  0  0  0  0  0  0
  -16.0292   25.1426  -21.2733 C   0  0  0  0  0  0  0  0  0  0  0  0
  -17.2058   25.8825  -21.1459 C   0  0  0  0  0  0  0  0  0  0  0  0
  1  3  1  0  0  0
  1 25  1  0  0  0
  3  4  1  0  0  0
  4  5  1  0  0  0
 40 27  1  0  0  0
 40 44  1  0  0  0
 41 44  2  0  0  0
 41 45  1  0  0  0
 42 43  2  0  0  0
 42 46  1  0  0  0
 31 32  2  0  0  0
 31 33  1  0  0  0
 19 20  2  0  0  0
 19 23  1  0  0  0
 25 26  1  0  0  0
 26 27  1  0  0  0
 27 28  1  0  0  0
 20 24  1  0  0  0
 21 22  1  0  0  0
 21 24  2  0  0  0
 22 23  2  0  0  0
 18  5  1  0  0  0
 18 24  1  0  0  0
  5  6  1  0  0  0
 32 36  1  0  0  0
 33 28  1  0  0  0
 33 34  2  0  0  0
 43 44  1  0  0  0
 45 46  2  0  0  0
 28 29  2  0  0  0
 28 30  2  0  0  0
 34 35  1  0  0  0
 35 36  2  0  0  0
 36 37  1  0  0  0
  6  7  2  0  0  0
  6  8  2  0  0  0
  6  9  1  0  0  0
  9 10  2  0  0  0
  9 15  1  0  0  0
 10 11  1  0  0  0
 11 12  2  0  0  0
 12 13  1  0  0  0
 12 14  1  0  0  0
 14 15  2  0  0  0
  1  2  1  0  0  0
 37 38  1  0  0  0
 37 39  1  0  0  0
 13 16  1  0  0  0
 13 17  1  0  0  0
M  END
> <minimizedAffinity>
-9.74029

$$$$
3BGC_LJH_A_2501


 46 49  0  0  0  0  0  0  0  0999 V2000
  -12.1259   18.0962  -16.8515 N   0  0  0  0  0  0  0  0  0  0  0  0
  -12.6494   17.2351  -16.6941 H   0  0  0  0  0  0  0  0  0  0  0  0
  -12.1393   18.4161  -18.3073 C   0  0  0  0  0  0  0  0  0  0  0  0
  -11.9178   19.8962  -18.6510 C   0  0  0  0  0  0  0  0  0  0  0  0
  -12.7726   20.8659  -17.9922 N   0  0  0  0  0  0  0  0  0  0  0  0
  -12.0715   21.9593  -16.9614 S   0  0  0  0  0  0  0  0  0  0  0  0
  -12.4327   23.2988  -17.3679 O   0  0  0  0  0  0  0  0  0  0  0  0
  -10.6743   21.5777  -16.9221 O   0  0  0  0  0  0  0  0  0  0  0  0
  -12.8272   21.6017  -15.3942 C   0  0  0  0  0  0  0  0  0  0  0  0
  -12.2600   20.6335  -14.5565 C   0  0  0  0  0  0  0  0  0  0  0  0
  -12.8539   20.3500  -13.3266 C   0  0  0  0  0  0  0  0  0  0  0  0
  -14.0071   21.0267  -12.9247 C   0  0  0  0  0  0  0  0  0  0  0  0
  -14.5959   20.6873  -11.6868 N   0  0  0  0  0  0  0  0  0  0  0  0
  -14.5622   22.0039  -13.7521 C   0  0  0  0  0  0  0  0  0  0  0  0
  -13.9689   22.2936  -14.9888 C   0  0  0  0  0  0  0  0  0  0  0  0
  -14.1858   19.9945  -11.1202 H   0  0  0  0  0  0  0  0  0  0  0  0
  -15.4164   21.1435  -11.3904 H   0  0  0  0  0  0  0  0  0  0  0  0
  -14.2139   21.0019  -18.1603 C   0  0  0  0  0  0  0  0  0  0  0  0
  -14.9194   23.7387  -20.7682 C   0  0  0  0  0  0  0  0  0  0  0  0
  -14.2951   22.6835  -20.1039 C   0  0  0  0  0  0  0  0  0  0  0  0
  -15.9710   22.7937  -18.3828 C   0  0  0  0  0  0  0  0  0  0  0  0
  -16.5626   23.8908  -19.0071 C   0  0  0  0  0  0  0  0  0  0  0  0
  -15.9923   24.4127  -20.1730 C   0  0  0  0  0  0  0  0  0  0  0  0
  -14.8205   22.1808  -18.9046 C   0  0  0  0  0  0  0  0  0  0  0  0
  -10.7310   17.9159  -16.3587 C   0  0  0  0  0  0  0  0  0  0  0  0
   -9.8635   17.1023  -17.3606 C   0  0  0  0  0  0  0  0  0  0  0  0
   -8.4122   17.1786  -17.1964 N   0  0  0  0  0  0  0  0  0  0  0  0
   -7.4210   16.9591  -18.5205 S   0  0  0  0  0  0  0  0  0  0  0  0
   -6.0769   17.3429  -18.1821 O   0  0  0  0  0  0  0  0  0  0  0  0
   -7.7600   15.6971  -19.1055 O   0  0  0  0  0  0  0  0  0  0  0  0
   -8.7158   17.9176  -20.7668 C   0  0  0  0  0  0  0  0  0  0  0  0
   -9.2665   18.9538  -21.5398 C   0  0  0  0  0  0  0  0  0  0  0  0
   -8.1374   18.2486  -19.5394 C   0  0  0  0  0  0  0  0  0  0  0  0
   -8.0832   19.5537  -19.0406 C   0  0  0  0  0  0  0  0  0  0  0  0
   -8.6536   20.5706  -19.8072 C   0  0  0  0  0  0  0  0  0  0  0  0
   -9.1920   20.2717  -21.0586 C   0  0  0  0  0  0  0  0  0  0  0  0
   -9.7089   21.3400  -21.8146 N   0  0  0  0  0  0  0  0  0  0  0  0
  -10.0979   21.1713  -22.7032 H   0  0  0  0  0  0  0  0  0  0  0  0
   -9.6817   22.2560  -21.4550 H   0  0  0  0  0  0  0  0  0  0  0  0
   -7.7470   17.4953  -15.9380 C   0  0  0  0  0  0  0  0  0  0  0  0
   -6.4556   15.3964  -15.3084 C   0  0  0  0  0  0  0  0  0  0  0  0
   -8.1484   14.9085  -13.1466 C   0  0  0  0  0  0  0  0  0  0  0  0
   -8.3762   16.0013  -13.9871 C   0  0  0  0  0  0  0  0  0  0  0  0
   -7.5155   16.2689  -15.0533 C   0  0  0  0  0  0  0  0  0  0  0  0
   -6.2464   14.2860  -14.4962 C   0  0  0  0  0  0  0  0  0  0  0  0
   -7.1162   14.0161  -13.4385 C   0  0  0  0  0  0  0  0  0  0  0  0
  1  3  1  0  0  0
  1 25  1  0  0  0
  3  4  1  0  0  0
  4  5  1  0  0  0
 40 27  1  0  0  0
 40 44  1  0  0  0
 41 44  2  0  0  0
 41 45  1  0  0  0
 42 43  2  0  0  0
 42 46  1  0  0  0
 31 32  2  0  0  0
 31 33  1  0  0  0
 19 20  2  0  0  0
 19 23  1  0  0  0
 25 26  1  0  0  0
 26 27  1  0  0  0
 27 28  1  0  0  0
 20 24  1  0  0  0
 21 22  1  0  0  0
 21 24  2  0  0  0
 22 23  2  0  0  0
 18  5  1  0  0  0
 18 24  1  0  0  0
  5  6  1  0  0  0
 32 36  1  0  0  0
 33 28  1  0  0  0
 33 34  2  0  0  0
 43 44  1  0  0  0
 45 46  2  0  0  0
 28 29  2  0  0  0
 28 30  2  0  0  0
 34 35  1  0  0  0
 35 36  2  0  0  0
 36 37  1  0  0  0
  6  7  2  0  0  0
  6  8  2  0  0  0
  6  9  1  0  0  0
  9 10  2  0  0  0
  9 15  1  0  0  0
 10 11  1  0  0  0
 11 12  2  0  0  0
 12 13  1  0  0  0
 12 14  1  0  0  0
 14 15  2  0  0  0
  1  2  1  0  0  0
 37 38  1  0  0  0
 37 39  1  0  0  0
 13 16  1  0  0  0
 13 17  1  0  0  0
M  END
> <minimizedAffinity>
-9.72614

$$$$
3BGC_LJH_A_2501


 46 49  0  0  0  0  0  0  0  0999 V2000
  -12.9804   18.9299  -17.5249 N   0  0  0  0  0  0  0  0  0  0  0  0
  -13.6100   18.3534  -16.9667 H   0  0  0  0  0  0  0  0  0  0  0  0
  -13.7865   19.7909  -18.4363 C   0  0  0  0  0  0  0  0  0  0  0  0
  -14.8129   20.6955  -17.7391 C   0  0  0  0  0  0  0  0  0  0  0  0
  -14.2991   21.8183  -16.9773 N   0  0  0  0  0  0  0  0  0  0  0  0
  -14.1038   21.6341  -15.3411 S   0  0  0  0  0  0  0  0  0  0  0  0
  -12.7925   22.1086  -14.9599 O   0  0  0  0  0  0  0  0  0  0  0  0
  -14.4659   20.2548  -15.0847 O   0  0  0  0  0  0  0  0  0  0  0  0
  -15.3370   22.7085  -14.6483 C   0  0  0  0  0  0  0  0  0  0  0  0
  -15.0841   23.3623  -13.4361 C   0  0  0  0  0  0  0  0  0  0  0  0
  -16.0528   24.2044  -12.8899 C   0  0  0  0  0  0  0  0  0  0  0  0
  -17.2700   24.4016  -13.5447 C   0  0  0  0  0  0  0  0  0  0  0  0
  -18.2368   25.2363  -12.9422 N   0  0  0  0  0  0  0  0  0  0  0  0
  -17.5148   23.7636  -14.7615 C   0  0  0  0  0  0  0  0  0  0  0  0
  -16.5444   22.9170  -15.3156 C   0  0  0  0  0  0  0  0  0  0  0  0
  -18.0411   25.6758  -12.0833 H   0  0  0  0  0  0  0  0  0  0  0  0
  -19.1064   25.3787  -13.3812 H   0  0  0  0  0  0  0  0  0  0  0  0
  -13.9040   23.1157  -17.5110 C   0  0  0  0  0  0  0  0  0  0  0  0
  -15.0273   24.0016  -21.0807 C   0  0  0  0  0  0  0  0  0  0  0  0
  -14.3063   23.4338  -20.0307 C   0  0  0  0  0  0  0  0  0  0  0  0
  -15.6578   24.6552  -18.4606 C   0  0  0  0  0  0  0  0  0  0  0  0
  -16.3392   25.2763  -19.5062 C   0  0  0  0  0  0  0  0  0  0  0  0
  -15.9751   25.0005  -20.8284 C   0  0  0  0  0  0  0  0  0  0  0  0
  -14.6203   23.7393  -18.6983 C   0  0  0  0  0  0  0  0  0  0  0  0
  -12.0659   18.0441  -18.2996 C   0  0  0  0  0  0  0  0  0  0  0  0
  -10.8718   17.5473  -17.4362 C   0  0  0  0  0  0  0  0  0  0  0  0
   -9.9139   18.5560  -16.9849 N   0  0  0  0  0  0  0  0  0  0  0  0
   -9.9347   19.0582  -15.3939 S   0  0  0  0  0  0  0  0  0  0  0  0
   -8.9597   20.0986  -15.2067 O   0  0  0  0  0  0  0  0  0  0  0  0
  -11.3059   19.1785  -15.0001 O   0  0  0  0  0  0  0  0  0  0  0  0
  -10.1257   16.7275  -13.9197 C   0  0  0  0  0  0  0  0  0  0  0  0
   -9.5856   15.5491  -13.3775 C   0  0  0  0  0  0  0  0  0  0  0  0
   -9.2888   17.5439  -14.6838 C   0  0  0  0  0  0  0  0  0  0  0  0
   -7.9468   17.2463  -14.9397 C   0  0  0  0  0  0  0  0  0  0  0  0
   -7.4284   16.0619  -14.4145 C   0  0  0  0  0  0  0  0  0  0  0  0
   -8.2307   15.2562  -13.6068 C   0  0  0  0  0  0  0  0  0  0  0  0
   -7.6460   14.0990  -13.0599 N   0  0  0  0  0  0  0  0  0  0  0  0
   -8.1784   13.5036  -12.4843 H   0  0  0  0  0  0  0  0  0  0  0  0
   -6.7047   13.8849  -13.2528 H   0  0  0  0  0  0  0  0  0  0  0  0
   -8.8754   19.1338  -17.8302 C   0  0  0  0  0  0  0  0  0  0  0  0
   -9.0731   19.8381  -20.2662 C   0  0  0  0  0  0  0  0  0  0  0  0
  -10.8346   21.8979  -19.6095 C   0  0  0  0  0  0  0  0  0  0  0  0
  -10.2884   21.0917  -18.6073 C   0  0  0  0  0  0  0  0  0  0  0  0
   -9.4295   20.0398  -18.9313 C   0  0  0  0  0  0  0  0  0  0  0  0
   -9.5855   20.6615  -21.2641 C   0  0  0  0  0  0  0  0  0  0  0  0
  -10.4347   21.7190  -20.9343 C   0  0  0  0  0  0  0  0  0  0  0  0
  1  3  1  0  0  0
  1 25  1  0  0  0
  3  4  1  0  0  0
  4  5  1  0  0  0
 40 27  1  0  0  0
 40 44  1  0  0  0
 41 44  2  0  0  0
 41 45  1  0  0  0
 42 43  2  0  0  0
 42 46  1  0  0  0
 31 32  2  0  0  0
 31 33  1  0  0  0
 19 20  2  0  0  0
 19 23  1  0  0  0
 25 26  1  0  0  0
 26 27  1  0  0  0
 27 28  1  0  0  0
 20 24  1  0  0  0
 21 22  1  0  0  0
 21 24  2  0  0  0
 22 23  2  0  0  0
 18  5  1  0  0  0
 18 24  1  0  0  0
  5  6  1  0  0  0
 32 36  1  0  0  0
 33 28  1  0  0  0
 33 34  2  0  0  0
 43 44  1  0  0  0
 45 46  2  0  0  0
 28 29  2  0  0  0
 28 30  2  0  0  0
 34 35  1  0  0  0
 35 36  2  0  0  0
 36 37  1  0  0  0
  6  7  2  0  0  0
  6  8  2  0  0  0
  6  9  1  0  0  0
  9 10  2  0  0  0
  9 15  1  0  0  0
 10 11  1  0  0  0
 11 12  2  0  0  0
 12 13  1  0  0  0
 12 14  1  0  0  0
 14 15  2  0  0  0
  1  2  1  0  0  0
 37 38  1  0  0  0
 37 39  1  0  0  0
 13 16  1  0  0  0
 13 17  1  0  0  0
M  END
> <minimizedAffinity>
-9.63825

$$$$
