5MWP_ECV_A_1101
  RCSB PDB03171809513D
Coordinates from PDB:5MWP:A:1101 Model:1 without hydrogens
 29 32  0  0  0  0            999 V2000
    7.6680   19.6960   13.4720   C 0  0  0  0  0  0  0  0  0  0  0  0
    7.7920   17.3020   13.1310   C 0  0  0  0  0  0  0  0  0  0  0  0
    7.7620   17.3680   11.9100   O 0  0  0  0  0  0  0  0  0  0  0  0
    6.8580   14.5920   15.6860   C 0  0  0  0  0  0  0  0  0  0  0  0
    9.1180   14.1310   16.1940   C 0  0  0  0  0  0  0  0  0  0  0  0
   10.1220   13.1910   16.3610   C 0  0  0  0  0  0  0  0  0  0  0  0
   11.3290   13.6200   16.8690   C 0  0  0  0  0  0  0  0  0  0  0  0
   11.5460   14.9450   17.1940   C 0  0  0  0  0  0  0  0  0  0  0  0
   10.5420   15.8780   17.0320   C 0  0  0  0  0  0  0  0  0  0  0  0
    9.3110   15.4660   16.5420   C 0  0  0  0  0  0  0  0  0  0  0  0
    8.1960   17.5260   18.6070   C 0  0  0  0  0  0  0  0  0  0  0  0
    8.2310   16.4430   19.4730   C 0  0  0  0  0  0  0  0  0  0  0  0
    8.5750   16.6370   20.8070   C 0  0  0  0  0  0  0  0  0  0  0  0
    8.8740   17.9170   21.2520   C 0  0  0  0  0  0  0  0  0  0  0  0
   10.0700   19.2540   22.7630   C 0  0  0  0  0  0  0  0  0  0  0  0
    7.9000   18.3720   13.9500   N 0  0  0  0  0  0  0  0  0  0  0  0
    7.7900   15.9830   13.8490   C 0  0  0  0  0  0  0  0  0  0  0  0
    7.3000   15.9800   15.2900   C 0  0  0  0  0  0  0  0  0  0  0  0
    7.9250   13.6410   15.6390   O 0  0  0  0  0  0  0  0  0  0  0  0
   12.3030   12.7170   17.0280   F 0  0  0  0  0  0  0  0  0  0  0  0
    8.2570   16.3940   16.3180   N 0  0  0  0  0  0  0  0  0  0  0  0
    7.8470   17.4400   17.1630   C 0  0  0  0  0  0  0  0  0  0  0  0
    7.1730   18.3730   16.7490   O 0  0  0  0  0  0  0  0  0  0  0  0
    9.1780   18.1420   22.5880   O 0  0  0  0  0  0  0  0  0  0  0  0
    9.5520   20.5090   22.1250   C 0  0  0  0  0  0  0  0  0  0  0  0
    9.6090   21.6080   22.6690   O 0  0  0  0  0  0  0  0  0  0  0  0
    9.0730   20.2820   20.8590   N 0  0  0  0  0  0  0  0  0  0  0  0
    8.8080   18.9910   20.3900   C 0  0  0  0  0  0  0  0  0  0  0  0
    8.4920   18.7980   19.0630   C 0  0  0  0  0  0  0  0  0  0  0  0
  3  2  2  0  0  0  0
  2 17  1  0  0  0  0
  2 16  1  0  0  0  0
  1 16  1  0  0  0  0
 17 18  1  0  0  0  0
 18  4  1  0  0  0  0
 18 21  1  0  0  0  0
 19  4  1  0  0  0  0
 19  5  1  0  0  0  0
  5  6  2  0  0  0  0
  5 10  1  0  0  0  0
 21 10  1  0  0  0  0
 21 22  1  0  0  0  0
  6  7  1  0  0  0  0
 10  9  2  0  0  0  0
 23 22  2  0  0  0  0
  7 20  1  0  0  0  0
  7  8  2  0  0  0  0
  9  8  1  0  0  0  0
 22 11  1  0  0  0  0
 11 29  2  0  0  0  0
 11 12  1  0  0  0  0
 29 28  1  0  0  0  0
 12 13  2  0  0  0  0
 28 27  1  0  0  0  0
 28 14  2  0  0  0  0
 13 14  1  0  0  0  0
 27 25  1  0  0  0  0
 14 24  1  0  0  0  0
 25 26  2  0  0  0  0
 25 15  1  0  0  0  0
 24 15  1  0  0  0  0
A    1
C1
A    2
C3
A    3
O4
A    4
C7
A    5
C9
A    6
C10
A    7
C11
A    8
C13
A    9
C14
A   10
C15
A   11
C19
A   12
C20
A   13
C21
A   14
C22
A   15
C24
A   16
N2
A   17
C5
A   18
C6
A   19
O8
A   20
F12
A   21
N16
A   22
C17
A   23
O18
A   24
O23
A   25
C25
A   26
O26
A   27
N27
A   28
C28
A   29
C29
M  END
>  <InstanceId>
5MWP_ECV_A_1101

>  <ChemCompId>
ECV

>  <PdbId>
5MWP

>  <ChainId>
A

>  <ResidueNumber>
1101

>  <InsertionCode>


>  <Model>
1

>  <AltIds>


>  <MissingHeavyAtoms>
0

>  <ObservedFormula>
C20 N3 O5 F

>  <Name>
2-[(3~{S})-7-fluoranyl-4-[(3-oxidanylidene-4~{H}-1,4-benzoxazin-6-yl)carbonyl]-2,3-dihydro-1,4-benzoxazin-3-yl]-~{N}-methyl-ethanamide

>  <SystematicName>
2-[(3~{S})-7-fluoranyl-4-[(3-oxidanylidene-4~{H}-1,4-benzoxazin-6-yl)carbonyl]-2,3-dihydro-1,4-benzoxazin-3-yl]-~{N}-methyl-ethanamide

>  <Synonyms>


>  <Type>
NON-POLYMER

>  <Formula>
C20 H18 F N3 O5

>  <MolecularWeight>
399.372

>  <ModifiedDate>
2018-03-02

>  <Parent>


>  <OneLetterCode>


>  <SubcomponentList>


>  <AmbiguousFlag>
N

>  <InChI>
InChI=1S/C20H18FN3O5/c1-22-18(25)8-13-9-28-17-7-12(21)3-4-15(17)24(13)20(27)11-2-5-16-14(6-11)23-19(26)10-29-16/h2-7,13H,8-10H2,1H3,(H,22,25)(H,23,26)/t13-/m0/s1

>  <InChIKey>
MBKYLPOPYYLTNW-ZDUSSCGKSA-N

>  <SMILES>
CNC(=O)C[C@H]1COc2cc(ccc2N1C(=O)c3ccc4c(c3)NC(=O)CO4)F

$$$$
