5MWP_ECV_A_1101


 31 34  0  0  0  0  0  0  0  0999 V2000
    7.2213   14.2996   15.7985 C   0  0  0  0  0  0  0  0  0  0  0  0
    9.5083   14.0280   16.3220 C   0  0  0  0  0  0  0  0  0  0  0  0
   10.5775   13.1720   16.5309 C   0  0  0  0  0  0  0  0  0  0  0  0
   11.7498   13.7109   17.0149 C   0  0  0  0  0  0  0  0  0  0  0  0
   11.8701   15.0620   17.2760 C   0  0  0  0  0  0  0  0  0  0  0  0
   10.8014   15.9112   17.0725 C   0  0  0  0  0  0  0  0  0  0  0  0
    9.6039   15.3885   16.6057 C   0  0  0  0  0  0  0  0  0  0  0  0
    7.5621   15.6956   15.3359 C   0  0  0  0  0  0  0  0  0  0  0  0
    8.3543   13.4271   15.7940 O   0  0  0  0  0  0  0  0  0  0  0  0
   12.7865   12.8893   17.2141 F   0  0  0  0  0  0  0  0  0  0  0  0
    8.4857   16.2261   16.3406 N   0  0  0  0  0  0  0  0  0  0  0  0
    8.0003   17.2787   17.1360 C   0  0  0  0  0  0  0  0  0  0  0  0
    7.2610   18.1398   16.6798 O   0  0  0  0  0  0  0  0  0  0  0  0
    8.3409   17.4583   18.5734 C   0  0  0  0  0  0  0  0  0  0  0  0
    8.3166   16.4443   19.5195 C   0  0  0  0  0  0  0  0  0  0  0  0
    8.6583   16.7233   20.8390 C   0  0  0  0  0  0  0  0  0  0  0  0
    9.0146   18.0180   21.1890 C   0  0  0  0  0  0  0  0  0  0  0  0
   10.2606   19.4087   22.6083 C   0  0  0  0  0  0  0  0  0  0  0  0
    9.3178   18.3299   22.5076 O   0  0  0  0  0  0  0  0  0  0  0  0
    9.8088   20.6343   21.8706 C   0  0  0  0  0  0  0  0  0  0  0  0
    9.9139   21.7677   22.3302 O   0  0  0  0  0  0  0  0  0  0  0  0
    9.3301   20.3340   20.6199 N   0  0  0  0  0  0  0  0  0  0  0  0
    9.0075   19.0249   20.2471 C   0  0  0  0  0  0  0  0  0  0  0  0
    8.6937   18.7461   18.9349 C   0  0  0  0  0  0  0  0  0  0  0  0
    9.2105   21.0606   19.9664 H   0  0  0  0  0  0  0  0  0  0  0  0
    8.0519   15.6654   13.8951 C   0  0  0  0  0  0  0  0  0  0  0  0
    7.8003   19.3177   13.1594 C   0  0  0  0  0  0  0  0  0  0  0  0
    7.8204   16.8981   13.0691 C   0  0  0  0  0  0  0  0  0  0  0  0
    7.4048   16.8323   11.9206 O   0  0  0  0  0  0  0  0  0  0  0  0
    8.1776   18.0466   13.6861 N   0  0  0  0  0  0  0  0  0  0  0  0
    8.7081   18.0052   14.5144 H   0  0  0  0  0  0  0  0  0  0  0  0
 29 28  2  0  0  0
 28 26  1  0  0  0
 28 30  1  0  0  0
 27 30  1  0  0  0
 26  8  1  0  0  0
  8  1  1  0  0  0
  8 11  1  0  0  0
  9  1  1  0  0  0
  9  2  1  0  0  0
  2  3  2  0  0  0
  2  7  1  0  0  0
 11  7  1  0  0  0
 11 12  1  0  0  0
  3  4  1  0  0  0
  7  6  2  0  0  0
 13 12  2  0  0  0
  4 10  1  0  0  0
  4  5  2  0  0  0
  6  5  1  0  0  0
 12 14  1  0  0  0
 14 24  2  0  0  0
 14 15  1  0  0  0
 24 23  1  0  0  0
 15 16  2  0  0  0
 23 22  1  0  0  0
 23 17  2  0  0  0
 16 17  1  0  0  0
 22 20  1  0  0  0
 17 19  1  0  0  0
 20 21  2  0  0  0
 20 18  1  0  0  0
 19 18  1  0  0  0
 30 31  1  0  0  0
 22 25  1  0  0  0
M  END
> <minimizedAffinity>
-12.62893

$$$$
