3SV2_P05_H_1
  RCSB PDB12061710473D
Coordinates from PDB:3SV2:H:1 Model:1 without hydrogens
 26 28  0  0  0  0            999 V2000
   16.4180  -15.5200   23.1810   N 0  0  0  0  0  0  0  0  0  0  0  0
   17.7190  -14.8760   23.1360   C 0  0  0  0  0  0  0  0  0  0  0  0
   17.5440  -13.4940   22.5390   C 0  0  0  0  0  0  0  0  0  0  0  0
   16.6280  -12.7610   22.9230   O 0  0  0  0  0  0  0  0  0  0  0  0
   18.2270  -14.7850   24.5750   C 0  0  0  0  0  0  0  0  0  0  0  0
   19.6320  -14.2480   24.6420   C 0  0  0  0  0  0  0  0  0  0  0  0
   19.8640  -13.0460   25.3050   C 0  0  0  0  0  0  0  0  0  0  0  0
   20.6930  -14.9330   24.0500   C 0  0  0  0  0  0  0  0  0  0  0  0
   21.1510  -12.5260   25.3690   C 0  0  0  0  0  0  0  0  0  0  0  0
   21.9780  -14.4170   24.1370   C 0  0  0  0  0  0  0  0  0  0  0  0
   22.2170  -13.2070   24.7870   C 0  0  0  0  0  0  0  0  0  0  0  0
   18.3880  -13.0960   21.5830   N 0  0  0  0  0  0  0  0  0  0  0  0
   18.1900  -11.7780   20.9800   C 0  0  0  0  0  0  0  0  0  0  0  0
   16.8140  -11.6760   20.3860   C 0  0  0  0  0  0  0  0  0  0  0  0
   16.3240  -12.6040   19.7390   O 0  0  0  0  0  0  0  0  0  0  0  0
   19.2130  -11.6680   19.8660   C 0  0  0  0  0  0  0  0  0  0  0  0
   20.2390  -12.7270   20.1870   C 0  0  0  0  0  0  0  0  0  0  0  0
   19.5080  -13.8260   20.9680   C 0  0  0  0  0  0  0  0  0  0  0  0
   14.8270  -10.2230   20.1030   C 0  0  0  0  0  0  0  0  0  0  0  0
   13.7650  -10.5290   21.1300   C 0  0  0  0  0  0  0  0  0  0  0  0
   13.1850   -9.5250   21.9130   C 0  0  0  0  0  0  0  0  0  0  0  0
   12.2070   -9.8740   22.8340   C 0  0  0  0  0  0  0  0  0  0  0  0
   12.3610  -12.1220   22.2190   C 0  0  0  0  0  0  0  0  0  0  0  0
   13.3520  -11.8470   21.2870   C 0  0  0  0  0  0  0  0  0  0  0  0
   16.1610  -10.5290   20.5910   N 0  0  0  0  0  0  0  0  0  0  0  0
   11.8080  -11.1510   22.9530   N 0  0  0  0  0  0  0  0  0  0  0  0
 11  9  2  0  0  0  0
 11 10  1  0  0  0  0
  9  7  1  0  0  0  0
  7  6  2  0  0  0  0
  6  8  1  0  0  0  0
  6  5  1  0  0  0  0
  8 10  2  0  0  0  0
  5  2  1  0  0  0  0
  2  3  1  0  0  0  0
  2  1  1  0  0  0  0
  3 12  1  0  0  0  0
  3  4  2  0  0  0  0
 18 17  1  0  0  0  0
 18 12  1  0  0  0  0
 17 16  1  0  0  0  0
 16 13  1  0  0  0  0
 13 14  1  0  0  0  0
 13 12  1  0  0  0  0
 14 25  1  0  0  0  0
 14 15  2  0  0  0  0
 19 20  1  0  0  0  0
 19 25  1  0  0  0  0
 20 21  2  0  0  0  0
 20 24  1  0  0  0  0
 21 22  1  0  0  0  0
 22 26  2  0  0  0  0
 23 24  2  0  0  0  0
 23 26  1  0  0  0  0
A    1
N21
A    2
C8
A    3
C9
A    4
O25
A    5
C7
A    6
C4
A    7
C3
A    8
C5
A    9
C2
A   10
C6
A   11
C1
A   12
N22
A   13
C13
A   14
C14
A   15
O26
A   16
C12
A   17
C11
A   18
C10
A   19
C15
A   20
C16
A   21
C17
A   22
C18
A   23
C19
A   24
C20
A   25
N23
A   26
N24
M  END
>  <InstanceId>
3SV2_P05_H_1

>  <ChemCompId>
P05

>  <PdbId>
3SV2

>  <ChainId>
H

>  <ResidueNumber>
1

>  <InsertionCode>


>  <Model>
1

>  <AltIds>


>  <MissingHeavyAtoms>
0

>  <ObservedFormula>
C20 N4 O2

>  <Name>
D-phenylalanyl-N-(pyridin-4-ylmethyl)-L-prolinamide

>  <SystematicName>
(2S)-1-[(2R)-2-azanyl-3-phenyl-propanoyl]-N-(pyridin-4-ylmethyl)pyrrolidine-2-carboxamide

>  <Synonyms>


>  <Type>
peptide-like

>  <Formula>
C20 H24 N4 O2

>  <MolecularWeight>
352.43

>  <ModifiedDate>
2012-06-15

>  <Parent>


>  <OneLetterCode>


>  <SubcomponentList>
DPN PRO NNW

>  <AmbiguousFlag>
N

>  <InChI>
InChI=1S/C20H24N4O2/c21-17(13-15-5-2-1-3-6-15)20(26)24-12-4-7-18(24)19(25)23-14-16-8-10-22-11-9-16/h1-3,5-6,8-11,17-18H,4,7,12-14,21H2,(H,23,25)/t17-,18+/m1/s1

>  <InChIKey>
NYODECMUQISAKD-MSOLQXFVSA-N

>  <SMILES>
c1ccc(cc1)C[C@H](C(=O)N2CCC[C@H]2C(=O)NCc3ccncc3)N

$$$$
