3SV2_P05_H_1


 29 31  0  0  0  0  0  0  0  0999 V2000
   17.6407  -13.4323   22.3985 C   0  0  0  0  0  0  0  0  0  0  0  0
   16.6236  -12.8001   22.6980 O   0  0  0  0  0  0  0  0  0  0  0  0
   18.4831  -12.9775   21.4666 N   0  0  0  0  0  0  0  0  0  0  0  0
   18.1628  -11.7221   20.7875 C   0  0  0  0  0  0  0  0  0  0  0  0
   19.2259  -11.5382   19.7219 C   0  0  0  0  0  0  0  0  0  0  0  0
   20.3517  -12.4484   20.1478 C   0  0  0  0  0  0  0  0  0  0  0  0
   19.7149  -13.5922   20.9467 C   0  0  0  0  0  0  0  0  0  0  0  0
   16.7175  -15.5260   23.1392 N   0  0  0  0  0  0  0  0  0  0  0  0
   17.9461  -14.7543   23.0737 C   0  0  0  0  0  0  0  0  0  0  0  0
   16.9022  -16.4215   23.5914 H   0  0  0  0  0  0  0  0  0  0  0  0
   16.3669  -15.6878   22.1951 H   0  0  0  0  0  0  0  0  0  0  0  0
   18.4167  -14.5331   24.5113 C   0  0  0  0  0  0  0  0  0  0  0  0
   19.8112  -13.9680   24.5655 C   0  0  0  0  0  0  0  0  0  0  0  0
   20.0112  -12.7196   25.1482 C   0  0  0  0  0  0  0  0  0  0  0  0
   20.8941  -14.6730   24.0402 C   0  0  0  0  0  0  0  0  0  0  0  0
   21.2880  -12.1737   25.1985 C   0  0  0  0  0  0  0  0  0  0  0  0
   22.1686  -14.1296   24.1137 C   0  0  0  0  0  0  0  0  0  0  0  0
   22.3756  -12.8739   24.6831 C   0  0  0  0  0  0  0  0  0  0  0  0
   16.8198  -11.8158   20.1210 C   0  0  0  0  0  0  0  0  0  0  0  0
   16.5845  -12.6761   19.2699 O   0  0  0  0  0  0  0  0  0  0  0  0
   15.9060  -10.9163   20.4950 N   0  0  0  0  0  0  0  0  0  0  0  0
   16.1714  -10.2594   21.1786 H   0  0  0  0  0  0  0  0  0  0  0  0
   14.5519  -10.8284   19.9752 C   0  0  0  0  0  0  0  0  0  0  0  0
   13.5307  -10.6917   21.0773 C   0  0  0  0  0  0  0  0  0  0  0  0
   12.7027  -11.7555   21.4517 C   0  0  0  0  0  0  0  0  0  0  0  0
   11.7898  -11.5649   22.4797 C   0  0  0  0  0  0  0  0  0  0  0  0
   12.4981   -9.3575   22.7650 C   0  0  0  0  0  0  0  0  0  0  0  0
   13.4252   -9.4736   21.7387 C   0  0  0  0  0  0  0  0  0  0  0  0
   11.7206  -10.3858   23.1194 N   0  0  0  0  0  0  0  0  0  0  0  0
 18 16  2  0  0  0
 18 17  1  0  0  0
 16 14  1  0  0  0
 14 13  2  0  0  0
 13 15  1  0  0  0
 13 12  1  0  0  0
 15 17  2  0  0  0
 12  9  1  0  0  0
  9  1  1  0  0  0
  9  8  1  0  0  0
  1  3  1  0  0  0
  1  2  2  0  0  0
  7  6  1  0  0  0
  7  3  1  0  0  0
  6  5  1  0  0  0
  5  4  1  0  0  0
  4 19  1  0  0  0
  4  3  1  0  0  0
 19 21  1  0  0  0
 19 20  2  0  0  0
 23 24  1  0  0  0
 23 21  1  0  0  0
 24 25  2  0  0  0
 24 28  1  0  0  0
 25 26  1  0  0  0
 26 29  2  0  0  0
 27 28  2  0  0  0
 27 29  1  0  0  0
  8 10  1  0  0  0
  8 11  1  0  0  0
 21 22  1  0  0  0
M  END
> <minimizedAffinity>
-9.32428

$$$$
3SV2_P05_H_1


 29 31  0  0  0  0  0  0  0  0999 V2000
   17.5114  -13.4206   22.4045 C   0  0  0  0  0  0  0  0  0  0  0  0
   16.5565  -12.7046   22.7196 O   0  0  0  0  0  0  0  0  0  0  0  0
   18.4222  -13.0023   21.5213 N   0  0  0  0  0  0  0  0  0  0  0  0
   18.2521  -11.6825   20.9136 C   0  0  0  0  0  0  0  0  0  0  0  0
   19.3584  -11.5481   19.8851 C   0  0  0  0  0  0  0  0  0  0  0  0
   20.3721  -12.5942   20.2792 C   0  0  0  0  0  0  0  0  0  0  0  0
   19.5986  -13.7104   20.9920 C   0  0  0  0  0  0  0  0  0  0  0  0
   16.4391  -15.5468   22.7429 N   0  0  0  0  0  0  0  0  0  0  0  0
   17.6600  -14.8047   23.0038 C   0  0  0  0  0  0  0  0  0  0  0  0
   16.5191  -16.4832   23.1392 H   0  0  0  0  0  0  0  0  0  0  0  0
   16.2914  -15.6152   21.7359 H   0  0  0  0  0  0  0  0  0  0  0  0
   17.8227  -14.7239   24.5218 C   0  0  0  0  0  0  0  0  0  0  0  0
   18.7276  -15.8060   25.0482 C   0  0  0  0  0  0  0  0  0  0  0  0
   20.1064  -15.6385   24.9523 C   0  0  0  0  0  0  0  0  0  0  0  0
   18.2050  -16.9648   25.6223 C   0  0  0  0  0  0  0  0  0  0  0  0
   20.9601  -16.6296   25.4211 C   0  0  0  0  0  0  0  0  0  0  0  0
   19.0651  -17.9397   26.1069 C   0  0  0  0  0  0  0  0  0  0  0  0
   20.4469  -17.7862   26.0022 C   0  0  0  0  0  0  0  0  0  0  0  0
   16.9261  -11.5962   20.2130 C   0  0  0  0  0  0  0  0  0  0  0  0
   16.6544  -12.3310   19.2611 O   0  0  0  0  0  0  0  0  0  0  0  0
   16.0691  -10.6803   20.6721 N   0  0  0  0  0  0  0  0  0  0  0  0
   16.3612  -10.1296   21.4341 H   0  0  0  0  0  0  0  0  0  0  0  0
   14.7410  -10.4305   20.1383 C   0  0  0  0  0  0  0  0  0  0  0  0
   13.6708  -10.5810   21.1911 C   0  0  0  0  0  0  0  0  0  0  0  0
   13.2158   -9.4914   21.9415 C   0  0  0  0  0  0  0  0  0  0  0  0
   12.2226   -9.6977   22.8889 C   0  0  0  0  0  0  0  0  0  0  0  0
   12.1238  -11.9709   22.3615 C   0  0  0  0  0  0  0  0  0  0  0  0
   13.1218  -11.8399   21.4059 C   0  0  0  0  0  0  0  0  0  0  0  0
   11.6913  -10.9188   23.0639 N   0  0  0  0  0  0  0  0  0  0  0  0
 18 16  2  0  0  0
 18 17  1  0  0  0
 16 14  1  0  0  0
 14 13  2  0  0  0
 13 15  1  0  0  0
 13 12  1  0  0  0
 15 17  2  0  0  0
 12  9  1  0  0  0
  9  1  1  0  0  0
  9  8  1  0  0  0
  1  3  1  0  0  0
  1  2  2  0  0  0
  7  6  1  0  0  0
  7  3  1  0  0  0
  6  5  1  0  0  0
  5  4  1  0  0  0
  4 19  1  0  0  0
  4  3  1  0  0  0
 19 21  1  0  0  0
 19 20  2  0  0  0
 23 24  1  0  0  0
 23 21  1  0  0  0
 24 25  2  0  0  0
 24 28  1  0  0  0
 25 26  1  0  0  0
 26 29  2  0  0  0
 27 28  2  0  0  0
 27 29  1  0  0  0
  8 10  1  0  0  0
  8 11  1  0  0  0
 21 22  1  0  0  0
M  END
> <minimizedAffinity>
-8.01467

$$$$
3SV2_P05_H_1


 29 31  0  0  0  0  0  0  0  0999 V2000
   16.5342  -12.9361   20.1311 C   0  0  0  0  0  0  0  0  0  0  0  0
   15.9875  -13.9962   20.4492 O   0  0  0  0  0  0  0  0  0  0  0  0
   17.8532  -12.7748   20.2681 N   0  0  0  0  0  0  0  0  0  0  0  0
   18.6377  -13.8754   20.8278 C   0  0  0  0  0  0  0  0  0  0  0  0
   20.0546  -13.3531   20.9664 C   0  0  0  0  0  0  0  0  0  0  0  0
   20.1063  -12.1502   20.0567 C   0  0  0  0  0  0  0  0  0  0  0  0
   18.6800  -11.5910   19.9845 C   0  0  0  0  0  0  0  0  0  0  0  0
   16.4233  -11.2033   18.4669 N   0  0  0  0  0  0  0  0  0  0  0  0
   15.7114  -11.7829   19.5924 C   0  0  0  0  0  0  0  0  0  0  0  0
   15.8848  -10.4237   18.0891 H   0  0  0  0  0  0  0  0  0  0  0  0
   16.5498  -11.9112   17.7436 H   0  0  0  0  0  0  0  0  0  0  0  0
   15.5619  -10.6847   20.6452 C   0  0  0  0  0  0  0  0  0  0  0  0
   14.2059  -10.7138   21.2988 C   0  0  0  0  0  0  0  0  0  0  0  0
   13.6133   -9.5121   21.6772 C   0  0  0  0  0  0  0  0  0  0  0  0
   13.5446  -11.9198   21.5304 C   0  0  0  0  0  0  0  0  0  0  0  0
   12.3674   -9.5163   22.2925 C   0  0  0  0  0  0  0  0  0  0  0  0
   12.2916  -11.9130   22.1263 C   0  0  0  0  0  0  0  0  0  0  0  0
   11.6972  -10.7152   22.5209 C   0  0  0  0  0  0  0  0  0  0  0  0
   18.1224  -14.2455   22.1894 C   0  0  0  0  0  0  0  0  0  0  0  0
   18.0106  -13.4041   23.0836 O   0  0  0  0  0  0  0  0  0  0  0  0
   17.8025  -15.5288   22.3760 N   0  0  0  0  0  0  0  0  0  0  0  0
   17.9228  -16.1402   21.6138 H   0  0  0  0  0  0  0  0  0  0  0  0
   17.2914  -16.0960   23.6123 C   0  0  0  0  0  0  0  0  0  0  0  0
   16.0734  -16.9554   23.3793 C   0  0  0  0  0  0  0  0  0  0  0  0
   15.7176  -17.9843   24.2581 C   0  0  0  0  0  0  0  0  0  0  0  0
   14.5797  -18.7321   23.9891 C   0  0  0  0  0  0  0  0  0  0  0  0
   14.1544  -17.4823   22.0623 C   0  0  0  0  0  0  0  0  0  0  0  0
   15.2849  -16.7024   22.2628 C   0  0  0  0  0  0  0  0  0  0  0  0
   13.8206  -18.4554   22.9161 N   0  0  0  0  0  0  0  0  0  0  0  0
 18 16  2  0  0  0
 18 17  1  0  0  0
 16 14  1  0  0  0
 14 13  2  0  0  0
 13 15  1  0  0  0
 13 12  1  0  0  0
 15 17  2  0  0  0
 12  9  1  0  0  0
  9  1  1  0  0  0
  9  8  1  0  0  0
  1  3  1  0  0  0
  1  2  2  0  0  0
  7  6  1  0  0  0
  7  3  1  0  0  0
  6  5  1  0  0  0
  5  4  1  0  0  0
  4 19  1  0  0  0
  4  3  1  0  0  0
 19 21  1  0  0  0
 19 20  2  0  0  0
 23 24  1  0  0  0
 23 21  1  0  0  0
 24 25  2  0  0  0
 24 28  1  0  0  0
 25 26  1  0  0  0
 26 29  2  0  0  0
 27 28  2  0  0  0
 27 29  1  0  0  0
  8 10  1  0  0  0
  8 11  1  0  0  0
 21 22  1  0  0  0
M  END
> <minimizedAffinity>
-7.25830

$$$$
3SV2_P05_H_1


 29 31  0  0  0  0  0  0  0  0999 V2000
   16.6730  -12.9402   20.0059 C   0  0  0  0  0  0  0  0  0  0  0  0
   16.2502  -14.0672   20.2797 O   0  0  0  0  0  0  0  0  0  0  0  0
   17.9825  -12.6762   20.0155 N   0  0  0  0  0  0  0  0  0  0  0  0
   18.9089  -13.7473   20.3823 C   0  0  0  0  0  0  0  0  0  0  0  0
   20.2875  -13.1165   20.4169 C   0  0  0  0  0  0  0  0  0  0  0  0
   20.1413  -11.8411   19.6238 C   0  0  0  0  0  0  0  0  0  0  0  0
   18.6771  -11.4048   19.7575 C   0  0  0  0  0  0  0  0  0  0  0  0
   16.2443  -11.0816   18.5407 N   0  0  0  0  0  0  0  0  0  0  0  0
   15.7070  -11.8221   19.6688 C   0  0  0  0  0  0  0  0  0  0  0  0
   15.6074  -10.3229   18.2977 H   0  0  0  0  0  0  0  0  0  0  0  0
   16.3484  -11.7073   17.7419 H   0  0  0  0  0  0  0  0  0  0  0  0
   15.5845  -10.8411   20.8348 C   0  0  0  0  0  0  0  0  0  0  0  0
   14.2012  -10.8450   21.4294 C   0  0  0  0  0  0  0  0  0  0  0  0
   13.5635  -12.0634   21.6463 C   0  0  0  0  0  0  0  0  0  0  0  0
   13.5564   -9.6529   21.7590 C   0  0  0  0  0  0  0  0  0  0  0  0
   12.2821  -12.0900   22.1832 C   0  0  0  0  0  0  0  0  0  0  0  0
   12.2854   -9.6899   22.3142 C   0  0  0  0  0  0  0  0  0  0  0  0
   11.6341  -10.9050   22.5218 C   0  0  0  0  0  0  0  0  0  0  0  0
   18.5830  -14.2749   21.7505 C   0  0  0  0  0  0  0  0  0  0  0  0
   18.2496  -15.4493   21.9227 O   0  0  0  0  0  0  0  0  0  0  0  0
   18.6671  -13.4040   22.7597 N   0  0  0  0  0  0  0  0  0  0  0  0
   18.9372  -12.4829   22.5407 H   0  0  0  0  0  0  0  0  0  0  0  0
   18.3924  -13.7051   24.1544 C   0  0  0  0  0  0  0  0  0  0  0  0
   19.6584  -13.9160   24.9475 C   0  0  0  0  0  0  0  0  0  0  0  0
   20.2851  -15.1649   25.0183 C   0  0  0  0  0  0  0  0  0  0  0  0
   21.4523  -15.2883   25.7592 C   0  0  0  0  0  0  0  0  0  0  0  0
   21.3893  -13.0234   26.3267 C   0  0  0  0  0  0  0  0  0  0  0  0
   20.2140  -12.8301   25.6141 C   0  0  0  0  0  0  0  0  0  0  0  0
   21.9830  -14.2202   26.3770 N   0  0  0  0  0  0  0  0  0  0  0  0
 18 16  2  0  0  0
 18 17  1  0  0  0
 16 14  1  0  0  0
 14 13  2  0  0  0
 13 15  1  0  0  0
 13 12  1  0  0  0
 15 17  2  0  0  0
 12  9  1  0  0  0
  9  1  1  0  0  0
  9  8  1  0  0  0
  1  3  1  0  0  0
  1  2  2  0  0  0
  7  6  1  0  0  0
  7  3  1  0  0  0
  6  5  1  0  0  0
  5  4  1  0  0  0
  4 19  1  0  0  0
  4  3  1  0  0  0
 19 21  1  0  0  0
 19 20  2  0  0  0
 23 24  1  0  0  0
 23 21  1  0  0  0
 24 25  2  0  0  0
 24 28  1  0  0  0
 25 26  1  0  0  0
 26 29  2  0  0  0
 27 28  2  0  0  0
 27 29  1  0  0  0
  8 10  1  0  0  0
  8 11  1  0  0  0
 21 22  1  0  0  0
M  END
> <minimizedAffinity>
-7.14144

$$$$
3SV2_P05_H_1


 29 31  0  0  0  0  0  0  0  0999 V2000
   17.3808  -13.5027   22.2139 C   0  0  0  0  0  0  0  0  0  0  0  0
   16.4177  -12.7999   22.5337 O   0  0  0  0  0  0  0  0  0  0  0  0
   18.3481  -13.0257   21.4256 N   0  0  0  0  0  0  0  0  0  0  0  0
   18.2312  -11.6556   20.9265 C   0  0  0  0  0  0  0  0  0  0  0  0
   19.3988  -11.4524   19.9804 C   0  0  0  0  0  0  0  0  0  0  0  0
   20.3739  -12.5463   20.3405 C   0  0  0  0  0  0  0  0  0  0  0  0
   19.5453  -13.7061   20.9066 C   0  0  0  0  0  0  0  0  0  0  0  0
   18.6201  -15.0407   23.5863 N   0  0  0  0  0  0  0  0  0  0  0  0
   17.4759  -14.9358   22.6979 C   0  0  0  0  0  0  0  0  0  0  0  0
   18.7017  -15.9998   23.9237 H   0  0  0  0  0  0  0  0  0  0  0  0
   18.4940  -14.4110   24.3788 H   0  0  0  0  0  0  0  0  0  0  0  0
   17.7246  -15.8881   21.5281 C   0  0  0  0  0  0  0  0  0  0  0  0
   16.4906  -16.6731   21.1704 C   0  0  0  0  0  0  0  0  0  0  0  0
   16.3405  -17.1369   19.8664 C   0  0  0  0  0  0  0  0  0  0  0  0
   15.5041  -16.9352   22.1209 C   0  0  0  0  0  0  0  0  0  0  0  0
   15.2040  -17.8534   19.5113 C   0  0  0  0  0  0  0  0  0  0  0  0
   14.3826  -17.6694   21.7627 C   0  0  0  0  0  0  0  0  0  0  0  0
   14.2178  -18.1257   20.4557 C   0  0  0  0  0  0  0  0  0  0  0  0
   16.9508  -11.4859   20.1594 C   0  0  0  0  0  0  0  0  0  0  0  0
   16.7705  -12.0511   19.0787 O   0  0  0  0  0  0  0  0  0  0  0  0
   16.0303  -10.6882   20.7073 N   0  0  0  0  0  0  0  0  0  0  0  0
   16.2504  -10.2706   21.5713 H   0  0  0  0  0  0  0  0  0  0  0  0
   14.7305  -10.3865   20.1322 C   0  0  0  0  0  0  0  0  0  0  0  0
   13.6171  -10.5407   21.1386 C   0  0  0  0  0  0  0  0  0  0  0  0
   12.9274  -11.7477   21.2965 C   0  0  0  0  0  0  0  0  0  0  0  0
   11.9187  -11.8241   22.2469 C   0  0  0  0  0  0  0  0  0  0  0  0
   12.2709   -9.6009   22.8705 C   0  0  0  0  0  0  0  0  0  0  0  0
   13.2825   -9.4496   21.9323 C   0  0  0  0  0  0  0  0  0  0  0  0
   11.6274  -10.7635   23.0178 N   0  0  0  0  0  0  0  0  0  0  0  0
 18 16  2  0  0  0
 18 17  1  0  0  0
 16 14  1  0  0  0
 14 13  2  0  0  0
 13 15  1  0  0  0
 13 12  1  0  0  0
 15 17  2  0  0  0
 12  9  1  0  0  0
  9  1  1  0  0  0
  9  8  1  0  0  0
  1  3  1  0  0  0
  1  2  2  0  0  0
  7  6  1  0  0  0
  7  3  1  0  0  0
  6  5  1  0  0  0
  5  4  1  0  0  0
  4 19  1  0  0  0
  4  3  1  0  0  0
 19 21  1  0  0  0
 19 20  2  0  0  0
 23 24  1  0  0  0
 23 21  1  0  0  0
 24 25  2  0  0  0
 24 28  1  0  0  0
 25 26  1  0  0  0
 26 29  2  0  0  0
 27 28  2  0  0  0
 27 29  1  0  0  0
  8 10  1  0  0  0
  8 11  1  0  0  0
 21 22  1  0  0  0
M  END
> <minimizedAffinity>
-6.99984

$$$$
3SV2_P05_H_1


 29 31  0  0  0  0  0  0  0  0999 V2000
   18.8308  -13.9125   22.9057 C   0  0  0  0  0  0  0  0  0  0  0  0
   17.7690  -13.6457   23.4760 O   0  0  0  0  0  0  0  0  0  0  0  0
   19.2180  -13.2345   21.8217 N   0  0  0  0  0  0  0  0  0  0  0  0
   18.3436  -12.1809   21.3068 C   0  0  0  0  0  0  0  0  0  0  0  0
   18.9885  -11.6890   20.0255 C   0  0  0  0  0  0  0  0  0  0  0  0
   20.4201  -12.1575   20.1170 C   0  0  0  0  0  0  0  0  0  0  0  0
   20.4153  -13.4207   20.9866 C   0  0  0  0  0  0  0  0  0  0  0  0
   18.8715  -16.1864   23.6885 N   0  0  0  0  0  0  0  0  0  0  0  0
   19.7127  -15.0339   23.4171 C   0  0  0  0  0  0  0  0  0  0  0  0
   19.4475  -16.9538   24.0344 H   0  0  0  0  0  0  0  0  0  0  0  0
   18.4016  -16.4740   22.8301 H   0  0  0  0  0  0  0  0  0  0  0  0
   20.3792  -14.6417   24.7358 C   0  0  0  0  0  0  0  0  0  0  0  0
   21.6340  -15.4343   24.9889 C   0  0  0  0  0  0  0  0  0  0  0  0
   21.7276  -16.1971   26.1497 C   0  0  0  0  0  0  0  0  0  0  0  0
   22.6948  -15.4105   24.0837 C   0  0  0  0  0  0  0  0  0  0  0  0
   22.8811  -16.9272   26.4091 C   0  0  0  0  0  0  0  0  0  0  0  0
   23.8343  -16.1592   24.3406 C   0  0  0  0  0  0  0  0  0  0  0  0
   23.9419  -16.9147   25.5073 C   0  0  0  0  0  0  0  0  0  0  0  0
   16.9869  -12.7388   20.9832 C   0  0  0  0  0  0  0  0  0  0  0  0
   16.8389  -13.6051   20.1187 O   0  0  0  0  0  0  0  0  0  0  0  0
   15.9584  -12.2409   21.6748 N   0  0  0  0  0  0  0  0  0  0  0  0
   16.1577  -11.5490   22.3463 H   0  0  0  0  0  0  0  0  0  0  0  0
   14.5694  -12.6371   21.5168 C   0  0  0  0  0  0  0  0  0  0  0  0
   13.6382  -11.4501   21.5252 C   0  0  0  0  0  0  0  0  0  0  0  0
   13.8133  -10.3690   20.6546 C   0  0  0  0  0  0  0  0  0  0  0  0
   12.9152   -9.3121   20.7089 C   0  0  0  0  0  0  0  0  0  0  0  0
   11.7085  -10.3612   22.4115 C   0  0  0  0  0  0  0  0  0  0  0  0
   12.5744  -11.4458   22.4201 C   0  0  0  0  0  0  0  0  0  0  0  0
   11.8819   -9.3397   21.5666 N   0  0  0  0  0  0  0  0  0  0  0  0
 18 16  2  0  0  0
 18 17  1  0  0  0
 16 14  1  0  0  0
 14 13  2  0  0  0
 13 15  1  0  0  0
 13 12  1  0  0  0
 15 17  2  0  0  0
 12  9  1  0  0  0
  9  1  1  0  0  0
  9  8  1  0  0  0
  1  3  1  0  0  0
  1  2  2  0  0  0
  7  6  1  0  0  0
  7  3  1  0  0  0
  6  5  1  0  0  0
  5  4  1  0  0  0
  4 19  1  0  0  0
  4  3  1  0  0  0
 19 21  1  0  0  0
 19 20  2  0  0  0
 23 24  1  0  0  0
 23 21  1  0  0  0
 24 25  2  0  0  0
 24 28  1  0  0  0
 25 26  1  0  0  0
 26 29  2  0  0  0
 27 28  2  0  0  0
 27 29  1  0  0  0
  8 10  1  0  0  0
  8 11  1  0  0  0
 21 22  1  0  0  0
M  END
> <minimizedAffinity>
-6.88996

$$$$
3SV2_P05_H_1


 29 31  0  0  0  0  0  0  0  0999 V2000
   16.6057  -12.9469   20.1568 C   0  0  0  0  0  0  0  0  0  0  0  0
   16.0584  -14.0020   20.4899 O   0  0  0  0  0  0  0  0  0  0  0  0
   17.9197  -12.7720   20.3226 N   0  0  0  0  0  0  0  0  0  0  0  0
   18.6972  -13.8510   20.9319 C   0  0  0  0  0  0  0  0  0  0  0  0
   20.1065  -13.3144   21.0919 C   0  0  0  0  0  0  0  0  0  0  0  0
   20.1731  -12.1363   20.1511 C   0  0  0  0  0  0  0  0  0  0  0  0
   18.7454  -11.5901   20.0277 C   0  0  0  0  0  0  0  0  0  0  0  0
   16.5181  -11.2712   18.4337 N   0  0  0  0  0  0  0  0  0  0  0  0
   15.7891  -11.8151   19.5660 C   0  0  0  0  0  0  0  0  0  0  0  0
   15.9840  -10.5064   18.0211 H   0  0  0  0  0  0  0  0  0  0  0  0
   16.6587  -12.0026   17.7367 H   0  0  0  0  0  0  0  0  0  0  0  0
   15.6190  -10.6826   20.5787 C   0  0  0  0  0  0  0  0  0  0  0  0
   14.2597  -10.7067   21.2256 C   0  0  0  0  0  0  0  0  0  0  0  0
   13.6997   -9.5098   21.6638 C   0  0  0  0  0  0  0  0  0  0  0  0
   13.5633  -11.9037   21.3922 C   0  0  0  0  0  0  0  0  0  0  0  0
   12.4513   -9.5102   22.2741 C   0  0  0  0  0  0  0  0  0  0  0  0
   12.3083  -11.8919   21.9836 C   0  0  0  0  0  0  0  0  0  0  0  0
   11.7463  -10.6997   22.4378 C   0  0  0  0  0  0  0  0  0  0  0  0
   18.1500  -14.1877   22.2897 C   0  0  0  0  0  0  0  0  0  0  0  0
   17.9637  -13.3154   23.1408 O   0  0  0  0  0  0  0  0  0  0  0  0
   17.8864  -15.4763   22.5222 N   0  0  0  0  0  0  0  0  0  0  0  0
   18.0650  -16.1131   21.7929 H   0  0  0  0  0  0  0  0  0  0  0  0
   17.3577  -16.0149   23.7638 C   0  0  0  0  0  0  0  0  0  0  0  0
   18.4406  -16.6132   24.6273 C   0  0  0  0  0  0  0  0  0  0  0  0
   19.7802  -16.2296   24.5020 C   0  0  0  0  0  0  0  0  0  0  0  0
   20.7255  -16.8137   25.3337 C   0  0  0  0  0  0  0  0  0  0  0  0
   19.0804  -18.0976   26.3829 C   0  0  0  0  0  0  0  0  0  0  0  0
   18.0844  -17.5637   25.5771 C   0  0  0  0  0  0  0  0  0  0  0  0
   20.3551  -17.7139   26.2593 N   0  0  0  0  0  0  0  0  0  0  0  0
 18 16  2  0  0  0
 18 17  1  0  0  0
 16 14  1  0  0  0
 14 13  2  0  0  0
 13 15  1  0  0  0
 13 12  1  0  0  0
 15 17  2  0  0  0
 12  9  1  0  0  0
  9  1  1  0  0  0
  9  8  1  0  0  0
  1  3  1  0  0  0
  1  2  2  0  0  0
  7  6  1  0  0  0
  7  3  1  0  0  0
  6  5  1  0  0  0
  5  4  1  0  0  0
  4 19  1  0  0  0
  4  3  1  0  0  0
 19 21  1  0  0  0
 19 20  2  0  0  0
 23 24  1  0  0  0
 23 21  1  0  0  0
 24 25  2  0  0  0
 24 28  1  0  0  0
 25 26  1  0  0  0
 26 29  2  0  0  0
 27 28  2  0  0  0
 27 29  1  0  0  0
  8 10  1  0  0  0
  8 11  1  0  0  0
 21 22  1  0  0  0
M  END
> <minimizedAffinity>
-6.84595

$$$$
3SV2_P05_H_1


 29 31  0  0  0  0  0  0  0  0999 V2000
   20.2133  -15.5920   24.0704 C   0  0  0  0  0  0  0  0  0  0  0  0
   19.3589  -15.5463   23.1806 O   0  0  0  0  0  0  0  0  0  0  0  0
   20.6035  -14.4838   24.7061 N   0  0  0  0  0  0  0  0  0  0  0  0
   20.0137  -13.2055   24.3089 C   0  0  0  0  0  0  0  0  0  0  0  0
   20.7338  -12.1421   25.1153 C   0  0  0  0  0  0  0  0  0  0  0  0
   21.3673  -12.8967   26.2582 C   0  0  0  0  0  0  0  0  0  0  0  0
   21.6215  -14.3236   25.7567 C   0  0  0  0  0  0  0  0  0  0  0  0
   21.1132  -17.6580   23.2298 N   0  0  0  0  0  0  0  0  0  0  0  0
   20.8534  -16.9126   24.4489 C   0  0  0  0  0  0  0  0  0  0  0  0
   21.5450  -18.5521   23.4634 H   0  0  0  0  0  0  0  0  0  0  0  0
   21.7424  -17.1226   22.6315 H   0  0  0  0  0  0  0  0  0  0  0  0
   19.9000  -17.7542   25.2973 C   0  0  0  0  0  0  0  0  0  0  0  0
   20.4932  -18.0950   26.6385 C   0  0  0  0  0  0  0  0  0  0  0  0
   19.6850  -18.6929   27.6015 C   0  0  0  0  0  0  0  0  0  0  0  0
   21.8298  -17.8179   26.9253 C   0  0  0  0  0  0  0  0  0  0  0  0
   20.2086  -19.0053   28.8502 C   0  0  0  0  0  0  0  0  0  0  0  0
   22.3497  -18.1526   28.1674 C   0  0  0  0  0  0  0  0  0  0  0  0
   21.5437  -18.7388   29.1423 C   0  0  0  0  0  0  0  0  0  0  0  0
   20.2531  -12.9506   22.8479 C   0  0  0  0  0  0  0  0  0  0  0  0
   21.3862  -13.0014   22.3649 O   0  0  0  0  0  0  0  0  0  0  0  0
   19.1778  -12.6606   22.1105 N   0  0  0  0  0  0  0  0  0  0  0  0
   18.3075  -12.6361   22.5702 H   0  0  0  0  0  0  0  0  0  0  0  0
   19.1878  -12.3784   20.6852 C   0  0  0  0  0  0  0  0  0  0  0  0
   17.8383  -11.9205   20.1897 C   0  0  0  0  0  0  0  0  0  0  0  0
   17.5447  -11.8325   18.8246 C   0  0  0  0  0  0  0  0  0  0  0  0
   16.2803  -11.4116   18.4366 C   0  0  0  0  0  0  0  0  0  0  0  0
   15.6178  -11.1868   20.6651 C   0  0  0  0  0  0  0  0  0  0  0  0
   16.8643  -11.5889   21.1244 C   0  0  0  0  0  0  0  0  0  0  0  0
   15.3478  -11.1175   19.3575 N   0  0  0  0  0  0  0  0  0  0  0  0
 18 16  2  0  0  0
 18 17  1  0  0  0
 16 14  1  0  0  0
 14 13  2  0  0  0
 13 15  1  0  0  0
 13 12  1  0  0  0
 15 17  2  0  0  0
 12  9  1  0  0  0
  9  1  1  0  0  0
  9  8  1  0  0  0
  1  3  1  0  0  0
  1  2  2  0  0  0
  7  6  1  0  0  0
  7  3  1  0  0  0
  6  5  1  0  0  0
  5  4  1  0  0  0
  4 19  1  0  0  0
  4  3  1  0  0  0
 19 21  1  0  0  0
 19 20  2  0  0  0
 23 24  1  0  0  0
 23 21  1  0  0  0
 24 25  2  0  0  0
 24 28  1  0  0  0
 25 26  1  0  0  0
 26 29  2  0  0  0
 27 28  2  0  0  0
 27 29  1  0  0  0
  8 10  1  0  0  0
  8 11  1  0  0  0
 21 22  1  0  0  0
M  END
> <minimizedAffinity>
-6.81178

$$$$
3SV2_P05_H_1


 29 31  0  0  0  0  0  0  0  0999 V2000
   18.4835  -16.5972   22.7062 C   0  0  0  0  0  0  0  0  0  0  0  0
   18.8511  -16.2796   21.5715 O   0  0  0  0  0  0  0  0  0  0  0  0
   17.1955  -16.8338   22.9704 N   0  0  0  0  0  0  0  0  0  0  0  0
   16.2213  -16.6849   21.8893 C   0  0  0  0  0  0  0  0  0  0  0  0
   14.8588  -16.8997   22.5194 C   0  0  0  0  0  0  0  0  0  0  0  0
   15.1490  -17.6119   23.8177 C   0  0  0  0  0  0  0  0  0  0  0  0
   16.5573  -17.1844   24.2492 C   0  0  0  0  0  0  0  0  0  0  0  0
   19.3430  -18.0156   24.4481 N   0  0  0  0  0  0  0  0  0  0  0  0
   19.4905  -16.7080   23.8335 C   0  0  0  0  0  0  0  0  0  0  0  0
   20.0134  -18.1103   25.2109 H   0  0  0  0  0  0  0  0  0  0  0  0
   19.5160  -18.7402   23.7514 H   0  0  0  0  0  0  0  0  0  0  0  0
   19.2092  -15.6664   24.9165 C   0  0  0  0  0  0  0  0  0  0  0  0
   20.1836  -14.5201   24.8603 C   0  0  0  0  0  0  0  0  0  0  0  0
   21.4175  -14.7129   24.2450 C   0  0  0  0  0  0  0  0  0  0  0  0
   19.8684  -13.2800   25.4154 C   0  0  0  0  0  0  0  0  0  0  0  0
   22.3367  -13.6722   24.1920 C   0  0  0  0  0  0  0  0  0  0  0  0
   20.7839  -12.2402   25.3393 C   0  0  0  0  0  0  0  0  0  0  0  0
   22.0272  -12.4289   24.7372 C   0  0  0  0  0  0  0  0  0  0  0  0
   16.2788  -15.2954   21.3212 C   0  0  0  0  0  0  0  0  0  0  0  0
   16.0602  -15.0809   20.1270 O   0  0  0  0  0  0  0  0  0  0  0  0
   16.5852  -14.3156   22.1756 N   0  0  0  0  0  0  0  0  0  0  0  0
   16.7491  -14.5678   23.1131 H   0  0  0  0  0  0  0  0  0  0  0  0
   16.6965  -12.9076   21.8343 C   0  0  0  0  0  0  0  0  0  0  0  0
   18.0211  -12.5853   21.1878 C   0  0  0  0  0  0  0  0  0  0  0  0
   19.2379  -12.8859   21.8095 C   0  0  0  0  0  0  0  0  0  0  0  0
   20.4208  -12.5698   21.1558 C   0  0  0  0  0  0  0  0  0  0  0  0
   19.2407  -11.7049   19.3351 C   0  0  0  0  0  0  0  0  0  0  0  0
   18.0204  -11.9821   19.9353 C   0  0  0  0  0  0  0  0  0  0  0  0
   20.3959  -12.0073   19.9363 N   0  0  0  0  0  0  0  0  0  0  0  0
 18 16  2  0  0  0
 18 17  1  0  0  0
 16 14  1  0  0  0
 14 13  2  0  0  0
 13 15  1  0  0  0
 13 12  1  0  0  0
 15 17  2  0  0  0
 12  9  1  0  0  0
  9  1  1  0  0  0
  9  8  1  0  0  0
  1  3  1  0  0  0
  1  2  2  0  0  0
  7  6  1  0  0  0
  7  3  1  0  0  0
  6  5  1  0  0  0
  5  4  1  0  0  0
  4 19  1  0  0  0
  4  3  1  0  0  0
 19 21  1  0  0  0
 19 20  2  0  0  0
 23 24  1  0  0  0
 23 21  1  0  0  0
 24 25  2  0  0  0
 24 28  1  0  0  0
 25 26  1  0  0  0
 26 29  2  0  0  0
 27 28  2  0  0  0
 27 29  1  0  0  0
  8 10  1  0  0  0
  8 11  1  0  0  0
 21 22  1  0  0  0
M  END
> <minimizedAffinity>
-6.76228

$$$$
3SV2_P05_H_1


 29 31  0  0  0  0  0  0  0  0999 V2000
   17.3628  -13.9570   21.1991 C   0  0  0  0  0  0  0  0  0  0  0  0
   17.6098  -15.1663   21.1810 O   0  0  0  0  0  0  0  0  0  0  0  0
   18.2964  -13.0598   20.8704 N   0  0  0  0  0  0  0  0  0  0  0  0
   19.6307  -13.5393   20.5103 C   0  0  0  0  0  0  0  0  0  0  0  0
   20.4821  -12.3005   20.3101 C   0  0  0  0  0  0  0  0  0  0  0  0
   19.4867  -11.1837   20.1122 C   0  0  0  0  0  0  0  0  0  0  0  0
   18.2133  -11.5906   20.8639 C   0  0  0  0  0  0  0  0  0  0  0  0
   15.1626  -14.6175   21.9115 N   0  0  0  0  0  0  0  0  0  0  0  0
   15.9917  -13.4626   21.6147 C   0  0  0  0  0  0  0  0  0  0  0  0
   14.2334  -14.3054   22.1938 H   0  0  0  0  0  0  0  0  0  0  0  0
   15.5856  -15.1542   22.6686 H   0  0  0  0  0  0  0  0  0  0  0  0
   15.3178  -12.7060   20.4699 C   0  0  0  0  0  0  0  0  0  0  0  0
   14.3509  -11.6681   20.9747 C   0  0  0  0  0  0  0  0  0  0  0  0
   14.6988  -10.3229   20.8877 C   0  0  0  0  0  0  0  0  0  0  0  0
   13.1238  -12.0360   21.5263 C   0  0  0  0  0  0  0  0  0  0  0  0
   13.8266   -9.3488   21.3582 C   0  0  0  0  0  0  0  0  0  0  0  0
   12.2502  -11.0556   21.9742 C   0  0  0  0  0  0  0  0  0  0  0  0
   12.5965   -9.7070   21.9036 C   0  0  0  0  0  0  0  0  0  0  0  0
   20.2143  -14.3523   21.6306 C   0  0  0  0  0  0  0  0  0  0  0  0
   20.7439  -15.4458   21.4216 O   0  0  0  0  0  0  0  0  0  0  0  0
   20.1200  -13.8302   22.8564 N   0  0  0  0  0  0  0  0  0  0  0  0
   19.6802  -12.9536   22.9419 H   0  0  0  0  0  0  0  0  0  0  0  0
   20.6139  -14.4506   24.0740 C   0  0  0  0  0  0  0  0  0  0  0  0
   19.6529  -15.4807   24.6139 C   0  0  0  0  0  0  0  0  0  0  0  0
   18.2713  -15.2610   24.6351 C   0  0  0  0  0  0  0  0  0  0  0  0
   17.4422  -16.2541   25.1380 C   0  0  0  0  0  0  0  0  0  0  0  0
   19.2761  -17.6347   25.5696 C   0  0  0  0  0  0  0  0  0  0  0  0
   20.1647  -16.6816   25.0917 C   0  0  0  0  0  0  0  0  0  0  0  0
   17.9572  -17.4154   25.5740 N   0  0  0  0  0  0  0  0  0  0  0  0
 18 16  2  0  0  0
 18 17  1  0  0  0
 16 14  1  0  0  0
 14 13  2  0  0  0
 13 15  1  0  0  0
 13 12  1  0  0  0
 15 17  2  0  0  0
 12  9  1  0  0  0
  9  1  1  0  0  0
  9  8  1  0  0  0
  1  3  1  0  0  0
  1  2  2  0  0  0
  7  6  1  0  0  0
  7  3  1  0  0  0
  6  5  1  0  0  0
  5  4  1  0  0  0
  4 19  1  0  0  0
  4  3  1  0  0  0
 19 21  1  0  0  0
 19 20  2  0  0  0
 23 24  1  0  0  0
 23 21  1  0  0  0
 24 25  2  0  0  0
 24 28  1  0  0  0
 25 26  1  0  0  0
 26 29  2  0  0  0
 27 28  2  0  0  0
 27 29  1  0  0  0
  8 10  1  0  0  0
  8 11  1  0  0  0
 21 22  1  0  0  0
M  END
> <minimizedAffinity>
-6.71843

$$$$
