1UZ4_IFL_A_1432


 15 15  0  0  0  0  0  0  0  0999 V2000
   73.7793   13.6728   34.8879 O   0  0  0  0  0  0  0  0  0  0  0  0
   74.2012   12.7277   33.9342 C   0  0  0  0  0  0  0  0  0  0  0  0
   73.0746   12.6555   32.8524 C   0  0  0  0  0  0  0  0  0  0  0  0
   72.2010   11.5354   33.1338 O   0  0  0  0  0  0  0  0  0  0  0  0
   73.5635   12.4125   31.3962 C   0  0  0  0  0  0  0  0  0  0  0  0
   74.8245   11.9627   31.2558 N   0  0  0  0  0  0  0  0  0  0  0  0
   75.8517   11.9995   32.3005 C   0  0  0  0  0  0  0  0  0  0  0  0
   75.5654   13.0873   33.3335 C   0  0  0  0  0  0  0  0  0  0  0  0
   72.7339   12.4255   30.4696 O   0  0  0  0  0  0  0  0  0  0  0  0
   72.9156   13.4104   35.2430 H   0  0  0  0  0  0  0  0  0  0  0  0
   72.7028   10.7083   33.0631 H   0  0  0  0  0  0  0  0  0  0  0  0
   75.0760   11.5797   30.3844 H   0  0  0  0  0  0  0  0  0  0  0  0
   76.7732   13.2173   34.3095 C   0  0  0  0  0  0  0  0  0  0  0  0
   76.9734   11.9619   35.0020 O   0  0  0  0  0  0  0  0  0  0  0  0
   76.1747   11.7393   35.5054 H   0  0  0  0  0  0  0  0  0  0  0  0
  1  2  1  0  0  0
  2  3  1  0  0  0
  2  8  1  0  0  0
  3  4  1  0  0  0
  3  5  1  0  0  0
  5  6  1  0  0  0
  5  9  2  0  0  0
  6  7  1  0  0  0
  7  8  1  0  0  0
  8 13  1  0  0  0
 13 14  1  0  0  0
  1 10  1  0  0  0
  4 11  1  0  0  0
  6 12  1  0  0  0
 14 15  1  0  0  0
M  END
> <minimizedAffinity>
-7.13242

$$$$
1UZ4_IFL_A_1432


 15 15  0  0  0  0  0  0  0  0999 V2000
   75.6790   11.6895   30.9868 O   0  0  0  0  0  0  0  0  0  0  0  0
   75.4233   10.8405   32.0797 C   0  0  0  0  0  0  0  0  0  0  0  0
   74.0795   11.3267   32.7145 C   0  0  0  0  0  0  0  0  0  0  0  0
   74.3589   12.1944   33.8396 O   0  0  0  0  0  0  0  0  0  0  0  0
   73.1756   10.2057   33.3017 C   0  0  0  0  0  0  0  0  0  0  0  0
   73.7623    9.0121   33.5101 N   0  0  0  0  0  0  0  0  0  0  0  0
   75.0464    8.5951   32.9399 C   0  0  0  0  0  0  0  0  0  0  0  0
   75.3720    9.3660   31.6623 C   0  0  0  0  0  0  0  0  0  0  0  0
   72.0543   10.5049   33.7488 O   0  0  0  0  0  0  0  0  0  0  0  0
   75.7036   12.6101   31.2913 H   0  0  0  0  0  0  0  0  0  0  0  0
   74.8218   11.6921   34.5283 H   0  0  0  0  0  0  0  0  0  0  0  0
   73.2926    8.3700   34.0900 H   0  0  0  0  0  0  0  0  0  0  0  0
   76.6412    8.7604   30.9911 C   0  0  0  0  0  0  0  0  0  0  0  0
   76.6913    9.1606   29.6007 O   0  0  0  0  0  0  0  0  0  0  0  0
   75.8994    8.8382   29.1427 H   0  0  0  0  0  0  0  0  0  0  0  0
  1  2  1  0  0  0
  2  3  1  0  0  0
  2  8  1  0  0  0
  3  4  1  0  0  0
  3  5  1  0  0  0
  5  6  1  0  0  0
  5  9  2  0  0  0
  6  7  1  0  0  0
  7  8  1  0  0  0
  8 13  1  0  0  0
 13 14  1  0  0  0
  1 10  1  0  0  0
  4 11  1  0  0  0
  6 12  1  0  0  0
 14 15  1  0  0  0
M  END
> <minimizedAffinity>
-6.28781

$$$$
1UZ4_IFL_A_1432


 15 15  0  0  0  0  0  0  0  0999 V2000
   72.5705   10.3911   33.9756 O   0  0  0  0  0  0  0  0  0  0  0  0
   73.7684   10.8969   33.4371 C   0  0  0  0  0  0  0  0  0  0  0  0
   74.7152    9.6699   33.2305 C   0  0  0  0  0  0  0  0  0  0  0  0
   75.6199    9.5585   34.3556 O   0  0  0  0  0  0  0  0  0  0  0  0
   75.6466    9.7485   31.9875 C   0  0  0  0  0  0  0  0  0  0  0  0
   75.7916   10.9627   31.4246 N   0  0  0  0  0  0  0  0  0  0  0  0
   74.9168   12.1129   31.6690 C   0  0  0  0  0  0  0  0  0  0  0  0
   73.5306   11.6762   32.1382 C   0  0  0  0  0  0  0  0  0  0  0  0
   76.3685    8.7744   31.7101 O   0  0  0  0  0  0  0  0  0  0  0  0
   72.7630    9.9064   34.7934 H   0  0  0  0  0  0  0  0  0  0  0  0
   76.1902   10.3423   34.3908 H   0  0  0  0  0  0  0  0  0  0  0  0
   76.5430   11.0876   30.8009 H   0  0  0  0  0  0  0  0  0  0  0  0
   72.5824   12.9113   32.1997 C   0  0  0  0  0  0  0  0  0  0  0  0
   72.3047   13.2402   33.5819 O   0  0  0  0  0  0  0  0  0  0  0  0
   71.8779   12.4843   34.0147 H   0  0  0  0  0  0  0  0  0  0  0  0
  1  2  1  0  0  0
  2  3  1  0  0  0
  2  8  1  0  0  0
  3  4  1  0  0  0
  3  5  1  0  0  0
  5  6  1  0  0  0
  5  9  2  0  0  0
  6  7  1  0  0  0
  7  8  1  0  0  0
  8 13  1  0  0  0
 13 14  1  0  0  0
  1 10  1  0  0  0
  4 11  1  0  0  0
  6 12  1  0  0  0
 14 15  1  0  0  0
M  END
> <minimizedAffinity>
-6.27327

$$$$
1UZ4_IFL_A_1432


 15 15  0  0  0  0  0  0  0  0999 V2000
   75.4924   10.4946   34.4230 O   0  0  0  0  0  0  0  0  0  0  0  0
   75.1566   11.2884   33.3105 C   0  0  0  0  0  0  0  0  0  0  0  0
   73.7446   10.8131   32.8360 C   0  0  0  0  0  0  0  0  0  0  0  0
   73.8891    9.8740   31.7433 O   0  0  0  0  0  0  0  0  0  0  0  0
   72.8205   11.9292   32.2712 C   0  0  0  0  0  0  0  0  0  0  0  0
   73.4181   13.0884   31.9373 N   0  0  0  0  0  0  0  0  0  0  0  0
   74.7627   13.4930   32.3574 C   0  0  0  0  0  0  0  0  0  0  0  0
   75.1879   12.7851   33.6421 C   0  0  0  0  0  0  0  0  0  0  0  0
   71.6531   11.6435   31.9510 O   0  0  0  0  0  0  0  0  0  0  0  0
   75.4612    9.5578   34.1730 H   0  0  0  0  0  0  0  0  0  0  0  0
   74.2975   10.3204   30.9851 H   0  0  0  0  0  0  0  0  0  0  0  0
   72.9131   13.7122   31.3672 H   0  0  0  0  0  0  0  0  0  0  0  0
   76.5327   13.3842   34.1527 C   0  0  0  0  0  0  0  0  0  0  0  0
   76.2633   14.3971   35.1513 O   0  0  0  0  0  0  0  0  0  0  0  0
   75.7244   15.1021   34.7596 H   0  0  0  0  0  0  0  0  0  0  0  0
  1  2  1  0  0  0
  2  3  1  0  0  0
  2  8  1  0  0  0
  3  4  1  0  0  0
  3  5  1  0  0  0
  5  6  1  0  0  0
  5  9  2  0  0  0
  6  7  1  0  0  0
  7  8  1  0  0  0
  8 13  1  0  0  0
 13 14  1  0  0  0
  1 10  1  0  0  0
  4 11  1  0  0  0
  6 12  1  0  0  0
 14 15  1  0  0  0
M  END
> <minimizedAffinity>
-6.24677

$$$$
1UZ4_IFL_A_1432


 15 15  0  0  0  0  0  0  0  0999 V2000
   75.5499   12.3499   31.1548 O   0  0  0  0  0  0  0  0  0  0  0  0
   74.6497   11.4103   31.6910 C   0  0  0  0  0  0  0  0  0  0  0  0
   75.5178   10.2984   32.3655 C   0  0  0  0  0  0  0  0  0  0  0  0
   75.6720    9.1827   31.4554 O   0  0  0  0  0  0  0  0  0  0  0  0
   74.9135    9.6705   33.6535 C   0  0  0  0  0  0  0  0  0  0  0  0
   73.6021    9.8872   33.8660 N   0  0  0  0  0  0  0  0  0  0  0  0
   72.7974   10.9071   33.1875 C   0  0  0  0  0  0  0  0  0  0  0  0
   73.6623   12.0550   32.6711 C   0  0  0  0  0  0  0  0  0  0  0  0
   75.5826    8.8391   34.2923 O   0  0  0  0  0  0  0  0  0  0  0  0
   76.1555   11.9042   30.5420 H   0  0  0  0  0  0  0  0  0  0  0  0
   74.8045    8.7854   31.2811 H   0  0  0  0  0  0  0  0  0  0  0  0
   73.1486    9.3168   34.5280 H   0  0  0  0  0  0  0  0  0  0  0  0
   72.7518   13.1989   32.1321 C   0  0  0  0  0  0  0  0  0  0  0  0
   72.9239   13.3205   30.6998 O   0  0  0  0  0  0  0  0  0  0  0  0
   73.8510   13.5259   30.5018 H   0  0  0  0  0  0  0  0  0  0  0  0
  1  2  1  0  0  0
  2  3  1  0  0  0
  2  8  1  0  0  0
  3  4  1  0  0  0
  3  5  1  0  0  0
  5  6  1  0  0  0
  5  9  2  0  0  0
  6  7  1  0  0  0
  7  8  1  0  0  0
  8 13  1  0  0  0
 13 14  1  0  0  0
  1 10  1  0  0  0
  4 11  1  0  0  0
  6 12  1  0  0  0
 14 15  1  0  0  0
M  END
> <minimizedAffinity>
-6.21547

$$$$
1UZ4_IFL_A_1432


 15 15  0  0  0  0  0  0  0  0999 V2000
   76.0523   10.9289   30.8912 O   0  0  0  0  0  0  0  0  0  0  0  0
   75.1867   11.1406   31.9806 C   0  0  0  0  0  0  0  0  0  0  0  0
   74.2781   12.3537   31.5963 C   0  0  0  0  0  0  0  0  0  0  0  0
   74.8162   13.5672   32.1749 O   0  0  0  0  0  0  0  0  0  0  0  0
   72.8166   12.2852   32.1233 C   0  0  0  0  0  0  0  0  0  0  0  0
   72.5764   11.3976   33.1065 N   0  0  0  0  0  0  0  0  0  0  0  0
   73.4660   10.2942   33.4793 C   0  0  0  0  0  0  0  0  0  0  0  0
   74.3731    9.8862   32.3203 C   0  0  0  0  0  0  0  0  0  0  0  0
   72.0110   13.1720   31.7894 O   0  0  0  0  0  0  0  0  0  0  0  0
   76.5472   11.7428   30.7086 H   0  0  0  0  0  0  0  0  0  0  0  0
   74.7924   13.5022   33.1424 H   0  0  0  0  0  0  0  0  0  0  0  0
   71.7387   11.4974   33.6142 H   0  0  0  0  0  0  0  0  0  0  0  0
   75.1595    8.5947   32.6968 C   0  0  0  0  0  0  0  0  0  0  0  0
   75.6494    7.9578   31.4926 O   0  0  0  0  0  0  0  0  0  0  0  0
   74.9001    7.7243   30.9226 H   0  0  0  0  0  0  0  0  0  0  0  0
  1  2  1  0  0  0
  2  3  1  0  0  0
  2  8  1  0  0  0
  3  4  1  0  0  0
  3  5  1  0  0  0
  5  6  1  0  0  0
  5  9  2  0  0  0
  6  7  1  0  0  0
  7  8  1  0  0  0
  8 13  1  0  0  0
 13 14  1  0  0  0
  1 10  1  0  0  0
  4 11  1  0  0  0
  6 12  1  0  0  0
 14 15  1  0  0  0
M  END
> <minimizedAffinity>
-6.16290

$$$$
1UZ4_IFL_A_1432


 15 15  0  0  0  0  0  0  0  0999 V2000
   72.0373   10.9141   33.7853 O   0  0  0  0  0  0  0  0  0  0  0  0
   72.9252   10.4391   32.8021 C   0  0  0  0  0  0  0  0  0  0  0  0
   73.6257   11.6967   32.1918 C   0  0  0  0  0  0  0  0  0  0  0  0
   72.9530   12.0827   30.9689 O   0  0  0  0  0  0  0  0  0  0  0  0
   75.1100   11.4956   31.7735 C   0  0  0  0  0  0  0  0  0  0  0  0
   75.5324   10.2224   31.6604 N   0  0  0  0  0  0  0  0  0  0  0  0
   74.8341    9.0534   32.2025 C   0  0  0  0  0  0  0  0  0  0  0  0
   73.9294    9.4311   33.3736 C   0  0  0  0  0  0  0  0  0  0  0  0
   75.7587   12.4718   31.3573 O   0  0  0  0  0  0  0  0  0  0  0  0
   71.4205   11.5470   33.3853 H   0  0  0  0  0  0  0  0  0  0  0  0
   73.0421   11.3736   30.3131 H   0  0  0  0  0  0  0  0  0  0  0  0
   76.3750   10.0644   31.1764 H   0  0  0  0  0  0  0  0  0  0  0  0
   73.3604    8.1408   34.0366 C   0  0  0  0  0  0  0  0  0  0  0  0
   72.5293    8.5026   35.1654 O   0  0  0  0  0  0  0  0  0  0  0  0
   73.0598    8.9913   35.8140 H   0  0  0  0  0  0  0  0  0  0  0  0
  1  2  1  0  0  0
  2  3  1  0  0  0
  2  8  1  0  0  0
  3  4  1  0  0  0
  3  5  1  0  0  0
  5  6  1  0  0  0
  5  9  2  0  0  0
  6  7  1  0  0  0
  7  8  1  0  0  0
  8 13  1  0  0  0
 13 14  1  0  0  0
  1 10  1  0  0  0
  4 11  1  0  0  0
  6 12  1  0  0  0
 14 15  1  0  0  0
M  END
> <minimizedAffinity>
-6.15732

$$$$
1UZ4_IFL_A_1432


 15 15  0  0  0  0  0  0  0  0999 V2000
   74.0097   10.1972   31.8410 O   0  0  0  0  0  0  0  0  0  0  0  0
   74.1878   11.1115   32.8960 C   0  0  0  0  0  0  0  0  0  0  0  0
   75.6661   10.9498   33.3788 C   0  0  0  0  0  0  0  0  0  0  0  0
   75.7087   10.0733   34.5307 O   0  0  0  0  0  0  0  0  0  0  0  0
   76.3576   12.2577   33.8582 C   0  0  0  0  0  0  0  0  0  0  0  0
   75.5476   13.2987   34.1269 N   0  0  0  0  0  0  0  0  0  0  0  0
   74.1492   13.4077   33.7019 C   0  0  0  0  0  0  0  0  0  0  0  0
   73.8663   12.5492   32.4709 C   0  0  0  0  0  0  0  0  0  0  0  0
   77.5590   12.2243   34.1786 O   0  0  0  0  0  0  0  0  0  0  0  0
   74.2224    9.3024   32.1492 H   0  0  0  0  0  0  0  0  0  0  0  0
   75.2232   10.4807   35.2650 H   0  0  0  0  0  0  0  0  0  0  0  0
   75.9233   14.0440   34.6489 H   0  0  0  0  0  0  0  0  0  0  0  0
   72.4298   12.8427   31.9433 C   0  0  0  0  0  0  0  0  0  0  0  0
   72.5084   13.6820   30.7663 O   0  0  0  0  0  0  0  0  0  0  0  0
   72.9454   14.5176   30.9936 H   0  0  0  0  0  0  0  0  0  0  0  0
  1  2  1  0  0  0
  2  3  1  0  0  0
  2  8  1  0  0  0
  3  4  1  0  0  0
  3  5  1  0  0  0
  5  6  1  0  0  0
  5  9  2  0  0  0
  6  7  1  0  0  0
  7  8  1  0  0  0
  8 13  1  0  0  0
 13 14  1  0  0  0
  1 10  1  0  0  0
  4 11  1  0  0  0
  6 12  1  0  0  0
 14 15  1  0  0  0
M  END
> <minimizedAffinity>
-6.11868

$$$$
1UZ4_IFL_A_1432


 15 15  0  0  0  0  0  0  0  0999 V2000
   72.1812   12.2510   33.0171 O   0  0  0  0  0  0  0  0  0  0  0  0
   73.5452   11.9079   32.9651 C   0  0  0  0  0  0  0  0  0  0  0  0
   74.3442   13.2184   33.2636 C   0  0  0  0  0  0  0  0  0  0  0  0
   74.7594   13.8293   32.0181 O   0  0  0  0  0  0  0  0  0  0  0  0
   75.6643   13.0268   34.0631 C   0  0  0  0  0  0  0  0  0  0  0  0
   76.1511   11.7731   34.1222 N   0  0  0  0  0  0  0  0  0  0  0  0
   75.3955   10.5611   33.7933 C   0  0  0  0  0  0  0  0  0  0  0  0
   73.8911   10.7779   33.9420 C   0  0  0  0  0  0  0  0  0  0  0  0
   76.3121   14.0301   34.4104 O   0  0  0  0  0  0  0  0  0  0  0  0
   72.0036   12.9667   32.3869 H   0  0  0  0  0  0  0  0  0  0  0  0
   75.3701   13.2352   31.5543 H   0  0  0  0  0  0  0  0  0  0  0  0
   77.0865   11.6619   34.4084 H   0  0  0  0  0  0  0  0  0  0  0  0
   73.1444    9.4209   33.7711 C   0  0  0  0  0  0  0  0  0  0  0  0
   71.8678    9.4817   34.4512 O   0  0  0  0  0  0  0  0  0  0  0  0
   72.0121    9.6537   35.3949 H   0  0  0  0  0  0  0  0  0  0  0  0
  1  2  1  0  0  0
  2  3  1  0  0  0
  2  8  1  0  0  0
  3  4  1  0  0  0
  3  5  1  0  0  0
  5  6  1  0  0  0
  5  9  2  0  0  0
  6  7  1  0  0  0
  7  8  1  0  0  0
  8 13  1  0  0  0
 13 14  1  0  0  0
  1 10  1  0  0  0
  4 11  1  0  0  0
  6 12  1  0  0  0
 14 15  1  0  0  0
M  END
> <minimizedAffinity>
-6.10067

$$$$
1UZ4_IFL_A_1432


 15 15  0  0  0  0  0  0  0  0999 V2000
   74.1161    8.6217   33.0655 O   0  0  0  0  0  0  0  0  0  0  0  0
   74.2135    9.9179   32.5261 C   0  0  0  0  0  0  0  0  0  0  0  0
   73.6111   10.8892   33.5931 C   0  0  0  0  0  0  0  0  0  0  0  0
   72.2317   11.1803   33.2622 O   0  0  0  0  0  0  0  0  0  0  0  0
   74.2928   12.2840   33.6852 C   0  0  0  0  0  0  0  0  0  0  0  0
   75.0775   12.6357   32.6496 N   0  0  0  0  0  0  0  0  0  0  0  0
   75.5937   11.7133   31.6342 C   0  0  0  0  0  0  0  0  0  0  0  0
   75.6570   10.2795   32.1563 C   0  0  0  0  0  0  0  0  0  0  0  0
   73.9237   13.0806   34.5662 O   0  0  0  0  0  0  0  0  0  0  0  0
   73.1907    8.4318   33.2856 H   0  0  0  0  0  0  0  0  0  0  0  0
   72.1947   11.6482   32.4133 H   0  0  0  0  0  0  0  0  0  0  0  0
   75.3236   13.5854   32.5679 H   0  0  0  0  0  0  0  0  0  0  0  0
   76.3860    9.3734   31.1192 C   0  0  0  0  0  0  0  0  0  0  0  0
   75.4897    8.3260   30.6769 O   0  0  0  0  0  0  0  0  0  0  0  0
   75.2179    7.7901   31.4383 H   0  0  0  0  0  0  0  0  0  0  0  0
  1  2  1  0  0  0
  2  3  1  0  0  0
  2  8  1  0  0  0
  3  4  1  0  0  0
  3  5  1  0  0  0
  5  6  1  0  0  0
  5  9  2  0  0  0
  6  7  1  0  0  0
  7  8  1  0  0  0
  8 13  1  0  0  0
 13 14  1  0  0  0
  1 10  1  0  0  0
  4 11  1  0  0  0
  6 12  1  0  0  0
 14 15  1  0  0  0
M  END
> <minimizedAffinity>
-5.90648

$$$$
