1U1B_PAX_A_901


 59 63  0  0  0  0  0  0  0  0999 V2000
  -32.7226  -35.1374   14.7077 P   0  0  0  0  0  0  0  0  0  0  0  0
  -32.9081  -36.1480   15.8432 O   0  0  0  0  0  0  0  0  0  0  0  0
  -32.7175  -35.7079   13.2853 O   0  0  0  0  0  0  0  0  0  0  0  0
  -33.8283  -33.9908   14.7747 O   0  0  0  0  0  0  0  0  0  0  0  0
  -33.4667  -32.6421   14.9717 C   0  0  0  0  0  0  0  0  0  0  0  0
  -33.7135  -32.2627   16.3979 C   0  0  0  0  0  0  0  0  0  0  0  0
  -34.2538  -33.4043   17.1421 O   0  0  0  0  0  0  0  0  0  0  0  0
  -33.7719  -33.3308   18.4657 C   0  0  0  0  0  0  0  0  0  0  0  0
  -32.3129  -32.8816   18.2529 C   0  0  0  0  0  0  0  0  0  0  0  0
  -31.6797  -32.4209   19.4391 O   0  0  0  0  0  0  0  0  0  0  0  0
  -32.4527  -31.8254   17.1462 C   0  0  0  0  0  0  0  0  0  0  0  0
  -32.1836  -31.6782   19.8071 H   0  0  0  0  0  0  0  0  0  0  0  0
  -34.0522  -34.5992   19.2067 N   0  0  0  0  0  0  0  0  0  0  0  0
  -33.9177  -34.9201   20.5524 C   0  0  0  0  0  0  0  0  0  0  0  0
  -33.4769  -34.1150   21.5698 N   0  0  0  0  0  0  0  0  0  0  0  0
  -33.4759  -34.7651   22.7751 C   0  0  0  0  0  0  0  0  0  0  0  0
  -33.8524  -36.0577   23.0331 N   0  0  0  0  0  0  0  0  0  0  0  0
  -34.2930  -36.8412   21.9881 C   0  0  0  0  0  0  0  0  0  0  0  0
  -34.6582  -38.0915   22.2554 N   0  0  0  0  0  0  0  0  0  0  0  0
  -34.3378  -36.2641   20.6663 C   0  0  0  0  0  0  0  0  0  0  0  0
  -34.7189  -36.7647   19.4307 N   0  0  0  0  0  0  0  0  0  0  0  0
  -34.5346  -35.7522   18.6076 C   0  0  0  0  0  0  0  0  0  0  0  0
  -34.6067  -38.4329   23.1774 H   0  0  0  0  0  0  0  0  0  0  0  0
  -34.9799  -38.6758   21.5313 H   0  0  0  0  0  0  0  0  0  0  0  0
  -32.7130  -30.5276   17.6881 O   0  0  0  0  0  0  0  0  0  0  0  0
  -32.0508  -29.1685   17.0637 P   0  0  0  0  0  0  0  0  0  0  0  0
  -31.7572  -28.2454   18.2441 O   0  0  0  0  0  0  0  0  0  0  0  0
  -30.8002  -29.6309   16.3286 O   0  0  0  0  0  0  0  0  0  0  0  0
  -33.0636  -28.5290   16.0961 O   0  0  0  0  0  0  0  0  0  0  0  0
  -31.3611  -27.4216   17.9196 H   0  0  0  0  0  0  0  0  0  0  0  0
  -30.3567  -28.8650   15.9316 H   0  0  0  0  0  0  0  0  0  0  0  0
  -31.3985  -34.2962   14.9370 O   0  0  0  0  0  0  0  0  0  0  0  0
  -29.8687  -34.6716   15.0387 P   0  0  0  0  0  0  0  0  0  0  0  0
  -29.7357  -35.9267   15.8026 O   0  0  0  0  0  0  0  0  0  0  0  0
  -29.2933  -34.6018   13.6766 O   0  0  0  0  0  0  0  0  0  0  0  0
  -29.2340  -33.3921   15.8178 O   0  0  0  0  0  0  0  0  0  0  0  0
  -28.0880  -32.1989   17.5790 C   0  0  0  0  0  0  0  0  0  0  0  0
  -26.7550  -31.7666   17.1899 O   0  0  0  0  0  0  0  0  0  0  0  0
  -26.2669  -32.6101   16.1665 C   0  0  0  0  0  0  0  0  0  0  0  0
  -26.9527  -33.9542   16.3761 C   0  0  0  0  0  0  0  0  0  0  0  0
  -28.3208  -33.5562   16.9051 C   0  0  0  0  0  0  0  0  0  0  0  0
  -24.7713  -32.7071   16.2595 N   0  0  0  0  0  0  0  0  0  0  0  0
  -24.1316  -33.5121   17.2366 C   0  0  0  0  0  0  0  0  0  0  0  0
  -24.0150  -31.9573   15.3261 C   0  0  0  0  0  0  0  0  0  0  0  0
  -24.5156  -31.2564   14.4768 O   0  0  0  0  0  0  0  0  0  0  0  0
  -22.6340  -32.0886   15.4563 N   0  0  0  0  0  0  0  0  0  0  0  0
  -21.9410  -32.8728   16.3997 C   0  0  0  0  0  0  0  0  0  0  0  0
  -20.7083  -32.8850   16.3651 O   0  0  0  0  0  0  0  0  0  0  0  0
  -22.7862  -33.6182   17.3390 C   0  0  0  0  0  0  0  0  0  0  0  0
  -22.1833  -34.4922   18.3929 C   0  0  0  0  0  0  0  0  0  0  0  0
  -22.0827  -31.5781   14.8202 H   0  0  0  0  0  0  0  0  0  0  0  0
  -28.2053  -32.2440   19.0945 C   0  0  0  0  0  0  0  0  0  0  0  0
  -28.9551  -31.1059   19.5868 O   0  0  0  0  0  0  0  0  0  0  0  0
  -28.3008  -29.5986   19.6843 P   0  0  0  0  0  0  0  0  0  0  0  0
  -28.9558  -28.8001   18.5408 O   0  0  0  0  0  0  0  0  0  0  0  0
  -26.7762  -29.7702   19.4969 O   0  0  0  0  0  0  0  0  0  0  0  0
  -28.6785  -29.0569   21.0746 O   0  0  0  0  0  0  0  0  0  0  0  0
  -28.6887  -29.1780   17.6883 H   0  0  0  0  0  0  0  0  0  0  0  0
  -26.5963  -30.1127   18.6073 H   0  0  0  0  0  0  0  0  0  0  0  0
  1  2  1  0  0  0
  1  3  2  0  0  0
  1  4  1  0  0  0
  1 32  1  0  0  0
  4  5  1  0  0  0
 33 34  1  0  0  0
 33 35  2  0  0  0
 33 32  1  0  0  0
 33 36  1  0  0  0
 26 27  1  0  0  0
 26 28  1  0  0  0
 26 29  2  0  0  0
 26 25  1  0  0  0
 13 14  1  0  0  0
 13 22  1  0  0  0
 13  8  1  0  0  0
 14 15  2  0  0  0
 14 20  1  0  0  0
 15 16  1  0  0  0
 16 17  2  0  0  0
 17 18  1  0  0  0
 18 19  1  0  0  0
 18 20  2  0  0  0
 20 21  1  0  0  0
 21 22  2  0  0  0
  5  6  1  0  0  0
  6  7  1  0  0  0
  6 11  1  0  0  0
  7  8  1  0  0  0
  8  9  1  0  0  0
  9 10  1  0  0  0
  9 11  1  0  0  0
 11 25  1  0  0  0
 53 52  1  0  0  0
 53 54  1  0  0  0
 52 37  1  0  0  0
 37 38  1  0  0  0
 37 41  1  0  0  0
 38 39  1  0  0  0
 39 40  1  0  0  0
 39 42  1  0  0  0
 40 41  1  0  0  0
 41 36  1  0  0  0
 54 55  1  0  0  0
 54 56  1  0  0  0
 54 57  2  0  0  0
 42 43  1  0  0  0
 42 44  1  0  0  0
 43 49  2  0  0  0
 44 45  2  0  0  0
 44 46  1  0  0  0
 46 47  1  0  0  0
 47 48  2  0  0  0
 47 49  1  0  0  0
 49 50  1  0  0  0
 27 30  1  0  0  0
 28 31  1  0  0  0
 19 23  1  0  0  0
 19 24  1  0  0  0
 10 12  1  0  0  0
 55 58  1  0  0  0
 56 59  1  0  0  0
 46 51  1  0  0  0
M  CHG 1   2  -1
M  CHG 1  34  -1
M  END
> <minimizedAffinity>
-8.57066

$$$$
1U1B_PAX_A_901


 59 63  0  0  0  0  0  0  0  0999 V2000
  -28.4864  -29.5116   19.8234 P   0  0  0  0  0  0  0  0  0  0  0  0
  -27.0974  -29.7724   19.2338 O   0  0  0  0  0  0  0  0  0  0  0  0
  -28.5274  -29.0389   21.2807 O   0  0  0  0  0  0  0  0  0  0  0  0
  -29.2952  -28.4587   18.9409 O   0  0  0  0  0  0  0  0  0  0  0  0
  -30.5287  -27.9357   19.3810 C   0  0  0  0  0  0  0  0  0  0  0  0
  -31.2322  -27.2836   18.2327 C   0  0  0  0  0  0  0  0  0  0  0  0
  -30.4804  -26.1114   17.7746 O   0  0  0  0  0  0  0  0  0  0  0  0
  -30.6529  -25.9997   16.3791 C   0  0  0  0  0  0  0  0  0  0  0  0
  -30.5762  -27.4710   15.9261 C   0  0  0  0  0  0  0  0  0  0  0  0
  -31.0355  -27.6830   14.5978 O   0  0  0  0  0  0  0  0  0  0  0  0
  -31.3904  -28.1914   17.0114 C   0  0  0  0  0  0  0  0  0  0  0  0
  -31.9542  -27.3811   14.5214 H   0  0  0  0  0  0  0  0  0  0  0  0
  -29.7016  -25.0001   15.8025 N   0  0  0  0  0  0  0  0  0  0  0  0
  -28.7544  -25.1175   14.7920 C   0  0  0  0  0  0  0  0  0  0  0  0
  -28.4513  -26.2268   14.0470 N   0  0  0  0  0  0  0  0  0  0  0  0
  -27.4612  -25.9774   13.1343 C   0  0  0  0  0  0  0  0  0  0  0  0
  -26.7967  -24.7983   12.9163 N   0  0  0  0  0  0  0  0  0  0  0  0
  -27.1264  -23.7001   13.6813 C   0  0  0  0  0  0  0  0  0  0  0  0
  -26.4754  -22.5629   13.4551 N   0  0  0  0  0  0  0  0  0  0  0  0
  -28.1584  -23.8415   14.6799 C   0  0  0  0  0  0  0  0  0  0  0  0
  -28.7147  -22.9589   15.5932 N   0  0  0  0  0  0  0  0  0  0  0  0
  -29.6143  -23.6837   16.2273 C   0  0  0  0  0  0  0  0  0  0  0  0
  -25.7794  -22.5241   12.7599 H   0  0  0  0  0  0  0  0  0  0  0  0
  -26.6895  -21.7599   13.9829 H   0  0  0  0  0  0  0  0  0  0  0  0
  -32.7834  -28.2243   16.6883 O   0  0  0  0  0  0  0  0  0  0  0  0
  -33.7170  -29.5379   16.9685 P   0  0  0  0  0  0  0  0  0  0  0  0
  -34.1454  -30.0668   15.6017 O   0  0  0  0  0  0  0  0  0  0  0  0
  -32.8309  -30.5039   17.7430 O   0  0  0  0  0  0  0  0  0  0  0  0
  -34.9356  -29.1046   17.8041 O   0  0  0  0  0  0  0  0  0  0  0  0
  -34.7044  -30.8508   15.7190 H   0  0  0  0  0  0  0  0  0  0  0  0
  -33.3299  -31.3115   17.9423 H   0  0  0  0  0  0  0  0  0  0  0  0
  -29.3959  -30.8007   19.6675 O   0  0  0  0  0  0  0  0  0  0  0  0
  -29.6663  -31.8116   18.4857 P   0  0  0  0  0  0  0  0  0  0  0  0
  -30.8409  -32.6375   18.8243 O   0  0  0  0  0  0  0  0  0  0  0  0
  -29.6779  -31.0396   17.2227 O   0  0  0  0  0  0  0  0  0  0  0  0
  -28.2882  -32.6743   18.4261 O   0  0  0  0  0  0  0  0  0  0  0  0
  -27.5489  -34.3346   16.8337 C   0  0  0  0  0  0  0  0  0  0  0  0
  -26.2026  -34.8132   17.1050 O   0  0  0  0  0  0  0  0  0  0  0  0
  -25.4877  -33.8264   17.8206 C   0  0  0  0  0  0  0  0  0  0  0  0
  -26.1031  -32.4935   17.4140 C   0  0  0  0  0  0  0  0  0  0  0  0
  -27.5663  -32.8471   17.2046 C   0  0  0  0  0  0  0  0  0  0  0  0
  -24.0273  -33.9126   17.4820 N   0  0  0  0  0  0  0  0  0  0  0  0
  -23.5686  -33.9279   16.1399 C   0  0  0  0  0  0  0  0  0  0  0  0
  -23.1152  -33.9790   18.5633 C   0  0  0  0  0  0  0  0  0  0  0  0
  -23.4592  -33.9706   19.7230 O   0  0  0  0  0  0  0  0  0  0  0  0
  -21.7747  -34.0532   18.1905 N   0  0  0  0  0  0  0  0  0  0  0  0
  -21.2576  -34.0678   16.8800 C   0  0  0  0  0  0  0  0  0  0  0  0
  -20.0350  -34.1234   16.7288 O   0  0  0  0  0  0  0  0  0  0  0  0
  -22.2583  -34.0022   15.8091 C   0  0  0  0  0  0  0  0  0  0  0  0
  -21.8498  -34.0080   14.3700 C   0  0  0  0  0  0  0  0  0  0  0  0
  -21.1177  -34.1005   18.9221 H   0  0  0  0  0  0  0  0  0  0  0  0
  -27.9215  -34.6046   15.3843 C   0  0  0  0  0  0  0  0  0  0  0  0
  -29.1701  -35.3354   15.3014 O   0  0  0  0  0  0  0  0  0  0  0  0
  -30.6329  -34.5946   15.4463 P   0  0  0  0  0  0  0  0  0  0  0  0
  -30.3717  -33.1157   15.1018 O   0  0  0  0  0  0  0  0  0  0  0  0
  -31.0827  -34.7970   16.9111 O   0  0  0  0  0  0  0  0  0  0  0  0
  -31.5634  -35.2819   14.4312 O   0  0  0  0  0  0  0  0  0  0  0  0
  -29.7825  -32.7278   15.7677 H   0  0  0  0  0  0  0  0  0  0  0  0
  -30.4632  -34.3448   17.5050 H   0  0  0  0  0  0  0  0  0  0  0  0
  1  2  1  0  0  0
  1  3  2  0  0  0
  1  4  1  0  0  0
  1 32  1  0  0  0
  4  5  1  0  0  0
 33 34  1  0  0  0
 33 35  2  0  0  0
 33 32  1  0  0  0
 33 36  1  0  0  0
 26 27  1  0  0  0
 26 28  1  0  0  0
 26 29  2  0  0  0
 26 25  1  0  0  0
 13 14  1  0  0  0
 13 22  1  0  0  0
 13  8  1  0  0  0
 14 15  2  0  0  0
 14 20  1  0  0  0
 15 16  1  0  0  0
 16 17  2  0  0  0
 17 18  1  0  0  0
 18 19  1  0  0  0
 18 20  2  0  0  0
 20 21  1  0  0  0
 21 22  2  0  0  0
  5  6  1  0  0  0
  6  7  1  0  0  0
  6 11  1  0  0  0
  7  8  1  0  0  0
  8  9  1  0  0  0
  9 10  1  0  0  0
  9 11  1  0  0  0
 11 25  1  0  0  0
 53 52  1  0  0  0
 53 54  1  0  0  0
 52 37  1  0  0  0
 37 38  1  0  0  0
 37 41  1  0  0  0
 38 39  1  0  0  0
 39 40  1  0  0  0
 39 42  1  0  0  0
 40 41  1  0  0  0
 41 36  1  0  0  0
 54 55  1  0  0  0
 54 56  1  0  0  0
 54 57  2  0  0  0
 42 43  1  0  0  0
 42 44  1  0  0  0
 43 49  2  0  0  0
 44 45  2  0  0  0
 44 46  1  0  0  0
 46 47  1  0  0  0
 47 48  2  0  0  0
 47 49  1  0  0  0
 49 50  1  0  0  0
 27 30  1  0  0  0
 28 31  1  0  0  0
 19 23  1  0  0  0
 19 24  1  0  0  0
 10 12  1  0  0  0
 55 58  1  0  0  0
 56 59  1  0  0  0
 46 51  1  0  0  0
M  CHG 1   2  -1
M  CHG 1  34  -1
M  END
> <minimizedAffinity>
-8.21704

$$$$
1U1B_PAX_A_901


 59 63  0  0  0  0  0  0  0  0999 V2000
  -28.0235  -33.6557   14.0770 P   0  0  0  0  0  0  0  0  0  0  0  0
  -28.1242  -34.9578   14.8767 O   0  0  0  0  0  0  0  0  0  0  0  0
  -28.0238  -32.3573   14.8913 O   0  0  0  0  0  0  0  0  0  0  0  0
  -26.7291  -33.6533   13.1463 O   0  0  0  0  0  0  0  0  0  0  0  0
  -25.5867  -32.9017   13.4909 C   0  0  0  0  0  0  0  0  0  0  0  0
  -24.7547  -33.6764   14.4637 C   0  0  0  0  0  0  0  0  0  0  0  0
  -23.3692  -33.7631   13.9925 O   0  0  0  0  0  0  0  0  0  0  0  0
  -22.5227  -33.7563   15.1207 C   0  0  0  0  0  0  0  0  0  0  0  0
  -23.2023  -32.7112   16.0272 C   0  0  0  0  0  0  0  0  0  0  0  0
  -22.7364  -32.7324   17.3699 O   0  0  0  0  0  0  0  0  0  0  0  0
  -24.6914  -33.0482   15.8573 C   0  0  0  0  0  0  0  0  0  0  0  0
  -22.8806  -33.6137   17.7484 H   0  0  0  0  0  0  0  0  0  0  0  0
  -21.0958  -33.5646   14.7158 N   0  0  0  0  0  0  0  0  0  0  0  0
  -19.9257  -33.5609   15.4661 C   0  0  0  0  0  0  0  0  0  0  0  0
  -19.7919  -33.7410   16.8178 N   0  0  0  0  0  0  0  0  0  0  0  0
  -18.4836  -33.6763   17.2172 C   0  0  0  0  0  0  0  0  0  0  0  0
  -17.3763  -33.4640   16.4374 N   0  0  0  0  0  0  0  0  0  0  0  0
  -17.5446  -33.2882   15.0806 C   0  0  0  0  0  0  0  0  0  0  0  0
  -16.4604  -33.0871   14.3375 N   0  0  0  0  0  0  0  0  0  0  0  0
  -18.8820  -33.3353   14.5410 C   0  0  0  0  0  0  0  0  0  0  0  0
  -19.3864  -33.2000   13.2566 N   0  0  0  0  0  0  0  0  0  0  0  0
  -20.6875  -33.3426   13.4100 C   0  0  0  0  0  0  0  0  0  0  0  0
  -15.5714  -33.0646   14.7598 H   0  0  0  0  0  0  0  0  0  0  0  0
  -16.5468  -32.9607   13.3649 H   0  0  0  0  0  0  0  0  0  0  0  0
  -25.1138  -34.0474   16.7896 O   0  0  0  0  0  0  0  0  0  0  0  0
  -26.1084  -33.7110   18.0438 P   0  0  0  0  0  0  0  0  0  0  0  0
  -27.5294  -33.9901   17.5594 O   0  0  0  0  0  0  0  0  0  0  0  0
  -25.6597  -34.6304   19.1714 O   0  0  0  0  0  0  0  0  0  0  0  0
  -25.9321  -32.2299   18.4263 O   0  0  0  0  0  0  0  0  0  0  0  0
  -28.1574  -33.8032   18.2747 H   0  0  0  0  0  0  0  0  0  0  0  0
  -26.2149  -34.4791   19.9523 H   0  0  0  0  0  0  0  0  0  0  0  0
  -29.1777  -33.5912   12.9922 O   0  0  0  0  0  0  0  0  0  0  0  0
  -30.7063  -33.2008   13.0440 P   0  0  0  0  0  0  0  0  0  0  0  0
  -30.8204  -31.7330   13.1380 O   0  0  0  0  0  0  0  0  0  0  0  0
  -31.3904  -33.8992   11.9325 O   0  0  0  0  0  0  0  0  0  0  0  0
  -31.2271  -33.9583   14.3864 O   0  0  0  0  0  0  0  0  0  0  0  0
  -31.1680  -32.8921   16.5540 C   0  0  0  0  0  0  0  0  0  0  0  0
  -31.5146  -33.7996   17.6363 O   0  0  0  0  0  0  0  0  0  0  0  0
  -32.3241  -34.8435   17.1341 C   0  0  0  0  0  0  0  0  0  0  0  0
  -33.0567  -34.2578   15.9338 C   0  0  0  0  0  0  0  0  0  0  0  0
  -32.0376  -33.2899   15.3555 C   0  0  0  0  0  0  0  0  0  0  0  0
  -33.2631  -35.3175   18.2057 N   0  0  0  0  0  0  0  0  0  0  0  0
  -33.7531  -34.4464   19.2122 C   0  0  0  0  0  0  0  0  0  0  0  0
  -33.6454  -36.6808   18.1744 C   0  0  0  0  0  0  0  0  0  0  0  0
  -33.2526  -37.4610   17.3376 O   0  0  0  0  0  0  0  0  0  0  0  0
  -34.5203  -37.0635   19.1889 N   0  0  0  0  0  0  0  0  0  0  0  0
  -35.0442  -36.2474   20.2110 C   0  0  0  0  0  0  0  0  0  0  0  0
  -35.8226  -36.7486   21.0255 O   0  0  0  0  0  0  0  0  0  0  0  0
  -34.6019  -34.8487   20.1866 C   0  0  0  0  0  0  0  0  0  0  0  0
  -35.0809  -33.8701   21.2117 C   0  0  0  0  0  0  0  0  0  0  0  0
  -34.8032  -38.0065   19.1919 H   0  0  0  0  0  0  0  0  0  0  0  0
  -31.3619  -31.4495   16.9942 C   0  0  0  0  0  0  0  0  0  0  0  0
  -30.9747  -31.2778   18.3800 O   0  0  0  0  0  0  0  0  0  0  0  0
  -29.3986  -31.1975   18.8482 P   0  0  0  0  0  0  0  0  0  0  0  0
  -28.6085  -30.9109   17.5567 O   0  0  0  0  0  0  0  0  0  0  0  0
  -29.0552  -32.5717   19.4668 O   0  0  0  0  0  0  0  0  0  0  0  0
  -29.3114  -30.0429   19.8622 O   0  0  0  0  0  0  0  0  0  0  0  0
  -28.6936  -31.6643   16.9517 H   0  0  0  0  0  0  0  0  0  0  0  0
  -29.1259  -33.2593   18.7863 H   0  0  0  0  0  0  0  0  0  0  0  0
  1  2  1  0  0  0
  1  3  2  0  0  0
  1  4  1  0  0  0
  1 32  1  0  0  0
  4  5  1  0  0  0
 33 34  1  0  0  0
 33 35  2  0  0  0
 33 32  1  0  0  0
 33 36  1  0  0  0
 26 27  1  0  0  0
 26 28  1  0  0  0
 26 29  2  0  0  0
 26 25  1  0  0  0
 13 14  1  0  0  0
 13 22  1  0  0  0
 13  8  1  0  0  0
 14 15  2  0  0  0
 14 20  1  0  0  0
 15 16  1  0  0  0
 16 17  2  0  0  0
 17 18  1  0  0  0
 18 19  1  0  0  0
 18 20  2  0  0  0
 20 21  1  0  0  0
 21 22  2  0  0  0
  5  6  1  0  0  0
  6  7  1  0  0  0
  6 11  1  0  0  0
  7  8  1  0  0  0
  8  9  1  0  0  0
  9 10  1  0  0  0
  9 11  1  0  0  0
 11 25  1  0  0  0
 53 52  1  0  0  0
 53 54  1  0  0  0
 52 37  1  0  0  0
 37 38  1  0  0  0
 37 41  1  0  0  0
 38 39  1  0  0  0
 39 40  1  0  0  0
 39 42  1  0  0  0
 40 41  1  0  0  0
 41 36  1  0  0  0
 54 55  1  0  0  0
 54 56  1  0  0  0
 54 57  2  0  0  0
 42 43  1  0  0  0
 42 44  1  0  0  0
 43 49  2  0  0  0
 44 45  2  0  0  0
 44 46  1  0  0  0
 46 47  1  0  0  0
 47 48  2  0  0  0
 47 49  1  0  0  0
 49 50  1  0  0  0
 27 30  1  0  0  0
 28 31  1  0  0  0
 19 23  1  0  0  0
 19 24  1  0  0  0
 10 12  1  0  0  0
 55 58  1  0  0  0
 56 59  1  0  0  0
 46 51  1  0  0  0
M  CHG 1   2  -1
M  CHG 1  34  -1
M  END
> <minimizedAffinity>
-8.17944

$$$$
1U1B_PAX_A_901


 59 63  0  0  0  0  0  0  0  0999 V2000
  -29.6358  -35.0051   14.0705 P   0  0  0  0  0  0  0  0  0  0  0  0
  -29.7866  -33.7724   13.1745 O   0  0  0  0  0  0  0  0  0  0  0  0
  -29.2874  -36.3196   13.3636 O   0  0  0  0  0  0  0  0  0  0  0  0
  -28.5494  -34.7557   15.2104 O   0  0  0  0  0  0  0  0  0  0  0  0
  -28.0230  -33.4686   15.4446 C   0  0  0  0  0  0  0  0  0  0  0  0
  -27.5826  -33.3617   16.8706 C   0  0  0  0  0  0  0  0  0  0  0  0
  -26.2235  -33.8891   17.0245 O   0  0  0  0  0  0  0  0  0  0  0  0
  -25.5749  -33.1395   18.0279 C   0  0  0  0  0  0  0  0  0  0  0  0
  -26.0587  -31.7079   17.7242 C   0  0  0  0  0  0  0  0  0  0  0  0
  -25.8097  -30.7866   18.7775 O   0  0  0  0  0  0  0  0  0  0  0  0
  -27.5439  -31.9258   17.3974 C   0  0  0  0  0  0  0  0  0  0  0  0
  -26.2438  -31.0967   19.5877 H   0  0  0  0  0  0  0  0  0  0  0  0
  -24.1086  -33.4332   18.0493 N   0  0  0  0  0  0  0  0  0  0  0  0
  -23.1617  -33.4327   17.0318 C   0  0  0  0  0  0  0  0  0  0  0  0
  -23.3522  -33.1494   15.7048 N   0  0  0  0  0  0  0  0  0  0  0  0
  -22.1895  -33.2452   14.9874 C   0  0  0  0  0  0  0  0  0  0  0  0
  -20.9416  -33.5744   15.4495 N   0  0  0  0  0  0  0  0  0  0  0  0
  -20.7830  -33.8521   16.7903 C   0  0  0  0  0  0  0  0  0  0  0  0
  -19.5656  -34.1661   17.2235 N   0  0  0  0  0  0  0  0  0  0  0  0
  -21.9405  -33.7840   17.6491 C   0  0  0  0  0  0  0  0  0  0  0  0
  -22.1219  -33.9991   19.0069 N   0  0  0  0  0  0  0  0  0  0  0  0
  -23.4081  -33.7810   19.1936 C   0  0  0  0  0  0  0  0  0  0  0  0
  -18.8112  -34.1975   16.5918 H   0  0  0  0  0  0  0  0  0  0  0  0
  -19.4188  -34.3673   18.1760 H   0  0  0  0  0  0  0  0  0  0  0  0
  -28.3525  -31.8875   18.5766 O   0  0  0  0  0  0  0  0  0  0  0  0
  -29.8748  -31.2889   18.5760 P   0  0  0  0  0  0  0  0  0  0  0  0
  -30.2953  -31.1705   17.1128 O   0  0  0  0  0  0  0  0  0  0  0  0
  -30.7026  -32.2930   19.3664 O   0  0  0  0  0  0  0  0  0  0  0  0
  -29.8606  -29.9114   19.2638 O   0  0  0  0  0  0  0  0  0  0  0  0
  -31.1973  -30.8173   17.0632 H   0  0  0  0  0  0  0  0  0  0  0  0
  -31.6246  -31.9938   19.4037 H   0  0  0  0  0  0  0  0  0  0  0  0
  -30.9457  -35.2115   14.9393 O   0  0  0  0  0  0  0  0  0  0  0  0
  -31.6833  -34.3398   16.0292 P   0  0  0  0  0  0  0  0  0  0  0  0
  -30.8533  -34.2984   17.2481 O   0  0  0  0  0  0  0  0  0  0  0  0
  -32.0822  -33.0633   15.3947 O   0  0  0  0  0  0  0  0  0  0  0  0
  -33.0812  -35.1429   16.2484 O   0  0  0  0  0  0  0  0  0  0  0  0
  -33.5233  -33.6862   18.1250 C   0  0  0  0  0  0  0  0  0  0  0  0
  -33.5934  -34.4031   19.3885 O   0  0  0  0  0  0  0  0  0  0  0  0
  -33.9573  -35.7471   19.1474 C   0  0  0  0  0  0  0  0  0  0  0  0
  -34.7776  -35.7297   17.8638 C   0  0  0  0  0  0  0  0  0  0  0  0
  -34.1285  -34.6124   17.0636 C   0  0  0  0  0  0  0  0  0  0  0  0
  -34.7323  -36.2806   20.3177 N   0  0  0  0  0  0  0  0  0  0  0  0
  -36.1100  -35.9949   20.4975 C   0  0  0  0  0  0  0  0  0  0  0  0
  -34.0297  -37.0876   21.2453 C   0  0  0  0  0  0  0  0  0  0  0  0
  -32.8555  -37.3568   21.1347 O   0  0  0  0  0  0  0  0  0  0  0  0
  -34.7989  -37.5579   22.3076 N   0  0  0  0  0  0  0  0  0  0  0  0
  -36.1672  -37.3137   22.5385 C   0  0  0  0  0  0  0  0  0  0  0  0
  -36.6985  -37.8227   23.5281 O   0  0  0  0  0  0  0  0  0  0  0  0
  -36.8307  -36.4657   21.5419 C   0  0  0  0  0  0  0  0  0  0  0  0
  -38.2827  -36.1261   21.6618 C   0  0  0  0  0  0  0  0  0  0  0  0
  -34.3361  -38.1220   22.9686 H   0  0  0  0  0  0  0  0  0  0  0  0
  -34.2334  -32.3465   18.2397 C   0  0  0  0  0  0  0  0  0  0  0  0
  -33.2892  -31.2526   18.1312 O   0  0  0  0  0  0  0  0  0  0  0  0
  -33.5679  -29.9433   17.1732 P   0  0  0  0  0  0  0  0  0  0  0  0
  -32.8519  -30.2558   15.8451 O   0  0  0  0  0  0  0  0  0  0  0  0
  -32.9609  -28.7264   17.9078 O   0  0  0  0  0  0  0  0  0  0  0  0
  -35.0955  -29.8478   17.0123 O   0  0  0  0  0  0  0  0  0  0  0  0
  -31.8952  -30.3057   15.9975 H   0  0  0  0  0  0  0  0  0  0  0  0
  -32.0002  -28.8390   17.9809 H   0  0  0  0  0  0  0  0  0  0  0  0
  1  2  1  0  0  0
  1  3  2  0  0  0
  1  4  1  0  0  0
  1 32  1  0  0  0
  4  5  1  0  0  0
 33 34  1  0  0  0
 33 35  2  0  0  0
 33 32  1  0  0  0
 33 36  1  0  0  0
 26 27  1  0  0  0
 26 28  1  0  0  0
 26 29  2  0  0  0
 26 25  1  0  0  0
 13 14  1  0  0  0
 13 22  1  0  0  0
 13  8  1  0  0  0
 14 15  2  0  0  0
 14 20  1  0  0  0
 15 16  1  0  0  0
 16 17  2  0  0  0
 17 18  1  0  0  0
 18 19  1  0  0  0
 18 20  2  0  0  0
 20 21  1  0  0  0
 21 22  2  0  0  0
  5  6  1  0  0  0
  6  7  1  0  0  0
  6 11  1  0  0  0
  7  8  1  0  0  0
  8  9  1  0  0  0
  9 10  1  0  0  0
  9 11  1  0  0  0
 11 25  1  0  0  0
 53 52  1  0  0  0
 53 54  1  0  0  0
 52 37  1  0  0  0
 37 38  1  0  0  0
 37 41  1  0  0  0
 38 39  1  0  0  0
 39 40  1  0  0  0
 39 42  1  0  0  0
 40 41  1  0  0  0
 41 36  1  0  0  0
 54 55  1  0  0  0
 54 56  1  0  0  0
 54 57  2  0  0  0
 42 43  1  0  0  0
 42 44  1  0  0  0
 43 49  2  0  0  0
 44 45  2  0  0  0
 44 46  1  0  0  0
 46 47  1  0  0  0
 47 48  2  0  0  0
 47 49  1  0  0  0
 49 50  1  0  0  0
 27 30  1  0  0  0
 28 31  1  0  0  0
 19 23  1  0  0  0
 19 24  1  0  0  0
 10 12  1  0  0  0
 55 58  1  0  0  0
 56 59  1  0  0  0
 46 51  1  0  0  0
M  CHG 1   2  -1
M  CHG 1  34  -1
M  END
> <minimizedAffinity>
-8.04888

$$$$
1U1B_PAX_A_901


 59 63  0  0  0  0  0  0  0  0999 V2000
  -30.8419  -29.2895   16.9771 P   0  0  0  0  0  0  0  0  0  0  0  0
  -32.0450  -29.4997   17.9010 O   0  0  0  0  0  0  0  0  0  0  0  0
  -31.0603  -29.6108   15.4945 O   0  0  0  0  0  0  0  0  0  0  0  0
  -30.2926  -27.7966   17.0821 O   0  0  0  0  0  0  0  0  0  0  0  0
  -30.6382  -26.8249   16.1203 C   0  0  0  0  0  0  0  0  0  0  0  0
  -29.3995  -26.3346   15.4390 C   0  0  0  0  0  0  0  0  0  0  0  0
  -28.9789  -27.2830   14.4034 O   0  0  0  0  0  0  0  0  0  0  0  0
  -28.3998  -26.5487   13.3475 C   0  0  0  0  0  0  0  0  0  0  0  0
  -29.3322  -25.3247   13.2570 C   0  0  0  0  0  0  0  0  0  0  0  0
  -28.7993  -24.2584   12.4828 O   0  0  0  0  0  0  0  0  0  0  0  0
  -29.5753  -24.9873   14.7359 C   0  0  0  0  0  0  0  0  0  0  0  0
  -27.9515  -23.9767   12.8606 H   0  0  0  0  0  0  0  0  0  0  0  0
  -28.1991  -27.4132   12.1438 N   0  0  0  0  0  0  0  0  0  0  0  0
  -27.0576  -28.0232   11.6369 C   0  0  0  0  0  0  0  0  0  0  0  0
  -25.7844  -27.9779   12.1414 N   0  0  0  0  0  0  0  0  0  0  0  0
  -24.9048  -28.7013   11.3809 C   0  0  0  0  0  0  0  0  0  0  0  0
  -25.1696  -29.4167   10.2418 N   0  0  0  0  0  0  0  0  0  0  0  0
  -26.4612  -29.4438    9.7611 C   0  0  0  0  0  0  0  0  0  0  0  0
  -26.7024  -30.1451    8.6574 N   0  0  0  0  0  0  0  0  0  0  0  0
  -27.4788  -28.7159   10.4799 C   0  0  0  0  0  0  0  0  0  0  0  0
  -28.8383  -28.5404   10.2716 N   0  0  0  0  0  0  0  0  0  0  0  0
  -29.2160  -27.7707   11.2724 C   0  0  0  0  0  0  0  0  0  0  0  0
  -25.9686  -30.6230    8.2076 H   0  0  0  0  0  0  0  0  0  0  0  0
  -27.6149  -30.1865    8.2901 H   0  0  0  0  0  0  0  0  0  0  0  0
  -28.5678  -24.1103   15.2474 O   0  0  0  0  0  0  0  0  0  0  0  0
  -28.6526  -22.4855   15.0785 P   0  0  0  0  0  0  0  0  0  0  0  0
  -28.4920  -21.8936   16.4769 O   0  0  0  0  0  0  0  0  0  0  0  0
  -27.5190  -22.1195   14.1303 O   0  0  0  0  0  0  0  0  0  0  0  0
  -30.0233  -22.1256   14.4763 O   0  0  0  0  0  0  0  0  0  0  0  0
  -28.5361  -20.9260   16.4255 H   0  0  0  0  0  0  0  0  0  0  0  0
  -27.5141  -21.1601   13.9872 H   0  0  0  0  0  0  0  0  0  0  0  0
  -29.5947  -30.1102   17.5103 O   0  0  0  0  0  0  0  0  0  0  0  0
  -29.2488  -30.8027   18.8860 P   0  0  0  0  0  0  0  0  0  0  0  0
  -29.4234  -29.8192   19.9717 O   0  0  0  0  0  0  0  0  0  0  0  0
  -29.9974  -32.0780   18.9523 O   0  0  0  0  0  0  0  0  0  0  0  0
  -27.6969  -31.2482   18.6858 O   0  0  0  0  0  0  0  0  0  0  0  0
  -27.4703  -33.5056   17.8543 C   0  0  0  0  0  0  0  0  0  0  0  0
  -26.1431  -34.0565   18.0785 O   0  0  0  0  0  0  0  0  0  0  0  0
  -25.2069  -33.0027   18.1779 C   0  0  0  0  0  0  0  0  0  0  0  0
  -25.7807  -31.8601   17.3497 C   0  0  0  0  0  0  0  0  0  0  0  0
  -27.2788  -32.0144   17.5540 C   0  0  0  0  0  0  0  0  0  0  0  0
  -23.8695  -33.4632   17.6737 N   0  0  0  0  0  0  0  0  0  0  0  0
  -23.5874  -33.5708   16.2877 C   0  0  0  0  0  0  0  0  0  0  0  0
  -22.8900  -33.7898   18.6428 C   0  0  0  0  0  0  0  0  0  0  0  0
  -23.0847  -33.7152   19.8343 O   0  0  0  0  0  0  0  0  0  0  0  0
  -21.6682  -34.2064   18.1183 N   0  0  0  0  0  0  0  0  0  0  0  0
  -21.3264  -34.3294   16.7570 C   0  0  0  0  0  0  0  0  0  0  0  0
  -20.1873  -34.7017   16.4661 O   0  0  0  0  0  0  0  0  0  0  0  0
  -22.3898  -33.9806   15.8084 C   0  0  0  0  0  0  0  0  0  0  0  0
  -22.1645  -34.0638   14.3318 C   0  0  0  0  0  0  0  0  0  0  0  0
  -20.9678  -34.4402   18.7695 H   0  0  0  0  0  0  0  0  0  0  0  0
  -28.1742  -34.2650   16.7405 C   0  0  0  0  0  0  0  0  0  0  0  0
  -28.1269  -33.5187   15.4993 O   0  0  0  0  0  0  0  0  0  0  0  0
  -29.4443  -32.7417   14.8907 P   0  0  0  0  0  0  0  0  0  0  0  0
  -28.9486  -31.3272   14.5333 O   0  0  0  0  0  0  0  0  0  0  0  0
  -30.5070  -32.7371   16.0130 O   0  0  0  0  0  0  0  0  0  0  0  0
  -29.8810  -33.5448   13.6524 O   0  0  0  0  0  0  0  0  0  0  0  0
  -28.6858  -30.8625   15.3431 H   0  0  0  0  0  0  0  0  0  0  0  0
  -30.1805  -32.2189   16.7652 H   0  0  0  0  0  0  0  0  0  0  0  0
  1  2  1  0  0  0
  1  3  2  0  0  0
  1  4  1  0  0  0
  1 32  1  0  0  0
  4  5  1  0  0  0
 33 34  1  0  0  0
 33 35  2  0  0  0
 33 32  1  0  0  0
 33 36  1  0  0  0
 26 27  1  0  0  0
 26 28  1  0  0  0
 26 29  2  0  0  0
 26 25  1  0  0  0
 13 14  1  0  0  0
 13 22  1  0  0  0
 13  8  1  0  0  0
 14 15  2  0  0  0
 14 20  1  0  0  0
 15 16  1  0  0  0
 16 17  2  0  0  0
 17 18  1  0  0  0
 18 19  1  0  0  0
 18 20  2  0  0  0
 20 21  1  0  0  0
 21 22  2  0  0  0
  5  6  1  0  0  0
  6  7  1  0  0  0
  6 11  1  0  0  0
  7  8  1  0  0  0
  8  9  1  0  0  0
  9 10  1  0  0  0
  9 11  1  0  0  0
 11 25  1  0  0  0
 53 52  1  0  0  0
 53 54  1  0  0  0
 52 37  1  0  0  0
 37 38  1  0  0  0
 37 41  1  0  0  0
 38 39  1  0  0  0
 39 40  1  0  0  0
 39 42  1  0  0  0
 40 41  1  0  0  0
 41 36  1  0  0  0
 54 55  1  0  0  0
 54 56  1  0  0  0
 54 57  2  0  0  0
 42 43  1  0  0  0
 42 44  1  0  0  0
 43 49  2  0  0  0
 44 45  2  0  0  0
 44 46  1  0  0  0
 46 47  1  0  0  0
 47 48  2  0  0  0
 47 49  1  0  0  0
 49 50  1  0  0  0
 27 30  1  0  0  0
 28 31  1  0  0  0
 19 23  1  0  0  0
 19 24  1  0  0  0
 10 12  1  0  0  0
 55 58  1  0  0  0
 56 59  1  0  0  0
 46 51  1  0  0  0
M  CHG 1   2  -1
M  CHG 1  34  -1
M  END
> <minimizedAffinity>
-7.95796

$$$$
1U1B_PAX_A_901


 59 63  0  0  0  0  0  0  0  0999 V2000
  -30.0964  -32.3101   17.8113 P   0  0  0  0  0  0  0  0  0  0  0  0
  -30.6954  -31.9824   19.1820 O   0  0  0  0  0  0  0  0  0  0  0  0
  -30.1167  -33.7854   17.3967 O   0  0  0  0  0  0  0  0  0  0  0  0
  -30.8041  -31.4648   16.6597 O   0  0  0  0  0  0  0  0  0  0  0  0
  -30.4802  -30.1086   16.4489 C   0  0  0  0  0  0  0  0  0  0  0  0
  -30.4016  -29.8370   14.9796 C   0  0  0  0  0  0  0  0  0  0  0  0
  -29.8800  -28.4884   14.7384 O   0  0  0  0  0  0  0  0  0  0  0  0
  -29.1200  -28.5197   13.5506 C   0  0  0  0  0  0  0  0  0  0  0  0
  -28.3795  -29.8656   13.6772 C   0  0  0  0  0  0  0  0  0  0  0  0
  -27.7809  -30.3030   12.4644 O   0  0  0  0  0  0  0  0  0  0  0  0
  -29.4749  -30.7926   14.2253 C   0  0  0  0  0  0  0  0  0  0  0  0
  -28.4623  -30.3858   11.7791 H   0  0  0  0  0  0  0  0  0  0  0  0
  -28.3337  -27.2581   13.3870 N   0  0  0  0  0  0  0  0  0  0  0  0
  -28.4677  -26.0132   13.9906 C   0  0  0  0  0  0  0  0  0  0  0  0
  -29.3934  -25.6252   14.9234 N   0  0  0  0  0  0  0  0  0  0  0  0
  -29.2262  -24.3192   15.3001 C   0  0  0  0  0  0  0  0  0  0  0  0
  -28.2798  -23.4315   14.8579 N   0  0  0  0  0  0  0  0  0  0  0  0
  -27.3616  -23.8535   13.9204 C   0  0  0  0  0  0  0  0  0  0  0  0
  -26.4478  -22.9817   13.5044 N   0  0  0  0  0  0  0  0  0  0  0  0
  -27.4383  -25.2139   13.4454 C   0  0  0  0  0  0  0  0  0  0  0  0
  -26.6893  -25.9371   12.5296 N   0  0  0  0  0  0  0  0  0  0  0  0
  -27.2518  -27.1289   12.5304 C   0  0  0  0  0  0  0  0  0  0  0  0
  -26.4427  -22.0650   13.8633 H   0  0  0  0  0  0  0  0  0  0  0  0
  -25.7763  -23.2530   12.8374 H   0  0  0  0  0  0  0  0  0  0  0  0
  -30.2427  -31.3796   13.1708 O   0  0  0  0  0  0  0  0  0  0  0  0
  -30.3131  -32.9965   12.9337 P   0  0  0  0  0  0  0  0  0  0  0  0
  -28.9441  -33.4189   12.4054 O   0  0  0  0  0  0  0  0  0  0  0  0
  -30.6477  -33.5891   14.2957 O   0  0  0  0  0  0  0  0  0  0  0  0
  -31.4214  -33.2941   11.9070 O   0  0  0  0  0  0  0  0  0  0  0  0
  -28.9391  -34.3762   12.2493 H   0  0  0  0  0  0  0  0  0  0  0  0
  -30.7045  -34.5547   14.2231 H   0  0  0  0  0  0  0  0  0  0  0  0
  -28.6111  -31.7633   17.7203 O   0  0  0  0  0  0  0  0  0  0  0  0
  -27.2429  -32.2011   18.3745 P   0  0  0  0  0  0  0  0  0  0  0  0
  -26.4266  -30.9975   18.6227 O   0  0  0  0  0  0  0  0  0  0  0  0
  -27.5504  -33.1003   19.5094 O   0  0  0  0  0  0  0  0  0  0  0  0
  -26.5970  -33.1754   17.2429 O   0  0  0  0  0  0  0  0  0  0  0  0
  -25.5180  -33.7103   15.1481 C   0  0  0  0  0  0  0  0  0  0  0  0
  -24.2227  -34.3464   15.3294 O   0  0  0  0  0  0  0  0  0  0  0  0
  -23.6880  -33.9758   16.5839 C   0  0  0  0  0  0  0  0  0  0  0  0
  -24.2761  -32.6055   16.8957 C   0  0  0  0  0  0  0  0  0  0  0  0
  -25.6628  -32.6849   16.2787 C   0  0  0  0  0  0  0  0  0  0  0  0
  -22.1884  -33.9546   16.5099 N   0  0  0  0  0  0  0  0  0  0  0  0
  -21.5015  -33.5563   15.3345 C   0  0  0  0  0  0  0  0  0  0  0  0
  -21.4776  -34.3513   17.6687 C   0  0  0  0  0  0  0  0  0  0  0  0
  -22.0194  -34.7000   18.6925 O   0  0  0  0  0  0  0  0  0  0  0  0
  -20.0906  -34.3080   17.5442 N   0  0  0  0  0  0  0  0  0  0  0  0
  -19.3518  -33.9188   16.4094 C   0  0  0  0  0  0  0  0  0  0  0  0
  -18.1204  -33.9261   16.4761 O   0  0  0  0  0  0  0  0  0  0  0  0
  -20.1514  -33.5261   15.2437 C   0  0  0  0  0  0  0  0  0  0  0  0
  -19.4974  -33.0889   13.9713 C   0  0  0  0  0  0  0  0  0  0  0  0
  -19.5703  -34.5787   18.3350 H   0  0  0  0  0  0  0  0  0  0  0  0
  -25.6154  -33.1011   13.7581 C   0  0  0  0  0  0  0  0  0  0  0  0
  -25.4263  -31.6654   13.8112 O   0  0  0  0  0  0  0  0  0  0  0  0
  -24.1728  -30.9158   13.0519 P   0  0  0  0  0  0  0  0  0  0  0  0
  -23.5252  -30.0233   14.1281 O   0  0  0  0  0  0  0  0  0  0  0  0
  -24.7881  -30.1017   11.8910 O   0  0  0  0  0  0  0  0  0  0  0  0
  -23.2332  -32.0353   12.5694 O   0  0  0  0  0  0  0  0  0  0  0  0
  -24.1536  -29.3358   14.3990 H   0  0  0  0  0  0  0  0  0  0  0  0
  -25.3688  -29.4133   12.2510 H   0  0  0  0  0  0  0  0  0  0  0  0
  1  2  1  0  0  0
  1  3  2  0  0  0
  1  4  1  0  0  0
  1 32  1  0  0  0
  4  5  1  0  0  0
 33 34  1  0  0  0
 33 35  2  0  0  0
 33 32  1  0  0  0
 33 36  1  0  0  0
 26 27  1  0  0  0
 26 28  1  0  0  0
 26 29  2  0  0  0
 26 25  1  0  0  0
 13 14  1  0  0  0
 13 22  1  0  0  0
 13  8  1  0  0  0
 14 15  2  0  0  0
 14 20  1  0  0  0
 15 16  1  0  0  0
 16 17  2  0  0  0
 17 18  1  0  0  0
 18 19  1  0  0  0
 18 20  2  0  0  0
 20 21  1  0  0  0
 21 22  2  0  0  0
  5  6  1  0  0  0
  6  7  1  0  0  0
  6 11  1  0  0  0
  7  8  1  0  0  0
  8  9  1  0  0  0
  9 10  1  0  0  0
  9 11  1  0  0  0
 11 25  1  0  0  0
 53 52  1  0  0  0
 53 54  1  0  0  0
 52 37  1  0  0  0
 37 38  1  0  0  0
 37 41  1  0  0  0
 38 39  1  0  0  0
 39 40  1  0  0  0
 39 42  1  0  0  0
 40 41  1  0  0  0
 41 36  1  0  0  0
 54 55  1  0  0  0
 54 56  1  0  0  0
 54 57  2  0  0  0
 42 43  1  0  0  0
 42 44  1  0  0  0
 43 49  2  0  0  0
 44 45  2  0  0  0
 44 46  1  0  0  0
 46 47  1  0  0  0
 47 48  2  0  0  0
 47 49  1  0  0  0
 49 50  1  0  0  0
 27 30  1  0  0  0
 28 31  1  0  0  0
 19 23  1  0  0  0
 19 24  1  0  0  0
 10 12  1  0  0  0
 55 58  1  0  0  0
 56 59  1  0  0  0
 46 51  1  0  0  0
M  CHG 1   2  -1
M  CHG 1  34  -1
M  END
> <minimizedAffinity>
-7.88413

$$$$
1U1B_PAX_A_901


 59 63  0  0  0  0  0  0  0  0999 V2000
  -28.7630  -29.6533   19.6032 P   0  0  0  0  0  0  0  0  0  0  0  0
  -27.2356  -29.5665   19.6715 O   0  0  0  0  0  0  0  0  0  0  0  0
  -29.5324  -28.9966   20.7546 O   0  0  0  0  0  0  0  0  0  0  0  0
  -29.3109  -29.0460   18.2348 O   0  0  0  0  0  0  0  0  0  0  0  0
  -30.6327  -28.5660   18.1295 C   0  0  0  0  0  0  0  0  0  0  0  0
  -30.9728  -28.3534   16.6879 C   0  0  0  0  0  0  0  0  0  0  0  0
  -30.2726  -27.1750   16.1682 O   0  0  0  0  0  0  0  0  0  0  0  0
  -29.9616  -27.4136   14.8133 C   0  0  0  0  0  0  0  0  0  0  0  0
  -29.5358  -28.8948   14.8365 C   0  0  0  0  0  0  0  0  0  0  0  0
  -29.4711  -29.4895   13.5471 O   0  0  0  0  0  0  0  0  0  0  0  0
  -30.5729  -29.5196   15.7821 C   0  0  0  0  0  0  0  0  0  0  0  0
  -30.3372  -29.4211   13.1157 H   0  0  0  0  0  0  0  0  0  0  0  0
  -29.0119  -26.3816   14.2942 N   0  0  0  0  0  0  0  0  0  0  0  0
  -28.8053  -25.0591   14.6690 C   0  0  0  0  0  0  0  0  0  0  0  0
  -29.4505  -24.3513   15.6489 N   0  0  0  0  0  0  0  0  0  0  0  0
  -28.9863  -23.0664   15.7442 C   0  0  0  0  0  0  0  0  0  0  0  0
  -28.0017  -22.4711   14.9990 N   0  0  0  0  0  0  0  0  0  0  0  0
  -27.3706  -23.2109   14.0221 C   0  0  0  0  0  0  0  0  0  0  0  0
  -26.4152  -22.6203   13.3104 N   0  0  0  0  0  0  0  0  0  0  0  0
  -27.7760  -24.5820   13.8271 C   0  0  0  0  0  0  0  0  0  0  0  0
  -27.3572  -25.5747   12.9543 N   0  0  0  0  0  0  0  0  0  0  0  0
  -28.1100  -26.6102   13.2669 C   0  0  0  0  0  0  0  0  0  0  0  0
  -26.1795  -21.6808   13.4868 H   0  0  0  0  0  0  0  0  0  0  0  0
  -25.9435  -23.1224   12.6071 H   0  0  0  0  0  0  0  0  0  0  0  0
  -31.7484  -29.9279   15.0769 O   0  0  0  0  0  0  0  0  0  0  0  0
  -32.0706  -31.4970   14.7453 P   0  0  0  0  0  0  0  0  0  0  0  0
  -31.4290  -31.7965   13.3925 O   0  0  0  0  0  0  0  0  0  0  0  0
  -31.4591  -32.2853   15.8954 O   0  0  0  0  0  0  0  0  0  0  0  0
  -33.5981  -31.6831   14.6898 O   0  0  0  0  0  0  0  0  0  0  0  0
  -31.5954  -32.7218   13.1535 H   0  0  0  0  0  0  0  0  0  0  0  0
  -31.6167  -33.2325   15.7580 H   0  0  0  0  0  0  0  0  0  0  0  0
  -29.2179  -31.1660   19.4678 O   0  0  0  0  0  0  0  0  0  0  0  0
  -28.6016  -32.4335   18.7570 P   0  0  0  0  0  0  0  0  0  0  0  0
  -27.8724  -33.2342   19.7587 O   0  0  0  0  0  0  0  0  0  0  0  0
  -29.6772  -33.0810   17.9727 O   0  0  0  0  0  0  0  0  0  0  0  0
  -27.6173  -31.7780   17.6397 O   0  0  0  0  0  0  0  0  0  0  0  0
  -26.9685  -34.0470   17.1203 C   0  0  0  0  0  0  0  0  0  0  0  0
  -25.6168  -34.3589   17.5570 O   0  0  0  0  0  0  0  0  0  0  0  0
  -24.8596  -33.1680   17.6311 C   0  0  0  0  0  0  0  0  0  0  0  0
  -25.4779  -32.2206   16.6108 C   0  0  0  0  0  0  0  0  0  0  0  0
  -26.9528  -32.5834   16.6636 C   0  0  0  0  0  0  0  0  0  0  0  0
  -23.4169  -33.4651   17.3394 N   0  0  0  0  0  0  0  0  0  0  0  0
  -22.8912  -33.4091   16.0231 C   0  0  0  0  0  0  0  0  0  0  0  0
  -22.5917  -33.8073   18.4382 C   0  0  0  0  0  0  0  0  0  0  0  0
  -22.9952  -33.8694   19.5769 O   0  0  0  0  0  0  0  0  0  0  0  0
  -21.2631  -34.0684   18.1096 N   0  0  0  0  0  0  0  0  0  0  0  0
  -20.6817  -34.0252   16.8269 C   0  0  0  0  0  0  0  0  0  0  0  0
  -19.4786  -34.2726   16.7160 O   0  0  0  0  0  0  0  0  0  0  0  0
  -21.5948  -33.6699   15.7350 C   0  0  0  0  0  0  0  0  0  0  0  0
  -21.1114  -33.5851   14.3217 C   0  0  0  0  0  0  0  0  0  0  0  0
  -20.6659  -34.3091   18.8543 H   0  0  0  0  0  0  0  0  0  0  0  0
  -27.4086  -35.0179   16.0359 C   0  0  0  0  0  0  0  0  0  0  0  0
  -28.1745  -34.3344   15.0130 O   0  0  0  0  0  0  0  0  0  0  0  0
  -29.4600  -35.0364   14.2619 P   0  0  0  0  0  0  0  0  0  0  0  0
  -29.7923  -34.1071   13.0786 O   0  0  0  0  0  0  0  0  0  0  0  0
  -30.5959  -35.1019   15.3080 O   0  0  0  0  0  0  0  0  0  0  0  0
  -28.9824  -36.4264   13.8051 O   0  0  0  0  0  0  0  0  0  0  0  0
  -30.0874  -33.2469   13.4160 H   0  0  0  0  0  0  0  0  0  0  0  0
  -30.8566  -34.2019   15.5590 H   0  0  0  0  0  0  0  0  0  0  0  0
  1  2  1  0  0  0
  1  3  2  0  0  0
  1  4  1  0  0  0
  1 32  1  0  0  0
  4  5  1  0  0  0
 33 34  1  0  0  0
 33 35  2  0  0  0
 33 32  1  0  0  0
 33 36  1  0  0  0
 26 27  1  0  0  0
 26 28  1  0  0  0
 26 29  2  0  0  0
 26 25  1  0  0  0
 13 14  1  0  0  0
 13 22  1  0  0  0
 13  8  1  0  0  0
 14 15  2  0  0  0
 14 20  1  0  0  0
 15 16  1  0  0  0
 16 17  2  0  0  0
 17 18  1  0  0  0
 18 19  1  0  0  0
 18 20  2  0  0  0
 20 21  1  0  0  0
 21 22  2  0  0  0
  5  6  1  0  0  0
  6  7  1  0  0  0
  6 11  1  0  0  0
  7  8  1  0  0  0
  8  9  1  0  0  0
  9 10  1  0  0  0
  9 11  1  0  0  0
 11 25  1  0  0  0
 53 52  1  0  0  0
 53 54  1  0  0  0
 52 37  1  0  0  0
 37 38  1  0  0  0
 37 41  1  0  0  0
 38 39  1  0  0  0
 39 40  1  0  0  0
 39 42  1  0  0  0
 40 41  1  0  0  0
 41 36  1  0  0  0
 54 55  1  0  0  0
 54 56  1  0  0  0
 54 57  2  0  0  0
 42 43  1  0  0  0
 42 44  1  0  0  0
 43 49  2  0  0  0
 44 45  2  0  0  0
 44 46  1  0  0  0
 46 47  1  0  0  0
 47 48  2  0  0  0
 47 49  1  0  0  0
 49 50  1  0  0  0
 27 30  1  0  0  0
 28 31  1  0  0  0
 19 23  1  0  0  0
 19 24  1  0  0  0
 10 12  1  0  0  0
 55 58  1  0  0  0
 56 59  1  0  0  0
 46 51  1  0  0  0
M  CHG 1   2  -1
M  CHG 1  34  -1
M  END
> <minimizedAffinity>
-7.85705

$$$$
1U1B_PAX_A_901


 59 63  0  0  0  0  0  0  0  0999 V2000
  -30.7663  -34.2488   15.0712 P   0  0  0  0  0  0  0  0  0  0  0  0
  -31.6711  -33.2067   14.4075 O   0  0  0  0  0  0  0  0  0  0  0  0
  -30.1979  -35.3371   14.1539 O   0  0  0  0  0  0  0  0  0  0  0  0
  -29.5459  -33.5519   15.8239 O   0  0  0  0  0  0  0  0  0  0  0  0
  -28.3685  -34.2694   16.1200 C   0  0  0  0  0  0  0  0  0  0  0  0
  -27.7864  -33.7650   17.4029 C   0  0  0  0  0  0  0  0  0  0  0  0
  -26.4181  -34.2633   17.5716 O   0  0  0  0  0  0  0  0  0  0  0  0
  -25.6722  -33.2731   18.2444 C   0  0  0  0  0  0  0  0  0  0  0  0
  -26.1859  -31.9785   17.5841 C   0  0  0  0  0  0  0  0  0  0  0  0
  -25.8328  -30.7983   18.2931 O   0  0  0  0  0  0  0  0  0  0  0  0
  -27.6963  -32.2398   17.4809 C   0  0  0  0  0  0  0  0  0  0  0  0
  -26.1825  -30.8470   19.1966 H   0  0  0  0  0  0  0  0  0  0  0  0
  -24.2110  -33.5894   18.2084 N   0  0  0  0  0  0  0  0  0  0  0  0
  -23.3491  -33.8063   17.1396 C   0  0  0  0  0  0  0  0  0  0  0  0
  -23.6440  -33.7804   15.8018 N   0  0  0  0  0  0  0  0  0  0  0  0
  -22.5436  -34.0384   15.0285 C   0  0  0  0  0  0  0  0  0  0  0  0
  -21.2647  -34.2997   15.4473 N   0  0  0  0  0  0  0  0  0  0  0  0
  -21.0004  -34.3168   16.8000 C   0  0  0  0  0  0  0  0  0  0  0  0
  -19.7542  -34.5680   17.1899 N   0  0  0  0  0  0  0  0  0  0  0  0
  -22.0844  -34.0586   17.7166 C   0  0  0  0  0  0  0  0  0  0  0  0
  -22.1573  -34.0035   19.1002 N   0  0  0  0  0  0  0  0  0  0  0  0
  -23.4228  -33.7251   19.3404 C   0  0  0  0  0  0  0  0  0  0  0  0
  -19.0533  -34.7374   16.5196 H   0  0  0  0  0  0  0  0  0  0  0  0
  -19.5324  -34.5847   18.1490 H   0  0  0  0  0  0  0  0  0  0  0  0
  -28.3817  -31.8373   18.6701 O   0  0  0  0  0  0  0  0  0  0  0  0
  -29.8891  -31.2031   18.6404 P   0  0  0  0  0  0  0  0  0  0  0  0
  -30.2277  -30.9541   17.1725 O   0  0  0  0  0  0  0  0  0  0  0  0
  -30.7787  -32.2480   19.3001 O   0  0  0  0  0  0  0  0  0  0  0  0
  -29.8839  -29.8877   19.4408 O   0  0  0  0  0  0  0  0  0  0  0  0
  -31.1184  -30.5757   17.1057 H   0  0  0  0  0  0  0  0  0  0  0  0
  -31.6950  -31.9300   19.3143 H   0  0  0  0  0  0  0  0  0  0  0  0
  -31.5216  -34.9326   16.2858 O   0  0  0  0  0  0  0  0  0  0  0  0
  -32.9254  -35.6371   16.4432 P   0  0  0  0  0  0  0  0  0  0  0  0
  -33.3865  -36.0829   15.1146 O   0  0  0  0  0  0  0  0  0  0  0  0
  -32.8123  -36.6352   17.5304 O   0  0  0  0  0  0  0  0  0  0  0  0
  -33.8544  -34.4557   17.0663 O   0  0  0  0  0  0  0  0  0  0  0  0
  -35.2568  -34.9221   18.9780 C   0  0  0  0  0  0  0  0  0  0  0  0
  -36.1912  -33.8453   19.2656 O   0  0  0  0  0  0  0  0  0  0  0  0
  -35.6763  -32.6288   18.7634 C   0  0  0  0  0  0  0  0  0  0  0  0
  -34.1608  -32.7827   18.7806 C   0  0  0  0  0  0  0  0  0  0  0  0
  -33.9679  -34.2595   18.4775 C   0  0  0  0  0  0  0  0  0  0  0  0
  -36.1481  -31.4874   19.6173 N   0  0  0  0  0  0  0  0  0  0  0  0
  -36.4918  -31.6643   20.9821 C   0  0  0  0  0  0  0  0  0  0  0  0
  -36.2384  -30.2143   19.0036 C   0  0  0  0  0  0  0  0  0  0  0  0
  -35.9579  -30.0154   17.8438 O   0  0  0  0  0  0  0  0  0  0  0  0
  -36.6771  -29.1928   19.8435 N   0  0  0  0  0  0  0  0  0  0  0  0
  -37.0282  -29.3039   21.2035 C   0  0  0  0  0  0  0  0  0  0  0  0
  -37.3852  -28.2886   21.8055 O   0  0  0  0  0  0  0  0  0  0  0  0
  -36.9168  -30.6514   21.7729 C   0  0  0  0  0  0  0  0  0  0  0  0
  -37.2563  -30.9140   23.2061 C   0  0  0  0  0  0  0  0  0  0  0  0
  -36.7496  -28.2963   19.4434 H   0  0  0  0  0  0  0  0  0  0  0  0
  -35.0562  -35.7884   20.2116 C   0  0  0  0  0  0  0  0  0  0  0  0
  -35.1772  -34.9984   21.4204 O   0  0  0  0  0  0  0  0  0  0  0  0
  -33.9029  -34.7339   22.4283 P   0  0  0  0  0  0  0  0  0  0  0  0
  -34.2676  -35.4589   23.7380 O   0  0  0  0  0  0  0  0  0  0  0  0
  -33.7939  -33.2020   22.6032 O   0  0  0  0  0  0  0  0  0  0  0  0
  -32.6740  -35.3489   21.7352 O   0  0  0  0  0  0  0  0  0  0  0  0
  -35.0449  -35.0365   24.1358 H   0  0  0  0  0  0  0  0  0  0  0  0
  -34.5918  -32.8693   23.0432 H   0  0  0  0  0  0  0  0  0  0  0  0
  1  2  1  0  0  0
  1  3  2  0  0  0
  1  4  1  0  0  0
  1 32  1  0  0  0
  4  5  1  0  0  0
 33 34  1  0  0  0
 33 35  2  0  0  0
 33 32  1  0  0  0
 33 36  1  0  0  0
 26 27  1  0  0  0
 26 28  1  0  0  0
 26 29  2  0  0  0
 26 25  1  0  0  0
 13 14  1  0  0  0
 13 22  1  0  0  0
 13  8  1  0  0  0
 14 15  2  0  0  0
 14 20  1  0  0  0
 15 16  1  0  0  0
 16 17  2  0  0  0
 17 18  1  0  0  0
 18 19  1  0  0  0
 18 20  2  0  0  0
 20 21  1  0  0  0
 21 22  2  0  0  0
  5  6  1  0  0  0
  6  7  1  0  0  0
  6 11  1  0  0  0
  7  8  1  0  0  0
  8  9  1  0  0  0
  9 10  1  0  0  0
  9 11  1  0  0  0
 11 25  1  0  0  0
 53 52  1  0  0  0
 53 54  1  0  0  0
 52 37  1  0  0  0
 37 38  1  0  0  0
 37 41  1  0  0  0
 38 39  1  0  0  0
 39 40  1  0  0  0
 39 42  1  0  0  0
 40 41  1  0  0  0
 41 36  1  0  0  0
 54 55  1  0  0  0
 54 56  1  0  0  0
 54 57  2  0  0  0
 42 43  1  0  0  0
 42 44  1  0  0  0
 43 49  2  0  0  0
 44 45  2  0  0  0
 44 46  1  0  0  0
 46 47  1  0  0  0
 47 48  2  0  0  0
 47 49  1  0  0  0
 49 50  1  0  0  0
 27 30  1  0  0  0
 28 31  1  0  0  0
 19 23  1  0  0  0
 19 24  1  0  0  0
 10 12  1  0  0  0
 55 58  1  0  0  0
 56 59  1  0  0  0
 46 51  1  0  0  0
M  CHG 1   2  -1
M  CHG 1  34  -1
M  END
> <minimizedAffinity>
-7.73375

$$$$
1U1B_PAX_A_901


 59 63  0  0  0  0  0  0  0  0999 V2000
  -26.3993  -33.0933   18.1252 P   0  0  0  0  0  0  0  0  0  0  0  0
  -27.0938  -33.7735   19.3084 O   0  0  0  0  0  0  0  0  0  0  0  0
  -25.6719  -31.7789   18.4293 O   0  0  0  0  0  0  0  0  0  0  0  0
  -25.3613  -34.0803   17.4253 O   0  0  0  0  0  0  0  0  0  0  0  0
  -25.0746  -33.9775   16.0483 C   0  0  0  0  0  0  0  0  0  0  0  0
  -23.9134  -33.0553   15.8481 C   0  0  0  0  0  0  0  0  0  0  0  0
  -22.7330  -33.5625   16.5541 O   0  0  0  0  0  0  0  0  0  0  0  0
  -21.5913  -33.2152   15.8022 C   0  0  0  0  0  0  0  0  0  0  0  0
  -22.0695  -33.4615   14.3578 C   0  0  0  0  0  0  0  0  0  0  0  0
  -21.2212  -32.8894   13.3712 O   0  0  0  0  0  0  0  0  0  0  0  0
  -23.4979  -32.8968   14.3842 C   0  0  0  0  0  0  0  0  0  0  0  0
  -21.1537  -31.9330   13.5180 H   0  0  0  0  0  0  0  0  0  0  0  0
  -20.3802  -33.9307   16.3100 N   0  0  0  0  0  0  0  0  0  0  0  0
  -19.0550  -33.8941   15.8920 C   0  0  0  0  0  0  0  0  0  0  0  0
  -18.5151  -33.1600   14.8689 N   0  0  0  0  0  0  0  0  0  0  0  0
  -17.1679  -33.3707   14.7412 C   0  0  0  0  0  0  0  0  0  0  0  0
  -16.3706  -34.1920   15.4955 N   0  0  0  0  0  0  0  0  0  0  0  0
  -16.9441  -34.9158   16.5187 C   0  0  0  0  0  0  0  0  0  0  0  0
  -16.1566  -35.7050   17.2435 N   0  0  0  0  0  0  0  0  0  0  0  0
  -18.3615  -34.7765   16.7502 C   0  0  0  0  0  0  0  0  0  0  0  0
  -19.2277  -35.3462   17.6710 N   0  0  0  0  0  0  0  0  0  0  0  0
  -20.3984  -34.8194   17.3735 C   0  0  0  0  0  0  0  0  0  0  0  0
  -15.1949  -35.7612   17.0405 H   0  0  0  0  0  0  0  0  0  0  0  0
  -16.5353  -36.2330   17.9831 H   0  0  0  0  0  0  0  0  0  0  0  0
  -23.5152  -31.4971   14.0903 O   0  0  0  0  0  0  0  0  0  0  0  0
  -24.0865  -30.9057   12.6763 P   0  0  0  0  0  0  0  0  0  0  0  0
  -25.4435  -31.5664   12.4447 O   0  0  0  0  0  0  0  0  0  0  0  0
  -24.1709  -29.3985   12.8750 O   0  0  0  0  0  0  0  0  0  0  0  0
  -23.0936  -31.2672   11.5563 O   0  0  0  0  0  0  0  0  0  0  0  0
  -25.8224  -31.2437   11.6122 H   0  0  0  0  0  0  0  0  0  0  0  0
  -24.5062  -28.9838   12.0647 H   0  0  0  0  0  0  0  0  0  0  0  0
  -27.4342  -32.8563   16.9479 O   0  0  0  0  0  0  0  0  0  0  0  0
  -28.8381  -33.4796   16.5844 P   0  0  0  0  0  0  0  0  0  0  0  0
  -28.6237  -34.7331   15.8365 O   0  0  0  0  0  0  0  0  0  0  0  0
  -29.6511  -33.5174   17.8208 O   0  0  0  0  0  0  0  0  0  0  0  0
  -29.5254  -32.3170   15.6773 O   0  0  0  0  0  0  0  0  0  0  0  0
  -30.7125  -30.3587   16.4485 C   0  0  0  0  0  0  0  0  0  0  0  0
  -31.2037  -29.5330   15.3565 O   0  0  0  0  0  0  0  0  0  0  0  0
  -30.4063  -29.7467   14.2095 C   0  0  0  0  0  0  0  0  0  0  0  0
  -29.0329  -30.1509   14.7300 C   0  0  0  0  0  0  0  0  0  0  0  0
  -29.3660  -30.9316   15.9908 C   0  0  0  0  0  0  0  0  0  0  0  0
  -30.3619  -28.4943   13.3822 N   0  0  0  0  0  0  0  0  0  0  0  0
  -29.9590  -27.2488   13.9286 C   0  0  0  0  0  0  0  0  0  0  0  0
  -30.7414  -28.6034   12.0222 C   0  0  0  0  0  0  0  0  0  0  0  0
  -31.0934  -29.6426   11.5129 O   0  0  0  0  0  0  0  0  0  0  0  0
  -30.6770  -27.4121   11.3025 N   0  0  0  0  0  0  0  0  0  0  0  0
  -30.2821  -26.1488   11.7853 C   0  0  0  0  0  0  0  0  0  0  0  0
  -30.2697  -25.1957   11.0029 O   0  0  0  0  0  0  0  0  0  0  0  0
  -29.9081  -26.1072   13.2033 C   0  0  0  0  0  0  0  0  0  0  0  0
  -29.4672  -24.8312   13.8479 C   0  0  0  0  0  0  0  0  0  0  0  0
  -30.9355  -27.4581   10.3536 H   0  0  0  0  0  0  0  0  0  0  0  0
  -30.6225  -29.5410   17.7274 C   0  0  0  0  0  0  0  0  0  0  0  0
  -29.2420  -29.3731   18.1349 O   0  0  0  0  0  0  0  0  0  0  0  0
  -28.6897  -29.8848   19.5987 P   0  0  0  0  0  0  0  0  0  0  0  0
  -27.1699  -29.6331   19.5665 O   0  0  0  0  0  0  0  0  0  0  0  0
  -29.0452  -31.3856   19.7004 O   0  0  0  0  0  0  0  0  0  0  0  0
  -29.4087  -29.0238   20.6525 O   0  0  0  0  0  0  0  0  0  0  0  0
  -26.7631  -30.1964   18.8896 H   0  0  0  0  0  0  0  0  0  0  0  0
  -28.5662  -31.8784   19.0159 H   0  0  0  0  0  0  0  0  0  0  0  0
  1  2  1  0  0  0
  1  3  2  0  0  0
  1  4  1  0  0  0
  1 32  1  0  0  0
  4  5  1  0  0  0
 33 34  1  0  0  0
 33 35  2  0  0  0
 33 32  1  0  0  0
 33 36  1  0  0  0
 26 27  1  0  0  0
 26 28  1  0  0  0
 26 29  2  0  0  0
 26 25  1  0  0  0
 13 14  1  0  0  0
 13 22  1  0  0  0
 13  8  1  0  0  0
 14 15  2  0  0  0
 14 20  1  0  0  0
 15 16  1  0  0  0
 16 17  2  0  0  0
 17 18  1  0  0  0
 18 19  1  0  0  0
 18 20  2  0  0  0
 20 21  1  0  0  0
 21 22  2  0  0  0
  5  6  1  0  0  0
  6  7  1  0  0  0
  6 11  1  0  0  0
  7  8  1  0  0  0
  8  9  1  0  0  0
  9 10  1  0  0  0
  9 11  1  0  0  0
 11 25  1  0  0  0
 53 52  1  0  0  0
 53 54  1  0  0  0
 52 37  1  0  0  0
 37 38  1  0  0  0
 37 41  1  0  0  0
 38 39  1  0  0  0
 39 40  1  0  0  0
 39 42  1  0  0  0
 40 41  1  0  0  0
 41 36  1  0  0  0
 54 55  1  0  0  0
 54 56  1  0  0  0
 54 57  2  0  0  0
 42 43  1  0  0  0
 42 44  1  0  0  0
 43 49  2  0  0  0
 44 45  2  0  0  0
 44 46  1  0  0  0
 46 47  1  0  0  0
 47 48  2  0  0  0
 47 49  1  0  0  0
 49 50  1  0  0  0
 27 30  1  0  0  0
 28 31  1  0  0  0
 19 23  1  0  0  0
 19 24  1  0  0  0
 10 12  1  0  0  0
 55 58  1  0  0  0
 56 59  1  0  0  0
 46 51  1  0  0  0
M  CHG 1   2  -1
M  CHG 1  34  -1
M  END
> <minimizedAffinity>
-7.71547

$$$$
1U1B_PAX_A_901


 59 63  0  0  0  0  0  0  0  0999 V2000
  -31.1127  -32.5485   14.0398 P   0  0  0  0  0  0  0  0  0  0  0  0
  -32.4067  -33.3324   13.8025 O   0  0  0  0  0  0  0  0  0  0  0  0
  -30.1651  -32.4239   12.8417 O   0  0  0  0  0  0  0  0  0  0  0  0
  -31.4227  -31.0801   14.5776 O   0  0  0  0  0  0  0  0  0  0  0  0
  -32.7429  -30.6723   14.8600 C   0  0  0  0  0  0  0  0  0  0  0  0
  -32.9330  -30.5888   16.3418 C   0  0  0  0  0  0  0  0  0  0  0  0
  -33.4577  -31.8558   16.8598 O   0  0  0  0  0  0  0  0  0  0  0  0
  -32.9266  -32.0532   18.1515 C   0  0  0  0  0  0  0  0  0  0  0  0
  -31.4717  -31.5747   17.9784 C   0  0  0  0  0  0  0  0  0  0  0  0
  -30.7904  -31.3656   19.2082 O   0  0  0  0  0  0  0  0  0  0  0  0
  -31.6409  -30.3159   17.1142 C   0  0  0  0  0  0  0  0  0  0  0  0
  -31.2725  -30.7113   19.7377 H   0  0  0  0  0  0  0  0  0  0  0  0
  -33.1930  -33.4446   18.6309 N   0  0  0  0  0  0  0  0  0  0  0  0
  -33.3692  -34.6336   17.9327 C   0  0  0  0  0  0  0  0  0  0  0  0
  -33.3389  -34.8257   16.5764 N   0  0  0  0  0  0  0  0  0  0  0  0
  -33.5514  -36.1358   16.2386 C   0  0  0  0  0  0  0  0  0  0  0  0
  -33.7738  -37.1951   17.0798 N   0  0  0  0  0  0  0  0  0  0  0  0
  -33.7964  -36.9688   18.4394 C   0  0  0  0  0  0  0  0  0  0  0  0
  -34.0096  -38.0072   19.2421 N   0  0  0  0  0  0  0  0  0  0  0  0
  -33.5848  -35.6238   18.9170 C   0  0  0  0  0  0  0  0  0  0  0  0
  -33.5470  -35.0686   20.1871 N   0  0  0  0  0  0  0  0  0  0  0  0
  -33.3141  -33.7902   19.9677 C   0  0  0  0  0  0  0  0  0  0  0  0
  -34.1480  -38.9041   18.8605 H   0  0  0  0  0  0  0  0  0  0  0  0
  -34.0290  -37.8792   20.2180 H   0  0  0  0  0  0  0  0  0  0  0  0
  -31.8672  -29.1539   17.9170 O   0  0  0  0  0  0  0  0  0  0  0  0
  -30.7161  -28.0167   18.1565 P   0  0  0  0  0  0  0  0  0  0  0  0
  -30.0716  -28.3272   19.5055 O   0  0  0  0  0  0  0  0  0  0  0  0
  -29.7600  -28.1575   16.9799 O   0  0  0  0  0  0  0  0  0  0  0  0
  -31.3891  -26.6319   18.1673 O   0  0  0  0  0  0  0  0  0  0  0  0
  -29.3785  -27.6743   19.6906 H   0  0  0  0  0  0  0  0  0  0  0  0
  -29.0471  -27.5049   17.0627 H   0  0  0  0  0  0  0  0  0  0  0  0
  -30.3213  -33.1614   15.2691 O   0  0  0  0  0  0  0  0  0  0  0  0
  -29.6659  -34.5685   15.5555 P   0  0  0  0  0  0  0  0  0  0  0  0
  -29.8739  -34.9111   16.9753 O   0  0  0  0  0  0  0  0  0  0  0  0
  -30.1427  -35.5103   14.5177 O   0  0  0  0  0  0  0  0  0  0  0  0
  -28.0997  -34.3179   15.1931 O   0  0  0  0  0  0  0  0  0  0  0  0
  -26.8373  -33.1904   16.9177 C   0  0  0  0  0  0  0  0  0  0  0  0
  -25.5786  -32.6493   16.4298 O   0  0  0  0  0  0  0  0  0  0  0  0
  -25.1583  -33.3829   15.2975 C   0  0  0  0  0  0  0  0  0  0  0  0
  -25.7451  -34.7784   15.4676 C   0  0  0  0  0  0  0  0  0  0  0  0
  -27.0681  -34.5057   16.1643 C   0  0  0  0  0  0  0  0  0  0  0  0
  -23.6584  -33.3943   15.2285 N   0  0  0  0  0  0  0  0  0  0  0  0
  -22.8665  -34.0107   16.2311 C   0  0  0  0  0  0  0  0  0  0  0  0
  -23.0569  -32.7603   14.1142 C   0  0  0  0  0  0  0  0  0  0  0  0
  -23.6903  -32.2208   13.2361 O   0  0  0  0  0  0  0  0  0  0  0  0
  -21.6644  -32.8053   14.1002 N   0  0  0  0  0  0  0  0  0  0  0  0
  -20.8247  -33.4037   15.0604 C   0  0  0  0  0  0  0  0  0  0  0  0
  -19.6048  -33.3632   14.8845 O   0  0  0  0  0  0  0  0  0  0  0  0
  -21.5139  -34.0366   16.1903 C   0  0  0  0  0  0  0  0  0  0  0  0
  -20.7460  -34.7112   17.2827 C   0  0  0  0  0  0  0  0  0  0  0  0
  -21.2189  -32.3721   13.3366 H   0  0  0  0  0  0  0  0  0  0  0  0
  -26.7892  -33.3552   18.4286 C   0  0  0  0  0  0  0  0  0  0  0  0
  -27.7166  -32.4484   19.0749 O   0  0  0  0  0  0  0  0  0  0  0  0
  -27.5564  -30.8129   18.9799 P   0  0  0  0  0  0  0  0  0  0  0  0
  -26.0431  -30.5641   18.8307 O   0  0  0  0  0  0  0  0  0  0  0  0
  -28.1298  -30.2398   20.2958 O   0  0  0  0  0  0  0  0  0  0  0  0
  -28.3519  -30.3762   17.7368 O   0  0  0  0  0  0  0  0  0  0  0  0
  -25.5868  -30.8542   19.6361 H   0  0  0  0  0  0  0  0  0  0  0  0
  -27.5922  -30.5457   21.0430 H   0  0  0  0  0  0  0  0  0  0  0  0
  1  2  1  0  0  0
  1  3  2  0  0  0
  1  4  1  0  0  0
  1 32  1  0  0  0
  4  5  1  0  0  0
 33 34  1  0  0  0
 33 35  2  0  0  0
 33 32  1  0  0  0
 33 36  1  0  0  0
 26 27  1  0  0  0
 26 28  1  0  0  0
 26 29  2  0  0  0
 26 25  1  0  0  0
 13 14  1  0  0  0
 13 22  1  0  0  0
 13  8  1  0  0  0
 14 15  2  0  0  0
 14 20  1  0  0  0
 15 16  1  0  0  0
 16 17  2  0  0  0
 17 18  1  0  0  0
 18 19  1  0  0  0
 18 20  2  0  0  0
 20 21  1  0  0  0
 21 22  2  0  0  0
  5  6  1  0  0  0
  6  7  1  0  0  0
  6 11  1  0  0  0
  7  8  1  0  0  0
  8  9  1  0  0  0
  9 10  1  0  0  0
  9 11  1  0  0  0
 11 25  1  0  0  0
 53 52  1  0  0  0
 53 54  1  0  0  0
 52 37  1  0  0  0
 37 38  1  0  0  0
 37 41  1  0  0  0
 38 39  1  0  0  0
 39 40  1  0  0  0
 39 42  1  0  0  0
 40 41  1  0  0  0
 41 36  1  0  0  0
 54 55  1  0  0  0
 54 56  1  0  0  0
 54 57  2  0  0  0
 42 43  1  0  0  0
 42 44  1  0  0  0
 43 49  2  0  0  0
 44 45  2  0  0  0
 44 46  1  0  0  0
 46 47  1  0  0  0
 47 48  2  0  0  0
 47 49  1  0  0  0
 49 50  1  0  0  0
 27 30  1  0  0  0
 28 31  1  0  0  0
 19 23  1  0  0  0
 19 24  1  0  0  0
 10 12  1  0  0  0
 55 58  1  0  0  0
 56 59  1  0  0  0
 46 51  1  0  0  0
M  CHG 1   2  -1
M  CHG 1  34  -1
M  END
> <minimizedAffinity>
-7.67705

$$$$
