1U1B_PAX_A_901
  RCSB PDB12061704103D
Coordinates from PDB:1U1B:A:901 Model:1 without hydrogens
 51 55  0  0  0  0            999 V2000
  -30.2210  -29.4080   17.2920   P 0  0  0  0  0  0  0  0  0  0  0  0
  -31.3890  -30.1680   17.9270   O 0  5  0  0  0  0  0  0  0  0  0  0
  -30.3730  -29.0440   15.8110   O 0  0  0  0  0  0  0  0  0  0  0  0
  -29.9020  -28.0700   18.0980   O 0  0  0  0  0  0  0  0  0  0  0  0
  -28.1590  -30.8560   18.7490   P 0  0  0  0  0  0  0  0  0  0  0  0
  -27.0860  -29.9510   19.2030   O 0  5  0  0  0  0  0  0  0  0  0  0
  -29.2100  -31.2550   19.7120   O 0  0  0  0  0  0  0  0  0  0  0  0
  -28.8710  -30.2140   17.4950   O 0  0  0  0  0  0  0  0  0  0  0  0
  -34.8930  -26.7760   18.1550   P 0  0  0  0  0  0  0  0  0  0  0  0
  -34.7020  -26.9210   19.6630   O 0  0  0  0  0  0  0  0  0  0  0  0
  -36.1220  -25.9620   17.7740   O 0  0  0  0  0  0  0  0  0  0  0  0
  -34.8950  -28.1500   17.4600   O 0  0  0  0  0  0  0  0  0  0  0  0
  -29.7730  -23.9820   16.1300   N 0  0  0  0  0  0  0  0  0  0  0  0
  -28.8580  -24.4270   15.1830   C 0  0  0  0  0  0  0  0  0  0  0  0
  -28.7370  -25.6860   14.6560   N 0  0  0  0  0  0  0  0  0  0  0  0
  -27.7210  -25.7640   13.7410   C 0  0  0  0  0  0  0  0  0  0  0  0
  -26.8770  -24.7630   13.3350   N 0  0  0  0  0  0  0  0  0  0  0  0
  -27.0260  -23.5070   13.8830   C 0  0  0  0  0  0  0  0  0  0  0  0
  -26.2020  -22.5460   13.4760   N 0  0  0  0  0  0  0  0  0  0  0  0
  -28.0660  -23.3020   14.8620   C 0  0  0  0  0  0  0  0  0  0  0  0
  -28.4730  -22.1930   15.5880   N 0  0  0  0  0  0  0  0  0  0  0  0
  -29.4760  -22.6410   16.3160   C 0  0  0  0  0  0  0  0  0  0  0  0
  -30.8270  -27.5380   19.0200   C 0  0  0  0  0  0  0  0  0  0  0  0
  -31.4240  -26.2850   18.4610   C 0  0  0  0  0  0  0  0  0  0  0  0
  -30.3690  -25.3940   17.9690   O 0  0  0  0  0  0  0  0  0  0  0  0
  -30.8710  -24.6990   16.8490   C 0  0  0  0  0  0  0  0  0  0  0  0
  -31.6670  -25.7980   16.1180   C 0  0  0  0  0  0  0  0  0  0  0  0
  -32.5430  -25.2970   15.1170   O 0  0  0  0  0  0  0  0  0  0  0  0
  -32.3640  -26.5250   17.2780   C 0  0  0  0  0  0  0  0  0  0  0  0
  -33.6160  -25.9150   17.6040   O 0  0  0  0  0  0  0  0  0  0  0  0
  -25.7810  -33.8130   14.1660   O 0  0  0  0  0  0  0  0  0  0  0  0
  -27.0380  -33.6820   14.8750   C 0  0  0  0  0  0  0  0  0  0  0  0
  -26.8140  -33.6990   16.3790   C 0  0  0  0  0  0  0  0  0  0  0  0
  -25.5540  -34.3540   16.6930   O 0  0  0  0  0  0  0  0  0  0  0  0
  -24.8450  -33.5810   17.6400   C 0  0  0  0  0  0  0  0  0  0  0  0
  -25.2930  -32.1420   17.4180   C 0  0  0  0  0  0  0  0  0  0  0  0
  -26.7470  -32.3010   17.0050   C 0  0  0  0  0  0  0  0  0  0  0  0
  -27.5880  -32.2610   18.1600   O 0  0  0  0  0  0  0  0  0  0  0  0
  -25.4210  -32.9050   12.8410   P 0  0  0  0  0  0  0  0  0  0  0  0
  -24.3250  -33.6930   12.0980   O 0  0  0  0  0  0  0  0  0  0  0  0
  -24.9230  -31.5400   13.3680   O 0  0  0  0  0  0  0  0  0  0  0  0
  -26.7240  -32.7970   12.0290   O 0  0  0  0  0  0  0  0  0  0  0  0
  -23.3680  -33.7610   17.4380   N 0  0  0  0  0  0  0  0  0  0  0  0
  -22.7850  -33.7800   16.1450   C 0  0  0  0  0  0  0  0  0  0  0  0
  -22.5700  -33.9130   18.5980   C 0  0  0  0  0  0  0  0  0  0  0  0
  -23.0220  -33.9050   19.7200   O 0  0  0  0  0  0  0  0  0  0  0  0
  -21.2080  -34.0720   18.3510   N 0  0  0  0  0  0  0  0  0  0  0  0
  -20.5700  -34.0950   17.0950   C 0  0  0  0  0  0  0  0  0  0  0  0
  -19.3450  -34.2320   17.0580   O 0  0  0  0  0  0  0  0  0  0  0  0
  -21.4570  -33.9380   15.9370   C 0  0  0  0  0  0  0  0  0  0  0  0
  -20.9140  -33.9420   14.5430   C 0  0  0  0  0  0  0  0  0  0  0  0
  1  2  1  0  0  0  0
  1  3  2  0  0  0  0
  1  4  1  0  0  0  0
  1  8  1  0  0  0  0
  4 23  1  0  0  0  0
  5  6  1  0  0  0  0
  5  7  2  0  0  0  0
  5  8  1  0  0  0  0
  5 38  1  0  0  0  0
  9 10  1  0  0  0  0
  9 11  1  0  0  0  0
  9 12  2  0  0  0  0
  9 30  1  0  0  0  0
 13 14  1  0  0  0  0
 13 22  1  0  0  0  0
 13 26  1  0  0  0  0
 14 15  2  0  0  0  0
 14 20  1  0  0  0  0
 15 16  1  0  0  0  0
 16 17  2  0  0  0  0
 17 18  1  0  0  0  0
 18 19  1  0  0  0  0
 18 20  2  0  0  0  0
 20 21  1  0  0  0  0
 21 22  2  0  0  0  0
 23 24  1  0  0  0  0
 24 25  1  0  0  0  0
 24 29  1  0  0  0  0
 25 26  1  0  0  0  0
 26 27  1  0  0  0  0
 27 28  1  0  0  0  0
 27 29  1  0  0  0  0
 29 30  1  0  0  0  0
 31 32  1  0  0  0  0
 31 39  1  0  0  0  0
 32 33  1  0  0  0  0
 33 34  1  0  0  0  0
 33 37  1  0  0  0  0
 34 35  1  0  0  0  0
 35 36  1  0  0  0  0
 35 43  1  0  0  0  0
 36 37  1  0  0  0  0
 37 38  1  0  0  0  0
 39 40  1  0  0  0  0
 39 41  1  0  0  0  0
 39 42  2  0  0  0  0
 43 44  1  0  0  0  0
 43 45  1  0  0  0  0
 44 50  2  0  0  0  0
 45 46  2  0  0  0  0
 45 47  1  0  0  0  0
 47 48  1  0  0  0  0
 48 49  2  0  0  0  0
 48 50  1  0  0  0  0
 50 51  1  0  0  0  0
M  CHG  2   2  -1   6  -1
A    1
PA
A    2
O1A
A    3
O2A
A    4
O5'
A    5
PB
A    6
O1B
A    7
O2B
A    8
O3A
A    9
PG
A   10
O1G
A   11
O2G
A   12
O3G
A   13
N9A
A   14
C4A
A   15
N3A
A   16
C2A
A   17
N1A
A   18
C6A
A   19
N6A
A   20
C5A
A   21
N7A
A   22
C8A
A   23
C5'
A   24
C4'
A   25
O4'
A   26
C1'
A   27
C2'
A   28
O2'
A   29
C3'
A   30
O3'
A   31
O5
A   32
C5
A   33
C4
A   34
O4
A   35
C1
A   36
C2
A   37
C3
A   38
O3
A   39
PD
A   40
O1D
A   41
O2D
A   42
O3D
A   43
N1T
A   44
C6T
A   45
C2T
A   46
O2T
A   47
N3T
A   48
C4T
A   49
O4T
A   50
C5T
A   51
CM5
M  END
>  <InstanceId>
1U1B_PAX_A_901

>  <ChemCompId>
PAX

>  <PdbId>
1U1B

>  <ChainId>
A

>  <ResidueNumber>
901

>  <InsertionCode>


>  <Model>
1

>  <AltIds>


>  <MissingHeavyAtoms>
0

>  <ObservedFormula>
C20 N7 O20 P4

>  <Name>
5'-PHOSPHOTHYMIDINE (3'-5')-PYROPHOSPHATE ADENOSINE 3'-PHOSPHATE

>  <SystematicName>
[(2R,3S,4R,5R)-5-(6-aminopurin-9-yl)-4-hydroxy-3-phosphonooxy-oxolan-2-yl]methyl [[(2R,3S,5R)-5-(5-methyl-2,4-dioxo-pyrimidin-1-yl)-2-(phosphonooxymethyl)oxolan-3-yl]oxy-oxido-phosphoryl] phosphate

>  <Synonyms>


>  <Type>
NON-POLYMER

>  <Formula>
C20 H27 N7 O20 P4

>  <MolecularWeight>
809.358

>  <ModifiedDate>
2011-06-04

>  <Parent>


>  <OneLetterCode>


>  <SubcomponentList>


>  <AmbiguousFlag>
N

>  <InChI>
InChI=1S/C20H29N7O20P4/c1-8-3-26(20(30)25-18(8)29)12-2-9(10(43-12)4-41-48(31,32)33)45-51(39,40)47-50(37,38)42-5-11-15(46-49(34,35)36)14(28)19(44-11)27-7-24-13-16(21)22-6-23-17(13)27/h3,6-7,9-12,14-15,19,28H,2,4-5H2,1H3,(H,37,38)(H,39,40)(H2,21,22,23)(H,25,29,30)(H2,31,32,33)(H2,34,35,36)/p-2/t9-,10+,11+,12+,14+,15+,19+/m0/s1

>  <InChIKey>
DQGQNMNTNSHMMC-SLFMBYJQSA-L

>  <SMILES>
CC1=CN(C(=O)NC1=O)[C@H]2C[C@@H]([C@H](O2)COP(=O)(O)O)O[P@@](=O)([O-])O[P@@](=O)([O-])OC[C@@H]3[C@H]([C@H]([C@@H](O3)n4cnc5c4ncnc5N)O)OP(=O)(O)O

$$$$
