5DHU_5A8_A_302


 43 47  0  0  0  0  0  0  0  0999 V2000
   14.0725  -19.6971  -44.9145 C   0  0  0  0  0  0  0  0  0  0  0  0
   11.9190  -19.1218  -44.6843 C   0  0  0  0  0  0  0  0  0  0  0  0
   11.9463  -18.5632  -45.9117 C   0  0  0  0  0  0  0  0  0  0  0  0
   13.1107  -18.5802  -46.6247 C   0  0  0  0  0  0  0  0  0  0  0  0
   10.7363  -18.9732  -44.2023 N   0  0  0  0  0  0  0  0  0  0  0  0
   10.0425  -18.3343  -45.0841 C   0  0  0  0  0  0  0  0  0  0  0  0
   10.7627  -18.0801  -46.1294 N   0  0  0  0  0  0  0  0  0  0  0  0
   13.2191  -18.0613  -47.8010 N   0  0  0  0  0  0  0  0  0  0  0  0
   14.1420  -19.1561  -46.0947 N   0  0  0  0  0  0  0  0  0  0  0  0
   12.9902  -19.6869  -44.2093 N   0  0  0  0  0  0  0  0  0  0  0  0
   14.0798  -18.0975  -48.2775 H   0  0  0  0  0  0  0  0  0  0  0  0
   12.4411  -17.6291  -48.2219 H   0  0  0  0  0  0  0  0  0  0  0  0
   10.2792  -19.4551  -42.9280 C   0  0  0  0  0  0  0  0  0  0  0  0
    9.4153  -20.4838  -43.2722 O   0  0  0  0  0  0  0  0  0  0  0  0
    9.4190  -18.4834  -42.1426 C   0  0  0  0  0  0  0  0  0  0  0  0
   10.0513  -18.2738  -40.9344 O   0  0  0  0  0  0  0  0  0  0  0  0
    8.1599  -19.2618  -41.8580 C   0  0  0  0  0  0  0  0  0  0  0  0
    7.7823  -19.1206  -40.5065 O   0  0  0  0  0  0  0  0  0  0  0  0
    8.6103  -20.6772  -42.1570 C   0  0  0  0  0  0  0  0  0  0  0  0
   10.2001  -19.1258  -40.4952 H   0  0  0  0  0  0  0  0  0  0  0  0
    8.5182  -19.3909  -39.9352 H   0  0  0  0  0  0  0  0  0  0  0  0
    7.4048  -21.5037  -42.5752 C   0  0  0  0  0  0  0  0  0  0  0  0
    7.1036  -21.2656  -43.9871 N   0  0  0  0  0  0  0  0  0  0  0  0
    6.6732  -22.2334  -44.7109 N   0  0  0  0  0  0  0  0  0  0  0  0
    6.2428  -23.1990  -45.4365 N   0  0  0  0  0  0  0  0  0  0  0  0
    8.4398  -17.9333  -44.8868 S   0  0  0  0  0  0  0  0  0  0  0  0
    8.1925  -16.6533  -46.1614 C   0  0  0  0  0  0  0  0  0  0  0  0
    8.3657  -17.6978  -48.2843 N   0  0  0  0  0  0  0  0  0  0  0  0
    7.5470  -17.1764  -47.4372 C   0  0  0  0  0  0  0  0  0  0  0  0
    6.3633  -17.0930  -47.6417 O   0  0  0  0  0  0  0  0  0  0  0  0
    9.3268  -17.6851  -48.0717 H   0  0  0  0  0  0  0  0  0  0  0  0
    7.9480  -18.3015  -49.5318 C   0  0  0  0  0  0  0  0  0  0  0  0
    8.8697  -19.4789  -49.8265 C   0  0  0  0  0  0  0  0  0  0  0  0
   10.2094  -20.9405  -48.1533 C   0  0  0  0  0  0  0  0  0  0  0  0
   11.4845  -21.0338  -48.6233 C   0  0  0  0  0  0  0  0  0  0  0  0
   12.4146  -21.7533  -47.9182 C   0  0  0  0  0  0  0  0  0  0  0  0
   12.0659  -22.3723  -46.7490 C   0  0  0  0  0  0  0  0  0  0  0  0
   10.7857  -22.2801  -46.2926 C   0  0  0  0  0  0  0  0  0  0  0  0
    9.8751  -21.5658  -47.0002 C   0  0  0  0  0  0  0  0  0  0  0  0
    8.6287  -21.3253  -46.7691 N   0  0  0  0  0  0  0  0  0  0  0  0
    8.1521  -20.5851  -47.7316 C   0  0  0  0  0  0  0  0  0  0  0  0
    9.0812  -20.3321  -48.6014 C   0  0  0  0  0  0  0  0  0  0  0  0
    8.1192  -21.6486  -45.9912 H   0  0  0  0  0  0  0  0  0  0  0  0
 33 32  1  0  0  0
 33 42  1  0  0  0
 32 28  1  0  0  0
 42 34  1  0  0  0
 42 41  2  0  0  0
 28 29  1  0  0  0
  8  4  1  0  0  0
 35 34  2  0  0  0
 35 36  1  0  0  0
 30 29  2  0  0  0
 34 39  1  0  0  0
 41 40  1  0  0  0
 29 27  1  0  0  0
 36 37  2  0  0  0
  4  9  2  0  0  0
  4  3  1  0  0  0
 39 40  1  0  0  0
 39 38  2  0  0  0
  9  1  1  0  0  0
  7  3  1  0  0  0
  7  6  2  0  0  0
 27 26  1  0  0  0
  3  2  2  0  0  0
 37 38  1  0  0  0
  6 26  1  0  0  0
  6  5  1  0  0  0
  1 10  2  0  0  0
  2 10  1  0  0  0
  2  5  1  0  0  0
 25 24  2  0  0  0
  5 13  1  0  0  0
 24 23  2  0  0  0
 14 13  1  0  0  0
 14 19  1  0  0  0
 13 15  1  0  0  0
 22 23  1  0  0  0
 22 19  1  0  0  0
 15 17  1  0  0  0
 15 16  1  0  0  0
 19 17  1  0  0  0
 17 18  1  0  0  0
 40 43  1  0  0  0
 28 31  1  0  0  0
  8 11  1  0  0  0
  8 12  1  0  0  0
 16 20  1  0  0  0
 18 21  1  0  0  0
M  CHG 1  24   1
M  CHG 1  25  -1
M  END
> <minimizedAffinity>
-9.35912

$$$$
5DHU_5A8_A_302


 43 47  0  0  0  0  0  0  0  0999 V2000
    6.7420  -14.7678  -44.2364 C   0  0  0  0  0  0  0  0  0  0  0  0
    7.1335  -16.6077  -45.4540 C   0  0  0  0  0  0  0  0  0  0  0  0
    6.3968  -16.0892  -46.4579 C   0  0  0  0  0  0  0  0  0  0  0  0
    5.8136  -14.8657  -46.2920 C   0  0  0  0  0  0  0  0  0  0  0  0
    7.5637  -17.7608  -45.8265 N   0  0  0  0  0  0  0  0  0  0  0  0
    7.1079  -17.9719  -47.0160 C   0  0  0  0  0  0  0  0  0  0  0  0
    6.3992  -16.9646  -47.4146 N   0  0  0  0  0  0  0  0  0  0  0  0
    5.0892  -14.3062  -47.2013 N   0  0  0  0  0  0  0  0  0  0  0  0
    6.0127  -14.2416  -45.1753 N   0  0  0  0  0  0  0  0  0  0  0  0
    7.2968  -15.9281  -44.3569 N   0  0  0  0  0  0  0  0  0  0  0  0
    4.6886  -13.4221  -47.0367 H   0  0  0  0  0  0  0  0  0  0  0  0
    4.9372  -14.7634  -48.0599 H   0  0  0  0  0  0  0  0  0  0  0  0
    8.4129  -18.6308  -45.0604 C   0  0  0  0  0  0  0  0  0  0  0  0
    7.6780  -18.8501  -43.9050 O   0  0  0  0  0  0  0  0  0  0  0  0
    9.7064  -18.0048  -44.5749 C   0  0  0  0  0  0  0  0  0  0  0  0
   10.7372  -18.7678  -45.0836 O   0  0  0  0  0  0  0  0  0  0  0  0
    9.6801  -18.2275  -43.0843 C   0  0  0  0  0  0  0  0  0  0  0  0
   10.9238  -18.7148  -42.6319 O   0  0  0  0  0  0  0  0  0  0  0  0
    8.5991  -19.2819  -42.9593 C   0  0  0  0  0  0  0  0  0  0  0  0
   10.6143  -19.6935  -44.8210 H   0  0  0  0  0  0  0  0  0  0  0  0
   11.1518  -19.5215  -43.1198 H   0  0  0  0  0  0  0  0  0  0  0  0
    7.9586  -19.1753  -41.5847 C   0  0  0  0  0  0  0  0  0  0  0  0
    8.3360  -20.3298  -40.7689 N   0  0  0  0  0  0  0  0  0  0  0  0
    9.5692  -20.6772  -40.7018 N   0  0  0  0  0  0  0  0  0  0  0  0
   10.8010  -21.0263  -40.6330 N   0  0  0  0  0  0  0  0  0  0  0  0
    7.4284  -19.3453  -47.8989 S   0  0  0  0  0  0  0  0  0  0  0  0
    8.7253  -18.7819  -49.0498 C   0  0  0  0  0  0  0  0  0  0  0  0
   10.4415  -20.4192  -49.0057 N   0  0  0  0  0  0  0  0  0  0  0  0
   10.1284  -19.2203  -48.6532 C   0  0  0  0  0  0  0  0  0  0  0  0
   10.8793  -18.5035  -48.0430 O   0  0  0  0  0  0  0  0  0  0  0  0
    9.7581  -20.9655  -49.4571 H   0  0  0  0  0  0  0  0  0  0  0  0
   11.7442  -21.0059  -48.7738 C   0  0  0  0  0  0  0  0  0  0  0  0
   11.7063  -21.7457  -47.4419 C   0  0  0  0  0  0  0  0  0  0  0  0
   12.9295  -21.5019  -45.1672 C   0  0  0  0  0  0  0  0  0  0  0  0
   12.4110  -22.4368  -44.3229 C   0  0  0  0  0  0  0  0  0  0  0  0
   12.8897  -22.5311  -43.0415 C   0  0  0  0  0  0  0  0  0  0  0  0
   13.8832  -21.6937  -42.6132 C   0  0  0  0  0  0  0  0  0  0  0  0
   14.3886  -20.7565  -43.4628 C   0  0  0  0  0  0  0  0  0  0  0  0
   13.9055  -20.6731  -44.7277 C   0  0  0  0  0  0  0  0  0  0  0  0
   14.2275  -19.8923  -45.7031 N   0  0  0  0  0  0  0  0  0  0  0  0
   13.4900  -20.1795  -46.7399 C   0  0  0  0  0  0  0  0  0  0  0  0
   12.6792  -21.1517  -46.4549 C   0  0  0  0  0  0  0  0  0  0  0  0
   14.9189  -19.1922  -45.6701 H   0  0  0  0  0  0  0  0  0  0  0  0
 33 32  1  0  0  0
 33 42  1  0  0  0
 32 28  1  0  0  0
 42 34  1  0  0  0
 42 41  2  0  0  0
 28 29  1  0  0  0
  8  4  1  0  0  0
 35 34  2  0  0  0
 35 36  1  0  0  0
 30 29  2  0  0  0
 34 39  1  0  0  0
 41 40  1  0  0  0
 29 27  1  0  0  0
 36 37  2  0  0  0
  4  9  2  0  0  0
  4  3  1  0  0  0
 39 40  1  0  0  0
 39 38  2  0  0  0
  9  1  1  0  0  0
  7  3  1  0  0  0
  7  6  2  0  0  0
 27 26  1  0  0  0
  3  2  2  0  0  0
 37 38  1  0  0  0
  6 26  1  0  0  0
  6  5  1  0  0  0
  1 10  2  0  0  0
  2 10  1  0  0  0
  2  5  1  0  0  0
 25 24  2  0  0  0
  5 13  1  0  0  0
 24 23  2  0  0  0
 14 13  1  0  0  0
 14 19  1  0  0  0
 13 15  1  0  0  0
 22 23  1  0  0  0
 22 19  1  0  0  0
 15 17  1  0  0  0
 15 16  1  0  0  0
 19 17  1  0  0  0
 17 18  1  0  0  0
 40 43  1  0  0  0
 28 31  1  0  0  0
  8 11  1  0  0  0
  8 12  1  0  0  0
 16 20  1  0  0  0
 18 21  1  0  0  0
M  CHG 1  24   1
M  CHG 1  25  -1
M  END
> <minimizedAffinity>
-9.24512

$$$$
5DHU_5A8_A_302


 43 47  0  0  0  0  0  0  0  0999 V2000
   13.5367  -20.0264  -44.7140 C   0  0  0  0  0  0  0  0  0  0  0  0
   11.5668  -20.0404  -45.7820 C   0  0  0  0  0  0  0  0  0  0  0  0
   12.1966  -19.7139  -46.9292 C   0  0  0  0  0  0  0  0  0  0  0  0
   13.5494  -19.5286  -46.9161 C   0  0  0  0  0  0  0  0  0  0  0  0
   10.3097  -20.1457  -46.0306 N   0  0  0  0  0  0  0  0  0  0  0  0
   10.1456  -19.8844  -47.2844 C   0  0  0  0  0  0  0  0  0  0  0  0
   11.2828  -19.6225  -47.8448 N   0  0  0  0  0  0  0  0  0  0  0  0
   14.2225  -19.2084  -47.9692 N   0  0  0  0  0  0  0  0  0  0  0  0
   14.1772  -19.6968  -45.7963 N   0  0  0  0  0  0  0  0  0  0  0  0
   12.2564  -20.1967  -44.6901 N   0  0  0  0  0  0  0  0  0  0  0  0
   15.1975  -19.0852  -47.9116 H   0  0  0  0  0  0  0  0  0  0  0  0
   13.7610  -19.0873  -48.8304 H   0  0  0  0  0  0  0  0  0  0  0  0
    9.2915  -20.5109  -45.0846 C   0  0  0  0  0  0  0  0  0  0  0  0
    9.6821  -19.8483  -43.9307 O   0  0  0  0  0  0  0  0  0  0  0  0
    9.2717  -21.9762  -44.6930 C   0  0  0  0  0  0  0  0  0  0  0  0
    8.0196  -22.4600  -45.0121 O   0  0  0  0  0  0  0  0  0  0  0  0
    9.3702  -21.9512  -43.1891 C   0  0  0  0  0  0  0  0  0  0  0  0
    8.4238  -22.8242  -42.6137 O   0  0  0  0  0  0  0  0  0  0  0  0
    9.0335  -20.5040  -42.8922 C   0  0  0  0  0  0  0  0  0  0  0  0
    7.3430  -21.9177  -44.5773 H   0  0  0  0  0  0  0  0  0  0  0  0
    7.5361  -22.5911  -42.9275 H   0  0  0  0  0  0  0  0  0  0  0  0
    9.6945  -20.0989  -41.5844 C   0  0  0  0  0  0  0  0  0  0  0  0
    9.6261  -21.2048  -40.6288 N   0  0  0  0  0  0  0  0  0  0  0  0
   10.6573  -21.4895  -39.9206 N   0  0  0  0  0  0  0  0  0  0  0  0
   11.6865  -21.7760  -39.2116 N   0  0  0  0  0  0  0  0  0  0  0  0
    8.6688  -19.9161  -48.0502 S   0  0  0  0  0  0  0  0  0  0  0  0
    9.0788  -19.3233  -49.7248 C   0  0  0  0  0  0  0  0  0  0  0  0
    8.3007  -17.1526  -49.1678 N   0  0  0  0  0  0  0  0  0  0  0  0
    8.3702  -18.0311  -50.1074 C   0  0  0  0  0  0  0  0  0  0  0  0
    7.8987  -17.8541  -51.2011 O   0  0  0  0  0  0  0  0  0  0  0  0
    8.6633  -17.3870  -48.2830 H   0  0  0  0  0  0  0  0  0  0  0  0
    7.7179  -15.8393  -49.3431 C   0  0  0  0  0  0  0  0  0  0  0  0
    6.3345  -15.8397  -48.7038 C   0  0  0  0  0  0  0  0  0  0  0  0
    6.6601  -15.8232  -46.1301 C   0  0  0  0  0  0  0  0  0  0  0  0
    6.9813  -17.0917  -45.7514 C   0  0  0  0  0  0  0  0  0  0  0  0
    7.2157  -17.3639  -44.4282 C   0  0  0  0  0  0  0  0  0  0  0  0
    7.1300  -16.3685  -43.4936 C   0  0  0  0  0  0  0  0  0  0  0  0
    6.7993  -15.1053  -43.8818 C   0  0  0  0  0  0  0  0  0  0  0  0
    6.5690  -14.8495  -45.1941 C   0  0  0  0  0  0  0  0  0  0  0  0
    6.2605  -13.7514  -45.7972 N   0  0  0  0  0  0  0  0  0  0  0  0
    6.1386  -13.9866  -47.0743 C   0  0  0  0  0  0  0  0  0  0  0  0
    6.3674  -15.2399  -47.3208 C   0  0  0  0  0  0  0  0  0  0  0  0
    6.1371  -12.8764  -45.3631 H   0  0  0  0  0  0  0  0  0  0  0  0
 33 32  1  0  0  0
 33 42  1  0  0  0
 32 28  1  0  0  0
 42 34  1  0  0  0
 42 41  2  0  0  0
 28 29  1  0  0  0
  8  4  1  0  0  0
 35 34  2  0  0  0
 35 36  1  0  0  0
 30 29  2  0  0  0
 34 39  1  0  0  0
 41 40  1  0  0  0
 29 27  1  0  0  0
 36 37  2  0  0  0
  4  9  2  0  0  0
  4  3  1  0  0  0
 39 40  1  0  0  0
 39 38  2  0  0  0
  9  1  1  0  0  0
  7  3  1  0  0  0
  7  6  2  0  0  0
 27 26  1  0  0  0
  3  2  2  0  0  0
 37 38  1  0  0  0
  6 26  1  0  0  0
  6  5  1  0  0  0
  1 10  2  0  0  0
  2 10  1  0  0  0
  2  5  1  0  0  0
 25 24  2  0  0  0
  5 13  1  0  0  0
 24 23  2  0  0  0
 14 13  1  0  0  0
 14 19  1  0  0  0
 13 15  1  0  0  0
 22 23  1  0  0  0
 22 19  1  0  0  0
 15 17  1  0  0  0
 15 16  1  0  0  0
 19 17  1  0  0  0
 17 18  1  0  0  0
 40 43  1  0  0  0
 28 31  1  0  0  0
  8 11  1  0  0  0
  8 12  1  0  0  0
 16 20  1  0  0  0
 18 21  1  0  0  0
M  CHG 1  24   1
M  CHG 1  25  -1
M  END
> <minimizedAffinity>
-9.14511

$$$$
5DHU_5A8_A_302


 43 47  0  0  0  0  0  0  0  0999 V2000
    6.3931  -15.2735  -44.4683 C   0  0  0  0  0  0  0  0  0  0  0  0
    6.8044  -16.9006  -45.9531 C   0  0  0  0  0  0  0  0  0  0  0  0
    7.3606  -17.6420  -44.9731 C   0  0  0  0  0  0  0  0  0  0  0  0
    7.4300  -17.1298  -43.7092 C   0  0  0  0  0  0  0  0  0  0  0  0
    6.8644  -17.5729  -47.0476 N   0  0  0  0  0  0  0  0  0  0  0  0
    7.4470  -18.6927  -46.7759 C   0  0  0  0  0  0  0  0  0  0  0  0
    7.7523  -18.7510  -45.5193 N   0  0  0  0  0  0  0  0  0  0  0  0
    7.9529  -17.7732  -42.7207 N   0  0  0  0  0  0  0  0  0  0  0  0
    6.9350  -15.9518  -43.5006 N   0  0  0  0  0  0  0  0  0  0  0  0
    6.3231  -15.7241  -45.6770 N   0  0  0  0  0  0  0  0  0  0  0  0
    7.9807  -17.3632  -41.8261 H   0  0  0  0  0  0  0  0  0  0  0  0
    8.3240  -18.6742  -42.8610 H   0  0  0  0  0  0  0  0  0  0  0  0
    6.3523  -17.1533  -48.3230 C   0  0  0  0  0  0  0  0  0  0  0  0
    7.2359  -16.1546  -48.7035 O   0  0  0  0  0  0  0  0  0  0  0  0
    4.9997  -16.4681  -48.2804 C   0  0  0  0  0  0  0  0  0  0  0  0
    4.1520  -17.2032  -49.0831 O   0  0  0  0  0  0  0  0  0  0  0  0
    5.2387  -15.1505  -48.9726 C   0  0  0  0  0  0  0  0  0  0  0  0
    4.2164  -14.8871  -49.9078 O   0  0  0  0  0  0  0  0  0  0  0  0
    6.5611  -15.4125  -49.6643 C   0  0  0  0  0  0  0  0  0  0  0  0
    4.5353  -17.2829  -49.9706 H   0  0  0  0  0  0  0  0  0  0  0  0
    4.1533  -15.6249  -50.5342 H   0  0  0  0  0  0  0  0  0  0  0  0
    7.2934  -14.0933  -49.8509 C   0  0  0  0  0  0  0  0  0  0  0  0
    7.1895  -13.6591  -51.2443 N   0  0  0  0  0  0  0  0  0  0  0  0
    6.0311  -13.5460  -51.7838 N   0  0  0  0  0  0  0  0  0  0  0  0
    4.8744  -13.4321  -52.3253 N   0  0  0  0  0  0  0  0  0  0  0  0
    7.7261  -19.8866  -47.9007 S   0  0  0  0  0  0  0  0  0  0  0  0
    9.1989  -19.2666  -48.7784 C   0  0  0  0  0  0  0  0  0  0  0  0
   11.5046  -19.0283  -48.2738 N   0  0  0  0  0  0  0  0  0  0  0  0
   10.5087  -19.8454  -48.2611 C   0  0  0  0  0  0  0  0  0  0  0  0
   10.6057  -20.9849  -47.8845 O   0  0  0  0  0  0  0  0  0  0  0  0
   11.3631  -18.1271  -48.6439 H   0  0  0  0  0  0  0  0  0  0  0  0
   12.8205  -19.3643  -47.7731 C   0  0  0  0  0  0  0  0  0  0  0  0
   13.1011  -18.5029  -46.5476 C   0  0  0  0  0  0  0  0  0  0  0  0
   12.3687  -19.8195  -44.4356 C   0  0  0  0  0  0  0  0  0  0  0  0
   11.0172  -19.6917  -44.3235 C   0  0  0  0  0  0  0  0  0  0  0  0
   10.3635  -20.3029  -43.2847 C   0  0  0  0  0  0  0  0  0  0  0  0
   11.0628  -21.0384  -42.3673 C   0  0  0  0  0  0  0  0  0  0  0  0
   12.4153  -21.1524  -42.4835 C   0  0  0  0  0  0  0  0  0  0  0  0
   13.0499  -20.5420  -43.5155 C   0  0  0  0  0  0  0  0  0  0  0  0
   14.2983  -20.5162  -43.8404 N   0  0  0  0  0  0  0  0  0  0  0  0
   14.4428  -19.7980  -44.9196 C   0  0  0  0  0  0  0  0  0  0  0  0
   13.2912  -19.3478  -45.3132 C   0  0  0  0  0  0  0  0  0  0  0  0
   15.0251  -20.9663  -43.3521 H   0  0  0  0  0  0  0  0  0  0  0  0
 33 32  1  0  0  0
 33 42  1  0  0  0
 32 28  1  0  0  0
 42 34  1  0  0  0
 42 41  2  0  0  0
 28 29  1  0  0  0
  8  4  1  0  0  0
 35 34  2  0  0  0
 35 36  1  0  0  0
 30 29  2  0  0  0
 34 39  1  0  0  0
 41 40  1  0  0  0
 29 27  1  0  0  0
 36 37  2  0  0  0
  4  9  2  0  0  0
  4  3  1  0  0  0
 39 40  1  0  0  0
 39 38  2  0  0  0
  9  1  1  0  0  0
  7  3  1  0  0  0
  7  6  2  0  0  0
 27 26  1  0  0  0
  3  2  2  0  0  0
 37 38  1  0  0  0
  6 26  1  0  0  0
  6  5  1  0  0  0
  1 10  2  0  0  0
  2 10  1  0  0  0
  2  5  1  0  0  0
 25 24  2  0  0  0
  5 13  1  0  0  0
 24 23  2  0  0  0
 14 13  1  0  0  0
 14 19  1  0  0  0
 13 15  1  0  0  0
 22 23  1  0  0  0
 22 19  1  0  0  0
 15 17  1  0  0  0
 15 16  1  0  0  0
 19 17  1  0  0  0
 17 18  1  0  0  0
 40 43  1  0  0  0
 28 31  1  0  0  0
  8 11  1  0  0  0
  8 12  1  0  0  0
 16 20  1  0  0  0
 18 21  1  0  0  0
M  CHG 1  24   1
M  CHG 1  25  -1
M  END
> <minimizedAffinity>
-9.05052

$$$$
5DHU_5A8_A_302


 43 47  0  0  0  0  0  0  0  0999 V2000
    7.1181  -16.5826  -45.7294 C   0  0  0  0  0  0  0  0  0  0  0  0
    8.9158  -17.9134  -45.8639 C   0  0  0  0  0  0  0  0  0  0  0  0
    9.1672  -17.4340  -47.0994 C   0  0  0  0  0  0  0  0  0  0  0  0
    8.3222  -16.5061  -47.6376 C   0  0  0  0  0  0  0  0  0  0  0  0
    9.8243  -18.7768  -45.5764 N   0  0  0  0  0  0  0  0  0  0  0  0
   10.6150  -18.8518  -46.5944 C   0  0  0  0  0  0  0  0  0  0  0  0
   10.2307  -18.0404  -47.5269 N   0  0  0  0  0  0  0  0  0  0  0  0
    8.4904  -16.0053  -48.8146 N   0  0  0  0  0  0  0  0  0  0  0  0
    7.3188  -16.1078  -46.9229 N   0  0  0  0  0  0  0  0  0  0  0  0
    7.8910  -17.4700  -45.1966 N   0  0  0  0  0  0  0  0  0  0  0  0
    7.8546  -15.3383  -49.1613 H   0  0  0  0  0  0  0  0  0  0  0  0
    9.2546  -16.2901  -49.3662 H   0  0  0  0  0  0  0  0  0  0  0  0
    9.9394  -19.4981  -44.3389 C   0  0  0  0  0  0  0  0  0  0  0  0
    8.6623  -20.0043  -44.1500 O   0  0  0  0  0  0  0  0  0  0  0  0
   10.1930  -18.6400  -43.1141 C   0  0  0  0  0  0  0  0  0  0  0  0
   11.3733  -19.0813  -42.5523 O   0  0  0  0  0  0  0  0  0  0  0  0
    9.0806  -19.0179  -42.1697 C   0  0  0  0  0  0  0  0  0  0  0  0
    9.5847  -19.2437  -40.8721 O   0  0  0  0  0  0  0  0  0  0  0  0
    8.5816  -20.3041  -42.7962 C   0  0  0  0  0  0  0  0  0  0  0  0
   11.3096  -20.0322  -42.3716 H   0  0  0  0  0  0  0  0  0  0  0  0
   10.2807  -19.9184  -40.9084 H   0  0  0  0  0  0  0  0  0  0  0  0
    7.1173  -20.4963  -42.4355 C   0  0  0  0  0  0  0  0  0  0  0  0
    6.5517  -21.5947  -43.2193 N   0  0  0  0  0  0  0  0  0  0  0  0
    6.8540  -22.8044  -42.9175 N   0  0  0  0  0  0  0  0  0  0  0  0
    7.1545  -24.0144  -42.6178 N   0  0  0  0  0  0  0  0  0  0  0  0
   11.9504  -19.8424  -46.6571 S   0  0  0  0  0  0  0  0  0  0  0  0
   13.2170  -18.8539  -45.7954 C   0  0  0  0  0  0  0  0  0  0  0  0
   13.4526  -20.3919  -44.0047 N   0  0  0  0  0  0  0  0  0  0  0  0
   14.0950  -19.6687  -44.8556 C   0  0  0  0  0  0  0  0  0  0  0  0
   15.2976  -19.6256  -44.8975 O   0  0  0  0  0  0  0  0  0  0  0  0
   12.4696  -20.3374  -43.9951 H   0  0  0  0  0  0  0  0  0  0  0  0
   14.0986  -21.2803  -43.0621 C   0  0  0  0  0  0  0  0  0  0  0  0
   13.1867  -22.4795  -42.8317 C   0  0  0  0  0  0  0  0  0  0  0  0
   12.9021  -22.1568  -40.2733 C   0  0  0  0  0  0  0  0  0  0  0  0
   14.1481  -22.0348  -39.7365 C   0  0  0  0  0  0  0  0  0  0  0  0
   14.2873  -21.8459  -38.3856 C   0  0  0  0  0  0  0  0  0  0  0  0
   13.1826  -21.7780  -37.5813 C   0  0  0  0  0  0  0  0  0  0  0  0
   11.9415  -21.9101  -38.1272 C   0  0  0  0  0  0  0  0  0  0  0  0
   11.8178  -22.0975  -39.4651 C   0  0  0  0  0  0  0  0  0  0  0  0
   10.7685  -22.2329  -40.2037 N   0  0  0  0  0  0  0  0  0  0  0  0
   11.1384  -22.3889  -41.4447 C   0  0  0  0  0  0  0  0  0  0  0  0
   12.4327  -22.3555  -41.5319 C   0  0  0  0  0  0  0  0  0  0  0  0
    9.8381  -22.2205  -39.8821 H   0  0  0  0  0  0  0  0  0  0  0  0
 33 32  1  0  0  0
 33 42  1  0  0  0
 32 28  1  0  0  0
 42 34  1  0  0  0
 42 41  2  0  0  0
 28 29  1  0  0  0
  8  4  1  0  0  0
 35 34  2  0  0  0
 35 36  1  0  0  0
 30 29  2  0  0  0
 34 39  1  0  0  0
 41 40  1  0  0  0
 29 27  1  0  0  0
 36 37  2  0  0  0
  4  9  2  0  0  0
  4  3  1  0  0  0
 39 40  1  0  0  0
 39 38  2  0  0  0
  9  1  1  0  0  0
  7  3  1  0  0  0
  7  6  2  0  0  0
 27 26  1  0  0  0
  3  2  2  0  0  0
 37 38  1  0  0  0
  6 26  1  0  0  0
  6  5  1  0  0  0
  1 10  2  0  0  0
  2 10  1  0  0  0
  2  5  1  0  0  0
 25 24  2  0  0  0
  5 13  1  0  0  0
 24 23  2  0  0  0
 14 13  1  0  0  0
 14 19  1  0  0  0
 13 15  1  0  0  0
 22 23  1  0  0  0
 22 19  1  0  0  0
 15 17  1  0  0  0
 15 16  1  0  0  0
 19 17  1  0  0  0
 17 18  1  0  0  0
 40 43  1  0  0  0
 28 31  1  0  0  0
  8 11  1  0  0  0
  8 12  1  0  0  0
 16 20  1  0  0  0
 18 21  1  0  0  0
M  CHG 1  24   1
M  CHG 1  25  -1
M  END
> <minimizedAffinity>
-9.01381

$$$$
5DHU_5A8_A_302


 43 47  0  0  0  0  0  0  0  0999 V2000
   10.7052  -22.4274  -45.8537 C   0  0  0  0  0  0  0  0  0  0  0  0
    9.3585  -22.1661  -44.0819 C   0  0  0  0  0  0  0  0  0  0  0  0
    8.4553  -21.5486  -44.8708 C   0  0  0  0  0  0  0  0  0  0  0  0
    8.7399  -21.3697  -46.1942 C   0  0  0  0  0  0  0  0  0  0  0  0
    8.8862  -22.2058  -42.8866 N   0  0  0  0  0  0  0  0  0  0  0  0
    7.7332  -21.6253  -42.9127 C   0  0  0  0  0  0  0  0  0  0  0  0
    7.4560  -21.2227  -44.1114 N   0  0  0  0  0  0  0  0  0  0  0  0
    7.9319  -20.7828  -47.0111 N   0  0  0  0  0  0  0  0  0  0  0  0
    9.8664  -21.8239  -46.6426 N   0  0  0  0  0  0  0  0  0  0  0  0
   10.4717  -22.6014  -44.5952 N   0  0  0  0  0  0  0  0  0  0  0  0
    8.1802  -20.6765  -47.9578 H   0  0  0  0  0  0  0  0  0  0  0  0
    7.0670  -20.4414  -46.6877 H   0  0  0  0  0  0  0  0  0  0  0  0
    9.5235  -22.8089  -41.7486 C   0  0  0  0  0  0  0  0  0  0  0  0
   10.6276  -21.9964  -41.5393 O   0  0  0  0  0  0  0  0  0  0  0  0
   10.1069  -24.1876  -41.9925 C   0  0  0  0  0  0  0  0  0  0  0  0
    9.5007  -25.0442  -41.0969 O   0  0  0  0  0  0  0  0  0  0  0  0
   11.5484  -24.0508  -41.5733 C   0  0  0  0  0  0  0  0  0  0  0  0
   11.9352  -25.1360  -40.7597 O   0  0  0  0  0  0  0  0  0  0  0  0
   11.5076  -22.7591  -40.7823 C   0  0  0  0  0  0  0  0  0  0  0  0
    9.6234  -24.7087  -40.1950 H   0  0  0  0  0  0  0  0  0  0  0  0
   11.3360  -25.1999  -39.9996 H   0  0  0  0  0  0  0  0  0  0  0  0
   12.8773  -22.1016  -40.8350 C   0  0  0  0  0  0  0  0  0  0  0  0
   13.5556  -22.4633  -42.0799 N   0  0  0  0  0  0  0  0  0  0  0  0
   14.4862  -21.7053  -42.5331 N   0  0  0  0  0  0  0  0  0  0  0  0
   15.4166  -20.9495  -42.9881 N   0  0  0  0  0  0  0  0  0  0  0  0
    6.7512  -21.4589  -41.5798 S   0  0  0  0  0  0  0  0  0  0  0  0
    6.7775  -19.6589  -41.2913 C   0  0  0  0  0  0  0  0  0  0  0  0
    8.1387  -18.3096  -42.6891 N   0  0  0  0  0  0  0  0  0  0  0  0
    8.1171  -19.0078  -41.6067 C   0  0  0  0  0  0  0  0  0  0  0  0
    9.0843  -19.1500  -40.9037 O   0  0  0  0  0  0  0  0  0  0  0  0
    7.3240  -18.2803  -43.2409 H   0  0  0  0  0  0  0  0  0  0  0  0
    9.2967  -17.5658  -43.1374 C   0  0  0  0  0  0  0  0  0  0  0  0
    9.6101  -17.9841  -44.5689 C   0  0  0  0  0  0  0  0  0  0  0  0
   11.7420  -18.9304  -45.7047 C   0  0  0  0  0  0  0  0  0  0  0  0
   11.7070  -18.5560  -47.0140 C   0  0  0  0  0  0  0  0  0  0  0  0
   12.7295  -18.9234  -47.8503 C   0  0  0  0  0  0  0  0  0  0  0  0
   13.7797  -19.6593  -47.3736 C   0  0  0  0  0  0  0  0  0  0  0  0
   13.8005  -20.0360  -46.0646 C   0  0  0  0  0  0  0  0  0  0  0  0
   12.7821  -19.6666  -45.2480 C   0  0  0  0  0  0  0  0  0  0  0  0
   12.5874  -19.8861  -43.9916 N   0  0  0  0  0  0  0  0  0  0  0  0
   11.4624  -19.3326  -43.6319 C   0  0  0  0  0  0  0  0  0  0  0  0
   10.9100  -18.7441  -44.6479 C   0  0  0  0  0  0  0  0  0  0  0  0
   13.1910  -20.3903  -43.3994 H   0  0  0  0  0  0  0  0  0  0  0  0
 33 32  1  0  0  0
 33 42  1  0  0  0
 32 28  1  0  0  0
 42 34  1  0  0  0
 42 41  2  0  0  0
 28 29  1  0  0  0
  8  4  1  0  0  0
 35 34  2  0  0  0
 35 36  1  0  0  0
 30 29  2  0  0  0
 34 39  1  0  0  0
 41 40  1  0  0  0
 29 27  1  0  0  0
 36 37  2  0  0  0
  4  9  2  0  0  0
  4  3  1  0  0  0
 39 40  1  0  0  0
 39 38  2  0  0  0
  9  1  1  0  0  0
  7  3  1  0  0  0
  7  6  2  0  0  0
 27 26  1  0  0  0
  3  2  2  0  0  0
 37 38  1  0  0  0
  6 26  1  0  0  0
  6  5  1  0  0  0
  1 10  2  0  0  0
  2 10  1  0  0  0
  2  5  1  0  0  0
 25 24  2  0  0  0
  5 13  1  0  0  0
 24 23  2  0  0  0
 14 13  1  0  0  0
 14 19  1  0  0  0
 13 15  1  0  0  0
 22 23  1  0  0  0
 22 19  1  0  0  0
 15 17  1  0  0  0
 15 16  1  0  0  0
 19 17  1  0  0  0
 17 18  1  0  0  0
 40 43  1  0  0  0
 28 31  1  0  0  0
  8 11  1  0  0  0
  8 12  1  0  0  0
 16 20  1  0  0  0
 18 21  1  0  0  0
M  CHG 1  24   1
M  CHG 1  25  -1
M  END
> <minimizedAffinity>
-9.01151

$$$$
5DHU_5A8_A_302


 43 47  0  0  0  0  0  0  0  0999 V2000
   14.4974  -22.3202  -39.9594 C   0  0  0  0  0  0  0  0  0  0  0  0
   12.3115  -22.5722  -40.3828 C   0  0  0  0  0  0  0  0  0  0  0  0
   12.0251  -22.0206  -39.1857 C   0  0  0  0  0  0  0  0  0  0  0  0
   13.0490  -21.6351  -38.3687 C   0  0  0  0  0  0  0  0  0  0  0  0
   11.2030  -22.8679  -40.9635 N   0  0  0  0  0  0  0  0  0  0  0  0
   10.2498  -22.5286  -40.1614 C   0  0  0  0  0  0  0  0  0  0  0  0
   10.7329  -22.0100  -39.0781 N   0  0  0  0  0  0  0  0  0  0  0  0
   12.8573  -21.1071  -37.2073 N   0  0  0  0  0  0  0  0  0  0  0  0
   14.2616  -21.7983  -38.7922 N   0  0  0  0  0  0  0  0  0  0  0  0
   13.5521  -22.7066  -40.7504 N   0  0  0  0  0  0  0  0  0  0  0  0
   13.6272  -20.8445  -36.6528 H   0  0  0  0  0  0  0  0  0  0  0  0
   11.9411  -20.9667  -36.8756 H   0  0  0  0  0  0  0  0  0  0  0  0
   11.0654  -23.4458  -42.2720 C   0  0  0  0  0  0  0  0  0  0  0  0
   11.6553  -24.6926  -42.1288 O   0  0  0  0  0  0  0  0  0  0  0  0
   11.8709  -22.7675  -43.3638 C   0  0  0  0  0  0  0  0  0  0  0  0
   10.9739  -22.3580  -44.3288 O   0  0  0  0  0  0  0  0  0  0  0  0
   12.6878  -23.8854  -43.9596 C   0  0  0  0  0  0  0  0  0  0  0  0
   12.6351  -23.8442  -45.3683 O   0  0  0  0  0  0  0  0  0  0  0  0
   11.9663  -25.1031  -43.4188 C   0  0  0  0  0  0  0  0  0  0  0  0
   10.4510  -23.1184  -44.6275 H   0  0  0  0  0  0  0  0  0  0  0  0
   11.7097  -23.8707  -45.6581 H   0  0  0  0  0  0  0  0  0  0  0  0
   12.9467  -26.2615  -43.3285 C   0  0  0  0  0  0  0  0  0  0  0  0
   13.0773  -26.9059  -44.6356 N   0  0  0  0  0  0  0  0  0  0  0  0
   14.1634  -26.7615  -45.3030 N   0  0  0  0  0  0  0  0  0  0  0  0
   15.2478  -26.6186  -45.9721 N   0  0  0  0  0  0  0  0  0  0  0  0
    8.6344  -22.7179  -40.5123 S   0  0  0  0  0  0  0  0  0  0  0  0
    8.1209  -21.0215  -40.9394 C   0  0  0  0  0  0  0  0  0  0  0  0
    8.3842  -19.6008  -42.8208 N   0  0  0  0  0  0  0  0  0  0  0  0
    8.0130  -20.7734  -42.4377 C   0  0  0  0  0  0  0  0  0  0  0  0
    7.5972  -21.6069  -43.2007 O   0  0  0  0  0  0  0  0  0  0  0  0
    8.6645  -18.9533  -42.1342 H   0  0  0  0  0  0  0  0  0  0  0  0
    8.4114  -19.1843  -44.2068 C   0  0  0  0  0  0  0  0  0  0  0  0
    9.3938  -18.0268  -44.3401 C   0  0  0  0  0  0  0  0  0  0  0  0
   11.4401  -18.6673  -45.8005 C   0  0  0  0  0  0  0  0  0  0  0  0
   12.3670  -19.2331  -44.9781 C   0  0  0  0  0  0  0  0  0  0  0  0
   13.5561  -19.6731  -45.5002 C   0  0  0  0  0  0  0  0  0  0  0  0
   13.8102  -19.5472  -46.8386 C   0  0  0  0  0  0  0  0  0  0  0  0
   12.8800  -18.9718  -47.6507 C   0  0  0  0  0  0  0  0  0  0  0  0
   11.7080  -18.5399  -47.1212 C   0  0  0  0  0  0  0  0  0  0  0  0
   10.6849  -17.9857  -47.6787 N   0  0  0  0  0  0  0  0  0  0  0  0
    9.7830  -17.7431  -46.7682 C   0  0  0  0  0  0  0  0  0  0  0  0
   10.2053  -18.1371  -45.6061 C   0  0  0  0  0  0  0  0  0  0  0  0
   10.5988  -17.7791  -48.6375 H   0  0  0  0  0  0  0  0  0  0  0  0
 33 32  1  0  0  0
 33 42  1  0  0  0
 32 28  1  0  0  0
 42 34  1  0  0  0
 42 41  2  0  0  0
 28 29  1  0  0  0
  8  4  1  0  0  0
 35 34  2  0  0  0
 35 36  1  0  0  0
 30 29  2  0  0  0
 34 39  1  0  0  0
 41 40  1  0  0  0
 29 27  1  0  0  0
 36 37  2  0  0  0
  4  9  2  0  0  0
  4  3  1  0  0  0
 39 40  1  0  0  0
 39 38  2  0  0  0
  9  1  1  0  0  0
  7  3  1  0  0  0
  7  6  2  0  0  0
 27 26  1  0  0  0
  3  2  2  0  0  0
 37 38  1  0  0  0
  6 26  1  0  0  0
  6  5  1  0  0  0
  1 10  2  0  0  0
  2 10  1  0  0  0
  2  5  1  0  0  0
 25 24  2  0  0  0
  5 13  1  0  0  0
 24 23  2  0  0  0
 14 13  1  0  0  0
 14 19  1  0  0  0
 13 15  1  0  0  0
 22 23  1  0  0  0
 22 19  1  0  0  0
 15 17  1  0  0  0
 15 16  1  0  0  0
 19 17  1  0  0  0
 17 18  1  0  0  0
 40 43  1  0  0  0
 28 31  1  0  0  0
  8 11  1  0  0  0
  8 12  1  0  0  0
 16 20  1  0  0  0
 18 21  1  0  0  0
M  CHG 1  24   1
M  CHG 1  25  -1
M  END
> <minimizedAffinity>
-8.99484

$$$$
5DHU_5A8_A_302


 43 47  0  0  0  0  0  0  0  0999 V2000
    5.9239  -14.1185  -46.5289 C   0  0  0  0  0  0  0  0  0  0  0  0
    7.2090  -15.9533  -46.4708 C   0  0  0  0  0  0  0  0  0  0  0  0
    7.2984  -15.8373  -45.1300 C   0  0  0  0  0  0  0  0  0  0  0  0
    6.6740  -14.7936  -44.5093 C   0  0  0  0  0  0  0  0  0  0  0  0
    7.8815  -16.9889  -46.8295 N   0  0  0  0  0  0  0  0  0  0  0  0
    8.3884  -17.5038  -45.7594 C   0  0  0  0  0  0  0  0  0  0  0  0
    8.0413  -16.8172  -44.7183 N   0  0  0  0  0  0  0  0  0  0  0  0
    6.7183  -14.6100  -43.2330 N   0  0  0  0  0  0  0  0  0  0  0  0
    5.9993  -13.9648  -45.2402 N   0  0  0  0  0  0  0  0  0  0  0  0
    6.5131  -15.0873  -47.1477 N   0  0  0  0  0  0  0  0  0  0  0  0
    6.2521  -13.8424  -42.8296 H   0  0  0  0  0  0  0  0  0  0  0  0
    7.2184  -15.2374  -42.6625 H   0  0  0  0  0  0  0  0  0  0  0  0
    8.0150  -17.4832  -48.1722 C   0  0  0  0  0  0  0  0  0  0  0  0
    8.0652  -16.3234  -48.9307 O   0  0  0  0  0  0  0  0  0  0  0  0
    6.8095  -18.2339  -48.7052 C   0  0  0  0  0  0  0  0  0  0  0  0
    7.2445  -19.4960  -49.0534 O   0  0  0  0  0  0  0  0  0  0  0  0
    6.4681  -17.5112  -49.9832 C   0  0  0  0  0  0  0  0  0  0  0  0
    6.2386  -18.4299  -51.0284 O   0  0  0  0  0  0  0  0  0  0  0  0
    7.7339  -16.7133  -50.2219 C   0  0  0  0  0  0  0  0  0  0  0  0
    7.9822  -19.4226  -49.6791 H   0  0  0  0  0  0  0  0  0  0  0  0
    7.0124  -19.0064  -51.1278 H   0  0  0  0  0  0  0  0  0  0  0  0
    7.3918  -15.4683  -51.0244 C   0  0  0  0  0  0  0  0  0  0  0  0
    5.9479  -15.2342  -50.9885 N   0  0  0  0  0  0  0  0  0  0  0  0
    5.3502  -14.8233  -52.0467 N   0  0  0  0  0  0  0  0  0  0  0  0
    4.7505  -14.4126  -53.1030 N   0  0  0  0  0  0  0  0  0  0  0  0
    9.3291  -18.8763  -45.7496 S   0  0  0  0  0  0  0  0  0  0  0  0
    9.0544  -19.5320  -44.0708 C   0  0  0  0  0  0  0  0  0  0  0  0
   10.8692  -20.6689  -43.0501 N   0  0  0  0  0  0  0  0  0  0  0  0
   10.3017  -19.5218  -43.1978 C   0  0  0  0  0  0  0  0  0  0  0  0
   10.7140  -18.5189  -42.6745 O   0  0  0  0  0  0  0  0  0  0  0  0
   10.4463  -21.4548  -43.4659 H   0  0  0  0  0  0  0  0  0  0  0  0
   12.0951  -20.8643  -42.3058 C   0  0  0  0  0  0  0  0  0  0  0  0
   13.0265  -21.7381  -43.1372 C   0  0  0  0  0  0  0  0  0  0  0  0
   12.9715  -21.2894  -45.6919 C   0  0  0  0  0  0  0  0  0  0  0  0
   12.1009  -22.1800  -46.2438 C   0  0  0  0  0  0  0  0  0  0  0  0
   11.8763  -22.1573  -47.5962 C   0  0  0  0  0  0  0  0  0  0  0  0
   12.5203  -21.2452  -48.3869 C   0  0  0  0  0  0  0  0  0  0  0  0
   13.3956  -20.3649  -47.8261 C   0  0  0  0  0  0  0  0  0  0  0  0
   13.6094  -20.3986  -46.4868 C   0  0  0  0  0  0  0  0  0  0  0  0
   14.3660  -19.6719  -45.7356 N   0  0  0  0  0  0  0  0  0  0  0  0
   14.2471  -20.0700  -44.4992 C   0  0  0  0  0  0  0  0  0  0  0  0
   13.4109  -21.0597  -44.4278 C   0  0  0  0  0  0  0  0  0  0  0  0
   14.9406  -18.9352  -46.0459 H   0  0  0  0  0  0  0  0  0  0  0  0
 33 32  1  0  0  0
 33 42  1  0  0  0
 32 28  1  0  0  0
 42 34  1  0  0  0
 42 41  2  0  0  0
 28 29  1  0  0  0
  8  4  1  0  0  0
 35 34  2  0  0  0
 35 36  1  0  0  0
 30 29  2  0  0  0
 34 39  1  0  0  0
 41 40  1  0  0  0
 29 27  1  0  0  0
 36 37  2  0  0  0
  4  9  2  0  0  0
  4  3  1  0  0  0
 39 40  1  0  0  0
 39 38  2  0  0  0
  9  1  1  0  0  0
  7  3  1  0  0  0
  7  6  2  0  0  0
 27 26  1  0  0  0
  3  2  2  0  0  0
 37 38  1  0  0  0
  6 26  1  0  0  0
  6  5  1  0  0  0
  1 10  2  0  0  0
  2 10  1  0  0  0
  2  5  1  0  0  0
 25 24  2  0  0  0
  5 13  1  0  0  0
 24 23  2  0  0  0
 14 13  1  0  0  0
 14 19  1  0  0  0
 13 15  1  0  0  0
 22 23  1  0  0  0
 22 19  1  0  0  0
 15 17  1  0  0  0
 15 16  1  0  0  0
 19 17  1  0  0  0
 17 18  1  0  0  0
 40 43  1  0  0  0
 28 31  1  0  0  0
  8 11  1  0  0  0
  8 12  1  0  0  0
 16 20  1  0  0  0
 18 21  1  0  0  0
M  CHG 1  24   1
M  CHG 1  25  -1
M  END
> <minimizedAffinity>
-8.99445

$$$$
5DHU_5A8_A_302


 43 47  0  0  0  0  0  0  0  0999 V2000
    6.9248  -16.1114  -44.5376 C   0  0  0  0  0  0  0  0  0  0  0  0
    8.2521  -17.2426  -45.9446 C   0  0  0  0  0  0  0  0  0  0  0  0
    8.9706  -17.6888  -44.8939 C   0  0  0  0  0  0  0  0  0  0  0  0
    8.6261  -17.2890  -43.6345 C   0  0  0  0  0  0  0  0  0  0  0  0
    8.7650  -17.7316  -47.0176 N   0  0  0  0  0  0  0  0  0  0  0  0
    9.7772  -18.4505  -46.6632 C   0  0  0  0  0  0  0  0  0  0  0  0
    9.9139  -18.4367  -45.3760 N   0  0  0  0  0  0  0  0  0  0  0  0
    9.2673  -17.6660  -42.5802 N   0  0  0  0  0  0  0  0  0  0  0  0
    7.6019  -16.5083  -43.5012 N   0  0  0  0  0  0  0  0  0  0  0  0
    7.2321  -16.4610  -45.7426 N   0  0  0  0  0  0  0  0  0  0  0  0
    8.9821  -17.3516  -41.6919 H   0  0  0  0  0  0  0  0  0  0  0  0
   10.0418  -18.2679  -42.6641 H   0  0  0  0  0  0  0  0  0  0  0  0
    8.2770  -17.5269  -48.3536 C   0  0  0  0  0  0  0  0  0  0  0  0
    8.2377  -16.1453  -48.4659 O   0  0  0  0  0  0  0  0  0  0  0  0
    6.8453  -17.9682  -48.5912 C   0  0  0  0  0  0  0  0  0  0  0  0
    6.8765  -18.9023  -49.6061 O   0  0  0  0  0  0  0  0  0  0  0  0
    6.1721  -16.7360  -49.1395 C   0  0  0  0  0  0  0  0  0  0  0  0
    5.3946  -17.0558  -50.2718 O   0  0  0  0  0  0  0  0  0  0  0  0
    7.3681  -15.8859  -49.5174 C   0  0  0  0  0  0  0  0  0  0  0  0
    7.3146  -18.5211  -50.3831 H   0  0  0  0  0  0  0  0  0  0  0  0
    5.9519  -17.4950  -50.9332 H   0  0  0  0  0  0  0  0  0  0  0  0
    6.9724  -14.4192  -49.4598 C   0  0  0  0  0  0  0  0  0  0  0  0
    5.7547  -14.2630  -48.6639 N   0  0  0  0  0  0  0  0  0  0  0  0
    5.8180  -13.6761  -47.5248 N   0  0  0  0  0  0  0  0  0  0  0  0
    5.8786  -13.0899  -46.3861 N   0  0  0  0  0  0  0  0  0  0  0  0
   10.7360  -19.2892  -47.7338 S   0  0  0  0  0  0  0  0  0  0  0  0
   12.3058  -18.3645  -47.6671 C   0  0  0  0  0  0  0  0  0  0  0  0
   13.2073  -19.1621  -45.6228 N   0  0  0  0  0  0  0  0  0  0  0  0
   13.4050  -19.0793  -46.8932 C   0  0  0  0  0  0  0  0  0  0  0  0
   14.3896  -19.5185  -47.4293 O   0  0  0  0  0  0  0  0  0  0  0  0
   12.4038  -18.7345  -45.2476 H   0  0  0  0  0  0  0  0  0  0  0  0
   14.1033  -19.8499  -44.7177 C   0  0  0  0  0  0  0  0  0  0  0  0
   13.4147  -21.1212  -44.2360 C   0  0  0  0  0  0  0  0  0  0  0  0
   13.1217  -21.7094  -41.7263 C   0  0  0  0  0  0  0  0  0  0  0  0
   11.7908  -21.6413  -41.4440 C   0  0  0  0  0  0  0  0  0  0  0  0
   11.3536  -21.9158  -40.1738 C   0  0  0  0  0  0  0  0  0  0  0  0
   12.2471  -22.2582  -39.1959 C   0  0  0  0  0  0  0  0  0  0  0  0
   13.5767  -22.3146  -39.4866 C   0  0  0  0  0  0  0  0  0  0  0  0
   13.9961  -22.0399  -40.7472 C   0  0  0  0  0  0  0  0  0  0  0  0
   15.1799  -22.0407  -41.2605 N   0  0  0  0  0  0  0  0  0  0  0  0
   15.0982  -21.7125  -42.5202 C   0  0  0  0  0  0  0  0  0  0  0  0
   13.8607  -21.4952  -42.8450 C   0  0  0  0  0  0  0  0  0  0  0  0
   16.0114  -22.2547  -40.7786 H   0  0  0  0  0  0  0  0  0  0  0  0
 33 32  1  0  0  0
 33 42  1  0  0  0
 32 28  1  0  0  0
 42 34  1  0  0  0
 42 41  2  0  0  0
 28 29  1  0  0  0
  8  4  1  0  0  0
 35 34  2  0  0  0
 35 36  1  0  0  0
 30 29  2  0  0  0
 34 39  1  0  0  0
 41 40  1  0  0  0
 29 27  1  0  0  0
 36 37  2  0  0  0
  4  9  2  0  0  0
  4  3  1  0  0  0
 39 40  1  0  0  0
 39 38  2  0  0  0
  9  1  1  0  0  0
  7  3  1  0  0  0
  7  6  2  0  0  0
 27 26  1  0  0  0
  3  2  2  0  0  0
 37 38  1  0  0  0
  6 26  1  0  0  0
  6  5  1  0  0  0
  1 10  2  0  0  0
  2 10  1  0  0  0
  2  5  1  0  0  0
 25 24  2  0  0  0
  5 13  1  0  0  0
 24 23  2  0  0  0
 14 13  1  0  0  0
 14 19  1  0  0  0
 13 15  1  0  0  0
 22 23  1  0  0  0
 22 19  1  0  0  0
 15 17  1  0  0  0
 15 16  1  0  0  0
 19 17  1  0  0  0
 17 18  1  0  0  0
 40 43  1  0  0  0
 28 31  1  0  0  0
  8 11  1  0  0  0
  8 12  1  0  0  0
 16 20  1  0  0  0
 18 21  1  0  0  0
M  CHG 1  24   1
M  CHG 1  25  -1
M  END
> <minimizedAffinity>
-8.99270

$$$$
5DHU_5A8_A_302


 43 47  0  0  0  0  0  0  0  0999 V2000
   13.0174  -18.9340  -47.6398 C   0  0  0  0  0  0  0  0  0  0  0  0
   11.5127  -18.8832  -45.9802 C   0  0  0  0  0  0  0  0  0  0  0  0
   12.4965  -19.1351  -45.0925 C   0  0  0  0  0  0  0  0  0  0  0  0
   13.7737  -19.3039  -45.5450 C   0  0  0  0  0  0  0  0  0  0  0  0
   10.4061  -18.7796  -45.3336 N   0  0  0  0  0  0  0  0  0  0  0  0
   10.6745  -18.9704  -44.0851 C   0  0  0  0  0  0  0  0  0  0  0  0
   11.9407  -19.1851  -43.9220 N   0  0  0  0  0  0  0  0  0  0  0  0
   14.7671  -19.5543  -44.7607 N   0  0  0  0  0  0  0  0  0  0  0  0
   13.9899  -19.1926  -46.8167 N   0  0  0  0  0  0  0  0  0  0  0  0
   11.7967  -18.7815  -47.2455 N   0  0  0  0  0  0  0  0  0  0  0  0
   15.6714  -19.6683  -45.1327 H   0  0  0  0  0  0  0  0  0  0  0  0
   14.6207  -19.6314  -43.7902 H   0  0  0  0  0  0  0  0  0  0  0  0
    9.1213  -18.4824  -45.9046 C   0  0  0  0  0  0  0  0  0  0  0  0
    9.0896  -19.2791  -47.0393 O   0  0  0  0  0  0  0  0  0  0  0  0
    8.9609  -17.0681  -46.4288 C   0  0  0  0  0  0  0  0  0  0  0  0
    7.8957  -16.5084  -45.7539 O   0  0  0  0  0  0  0  0  0  0  0  0
    8.5313  -17.2586  -47.8610 C   0  0  0  0  0  0  0  0  0  0  0  0
    7.4405  -16.4194  -48.1692 O   0  0  0  0  0  0  0  0  0  0  0  0
    8.1182  -18.7164  -47.8571 C   0  0  0  0  0  0  0  0  0  0  0  0
    7.1123  -17.0698  -45.8638 H   0  0  0  0  0  0  0  0  0  0  0  0
    6.7179  -16.5855  -47.5438 H   0  0  0  0  0  0  0  0  0  0  0  0
    8.2855  -19.2833  -49.2578 C   0  0  0  0  0  0  0  0  0  0  0  0
    8.9502  -18.3021  -50.1158 N   0  0  0  0  0  0  0  0  0  0  0  0
    8.3270  -17.8309  -51.1334 N   0  0  0  0  0  0  0  0  0  0  0  0
    7.7063  -17.3585  -52.1510 N   0  0  0  0  0  0  0  0  0  0  0  0
    9.5342  -18.9132  -42.8747 S   0  0  0  0  0  0  0  0  0  0  0  0
    9.1891  -20.6777  -42.5727 C   0  0  0  0  0  0  0  0  0  0  0  0
   11.1125  -21.3569  -41.3615 N   0  0  0  0  0  0  0  0  0  0  0  0
    9.8329  -21.2190  -41.3036 C   0  0  0  0  0  0  0  0  0  0  0  0
    9.1898  -21.5094  -40.3280 O   0  0  0  0  0  0  0  0  0  0  0  0
   11.5657  -21.1477  -42.2101 H   0  0  0  0  0  0  0  0  0  0  0  0
   11.9195  -21.8030  -40.2457 C   0  0  0  0  0  0  0  0  0  0  0  0
   12.4685  -23.1861  -40.5742 C   0  0  0  0  0  0  0  0  0  0  0  0
   14.7469  -24.0821  -41.4326 C   0  0  0  0  0  0  0  0  0  0  0  0
   14.5531  -25.3684  -41.8370 C   0  0  0  0  0  0  0  0  0  0  0  0
   15.6064  -26.0836  -42.3463 C   0  0  0  0  0  0  0  0  0  0  0  0
   16.8438  -25.5093  -42.4501 C   0  0  0  0  0  0  0  0  0  0  0  0
   17.0287  -24.2252  -42.0346 C   0  0  0  0  0  0  0  0  0  0  0  0
   15.9784  -23.5291  -41.5318 C   0  0  0  0  0  0  0  0  0  0  0  0
   15.9023  -22.3176  -41.0943 N   0  0  0  0  0  0  0  0  0  0  0  0
   14.6790  -22.0800  -40.7090 C   0  0  0  0  0  0  0  0  0  0  0  0
   13.9416  -23.1321  -40.8916 C   0  0  0  0  0  0  0  0  0  0  0  0
   16.6478  -21.6757  -41.0573 H   0  0  0  0  0  0  0  0  0  0  0  0
 33 32  1  0  0  0
 33 42  1  0  0  0
 32 28  1  0  0  0
 42 34  1  0  0  0
 42 41  2  0  0  0
 28 29  1  0  0  0
  8  4  1  0  0  0
 35 34  2  0  0  0
 35 36  1  0  0  0
 30 29  2  0  0  0
 34 39  1  0  0  0
 41 40  1  0  0  0
 29 27  1  0  0  0
 36 37  2  0  0  0
  4  9  2  0  0  0
  4  3  1  0  0  0
 39 40  1  0  0  0
 39 38  2  0  0  0
  9  1  1  0  0  0
  7  3  1  0  0  0
  7  6  2  0  0  0
 27 26  1  0  0  0
  3  2  2  0  0  0
 37 38  1  0  0  0
  6 26  1  0  0  0
  6  5  1  0  0  0
  1 10  2  0  0  0
  2 10  1  0  0  0
  2  5  1  0  0  0
 25 24  2  0  0  0
  5 13  1  0  0  0
 24 23  2  0  0  0
 14 13  1  0  0  0
 14 19  1  0  0  0
 13 15  1  0  0  0
 22 23  1  0  0  0
 22 19  1  0  0  0
 15 17  1  0  0  0
 15 16  1  0  0  0
 19 17  1  0  0  0
 17 18  1  0  0  0
 40 43  1  0  0  0
 28 31  1  0  0  0
  8 11  1  0  0  0
  8 12  1  0  0  0
 16 20  1  0  0  0
 18 21  1  0  0  0
M  CHG 1  24   1
M  CHG 1  25  -1
M  END
> <minimizedAffinity>
-8.79564

$$$$
