1NVR_STU_A_400
  RCSB PDB12061703283D
Coordinates from PDB:1NVR:A:400 Model:1 without hydrogens
 35 42  0  0  0  0            999 V2000
    4.1090    3.8420   16.8980   O 0  0  0  0  0  0  0  0  0  0  0  0
    2.8780    4.4680   17.0890   C 0  0  0  0  0  0  0  0  0  0  0  0
    2.1340    4.5600   15.7110   C 0  0  0  0  0  0  0  0  0  0  0  0
    2.9710    3.9240   14.5620   C 0  0  0  0  0  0  0  0  0  0  0  0
    4.3910    4.5500   14.5100   C 0  0  0  0  0  0  0  0  0  0  0  0
    5.0460    4.0680   15.8630   C 0  0  0  0  0  0  0  0  0  0  0  0
    5.6760    2.6840   15.6240   C 0  0  0  0  0  0  0  0  0  0  0  0
    6.0370    5.1320   16.2960   N 0  0  0  0  0  0  0  0  0  0  0  0
    5.5620    6.2030   17.1420   C 0  0  0  0  0  0  0  0  0  0  0  0
    4.3440    6.4920   17.6880   C 0  0  0  0  0  0  0  0  0  0  0  0
    4.1150    7.6680   18.5110   C 0  0  0  0  0  0  0  0  0  0  0  0
    5.3020    8.5120   18.7060   C 0  0  0  0  0  0  0  0  0  0  0  0
    6.4950    8.2250   18.1650   C 0  0  0  0  0  0  0  0  0  0  0  0
    6.7090    7.0610   17.3510   C 0  0  0  0  0  0  0  0  0  0  0  0
    7.8090    6.5300   16.6450   C 0  0  0  0  0  0  0  0  0  0  0  0
    7.4000    5.3150   15.9840   C 0  0  0  0  0  0  0  0  0  0  0  0
    8.3350    4.6050   15.2010   C 0  0  0  0  0  0  0  0  0  0  0  0
    9.6440    5.0670   15.0540   C 0  0  0  0  0  0  0  0  0  0  0  0
   10.0920    6.2950   15.6990   C 0  0  0  0  0  0  0  0  0  0  0  0
    9.1290    6.9900   16.4930   C 0  0  0  0  0  0  0  0  0  0  0  0
    7.5090    9.2890   18.5160   C 0  0  0  0  0  0  0  0  0  0  0  0
    6.6460   10.1510   19.3150   N 0  0  0  0  0  0  0  0  0  0  0  0
    5.3800    9.7830   19.4780   C 0  0  0  0  0  0  0  0  0  0  0  0
    4.4950   10.3560   20.1050   O 0  0  0  0  0  0  0  0  0  0  0  0
    2.7840    7.6920   18.8930   C 0  0  0  0  0  0  0  0  0  0  0  0
    2.1730    6.5290   18.2940   C 0  0  0  0  0  0  0  0  0  0  0  0
    0.7880    6.2280   18.4640   C 0  0  0  0  0  0  0  0  0  0  0  0
    0.0180    7.1080   19.2520   C 0  0  0  0  0  0  0  0  0  0  0  0
    0.6160    8.2760   19.8560   C 0  0  0  0  0  0  0  0  0  0  0  0
    1.9710    8.5510   19.6730   C 0  0  0  0  0  0  0  0  0  0  0  0
    3.1040    5.8480   17.6020   N 0  0  0  0  0  0  0  0  0  0  0  0
    4.2020    5.9960   14.5360   O 0  0  0  0  0  0  0  0  0  0  0  0
    5.1750    6.6630   13.7510   C 0  0  0  0  0  0  0  0  0  0  0  0
    2.1760    4.1590   13.2070   N 0  0  0  0  0  0  0  0  0  0  0  0
    2.9260    3.5080   12.0710   C 0  0  0  0  0  0  0  0  0  0  0  0
  1  2  1  0  0  0  0
  1  6  1  0  0  0  0
  2  3  1  0  0  0  0
  2 31  1  0  0  0  0
  3  4  1  0  0  0  0
  4  5  1  0  0  0  0
  4 34  1  0  0  0  0
  5  6  1  0  0  0  0
  5 32  1  0  0  0  0
  6  7  1  0  0  0  0
  6  8  1  0  0  0  0
  8  9  1  0  0  0  0
  8 16  1  0  0  0  0
  9 10  2  0  0  0  0
  9 14  1  0  0  0  0
 10 11  1  0  0  0  0
 10 31  1  0  0  0  0
 11 12  2  0  0  0  0
 11 25  1  0  0  0  0
 12 13  1  0  0  0  0
 12 23  1  0  0  0  0
 13 14  2  0  0  0  0
 13 21  1  0  0  0  0
 14 15  1  0  0  0  0
 15 16  2  0  0  0  0
 15 20  1  0  0  0  0
 16 17  1  0  0  0  0
 17 18  2  0  0  0  0
 18 19  1  0  0  0  0
 19 20  2  0  0  0  0
 21 22  1  0  0  0  0
 22 23  1  0  0  0  0
 23 24  2  0  0  0  0
 25 26  2  0  0  0  0
 25 30  1  0  0  0  0
 26 27  1  0  0  0  0
 26 31  1  0  0  0  0
 27 28  2  0  0  0  0
 28 29  1  0  0  0  0
 29 30  2  0  0  0  0
 32 33  1  0  0  0  0
 34 35  1  0  0  0  0
A    1
O4
A    2
C25
A    3
C24
A    4
C23
A    5
C22
A    6
C21
A    7
C26
A    8
N2
A    9
C18
A   10
C19
A   11
C6
A   12
C7
A   13
C10
A   14
C11
A   15
C12
A   16
C17
A   17
C16
A   18
C15
A   19
C14
A   20
C13
A   21
C9
A   22
N1
A   23
C8
A   24
O5
A   25
C5
A   26
C20
A   27
C1
A   28
C2
A   29
C3
A   30
C4
A   31
N3
A   32
O6
A   33
C27
A   34
N4
A   35
C28
M  END
>  <InstanceId>
1NVR_STU_A_400

>  <ChemCompId>
STU

>  <PdbId>
1NVR

>  <ChainId>
A

>  <ResidueNumber>
400

>  <InsertionCode>


>  <Model>
1

>  <AltIds>


>  <MissingHeavyAtoms>
0

>  <ObservedFormula>
C28 N4 O3

>  <Name>
STAUROSPORINE

>  <SystematicName>


>  <Synonyms>


>  <Type>
NON-POLYMER

>  <Formula>
C28 H26 N4 O3

>  <MolecularWeight>
466.531

>  <ModifiedDate>
2011-06-04

>  <Parent>


>  <OneLetterCode>


>  <SubcomponentList>


>  <AmbiguousFlag>
N

>  <InChI>
InChI=1S/C28H26N4O3/c1-28-26(34-3)17(29-2)12-20(35-28)31-18-10-6-4-8-14(18)22-23-16(13-30-27(23)33)21-15-9-5-7-11-19(15)32(28)25(21)24(22)31/h4-11,17,20,26,29H,12-13H2,1-3H3,(H,30,33)/t17-,20-,26-,28+/m1/s1

>  <InChIKey>
HKSZLNNOFSGOKW-FYTWVXJKSA-N

>  <SMILES>
C[C@@]12[C@@H]([C@@H](C[C@@H](O1)n3c4ccccc4c5c3c6n2c7ccccc7c6c8c5C(=O)NC8)NC)OC

$$$$
