1NVR_STU_A_400


 37 44  0  0  0  0  0  0  0  0999 V2000
    4.3112    3.8191   16.9390 O   0  0  0  0  0  0  0  0  0  0  0  0
    3.0784    4.4381   17.1406 C   0  0  0  0  0  0  0  0  0  0  0  0
    2.3236    4.5292   15.7684 C   0  0  0  0  0  0  0  0  0  0  0  0
    3.1553    3.9002   14.6118 C   0  0  0  0  0  0  0  0  0  0  0  0
    4.5716    4.5338   14.5506 C   0  0  0  0  0  0  0  0  0  0  0  0
    5.2392    4.0523   15.8975 C   0  0  0  0  0  0  0  0  0  0  0  0
    5.8748    2.6722   15.6507 C   0  0  0  0  0  0  0  0  0  0  0  0
    6.2278    5.1206   16.3255 N   0  0  0  0  0  0  0  0  0  0  0  0
    5.7535    6.1873   17.1774 C   0  0  0  0  0  0  0  0  0  0  0  0
    4.5381    6.4686   17.7331 C   0  0  0  0  0  0  0  0  0  0  0  0
    4.3091    7.6415   18.5604 C   0  0  0  0  0  0  0  0  0  0  0  0
    5.4930    8.4914   18.7484 C   0  0  0  0  0  0  0  0  0  0  0  0
    6.6834    8.2119   18.1979 C   0  0  0  0  0  0  0  0  0  0  0  0
    6.8975    7.0509   17.3797 C   0  0  0  0  0  0  0  0  0  0  0  0
    7.9950    6.5273   16.6643 C   0  0  0  0  0  0  0  0  0  0  0  0
    7.5875    5.3116   16.0037 C   0  0  0  0  0  0  0  0  0  0  0  0
    8.5203    4.6083   15.2121 C   0  0  0  0  0  0  0  0  0  0  0  0
    9.8257    5.0775   15.0564 C   0  0  0  0  0  0  0  0  0  0  0  0
   10.2720    6.3065   15.7007 C   0  0  0  0  0  0  0  0  0  0  0  0
    9.3113    6.9946   16.5035 C   0  0  0  0  0  0  0  0  0  0  0  0
    7.6944    9.2805   18.5436 C   0  0  0  0  0  0  0  0  0  0  0  0
    6.8329   10.1362   19.3510 N   0  0  0  0  0  0  0  0  0  0  0  0
    5.5701    9.7611   19.5227 C   0  0  0  0  0  0  0  0  0  0  0  0
    4.6868   10.3280   20.1575 O   0  0  0  0  0  0  0  0  0  0  0  0
    2.9809    7.6576   18.9524 C   0  0  0  0  0  0  0  0  0  0  0  0
    2.3716    6.4927   18.3555 C   0  0  0  0  0  0  0  0  0  0  0  0
    0.9895    6.1840   18.5351 C   0  0  0  0  0  0  0  0  0  0  0  0
    0.2208    7.0582   19.3308 C   0  0  0  0  0  0  0  0  0  0  0  0
    0.8171    8.2280   19.9330 C   0  0  0  0  0  0  0  0  0  0  0  0
    2.1692    8.5106   19.7404 C   0  0  0  0  0  0  0  0  0  0  0  0
    3.3009    5.8182   17.6550 N   0  0  0  0  0  0  0  0  0  0  0  0
    7.1760   10.9653   19.7559 H   0  0  0  0  0  0  0  0  0  0  0  0
    2.3490    4.1339   13.2633 N   0  0  0  0  0  0  0  0  0  0  0  0
    2.8828    3.2085   12.1978 C   0  0  0  0  0  0  0  0  0  0  0  0
    2.4618    5.1018   12.9620 H   0  0  0  0  0  0  0  0  0  0  0  0
    4.3751    5.9787   14.5812 O   0  0  0  0  0  0  0  0  0  0  0  0
    4.9240    6.6038   13.4341 C   0  0  0  0  0  0  0  0  0  0  0  0
  1  2  1  0  0  0
  1  6  1  0  0  0
  2  3  1  0  0  0
  2 31  1  0  0  0
  3  4  1  0  0  0
  4  5  1  0  0  0
  4 33  1  0  0  0
  5  6  1  0  0  0
  5 36  1  0  0  0
  6  7  1  0  0  0
  6  8  1  0  0  0
  8  9  1  0  0  0
  8 16  1  0  0  0
  9 10  2  0  0  0
  9 14  1  0  0  0
 10 11  1  0  0  0
 10 31  1  0  0  0
 11 12  2  0  0  0
 11 25  1  0  0  0
 12 13  1  0  0  0
 12 23  1  0  0  0
 13 14  2  0  0  0
 13 21  1  0  0  0
 14 15  1  0  0  0
 15 16  2  0  0  0
 15 20  1  0  0  0
 16 17  1  0  0  0
 17 18  2  0  0  0
 18 19  1  0  0  0
 19 20  2  0  0  0
 21 22  1  0  0  0
 22 23  1  0  0  0
 23 24  2  0  0  0
 25 26  2  0  0  0
 25 30  1  0  0  0
 26 27  1  0  0  0
 26 31  1  0  0  0
 27 28  2  0  0  0
 28 29  1  0  0  0
 29 30  2  0  0  0
 36 37  1  0  0  0
 33 34  1  0  0  0
 22 32  1  0  0  0
 33 35  1  0  0  0
M  END
> <minimizedAffinity>
-13.44363

$$$$
1NVR_STU_A_400


 37 44  0  0  0  0  0  0  0  0999 V2000
    4.4831    3.4098   16.0521 O   0  0  0  0  0  0  0  0  0  0  0  0
    3.1668    3.8657   16.1086 C   0  0  0  0  0  0  0  0  0  0  0  0
    2.6346    4.0682   14.6468 C   0  0  0  0  0  0  0  0  0  0  0  0
    3.7113    3.6936   13.5858 C   0  0  0  0  0  0  0  0  0  0  0  0
    5.0296    4.4710   13.8479 C   0  0  0  0  0  0  0  0  0  0  0  0
    5.5289    3.8785   15.2233 C   0  0  0  0  0  0  0  0  0  0  0  0
    6.3617    2.6180   14.9279 C   0  0  0  0  0  0  0  0  0  0  0  0
    6.2966    4.9726   15.9410 N   0  0  0  0  0  0  0  0  0  0  0  0
    5.5643    5.8570   16.8185 C   0  0  0  0  0  0  0  0  0  0  0  0
    4.2506    5.9330   17.1839 C   0  0  0  0  0  0  0  0  0  0  0  0
    3.7492    6.9506   18.0927 C   0  0  0  0  0  0  0  0  0  0  0  0
    4.7735    7.8827   18.5838 C   0  0  0  0  0  0  0  0  0  0  0  0
    6.0617    7.8052   18.2193 C   0  0  0  0  0  0  0  0  0  0  0  0
    6.5455    6.7966   17.3182 C   0  0  0  0  0  0  0  0  0  0  0  0
    7.7992    6.4919   16.7474 C   0  0  0  0  0  0  0  0  0  0  0  0
    7.6559    5.3442   15.8857 C   0  0  0  0  0  0  0  0  0  0  0  0
    8.7827    4.8562   15.1903 C   0  0  0  0  0  0  0  0  0  0  0  0
   10.0279    5.4734   15.3211 C   0  0  0  0  0  0  0  0  0  0  0  0
   10.2101    6.6405   16.1752 C   0  0  0  0  0  0  0  0  0  0  0  0
    9.0561    7.1091   16.8748 C   0  0  0  0  0  0  0  0  0  0  0  0
    6.8644    8.9133   18.8606 C   0  0  0  0  0  0  0  0  0  0  0  0
    5.7860    9.5565   19.6020 N   0  0  0  0  0  0  0  0  0  0  0  0
    4.5684    9.0342   19.5054 C   0  0  0  0  0  0  0  0  0  0  0  0
    3.5319    9.4146   20.0400 O   0  0  0  0  0  0  0  0  0  0  0  0
    2.3839    6.7765   18.2468 C   0  0  0  0  0  0  0  0  0  0  0  0
    2.0265    5.6493   17.4182 C   0  0  0  0  0  0  0  0  0  0  0  0
    0.6825    5.1791   17.3167 C   0  0  0  0  0  0  0  0  0  0  0  0
   -0.3054    5.8516   18.0651 C   0  0  0  0  0  0  0  0  0  0  0  0
    0.0378    6.9815   18.8969 C   0  0  0  0  0  0  0  0  0  0  0  0
    1.3578    7.4247   18.9776 C   0  0  0  0  0  0  0  0  0  0  0  0
    3.1319    5.1767   16.8147 N   0  0  0  0  0  0  0  0  0  0  0  0
    5.9549   10.3523   20.1565 H   0  0  0  0  0  0  0  0  0  0  0  0
    3.1072    4.0281   12.1553 N   0  0  0  0  0  0  0  0  0  0  0  0
    3.2371    2.8169   11.2649 C   0  0  0  0  0  0  0  0  0  0  0  0
    3.6172    4.8099   11.7441 H   0  0  0  0  0  0  0  0  0  0  0  0
    4.6533    5.8701   14.0161 O   0  0  0  0  0  0  0  0  0  0  0  0
    5.3421    6.7083   13.1046 C   0  0  0  0  0  0  0  0  0  0  0  0
  1  2  1  0  0  0
  1  6  1  0  0  0
  2  3  1  0  0  0
  2 31  1  0  0  0
  3  4  1  0  0  0
  4  5  1  0  0  0
  4 33  1  0  0  0
  5  6  1  0  0  0
  5 36  1  0  0  0
  6  7  1  0  0  0
  6  8  1  0  0  0
  8  9  1  0  0  0
  8 16  1  0  0  0
  9 10  2  0  0  0
  9 14  1  0  0  0
 10 11  1  0  0  0
 10 31  1  0  0  0
 11 12  2  0  0  0
 11 25  1  0  0  0
 12 13  1  0  0  0
 12 23  1  0  0  0
 13 14  2  0  0  0
 13 21  1  0  0  0
 14 15  1  0  0  0
 15 16  2  0  0  0
 15 20  1  0  0  0
 16 17  1  0  0  0
 17 18  2  0  0  0
 18 19  1  0  0  0
 19 20  2  0  0  0
 21 22  1  0  0  0
 22 23  1  0  0  0
 23 24  2  0  0  0
 25 26  2  0  0  0
 25 30  1  0  0  0
 26 27  1  0  0  0
 26 31  1  0  0  0
 27 28  2  0  0  0
 28 29  1  0  0  0
 29 30  2  0  0  0
 36 37  1  0  0  0
 33 34  1  0  0  0
 22 32  1  0  0  0
 33 35  1  0  0  0
M  END
> <minimizedAffinity>
-11.65296

$$$$
1NVR_STU_A_400


 37 44  0  0  0  0  0  0  0  0999 V2000
    4.0968    3.3911   16.4055 O   0  0  0  0  0  0  0  0  0  0  0  0
    2.7358    3.4036   16.1037 C   0  0  0  0  0  0  0  0  0  0  0  0
    2.5595    3.5404   14.5509 C   0  0  0  0  0  0  0  0  0  0  0  0
    3.9330    3.6069   13.8199 C   0  0  0  0  0  0  0  0  0  0  0  0
    4.8148    4.7372   14.4166 C   0  0  0  0  0  0  0  0  0  0  0  0
    5.1095    4.2278   15.8814 C   0  0  0  0  0  0  0  0  0  0  0  0
    6.3520    3.3204   15.8322 C   0  0  0  0  0  0  0  0  0  0  0  0
    5.2705    5.4492   16.7668 N   0  0  0  0  0  0  0  0  0  0  0  0
    4.0924    5.9874   17.4076 C   0  0  0  0  0  0  0  0  0  0  0  0
    2.7777    5.6175   17.4081 C   0  0  0  0  0  0  0  0  0  0  0  0
    1.7587    6.3521   18.1394 C   0  0  0  0  0  0  0  0  0  0  0  0
    2.2640    7.5185   18.8766 C   0  0  0  0  0  0  0  0  0  0  0  0
    3.5556    7.8790   18.8703 C   0  0  0  0  0  0  0  0  0  0  0  0
    4.5536    7.1467   18.1416 C   0  0  0  0  0  0  0  0  0  0  0  0
    5.9403    7.2973   17.9295 C   0  0  0  0  0  0  0  0  0  0  0  0
    6.4022    6.2329   17.0727 C   0  0  0  0  0  0  0  0  0  0  0  0
    7.7646    6.1798   16.7086 C   0  0  0  0  0  0  0  0  0  0  0  0
    8.6652    7.1456   17.1609 C   0  0  0  0  0  0  0  0  0  0  0  0
    8.2344    8.2411   18.0206 C   0  0  0  0  0  0  0  0  0  0  0  0
    6.8525    8.2671   18.3818 C   0  0  0  0  0  0  0  0  0  0  0  0
    3.7635    9.1305   19.6913 C   0  0  0  0  0  0  0  0  0  0  0  0
    2.3832    9.3421   20.1111 N   0  0  0  0  0  0  0  0  0  0  0  0
    1.4681    8.4721   19.6981 C   0  0  0  0  0  0  0  0  0  0  0  0
    0.2641    8.4643   19.9325 O   0  0  0  0  0  0  0  0  0  0  0  0
    0.5323    5.7456   17.9250 C   0  0  0  0  0  0  0  0  0  0  0  0
    0.7841    4.6307   17.0428 C   0  0  0  0  0  0  0  0  0  0  0  0
   -0.2617    3.7705   16.5907 C   0  0  0  0  0  0  0  0  0  0  0  0
   -1.5708    4.0378   17.0411 C   0  0  0  0  0  0  0  0  0  0  0  0
   -1.8373    5.1507   17.9227 C   0  0  0  0  0  0  0  0  0  0  0  0
   -0.7994    5.9793   18.3485 C   0  0  0  0  0  0  0  0  0  0  0  0
    2.0984    4.5783   16.7613 N   0  0  0  0  0  0  0  0  0  0  0  0
    2.1373   10.1053   20.6822 H   0  0  0  0  0  0  0  0  0  0  0  0
    3.6405    3.8435   12.2767 N   0  0  0  0  0  0  0  0  0  0  0  0
    2.4110    3.0647   11.8784 C   0  0  0  0  0  0  0  0  0  0  0  0
    4.4383    3.5264   11.7259 H   0  0  0  0  0  0  0  0  0  0  0  0
    3.9756    5.9292   14.4637 O   0  0  0  0  0  0  0  0  0  0  0  0
    4.5354    6.9908   13.7104 C   0  0  0  0  0  0  0  0  0  0  0  0
  1  2  1  0  0  0
  1  6  1  0  0  0
  2  3  1  0  0  0
  2 31  1  0  0  0
  3  4  1  0  0  0
  4  5  1  0  0  0
  4 33  1  0  0  0
  5  6  1  0  0  0
  5 36  1  0  0  0
  6  7  1  0  0  0
  6  8  1  0  0  0
  8  9  1  0  0  0
  8 16  1  0  0  0
  9 10  2  0  0  0
  9 14  1  0  0  0
 10 11  1  0  0  0
 10 31  1  0  0  0
 11 12  2  0  0  0
 11 25  1  0  0  0
 12 13  1  0  0  0
 12 23  1  0  0  0
 13 14  2  0  0  0
 13 21  1  0  0  0
 14 15  1  0  0  0
 15 16  2  0  0  0
 15 20  1  0  0  0
 16 17  1  0  0  0
 17 18  2  0  0  0
 18 19  1  0  0  0
 19 20  2  0  0  0
 21 22  1  0  0  0
 22 23  1  0  0  0
 23 24  2  0  0  0
 25 26  2  0  0  0
 25 30  1  0  0  0
 26 27  1  0  0  0
 26 31  1  0  0  0
 27 28  2  0  0  0
 28 29  1  0  0  0
 29 30  2  0  0  0
 36 37  1  0  0  0
 33 34  1  0  0  0
 22 32  1  0  0  0
 33 35  1  0  0  0
M  END
> <minimizedAffinity>
-11.41922

$$$$
