3P8Z_36A_A_263


 40 43  0  0  0  0  0  0  0  0999 V2000
    6.4564    0.3644   42.0294 C   0  0  0  0  0  0  0  0  0  0  0  0
    6.7250    1.2723   43.2524 C   0  0  0  0  0  0  0  0  0  0  0  0
    7.9349    2.0234   43.1942 O   0  0  0  0  0  0  0  0  0  0  0  0
    6.7664    0.2803   44.4134 C   0  0  0  0  0  0  0  0  0  0  0  0
    8.1150   -0.1061   44.6861 O   0  0  0  0  0  0  0  0  0  0  0  0
    6.0005   -0.9343   43.8881 C   0  0  0  0  0  0  0  0  0  0  0  0
    5.5687   -0.6396   42.5456 O   0  0  0  0  0  0  0  0  0  0  0  0
    8.6887    1.4171   43.1225 H   0  0  0  0  0  0  0  0  0  0  0  0
    8.5120   -0.4820   43.8849 H   0  0  0  0  0  0  0  0  0  0  0  0
    6.8683    2.2110   37.2665 N   0  0  0  0  0  0  0  0  0  0  0  0
    7.8083    1.6730   38.0659 C   0  0  0  0  0  0  0  0  0  0  0  0
    7.5105    1.2358   39.3027 N   0  0  0  0  0  0  0  0  0  0  0  0
    6.2312    1.3503   39.7630 C   0  0  0  0  0  0  0  0  0  0  0  0
    5.2323    1.9153   38.9848 C   0  0  0  0  0  0  0  0  0  0  0  0
    5.5840    2.3792   37.6896 C   0  0  0  0  0  0  0  0  0  0  0  0
    4.0760    1.8784   39.7161 N   0  0  0  0  0  0  0  0  0  0  0  0
    4.3842    1.3111   40.9226 C   0  0  0  0  0  0  0  0  0  0  0  0
    5.6989    1.0049   40.9477 N   0  0  0  0  0  0  0  0  0  0  0  0
    4.7223    2.9393   36.8108 N   0  0  0  0  0  0  0  0  0  0  0  0
    4.0858    3.6068   37.1551 H   0  0  0  0  0  0  0  0  0  0  0  0
    4.6716    2.6265   35.4051 C   0  0  0  0  0  0  0  0  0  0  0  0
    3.2723    2.2973   34.9509 C   0  0  0  0  0  0  0  0  0  0  0  0
    2.2222    2.2981   35.8794 C   0  0  0  0  0  0  0  0  0  0  0  0
    0.9514    1.9751   35.4491 C   0  0  0  0  0  0  0  0  0  0  0  0
    0.6884    1.6342   34.1166 C   0  0  0  0  0  0  0  0  0  0  0  0
    1.7377    1.6380   33.1917 C   0  0  0  0  0  0  0  0  0  0  0  0
    3.0326    1.9537   33.6057 C   0  0  0  0  0  0  0  0  0  0  0  0
   -0.3497    2.0006   36.6401 Cl  0  0  0  0  0  0  0  0  0  0  0  0
    4.7899   -1.3278   44.7082 C   0  0  0  0  0  0  0  0  0  0  0  0
    4.6737   -3.0945   44.9018 S   0  0  0  0  0  0  0  0  0  0  0  0
    6.3408   -3.6548   44.7730 C   0  0  0  0  0  0  0  0  0  0  0  0
    6.5155   -4.9886   44.0846 C   0  0  0  0  0  0  0  0  0  0  0  0
    8.1684   -5.2009   45.8810 N   0  0  0  0  0  0  0  0  0  0  0  0
    7.1546   -5.9382   45.1292 C   0  0  0  0  0  0  0  0  0  0  0  0
    8.5952   -5.8181   46.5718 H   0  0  0  0  0  0  0  0  0  0  0  0
    7.7320   -4.4102   46.3551 H   0  0  0  0  0  0  0  0  0  0  0  0
    7.7016   -7.1696   44.4216 C   0  0  0  0  0  0  0  0  0  0  0  0
    6.9535   -7.8598   43.7048 O   0  0  0  0  0  0  0  0  0  0  0  0
    8.9217   -7.5137   44.5554 O   0  0  0  0  0  0  0  0  0  0  0  0
    9.4962   -7.0035   45.0918 H   0  0  0  0  0  0  0  0  0  0  0  0
 37 38  2  0  0  0
 37 34  1  0  0  0
 37 39  1  0  0  0
 33 34  1  0  0  0
 10 11  2  0  0  0
 10 15  1  0  0  0
 11 12  1  0  0  0
 12 13  2  0  0  0
 13 14  1  0  0  0
 13 18  1  0  0  0
 14 15  2  0  0  0
 14 16  1  0  0  0
 15 19  1  0  0  0
 19 21  1  0  0  0
 16 17  2  0  0  0
 17 18  1  0  0  0
 18  1  1  0  0  0
 34 32  1  0  0  0
 32 31  1  0  0  0
 29 30  1  0  0  0
 29  6  1  0  0  0
 30 31  1  0  0  0
  1  2  1  0  0  0
  1  7  1  0  0  0
  2  3  1  0  0  0
  2  4  1  0  0  0
 21 22  1  0  0  0
 22 23  2  0  0  0
 22 27  1  0  0  0
 23 24  1  0  0  0
  4  5  1  0  0  0
  4  6  1  0  0  0
 24 25  2  0  0  0
 24 28  1  0  0  0
 25 26  1  0  0  0
 26 27  2  0  0  0
  6  7  1  0  0  0
 33 35  1  0  0  0
 33 36  1  0  0  0
 19 20  1  0  0  0
  3  8  1  0  0  0
  5  9  1  0  0  0
 39 40  1  0  0  0
M  END
> <minimizedAffinity>
-10.45725

$$$$
3P8Z_36A_A_263


 40 43  0  0  0  0  0  0  0  0999 V2000
    6.0739    0.0169   41.9735 C   0  0  0  0  0  0  0  0  0  0  0  0
    5.5093    0.3532   43.3737 C   0  0  0  0  0  0  0  0  0  0  0  0
    6.1872    1.3998   44.0639 O   0  0  0  0  0  0  0  0  0  0  0  0
    5.6548   -0.9671   44.1282 C   0  0  0  0  0  0  0  0  0  0  0  0
    6.8761   -0.9810   44.8703 O   0  0  0  0  0  0  0  0  0  0  0  0
    5.7372   -2.0178   43.0203 C   0  0  0  0  0  0  0  0  0  0  0  0
    5.6441   -1.3359   41.7547 O   0  0  0  0  0  0  0  0  0  0  0  0
    7.1181    1.1563   44.1865 H   0  0  0  0  0  0  0  0  0  0  0  0
    7.6220   -0.8333   44.2681 H   0  0  0  0  0  0  0  0  0  0  0  0
    7.0768    2.1345   37.4157 N   0  0  0  0  0  0  0  0  0  0  0  0
    7.8961    1.4815   38.2608 C   0  0  0  0  0  0  0  0  0  0  0  0
    7.4488    0.9870   39.4292 N   0  0  0  0  0  0  0  0  0  0  0  0
    6.1397    1.1609   39.7721 C   0  0  0  0  0  0  0  0  0  0  0  0
    5.2615    1.8436   38.9443 C   0  0  0  0  0  0  0  0  0  0  0  0
    5.7699    2.3646   37.7250 C   0  0  0  0  0  0  0  0  0  0  0  0
    4.0378    1.8406   39.5571 N   0  0  0  0  0  0  0  0  0  0  0  0
    4.1871    1.1762   40.7441 C   0  0  0  0  0  0  0  0  0  0  0  0
    5.4706    0.7777   40.8728 N   0  0  0  0  0  0  0  0  0  0  0  0
    5.0378    3.0395   36.8100 N   0  0  0  0  0  0  0  0  0  0  0  0
    5.3998    3.1135   35.8975 H   0  0  0  0  0  0  0  0  0  0  0  0
    3.7642    3.6578   37.0787 C   0  0  0  0  0  0  0  0  0  0  0  0
    2.6431    2.9906   36.3233 C   0  0  0  0  0  0  0  0  0  0  0  0
    2.8106    2.6733   34.9682 C   0  0  0  0  0  0  0  0  0  0  0  0
    1.7662    2.0808   34.2881 C   0  0  0  0  0  0  0  0  0  0  0  0
    0.5435    1.8026   34.9115 C   0  0  0  0  0  0  0  0  0  0  0  0
    0.3808    2.1169   36.2647 C   0  0  0  0  0  0  0  0  0  0  0  0
    1.4204    2.7239   36.9708 C   0  0  0  0  0  0  0  0  0  0  0  0
    2.0157    1.6808   32.5882 Cl  0  0  0  0  0  0  0  0  0  0  0  0
    4.6640   -3.0847   43.0729 C   0  0  0  0  0  0  0  0  0  0  0  0
    4.3535   -3.6223   44.7423 S   0  0  0  0  0  0  0  0  0  0  0  0
    5.2885   -5.1090   44.8995 C   0  0  0  0  0  0  0  0  0  0  0  0
    6.7642   -4.9702   44.6051 C   0  0  0  0  0  0  0  0  0  0  0  0
    8.5624   -5.6423   46.1280 N   0  0  0  0  0  0  0  0  0  0  0  0
    7.4639   -6.1579   45.3130 C   0  0  0  0  0  0  0  0  0  0  0  0
    9.0296   -6.4174   46.5984 H   0  0  0  0  0  0  0  0  0  0  0  0
    8.1941   -4.9943   46.8242 H   0  0  0  0  0  0  0  0  0  0  0  0
    7.9082   -7.1740   44.2706 C   0  0  0  0  0  0  0  0  0  0  0  0
    7.0959   -7.5967   43.4272 O   0  0  0  0  0  0  0  0  0  0  0  0
    9.1064   -7.6084   44.2489 O   0  0  0  0  0  0  0  0  0  0  0  0
    9.7284   -7.2990   44.8777 H   0  0  0  0  0  0  0  0  0  0  0  0
 37 38  2  0  0  0
 37 34  1  0  0  0
 37 39  1  0  0  0
 33 34  1  0  0  0
 10 11  2  0  0  0
 10 15  1  0  0  0
 11 12  1  0  0  0
 12 13  2  0  0  0
 13 14  1  0  0  0
 13 18  1  0  0  0
 14 15  2  0  0  0
 14 16  1  0  0  0
 15 19  1  0  0  0
 19 21  1  0  0  0
 16 17  2  0  0  0
 17 18  1  0  0  0
 18  1  1  0  0  0
 34 32  1  0  0  0
 32 31  1  0  0  0
 29 30  1  0  0  0
 29  6  1  0  0  0
 30 31  1  0  0  0
  1  2  1  0  0  0
  1  7  1  0  0  0
  2  3  1  0  0  0
  2  4  1  0  0  0
 21 22  1  0  0  0
 22 23  2  0  0  0
 22 27  1  0  0  0
 23 24  1  0  0  0
  4  5  1  0  0  0
  4  6  1  0  0  0
 24 25  2  0  0  0
 24 28  1  0  0  0
 25 26  1  0  0  0
 26 27  2  0  0  0
  6  7  1  0  0  0
 33 35  1  0  0  0
 33 36  1  0  0  0
 19 20  1  0  0  0
  3  8  1  0  0  0
  5  9  1  0  0  0
 39 40  1  0  0  0
M  END
> <minimizedAffinity>
-10.29686

$$$$
3P8Z_36A_A_263


 40 43  0  0  0  0  0  0  0  0999 V2000
    4.8126   -1.5547   41.9206 C   0  0  0  0  0  0  0  0  0  0  0  0
    5.8074   -1.2171   43.0559 C   0  0  0  0  0  0  0  0  0  0  0  0
    7.1434   -0.9583   42.6323 O   0  0  0  0  0  0  0  0  0  0  0  0
    5.7576   -2.4637   43.9373 C   0  0  0  0  0  0  0  0  0  0  0  0
    6.8118   -3.3618   43.5844 O   0  0  0  0  0  0  0  0  0  0  0  0
    4.4178   -3.1110   43.5853 C   0  0  0  0  0  0  0  0  0  0  0  0
    3.7764   -2.2899   42.5904 O   0  0  0  0  0  0  0  0  0  0  0  0
    7.4937   -1.7376   42.1732 H   0  0  0  0  0  0  0  0  0  0  0  0
    6.7411   -3.5898   42.6442 H   0  0  0  0  0  0  0  0  0  0  0  0
    5.5206    2.6006   39.0057 N   0  0  0  0  0  0  0  0  0  0  0  0
    6.4069    1.6725   39.4121 C   0  0  0  0  0  0  0  0  0  0  0  0
    6.0329    0.6364   40.1843 N   0  0  0  0  0  0  0  0  0  0  0  0
    4.7301    0.5289   40.5749 C   0  0  0  0  0  0  0  0  0  0  0  0
    3.7840    1.4701   40.1985 C   0  0  0  0  0  0  0  0  0  0  0  0
    4.2155    2.5585   39.3949 C   0  0  0  0  0  0  0  0  0  0  0  0
    2.5865    1.0817   40.7355 N   0  0  0  0  0  0  0  0  0  0  0  0
    2.8181   -0.0704   41.4366 C   0  0  0  0  0  0  0  0  0  0  0  0
    4.1259   -0.3924   41.3445 N   0  0  0  0  0  0  0  0  0  0  0  0
    3.4122    3.5458   38.9382 N   0  0  0  0  0  0  0  0  0  0  0  0
    2.8747    4.0413   39.5976 H   0  0  0  0  0  0  0  0  0  0  0  0
    3.2889    3.9226   37.5528 C   0  0  0  0  0  0  0  0  0  0  0  0
    2.2213    3.1274   36.8451 C   0  0  0  0  0  0  0  0  0  0  0  0
    2.4336    2.6974   35.5280 C   0  0  0  0  0  0  0  0  0  0  0  0
    1.4372    1.9876   34.8895 C   0  0  0  0  0  0  0  0  0  0  0  0
    0.2188    1.6996   35.5170 C   0  0  0  0  0  0  0  0  0  0  0  0
    0.0115    2.1269   36.8327 C   0  0  0  0  0  0  0  0  0  0  0  0
    1.0019    2.8532   37.4956 C   0  0  0  0  0  0  0  0  0  0  0  0
    1.7429    1.4482   33.2380 Cl  0  0  0  0  0  0  0  0  0  0  0  0
    3.4681   -3.2849   44.7517 C   0  0  0  0  0  0  0  0  0  0  0  0
    4.3438   -3.4256   46.2964 S   0  0  0  0  0  0  0  0  0  0  0  0
    5.0326   -5.0484   46.2573 C   0  0  0  0  0  0  0  0  0  0  0  0
    6.4501   -5.1537   46.7703 C   0  0  0  0  0  0  0  0  0  0  0  0
    6.4235   -6.3024   44.6061 N   0  0  0  0  0  0  0  0  0  0  0  0
    7.3053   -5.6709   45.5860 C   0  0  0  0  0  0  0  0  0  0  0  0
    6.9777   -6.6465   43.8219 H   0  0  0  0  0  0  0  0  0  0  0  0
    5.7451   -5.6193   44.2692 H   0  0  0  0  0  0  0  0  0  0  0  0
    8.3873   -6.6012   46.1153 C   0  0  0  0  0  0  0  0  0  0  0  0
    9.3090   -6.1479   46.8188 O   0  0  0  0  0  0  0  0  0  0  0  0
    8.3701   -7.8466   45.8440 O   0  0  0  0  0  0  0  0  0  0  0  0
    7.6825   -8.2015   45.3156 H   0  0  0  0  0  0  0  0  0  0  0  0
 37 38  2  0  0  0
 37 34  1  0  0  0
 37 39  1  0  0  0
 33 34  1  0  0  0
 10 11  2  0  0  0
 10 15  1  0  0  0
 11 12  1  0  0  0
 12 13  2  0  0  0
 13 14  1  0  0  0
 13 18  1  0  0  0
 14 15  2  0  0  0
 14 16  1  0  0  0
 15 19  1  0  0  0
 19 21  1  0  0  0
 16 17  2  0  0  0
 17 18  1  0  0  0
 18  1  1  0  0  0
 34 32  1  0  0  0
 32 31  1  0  0  0
 29 30  1  0  0  0
 29  6  1  0  0  0
 30 31  1  0  0  0
  1  2  1  0  0  0
  1  7  1  0  0  0
  2  3  1  0  0  0
  2  4  1  0  0  0
 21 22  1  0  0  0
 22 23  2  0  0  0
 22 27  1  0  0  0
 23 24  1  0  0  0
  4  5  1  0  0  0
  4  6  1  0  0  0
 24 25  2  0  0  0
 24 28  1  0  0  0
 25 26  1  0  0  0
 26 27  2  0  0  0
  6  7  1  0  0  0
 33 35  1  0  0  0
 33 36  1  0  0  0
 19 20  1  0  0  0
  3  8  1  0  0  0
  5  9  1  0  0  0
 39 40  1  0  0  0
M  END
> <minimizedAffinity>
-9.83684

$$$$
3P8Z_36A_A_263


 40 43  0  0  0  0  0  0  0  0999 V2000
    2.6363   -3.6388   45.0433 C   0  0  0  0  0  0  0  0  0  0  0  0
    2.8912   -5.0874   44.5649 C   0  0  0  0  0  0  0  0  0  0  0  0
    2.1739   -5.4733   43.3954 O   0  0  0  0  0  0  0  0  0  0  0  0
    2.4518   -5.9266   45.7633 C   0  0  0  0  0  0  0  0  0  0  0  0
    1.0964   -6.3495   45.6009 O   0  0  0  0  0  0  0  0  0  0  0  0
    2.5290   -4.9553   46.9418 C   0  0  0  0  0  0  0  0  0  0  0  0
    2.9757   -3.6816   46.4381 O   0  0  0  0  0  0  0  0  0  0  0  0
    1.2212   -5.3944   43.5597 H   0  0  0  0  0  0  0  0  0  0  0  0
    0.5270   -5.5729   45.4846 H   0  0  0  0  0  0  0  0  0  0  0  0
    2.8118    0.5107   42.0407 N   0  0  0  0  0  0  0  0  0  0  0  0
    1.7636   -0.2622   42.3812 C   0  0  0  0  0  0  0  0  0  0  0  0
    1.9104   -1.3251   43.1926 N   0  0  0  0  0  0  0  0  0  0  0  0
    3.1497   -1.6350   43.6719 C   0  0  0  0  0  0  0  0  0  0  0  0
    4.2633   -0.8811   43.3340 C   0  0  0  0  0  0  0  0  0  0  0  0
    4.0751    0.2256   42.4644 C   0  0  0  0  0  0  0  0  0  0  0  0
    5.3396   -1.4352   43.9724 N   0  0  0  0  0  0  0  0  0  0  0  0
    4.8763   -2.5163   44.6718 C   0  0  0  0  0  0  0  0  0  0  0  0
    3.5464   -2.6382   44.4733 N   0  0  0  0  0  0  0  0  0  0  0  0
    5.0570    1.0607   42.0556 N   0  0  0  0  0  0  0  0  0  0  0  0
    5.0020    2.0036   42.3334 H   0  0  0  0  0  0  0  0  0  0  0  0
    6.1782    0.6655   41.2412 C   0  0  0  0  0  0  0  0  0  0  0  0
    6.2114    1.4074   39.9293 C   0  0  0  0  0  0  0  0  0  0  0  0
    5.1747    2.2937   39.6059 C   0  0  0  0  0  0  0  0  0  0  0  0
    5.2120    2.9490   38.3919 C   0  0  0  0  0  0  0  0  0  0  0  0
    6.2480    2.7408   37.4730 C   0  0  0  0  0  0  0  0  0  0  0  0
    7.2830    1.8587   37.8003 C   0  0  0  0  0  0  0  0  0  0  0  0
    7.2621    1.1787   39.0189 C   0  0  0  0  0  0  0  0  0  0  0  0
    3.8998    4.0688   38.0230 Cl  0  0  0  0  0  0  0  0  0  0  0  0
    3.4556   -5.3830   48.0604 C   0  0  0  0  0  0  0  0  0  0  0  0
    5.1112   -4.7757   47.8102 S   0  0  0  0  0  0  0  0  0  0  0  0
    5.9673   -6.1373   47.0873 C   0  0  0  0  0  0  0  0  0  0  0  0
    6.8309   -5.7902   45.8968 C   0  0  0  0  0  0  0  0  0  0  0  0
    9.1957   -6.1920   46.3972 N   0  0  0  0  0  0  0  0  0  0  0  0
    7.9845   -6.8247   45.8783 C   0  0  0  0  0  0  0  0  0  0  0  0
    9.9615   -6.8657   46.3890 H   0  0  0  0  0  0  0  0  0  0  0  0
    9.0314   -5.8757   47.3529 H   0  0  0  0  0  0  0  0  0  0  0  0
    8.1448   -7.3743   44.4681 C   0  0  0  0  0  0  0  0  0  0  0  0
    7.1389   -7.6099   43.7735 O   0  0  0  0  0  0  0  0  0  0  0  0
    9.3007   -7.6056   43.9831 O   0  0  0  0  0  0  0  0  0  0  0  0
   10.0665   -7.4331   44.4947 H   0  0  0  0  0  0  0  0  0  0  0  0
 37 38  2  0  0  0
 37 34  1  0  0  0
 37 39  1  0  0  0
 33 34  1  0  0  0
 10 11  2  0  0  0
 10 15  1  0  0  0
 11 12  1  0  0  0
 12 13  2  0  0  0
 13 14  1  0  0  0
 13 18  1  0  0  0
 14 15  2  0  0  0
 14 16  1  0  0  0
 15 19  1  0  0  0
 19 21  1  0  0  0
 16 17  2  0  0  0
 17 18  1  0  0  0
 18  1  1  0  0  0
 34 32  1  0  0  0
 32 31  1  0  0  0
 29 30  1  0  0  0
 29  6  1  0  0  0
 30 31  1  0  0  0
  1  2  1  0  0  0
  1  7  1  0  0  0
  2  3  1  0  0  0
  2  4  1  0  0  0
 21 22  1  0  0  0
 22 23  2  0  0  0
 22 27  1  0  0  0
 23 24  1  0  0  0
  4  5  1  0  0  0
  4  6  1  0  0  0
 24 25  2  0  0  0
 24 28  1  0  0  0
 25 26  1  0  0  0
 26 27  2  0  0  0
  6  7  1  0  0  0
 33 35  1  0  0  0
 33 36  1  0  0  0
 19 20  1  0  0  0
  3  8  1  0  0  0
  5  9  1  0  0  0
 39 40  1  0  0  0
M  END
> <minimizedAffinity>
-9.69978

$$$$
3P8Z_36A_A_263


 40 43  0  0  0  0  0  0  0  0999 V2000
    6.4083    0.3147   41.8777 C   0  0  0  0  0  0  0  0  0  0  0  0
    6.6452    1.2731   43.0684 C   0  0  0  0  0  0  0  0  0  0  0  0
    7.8466    2.0369   43.0004 O   0  0  0  0  0  0  0  0  0  0  0  0
    6.6793    0.3279   44.2679 C   0  0  0  0  0  0  0  0  0  0  0  0
    8.0277   -0.0302   44.5776 O   0  0  0  0  0  0  0  0  0  0  0  0
    5.9372   -0.9162   43.7783 C   0  0  0  0  0  0  0  0  0  0  0  0
    5.5244   -0.6798   42.4184 O   0  0  0  0  0  0  0  0  0  0  0  0
    8.6088    1.4381   42.9648 H   0  0  0  0  0  0  0  0  0  0  0  0
    8.4427   -0.4319   43.7983 H   0  0  0  0  0  0  0  0  0  0  0  0
    6.9315    2.2628   37.1666 N   0  0  0  0  0  0  0  0  0  0  0  0
    7.8674    1.7974   38.0148 C   0  0  0  0  0  0  0  0  0  0  0  0
    7.5379    1.3169   39.2273 N   0  0  0  0  0  0  0  0  0  0  0  0
    6.2289    1.3115   39.6121 C   0  0  0  0  0  0  0  0  0  0  0  0
    5.2309    1.7984   38.7817 C   0  0  0  0  0  0  0  0  0  0  0  0
    5.6149    2.3111   37.5144 C   0  0  0  0  0  0  0  0  0  0  0  0
    4.0418    1.6489   39.4426 N   0  0  0  0  0  0  0  0  0  0  0  0
    4.3283    1.0925   40.6596 C   0  0  0  0  0  0  0  0  0  0  0  0
    5.6612    0.9026   40.7595 N   0  0  0  0  0  0  0  0  0  0  0  0
    4.7596    2.8067   36.5917 N   0  0  0  0  0  0  0  0  0  0  0  0
    4.9002    2.5500   35.6517 H   0  0  0  0  0  0  0  0  0  0  0  0
    3.6565    3.6847   36.8895 C   0  0  0  0  0  0  0  0  0  0  0  0
    2.3255    3.0247   36.6336 C   0  0  0  0  0  0  0  0  0  0  0  0
    1.3871    2.9281   37.6704 C   0  0  0  0  0  0  0  0  0  0  0  0
    0.1819    2.3030   37.4229 C   0  0  0  0  0  0  0  0  0  0  0  0
   -0.1200    1.7526   36.1711 C   0  0  0  0  0  0  0  0  0  0  0  0
    0.8170    1.8540   35.1375 C   0  0  0  0  0  0  0  0  0  0  0  0
    2.0457    2.4747   35.3669 C   0  0  0  0  0  0  0  0  0  0  0  0
   -0.9824    2.2123   38.7450 Cl  0  0  0  0  0  0  0  0  0  0  0  0
    4.7179   -1.2929   44.5934 C   0  0  0  0  0  0  0  0  0  0  0  0
    4.7488   -3.0098   45.0662 S   0  0  0  0  0  0  0  0  0  0  0  0
    3.0522   -3.4907   45.0614 C   0  0  0  0  0  0  0  0  0  0  0  0
    2.7429   -4.7354   44.2622 C   0  0  0  0  0  0  0  0  0  0  0  0
    3.4257   -6.6062   45.6899 N   0  0  0  0  0  0  0  0  0  0  0  0
    2.2741   -5.8035   45.2824 C   0  0  0  0  0  0  0  0  0  0  0  0
    3.1270   -7.3128   46.3621 H   0  0  0  0  0  0  0  0  0  0  0  0
    4.1260   -6.0021   46.1201 H   0  0  0  0  0  0  0  0  0  0  0  0
    1.1494   -6.6255   44.6693 C   0  0  0  0  0  0  0  0  0  0  0  0
    1.3632   -7.7943   44.2980 O   0  0  0  0  0  0  0  0  0  0  0  0
   -0.0168   -6.1322   44.5222 O   0  0  0  0  0  0  0  0  0  0  0  0
   -0.1920   -5.2537   44.7971 H   0  0  0  0  0  0  0  0  0  0  0  0
 37 38  2  0  0  0
 37 34  1  0  0  0
 37 39  1  0  0  0
 33 34  1  0  0  0
 10 11  2  0  0  0
 10 15  1  0  0  0
 11 12  1  0  0  0
 12 13  2  0  0  0
 13 14  1  0  0  0
 13 18  1  0  0  0
 14 15  2  0  0  0
 14 16  1  0  0  0
 15 19  1  0  0  0
 19 21  1  0  0  0
 16 17  2  0  0  0
 17 18  1  0  0  0
 18  1  1  0  0  0
 34 32  1  0  0  0
 32 31  1  0  0  0
 29 30  1  0  0  0
 29  6  1  0  0  0
 30 31  1  0  0  0
  1  2  1  0  0  0
  1  7  1  0  0  0
  2  3  1  0  0  0
  2  4  1  0  0  0
 21 22  1  0  0  0
 22 23  2  0  0  0
 22 27  1  0  0  0
 23 24  1  0  0  0
  4  5  1  0  0  0
  4  6  1  0  0  0
 24 25  2  0  0  0
 24 28  1  0  0  0
 25 26  1  0  0  0
 26 27  2  0  0  0
  6  7  1  0  0  0
 33 35  1  0  0  0
 33 36  1  0  0  0
 19 20  1  0  0  0
  3  8  1  0  0  0
  5  9  1  0  0  0
 39 40  1  0  0  0
M  END
> <minimizedAffinity>
-9.55639

$$$$
3P8Z_36A_A_263


 40 43  0  0  0  0  0  0  0  0999 V2000
    1.6618   -5.2551   45.3369 C   0  0  0  0  0  0  0  0  0  0  0  0
    1.6769   -6.7631   44.9931 C   0  0  0  0  0  0  0  0  0  0  0  0
    0.7911   -7.1541   43.9473 O   0  0  0  0  0  0  0  0  0  0  0  0
    1.2710   -7.4194   46.3114 C   0  0  0  0  0  0  0  0  0  0  0  0
   -0.1365   -7.6662   46.3285 O   0  0  0  0  0  0  0  0  0  0  0  0
    1.6007   -6.3628   47.3663 C   0  0  0  0  0  0  0  0  0  0  0  0
    2.1459   -5.2144   46.6884 O   0  0  0  0  0  0  0  0  0  0  0  0
   -0.1198   -6.9307   44.1947 H   0  0  0  0  0  0  0  0  0  0  0  0
   -0.6126   -6.8332   46.1864 H   0  0  0  0  0  0  0  0  0  0  0  0
    2.2035   -0.8306   42.8082 N   0  0  0  0  0  0  0  0  0  0  0  0
    1.1204   -1.3466   43.4186 C   0  0  0  0  0  0  0  0  0  0  0  0
    1.1674   -2.5383   44.0409 N   0  0  0  0  0  0  0  0  0  0  0  0
    2.3338   -3.2461   44.0440 C   0  0  0  0  0  0  0  0  0  0  0  0
    3.4709   -2.7660   43.4122 C   0  0  0  0  0  0  0  0  0  0  0  0
    3.3826   -1.5113   42.7530 C   0  0  0  0  0  0  0  0  0  0  0  0
    4.4624   -3.6906   43.5993 N   0  0  0  0  0  0  0  0  0  0  0  0
    3.9194   -4.7179   44.3221 C   0  0  0  0  0  0  0  0  0  0  0  0
    2.6219   -4.4456   44.5772 N   0  0  0  0  0  0  0  0  0  0  0  0
    4.4046   -0.9066   42.1061 N   0  0  0  0  0  0  0  0  0  0  0  0
    4.9928   -1.4687   41.5518 H   0  0  0  0  0  0  0  0  0  0  0  0
    4.6920    0.5039   42.1723 C   0  0  0  0  0  0  0  0  0  0  0  0
    4.9639    1.0884   40.8095 C   0  0  0  0  0  0  0  0  0  0  0  0
    6.2099    0.8826   40.2012 C   0  0  0  0  0  0  0  0  0  0  0  0
    6.4476    1.4418   38.9622 C   0  0  0  0  0  0  0  0  0  0  0  0
    5.4842    2.2183   38.3065 C   0  0  0  0  0  0  0  0  0  0  0  0
    4.2405    2.4187   38.9143 C   0  0  0  0  0  0  0  0  0  0  0  0
    3.9805    1.8695   40.1708 C   0  0  0  0  0  0  0  0  0  0  0  0
    8.0204    1.1505   38.2183 Cl  0  0  0  0  0  0  0  0  0  0  0  0
    2.5845   -6.8075   48.4280 C   0  0  0  0  0  0  0  0  0  0  0  0
    4.0427   -5.7849   48.4420 S   0  0  0  0  0  0  0  0  0  0  0  0
    5.2652   -6.7628   47.6303 C   0  0  0  0  0  0  0  0  0  0  0  0
    6.5176   -6.0179   47.2302 C   0  0  0  0  0  0  0  0  0  0  0  0
    5.9617   -7.5639   45.4123 N   0  0  0  0  0  0  0  0  0  0  0  0
    6.8398   -6.4543   45.7786 C   0  0  0  0  0  0  0  0  0  0  0  0
    6.1664   -7.8586   44.4575 H   0  0  0  0  0  0  0  0  0  0  0  0
    4.9892   -7.2626   45.4741 H   0  0  0  0  0  0  0  0  0  0  0  0
    8.3199   -6.7924   45.6717 C   0  0  0  0  0  0  0  0  0  0  0  0
    8.6860   -7.7864   45.0177 O   0  0  0  0  0  0  0  0  0  0  0  0
    9.1992   -6.0730   46.2499 O   0  0  0  0  0  0  0  0  0  0  0  0
    8.9380   -5.3219   46.7455 H   0  0  0  0  0  0  0  0  0  0  0  0
 37 38  2  0  0  0
 37 34  1  0  0  0
 37 39  1  0  0  0
 33 34  1  0  0  0
 10 11  2  0  0  0
 10 15  1  0  0  0
 11 12  1  0  0  0
 12 13  2  0  0  0
 13 14  1  0  0  0
 13 18  1  0  0  0
 14 15  2  0  0  0
 14 16  1  0  0  0
 15 19  1  0  0  0
 19 21  1  0  0  0
 16 17  2  0  0  0
 17 18  1  0  0  0
 18  1  1  0  0  0
 34 32  1  0  0  0
 32 31  1  0  0  0
 29 30  1  0  0  0
 29  6  1  0  0  0
 30 31  1  0  0  0
  1  2  1  0  0  0
  1  7  1  0  0  0
  2  3  1  0  0  0
  2  4  1  0  0  0
 21 22  1  0  0  0
 22 23  2  0  0  0
 22 27  1  0  0  0
 23 24  1  0  0  0
  4  5  1  0  0  0
  4  6  1  0  0  0
 24 25  2  0  0  0
 24 28  1  0  0  0
 25 26  1  0  0  0
 26 27  2  0  0  0
  6  7  1  0  0  0
 33 35  1  0  0  0
 33 36  1  0  0  0
 19 20  1  0  0  0
  3  8  1  0  0  0
  5  9  1  0  0  0
 39 40  1  0  0  0
M  END
> <minimizedAffinity>
-9.25927

$$$$
3P8Z_36A_A_263


 40 43  0  0  0  0  0  0  0  0999 V2000
    4.1307   -2.1569   42.9671 C   0  0  0  0  0  0  0  0  0  0  0  0
    5.2382   -3.2305   43.0821 C   0  0  0  0  0  0  0  0  0  0  0  0
    5.2039   -4.2447   42.0814 O   0  0  0  0  0  0  0  0  0  0  0  0
    4.9892   -3.8333   44.4635 C   0  0  0  0  0  0  0  0  0  0  0  0
    4.1772   -5.0041   44.3534 O   0  0  0  0  0  0  0  0  0  0  0  0
    4.1997   -2.7514   45.2012 C   0  0  0  0  0  0  0  0  0  0  0  0
    4.0258   -1.6389   44.3025 O   0  0  0  0  0  0  0  0  0  0  0  0
    4.3543   -4.7109   42.1225 H   0  0  0  0  0  0  0  0  0  0  0  0
    3.3443   -4.7795   43.9097 H   0  0  0  0  0  0  0  0  0  0  0  0
    2.1614    1.7639   40.3188 N   0  0  0  0  0  0  0  0  0  0  0  0
    1.5372    0.7766   40.9878 C   0  0  0  0  0  0  0  0  0  0  0  0
    2.2291   -0.1792   41.6339 N   0  0  0  0  0  0  0  0  0  0  0  0
    3.5929   -0.1558   41.6013 C   0  0  0  0  0  0  0  0  0  0  0  0
    4.2813    0.8291   40.9094 C   0  0  0  0  0  0  0  0  0  0  0  0
    3.5200    1.8145   40.2270 C   0  0  0  0  0  0  0  0  0  0  0  0
    5.6178    0.5839   41.0732 N   0  0  0  0  0  0  0  0  0  0  0  0
    5.7259   -0.5430   41.8420 C   0  0  0  0  0  0  0  0  0  0  0  0
    4.4905   -0.9934   42.1479 N   0  0  0  0  0  0  0  0  0  0  0  0
    4.0442    2.8427   39.5223 N   0  0  0  0  0  0  0  0  0  0  0  0
    5.0071    3.0224   39.6213 H   0  0  0  0  0  0  0  0  0  0  0  0
    3.2906    3.6935   38.6364 C   0  0  0  0  0  0  0  0  0  0  0  0
    3.0925    3.0623   37.2817 C   0  0  0  0  0  0  0  0  0  0  0  0
    1.7957    2.7868   36.8265 C   0  0  0  0  0  0  0  0  0  0  0  0
    1.6348    2.1908   35.5923 C   0  0  0  0  0  0  0  0  0  0  0  0
    2.7306    1.8430   34.7928 C   0  0  0  0  0  0  0  0  0  0  0  0
    4.0233    2.1228   35.2481 C   0  0  0  0  0  0  0  0  0  0  0  0
    4.2106    2.7177   36.4966 C   0  0  0  0  0  0  0  0  0  0  0  0
   -0.0110    1.8718   35.0431 Cl  0  0  0  0  0  0  0  0  0  0  0  0
    4.8466   -2.2464   46.4737 C   0  0  0  0  0  0  0  0  0  0  0  0
    6.5226   -2.8276   46.6339 S   0  0  0  0  0  0  0  0  0  0  0  0
    6.5372   -3.6879   48.1731 C   0  0  0  0  0  0  0  0  0  0  0  0
    7.2696   -5.0097   48.1597 C   0  0  0  0  0  0  0  0  0  0  0  0
    5.8829   -6.4259   46.7191 N   0  0  0  0  0  0  0  0  0  0  0  0
    7.0859   -5.5957   46.7370 C   0  0  0  0  0  0  0  0  0  0  0  0
    5.7532   -6.8166   45.7859 H   0  0  0  0  0  0  0  0  0  0  0  0
    5.0731   -5.8564   46.9648 H   0  0  0  0  0  0  0  0  0  0  0  0
    8.3468   -6.3478   46.3359 C   0  0  0  0  0  0  0  0  0  0  0  0
    8.2685   -7.5207   45.9260 O   0  0  0  0  0  0  0  0  0  0  0  0
    9.4927   -5.7955   46.4186 O   0  0  0  0  0  0  0  0  0  0  0  0
    9.5665   -4.9133   46.7255 H   0  0  0  0  0  0  0  0  0  0  0  0
 37 38  2  0  0  0
 37 34  1  0  0  0
 37 39  1  0  0  0
 33 34  1  0  0  0
 10 11  2  0  0  0
 10 15  1  0  0  0
 11 12  1  0  0  0
 12 13  2  0  0  0
 13 14  1  0  0  0
 13 18  1  0  0  0
 14 15  2  0  0  0
 14 16  1  0  0  0
 15 19  1  0  0  0
 19 21  1  0  0  0
 16 17  2  0  0  0
 17 18  1  0  0  0
 18  1  1  0  0  0
 34 32  1  0  0  0
 32 31  1  0  0  0
 29 30  1  0  0  0
 29  6  1  0  0  0
 30 31  1  0  0  0
  1  2  1  0  0  0
  1  7  1  0  0  0
  2  3  1  0  0  0
  2  4  1  0  0  0
 21 22  1  0  0  0
 22 23  2  0  0  0
 22 27  1  0  0  0
 23 24  1  0  0  0
  4  5  1  0  0  0
  4  6  1  0  0  0
 24 25  2  0  0  0
 24 28  1  0  0  0
 25 26  1  0  0  0
 26 27  2  0  0  0
  6  7  1  0  0  0
 33 35  1  0  0  0
 33 36  1  0  0  0
 19 20  1  0  0  0
  3  8  1  0  0  0
  5  9  1  0  0  0
 39 40  1  0  0  0
M  END
> <minimizedAffinity>
-9.14719

$$$$
3P8Z_36A_A_263


 40 43  0  0  0  0  0  0  0  0999 V2000
    6.0194   -0.1995   42.8564 C   0  0  0  0  0  0  0  0  0  0  0  0
    5.5619    0.3493   44.2282 C   0  0  0  0  0  0  0  0  0  0  0  0
    6.5104    1.1780   44.8951 O   0  0  0  0  0  0  0  0  0  0  0  0
    5.2999   -0.9207   45.0356 C   0  0  0  0  0  0  0  0  0  0  0  0
    6.4525   -1.2625   45.8082 O   0  0  0  0  0  0  0  0  0  0  0  0
    5.0816   -1.9962   43.9708 C   0  0  0  0  0  0  0  0  0  0  0  0
    5.2110   -1.3731   42.6783 O   0  0  0  0  0  0  0  0  0  0  0  0
    7.3257    0.6760   45.0503 H   0  0  0  0  0  0  0  0  0  0  0  0
    7.2165   -1.3681   45.2199 H   0  0  0  0  0  0  0  0  0  0  0  0
    2.1787    2.3792   40.6510 N   0  0  0  0  0  0  0  0  0  0  0  0
    2.1769    1.6094   41.7553 C   0  0  0  0  0  0  0  0  0  0  0  0
    3.2968    1.0039   42.1899 N   0  0  0  0  0  0  0  0  0  0  0  0
    4.4577    1.1624   41.4907 C   0  0  0  0  0  0  0  0  0  0  0  0
    4.5058    1.9293   40.3364 C   0  0  0  0  0  0  0  0  0  0  0  0
    3.3025    2.5429   39.8981 C   0  0  0  0  0  0  0  0  0  0  0  0
    5.7957    1.8985   39.8801 N   0  0  0  0  0  0  0  0  0  0  0  0
    6.5064    1.1104   40.7441 C   0  0  0  0  0  0  0  0  0  0  0  0
    5.6828    0.6567   41.7128 N   0  0  0  0  0  0  0  0  0  0  0  0
    3.1920    3.3283   38.8029 N   0  0  0  0  0  0  0  0  0  0  0  0
    2.6527    4.1483   38.8794 H   0  0  0  0  0  0  0  0  0  0  0  0
    3.8093    3.0475   37.5314 C   0  0  0  0  0  0  0  0  0  0  0  0
    2.8008    2.6122   36.4989 C   0  0  0  0  0  0  0  0  0  0  0  0
    3.2196    2.3441   35.1883 C   0  0  0  0  0  0  0  0  0  0  0  0
    2.2792    1.9659   34.2519 C   0  0  0  0  0  0  0  0  0  0  0  0
    0.9205    1.8573   34.5735 C   0  0  0  0  0  0  0  0  0  0  0  0
    0.5063    2.1218   35.8830 C   0  0  0  0  0  0  0  0  0  0  0  0
    1.4385    2.5138   36.8449 C   0  0  0  0  0  0  0  0  0  0  0  0
    2.8422    1.6211   32.6161 Cl  0  0  0  0  0  0  0  0  0  0  0  0
    3.7399   -2.6950   44.0366 C   0  0  0  0  0  0  0  0  0  0  0  0
    3.9243   -4.4476   44.2955 S   0  0  0  0  0  0  0  0  0  0  0  0
    5.2227   -4.5759   45.4817 C   0  0  0  0  0  0  0  0  0  0  0  0
    5.9185   -5.9166   45.5253 C   0  0  0  0  0  0  0  0  0  0  0  0
    7.3799   -6.0216   43.5613 N   0  0  0  0  0  0  0  0  0  0  0  0
    7.3511   -5.6825   44.9829 C   0  0  0  0  0  0  0  0  0  0  0  0
    8.3197   -5.8706   43.1948 H   0  0  0  0  0  0  0  0  0  0  0  0
    6.7193   -5.4301   43.0573 H   0  0  0  0  0  0  0  0  0  0  0  0
    8.3418   -6.4825   45.8166 C   0  0  0  0  0  0  0  0  0  0  0  0
    8.2047   -7.7142   45.9344 O   0  0  0  0  0  0  0  0  0  0  0  0
    9.3148   -5.9080   46.4067 O   0  0  0  0  0  0  0  0  0  0  0  0
    9.4301   -4.9816   46.3267 H   0  0  0  0  0  0  0  0  0  0  0  0
 37 38  2  0  0  0
 37 34  1  0  0  0
 37 39  1  0  0  0
 33 34  1  0  0  0
 10 11  2  0  0  0
 10 15  1  0  0  0
 11 12  1  0  0  0
 12 13  2  0  0  0
 13 14  1  0  0  0
 13 18  1  0  0  0
 14 15  2  0  0  0
 14 16  1  0  0  0
 15 19  1  0  0  0
 19 21  1  0  0  0
 16 17  2  0  0  0
 17 18  1  0  0  0
 18  1  1  0  0  0
 34 32  1  0  0  0
 32 31  1  0  0  0
 29 30  1  0  0  0
 29  6  1  0  0  0
 30 31  1  0  0  0
  1  2  1  0  0  0
  1  7  1  0  0  0
  2  3  1  0  0  0
  2  4  1  0  0  0
 21 22  1  0  0  0
 22 23  2  0  0  0
 22 27  1  0  0  0
 23 24  1  0  0  0
  4  5  1  0  0  0
  4  6  1  0  0  0
 24 25  2  0  0  0
 24 28  1  0  0  0
 25 26  1  0  0  0
 26 27  2  0  0  0
  6  7  1  0  0  0
 33 35  1  0  0  0
 33 36  1  0  0  0
 19 20  1  0  0  0
  3  8  1  0  0  0
  5  9  1  0  0  0
 39 40  1  0  0  0
M  END
> <minimizedAffinity>
-9.10992

$$$$
3P8Z_36A_A_263


 40 43  0  0  0  0  0  0  0  0999 V2000
    6.1517    1.8984   40.0741 C   0  0  0  0  0  0  0  0  0  0  0  0
    6.6319    1.3079   38.7276 C   0  0  0  0  0  0  0  0  0  0  0  0
    8.0421    1.1381   38.6101 O   0  0  0  0  0  0  0  0  0  0  0  0
    6.1288    2.3273   37.7073 C   0  0  0  0  0  0  0  0  0  0  0  0
    7.1572    3.2722   37.4035 O   0  0  0  0  0  0  0  0  0  0  0  0
    4.9939    3.0485   38.4352 C   0  0  0  0  0  0  0  0  0  0  0  0
    4.8765    2.4751   39.7516 O   0  0  0  0  0  0  0  0  0  0  0  0
    8.4808    1.9970   38.7135 H   0  0  0  0  0  0  0  0  0  0  0  0
    7.4508    3.7044   38.2207 H   0  0  0  0  0  0  0  0  0  0  0  0
    7.3449    0.4441   44.8413 N   0  0  0  0  0  0  0  0  0  0  0  0
    7.8392    1.4528   44.0995 C   0  0  0  0  0  0  0  0  0  0  0  0
    7.3975    1.6865   42.8505 N   0  0  0  0  0  0  0  0  0  0  0  0
    6.4365    0.8774   42.3181 C   0  0  0  0  0  0  0  0  0  0  0  0
    5.9104   -0.1864   43.0353 C   0  0  0  0  0  0  0  0  0  0  0  0
    6.4091   -0.4132   44.3455 C   0  0  0  0  0  0  0  0  0  0  0  0
    4.9748   -0.7910   42.2403 N   0  0  0  0  0  0  0  0  0  0  0  0
    4.9529   -0.1049   41.0566 C   0  0  0  0  0  0  0  0  0  0  0  0
    5.8535    0.8996   41.1075 N   0  0  0  0  0  0  0  0  0  0  0  0
    5.9882   -1.3982   45.1709 N   0  0  0  0  0  0  0  0  0  0  0  0
    5.7779   -1.1573   46.1020 H   0  0  0  0  0  0  0  0  0  0  0  0
    5.8263   -2.7761   44.7814 C   0  0  0  0  0  0  0  0  0  0  0  0
    6.6065   -3.7091   45.6722 C   0  0  0  0  0  0  0  0  0  0  0  0
    7.0081   -4.9607   45.1853 C   0  0  0  0  0  0  0  0  0  0  0  0
    7.7044   -5.8094   46.0216 C   0  0  0  0  0  0  0  0  0  0  0  0
    8.0062   -5.4587   47.3433 C   0  0  0  0  0  0  0  0  0  0  0  0
    7.6074   -4.2075   47.8250 C   0  0  0  0  0  0  0  0  0  0  0  0
    6.8951   -3.3359   46.9998 C   0  0  0  0  0  0  0  0  0  0  0  0
    8.2080   -7.3705   45.3725 Cl  0  0  0  0  0  0  0  0  0  0  0  0
    3.6451    2.9666   37.7520 C   0  0  0  0  0  0  0  0  0  0  0  0
    3.4272    4.2805   36.5692 S   0  0  0  0  0  0  0  0  0  0  0  0
    3.1415    3.4457   35.0425 C   0  0  0  0  0  0  0  0  0  0  0  0
    3.0308    1.9422   35.1470 C   0  0  0  0  0  0  0  0  0  0  0  0
    1.6943    2.2428   33.1154 N   0  0  0  0  0  0  0  0  0  0  0  0
    1.7313    1.5476   34.4007 C   0  0  0  0  0  0  0  0  0  0  0  0
    0.8417    1.9892   32.6161 H   0  0  0  0  0  0  0  0  0  0  0  0
    2.5063    1.9737   32.5598 H   0  0  0  0  0  0  0  0  0  0  0  0
    0.5310    1.8486   35.2868 C   0  0  0  0  0  0  0  0  0  0  0  0
    0.6420    1.7934   36.5255 O   0  0  0  0  0  0  0  0  0  0  0  0
   -0.5978    2.1531   34.7788 O   0  0  0  0  0  0  0  0  0  0  0  0
   -0.6958    2.1983   33.8481 H   0  0  0  0  0  0  0  0  0  0  0  0
 37 38  2  0  0  0
 37 34  1  0  0  0
 37 39  1  0  0  0
 33 34  1  0  0  0
 10 11  2  0  0  0
 10 15  1  0  0  0
 11 12  1  0  0  0
 12 13  2  0  0  0
 13 14  1  0  0  0
 13 18  1  0  0  0
 14 15  2  0  0  0
 14 16  1  0  0  0
 15 19  1  0  0  0
 19 21  1  0  0  0
 16 17  2  0  0  0
 17 18  1  0  0  0
 18  1  1  0  0  0
 34 32  1  0  0  0
 32 31  1  0  0  0
 29 30  1  0  0  0
 29  6  1  0  0  0
 30 31  1  0  0  0
  1  2  1  0  0  0
  1  7  1  0  0  0
  2  3  1  0  0  0
  2  4  1  0  0  0
 21 22  1  0  0  0
 22 23  2  0  0  0
 22 27  1  0  0  0
 23 24  1  0  0  0
  4  5  1  0  0  0
  4  6  1  0  0  0
 24 25  2  0  0  0
 24 28  1  0  0  0
 25 26  1  0  0  0
 26 27  2  0  0  0
  6  7  1  0  0  0
 33 35  1  0  0  0
 33 36  1  0  0  0
 19 20  1  0  0  0
  3  8  1  0  0  0
  5  9  1  0  0  0
 39 40  1  0  0  0
M  END
> <minimizedAffinity>
-9.10642

$$$$
3P8Z_36A_A_263


 40 43  0  0  0  0  0  0  0  0999 V2000
    5.1178   -1.5709   47.1268 C   0  0  0  0  0  0  0  0  0  0  0  0
    3.7921   -1.7690   47.8986 C   0  0  0  0  0  0  0  0  0  0  0  0
    3.1983   -0.5734   48.3979 O   0  0  0  0  0  0  0  0  0  0  0  0
    4.1997   -2.6855   49.0506 C   0  0  0  0  0  0  0  0  0  0  0  0
    4.5017   -1.9130   50.2145 O   0  0  0  0  0  0  0  0  0  0  0  0
    5.4823   -3.3538   48.5542 C   0  0  0  0  0  0  0  0  0  0  0  0
    5.7625   -2.8497   47.2340 O   0  0  0  0  0  0  0  0  0  0  0  0
    3.8150   -0.1353   49.0051 H   0  0  0  0  0  0  0  0  0  0  0  0
    5.2010   -1.2740   50.0059 H   0  0  0  0  0  0  0  0  0  0  0  0
    7.0313    0.9871   43.1193 N   0  0  0  0  0  0  0  0  0  0  0  0
    7.3939    1.0207   44.4152 C   0  0  0  0  0  0  0  0  0  0  0  0
    6.7681    0.2683   45.3382 N   0  0  0  0  0  0  0  0  0  0  0  0
    5.7356   -0.5378   44.9565 C   0  0  0  0  0  0  0  0  0  0  0  0
    5.3124   -0.5922   43.6371 C   0  0  0  0  0  0  0  0  0  0  0  0
    5.9857    0.2254   42.6912 C   0  0  0  0  0  0  0  0  0  0  0  0
    4.2783   -1.4866   43.5773 N   0  0  0  0  0  0  0  0  0  0  0  0
    4.0769   -1.9500   44.8491 C   0  0  0  0  0  0  0  0  0  0  0  0
    4.9584   -1.3586   45.6832 N   0  0  0  0  0  0  0  0  0  0  0  0
    5.6989    0.2729   41.3706 N   0  0  0  0  0  0  0  0  0  0  0  0
    4.7986   -0.0066   41.0867 H   0  0  0  0  0  0  0  0  0  0  0  0
    6.6203    0.7043   40.3501 C   0  0  0  0  0  0  0  0  0  0  0  0
    5.9381    1.5240   39.2845 C   0  0  0  0  0  0  0  0  0  0  0  0
    4.5747    1.8256   39.4065 C   0  0  0  0  0  0  0  0  0  0  0  0
    3.9626    2.5603   38.4115 C   0  0  0  0  0  0  0  0  0  0  0  0
    4.6634    2.9981   37.2808 C   0  0  0  0  0  0  0  0  0  0  0  0
    6.0248    2.6987   37.1639 C   0  0  0  0  0  0  0  0  0  0  0  0
    6.6629    1.9501   38.1539 C   0  0  0  0  0  0  0  0  0  0  0  0
    2.2497    2.9354   38.6036 Cl  0  0  0  0  0  0  0  0  0  0  0  0
    5.4299   -4.8658   48.4915 C   0  0  0  0  0  0  0  0  0  0  0  0
    4.9442   -5.4398   46.8768 S   0  0  0  0  0  0  0  0  0  0  0  0
    5.5149   -7.1073   46.8204 C   0  0  0  0  0  0  0  0  0  0  0  0
    6.0456   -7.5563   45.4786 C   0  0  0  0  0  0  0  0  0  0  0  0
    6.7631   -6.1327   43.6178 N   0  0  0  0  0  0  0  0  0  0  0  0
    7.0401   -6.4623   45.0146 C   0  0  0  0  0  0  0  0  0  0  0  0
    7.4133   -5.4127   43.3029 H   0  0  0  0  0  0  0  0  0  0  0  0
    5.8069   -5.7880   43.5329 H   0  0  0  0  0  0  0  0  0  0  0  0
    8.4643   -6.9434   45.2525 C   0  0  0  0  0  0  0  0  0  0  0  0
    8.9831   -7.7632   44.4724 O   0  0  0  0  0  0  0  0  0  0  0  0
    9.1397   -6.5229   46.2485 O   0  0  0  0  0  0  0  0  0  0  0  0
    8.7618   -5.9058   46.8437 H   0  0  0  0  0  0  0  0  0  0  0  0
 37 38  2  0  0  0
 37 34  1  0  0  0
 37 39  1  0  0  0
 33 34  1  0  0  0
 10 11  2  0  0  0
 10 15  1  0  0  0
 11 12  1  0  0  0
 12 13  2  0  0  0
 13 14  1  0  0  0
 13 18  1  0  0  0
 14 15  2  0  0  0
 14 16  1  0  0  0
 15 19  1  0  0  0
 19 21  1  0  0  0
 16 17  2  0  0  0
 17 18  1  0  0  0
 18  1  1  0  0  0
 34 32  1  0  0  0
 32 31  1  0  0  0
 29 30  1  0  0  0
 29  6  1  0  0  0
 30 31  1  0  0  0
  1  2  1  0  0  0
  1  7  1  0  0  0
  2  3  1  0  0  0
  2  4  1  0  0  0
 21 22  1  0  0  0
 22 23  2  0  0  0
 22 27  1  0  0  0
 23 24  1  0  0  0
  4  5  1  0  0  0
  4  6  1  0  0  0
 24 25  2  0  0  0
 24 28  1  0  0  0
 25 26  1  0  0  0
 26 27  2  0  0  0
  6  7  1  0  0  0
 33 35  1  0  0  0
 33 36  1  0  0  0
 19 20  1  0  0  0
  3  8  1  0  0  0
  5  9  1  0  0  0
 39 40  1  0  0  0
M  END
> <minimizedAffinity>
-8.89891

$$$$
