3P8Z_36A_A_263
  RCSB PDB12061710133D
Coordinates from PDB:3P8Z:A:263 Model:1 without hydrogens
 34 37  0  0  0  0            999 V2000
    8.2150   -7.5260   45.5840   C 0  0  0  0  0  0  0  0  0  0  0  0
    7.0820   -7.6340   43.3640   N 0  0  0  0  0  0  0  0  0  0  0  0
    8.6460   -6.9080   46.5750   O 0  0  0  0  0  0  0  0  0  0  0  0
    7.1850    2.4740   37.2930   N 0  0  0  0  0  0  0  0  0  0  0  0
    7.9810    1.7720   38.1210   C 0  0  0  0  0  0  0  0  0  0  0  0
    7.5150    1.2590   39.2740   N 0  0  0  0  0  0  0  0  0  0  0  0
    6.2110    1.4640   39.6190   C 0  0  0  0  0  0  0  0  0  0  0  0
    5.3570    2.1970   38.8090   C 0  0  0  0  0  0  0  0  0  0  0  0
    5.8850    2.7360   37.6060   C 0  0  0  0  0  0  0  0  0  0  0  0
    5.1770    3.4590   36.7090   N 0  0  0  0  0  0  0  0  0  0  0  0
    4.1320    2.2150   39.4190   N 0  0  0  0  0  0  0  0  0  0  0  0
    4.2570    1.5130   40.5870   C 0  0  0  0  0  0  0  0  0  0  0  0
    5.5270    1.0710   40.7070   N 0  0  0  0  0  0  0  0  0  0  0  0
    7.5680   -6.7660   44.4350   C 0  0  0  0  0  0  0  0  0  0  0  0
    6.3830   -5.9280   44.9780   C 0  0  0  0  0  0  0  0  0  0  0  0
    4.5940   -2.8250   42.7950   C 0  0  0  0  0  0  0  0  0  0  0  0
    4.6950   -3.8670   44.2360   S 0  0  0  0  0  0  0  0  0  0  0  0
    6.1670   -4.8060   43.9890   C 0  0  0  0  0  0  0  0  0  0  0  0
    6.1030    0.2610   41.7870   C 0  0  0  0  0  0  0  0  0  0  0  0
    5.5450    0.5750   43.1950   C 0  0  0  0  0  0  0  0  0  0  0  0
    6.2530    1.5800   43.9160   O 0  0  0  0  0  0  0  0  0  0  0  0
    3.8470    3.9650   36.9360   C 0  0  0  0  0  0  0  0  0  0  0  0
    2.8030    3.1490   36.2170   C 0  0  0  0  0  0  0  0  0  0  0  0
    3.0770    2.6400   34.9400   C 0  0  0  0  0  0  0  0  0  0  0  0
    5.6470   -0.7700   43.9120   C 0  0  0  0  0  0  0  0  0  0  0  0
    6.8650   -0.8430   44.6560   O 0  0  0  0  0  0  0  0  0  0  0  0
    2.1020    1.9120   34.2890   C 0  0  0  0  0  0  0  0  0  0  0  0
    0.8460    1.6820   34.8640   C 0  0  0  0  0  0  0  0  0  0  0  0
    0.5770    2.1880   36.1400   C 0  0  0  0  0  0  0  0  0  0  0  0
    1.5450    2.9340   36.8140   C 0  0  0  0  0  0  0  0  0  0  0  0
    2.4850    1.2730   32.6900  Cl 0  0  0  0  0  0  0  0  0  0  0  0
    5.7000   -1.7910   42.7750   C 0  0  0  0  0  0  0  0  0  0  0  0
    5.6320   -1.0710   41.5290   O 0  0  0  0  0  0  0  0  0  0  0  0
    8.3300   -8.7950   45.5470   O 0  0  0  0  0  0  0  0  0  0  0  0
  1  3  2  0  0  0  0
  1 14  1  0  0  0  0
  1 34  1  0  0  0  0
  2 14  1  0  0  0  0
  4  5  2  0  0  0  0
  4  9  1  0  0  0  0
  5  6  1  0  0  0  0
  6  7  2  0  0  0  0
  7  8  1  0  0  0  0
  7 13  1  0  0  0  0
  8  9  2  0  0  0  0
  8 11  1  0  0  0  0
  9 10  1  0  0  0  0
 10 22  1  0  0  0  0
 11 12  2  0  0  0  0
 12 13  1  0  0  0  0
 13 19  1  0  0  0  0
 14 15  1  0  0  0  0
 15 18  1  0  0  0  0
 16 17  1  0  0  0  0
 16 32  1  0  0  0  0
 17 18  1  0  0  0  0
 19 20  1  0  0  0  0
 19 33  1  0  0  0  0
 20 21  1  0  0  0  0
 20 25  1  0  0  0  0
 22 23  1  0  0  0  0
 23 24  2  0  0  0  0
 23 30  1  0  0  0  0
 24 27  1  0  0  0  0
 25 26  1  0  0  0  0
 25 32  1  0  0  0  0
 27 28  2  0  0  0  0
 27 31  1  0  0  0  0
 28 29  1  0  0  0  0
 29 30  2  0  0  0  0
 32 33  1  0  0  0  0
A    1
C
A    2
N
A    3
O
A    4
N1
A    5
C2
A    6
N3
A    7
C4
A    8
C5
A    9
C6
A   10
N6
A   11
N7
A   12
C8
A   13
N9
A   14
CA
A   15
CB
A   16
CD
A   17
SD
A   18
CG
A   19
C1'
A   20
C2'
A   21
O2'
A   22
C27
A   23
C28
A   24
C29
A   25
C3'
A   26
O3'
A   27
C30
A   28
C31
A   29
C32
A   30
C33
A   31
CL34
A   32
C4'
A   33
O4'
A   34
OXT
M  END
>  <InstanceId>
3P8Z_36A_A_263

>  <ChemCompId>
36A

>  <PdbId>
3P8Z

>  <ChainId>
A

>  <ResidueNumber>
263

>  <InsertionCode>


>  <Model>
1

>  <AltIds>


>  <MissingHeavyAtoms>
0

>  <ObservedFormula>
C21 N6 O5 S Cl

>  <Name>
(S)-2-amino-4-(((2S,3S,4R,5R)-5-(6-(3-chlorobenzylamino)-9H-purin-9-yl)-3,4-dihydroxytetrahydrofuran-2-yl)methylthio)butanoic acid

>  <SystematicName>
(2S)-2-azanyl-4-[[(2S,3S,4R,5R)-5-[6-[(3-chlorophenyl)methylamino]purin-9-yl]-3,4-dihydroxy-oxolan-2-yl]methylsulfanyl]butanoic acid

>  <Synonyms>


>  <Type>
NON-POLYMER

>  <Formula>
C21 H25 Cl N6 O5 S

>  <MolecularWeight>
508.978

>  <ModifiedDate>
2011-06-04

>  <Parent>


>  <OneLetterCode>


>  <SubcomponentList>


>  <AmbiguousFlag>
N

>  <InChI>
InChI=1S/C21H25ClN6O5S/c22-12-3-1-2-11(6-12)7-24-18-15-19(26-9-25-18)28(10-27-15)20-17(30)16(29)14(33-20)8-34-5-4-13(23)21(31)32/h1-3,6,9-10,13-14,16-17,20,29-30H,4-5,7-8,23H2,(H,31,32)(H,24,25,26)/t13-,14+,16+,17+,20+/m0/s1

>  <InChIKey>
VGYBDYWAAOWMTJ-SWQDORGXSA-N

>  <SMILES>
c1cc(cc(c1)Cl)CNc2c3c(ncn2)n(cn3)[C@H]4[C@@H]([C@@H]([C@H](O4)CSCC[C@@H](C(=O)O)N)O)O

$$$$
