3OIM_VZ5_A_263


 29 32  0  0  0  0  0  0  0  0999 V2000
   -3.1836    2.8632   13.9272 C   0  0  0  0  0  0  0  0  0  0  0  0
   -4.5753    2.7036   14.2001 C   0  0  0  0  0  0  0  0  0  0  0  0
   -5.0767    3.8899   14.6485 C   0  0  0  0  0  0  0  0  0  0  0  0
   -4.4443    5.1290   14.4407 C   0  0  0  0  0  0  0  0  0  0  0  0
   -3.0938    5.2659   14.0937 C   0  0  0  0  0  0  0  0  0  0  0  0
   -2.4655    4.0783   13.7767 C   0  0  0  0  0  0  0  0  0  0  0  0
   -0.9956    4.0939   13.3581 C   0  0  0  0  0  0  0  0  0  0  0  0
   -0.6233    5.3851   12.6311 C   0  0  0  0  0  0  0  0  0  0  0  0
   -0.9057    6.5379   13.5804 C   0  0  0  0  0  0  0  0  0  0  0  0
   -2.4366    6.5407   13.9523 C   0  0  0  0  0  0  0  0  0  0  0  0
   -2.7283    7.6761   14.9457 C   0  0  0  0  0  0  0  0  0  0  0  0
   -2.2983    9.0937   14.4371 C   0  0  0  0  0  0  0  0  0  0  0  0
   -0.7876    9.0049   14.1827 C   0  0  0  0  0  0  0  0  0  0  0  0
   -0.4363    7.9520   13.1390 C   0  0  0  0  0  0  0  0  0  0  0  0
    1.0865    8.1502   13.0558 C   0  0  0  0  0  0  0  0  0  0  0  0
    1.2741    9.6634   13.4511 C   0  0  0  0  0  0  0  0  0  0  0  0
   -0.1398   10.2060   13.5127 C   0  0  0  0  0  0  0  0  0  0  0  0
   -0.0576   11.3516   14.3984 O   0  0  0  0  0  0  0  0  0  0  0  0
   -0.1134    8.7482   15.5390 C   0  0  0  0  0  0  0  0  0  0  0  0
    0.3905   11.0941   15.2193 H   0  0  0  0  0  0  0  0  0  0  0  0
   -6.5199    3.8797   15.0307 C   0  0  0  0  0  0  0  0  0  0  0  0
   -6.6155    3.8760   16.5389 C   0  0  0  0  0  0  0  0  0  0  0  0
   -4.7628    1.3581   14.3917 O   0  0  0  0  0  0  0  0  0  0  0  0
   -5.7577    0.4810   16.3796 N   0  0  0  0  0  0  0  0  0  0  0  0
   -4.1691   -0.8101   15.0407 O   0  0  0  0  0  0  0  0  0  0  0  0
   -4.4283    0.4780   15.6088 S   0  0  0  0  0  0  0  0  0  0  0  0
   -3.3379    1.0870   16.3816 O   0  0  0  0  0  0  0  0  0  0  0  0
   -6.4837    0.0503   15.8071 H   0  0  0  0  0  0  0  0  0  0  0  0
   -6.0220    1.4417   16.5978 H   0  0  0  0  0  0  0  0  0  0  0  0
  6  1  2  0  0  0
  1  2  1  0  0  0
 24 26  1  0  0  0
 26 25  2  0  0  0
 23 26  1  0  0  0
 27 26  2  0  0  0
  3  2  2  0  0  0
  2 23  1  0  0  0
  4  3  1  0  0  0
  3 21  1  0  0  0
  5  4  2  0  0  0
 10  5  1  0  0  0
  5  6  1  0  0  0
  7  6  1  0  0  0
  8  7  1  0  0  0
  9  8  1  0  0  0
 14  9  1  0  0  0
  9 10  1  0  0  0
 11 10  1  0  0  0
 12 11  1  0  0  0
 13 12  1  0  0  0
 17 13  1  0  0  0
 13 14  1  0  0  0
 13 19  1  0  0  0
 15 14  1  0  0  0
 16 15  1  0  0  0
 16 17  1  0  0  0
 18 17  1  0  0  0
 21 22  1  0  0  0
 24 28  1  0  0  0
 24 29  1  0  0  0
 18 20  1  0  0  0
M  END
> <minimizedAffinity>
-8.96665

$$$$
3OIM_VZ5_A_263


 29 32  0  0  0  0  0  0  0  0999 V2000
   -3.8628    4.1838   14.7481 C   0  0  0  0  0  0  0  0  0  0  0  0
   -3.5969    2.9246   14.1315 C   0  0  0  0  0  0  0  0  0  0  0  0
   -3.0939    3.1414   12.8826 C   0  0  0  0  0  0  0  0  0  0  0  0
   -2.5263    4.3620   12.4747 C   0  0  0  0  0  0  0  0  0  0  0  0
   -2.7329    5.5780   13.1393 C   0  0  0  0  0  0  0  0  0  0  0  0
   -3.3849    5.4599   14.3503 C   0  0  0  0  0  0  0  0  0  0  0  0
   -3.6510    6.7115   15.1862 C   0  0  0  0  0  0  0  0  0  0  0  0
   -2.5656    7.7690   14.9908 C   0  0  0  0  0  0  0  0  0  0  0  0
   -2.5404    8.1259   13.5138 C   0  0  0  0  0  0  0  0  0  0  0  0
   -2.2055    6.8358   12.6739 C   0  0  0  0  0  0  0  0  0  0  0  0
   -2.2187    7.1734   11.1749 C   0  0  0  0  0  0  0  0  0  0  0  0
   -1.2510    8.3383   10.7756 C   0  0  0  0  0  0  0  0  0  0  0  0
   -1.7114    9.5586   11.5843 C   0  0  0  0  0  0  0  0  0  0  0  0
   -1.6402    9.3186   13.0871 C   0  0  0  0  0  0  0  0  0  0  0  0
   -2.0788   10.6993   13.6032 C   0  0  0  0  0  0  0  0  0  0  0  0
   -1.6355   11.6727   12.4469 C   0  0  0  0  0  0  0  0  0  0  0  0
   -0.8266   10.7928   11.5147 C   0  0  0  0  0  0  0  0  0  0  0  0
   -0.9033   11.4522   10.2251 O   0  0  0  0  0  0  0  0  0  0  0  0
   -3.1265    9.9138   11.1035 C   0  0  0  0  0  0  0  0  0  0  0  0
   -1.8305   11.6441   10.0147 H   0  0  0  0  0  0  0  0  0  0  0  0
   -2.8085    1.9167   12.0779 C   0  0  0  0  0  0  0  0  0  0  0  0
   -1.5609    2.1608   11.2608 C   0  0  0  0  0  0  0  0  0  0  0  0
   -4.3868    2.0162   14.7896 O   0  0  0  0  0  0  0  0  0  0  0  0
   -4.3827   -0.3362   15.2107 N   0  0  0  0  0  0  0  0  0  0  0  0
   -2.6010    1.1331   16.0166 O   0  0  0  0  0  0  0  0  0  0  0  0
   -4.0196    0.9973   15.8826 S   0  0  0  0  0  0  0  0  0  0  0  0
   -4.8205    1.2469   17.0882 O   0  0  0  0  0  0  0  0  0  0  0  0
   -3.8041   -0.4675   14.3810 H   0  0  0  0  0  0  0  0  0  0  0  0
   -5.3663   -0.3242   14.9409 H   0  0  0  0  0  0  0  0  0  0  0  0
  6  1  2  0  0  0
  1  2  1  0  0  0
 24 26  1  0  0  0
 26 25  2  0  0  0
 23 26  1  0  0  0
 27 26  2  0  0  0
  3  2  2  0  0  0
  2 23  1  0  0  0
  4  3  1  0  0  0
  3 21  1  0  0  0
  5  4  2  0  0  0
 10  5  1  0  0  0
  5  6  1  0  0  0
  7  6  1  0  0  0
  8  7  1  0  0  0
  9  8  1  0  0  0
 14  9  1  0  0  0
  9 10  1  0  0  0
 11 10  1  0  0  0
 12 11  1  0  0  0
 13 12  1  0  0  0
 17 13  1  0  0  0
 13 14  1  0  0  0
 13 19  1  0  0  0
 15 14  1  0  0  0
 16 15  1  0  0  0
 16 17  1  0  0  0
 18 17  1  0  0  0
 21 22  1  0  0  0
 24 28  1  0  0  0
 24 29  1  0  0  0
 18 20  1  0  0  0
M  END
> <minimizedAffinity>
-8.22128

$$$$
3OIM_VZ5_A_263


 29 32  0  0  0  0  0  0  0  0999 V2000
   -3.1101    1.5887   12.8823 C   0  0  0  0  0  0  0  0  0  0  0  0
   -4.0179    2.2845   13.7357 C   0  0  0  0  0  0  0  0  0  0  0  0
   -3.5472    3.5472   13.9460 C   0  0  0  0  0  0  0  0  0  0  0  0
   -2.6002    4.1718   13.1145 C   0  0  0  0  0  0  0  0  0  0  0  0
   -1.7708    3.4804   12.2218 C   0  0  0  0  0  0  0  0  0  0  0  0
   -2.0854    2.1446   12.0724 C   0  0  0  0  0  0  0  0  0  0  0  0
   -1.2700    1.2834   11.1083 C   0  0  0  0  0  0  0  0  0  0  0  0
   -0.7475    2.0932    9.9228 C   0  0  0  0  0  0  0  0  0  0  0  0
    0.1187    3.2095   10.4824 C   0  0  0  0  0  0  0  0  0  0  0  0
   -0.7543    4.1206   11.4257 C   0  0  0  0  0  0  0  0  0  0  0  0
    0.1198    5.2292   12.0323 C   0  0  0  0  0  0  0  0  0  0  0  0
    0.8582    6.1115   10.9696 C   0  0  0  0  0  0  0  0  0  0  0  0
    1.7355    5.1451   10.1624 C   0  0  0  0  0  0  0  0  0  0  0  0
    0.9178    4.0671    9.4621 C   0  0  0  0  0  0  0  0  0  0  0  0
    2.0345    3.3289    8.7050 C   0  0  0  0  0  0  0  0  0  0  0  0
    3.1199    4.4487    8.4837 C   0  0  0  0  0  0  0  0  0  0  0  0
    2.4350    5.7210    8.9417 C   0  0  0  0  0  0  0  0  0  0  0  0
    3.5189    6.6156    9.3001 O   0  0  0  0  0  0  0  0  0  0  0  0
    2.7813    4.5674   11.1282 C   0  0  0  0  0  0  0  0  0  0  0  0
    4.1291    6.1598    9.9007 H   0  0  0  0  0  0  0  0  0  0  0  0
   -4.3603    4.3962   14.8663 C   0  0  0  0  0  0  0  0  0  0  0  0
   -5.6670    4.7272   14.1830 C   0  0  0  0  0  0  0  0  0  0  0  0
   -4.7159    1.3116   14.4053 O   0  0  0  0  0  0  0  0  0  0  0  0
   -5.5960    1.3671   16.6264 N   0  0  0  0  0  0  0  0  0  0  0  0
   -4.7304   -0.6877   15.6207 O   0  0  0  0  0  0  0  0  0  0  0  0
   -4.4786    0.7097   15.8014 S   0  0  0  0  0  0  0  0  0  0  0  0
   -3.1418    1.0795   16.2846 O   0  0  0  0  0  0  0  0  0  0  0  0
   -6.5034    1.0834   16.2568 H   0  0  0  0  0  0  0  0  0  0  0  0
   -5.5082    2.3818   16.5701 H   0  0  0  0  0  0  0  0  0  0  0  0
  6  1  2  0  0  0
  1  2  1  0  0  0
 24 26  1  0  0  0
 26 25  2  0  0  0
 23 26  1  0  0  0
 27 26  2  0  0  0
  3  2  2  0  0  0
  2 23  1  0  0  0
  4  3  1  0  0  0
  3 21  1  0  0  0
  5  4  2  0  0  0
 10  5  1  0  0  0
  5  6  1  0  0  0
  7  6  1  0  0  0
  8  7  1  0  0  0
  9  8  1  0  0  0
 14  9  1  0  0  0
  9 10  1  0  0  0
 11 10  1  0  0  0
 12 11  1  0  0  0
 13 12  1  0  0  0
 17 13  1  0  0  0
 13 14  1  0  0  0
 13 19  1  0  0  0
 15 14  1  0  0  0
 16 15  1  0  0  0
 16 17  1  0  0  0
 18 17  1  0  0  0
 21 22  1  0  0  0
 24 28  1  0  0  0
 24 29  1  0  0  0
 18 20  1  0  0  0
M  END
> <minimizedAffinity>
-7.99196

$$$$
3OIM_VZ5_A_263


 29 32  0  0  0  0  0  0  0  0999 V2000
   -2.4001    3.4876   13.7000 C   0  0  0  0  0  0  0  0  0  0  0  0
   -3.7300    3.2917   14.1791 C   0  0  0  0  0  0  0  0  0  0  0  0
   -4.1817    4.4596   14.7192 C   0  0  0  0  0  0  0  0  0  0  0  0
   -3.6146    5.7158   14.4389 C   0  0  0  0  0  0  0  0  0  0  0  0
   -2.3362    5.8891   13.8924 C   0  0  0  0  0  0  0  0  0  0  0  0
   -1.7390    4.7211   13.4627 C   0  0  0  0  0  0  0  0  0  0  0  0
   -0.3510    4.7768   12.8251 C   0  0  0  0  0  0  0  0  0  0  0  0
   -0.1214    6.0864   12.0724 C   0  0  0  0  0  0  0  0  0  0  0  0
   -0.2795    7.2189   13.0735 C   0  0  0  0  0  0  0  0  0  0  0  0
   -1.7353    7.1807   13.6746 C   0  0  0  0  0  0  0  0  0  0  0  0
   -1.8954    8.2951   14.7204 C   0  0  0  0  0  0  0  0  0  0  0  0
   -1.5781    9.7293   14.1768 C   0  0  0  0  0  0  0  0  0  0  0  0
   -0.1224    9.6794   13.6934 C   0  0  0  0  0  0  0  0  0  0  0  0
    0.0871    8.6497   12.5902 C   0  0  0  0  0  0  0  0  0  0  0  0
    1.5748    8.8845   12.2792 C   0  0  0  0  0  0  0  0  0  0  0  0
    1.7889   10.3960   12.6674 C   0  0  0  0  0  0  0  0  0  0  0  0
    0.3900   10.9045   12.9534 C   0  0  0  0  0  0  0  0  0  0  0  0
    0.5825   12.0393   13.8359 O   0  0  0  0  0  0  0  0  0  0  0  0
    0.7564    9.4197   14.9264 C   0  0  0  0  0  0  0  0  0  0  0  0
    1.1562   11.7809   14.5743 H   0  0  0  0  0  0  0  0  0  0  0  0
   -5.5490    4.4103   15.3168 C   0  0  0  0  0  0  0  0  0  0  0  0
   -6.5618    4.5938   14.2103 C   0  0  0  0  0  0  0  0  0  0  0  0
   -3.8577    1.9396   14.3737 O   0  0  0  0  0  0  0  0  0  0  0  0
   -4.1741   -0.2906   15.1719 N   0  0  0  0  0  0  0  0  0  0  0  0
   -2.5152    1.2181   16.1490 O   0  0  0  0  0  0  0  0  0  0  0  0
   -3.8644    1.1263   15.6800 S   0  0  0  0  0  0  0  0  0  0  0  0
   -4.9089    1.6335   16.5794 O   0  0  0  0  0  0  0  0  0  0  0  0
   -3.4251   -0.6012   14.5532 H   0  0  0  0  0  0  0  0  0  0  0  0
   -5.0566   -0.2830   14.6604 H   0  0  0  0  0  0  0  0  0  0  0  0
  6  1  2  0  0  0
  1  2  1  0  0  0
 24 26  1  0  0  0
 26 25  2  0  0  0
 23 26  1  0  0  0
 27 26  2  0  0  0
  3  2  2  0  0  0
  2 23  1  0  0  0
  4  3  1  0  0  0
  3 21  1  0  0  0
  5  4  2  0  0  0
 10  5  1  0  0  0
  5  6  1  0  0  0
  7  6  1  0  0  0
  8  7  1  0  0  0
  9  8  1  0  0  0
 14  9  1  0  0  0
  9 10  1  0  0  0
 11 10  1  0  0  0
 12 11  1  0  0  0
 13 12  1  0  0  0
 17 13  1  0  0  0
 13 14  1  0  0  0
 13 19  1  0  0  0
 15 14  1  0  0  0
 16 15  1  0  0  0
 16 17  1  0  0  0
 18 17  1  0  0  0
 21 22  1  0  0  0
 24 28  1  0  0  0
 24 29  1  0  0  0
 18 20  1  0  0  0
M  END
> <minimizedAffinity>
-7.90283

$$$$
3OIM_VZ5_A_263


 29 32  0  0  0  0  0  0  0  0999 V2000
   -4.3011    4.3887   11.9316 C   0  0  0  0  0  0  0  0  0  0  0  0
   -4.6710    3.4345   12.9262 C   0  0  0  0  0  0  0  0  0  0  0  0
   -4.0363    3.7436   14.0931 C   0  0  0  0  0  0  0  0  0  0  0  0
   -3.4942    5.0114   14.3704 C   0  0  0  0  0  0  0  0  0  0  0  0
   -3.2111    5.9696   13.3881 C   0  0  0  0  0  0  0  0  0  0  0  0
   -3.6868    5.6527   12.1316 C   0  0  0  0  0  0  0  0  0  0  0  0
   -3.4640    6.6273   10.9755 C   0  0  0  0  0  0  0  0  0  0  0  0
   -3.4386    8.0792   11.4505 C   0  0  0  0  0  0  0  0  0  0  0  0
   -2.3114    8.2060   12.4619 C   0  0  0  0  0  0  0  0  0  0  0  0
   -2.5900    7.2383   13.6735 C   0  0  0  0  0  0  0  0  0  0  0  0
   -1.4358    7.3250   14.6842 C   0  0  0  0  0  0  0  0  0  0  0  0
   -1.1566    8.7738   15.2096 C   0  0  0  0  0  0  0  0  0  0  0  0
   -0.8198    9.6100   13.9676 C   0  0  0  0  0  0  0  0  0  0  0  0
   -1.9617    9.6362   12.9593 C   0  0  0  0  0  0  0  0  0  0  0  0
   -1.3671   10.5803   11.9009 C   0  0  0  0  0  0  0  0  0  0  0  0
   -0.3860   11.4854   12.7372 C   0  0  0  0  0  0  0  0  0  0  0  0
   -0.6743   11.1087   14.1768 C   0  0  0  0  0  0  0  0  0  0  0  0
    0.5378   11.4481   14.8973 O   0  0  0  0  0  0  0  0  0  0  0  0
    0.4821    9.0450   13.3797 C   0  0  0  0  0  0  0  0  0  0  0  0
    1.3024   11.0573   14.4461 H   0  0  0  0  0  0  0  0  0  0  0  0
   -4.2773    2.8056   15.2293 C   0  0  0  0  0  0  0  0  0  0  0  0
   -3.0450    1.9504   15.4135 C   0  0  0  0  0  0  0  0  0  0  0  0
   -5.0953    2.3269   12.2366 O   0  0  0  0  0  0  0  0  0  0  0  0
   -5.0138    0.7882   10.4099 N   0  0  0  0  0  0  0  0  0  0  0  0
   -2.9886    1.6411   11.4842 O   0  0  0  0  0  0  0  0  0  0  0  0
   -4.2964    1.1135   11.7294 S   0  0  0  0  0  0  0  0  0  0  0  0
   -4.3902    0.0129   12.6974 O   0  0  0  0  0  0  0  0  0  0  0  0
   -4.9231    1.5774    9.7701 H   0  0  0  0  0  0  0  0  0  0  0  0
   -6.0013    0.6118   10.5943 H   0  0  0  0  0  0  0  0  0  0  0  0
  6  1  2  0  0  0
  1  2  1  0  0  0
 24 26  1  0  0  0
 26 25  2  0  0  0
 23 26  1  0  0  0
 27 26  2  0  0  0
  3  2  2  0  0  0
  2 23  1  0  0  0
  4  3  1  0  0  0
  3 21  1  0  0  0
  5  4  2  0  0  0
 10  5  1  0  0  0
  5  6  1  0  0  0
  7  6  1  0  0  0
  8  7  1  0  0  0
  9  8  1  0  0  0
 14  9  1  0  0  0
  9 10  1  0  0  0
 11 10  1  0  0  0
 12 11  1  0  0  0
 13 12  1  0  0  0
 17 13  1  0  0  0
 13 14  1  0  0  0
 13 19  1  0  0  0
 15 14  1  0  0  0
 16 15  1  0  0  0
 16 17  1  0  0  0
 18 17  1  0  0  0
 21 22  1  0  0  0
 24 28  1  0  0  0
 24 29  1  0  0  0
 18 20  1  0  0  0
M  END
> <minimizedAffinity>
-7.77517

$$$$
3OIM_VZ5_A_263


 29 32  0  0  0  0  0  0  0  0999 V2000
   -4.4316    3.3681   14.8950 C   0  0  0  0  0  0  0  0  0  0  0  0
   -4.6954    1.9656   14.9045 C   0  0  0  0  0  0  0  0  0  0  0  0
   -4.0359    1.3847   13.8617 C   0  0  0  0  0  0  0  0  0  0  0  0
   -2.9516    1.9852   13.1968 C   0  0  0  0  0  0  0  0  0  0  0  0
   -2.6584    3.3536   13.2627 C   0  0  0  0  0  0  0  0  0  0  0  0
   -3.4035    4.0501   14.1929 C   0  0  0  0  0  0  0  0  0  0  0  0
   -3.1633    5.5480   14.3795 C   0  0  0  0  0  0  0  0  0  0  0  0
   -1.7091    5.9303   14.1089 C   0  0  0  0  0  0  0  0  0  0  0  0
   -1.3926    5.5274   12.6781 C   0  0  0  0  0  0  0  0  0  0  0  0
   -1.5881    3.9720   12.5218 C   0  0  0  0  0  0  0  0  0  0  0  0
   -1.3125    3.5568   11.0682 C   0  0  0  0  0  0  0  0  0  0  0  0
    0.1033    3.9738   10.5441 C   0  0  0  0  0  0  0  0  0  0  0  0
    0.1588    5.5027   10.6643 C   0  0  0  0  0  0  0  0  0  0  0  0
   -0.0223    5.9783   12.1004 C   0  0  0  0  0  0  0  0  0  0  0  0
    0.1506    7.4942   11.9078 C   0  0  0  0  0  0  0  0  0  0  0  0
    1.0835    7.5917   10.6423 C   0  0  0  0  0  0  0  0  0  0  0  0
    1.5009    6.1581   10.3812 C   0  0  0  0  0  0  0  0  0  0  0  0
    1.8432    6.1238    8.9722 O   0  0  0  0  0  0  0  0  0  0  0  0
   -0.9018    6.0716    9.7095 C   0  0  0  0  0  0  0  0  0  0  0  0
    1.1206    6.5119    8.4544 H   0  0  0  0  0  0  0  0  0  0  0  0
   -4.2499   -0.0838   13.6977 C   0  0  0  0  0  0  0  0  0  0  0  0
   -4.0219   -0.4416   12.2473 C   0  0  0  0  0  0  0  0  0  0  0  0
   -5.8628    1.8135   15.6090 O   0  0  0  0  0  0  0  0  0  0  0  0
   -5.7764    1.8792   17.9963 N   0  0  0  0  0  0  0  0  0  0  0  0
   -7.5844    0.7572   16.7900 O   0  0  0  0  0  0  0  0  0  0  0  0
   -6.1661    0.9434   16.8414 S   0  0  0  0  0  0  0  0  0  0  0  0
   -5.3421   -0.2720   16.8104 O   0  0  0  0  0  0  0  0  0  0  0  0
   -6.3723    2.7069   17.9791 H   0  0  0  0  0  0  0  0  0  0  0  0
   -4.8014    2.1600   17.8922 H   0  0  0  0  0  0  0  0  0  0  0  0
  6  1  2  0  0  0
  1  2  1  0  0  0
 24 26  1  0  0  0
 26 25  2  0  0  0
 23 26  1  0  0  0
 27 26  2  0  0  0
  3  2  2  0  0  0
  2 23  1  0  0  0
  4  3  1  0  0  0
  3 21  1  0  0  0
  5  4  2  0  0  0
 10  5  1  0  0  0
  5  6  1  0  0  0
  7  6  1  0  0  0
  8  7  1  0  0  0
  9  8  1  0  0  0
 14  9  1  0  0  0
  9 10  1  0  0  0
 11 10  1  0  0  0
 12 11  1  0  0  0
 13 12  1  0  0  0
 17 13  1  0  0  0
 13 14  1  0  0  0
 13 19  1  0  0  0
 15 14  1  0  0  0
 16 15  1  0  0  0
 16 17  1  0  0  0
 18 17  1  0  0  0
 21 22  1  0  0  0
 24 28  1  0  0  0
 24 29  1  0  0  0
 18 20  1  0  0  0
M  END
> <minimizedAffinity>
-7.73348

$$$$
3OIM_VZ5_A_263


 29 32  0  0  0  0  0  0  0  0999 V2000
   -1.0992    6.0490   12.9151 C   0  0  0  0  0  0  0  0  0  0  0  0
   -0.2285    5.4826   11.9365 C   0  0  0  0  0  0  0  0  0  0  0  0
   -0.3856    4.1279   11.9361 C   0  0  0  0  0  0  0  0  0  0  0  0
   -1.5114    3.4762   12.4709 C   0  0  0  0  0  0  0  0  0  0  0  0
   -2.4036    4.0742   13.3706 C   0  0  0  0  0  0  0  0  0  0  0  0
   -2.2074    5.4289   13.5494 C   0  0  0  0  0  0  0  0  0  0  0  0
   -3.1302    6.2047   14.4888 C   0  0  0  0  0  0  0  0  0  0  0  0
   -4.5397    5.6158   14.5182 C   0  0  0  0  0  0  0  0  0  0  0  0
   -4.4194    4.1735   14.9818 C   0  0  0  0  0  0  0  0  0  0  0  0
   -3.5139    3.3766   13.9683 C   0  0  0  0  0  0  0  0  0  0  0  0
   -3.3487    1.9262   14.4482 C   0  0  0  0  0  0  0  0  0  0  0  0
   -4.7024    1.1692   14.6662 C   0  0  0  0  0  0  0  0  0  0  0  0
   -5.4676    1.9788   15.7217 C   0  0  0  0  0  0  0  0  0  0  0  0
   -5.7407    3.4081   15.2703 C   0  0  0  0  0  0  0  0  0  0  0  0
   -6.5561    3.9200   16.4695 C   0  0  0  0  0  0  0  0  0  0  0  0
   -7.2296    2.6115   17.0310 C   0  0  0  0  0  0  0  0  0  0  0  0
   -6.9017    1.5548   15.9950 C   0  0  0  0  0  0  0  0  0  0  0  0
   -6.9756    0.2972   16.7138 O   0  0  0  0  0  0  0  0  0  0  0  0
   -4.6549    1.9095   17.0235 C   0  0  0  0  0  0  0  0  0  0  0  0
   -6.4419    0.3547   17.5217 H   0  0  0  0  0  0  0  0  0  0  0  0
    0.4975    3.3740   10.9976 C   0  0  0  0  0  0  0  0  0  0  0  0
   -0.2885    2.2164   10.4266 C   0  0  0  0  0  0  0  0  0  0  0  0
    0.7594    6.4135   11.7371 O   0  0  0  0  0  0  0  0  0  0  0  0
    2.4218    6.5039   10.0226 N   0  0  0  0  0  0  0  0  0  0  0  0
    0.0563    6.9262    9.5652 O   0  0  0  0  0  0  0  0  0  0  0  0
    1.1295    7.2048   10.4704 S   0  0  0  0  0  0  0  0  0  0  0  0
    1.3533    8.6161   10.8100 O   0  0  0  0  0  0  0  0  0  0  0  0
    2.2198    5.5297    9.7977 H   0  0  0  0  0  0  0  0  0  0  0  0
    3.1086    6.5436   10.7757 H   0  0  0  0  0  0  0  0  0  0  0  0
  6  1  2  0  0  0
  1  2  1  0  0  0
 24 26  1  0  0  0
 26 25  2  0  0  0
 23 26  1  0  0  0
 27 26  2  0  0  0
  3  2  2  0  0  0
  2 23  1  0  0  0
  4  3  1  0  0  0
  3 21  1  0  0  0
  5  4  2  0  0  0
 10  5  1  0  0  0
  5  6  1  0  0  0
  7  6  1  0  0  0
  8  7  1  0  0  0
  9  8  1  0  0  0
 14  9  1  0  0  0
  9 10  1  0  0  0
 11 10  1  0  0  0
 12 11  1  0  0  0
 13 12  1  0  0  0
 17 13  1  0  0  0
 13 14  1  0  0  0
 13 19  1  0  0  0
 15 14  1  0  0  0
 16 15  1  0  0  0
 16 17  1  0  0  0
 18 17  1  0  0  0
 21 22  1  0  0  0
 24 28  1  0  0  0
 24 29  1  0  0  0
 18 20  1  0  0  0
M  END
> <minimizedAffinity>
-7.26889

$$$$
3OIM_VZ5_A_263


 29 32  0  0  0  0  0  0  0  0999 V2000
   -3.0977    4.5335   12.9530 C   0  0  0  0  0  0  0  0  0  0  0  0
   -2.6324    3.3123   12.3796 C   0  0  0  0  0  0  0  0  0  0  0  0
   -1.3765    3.5065   11.8848 C   0  0  0  0  0  0  0  0  0  0  0  0
   -0.5426    4.5691   12.2771 C   0  0  0  0  0  0  0  0  0  0  0  0
   -1.0052    5.7287   12.9130 C   0  0  0  0  0  0  0  0  0  0  0  0
   -2.3270    5.6718   13.3070 C   0  0  0  0  0  0  0  0  0  0  0  0
   -2.9470    6.8651   14.0333 C   0  0  0  0  0  0  0  0  0  0  0  0
   -1.9187    7.6156   14.8781 C   0  0  0  0  0  0  0  0  0  0  0  0
   -0.8210    8.0907   13.9406 C   0  0  0  0  0  0  0  0  0  0  0  0
   -0.1545    6.8429   13.2474 C   0  0  0  0  0  0  0  0  0  0  0  0
    0.9293    7.3115   12.2640 C   0  0  0  0  0  0  0  0  0  0  0  0
    2.0313    8.2151   12.9137 C   0  0  0  0  0  0  0  0  0  0  0  0
    1.2900    9.4317   13.4843 C   0  0  0  0  0  0  0  0  0  0  0  0
    0.2562    9.0413   14.5331 C   0  0  0  0  0  0  0  0  0  0  0  0
   -0.2449   10.4337   14.9514 C   0  0  0  0  0  0  0  0  0  0  0  0
    0.9967   11.3617   14.6712 C   0  0  0  0  0  0  0  0  0  0  0  0
    2.1110   10.3926   14.3291 C   0  0  0  0  0  0  0  0  0  0  0  0
    3.0426   11.1674   13.5319 O   0  0  0  0  0  0  0  0  0  0  0  0
    0.6774   10.1881   12.2957 C   0  0  0  0  0  0  0  0  0  0  0  0
    2.5628   11.6139   12.8169 H   0  0  0  0  0  0  0  0  0  0  0  0
   -0.7615    2.3311   11.2000 C   0  0  0  0  0  0  0  0  0  0  0  0
    0.3312    2.8293   10.2827 C   0  0  0  0  0  0  0  0  0  0  0  0
   -3.7598    2.5843   12.0945 O   0  0  0  0  0  0  0  0  0  0  0  0
   -5.7835    1.8418   11.0629 N   0  0  0  0  0  0  0  0  0  0  0  0
   -4.1512    3.2261    9.8788 O   0  0  0  0  0  0  0  0  0  0  0  0
   -4.3021    2.0934   10.7408 S   0  0  0  0  0  0  0  0  0  0  0  0
   -3.6056    0.8643   10.3391 O   0  0  0  0  0  0  0  0  0  0  0  0
   -6.2259    2.7194   11.3360 H   0  0  0  0  0  0  0  0  0  0  0  0
   -5.8560    1.1718   11.8286 H   0  0  0  0  0  0  0  0  0  0  0  0
  6  1  2  0  0  0
  1  2  1  0  0  0
 24 26  1  0  0  0
 26 25  2  0  0  0
 23 26  1  0  0  0
 27 26  2  0  0  0
  3  2  2  0  0  0
  2 23  1  0  0  0
  4  3  1  0  0  0
  3 21  1  0  0  0
  5  4  2  0  0  0
 10  5  1  0  0  0
  5  6  1  0  0  0
  7  6  1  0  0  0
  8  7  1  0  0  0
  9  8  1  0  0  0
 14  9  1  0  0  0
  9 10  1  0  0  0
 11 10  1  0  0  0
 12 11  1  0  0  0
 13 12  1  0  0  0
 17 13  1  0  0  0
 13 14  1  0  0  0
 13 19  1  0  0  0
 15 14  1  0  0  0
 16 15  1  0  0  0
 16 17  1  0  0  0
 18 17  1  0  0  0
 21 22  1  0  0  0
 24 28  1  0  0  0
 24 29  1  0  0  0
 18 20  1  0  0  0
M  END
> <minimizedAffinity>
-7.16829

$$$$
3OIM_VZ5_A_263


 29 32  0  0  0  0  0  0  0  0999 V2000
   -0.9597    8.9179   14.8905 C   0  0  0  0  0  0  0  0  0  0  0  0
    0.1604    9.2860   14.0864 C   0  0  0  0  0  0  0  0  0  0  0  0
    0.5940    8.1882   13.4033 C   0  0  0  0  0  0  0  0  0  0  0  0
   -0.1953    7.0434   13.1910 C   0  0  0  0  0  0  0  0  0  0  0  0
   -1.3403    6.7370   13.9379 C   0  0  0  0  0  0  0  0  0  0  0  0
   -1.7562    7.7481   14.7808 C   0  0  0  0  0  0  0  0  0  0  0  0
   -3.0082    7.5481   15.6343 C   0  0  0  0  0  0  0  0  0  0  0  0
   -4.0299    6.6450   14.9450 C   0  0  0  0  0  0  0  0  0  0  0  0
   -3.3548    5.3074   14.6910 C   0  0  0  0  0  0  0  0  0  0  0  0
   -2.1022    5.5266   13.7609 C   0  0  0  0  0  0  0  0  0  0  0  0
   -1.3849    4.1874   13.5305 C   0  0  0  0  0  0  0  0  0  0  0  0
   -2.3035    3.0667   12.9360 C   0  0  0  0  0  0  0  0  0  0  0  0
   -3.4394    2.8769   13.9504 C   0  0  0  0  0  0  0  0  0  0  0  0
   -4.2476    4.1511   14.1610 C   0  0  0  0  0  0  0  0  0  0  0  0
   -5.3164    3.6356   15.1393 C   0  0  0  0  0  0  0  0  0  0  0  0
   -5.4223    2.1051   14.7822 C   0  0  0  0  0  0  0  0  0  0  0  0
   -4.5770    1.9592   13.5325 C   0  0  0  0  0  0  0  0  0  0  0  0
   -4.1802    0.5642   13.5156 O   0  0  0  0  0  0  0  0  0  0  0  0
   -2.8060    2.3512   15.2475 C   0  0  0  0  0  0  0  0  0  0  0  0
   -3.8034    0.3248   14.3768 H   0  0  0  0  0  0  0  0  0  0  0  0
    1.8008    8.3925   12.5484 C   0  0  0  0  0  0  0  0  0  0  0  0
    2.2780    7.0430   12.0637 C   0  0  0  0  0  0  0  0  0  0  0  0
    0.6740   10.4194   14.6641 O   0  0  0  0  0  0  0  0  0  0  0  0
    2.2960   12.0815   14.1003 N   0  0  0  0  0  0  0  0  0  0  0  0
    0.2681   11.7402   12.7758 O   0  0  0  0  0  0  0  0  0  0  0  0
    0.7766   11.8510   14.1092 S   0  0  0  0  0  0  0  0  0  0  0  0
    0.0794   12.7848   15.0030 O   0  0  0  0  0  0  0  0  0  0  0  0
    2.7375   11.4134   13.4686 H   0  0  0  0  0  0  0  0  0  0  0  0
    2.6648   11.9534   15.0426 H   0  0  0  0  0  0  0  0  0  0  0  0
  6  1  2  0  0  0
  1  2  1  0  0  0
 24 26  1  0  0  0
 26 25  2  0  0  0
 23 26  1  0  0  0
 27 26  2  0  0  0
  3  2  2  0  0  0
  2 23  1  0  0  0
  4  3  1  0  0  0
  3 21  1  0  0  0
  5  4  2  0  0  0
 10  5  1  0  0  0
  5  6  1  0  0  0
  7  6  1  0  0  0
  8  7  1  0  0  0
  9  8  1  0  0  0
 14  9  1  0  0  0
  9 10  1  0  0  0
 11 10  1  0  0  0
 12 11  1  0  0  0
 13 12  1  0  0  0
 17 13  1  0  0  0
 13 14  1  0  0  0
 13 19  1  0  0  0
 15 14  1  0  0  0
 16 15  1  0  0  0
 16 17  1  0  0  0
 18 17  1  0  0  0
 21 22  1  0  0  0
 24 28  1  0  0  0
 24 29  1  0  0  0
 18 20  1  0  0  0
M  END
> <minimizedAffinity>
-6.93589

$$$$
3OIM_VZ5_A_263


 29 32  0  0  0  0  0  0  0  0999 V2000
   -2.7901    6.4293   12.0058 C   0  0  0  0  0  0  0  0  0  0  0  0
   -2.2646    6.1282   10.7135 C   0  0  0  0  0  0  0  0  0  0  0  0
   -2.1520    4.7750   10.5864 C   0  0  0  0  0  0  0  0  0  0  0  0
   -2.8473    3.8582   11.3953 C   0  0  0  0  0  0  0  0  0  0  0  0
   -3.4280    4.1896   12.6265 C   0  0  0  0  0  0  0  0  0  0  0  0
   -3.4376    5.5417   12.9045 C   0  0  0  0  0  0  0  0  0  0  0  0
   -4.0647    6.0369   14.2075 C   0  0  0  0  0  0  0  0  0  0  0  0
   -5.2201    5.1452   14.6593 C   0  0  0  0  0  0  0  0  0  0  0  0
   -4.6640    3.7437   14.8498 C   0  0  0  0  0  0  0  0  0  0  0  0
   -4.0768    3.2280   13.4818 C   0  0  0  0  0  0  0  0  0  0  0  0
   -3.4723    1.8279   13.6702 C   0  0  0  0  0  0  0  0  0  0  0  0
   -4.4741    0.7748   14.2537 C   0  0  0  0  0  0  0  0  0  0  0  0
   -4.9207    1.3320   15.6121 C   0  0  0  0  0  0  0  0  0  0  0  0
   -5.6082    2.6858   15.4857 C   0  0  0  0  0  0  0  0  0  0  0  0
   -5.9898    2.9342   16.9546 C   0  0  0  0  0  0  0  0  0  0  0  0
   -6.1413    1.4788   17.5377 C   0  0  0  0  0  0  0  0  0  0  0  0
   -6.0371    0.5817   16.3203 C   0  0  0  0  0  0  0  0  0  0  0  0
   -5.5953   -0.6979   16.8411 O   0  0  0  0  0  0  0  0  0  0  0  0
   -3.6785    1.3760   16.5149 C   0  0  0  0  0  0  0  0  0  0  0  0
   -4.8167   -0.5663   17.4045 H   0  0  0  0  0  0  0  0  0  0  0  0
   -1.5649    4.2921    9.3015 C   0  0  0  0  0  0  0  0  0  0  0  0
   -0.7888    3.0248    9.5764 C   0  0  0  0  0  0  0  0  0  0  0  0
   -1.6201    7.2671   10.3017 O   0  0  0  0  0  0  0  0  0  0  0  0
   -0.9454    8.6607    8.4813 N   0  0  0  0  0  0  0  0  0  0  0  0
   -3.2478    7.8747    8.7345 O   0  0  0  0  0  0  0  0  0  0  0  0
   -2.1295    8.4310    9.4335 S   0  0  0  0  0  0  0  0  0  0  0  0
   -2.3984    9.6032   10.2767 O   0  0  0  0  0  0  0  0  0  0  0  0
   -0.7954    7.8241    7.9174 H   0  0  0  0  0  0  0  0  0  0  0  0
   -0.1055    8.8595    9.0248 H   0  0  0  0  0  0  0  0  0  0  0  0
  6  1  2  0  0  0
  1  2  1  0  0  0
 24 26  1  0  0  0
 26 25  2  0  0  0
 23 26  1  0  0  0
 27 26  2  0  0  0
  3  2  2  0  0  0
  2 23  1  0  0  0
  4  3  1  0  0  0
  3 21  1  0  0  0
  5  4  2  0  0  0
 10  5  1  0  0  0
  5  6  1  0  0  0
  7  6  1  0  0  0
  8  7  1  0  0  0
  9  8  1  0  0  0
 14  9  1  0  0  0
  9 10  1  0  0  0
 11 10  1  0  0  0
 12 11  1  0  0  0
 13 12  1  0  0  0
 17 13  1  0  0  0
 13 14  1  0  0  0
 13 19  1  0  0  0
 15 14  1  0  0  0
 16 15  1  0  0  0
 16 17  1  0  0  0
 18 17  1  0  0  0
 21 22  1  0  0  0
 24 28  1  0  0  0
 24 29  1  0  0  0
 18 20  1  0  0  0
M  END
> <minimizedAffinity>
-6.82495

$$$$
