3OIM_VZ5_A_263
  RCSB PDB12061710063D
Coordinates from PDB:3OIM:A:263 Model:1 without hydrogens
 26 29  0  0  0  0            999 V2000
   -3.0620    2.7340   14.1670   C 0  0  0  0  0  0  0  0  0  0  0  0
   -5.1170   -0.7390   15.9480   N 0  0  0  0  0  0  0  0  0  0  0  0
   -4.4020    1.2790   17.1310   O 0  0  0  0  0  0  0  0  0  0  0  0
   -5.2740    0.7810   16.1110   S 0  0  0  0  0  0  0  0  0  0  0  0
   -4.4670    2.5980   14.3770   C 0  0  0  0  0  0  0  0  0  0  0  0
   -6.6830    1.1870   16.1950   O 0  0  0  0  0  0  0  0  0  0  0  0
   -5.0080    3.8360   14.5630   C 0  0  0  0  0  0  0  0  0  0  0  0
   -4.6540    1.3080   14.8050   O 0  0  0  0  0  0  0  0  0  0  0  0
   -4.3750    5.0280   14.1670   C 0  0  0  0  0  0  0  0  0  0  0  0
   -3.0060    5.1270   13.8860   C 0  0  0  0  0  0  0  0  0  0  0  0
   -2.3470    3.9150   13.8370   C 0  0  0  0  0  0  0  0  0  0  0  0
   -0.8530    3.8840   13.5160   C 0  0  0  0  0  0  0  0  0  0  0  0
   -0.4460    5.0250   12.5850   C 0  0  0  0  0  0  0  0  0  0  0  0
   -0.8010    6.3280   13.2820   C 0  0  0  0  0  0  0  0  0  0  0  0
   -2.3530    6.3670   13.5500   C 0  0  0  0  0  0  0  0  0  0  0  0
   -2.7200    7.6610   14.2930   C 0  0  0  0  0  0  0  0  0  0  0  0
   -2.2710    8.9680   13.5560   C 0  0  0  0  0  0  0  0  0  0  0  0
   -0.7460    8.8660   13.4180   C 0  0  0  0  0  0  0  0  0  0  0  0
   -0.3170    7.6450   12.6140   C 0  0  0  0  0  0  0  0  0  0  0  0
    1.2060    7.8570   12.5910   C 0  0  0  0  0  0  0  0  0  0  0  0
    1.3530    9.4210   12.7070   C 0  0  0  0  0  0  0  0  0  0  0  0
   -0.0670    9.9350   12.5770   C 0  0  0  0  0  0  0  0  0  0  0  0
   -0.0540   11.2270   13.2360   O 0  0  0  0  0  0  0  0  0  0  0  0
   -0.1600    8.8810   14.8380   C 0  0  0  0  0  0  0  0  0  0  0  0
   -6.4730    3.8660   14.8490   C 0  0  0  0  0  0  0  0  0  0  0  0
   -6.6690    4.2120   16.3070   C 0  0  0  0  0  0  0  0  0  0  0  0
 11  1  2  0  0  0  0
  1  5  1  0  0  0  0
  2  4  1  0  0  0  0
  4  3  2  0  0  0  0
  8  4  1  0  0  0  0
  6  4  2  0  0  0  0
  7  5  2  0  0  0  0
  5  8  1  0  0  0  0
  9  7  1  0  0  0  0
  7 25  1  0  0  0  0
 10  9  2  0  0  0  0
 15 10  1  0  0  0  0
 10 11  1  0  0  0  0
 12 11  1  0  0  0  0
 13 12  1  0  0  0  0
 14 13  1  0  0  0  0
 19 14  1  0  0  0  0
 14 15  1  0  0  0  0
 16 15  1  0  0  0  0
 17 16  1  0  0  0  0
 18 17  1  0  0  0  0
 22 18  1  0  0  0  0
 18 19  1  0  0  0  0
 18 24  1  0  0  0  0
 20 19  1  0  0  0  0
 21 20  1  0  0  0  0
 21 22  1  0  0  0  0
 23 22  1  0  0  0  0
 25 26  1  0  0  0  0
A    1
C1
A    2
N1
A    3
O1
A    4
S1
A    5
C2
A    6
O2
A    7
C3
A    8
O3
A    9
C4
A   10
C5
A   11
C6
A   12
C7
A   13
C8
A   14
C9
A   15
C10
A   16
C11
A   17
C12
A   18
C13
A   19
C14
A   20
C15
A   21
C16
A   22
C17
A   23
O17
A   24
C18
A   25
C19
A   26
C20
M  END
>  <InstanceId>
3OIM_VZ5_A_263

>  <ChemCompId>
VZ5

>  <PdbId>
3OIM

>  <ChainId>
A

>  <ResidueNumber>
263

>  <InsertionCode>


>  <Model>
1

>  <AltIds>


>  <MissingHeavyAtoms>
0

>  <ObservedFormula>
C20 N O4 S

>  <Name>
(14beta,17alpha)-2-ethyl-17-hydroxyestra-1(10),2,4-trien-3-yl sulfamate

>  <SystematicName>
[(8R,9S,13S,14S,17S)-2-ethyl-17-hydroxy-13-methyl-6,7,8,9,11,12,14,15,16,17-decahydrocyclopenta[a]phenanthren-3-yl] sulfamate

>  <Synonyms>


>  <Type>
NON-POLYMER

>  <Formula>
C20 H29 N O4 S

>  <MolecularWeight>
379.514

>  <ModifiedDate>
2011-07-01

>  <Parent>


>  <OneLetterCode>


>  <SubcomponentList>


>  <AmbiguousFlag>
N

>  <InChI>
InChI=1S/C20H29NO4S/c1-3-12-10-16-13(11-18(12)25-26(21,23)24)4-5-15-14(16)8-9-20(2)17(15)6-7-19(20)22/h10-11,14-15,17,19,22H,3-9H2,1-2H3,(H2,21,23,24)/t14-,15+,17-,19-,20-/m0/s1

>  <InChIKey>
POSDSPVRJAJSEI-SSGANFLRSA-N

>  <SMILES>
CCc1cc2c(cc1OS(=O)(=O)N)CC[C@@H]3[C@@H]2CC[C@]4([C@H]3CC[C@@H]4O)C

$$$$
