3KDB_006_B_100
  RCSB PDB12061709253D
Coordinates from PDB:3KDB:B:100 Model:1 without hydrogens
 45 49  0  0  0  0            999 V2000
   14.3550   21.0610   18.0380   N 0  0  0  0  0  0  0  0  0  0  0  0
   15.1500   22.1960   17.5930   C 0  0  0  0  0  0  0  0  0  0  0  0
   14.1300   23.9720   18.8530   O 0  0  0  0  0  0  0  0  0  0  0  0
   14.5770   22.8430   16.3280   C 0  0  0  0  0  0  0  0  0  0  0  0
   16.6550   24.9000   17.9030   O 0  0  0  0  0  0  0  0  0  0  0  0
   14.3260   21.7680   15.2890   C 0  0  0  0  0  0  0  0  0  0  0  0
   15.3940   21.2690   14.5290   C 0  0  0  0  0  0  0  0  0  0  0  0
   15.1610   20.2750   13.5830   C 0  0  0  0  0  0  0  0  0  0  0  0
   13.8700   19.7640   13.3920   C 0  0  0  0  0  0  0  0  0  0  0  0
   12.8060   20.2570   14.1440   C 0  0  0  0  0  0  0  0  0  0  0  0
   13.0280   21.2600   15.0940   C 0  0  0  0  0  0  0  0  0  0  0  0
   15.2960   23.1430   18.7730   C 0  0  0  0  0  0  0  0  0  0  0  0
   16.5830   23.9190   18.6370   C 0  0  0  0  0  0  0  0  0  0  0  0
   20.1530   25.4420   17.7460   N 0  0  0  0  0  0  0  0  0  0  0  0
   21.6980   27.6060   17.8290   O 0  0  0  0  0  0  0  0  0  0  0  0
   21.0700   25.5670   16.6340   C 0  0  0  0  0  0  0  0  0  0  0  0
   20.4350   26.1520   15.4360   C 0  0  0  0  0  0  0  0  0  0  0  0
   19.1930   25.8790   14.8800   C 0  0  0  0  0  0  0  0  0  0  0  0
   18.8180   26.5860   13.7300   C 0  0  0  0  0  0  0  0  0  0  0  0
   22.1730   26.6000   16.9330   C 0  0  0  0  0  0  0  0  0  0  0  0
   21.3060   27.1690   14.8340   C 0  0  0  0  0  0  0  0  0  0  0  0
   20.9130   27.8650   13.6900   C 0  0  0  0  0  0  0  0  0  0  0  0
   19.6550   27.5570   13.1540   C 0  0  0  0  0  0  0  0  0  0  0  0
   22.5760   27.2890   15.6250   C 0  0  0  0  0  0  0  0  0  0  0  0
   10.1730   15.8850   19.6630   C 0  0  0  0  0  0  0  0  0  0  0  0
   16.1720   19.7610   18.2460   O 0  0  0  0  0  0  0  0  0  0  0  0
   10.1750   16.5910   18.4640   C 0  0  0  0  0  0  0  0  0  0  0  0
   12.8480   19.0910   19.2010   O 0  0  0  0  0  0  0  0  0  0  0  0
   11.0410   17.6600   18.2630   C 0  0  0  0  0  0  0  0  0  0  0  0
   11.0320   18.4150   16.9610   C 0  0  0  0  0  0  0  0  0  0  0  0
   12.8260   17.5730   21.7930   C 0  0  0  0  0  0  0  0  0  0  0  0
   11.9660   18.0460   19.3610   C 0  0  0  0  0  0  0  0  0  0  0  0
   11.9330   17.2500   20.6250   C 0  0  0  0  0  0  0  0  0  0  0  0
   11.0230   16.2040   20.7220   C 0  0  0  0  0  0  0  0  0  0  0  0
   14.9720   19.9080   18.3080   C 0  0  0  0  0  0  0  0  0  0  0  0
   14.1210   18.7160   18.6630   C 0  0  0  0  0  0  0  0  0  0  0  0
   17.7160   22.1440   20.0110   C 0  0  0  0  0  0  0  0  0  0  0  0
   17.6330   23.4390   19.3100   N 0  0  0  0  0  0  0  0  0  0  0  0
   19.5990   23.3000   17.3280   O 0  0  0  0  0  0  0  0  0  0  0  0
   19.3760   21.9540   20.5290   S 0  0  0  0  0  0  0  0  0  0  0  0
   19.7650   23.6750   20.5160   C 0  0  0  0  0  0  0  0  0  0  0  0
   19.2720   24.3150   21.8220   C 0  0  0  0  0  0  0  0  0  0  0  0
   21.2650   23.8740   20.3390   C 0  0  0  0  0  0  0  0  0  0  0  0
   18.8770   24.2240   19.3950   C 0  0  0  0  0  0  0  0  0  0  0  0
   19.5800   24.2790   18.0540   C 0  0  0  0  0  0  0  0  0  0  0  0
  1 35  1  0  0  0  0
  1  2  1  0  0  0  0
  4  2  1  0  0  0  0
  2 12  1  0  0  0  0
 12  3  1  0  0  0  0
  6  4  1  0  0  0  0
 13  5  2  0  0  0  0
 11  6  2  0  0  0  0
  6  7  1  0  0  0  0
  8  7  2  0  0  0  0
  9  8  1  0  0  0  0
 10  9  2  0  0  0  0
 10 11  1  0  0  0  0
 13 12  1  0  0  0  0
 38 13  1  0  0  0  0
 14 16  1  0  0  0  0
 14 45  1  0  0  0  0
 20 15  1  0  0  0  0
 17 16  1  0  0  0  0
 16 20  1  0  0  0  0
 18 17  2  0  0  0  0
 17 21  1  0  0  0  0
 19 18  1  0  0  0  0
 19 23  2  0  0  0  0
 24 20  1  0  0  0  0
 22 21  2  0  0  0  0
 21 24  1  0  0  0  0
 23 22  1  0  0  0  0
 25 34  2  0  0  0  0
 25 27  1  0  0  0  0
 35 26  2  0  0  0  0
 27 29  2  0  0  0  0
 32 28  1  0  0  0  0
 28 36  1  0  0  0  0
 29 32  1  0  0  0  0
 29 30  1  0  0  0  0
 33 31  1  0  0  0  0
 33 32  2  0  0  0  0
 34 33  1  0  0  0  0
 36 35  1  0  0  0  0
 40 37  1  0  0  0  0
 37 38  1  0  0  0  0
 44 38  1  0  0  0  0
 39 45  2  0  0  0  0
 41 40  1  0  0  0  0
 43 41  1  0  0  0  0
 41 44  1  0  0  0  0
 41 42  1  0  0  0  0
 45 44  1  0  0  0  0
A    1
N2
A    2
C20
A    3
O20
A    4
C21
A    5
O21
A    6
C22
A    7
C23
A    8
C24
A    9
C25
A   10
C26
A   11
C27
A   12
C28
A   13
C29
A   14
N30
A   15
O30
A   16
C31
A   17
C32
A   18
C33
A   19
C34
A   20
C35
A   21
C36
A   22
C37
A   23
C38
A   24
C39
A   25
C40
A   26
O40
A   27
C41
A   28
O41
A   29
C42
A   30
C43
A   31
C44
A   32
C45
A   33
C46
A   34
C47
A   35
C48
A   36
C49
A   37
C50
A   38
N50
A   39
O50
A   40
S50
A   41
C51
A   42
C52
A   43
C53
A   44
C54
A   45
C55
M  END
>  <InstanceId>
3KDB_006_B_100

>  <ChemCompId>
006

>  <PdbId>
3KDB

>  <ChainId>
B

>  <ResidueNumber>
100

>  <InsertionCode>


>  <Model>
1

>  <AltIds>


>  <MissingHeavyAtoms>
0

>  <ObservedFormula>
C35 N3 O6 S

>  <Name>
(4R)-3-[(2S,3S)-3-{[(2,6-dimethylphenoxy)acetyl]amino}-2-hydroxy-4-phenylbutanoyl]-N-[(1S,2R)-2-hydroxy-2,3-dihydro-1H-inden-1-yl]-5,5-dimethyl-1,3-thiazolidine-4-carboxamide

>  <SystematicName>
(4R)-3-[(2S,3S)-3-[2-(2,6-dimethylphenoxy)ethanoylamino]-2-hydroxy-4-phenyl-butanoyl]-N-[(1S,2R)-2-hydroxy-2,3-dihydro-1H-inden-1-yl]-5,5-dimethyl-1,3-thiazolidine-4-carboxamide

>  <Synonyms>
KNI-10006

>  <Type>
peptide-like

>  <Formula>
C35 H41 N3 O6 S

>  <MolecularWeight>
631.782

>  <ModifiedDate>
2011-06-04

>  <Parent>


>  <OneLetterCode>


>  <SubcomponentList>
DBA 005 00B 00X

>  <AmbiguousFlag>
N

>  <InChI>
InChI=1S/C35H41N3O6S/c1-21-11-10-12-22(2)31(21)44-19-28(40)36-26(17-23-13-6-5-7-14-23)30(41)34(43)38-20-45-35(3,4)32(38)33(42)37-29-25-16-9-8-15-24(25)18-27(29)39/h5-16,26-27,29-30,32,39,41H,17-20H2,1-4H3,(H,36,40)(H,37,42)/t26-,27+,29-,30-,32+/m0/s1

>  <InChIKey>
KKTYZYHUPKXLPL-RIQJEONASA-N

>  <SMILES>
Cc1cccc(c1OCC(=O)N[C@@H](Cc2ccccc2)[C@@H](C(=O)N3CSC([C@H]3C(=O)N[C@H]4c5ccccc5C[C@H]4O)(C)C)O)C

$$$$
