1GNO_U0E_B_100
  RCSB PDB12061702373D
Coordinates from PDB:1GNO:B:100 Model:1 without hydrogens
 42 42  0  0  0  0            999 V2000
  -10.6580   15.8380   32.1840   C 0  0  0  0  0  0  0  0  0  0  0  0
  -10.2920   15.5260   30.7320   C 0  0  0  0  0  0  0  0  0  0  0  0
  -10.8580   15.9720   28.3960   C 0  0  0  0  0  0  0  0  0  0  0  0
  -12.1480   15.7030   27.6380   C 0  0  0  0  0  0  0  0  0  0  0  0
  -13.0410   14.5040   28.0270   C 0  0  0  0  0  0  0  0  0  0  0  0
  -12.1770   13.2660   28.2840   C 0  0  0  0  0  0  0  0  0  0  0  0
  -13.0650   12.0760   28.6400   C 0  0  0  0  0  0  0  0  0  0  0  0
  -13.9120   12.3800   29.8790   C 0  0  0  0  0  0  0  0  0  0  0  0
  -14.7710   13.6310   29.6580   C 0  0  0  0  0  0  0  0  0  0  0  0
  -13.8950   14.8270   29.2670   C 0  0  0  0  0  0  0  0  0  0  0  0
  -10.4060   17.2960   27.7610   C 0  0  0  0  0  0  0  0  0  0  0  0
   -8.9050   17.5510   27.8090   C 0  0  0  0  0  0  0  0  0  0  0  0
   -8.1610   18.2170   26.6510   C 0  0  0  0  0  0  0  0  0  0  0  0
   -6.8790   18.8810   27.1530   C 0  0  0  0  0  0  0  0  0  0  0  0
   -5.6790   17.9340   27.1520   C 0  0  0  0  0  0  0  0  0  0  0  0
   -6.4590   20.0850   26.3060   C 0  0  0  0  0  0  0  0  0  0  0  0
   -7.7980   17.1670   25.6040   C 0  0  0  0  0  0  0  0  0  0  0  0
   -7.5590   16.7590   23.1990   C 0  0  0  0  0  0  0  0  0  0  0  0
   -8.8370   16.3650   22.4540   C 0  0  0  0  0  0  0  0  0  0  0  0
   -9.2150   17.3510   21.3470   C 0  0  0  0  0  0  0  0  0  0  0  0
   -8.7320   16.9150   19.9610   C 0  0  0  0  0  0  0  0  0  0  0  0
   -6.6430   17.5360   22.2540   C 0  0  0  0  0  0  0  0  0  0  0  0
   -4.6500   17.3860   20.8390   C 0  0  0  0  0  0  0  0  0  0  0  0
   -4.5800   16.5400   19.5670   C 0  0  0  0  0  0  0  0  0  0  0  0
   -3.2730   17.4010   21.5050   C 0  0  0  0  0  0  0  0  0  0  0  0
   -3.0540   18.6220   22.4000   C 0  0  0  0  0  0  0  0  0  0  0  0
   -1.5900   18.8180   22.7970   C 0  0  0  0  0  0  0  0  0  0  0  0
    0.3210   20.2910   22.2100   C 0  0  0  0  0  0  0  0  0  0  0  0
  -11.0620   16.1200   29.8420   N 0  0  0  0  0  0  0  0  0  0  0  0
   -7.8840   17.5980   24.3610   N 0  0  0  0  0  0  0  0  0  0  0  0
   -8.2410   15.7020   19.7840   N 0  0  0  0  0  0  0  0  0  0  0  0
   -5.6480   16.8260   21.7620   N 0  0  0  0  0  0  0  0  0  0  0  0
   -3.9870   17.0080   18.4600   N 0  0  0  0  0  0  0  0  0  0  0  0
   -0.9940   20.0310   22.2160   N 0  0  0  0  0  0  0  0  0  0  0  0
    1.1270   19.7980   23.1610   N 0  0  0  0  0  0  0  0  0  0  0  0
    0.9310   21.0430   21.2850   N 0  0  0  0  0  0  0  0  0  0  0  0
   -9.3530   14.7650   30.4570   O 0  0  0  0  0  0  0  0  0  0  0  0
  -11.0340   18.3910   28.4100   O 0  0  0  0  0  0  0  0  0  0  0  0
   -7.4630   16.0230   25.9400   O 0  0  0  0  0  0  0  0  0  0  0  0
   -8.8020   17.6930   19.0110   O 0  0  0  0  0  0  0  0  0  0  0  0
   -6.8540   18.7320   22.0030   O 0  0  0  0  0  0  0  0  0  0  0  0
   -5.0700   15.4020   19.5300   O 0  0  0  0  0  0  0  0  0  0  0  0
  1  2  1  0  0  0  0
  2 29  1  0  0  0  0
  2 37  2  0  0  0  0
  3  4  1  0  0  0  0
  3 11  1  0  0  0  0
  3 29  1  0  0  0  0
  4  5  1  0  0  0  0
  5  6  1  0  0  0  0
  5 10  1  0  0  0  0
  6  7  1  0  0  0  0
  7  8  1  0  0  0  0
  8  9  1  0  0  0  0
  9 10  1  0  0  0  0
 11 12  1  0  0  0  0
 11 38  1  0  0  0  0
 12 13  1  0  0  0  0
 13 14  1  0  0  0  0
 13 17  1  0  0  0  0
 14 15  1  0  0  0  0
 14 16  1  0  0  0  0
 17 30  1  0  0  0  0
 17 39  2  0  0  0  0
 18 19  1  0  0  0  0
 18 22  1  0  0  0  0
 18 30  1  0  0  0  0
 19 20  1  0  0  0  0
 20 21  1  0  0  0  0
 21 31  1  0  0  0  0
 21 40  2  0  0  0  0
 22 32  1  0  0  0  0
 22 41  2  0  0  0  0
 23 24  1  0  0  0  0
 23 25  1  0  0  0  0
 23 32  1  0  0  0  0
 24 33  1  0  0  0  0
 24 42  2  0  0  0  0
 25 26  1  0  0  0  0
 26 27  1  0  0  0  0
 27 34  1  0  0  0  0
 28 34  1  0  0  0  0
 28 35  2  0  0  0  0
 28 36  1  0  0  0  0
A    1
C1
A    2
C2
A    3
C3
A    4
C4
A    5
C5
A    6
C6
A    7
C7
A    8
C8
A    9
C9
A   10
C10
A   11
C11
A   12
C12
A   13
C13
A   14
C14
A   15
C15
A   16
C16
A   17
C17
A   18
C18
A   19
C19
A   20
C20
A   21
C21
A   22
C22
A   23
C23
A   24
C24
A   25
C25
A   26
C26
A   27
C27
A   28
C28
A   29
N1
A   30
N2
A   31
N3
A   32
N4
A   33
N5
A   34
N6
A   35
N7
A   36
N8
A   37
O1
A   38
O2
A   39
O3
A   40
O4
A   41
O5
A   42
O6
M  END
>  <InstanceId>
1GNO_U0E_B_100

>  <ChemCompId>
U0E

>  <PdbId>
1GNO

>  <ChainId>
B

>  <ResidueNumber>
100

>  <InsertionCode>


>  <Model>
1

>  <AltIds>


>  <MissingHeavyAtoms>
0

>  <ObservedFormula>
C28 N8 O6

>  <Name>
N-[[1-[N-ACETAMIDYL]-[1-CYCLOHEXYLMETHYL-2-HYDROXY-4-ISOPROPYL]-BUT-4-YL]-CARBONYL]-GLUTAMINYL-ARGINYL-AMIDE

>  <SystematicName>
(2S)-2-[[(2S,4S,5S)-5-acetamido-6-cyclohexyl-4-hydroxy-2-propan-2-yl-hexanoyl]amino]-N-[(2S)-1-amino-5-carbamimidamido-1-oxo-pentan-2-yl]pentanediamide

>  <Synonyms>


>  <Type>
NON-POLYMER

>  <Formula>
C28 H52 N8 O6

>  <MolecularWeight>
596.762

>  <ModifiedDate>
2011-06-04

>  <Parent>


>  <OneLetterCode>


>  <SubcomponentList>


>  <AmbiguousFlag>
N

>  <InChI>
InChI=1S/C28H52N8O6/c1-16(2)19(15-23(38)22(34-17(3)37)14-18-8-5-4-6-9-18)26(41)36-21(11-12-24(29)39)27(42)35-20(25(30)40)10-7-13-33-28(31)32/h16,18-23,38H,4-15H2,1-3H3,(H2,29,39)(H2,30,40)(H,34,37)(H,35,42)(H,36,41)(H4,31,32,33)/t19-,20-,21-,22-,23-/m0/s1

>  <InChIKey>
XTOQWMLQBSGKOK-VUBDRERZSA-N

>  <SMILES>
CC(C)[C@H](C[C@@H]([C@H](CC1CCCCC1)NC(=O)C)O)C(=O)N[C@@H](CCC(=O)N)C(=O)N[C@@H](CCCNC(=N)N)C(=O)N

$$$$
