1GNO_U0E_B_100


 54 54  0  0  0  0  0  0  0  0999 V2000
  -10.8180   15.0727   31.6717 C   0  0  0  0  0  0  0  0  0  0  0  0
  -10.5133   15.3745   29.2585 C   0  0  0  0  0  0  0  0  0  0  0  0
  -11.2134   15.5908   30.3545 N   0  0  0  0  0  0  0  0  0  0  0  0
   -9.4493   14.7430   29.2056 O   0  0  0  0  0  0  0  0  0  0  0  0
  -12.0386   16.1235   30.2876 H   0  0  0  0  0  0  0  0  0  0  0  0
  -11.1249   15.9870   28.0010 C   0  0  0  0  0  0  0  0  0  0  0  0
  -12.1693   15.0236   27.4374 C   0  0  0  0  0  0  0  0  0  0  0  0
  -11.9447   13.5777   27.8798 C   0  0  0  0  0  0  0  0  0  0  0  0
  -13.5967   15.3725   27.8665 C   0  0  0  0  0  0  0  0  0  0  0  0
  -10.0261   16.2450   26.9694 C   0  0  0  0  0  0  0  0  0  0  0  0
   -9.1396   17.4822   27.0299 C   0  0  0  0  0  0  0  0  0  0  0  0
   -9.9817   18.6066   26.8267 O   0  0  0  0  0  0  0  0  0  0  0  0
  -10.3912   18.5494   25.9492 H   0  0  0  0  0  0  0  0  0  0  0  0
   -7.9806   17.4976   26.0214 C   0  0  0  0  0  0  0  0  0  0  0  0
   -4.7187   17.3150   27.9536 C   0  0  0  0  0  0  0  0  0  0  0  0
   -5.9762   17.9413   27.3488 C   0  0  0  0  0  0  0  0  0  0  0  0
   -6.7191   17.0997   26.6576 N   0  0  0  0  0  0  0  0  0  0  0  0
   -6.2332   19.1435   27.5070 O   0  0  0  0  0  0  0  0  0  0  0  0
   -6.4158   16.1677   26.5644 H   0  0  0  0  0  0  0  0  0  0  0  0
   -8.4693   16.4930   24.9904 C   0  0  0  0  0  0  0  0  0  0  0  0
   -8.7862   16.9516   23.5497 C   0  0  0  0  0  0  0  0  0  0  0  0
   -7.4902   17.2962   22.8101 C   0  0  0  0  0  0  0  0  0  0  0  0
   -7.8093   17.7764   21.3963 C   0  0  0  0  0  0  0  0  0  0  0  0
   -8.5781   16.7050   20.6178 C   0  0  0  0  0  0  0  0  0  0  0  0
   -9.8709   16.3229   21.3489 C   0  0  0  0  0  0  0  0  0  0  0  0
   -9.5686   15.8700   22.7821 C   0  0  0  0  0  0  0  0  0  0  0  0
  -12.0685   14.8264   32.5150 C   0  0  0  0  0  0  0  0  0  0  0  0
  -12.3416   13.5531   32.7161 N   0  0  0  0  0  0  0  0  0  0  0  0
  -12.7406   15.7739   32.9492 O   0  0  0  0  0  0  0  0  0  0  0  0
  -11.7419   12.8756   32.3281 H   0  0  0  0  0  0  0  0  0  0  0  0
  -13.5035   13.1010   33.4953 C   0  0  0  0  0  0  0  0  0  0  0  0
  -13.0553   12.6322   34.8801 C   0  0  0  0  0  0  0  0  0  0  0  0
  -11.8395   12.1004   35.0675 N   0  0  0  0  0  0  0  0  0  0  0  0
  -13.8058   12.7330   35.8615 O   0  0  0  0  0  0  0  0  0  0  0  0
  -11.2206   12.0071   34.3075 H   0  0  0  0  0  0  0  0  0  0  0  0
  -11.5652   11.8031   35.9650 H   0  0  0  0  0  0  0  0  0  0  0  0
  -14.1960   11.9422   32.7758 C   0  0  0  0  0  0  0  0  0  0  0  0
  -14.0679   12.0203   31.2535 C   0  0  0  0  0  0  0  0  0  0  0  0
  -15.2619   12.7053   30.5869 C   0  0  0  0  0  0  0  0  0  0  0  0
  -15.2069   14.1727   30.6767 N   0  0  0  0  0  0  0  0  0  0  0  0
  -14.4470   14.6335   30.2532 H   0  0  0  0  0  0  0  0  0  0  0  0
  -16.1285   14.9205   31.2999 C   0  0  0  0  0  0  0  0  0  0  0  0
  -15.7881   15.7427   32.3025 N   0  0  0  0  0  0  0  0  0  0  0  0
  -17.4312   14.9151   30.9898 N   0  0  0  0  0  0  0  0  0  0  0  0
  -14.8489   15.8046   32.5911 H   0  0  0  0  0  0  0  0  0  0  0  0
  -17.7621   14.3377   30.2643 H   0  0  0  0  0  0  0  0  0  0  0  0
  -18.0580   15.4885   31.4873 H   0  0  0  0  0  0  0  0  0  0  0  0
   -9.9145   16.0790   32.3891 C   0  0  0  0  0  0  0  0  0  0  0  0
   -9.2157   15.4904   33.6162 C   0  0  0  0  0  0  0  0  0  0  0  0
   -9.5036   16.2670   34.9040 C   0  0  0  0  0  0  0  0  0  0  0  0
   -8.6913   16.1541   35.9390 N   0  0  0  0  0  0  0  0  0  0  0  0
  -10.4903   16.9978   34.9755 O   0  0  0  0  0  0  0  0  0  0  0  0
   -7.9011   15.5696   35.8831 H   0  0  0  0  0  0  0  0  0  0  0  0
   -8.8759   16.6545   36.7665 H   0  0  0  0  0  0  0  0  0  0  0  0
 15 16  1  0  0  0
 16 17  1  0  0  0
 16 18  2  0  0  0
 14 20  1  0  0  0
 14 11  1  0  0  0
 14 17  1  0  0  0
 20 21  1  0  0  0
 21 22  1  0  0  0
 21 26  1  0  0  0
 22 23  1  0  0  0
 23 24  1  0  0  0
 24 25  1  0  0  0
 25 26  1  0  0  0
 11 10  1  0  0  0
 11 12  1  0  0  0
 10  6  1  0  0  0
  6  7  1  0  0  0
  6  2  1  0  0  0
  7  8  1  0  0  0
  7  9  1  0  0  0
  2  3  1  0  0  0
  2  4  2  0  0  0
  1 48  1  0  0  0
  1 27  1  0  0  0
  1  3  1  0  0  0
 48 49  1  0  0  0
 49 50  1  0  0  0
 50 51  1  0  0  0
 50 52  2  0  0  0
 27 28  1  0  0  0
 27 29  2  0  0  0
 31 32  1  0  0  0
 31 37  1  0  0  0
 31 28  1  0  0  0
 32 33  1  0  0  0
 32 34  2  0  0  0
 37 38  1  0  0  0
 38 39  1  0  0  0
 39 40  1  0  0  0
 42 40  1  0  0  0
 42 43  2  0  0  0
 42 44  1  0  0  0
 17 19  1  0  0  0
  3  5  1  0  0  0
 51 53  1  0  0  0
 51 54  1  0  0  0
 28 30  1  0  0  0
 33 35  1  0  0  0
 33 36  1  0  0  0
 40 41  1  0  0  0
 43 45  1  0  0  0
 44 46  1  0  0  0
 44 47  1  0  0  0
 12 13  1  0  0  0
M  END
> <minimizedAffinity>
-9.09633

$$$$
1GNO_U0E_B_100


 54 54  0  0  0  0  0  0  0  0999 V2000
   -7.7604   16.8584   23.7270 C   0  0  0  0  0  0  0  0  0  0  0  0
   -7.8513   17.0687   26.1673 C   0  0  0  0  0  0  0  0  0  0  0  0
   -7.8862   17.6268   24.9734 N   0  0  0  0  0  0  0  0  0  0  0  0
   -7.7339   15.8548   26.3833 O   0  0  0  0  0  0  0  0  0  0  0  0
   -8.0019   18.6027   24.9141 H   0  0  0  0  0  0  0  0  0  0  0  0
   -7.9768   18.0616   27.3200 C   0  0  0  0  0  0  0  0  0  0  0  0
   -6.5775   18.4261   27.8155 C   0  0  0  0  0  0  0  0  0  0  0  0
   -5.4977   17.4742   27.3010 C   0  0  0  0  0  0  0  0  0  0  0  0
   -6.1371   19.8270   27.3830 C   0  0  0  0  0  0  0  0  0  0  0  0
   -8.7959   17.4357   28.4494 C   0  0  0  0  0  0  0  0  0  0  0  0
  -10.2510   17.0280   28.2581 C   0  0  0  0  0  0  0  0  0  0  0  0
  -11.0194   18.2214   28.2542 O   0  0  0  0  0  0  0  0  0  0  0  0
  -10.9231   18.6707   29.1085 H   0  0  0  0  0  0  0  0  0  0  0  0
  -10.7932   16.0507   29.3124 C   0  0  0  0  0  0  0  0  0  0  0  0
  -12.8978   13.5017   27.4469 C   0  0  0  0  0  0  0  0  0  0  0  0
  -12.5145   14.8503   28.0585 C   0  0  0  0  0  0  0  0  0  0  0  0
  -11.3534   14.8489   28.6829 N   0  0  0  0  0  0  0  0  0  0  0  0
  -13.2640   15.8330   27.9644 O   0  0  0  0  0  0  0  0  0  0  0  0
  -10.8421   14.0089   28.7287 H   0  0  0  0  0  0  0  0  0  0  0  0
   -9.5415   15.7666   30.1270 C   0  0  0  0  0  0  0  0  0  0  0  0
   -9.5841   15.8481   31.6690 C   0  0  0  0  0  0  0  0  0  0  0  0
   -9.0717   14.5404   32.2794 C   0  0  0  0  0  0  0  0  0  0  0  0
   -9.1423   14.6140   33.8029 C   0  0  0  0  0  0  0  0  0  0  0  0
   -8.3138   15.7888   34.3304 C   0  0  0  0  0  0  0  0  0  0  0  0
   -8.7905   17.1107   33.7163 C   0  0  0  0  0  0  0  0  0  0  0  0
   -8.7564   17.0397   32.1852 C   0  0  0  0  0  0  0  0  0  0  0  0
   -7.0737   17.7204   22.6681 C   0  0  0  0  0  0  0  0  0  0  0  0
   -5.9553   17.2072   22.1969 N   0  0  0  0  0  0  0  0  0  0  0  0
   -7.5613   18.8047   22.3154 O   0  0  0  0  0  0  0  0  0  0  0  0
   -5.6539   16.3362   22.5429 H   0  0  0  0  0  0  0  0  0  0  0  0
   -5.1382   17.8799   21.1764 C   0  0  0  0  0  0  0  0  0  0  0  0
   -5.3696   17.2332   19.8101 C   0  0  0  0  0  0  0  0  0  0  0  0
   -5.6717   17.9779   18.7376 N   0  0  0  0  0  0  0  0  0  0  0  0
   -5.2833   16.0054   19.6626 O   0  0  0  0  0  0  0  0  0  0  0  0
   -5.7473   18.9557   18.8228 H   0  0  0  0  0  0  0  0  0  0  0  0
   -5.8179   17.5470   17.8645 H   0  0  0  0  0  0  0  0  0  0  0  0
   -3.6558   17.7680   21.5371 C   0  0  0  0  0  0  0  0  0  0  0  0
   -3.4186   17.5406   23.0310 C   0  0  0  0  0  0  0  0  0  0  0  0
   -2.9938   18.8108   23.7695 C   0  0  0  0  0  0  0  0  0  0  0  0
   -4.0993   19.4467   24.5028 N   0  0  0  0  0  0  0  0  0  0  0  0
   -4.4721   18.9714   25.2802 H   0  0  0  0  0  0  0  0  0  0  0  0
   -4.6300   20.6337   24.1770 C   0  0  0  0  0  0  0  0  0  0  0  0
   -4.0570   21.7789   24.5738 N   0  0  0  0  0  0  0  0  0  0  0  0
   -5.7449   20.7809   23.4500 N   0  0  0  0  0  0  0  0  0  0  0  0
   -3.2333   21.7563   25.1126 H   0  0  0  0  0  0  0  0  0  0  0  0
   -6.2258   19.9877   23.1202 H   0  0  0  0  0  0  0  0  0  0  0  0
   -6.0837   21.6824   23.2455 H   0  0  0  0  0  0  0  0  0  0  0  0
   -9.1425   16.4394   23.2193 C   0  0  0  0  0  0  0  0  0  0  0  0
   -9.0814   15.5512   21.9751 C   0  0  0  0  0  0  0  0  0  0  0  0
   -9.5409   16.2660   20.7014 C   0  0  0  0  0  0  0  0  0  0  0  0
  -10.8058   16.6183   20.5615 N   0  0  0  0  0  0  0  0  0  0  0  0
   -8.7327   16.5140   19.8081 O   0  0  0  0  0  0  0  0  0  0  0  0
  -11.4539   16.4204   21.2757 H   0  0  0  0  0  0  0  0  0  0  0  0
  -11.1009   17.0789   19.7429 H   0  0  0  0  0  0  0  0  0  0  0  0
 15 16  1  0  0  0
 16 17  1  0  0  0
 16 18  2  0  0  0
 14 20  1  0  0  0
 14 11  1  0  0  0
 14 17  1  0  0  0
 20 21  1  0  0  0
 21 22  1  0  0  0
 21 26  1  0  0  0
 22 23  1  0  0  0
 23 24  1  0  0  0
 24 25  1  0  0  0
 25 26  1  0  0  0
 11 10  1  0  0  0
 11 12  1  0  0  0
 10  6  1  0  0  0
  6  7  1  0  0  0
  6  2  1  0  0  0
  7  8  1  0  0  0
  7  9  1  0  0  0
  2  3  1  0  0  0
  2  4  2  0  0  0
  1 48  1  0  0  0
  1 27  1  0  0  0
  1  3  1  0  0  0
 48 49  1  0  0  0
 49 50  1  0  0  0
 50 51  1  0  0  0
 50 52  2  0  0  0
 27 28  1  0  0  0
 27 29  2  0  0  0
 31 32  1  0  0  0
 31 37  1  0  0  0
 31 28  1  0  0  0
 32 33  1  0  0  0
 32 34  2  0  0  0
 37 38  1  0  0  0
 38 39  1  0  0  0
 39 40  1  0  0  0
 42 40  1  0  0  0
 42 43  2  0  0  0
 42 44  1  0  0  0
 17 19  1  0  0  0
  3  5  1  0  0  0
 51 53  1  0  0  0
 51 54  1  0  0  0
 28 30  1  0  0  0
 33 35  1  0  0  0
 33 36  1  0  0  0
 40 41  1  0  0  0
 43 45  1  0  0  0
 44 46  1  0  0  0
 44 47  1  0  0  0
 12 13  1  0  0  0
M  END
> <minimizedAffinity>
-8.88229

$$$$
1GNO_U0E_B_100


 54 54  0  0  0  0  0  0  0  0999 V2000
   -7.4850   16.9948   23.6387 C   0  0  0  0  0  0  0  0  0  0  0  0
   -6.4343   17.4852   25.7981 C   0  0  0  0  0  0  0  0  0  0  0  0
   -7.4669   17.5849   24.9845 N   0  0  0  0  0  0  0  0  0  0  0  0
   -5.3847   16.8778   25.5464 O   0  0  0  0  0  0  0  0  0  0  0  0
   -8.2620   18.0771   25.2926 H   0  0  0  0  0  0  0  0  0  0  0  0
   -6.6277   18.1951   27.1357 C   0  0  0  0  0  0  0  0  0  0  0  0
   -5.6811   19.3934   27.2029 C   0  0  0  0  0  0  0  0  0  0  0  0
   -5.3403   19.9601   25.8246 C   0  0  0  0  0  0  0  0  0  0  0  0
   -6.2565   20.5647   28.0032 C   0  0  0  0  0  0  0  0  0  0  0  0
   -6.3382   17.2224   28.2794 C   0  0  0  0  0  0  0  0  0  0  0  0
   -7.4151   16.3101   28.8524 C   0  0  0  0  0  0  0  0  0  0  0  0
   -7.7217   15.3508   27.8522 O   0  0  0  0  0  0  0  0  0  0  0  0
   -8.0696   15.8020   27.0672 H   0  0  0  0  0  0  0  0  0  0  0  0
   -8.6944   17.0273   29.3102 C   0  0  0  0  0  0  0  0  0  0  0  0
  -12.1305   15.8728   28.1846 C   0  0  0  0  0  0  0  0  0  0  0  0
  -11.0156   16.8487   28.5645 C   0  0  0  0  0  0  0  0  0  0  0  0
   -9.8921   16.2667   28.9343 N   0  0  0  0  0  0  0  0  0  0  0  0
  -11.1963   18.0744   28.5268 O   0  0  0  0  0  0  0  0  0  0  0  0
   -9.8549   15.2832   28.9593 H   0  0  0  0  0  0  0  0  0  0  0  0
   -8.4783   17.0915   30.8136 C   0  0  0  0  0  0  0  0  0  0  0  0
   -8.9353   15.9222   31.7138 C   0  0  0  0  0  0  0  0  0  0  0  0
   -7.9300   15.7083   32.8491 C   0  0  0  0  0  0  0  0  0  0  0  0
   -8.3699   14.5336   33.7197 C   0  0  0  0  0  0  0  0  0  0  0  0
   -9.7634   14.7811   34.3045 C   0  0  0  0  0  0  0  0  0  0  0  0
  -10.7873   15.0225   33.1888 C   0  0  0  0  0  0  0  0  0  0  0  0
  -10.3417   16.1788   32.2860 C   0  0  0  0  0  0  0  0  0  0  0  0
   -6.6579   17.8653   22.6932 C   0  0  0  0  0  0  0  0  0  0  0  0
   -5.4987   17.3402   22.3515 N   0  0  0  0  0  0  0  0  0  0  0  0
   -7.0796   18.9664   22.3088 O   0  0  0  0  0  0  0  0  0  0  0  0
   -5.2575   16.4562   22.7114 H   0  0  0  0  0  0  0  0  0  0  0  0
   -4.5503   18.0180   21.4556 C   0  0  0  0  0  0  0  0  0  0  0  0
   -4.6354   17.4178   20.0517 C   0  0  0  0  0  0  0  0  0  0  0  0
   -4.3656   18.1588   18.9680 N   0  0  0  0  0  0  0  0  0  0  0  0
   -4.9557   16.2323   19.8831 O   0  0  0  0  0  0  0  0  0  0  0  0
   -4.1084   19.1037   19.0694 H   0  0  0  0  0  0  0  0  0  0  0  0
   -4.4248   17.7582   18.0706 H   0  0  0  0  0  0  0  0  0  0  0  0
   -3.1241   17.8531   21.9836 C   0  0  0  0  0  0  0  0  0  0  0  0
   -2.8402   18.7092   23.2190 C   0  0  0  0  0  0  0  0  0  0  0  0
   -2.3889   17.8860   24.4265 C   0  0  0  0  0  0  0  0  0  0  0  0
   -2.5558   16.4376   24.2300 N   0  0  0  0  0  0  0  0  0  0  0  0
   -3.4688   16.0897   24.1090 H   0  0  0  0  0  0  0  0  0  0  0  0
   -1.5405   15.5627   24.2055 C   0  0  0  0  0  0  0  0  0  0  0  0
   -1.6745   14.3343   24.7254 N   0  0  0  0  0  0  0  0  0  0  0  0
   -0.3381   15.8260   23.6781 N   0  0  0  0  0  0  0  0  0  0  0  0
   -2.5287   14.0626   25.1326 H   0  0  0  0  0  0  0  0  0  0  0  0
   -0.1591   16.7066   23.2760 H   0  0  0  0  0  0  0  0  0  0  0  0
    0.3669   15.1389   23.6925 H   0  0  0  0  0  0  0  0  0  0  0  0
   -8.9214   16.9053   23.1171 C   0  0  0  0  0  0  0  0  0  0  0  0
   -9.0664   15.9709   21.9144 C   0  0  0  0  0  0  0  0  0  0  0  0
   -9.6466   16.6646   20.6789 C   0  0  0  0  0  0  0  0  0  0  0  0
  -10.5561   16.0518   19.9433 N   0  0  0  0  0  0  0  0  0  0  0  0
   -9.2676   17.7934   20.3709 O   0  0  0  0  0  0  0  0  0  0  0  0
  -10.8605   15.1483   20.1887 H   0  0  0  0  0  0  0  0  0  0  0  0
  -10.9299   16.4985   19.1496 H   0  0  0  0  0  0  0  0  0  0  0  0
 15 16  1  0  0  0
 16 17  1  0  0  0
 16 18  2  0  0  0
 14 20  1  0  0  0
 14 11  1  0  0  0
 14 17  1  0  0  0
 20 21  1  0  0  0
 21 22  1  0  0  0
 21 26  1  0  0  0
 22 23  1  0  0  0
 23 24  1  0  0  0
 24 25  1  0  0  0
 25 26  1  0  0  0
 11 10  1  0  0  0
 11 12  1  0  0  0
 10  6  1  0  0  0
  6  7  1  0  0  0
  6  2  1  0  0  0
  7  8  1  0  0  0
  7  9  1  0  0  0
  2  3  1  0  0  0
  2  4  2  0  0  0
  1 48  1  0  0  0
  1 27  1  0  0  0
  1  3  1  0  0  0
 48 49  1  0  0  0
 49 50  1  0  0  0
 50 51  1  0  0  0
 50 52  2  0  0  0
 27 28  1  0  0  0
 27 29  2  0  0  0
 31 32  1  0  0  0
 31 37  1  0  0  0
 31 28  1  0  0  0
 32 33  1  0  0  0
 32 34  2  0  0  0
 37 38  1  0  0  0
 38 39  1  0  0  0
 39 40  1  0  0  0
 42 40  1  0  0  0
 42 43  2  0  0  0
 42 44  1  0  0  0
 17 19  1  0  0  0
  3  5  1  0  0  0
 51 53  1  0  0  0
 51 54  1  0  0  0
 28 30  1  0  0  0
 33 35  1  0  0  0
 33 36  1  0  0  0
 40 41  1  0  0  0
 43 45  1  0  0  0
 44 46  1  0  0  0
 44 47  1  0  0  0
 12 13  1  0  0  0
M  END
> <minimizedAffinity>
-8.79130

$$$$
1GNO_U0E_B_100


 54 54  0  0  0  0  0  0  0  0999 V2000
   -8.8346   15.4708   26.1485 C   0  0  0  0  0  0  0  0  0  0  0  0
  -10.7816   15.2803   27.6251 C   0  0  0  0  0  0  0  0  0  0  0  0
   -9.8792   14.7117   26.8501 N   0  0  0  0  0  0  0  0  0  0  0  0
  -10.8474   16.4922   27.8716 O   0  0  0  0  0  0  0  0  0  0  0  0
   -9.9063   13.7342   26.7363 H   0  0  0  0  0  0  0  0  0  0  0  0
  -11.7832   14.3012   28.2322 C   0  0  0  0  0  0  0  0  0  0  0  0
  -13.0353   14.2654   27.3562 C   0  0  0  0  0  0  0  0  0  0  0  0
  -13.5205   12.8444   27.0699 C   0  0  0  0  0  0  0  0  0  0  0  0
  -14.2261   14.9921   27.9867 C   0  0  0  0  0  0  0  0  0  0  0  0
  -12.1384   14.7447   29.6518 C   0  0  0  0  0  0  0  0  0  0  0  0
  -12.0017   13.8086   30.8456 C   0  0  0  0  0  0  0  0  0  0  0  0
  -12.4048   12.5191   30.4102 O   0  0  0  0  0  0  0  0  0  0  0  0
  -13.3333   12.5477   30.1312 H   0  0  0  0  0  0  0  0  0  0  0  0
  -12.8033   14.2240   32.0887 C   0  0  0  0  0  0  0  0  0  0  0  0
  -14.2312   11.6124   34.4440 C   0  0  0  0  0  0  0  0  0  0  0  0
  -14.1865   12.8830   33.5936 C   0  0  0  0  0  0  0  0  0  0  0  0
  -13.0387   13.0780   32.9751 N   0  0  0  0  0  0  0  0  0  0  0  0
  -15.1621   13.6448   33.5275 O   0  0  0  0  0  0  0  0  0  0  0  0
  -12.3110   12.4295   33.1131 H   0  0  0  0  0  0  0  0  0  0  0  0
  -11.8846   15.2696   32.7001 C   0  0  0  0  0  0  0  0  0  0  0  0
  -10.3548   15.1630   32.5131 C   0  0  0  0  0  0  0  0  0  0  0  0
   -9.7994   16.4786   31.9599 C   0  0  0  0  0  0  0  0  0  0  0  0
   -8.2918   16.3598   31.7493 C   0  0  0  0  0  0  0  0  0  0  0  0
   -7.5843   16.0128   33.0623 C   0  0  0  0  0  0  0  0  0  0  0  0
   -8.1383   14.7100   33.6518 C   0  0  0  0  0  0  0  0  0  0  0  0
   -9.6573   14.8029   33.8378 C   0  0  0  0  0  0  0  0  0  0  0  0
   -7.8187   15.9919   27.1645 C   0  0  0  0  0  0  0  0  0  0  0  0
   -7.1535   17.0569   26.7648 N   0  0  0  0  0  0  0  0  0  0  0  0
   -7.6645   15.4273   28.2578 O   0  0  0  0  0  0  0  0  0  0  0  0
   -7.3526   17.4308   25.8761 H   0  0  0  0  0  0  0  0  0  0  0  0
   -6.1268   17.7105   27.5895 C   0  0  0  0  0  0  0  0  0  0  0  0
   -6.3356   19.2254   27.5826 C   0  0  0  0  0  0  0  0  0  0  0  0
   -7.5581   19.7517   27.4258 N   0  0  0  0  0  0  0  0  0  0  0  0
   -5.3793   20.0018   27.7217 O   0  0  0  0  0  0  0  0  0  0  0  0
   -8.3376   19.1611   27.3130 H   0  0  0  0  0  0  0  0  0  0  0  0
   -7.6766   20.7291   27.4235 H   0  0  0  0  0  0  0  0  0  0  0  0
   -4.7353   17.3958   27.0375 C   0  0  0  0  0  0  0  0  0  0  0  0
   -4.7497   17.0232   25.5540 C   0  0  0  0  0  0  0  0  0  0  0  0
   -4.1011   18.0847   24.6642 C   0  0  0  0  0  0  0  0  0  0  0  0
   -4.2349   17.7918   23.2287 N   0  0  0  0  0  0  0  0  0  0  0  0
   -3.8299   16.9623   22.8865 H   0  0  0  0  0  0  0  0  0  0  0  0
   -4.8746   18.5856   22.3583 C   0  0  0  0  0  0  0  0  0  0  0  0
   -4.9677   19.9064   22.5673 N   0  0  0  0  0  0  0  0  0  0  0  0
   -5.4611   18.1472   21.2371 N   0  0  0  0  0  0  0  0  0  0  0  0
   -4.5622   20.3076   23.3697 H   0  0  0  0  0  0  0  0  0  0  0  0
   -5.4372   17.1893   21.0112 H   0  0  0  0  0  0  0  0  0  0  0  0
   -5.9163   18.7829   20.6388 H   0  0  0  0  0  0  0  0  0  0  0  0
   -9.4511   16.6538   25.3975 C   0  0  0  0  0  0  0  0  0  0  0  0
   -9.8310   16.3168   23.9544 C   0  0  0  0  0  0  0  0  0  0  0  0
   -8.6220   16.2220   23.0195 C   0  0  0  0  0  0  0  0  0  0  0  0
   -8.2270   15.0457   22.5678 N   0  0  0  0  0  0  0  0  0  0  0  0
   -8.0186   17.2409   22.6872 O   0  0  0  0  0  0  0  0  0  0  0  0
   -8.7091   14.2294   22.8331 H   0  0  0  0  0  0  0  0  0  0  0  0
   -7.4503   14.9851   21.9659 H   0  0  0  0  0  0  0  0  0  0  0  0
 15 16  1  0  0  0
 16 17  1  0  0  0
 16 18  2  0  0  0
 14 20  1  0  0  0
 14 11  1  0  0  0
 14 17  1  0  0  0
 20 21  1  0  0  0
 21 22  1  0  0  0
 21 26  1  0  0  0
 22 23  1  0  0  0
 23 24  1  0  0  0
 24 25  1  0  0  0
 25 26  1  0  0  0
 11 10  1  0  0  0
 11 12  1  0  0  0
 10  6  1  0  0  0
  6  7  1  0  0  0
  6  2  1  0  0  0
  7  8  1  0  0  0
  7  9  1  0  0  0
  2  3  1  0  0  0
  2  4  2  0  0  0
  1 48  1  0  0  0
  1 27  1  0  0  0
  1  3  1  0  0  0
 48 49  1  0  0  0
 49 50  1  0  0  0
 50 51  1  0  0  0
 50 52  2  0  0  0
 27 28  1  0  0  0
 27 29  2  0  0  0
 31 32  1  0  0  0
 31 37  1  0  0  0
 31 28  1  0  0  0
 32 33  1  0  0  0
 32 34  2  0  0  0
 37 38  1  0  0  0
 38 39  1  0  0  0
 39 40  1  0  0  0
 42 40  1  0  0  0
 42 43  2  0  0  0
 42 44  1  0  0  0
 17 19  1  0  0  0
  3  5  1  0  0  0
 51 53  1  0  0  0
 51 54  1  0  0  0
 28 30  1  0  0  0
 33 35  1  0  0  0
 33 36  1  0  0  0
 40 41  1  0  0  0
 43 45  1  0  0  0
 44 46  1  0  0  0
 44 47  1  0  0  0
 12 13  1  0  0  0
M  END
> <minimizedAffinity>
-8.64422

$$$$
1GNO_U0E_B_100


 54 54  0  0  0  0  0  0  0  0999 V2000
  -13.4389   13.5366   31.2096 C   0  0  0  0  0  0  0  0  0  0  0  0
  -11.3945   14.8437   31.5550 C   0  0  0  0  0  0  0  0  0  0  0  0
  -12.0754   13.9564   30.8569 N   0  0  0  0  0  0  0  0  0  0  0  0
  -11.8154   15.4371   32.5572 O   0  0  0  0  0  0  0  0  0  0  0  0
  -11.6512   13.5570   30.0634 H   0  0  0  0  0  0  0  0  0  0  0  0
   -9.9899   15.1089   31.0190 C   0  0  0  0  0  0  0  0  0  0  0  0
   -9.1324   15.6926   32.1417 C   0  0  0  0  0  0  0  0  0  0  0  0
   -8.4762   14.6182   33.0088 C   0  0  0  0  0  0  0  0  0  0  0  0
   -7.9868   16.5668   31.6253 C   0  0  0  0  0  0  0  0  0  0  0  0
  -10.0649   16.0841   29.8437 C   0  0  0  0  0  0  0  0  0  0  0  0
  -10.2078   15.6024   28.4057 C   0  0  0  0  0  0  0  0  0  0  0  0
  -10.1604   14.1841   28.4364 O   0  0  0  0  0  0  0  0  0  0  0  0
   -9.3023   13.8969   28.7859 H   0  0  0  0  0  0  0  0  0  0  0  0
   -9.1517   16.1482   27.4325 C   0  0  0  0  0  0  0  0  0  0  0  0
   -9.7113   16.3560   23.6841 C   0  0  0  0  0  0  0  0  0  0  0  0
   -8.9390   16.2327   24.9986 C   0  0  0  0  0  0  0  0  0  0  0  0
   -9.6973   16.2775   26.0760 N   0  0  0  0  0  0  0  0  0  0  0  0
   -7.7051   16.1149   25.0085 O   0  0  0  0  0  0  0  0  0  0  0  0
  -10.6676   16.4026   25.9665 H   0  0  0  0  0  0  0  0  0  0  0  0
   -8.8220   17.4878   28.0710 C   0  0  0  0  0  0  0  0  0  0  0  0
   -7.3518   17.9424   28.2058 C   0  0  0  0  0  0  0  0  0  0  0  0
   -6.4121   16.7493   28.0088 C   0  0  0  0  0  0  0  0  0  0  0  0
   -4.9613   17.1968   28.1713 C   0  0  0  0  0  0  0  0  0  0  0  0
   -4.6150   18.2977   27.1648 C   0  0  0  0  0  0  0  0  0  0  0  0
   -5.5574   19.4971   27.3238 C   0  0  0  0  0  0  0  0  0  0  0  0
   -7.0204   19.0567   27.1960 C   0  0  0  0  0  0  0  0  0  0  0  0
  -13.4749   12.0172   31.3709 C   0  0  0  0  0  0  0  0  0  0  0  0
  -14.1457   11.6024   32.4265 N   0  0  0  0  0  0  0  0  0  0  0  0
  -12.9046   11.2766   30.5559 O   0  0  0  0  0  0  0  0  0  0  0  0
  -14.5645   12.2736   33.0124 H   0  0  0  0  0  0  0  0  0  0  0  0
  -14.2955   10.1799   32.7665 C   0  0  0  0  0  0  0  0  0  0  0  0
  -15.6230    9.6486   32.2243 C   0  0  0  0  0  0  0  0  0  0  0  0
  -16.7306    9.6630   32.9786 N   0  0  0  0  0  0  0  0  0  0  0  0
  -15.7057    9.1923   31.0747 O   0  0  0  0  0  0  0  0  0  0  0  0
  -16.6970   10.0192   33.8958 H   0  0  0  0  0  0  0  0  0  0  0  0
  -17.5780    9.3174   32.6156 H   0  0  0  0  0  0  0  0  0  0  0  0
  -14.2690   10.0004   34.2854 C   0  0  0  0  0  0  0  0  0  0  0  0
  -12.8535    9.8540   34.8465 C   0  0  0  0  0  0  0  0  0  0  0  0
  -12.4446   11.0184   35.7500 C   0  0  0  0  0  0  0  0  0  0  0  0
  -11.7281   12.0817   35.0290 N   0  0  0  0  0  0  0  0  0  0  0  0
  -10.9525   11.8258   34.4793 H   0  0  0  0  0  0  0  0  0  0  0  0
  -12.0668   13.3779   35.0748 C   0  0  0  0  0  0  0  0  0  0  0  0
  -11.1689   14.3151   35.4105 N   0  0  0  0  0  0  0  0  0  0  0  0
  -13.2927   13.8413   34.7996 N   0  0  0  0  0  0  0  0  0  0  0  0
  -10.2443   14.0557   35.6275 H   0  0  0  0  0  0  0  0  0  0  0  0
  -14.0094   13.2163   34.5446 H   0  0  0  0  0  0  0  0  0  0  0  0
  -13.4772   14.8069   34.8524 H   0  0  0  0  0  0  0  0  0  0  0  0
  -14.4232   13.9521   30.1132 C   0  0  0  0  0  0  0  0  0  0  0  0
  -15.8382   14.2005   30.6392 C   0  0  0  0  0  0  0  0  0  0  0  0
  -15.8603   14.8393   32.0305 C   0  0  0  0  0  0  0  0  0  0  0  0
  -15.8224   16.1534   32.1547 N   0  0  0  0  0  0  0  0  0  0  0  0
  -15.9149   14.1297   33.0337 O   0  0  0  0  0  0  0  0  0  0  0  0
  -15.7787   16.7226   31.3526 H   0  0  0  0  0  0  0  0  0  0  0  0
  -15.8378   16.5639   33.0494 H   0  0  0  0  0  0  0  0  0  0  0  0
 15 16  1  0  0  0
 16 17  1  0  0  0
 16 18  2  0  0  0
 14 20  1  0  0  0
 14 11  1  0  0  0
 14 17  1  0  0  0
 20 21  1  0  0  0
 21 22  1  0  0  0
 21 26  1  0  0  0
 22 23  1  0  0  0
 23 24  1  0  0  0
 24 25  1  0  0  0
 25 26  1  0  0  0
 11 10  1  0  0  0
 11 12  1  0  0  0
 10  6  1  0  0  0
  6  7  1  0  0  0
  6  2  1  0  0  0
  7  8  1  0  0  0
  7  9  1  0  0  0
  2  3  1  0  0  0
  2  4  2  0  0  0
  1 48  1  0  0  0
  1 27  1  0  0  0
  1  3  1  0  0  0
 48 49  1  0  0  0
 49 50  1  0  0  0
 50 51  1  0  0  0
 50 52  2  0  0  0
 27 28  1  0  0  0
 27 29  2  0  0  0
 31 32  1  0  0  0
 31 37  1  0  0  0
 31 28  1  0  0  0
 32 33  1  0  0  0
 32 34  2  0  0  0
 37 38  1  0  0  0
 38 39  1  0  0  0
 39 40  1  0  0  0
 42 40  1  0  0  0
 42 43  2  0  0  0
 42 44  1  0  0  0
 17 19  1  0  0  0
  3  5  1  0  0  0
 51 53  1  0  0  0
 51 54  1  0  0  0
 28 30  1  0  0  0
 33 35  1  0  0  0
 33 36  1  0  0  0
 40 41  1  0  0  0
 43 45  1  0  0  0
 44 46  1  0  0  0
 44 47  1  0  0  0
 12 13  1  0  0  0
M  END
> <minimizedAffinity>
-8.55499

$$$$
1GNO_U0E_B_100


 54 54  0  0  0  0  0  0  0  0999 V2000
   -7.4757   16.9607   23.7907 C   0  0  0  0  0  0  0  0  0  0  0  0
   -7.8202   17.0932   26.2138 C   0  0  0  0  0  0  0  0  0  0  0  0
   -7.6902   17.6928   25.0468 N   0  0  0  0  0  0  0  0  0  0  0  0
   -7.8013   15.8677   26.3913 O   0  0  0  0  0  0  0  0  0  0  0  0
   -7.7391   18.6756   25.0154 H   0  0  0  0  0  0  0  0  0  0  0  0
   -8.0106   18.0524   27.3860 C   0  0  0  0  0  0  0  0  0  0  0  0
   -6.6385   18.4464   27.9326 C   0  0  0  0  0  0  0  0  0  0  0  0
   -5.6096   17.3211   27.8241 C   0  0  0  0  0  0  0  0  0  0  0  0
   -6.0250   19.6425   27.2002 C   0  0  0  0  0  0  0  0  0  0  0  0
   -8.8430   17.3737   28.4743 C   0  0  0  0  0  0  0  0  0  0  0  0
  -10.2852   16.9455   28.2353 C   0  0  0  0  0  0  0  0  0  0  0  0
  -11.0985   18.0891   28.4482 O   0  0  0  0  0  0  0  0  0  0  0  0
  -11.0019   18.3882   29.3659 H   0  0  0  0  0  0  0  0  0  0  0  0
  -10.7678   15.7799   29.1121 C   0  0  0  0  0  0  0  0  0  0  0  0
  -12.9369   13.3043   27.2216 C   0  0  0  0  0  0  0  0  0  0  0  0
  -12.5949   14.4776   28.1414 C   0  0  0  0  0  0  0  0  0  0  0  0
  -11.3019   14.6857   28.2924 N   0  0  0  0  0  0  0  0  0  0  0  0
  -13.4855   15.1434   28.6891 O   0  0  0  0  0  0  0  0  0  0  0  0
  -10.6697   14.0835   27.8374 H   0  0  0  0  0  0  0  0  0  0  0  0
   -9.4878   15.4059   29.8419 C   0  0  0  0  0  0  0  0  0  0  0  0
   -9.4783   15.2898   31.3822 C   0  0  0  0  0  0  0  0  0  0  0  0
   -8.2763   16.0430   31.9593 C   0  0  0  0  0  0  0  0  0  0  0  0
   -8.2542   15.9018   33.4795 C   0  0  0  0  0  0  0  0  0  0  0  0
   -9.5469   16.4443   34.0956 C   0  0  0  0  0  0  0  0  0  0  0  0
  -10.7704   15.7231   33.5172 C   0  0  0  0  0  0  0  0  0  0  0  0
  -10.7878   15.8283   31.9877 C   0  0  0  0  0  0  0  0  0  0  0  0
   -6.7203   17.8537   22.8070 C   0  0  0  0  0  0  0  0  0  0  0  0
   -5.5034   17.4354   22.5234 N   0  0  0  0  0  0  0  0  0  0  0  0
   -7.2455   18.8769   22.3432 O   0  0  0  0  0  0  0  0  0  0  0  0
   -5.1798   16.6067   22.9450 H   0  0  0  0  0  0  0  0  0  0  0  0
   -4.6083   18.1535   21.6043 C   0  0  0  0  0  0  0  0  0  0  0  0
   -4.5975   17.4649   20.2389 C   0  0  0  0  0  0  0  0  0  0  0  0
   -5.2451   16.3075   20.0458 N   0  0  0  0  0  0  0  0  0  0  0  0
   -3.9896   17.9607   19.2792 O   0  0  0  0  0  0  0  0  0  0  0  0
   -5.7371   15.8888   20.7887 H   0  0  0  0  0  0  0  0  0  0  0  0
   -5.2290   15.8761   19.1610 H   0  0  0  0  0  0  0  0  0  0  0  0
   -3.1859   18.1695   22.1666 C   0  0  0  0  0  0  0  0  0  0  0  0
   -2.6416   16.7701   22.4588 C   0  0  0  0  0  0  0  0  0  0  0  0
   -1.1548   16.6257   22.1303 C   0  0  0  0  0  0  0  0  0  0  0  0
   -0.8919   15.6292   21.0805 N   0  0  0  0  0  0  0  0  0  0  0  0
   -0.3420   14.8465   21.3135 H   0  0  0  0  0  0  0  0  0  0  0  0
   -1.3553   15.7219   19.8262 C   0  0  0  0  0  0  0  0  0  0  0  0
   -2.0495   14.7188   19.2703 N   0  0  0  0  0  0  0  0  0  0  0  0
   -1.1731   16.7890   19.0379 N   0  0  0  0  0  0  0  0  0  0  0  0
   -2.2266   13.8984   19.7848 H   0  0  0  0  0  0  0  0  0  0  0  0
   -0.6730   17.5683   19.3723 H   0  0  0  0  0  0  0  0  0  0  0  0
   -1.5391   16.7942   18.1240 H   0  0  0  0  0  0  0  0  0  0  0  0
   -8.8179   16.5543   23.1766 C   0  0  0  0  0  0  0  0  0  0  0  0
   -8.6680   15.6706   21.9368 C   0  0  0  0  0  0  0  0  0  0  0  0
   -9.1257   16.3584   20.6477 C   0  0  0  0  0  0  0  0  0  0  0  0
  -10.3678   16.7922   20.5356 N   0  0  0  0  0  0  0  0  0  0  0  0
   -8.3370   16.5089   19.7160 O   0  0  0  0  0  0  0  0  0  0  0  0
  -11.0002   16.6724   21.2806 H   0  0  0  0  0  0  0  0  0  0  0  0
  -10.6616   17.2355   19.7071 H   0  0  0  0  0  0  0  0  0  0  0  0
 15 16  1  0  0  0
 16 17  1  0  0  0
 16 18  2  0  0  0
 14 20  1  0  0  0
 14 11  1  0  0  0
 14 17  1  0  0  0
 20 21  1  0  0  0
 21 22  1  0  0  0
 21 26  1  0  0  0
 22 23  1  0  0  0
 23 24  1  0  0  0
 24 25  1  0  0  0
 25 26  1  0  0  0
 11 10  1  0  0  0
 11 12  1  0  0  0
 10  6  1  0  0  0
  6  7  1  0  0  0
  6  2  1  0  0  0
  7  8  1  0  0  0
  7  9  1  0  0  0
  2  3  1  0  0  0
  2  4  2  0  0  0
  1 48  1  0  0  0
  1 27  1  0  0  0
  1  3  1  0  0  0
 48 49  1  0  0  0
 49 50  1  0  0  0
 50 51  1  0  0  0
 50 52  2  0  0  0
 27 28  1  0  0  0
 27 29  2  0  0  0
 31 32  1  0  0  0
 31 37  1  0  0  0
 31 28  1  0  0  0
 32 33  1  0  0  0
 32 34  2  0  0  0
 37 38  1  0  0  0
 38 39  1  0  0  0
 39 40  1  0  0  0
 42 40  1  0  0  0
 42 43  2  0  0  0
 42 44  1  0  0  0
 17 19  1  0  0  0
  3  5  1  0  0  0
 51 53  1  0  0  0
 51 54  1  0  0  0
 28 30  1  0  0  0
 33 35  1  0  0  0
 33 36  1  0  0  0
 40 41  1  0  0  0
 43 45  1  0  0  0
 44 46  1  0  0  0
 44 47  1  0  0  0
 12 13  1  0  0  0
M  END
> <minimizedAffinity>
-8.48858

$$$$
1GNO_U0E_B_100


 54 54  0  0  0  0  0  0  0  0999 V2000
   -8.3127   17.2706   23.7863 C   0  0  0  0  0  0  0  0  0  0  0  0
   -6.2427   18.1273   22.7921 C   0  0  0  0  0  0  0  0  0  0  0  0
   -6.8919   17.1698   23.4244 N   0  0  0  0  0  0  0  0  0  0  0  0
   -6.7409   19.1958   22.4127 O   0  0  0  0  0  0  0  0  0  0  0  0
   -6.4027   16.3500   23.6651 H   0  0  0  0  0  0  0  0  0  0  0  0
   -4.7694   17.8163   22.5409 C   0  0  0  0  0  0  0  0  0  0  0  0
   -3.9145   18.6865   23.4620 C   0  0  0  0  0  0  0  0  0  0  0  0
   -3.7024   18.0627   24.8414 C   0  0  0  0  0  0  0  0  0  0  0  0
   -2.5131   18.9488   22.9045 C   0  0  0  0  0  0  0  0  0  0  0  0
   -4.4286   18.0953   21.0766 C   0  0  0  0  0  0  0  0  0  0  0  0
   -5.0340   17.2817   19.9400 C   0  0  0  0  0  0  0  0  0  0  0  0
   -5.0535   15.9272   20.3637 O   0  0  0  0  0  0  0  0  0  0  0  0
   -4.1456   15.6256   20.5243 H   0  0  0  0  0  0  0  0  0  0  0  0
   -4.3035   17.4068   18.5942 C   0  0  0  0  0  0  0  0  0  0  0  0
   -5.5053   19.7872   15.8931 C   0  0  0  0  0  0  0  0  0  0  0  0
   -4.9194   18.5127   16.5028 C   0  0  0  0  0  0  0  0  0  0  0  0
   -4.8153   18.5416   17.8167 N   0  0  0  0  0  0  0  0  0  0  0  0
   -4.5724   17.5611   15.7882 O   0  0  0  0  0  0  0  0  0  0  0  0
   -5.0917   19.3564   18.2951 H   0  0  0  0  0  0  0  0  0  0  0  0
   -2.8666   17.5992   19.0518 C   0  0  0  0  0  0  0  0  0  0  0  0
   -1.8505   16.4426   18.9256 C   0  0  0  0  0  0  0  0  0  0  0  0
   -1.4792   15.9145   20.3143 C   0  0  0  0  0  0  0  0  0  0  0  0
   -0.4532   14.7910   20.1870 C   0  0  0  0  0  0  0  0  0  0  0  0
   -1.0021   13.6467   19.3300 C   0  0  0  0  0  0  0  0  0  0  0  0
   -1.4049   14.1525   17.9395 C   0  0  0  0  0  0  0  0  0  0  0  0
   -2.4106   15.3043   18.0527 C   0  0  0  0  0  0  0  0  0  0  0  0
   -8.4443   17.3333   25.3077 C   0  0  0  0  0  0  0  0  0  0  0  0
   -7.4793   18.0022   25.9057 N   0  0  0  0  0  0  0  0  0  0  0  0
   -9.3928   16.7842   25.8880 O   0  0  0  0  0  0  0  0  0  0  0  0
   -6.7708   18.4031   25.3521 H   0  0  0  0  0  0  0  0  0  0  0  0
   -7.4155   18.1753   27.3643 C   0  0  0  0  0  0  0  0  0  0  0  0
   -6.6230   19.4372   27.7079 C   0  0  0  0  0  0  0  0  0  0  0  0
   -5.2830   19.4255   27.7268 N   0  0  0  0  0  0  0  0  0  0  0  0
   -7.2013   20.5001   27.9769 O   0  0  0  0  0  0  0  0  0  0  0  0
   -4.7950   18.5965   27.5176 H   0  0  0  0  0  0  0  0  0  0  0  0
   -4.7867   20.2459   27.9499 H   0  0  0  0  0  0  0  0  0  0  0  0
   -6.7311   16.9662   28.0043 C   0  0  0  0  0  0  0  0  0  0  0  0
   -7.6794   16.1252   28.8606 C   0  0  0  0  0  0  0  0  0  0  0  0
   -8.6989   16.9681   29.6283 C   0  0  0  0  0  0  0  0  0  0  0  0
  -10.0736   16.4581   29.5085 N   0  0  0  0  0  0  0  0  0  0  0  0
  -10.3243   15.6739   30.0484 H   0  0  0  0  0  0  0  0  0  0  0  0
  -11.0056   16.9959   28.7092 C   0  0  0  0  0  0  0  0  0  0  0  0
  -12.1245   16.3239   28.4032 N   0  0  0  0  0  0  0  0  0  0  0  0
  -10.9083   18.2132   28.1597 N   0  0  0  0  0  0  0  0  0  0  0  0
  -12.2718   15.4213   28.7676 H   0  0  0  0  0  0  0  0  0  0  0  0
  -10.1162   18.7708   28.3356 H   0  0  0  0  0  0  0  0  0  0  0  0
  -11.6288   18.5505   27.5798 H   0  0  0  0  0  0  0  0  0  0  0  0
   -9.0821   16.0554   23.2620 C   0  0  0  0  0  0  0  0  0  0  0  0
   -8.8185   15.7706   21.7821 C   0  0  0  0  0  0  0  0  0  0  0  0
   -9.5401   16.7417   20.8437 C   0  0  0  0  0  0  0  0  0  0  0  0
  -10.7947   16.5170   20.4982 N   0  0  0  0  0  0  0  0  0  0  0  0
   -8.9530   17.7324   20.4120 O   0  0  0  0  0  0  0  0  0  0  0  0
  -11.2658   15.7243   20.8430 H   0  0  0  0  0  0  0  0  0  0  0  0
  -11.2588   17.1421   19.8957 H   0  0  0  0  0  0  0  0  0  0  0  0
 15 16  1  0  0  0
 16 17  1  0  0  0
 16 18  2  0  0  0
 14 20  1  0  0  0
 14 11  1  0  0  0
 14 17  1  0  0  0
 20 21  1  0  0  0
 21 22  1  0  0  0
 21 26  1  0  0  0
 22 23  1  0  0  0
 23 24  1  0  0  0
 24 25  1  0  0  0
 25 26  1  0  0  0
 11 10  1  0  0  0
 11 12  1  0  0  0
 10  6  1  0  0  0
  6  7  1  0  0  0
  6  2  1  0  0  0
  7  8  1  0  0  0
  7  9  1  0  0  0
  2  3  1  0  0  0
  2  4  2  0  0  0
  1 48  1  0  0  0
  1 27  1  0  0  0
  1  3  1  0  0  0
 48 49  1  0  0  0
 49 50  1  0  0  0
 50 51  1  0  0  0
 50 52  2  0  0  0
 27 28  1  0  0  0
 27 29  2  0  0  0
 31 32  1  0  0  0
 31 37  1  0  0  0
 31 28  1  0  0  0
 32 33  1  0  0  0
 32 34  2  0  0  0
 37 38  1  0  0  0
 38 39  1  0  0  0
 39 40  1  0  0  0
 42 40  1  0  0  0
 42 43  2  0  0  0
 42 44  1  0  0  0
 17 19  1  0  0  0
  3  5  1  0  0  0
 51 53  1  0  0  0
 51 54  1  0  0  0
 28 30  1  0  0  0
 33 35  1  0  0  0
 33 36  1  0  0  0
 40 41  1  0  0  0
 43 45  1  0  0  0
 44 46  1  0  0  0
 44 47  1  0  0  0
 12 13  1  0  0  0
M  END
> <minimizedAffinity>
-8.47167

$$$$
1GNO_U0E_B_100


 54 54  0  0  0  0  0  0  0  0999 V2000
  -12.5531   13.7250   30.8527 C   0  0  0  0  0  0  0  0  0  0  0  0
  -10.8890   15.2323   31.8358 C   0  0  0  0  0  0  0  0  0  0  0  0
  -11.1759   14.1606   31.1236 N   0  0  0  0  0  0  0  0  0  0  0  0
  -11.7226   16.0005   32.3347 O   0  0  0  0  0  0  0  0  0  0  0  0
  -10.4338   13.6279   30.7565 H   0  0  0  0  0  0  0  0  0  0  0  0
   -9.3926   15.4798   32.0086 C   0  0  0  0  0  0  0  0  0  0  0  0
   -9.0180   15.2529   33.4731 C   0  0  0  0  0  0  0  0  0  0  0  0
   -7.5925   14.7295   33.6482 C   0  0  0  0  0  0  0  0  0  0  0  0
   -9.0985   16.5292   34.3146 C   0  0  0  0  0  0  0  0  0  0  0  0
   -9.0574   16.9113   31.5884 C   0  0  0  0  0  0  0  0  0  0  0  0
   -9.1601   17.3698   30.1394 C   0  0  0  0  0  0  0  0  0  0  0  0
  -10.5327   17.6215   29.8800 O   0  0  0  0  0  0  0  0  0  0  0  0
  -11.0386   16.8016   29.9922 H   0  0  0  0  0  0  0  0  0  0  0  0
   -8.5969   16.3817   29.1065 C   0  0  0  0  0  0  0  0  0  0  0  0
  -10.0925   15.9196   25.6487 C   0  0  0  0  0  0  0  0  0  0  0  0
   -9.3255   15.5603   26.9224 C   0  0  0  0  0  0  0  0  0  0  0  0
   -9.2635   16.5349   27.8079 N   0  0  0  0  0  0  0  0  0  0  0  0
   -8.8102   14.4421   27.0664 O   0  0  0  0  0  0  0  0  0  0  0  0
   -9.6808   17.3995   27.5895 H   0  0  0  0  0  0  0  0  0  0  0  0
   -7.1320   16.7868   29.0744 C   0  0  0  0  0  0  0  0  0  0  0  0
   -6.5302   17.4214   27.8010 C   0  0  0  0  0  0  0  0  0  0  0  0
   -6.7081   18.9420   27.8363 C   0  0  0  0  0  0  0  0  0  0  0  0
   -6.1380   19.5627   26.5631 C   0  0  0  0  0  0  0  0  0  0  0  0
   -4.6534   19.2207   26.4081 C   0  0  0  0  0  0  0  0  0  0  0  0
   -4.4431   17.7017   26.3936 C   0  0  0  0  0  0  0  0  0  0  0  0
   -5.0407   17.0605   27.6516 C   0  0  0  0  0  0  0  0  0  0  0  0
  -13.0134   12.7818   31.9637 C   0  0  0  0  0  0  0  0  0  0  0  0
  -13.2309   11.5447   31.5657 N   0  0  0  0  0  0  0  0  0  0  0  0
  -13.1598   13.1900   33.1256 O   0  0  0  0  0  0  0  0  0  0  0  0
  -13.0832   11.3217   30.6182 H   0  0  0  0  0  0  0  0  0  0  0  0
  -13.6847   10.4832   32.4761 C   0  0  0  0  0  0  0  0  0  0  0  0
  -12.8874    9.2024   32.2261 C   0  0  0  0  0  0  0  0  0  0  0  0
  -12.6015    8.3618   33.2299 N   0  0  0  0  0  0  0  0  0  0  0  0
  -12.4869    8.9119   31.0895 O   0  0  0  0  0  0  0  0  0  0  0  0
  -12.9057    8.5649   34.1439 H   0  0  0  0  0  0  0  0  0  0  0  0
  -12.0872    7.5411   33.0533 H   0  0  0  0  0  0  0  0  0  0  0  0
  -15.1703   10.1990   32.2477 C   0  0  0  0  0  0  0  0  0  0  0  0
  -15.8839   11.3178   31.4868 C   0  0  0  0  0  0  0  0  0  0  0  0
  -16.6078   12.3008   32.4083 C   0  0  0  0  0  0  0  0  0  0  0  0
  -16.9647   13.5609   31.7383 N   0  0  0  0  0  0  0  0  0  0  0  0
  -17.8917   13.6719   31.4258 H   0  0  0  0  0  0  0  0  0  0  0  0
  -16.1047   14.5672   31.5272 C   0  0  0  0  0  0  0  0  0  0  0  0
  -15.7937   14.9609   30.2841 N   0  0  0  0  0  0  0  0  0  0  0  0
  -15.4960   15.2492   32.5058 N   0  0  0  0  0  0  0  0  0  0  0  0
  -16.1993   14.5096   29.5089 H   0  0  0  0  0  0  0  0  0  0  0  0
  -15.6713   15.0211   33.4474 H   0  0  0  0  0  0  0  0  0  0  0  0
  -14.8733   15.9787   32.2837 H   0  0  0  0  0  0  0  0  0  0  0  0
  -12.6253   12.9961   29.5085 C   0  0  0  0  0  0  0  0  0  0  0  0
  -12.1604   13.8574   28.3326 C   0  0  0  0  0  0  0  0  0  0  0  0
  -13.0930   15.0369   28.0439 C   0  0  0  0  0  0  0  0  0  0  0  0
  -12.6719   16.2739   28.2343 N   0  0  0  0  0  0  0  0  0  0  0  0
  -14.2344   14.8339   27.6331 O   0  0  0  0  0  0  0  0  0  0  0  0
  -11.7586   16.4378   28.5631 H   0  0  0  0  0  0  0  0  0  0  0  0
  -13.2714   17.0322   28.0476 H   0  0  0  0  0  0  0  0  0  0  0  0
 15 16  1  0  0  0
 16 17  1  0  0  0
 16 18  2  0  0  0
 14 20  1  0  0  0
 14 11  1  0  0  0
 14 17  1  0  0  0
 20 21  1  0  0  0
 21 22  1  0  0  0
 21 26  1  0  0  0
 22 23  1  0  0  0
 23 24  1  0  0  0
 24 25  1  0  0  0
 25 26  1  0  0  0
 11 10  1  0  0  0
 11 12  1  0  0  0
 10  6  1  0  0  0
  6  7  1  0  0  0
  6  2  1  0  0  0
  7  8  1  0  0  0
  7  9  1  0  0  0
  2  3  1  0  0  0
  2  4  2  0  0  0
  1 48  1  0  0  0
  1 27  1  0  0  0
  1  3  1  0  0  0
 48 49  1  0  0  0
 49 50  1  0  0  0
 50 51  1  0  0  0
 50 52  2  0  0  0
 27 28  1  0  0  0
 27 29  2  0  0  0
 31 32  1  0  0  0
 31 37  1  0  0  0
 31 28  1  0  0  0
 32 33  1  0  0  0
 32 34  2  0  0  0
 37 38  1  0  0  0
 38 39  1  0  0  0
 39 40  1  0  0  0
 42 40  1  0  0  0
 42 43  2  0  0  0
 42 44  1  0  0  0
 17 19  1  0  0  0
  3  5  1  0  0  0
 51 53  1  0  0  0
 51 54  1  0  0  0
 28 30  1  0  0  0
 33 35  1  0  0  0
 33 36  1  0  0  0
 40 41  1  0  0  0
 43 45  1  0  0  0
 44 46  1  0  0  0
 44 47  1  0  0  0
 12 13  1  0  0  0
M  END
> <minimizedAffinity>
-8.41694

$$$$
1GNO_U0E_B_100


 54 54  0  0  0  0  0  0  0  0999 V2000
  -12.5171   14.2797   31.0734 C   0  0  0  0  0  0  0  0  0  0  0  0
  -10.3843   15.4468   30.7624 C   0  0  0  0  0  0  0  0  0  0  0  0
  -11.0515   14.3301   30.9769 N   0  0  0  0  0  0  0  0  0  0  0  0
  -10.8963   16.5622   30.5967 O   0  0  0  0  0  0  0  0  0  0  0  0
  -10.5450   13.4918   31.0769 H   0  0  0  0  0  0  0  0  0  0  0  0
   -8.8689   15.2661   30.7237 C   0  0  0  0  0  0  0  0  0  0  0  0
   -8.2754   15.7707   32.0388 C   0  0  0  0  0  0  0  0  0  0  0  0
   -8.7059   17.1981   32.3767 C   0  0  0  0  0  0  0  0  0  0  0  0
   -8.6817   14.9180   33.2435 C   0  0  0  0  0  0  0  0  0  0  0  0
   -8.2892   16.0461   29.5432 C   0  0  0  0  0  0  0  0  0  0  0  0
   -8.6457   15.7073   28.1016 C   0  0  0  0  0  0  0  0  0  0  0  0
   -8.0951   14.4281   27.8275 O   0  0  0  0  0  0  0  0  0  0  0  0
   -7.1301   14.4654   27.9178 H   0  0  0  0  0  0  0  0  0  0  0  0
   -8.1634   16.7275   27.0589 C   0  0  0  0  0  0  0  0  0  0  0  0
   -4.9151   18.5127   27.8764 C   0  0  0  0  0  0  0  0  0  0  0  0
   -6.4163   18.3342   27.6443 C   0  0  0  0  0  0  0  0  0  0  0  0
   -6.7671   17.1112   27.2991 N   0  0  0  0  0  0  0  0  0  0  0  0
   -7.2016   19.2852   27.7679 O   0  0  0  0  0  0  0  0  0  0  0  0
   -6.0650   16.4285   27.1984 H   0  0  0  0  0  0  0  0  0  0  0  0
   -8.3518   15.9465   25.7684 C   0  0  0  0  0  0  0  0  0  0  0  0
   -8.5091   16.6934   24.4253 C   0  0  0  0  0  0  0  0  0  0  0  0
   -7.1711   17.3089   24.0057 C   0  0  0  0  0  0  0  0  0  0  0  0
   -7.3371   18.0704   22.6927 C   0  0  0  0  0  0  0  0  0  0  0  0
   -7.8477   17.1431   21.5862 C   0  0  0  0  0  0  0  0  0  0  0  0
   -9.1768   16.4933   21.9903 C   0  0  0  0  0  0  0  0  0  0  0  0
   -9.0334   15.7524   23.3249 C   0  0  0  0  0  0  0  0  0  0  0  0
  -12.9166   13.8213   32.4756 C   0  0  0  0  0  0  0  0  0  0  0  0
  -13.2283   12.5436   32.5572 N   0  0  0  0  0  0  0  0  0  0  0  0
  -12.9351   14.6187   33.4251 O   0  0  0  0  0  0  0  0  0  0  0  0
  -13.1798   11.9937   31.7420 H   0  0  0  0  0  0  0  0  0  0  0  0
  -13.6455   11.9042   33.8136 C   0  0  0  0  0  0  0  0  0  0  0  0
  -12.8162   10.6432   34.0602 C   0  0  0  0  0  0  0  0  0  0  0  0
  -12.7519    9.6701   33.1409 N   0  0  0  0  0  0  0  0  0  0  0  0
  -12.1844   10.4915   35.1158 O   0  0  0  0  0  0  0  0  0  0  0  0
  -13.2427    9.7614   32.2923 H   0  0  0  0  0  0  0  0  0  0  0  0
  -12.2138    8.8641   33.3141 H   0  0  0  0  0  0  0  0  0  0  0  0
  -15.1248   11.5223   33.7393 C   0  0  0  0  0  0  0  0  0  0  0  0
  -15.6360   11.3833   32.3042 C   0  0  0  0  0  0  0  0  0  0  0  0
  -16.7939   12.3309   31.9871 C   0  0  0  0  0  0  0  0  0  0  0  0
  -16.5186   13.7241   32.3713 N   0  0  0  0  0  0  0  0  0  0  0  0
  -16.4302   13.9303   33.3299 H   0  0  0  0  0  0  0  0  0  0  0  0
  -16.3809   14.7297   31.4958 C   0  0  0  0  0  0  0  0  0  0  0  0
  -16.2281   15.9940   31.9145 N   0  0  0  0  0  0  0  0  0  0  0  0
  -16.3840   14.5703   30.1662 N   0  0  0  0  0  0  0  0  0  0  0  0
  -16.2151   16.1953   32.8781 H   0  0  0  0  0  0  0  0  0  0  0  0
  -16.4915   13.6717   29.7785 H   0  0  0  0  0  0  0  0  0  0  0  0
  -16.2789   15.3515   29.5765 H   0  0  0  0  0  0  0  0  0  0  0  0
  -13.0844   13.3020   30.0410 C   0  0  0  0  0  0  0  0  0  0  0  0
  -12.6990   13.6561   28.6034 C   0  0  0  0  0  0  0  0  0  0  0  0
  -13.3619   14.9417   28.1012 C   0  0  0  0  0  0  0  0  0  0  0  0
  -12.6932   16.0802   28.1191 N   0  0  0  0  0  0  0  0  0  0  0  0
  -14.5170   14.9154   27.6794 O   0  0  0  0  0  0  0  0  0  0  0  0
  -11.7686   16.1027   28.4564 H   0  0  0  0  0  0  0  0  0  0  0  0
  -13.1192   16.9065   27.7950 H   0  0  0  0  0  0  0  0  0  0  0  0
 15 16  1  0  0  0
 16 17  1  0  0  0
 16 18  2  0  0  0
 14 20  1  0  0  0
 14 11  1  0  0  0
 14 17  1  0  0  0
 20 21  1  0  0  0
 21 22  1  0  0  0
 21 26  1  0  0  0
 22 23  1  0  0  0
 23 24  1  0  0  0
 24 25  1  0  0  0
 25 26  1  0  0  0
 11 10  1  0  0  0
 11 12  1  0  0  0
 10  6  1  0  0  0
  6  7  1  0  0  0
  6  2  1  0  0  0
  7  8  1  0  0  0
  7  9  1  0  0  0
  2  3  1  0  0  0
  2  4  2  0  0  0
  1 48  1  0  0  0
  1 27  1  0  0  0
  1  3  1  0  0  0
 48 49  1  0  0  0
 49 50  1  0  0  0
 50 51  1  0  0  0
 50 52  2  0  0  0
 27 28  1  0  0  0
 27 29  2  0  0  0
 31 32  1  0  0  0
 31 37  1  0  0  0
 31 28  1  0  0  0
 32 33  1  0  0  0
 32 34  2  0  0  0
 37 38  1  0  0  0
 38 39  1  0  0  0
 39 40  1  0  0  0
 42 40  1  0  0  0
 42 43  2  0  0  0
 42 44  1  0  0  0
 17 19  1  0  0  0
  3  5  1  0  0  0
 51 53  1  0  0  0
 51 54  1  0  0  0
 28 30  1  0  0  0
 33 35  1  0  0  0
 33 36  1  0  0  0
 40 41  1  0  0  0
 43 45  1  0  0  0
 44 46  1  0  0  0
 44 47  1  0  0  0
 12 13  1  0  0  0
M  END
> <minimizedAffinity>
-8.38036

$$$$
1GNO_U0E_B_100


 54 54  0  0  0  0  0  0  0  0999 V2000
   -7.6017   16.9227   23.9712 C   0  0  0  0  0  0  0  0  0  0  0  0
   -7.5198   16.9203   26.4209 C   0  0  0  0  0  0  0  0  0  0  0  0
   -7.5931   17.5835   25.2838 N   0  0  0  0  0  0  0  0  0  0  0  0
   -7.4729   15.6870   26.5248 O   0  0  0  0  0  0  0  0  0  0  0  0
   -7.6446   18.5662   25.3155 H   0  0  0  0  0  0  0  0  0  0  0  0
   -7.5015   17.8127   27.6593 C   0  0  0  0  0  0  0  0  0  0  0  0
   -6.0876   18.3590   27.8564 C   0  0  0  0  0  0  0  0  0  0  0  0
   -5.0238   17.5289   27.1382 C   0  0  0  0  0  0  0  0  0  0  0  0
   -5.9218   19.7885   27.3344 C   0  0  0  0  0  0  0  0  0  0  0  0
   -7.9351   17.0028   28.8817 C   0  0  0  0  0  0  0  0  0  0  0  0
   -9.2233   17.3091   29.6347 C   0  0  0  0  0  0  0  0  0  0  0  0
   -8.8592   18.0199   30.8081 O   0  0  0  0  0  0  0  0  0  0  0  0
   -8.2908   17.4614   31.3612 H   0  0  0  0  0  0  0  0  0  0  0  0
  -10.0676   16.0785   29.9998 C   0  0  0  0  0  0  0  0  0  0  0  0
  -10.7362   15.9803   33.7348 C   0  0  0  0  0  0  0  0  0  0  0  0
  -10.0032   15.7219   32.4175 C   0  0  0  0  0  0  0  0  0  0  0  0
  -10.6205   16.1978   31.3543 N   0  0  0  0  0  0  0  0  0  0  0  0
   -8.9293   15.1034   32.3921 O   0  0  0  0  0  0  0  0  0  0  0  0
  -11.4863   16.6510   31.4734 H   0  0  0  0  0  0  0  0  0  0  0  0
  -11.1338   16.1166   28.9169 C   0  0  0  0  0  0  0  0  0  0  0  0
  -12.0258   14.8813   28.6624 C   0  0  0  0  0  0  0  0  0  0  0  0
  -13.3570   15.3128   28.0403 C   0  0  0  0  0  0  0  0  0  0  0  0
  -14.2472   14.0925   27.8169 C   0  0  0  0  0  0  0  0  0  0  0  0
  -13.5571   13.0749   26.9040 C   0  0  0  0  0  0  0  0  0  0  0  0
  -12.2083   12.6427   27.4917 C   0  0  0  0  0  0  0  0  0  0  0  0
  -11.3158   13.8618   27.7526 C   0  0  0  0  0  0  0  0  0  0  0  0
   -6.8109   17.7683   22.9736 C   0  0  0  0  0  0  0  0  0  0  0  0
   -5.8482   17.1144   22.3556 N   0  0  0  0  0  0  0  0  0  0  0  0
   -7.0844   18.9648   22.7955 O   0  0  0  0  0  0  0  0  0  0  0  0
   -5.7135   16.1626   22.5680 H   0  0  0  0  0  0  0  0  0  0  0  0
   -4.9668   17.7455   21.3625 C   0  0  0  0  0  0  0  0  0  0  0  0
   -5.2359   17.1597   19.9758 C   0  0  0  0  0  0  0  0  0  0  0  0
   -6.0951   17.7498   19.1334 N   0  0  0  0  0  0  0  0  0  0  0  0
   -4.6659   16.1256   19.5986 O   0  0  0  0  0  0  0  0  0  0  0  0
   -6.5634   18.5725   19.4042 H   0  0  0  0  0  0  0  0  0  0  0  0
   -6.2581   17.3607   18.2439 H   0  0  0  0  0  0  0  0  0  0  0  0
   -3.5030   17.5002   21.7326 C   0  0  0  0  0  0  0  0  0  0  0  0
   -2.7622   18.7794   22.1260 C   0  0  0  0  0  0  0  0  0  0  0  0
   -2.7503   19.0237   23.6358 C   0  0  0  0  0  0  0  0  0  0  0  0
   -4.0531   19.4648   24.1573 N   0  0  0  0  0  0  0  0  0  0  0  0
   -4.6672   18.7793   24.5070 H   0  0  0  0  0  0  0  0  0  0  0  0
   -4.4553   20.7433   24.1855 C   0  0  0  0  0  0  0  0  0  0  0  0
   -3.6092   21.7263   24.5244 N   0  0  0  0  0  0  0  0  0  0  0  0
   -5.6982   21.1436   23.8886 N   0  0  0  0  0  0  0  0  0  0  0  0
   -2.6763   21.5145   24.7569 H   0  0  0  0  0  0  0  0  0  0  0  0
   -6.3798   20.4820   23.6297 H   0  0  0  0  0  0  0  0  0  0  0  0
   -5.9304   22.0994   23.9291 H   0  0  0  0  0  0  0  0  0  0  0  0
   -9.0382   16.7587   23.4682 C   0  0  0  0  0  0  0  0  0  0  0  0
   -9.1351   15.9251   22.1890 C   0  0  0  0  0  0  0  0  0  0  0  0
   -9.6787   16.7145   20.9950 C   0  0  0  0  0  0  0  0  0  0  0  0
  -10.8408   16.3868   20.4604 N   0  0  0  0  0  0  0  0  0  0  0  0
   -9.0348   17.6553   20.5335 O   0  0  0  0  0  0  0  0  0  0  0  0
  -11.3573   15.6339   20.8288 H   0  0  0  0  0  0  0  0  0  0  0  0
  -11.1907   16.8952   19.6934 H   0  0  0  0  0  0  0  0  0  0  0  0
 15 16  1  0  0  0
 16 17  1  0  0  0
 16 18  2  0  0  0
 14 20  1  0  0  0
 14 11  1  0  0  0
 14 17  1  0  0  0
 20 21  1  0  0  0
 21 22  1  0  0  0
 21 26  1  0  0  0
 22 23  1  0  0  0
 23 24  1  0  0  0
 24 25  1  0  0  0
 25 26  1  0  0  0
 11 10  1  0  0  0
 11 12  1  0  0  0
 10  6  1  0  0  0
  6  7  1  0  0  0
  6  2  1  0  0  0
  7  8  1  0  0  0
  7  9  1  0  0  0
  2  3  1  0  0  0
  2  4  2  0  0  0
  1 48  1  0  0  0
  1 27  1  0  0  0
  1  3  1  0  0  0
 48 49  1  0  0  0
 49 50  1  0  0  0
 50 51  1  0  0  0
 50 52  2  0  0  0
 27 28  1  0  0  0
 27 29  2  0  0  0
 31 32  1  0  0  0
 31 37  1  0  0  0
 31 28  1  0  0  0
 32 33  1  0  0  0
 32 34  2  0  0  0
 37 38  1  0  0  0
 38 39  1  0  0  0
 39 40  1  0  0  0
 42 40  1  0  0  0
 42 43  2  0  0  0
 42 44  1  0  0  0
 17 19  1  0  0  0
  3  5  1  0  0  0
 51 53  1  0  0  0
 51 54  1  0  0  0
 28 30  1  0  0  0
 33 35  1  0  0  0
 33 36  1  0  0  0
 40 41  1  0  0  0
 43 45  1  0  0  0
 44 46  1  0  0  0
 44 47  1  0  0  0
 12 13  1  0  0  0
M  END
> <minimizedAffinity>
-8.35852

$$$$
