1ZPA_A83_A_200


 54 57  0  0  0  0  0  0  0  0999 V2000
  -10.5068   15.1391   27.9830 C   0  0  0  0  0  0  0  0  0  0  0  0
   -9.1271   16.3954   31.1284 C   0  0  0  0  0  0  0  0  0  0  0  0
   -9.6168   15.3334   30.4068 C   0  0  0  0  0  0  0  0  0  0  0  0
   -9.9584   15.8037   29.1758 N   0  0  0  0  0  0  0  0  0  0  0  0
   -9.6445   17.1371   29.1742 N   0  0  0  0  0  0  0  0  0  0  0  0
   -9.1555   17.4918   30.3143 N   0  0  0  0  0  0  0  0  0  0  0  0
   -8.6401   16.3317   32.5652 C   0  0  0  0  0  0  0  0  0  0  0  0
  -10.4877   15.5676   34.0557 C   0  0  0  0  0  0  0  0  0  0  0  0
  -10.8139   16.7050   34.3542 O   0  0  0  0  0  0  0  0  0  0  0  0
   -9.4190   15.3283   33.2904 N   0  0  0  0  0  0  0  0  0  0  0  0
   -9.1294   14.3911   33.2069 H   0  0  0  0  0  0  0  0  0  0  0  0
  -11.2961   14.4734   34.5651 C   0  0  0  0  0  0  0  0  0  0  0  0
  -11.0806   14.0062   35.8616 C   0  0  0  0  0  0  0  0  0  0  0  0
  -11.8520   12.9573   36.3505 C   0  0  0  0  0  0  0  0  0  0  0  0
  -12.8290   12.3780   35.5557 C   0  0  0  0  0  0  0  0  0  0  0  0
  -13.0409   12.8467   34.2605 C   0  0  0  0  0  0  0  0  0  0  0  0
  -12.2802   13.9075   33.7755 C   0  0  0  0  0  0  0  0  0  0  0  0
  -13.6829   11.2398   36.0634 C   0  0  0  0  0  0  0  0  0  0  0  0
  -12.8393   10.1771   36.6318 N   0  0  0  0  0  0  0  0  0  0  0  0
  -12.4422    9.1480   35.8440 C   0  0  0  0  0  0  0  0  0  0  0  0
  -11.2605    8.8751   35.7685 O   0  0  0  0  0  0  0  0  0  0  0  0
  -12.5653   10.2131   37.5767 H   0  0  0  0  0  0  0  0  0  0  0  0
  -13.3369    8.4387   35.1539 O   0  0  0  0  0  0  0  0  0  0  0  0
  -13.6438    8.4117   33.7630 C   0  0  0  0  0  0  0  0  0  0  0  0
  -15.1564    8.8526   33.6933 C   0  0  0  0  0  0  0  0  0  0  0  0
  -12.7616    9.4248   32.9975 C   0  0  0  0  0  0  0  0  0  0  0  0
  -13.4862    6.9724   33.2145 C   0  0  0  0  0  0  0  0  0  0  0  0
   -9.9570   15.7817   26.6566 C   0  0  0  0  0  0  0  0  0  0  0  0
  -10.9312   15.8606   25.6332 O   0  0  0  0  0  0  0  0  0  0  0  0
  -11.1887   14.9655   25.3622 H   0  0  0  0  0  0  0  0  0  0  0  0
   -8.7269   15.0280   26.0576 C   0  0  0  0  0  0  0  0  0  0  0  0
   -7.7677   15.9470   25.4922 N   0  0  0  0  0  0  0  0  0  0  0  0
   -6.7565   16.8923   26.5398 S   0  0  0  0  0  0  0  0  0  0  0  0
   -6.2606   16.0636   27.6129 O   0  0  0  0  0  0  0  0  0  0  0  0
   -7.4640   17.9909   27.1316 O   0  0  0  0  0  0  0  0  0  0  0  0
   -5.3867   17.5173   25.6767 C   0  0  0  0  0  0  0  0  0  0  0  0
   -4.2533   16.7330   25.5105 C   0  0  0  0  0  0  0  0  0  0  0  0
   -3.1430   17.2354   24.8140 C   0  0  0  0  0  0  0  0  0  0  0  0
   -3.1964   18.5255   24.3229 C   0  0  0  0  0  0  0  0  0  0  0  0
   -4.3401   19.3067   24.4674 C   0  0  0  0  0  0  0  0  0  0  0  0
   -5.4353   18.7989   25.1442 C   0  0  0  0  0  0  0  0  0  0  0  0
   -2.1534   19.0193   23.6388 O   0  0  0  0  0  0  0  0  0  0  0  0
   -1.3338   20.0899   24.0536 C   0  0  0  0  0  0  0  0  0  0  0  0
   -7.4971   15.9026   24.0728 C   0  0  0  0  0  0  0  0  0  0  0  0
   -8.3715   16.8351   23.1935 C   0  0  0  0  0  0  0  0  0  0  0  0
   -7.5434   17.7525   22.2679 C   0  0  0  0  0  0  0  0  0  0  0  0
   -9.5121   16.0958   22.4454 C   0  0  0  0  0  0  0  0  0  0  0  0
  -12.0584   15.1090   28.1396 C   0  0  0  0  0  0  0  0  0  0  0  0
  -12.7129   13.9430   28.8330 C   0  0  0  0  0  0  0  0  0  0  0  0
  -12.0367   12.7200   28.9359 C   0  0  0  0  0  0  0  0  0  0  0  0
  -12.6274   11.6338   29.5657 C   0  0  0  0  0  0  0  0  0  0  0  0
  -13.8977   11.7606   30.1196 C   0  0  0  0  0  0  0  0  0  0  0  0
  -14.5766   12.9713   30.0282 C   0  0  0  0  0  0  0  0  0  0  0  0
  -13.9952   14.0484   29.3700 C   0  0  0  0  0  0  0  0  0  0  0  0
  8  9  2  0  0  0
  8 10  1  0  0  0
  8 12  1  0  0  0
 10  7  1  0  0  0
  7  2  1  0  0  0
  2  3  2  0  0  0
  2  6  1  0  0  0
  3  4  1  0  0  0
  4  5  1  0  0  0
  4  1  1  0  0  0
  5  6  2  0  0  0
  1 28  1  0  0  0
  1 48  1  0  0  0
 28 31  1  0  0  0
 28 29  1  0  0  0
 31 32  1  0  0  0
 32 44  1  0  0  0
 32 33  1  0  0  0
 44 45  1  0  0  0
 45 46  1  0  0  0
 45 47  1  0  0  0
 33 34  2  0  0  0
 33 35  2  0  0  0
 33 36  1  0  0  0
 36 37  2  0  0  0
 36 41  1  0  0  0
 37 38  1  0  0  0
 38 39  2  0  0  0
 39 40  1  0  0  0
 39 42  1  0  0  0
 40 41  2  0  0  0
 42 43  1  0  0  0
 48 49  1  0  0  0
 49 50  2  0  0  0
 49 54  1  0  0  0
 50 51  1  0  0  0
 51 52  2  0  0  0
 52 53  1  0  0  0
 53 54  2  0  0  0
 12 13  2  0  0  0
 12 17  1  0  0  0
 13 14  1  0  0  0
 14 15  2  0  0  0
 15 16  1  0  0  0
 15 18  1  0  0  0
 16 17  2  0  0  0
 18 19  1  0  0  0
 19 20  1  0  0  0
 20 21  2  0  0  0
 20 23  1  0  0  0
 23 24  1  0  0  0
 24 25  1  0  0  0
 24 26  1  0  0  0
 24 27  1  0  0  0
 10 11  1  0  0  0
 29 30  1  0  0  0
 19 22  1  0  0  0
M  END
> <minimizedAffinity>
-9.24693

$$$$
1ZPA_A83_A_200


 54 57  0  0  0  0  0  0  0  0999 V2000
  -10.4929   15.1932   27.7127 C   0  0  0  0  0  0  0  0  0  0  0  0
   -9.1578   16.5163   30.8499 C   0  0  0  0  0  0  0  0  0  0  0  0
   -9.5369   15.4235   30.1081 C   0  0  0  0  0  0  0  0  0  0  0  0
   -9.9857   15.8847   28.9084 N   0  0  0  0  0  0  0  0  0  0  0  0
   -9.8450   17.2469   28.9444 N   0  0  0  0  0  0  0  0  0  0  0  0
   -9.3592   17.6252   30.0783 N   0  0  0  0  0  0  0  0  0  0  0  0
   -8.6085   16.4704   32.2648 C   0  0  0  0  0  0  0  0  0  0  0  0
  -10.3245   15.5710   33.8349 C   0  0  0  0  0  0  0  0  0  0  0  0
  -10.6976   16.6814   34.1769 O   0  0  0  0  0  0  0  0  0  0  0  0
   -9.2880   15.4093   33.0076 N   0  0  0  0  0  0  0  0  0  0  0  0
   -8.9508   14.4923   32.8869 H   0  0  0  0  0  0  0  0  0  0  0  0
  -11.0402   14.4219   34.3619 C   0  0  0  0  0  0  0  0  0  0  0  0
  -12.2138   13.9988   33.7380 C   0  0  0  0  0  0  0  0  0  0  0  0
  -12.9017   12.9002   34.2421 C   0  0  0  0  0  0  0  0  0  0  0  0
  -12.4261   12.2290   35.3580 C   0  0  0  0  0  0  0  0  0  0  0  0
  -11.2538   12.6551   35.9793 C   0  0  0  0  0  0  0  0  0  0  0  0
  -10.5553   13.7450   35.4659 C   0  0  0  0  0  0  0  0  0  0  0  0
  -13.1521   11.0310   35.9238 C   0  0  0  0  0  0  0  0  0  0  0  0
  -12.5969   10.6652   37.2361 N   0  0  0  0  0  0  0  0  0  0  0  0
  -13.2635   11.0156   38.3632 C   0  0  0  0  0  0  0  0  0  0  0  0
  -13.5320   10.1640   39.1873 O   0  0  0  0  0  0  0  0  0  0  0  0
  -11.7481   10.1700   37.2952 H   0  0  0  0  0  0  0  0  0  0  0  0
  -13.6256   12.2829   38.5699 O   0  0  0  0  0  0  0  0  0  0  0  0
  -14.9046   12.8709   38.7889 C   0  0  0  0  0  0  0  0  0  0  0  0
  -14.6326   14.4228   38.7181 C   0  0  0  0  0  0  0  0  0  0  0  0
  -15.8871   12.4544   37.6702 C   0  0  0  0  0  0  0  0  0  0  0  0
  -15.4283   12.4889   40.1950 C   0  0  0  0  0  0  0  0  0  0  0  0
   -9.9131   15.8189   26.3911 C   0  0  0  0  0  0  0  0  0  0  0  0
  -10.8736   15.9184   25.3566 O   0  0  0  0  0  0  0  0  0  0  0  0
  -11.1495   15.0291   25.0849 H   0  0  0  0  0  0  0  0  0  0  0  0
   -8.6949   15.0342   25.8076 C   0  0  0  0  0  0  0  0  0  0  0  0
   -7.6746   15.9302   25.3170 N   0  0  0  0  0  0  0  0  0  0  0  0
   -6.6430   16.7611   26.4391 S   0  0  0  0  0  0  0  0  0  0  0  0
   -6.1135   15.8214   27.3987 O   0  0  0  0  0  0  0  0  0  0  0  0
   -7.3426   17.7786   27.1692 O   0  0  0  0  0  0  0  0  0  0  0  0
   -5.3008   17.4932   25.6182 C   0  0  0  0  0  0  0  0  0  0  0  0
   -5.3950   18.8008   25.1616 C   0  0  0  0  0  0  0  0  0  0  0  0
   -4.3119   19.3961   24.4961 C   0  0  0  0  0  0  0  0  0  0  0  0
   -3.1692   18.6481   24.2880 C   0  0  0  0  0  0  0  0  0  0  0  0
   -3.0626   17.3441   24.7650 C   0  0  0  0  0  0  0  0  0  0  0  0
   -4.1304   16.7693   25.4316 C   0  0  0  0  0  0  0  0  0  0  0  0
   -2.1157   19.2030   23.6701 O   0  0  0  0  0  0  0  0  0  0  0  0
   -1.6677   20.5292   23.8450 C   0  0  0  0  0  0  0  0  0  0  0  0
   -7.3700   15.9495   23.9040 C   0  0  0  0  0  0  0  0  0  0  0  0
   -8.2355   16.9078   23.0439 C   0  0  0  0  0  0  0  0  0  0  0  0
   -7.3982   17.8970   22.2046 C   0  0  0  0  0  0  0  0  0  0  0  0
   -9.3258   16.1834   22.2110 C   0  0  0  0  0  0  0  0  0  0  0  0
  -12.0479   15.1479   27.8264 C   0  0  0  0  0  0  0  0  0  0  0  0
  -12.7056   14.0203   28.5776 C   0  0  0  0  0  0  0  0  0  0  0  0
  -12.0951   12.7599   28.6244 C   0  0  0  0  0  0  0  0  0  0  0  0
  -12.6903   11.7084   29.3065 C   0  0  0  0  0  0  0  0  0  0  0  0
  -13.8979   11.9073   29.9690 C   0  0  0  0  0  0  0  0  0  0  0  0
  -14.5108   13.1555   29.9339 C   0  0  0  0  0  0  0  0  0  0  0  0
  -13.9278   14.1986   29.2243 C   0  0  0  0  0  0  0  0  0  0  0  0
  8  9  2  0  0  0
  8 10  1  0  0  0
  8 12  1  0  0  0
 10  7  1  0  0  0
  7  2  1  0  0  0
  2  3  2  0  0  0
  2  6  1  0  0  0
  3  4  1  0  0  0
  4  5  1  0  0  0
  4  1  1  0  0  0
  5  6  2  0  0  0
  1 28  1  0  0  0
  1 48  1  0  0  0
 28 31  1  0  0  0
 28 29  1  0  0  0
 31 32  1  0  0  0
 32 44  1  0  0  0
 32 33  1  0  0  0
 44 45  1  0  0  0
 45 46  1  0  0  0
 45 47  1  0  0  0
 33 34  2  0  0  0
 33 35  2  0  0  0
 33 36  1  0  0  0
 36 37  2  0  0  0
 36 41  1  0  0  0
 37 38  1  0  0  0
 38 39  2  0  0  0
 39 40  1  0  0  0
 39 42  1  0  0  0
 40 41  2  0  0  0
 42 43  1  0  0  0
 48 49  1  0  0  0
 49 50  2  0  0  0
 49 54  1  0  0  0
 50 51  1  0  0  0
 51 52  2  0  0  0
 52 53  1  0  0  0
 53 54  2  0  0  0
 12 13  2  0  0  0
 12 17  1  0  0  0
 13 14  1  0  0  0
 14 15  2  0  0  0
 15 16  1  0  0  0
 15 18  1  0  0  0
 16 17  2  0  0  0
 18 19  1  0  0  0
 19 20  1  0  0  0
 20 21  2  0  0  0
 20 23  1  0  0  0
 23 24  1  0  0  0
 24 25  1  0  0  0
 24 26  1  0  0  0
 24 27  1  0  0  0
 10 11  1  0  0  0
 29 30  1  0  0  0
 19 22  1  0  0  0
M  END
> <minimizedAffinity>
-8.78871

$$$$
1ZPA_A83_A_200


 54 57  0  0  0  0  0  0  0  0999 V2000
  -13.2300   10.0505   35.5803 C   0  0  0  0  0  0  0  0  0  0  0  0
  -11.4389   13.1977   36.0927 C   0  0  0  0  0  0  0  0  0  0  0  0
  -11.4414   11.9229   35.5796 C   0  0  0  0  0  0  0  0  0  0  0  0
  -12.6466   11.3670   35.8829 N   0  0  0  0  0  0  0  0  0  0  0  0
  -13.3548   12.3292   36.5532 N   0  0  0  0  0  0  0  0  0  0  0  0
  -12.6547   13.4056   36.6793 N   0  0  0  0  0  0  0  0  0  0  0  0
  -10.2842   14.1795   36.0013 C   0  0  0  0  0  0  0  0  0  0  0  0
  -10.5449   15.5920   33.9626 C   0  0  0  0  0  0  0  0  0  0  0  0
  -11.3847   16.3104   34.4802 O   0  0  0  0  0  0  0  0  0  0  0  0
  -10.0576   14.5221   34.5975 N   0  0  0  0  0  0  0  0  0  0  0  0
   -9.4947   13.9084   34.0725 H   0  0  0  0  0  0  0  0  0  0  0  0
  -10.0918   15.9317   32.6249 C   0  0  0  0  0  0  0  0  0  0  0  0
   -8.8669   16.5778   32.4582 C   0  0  0  0  0  0  0  0  0  0  0  0
   -8.4323   16.9060   31.1785 C   0  0  0  0  0  0  0  0  0  0  0  0
   -9.2104   16.5944   30.0742 C   0  0  0  0  0  0  0  0  0  0  0  0
  -10.4341   15.9498   30.2445 C   0  0  0  0  0  0  0  0  0  0  0  0
  -10.8629   15.6062   31.5241 C   0  0  0  0  0  0  0  0  0  0  0  0
   -8.7602   16.9365   28.6733 C   0  0  0  0  0  0  0  0  0  0  0  0
   -7.9137   15.8639   28.1282 N   0  0  0  0  0  0  0  0  0  0  0  0
   -6.9860   16.1606   27.1854 C   0  0  0  0  0  0  0  0  0  0  0  0
   -5.8310   15.8248   27.3577 O   0  0  0  0  0  0  0  0  0  0  0  0
   -8.0202   14.9381   28.4455 H   0  0  0  0  0  0  0  0  0  0  0  0
   -7.3325   16.8172   26.0770 O   0  0  0  0  0  0  0  0  0  0  0  0
   -7.9228   16.3638   24.8622 C   0  0  0  0  0  0  0  0  0  0  0  0
   -9.2602   17.1923   24.7508 C   0  0  0  0  0  0  0  0  0  0  0  0
   -7.0006   16.6843   23.6633 C   0  0  0  0  0  0  0  0  0  0  0  0
   -8.2433   14.8523   24.9619 C   0  0  0  0  0  0  0  0  0  0  0  0
  -14.4967   10.1759   34.6561 C   0  0  0  0  0  0  0  0  0  0  0  0
  -15.2698    8.9915   34.6108 O   0  0  0  0  0  0  0  0  0  0  0  0
  -14.7534    8.2841   34.1938 H   0  0  0  0  0  0  0  0  0  0  0  0
  -14.1600   10.5570   33.1790 C   0  0  0  0  0  0  0  0  0  0  0  0
  -15.0847   11.5378   32.6621 N   0  0  0  0  0  0  0  0  0  0  0  0
  -14.5529   13.1684   32.3937 S   0  0  0  0  0  0  0  0  0  0  0  0
  -13.6150   13.5485   33.4233 O   0  0  0  0  0  0  0  0  0  0  0  0
  -15.6379   14.1062   32.4278 O   0  0  0  0  0  0  0  0  0  0  0  0
  -13.7467   13.3110   30.8636 C   0  0  0  0  0  0  0  0  0  0  0  0
  -12.6645   12.4926   30.5696 C   0  0  0  0  0  0  0  0  0  0  0  0
  -12.0090   12.6056   29.3335 C   0  0  0  0  0  0  0  0  0  0  0  0
  -12.4483   13.5581   28.4346 C   0  0  0  0  0  0  0  0  0  0  0  0
  -13.5480   14.3648   28.7166 C   0  0  0  0  0  0  0  0  0  0  0  0
  -14.1966   14.2378   29.9324 C   0  0  0  0  0  0  0  0  0  0  0  0
  -11.8478   13.6712   27.2404 O   0  0  0  0  0  0  0  0  0  0  0  0
  -11.4083   14.8770   26.6546 C   0  0  0  0  0  0  0  0  0  0  0  0
  -16.3679   11.1035   32.1576 C   0  0  0  0  0  0  0  0  0  0  0  0
  -16.5341   11.1517   30.6158 C   0  0  0  0  0  0  0  0  0  0  0  0
  -15.5472   10.2298   29.8674 C   0  0  0  0  0  0  0  0  0  0  0  0
  -18.0010   10.9751   30.1420 C   0  0  0  0  0  0  0  0  0  0  0  0
  -13.4411    9.3124   36.9381 C   0  0  0  0  0  0  0  0  0  0  0  0
  -12.4230    8.3039   37.4019 C   0  0  0  0  0  0  0  0  0  0  0  0
  -12.7463    7.4016   38.4241 C   0  0  0  0  0  0  0  0  0  0  0  0
  -11.8183    6.4704   38.8679 C   0  0  0  0  0  0  0  0  0  0  0  0
  -10.5573    6.4151   38.2817 C   0  0  0  0  0  0  0  0  0  0  0  0
  -10.2268    7.3023   37.2626 C   0  0  0  0  0  0  0  0  0  0  0  0
  -11.1475    8.2542   36.8412 C   0  0  0  0  0  0  0  0  0  0  0  0
  8  9  2  0  0  0
  8 10  1  0  0  0
  8 12  1  0  0  0
 10  7  1  0  0  0
  7  2  1  0  0  0
  2  3  2  0  0  0
  2  6  1  0  0  0
  3  4  1  0  0  0
  4  5  1  0  0  0
  4  1  1  0  0  0
  5  6  2  0  0  0
  1 28  1  0  0  0
  1 48  1  0  0  0
 28 31  1  0  0  0
 28 29  1  0  0  0
 31 32  1  0  0  0
 32 44  1  0  0  0
 32 33  1  0  0  0
 44 45  1  0  0  0
 45 46  1  0  0  0
 45 47  1  0  0  0
 33 34  2  0  0  0
 33 35  2  0  0  0
 33 36  1  0  0  0
 36 37  2  0  0  0
 36 41  1  0  0  0
 37 38  1  0  0  0
 38 39  2  0  0  0
 39 40  1  0  0  0
 39 42  1  0  0  0
 40 41  2  0  0  0
 42 43  1  0  0  0
 48 49  1  0  0  0
 49 50  2  0  0  0
 49 54  1  0  0  0
 50 51  1  0  0  0
 51 52  2  0  0  0
 52 53  1  0  0  0
 53 54  2  0  0  0
 12 13  2  0  0  0
 12 17  1  0  0  0
 13 14  1  0  0  0
 14 15  2  0  0  0
 15 16  1  0  0  0
 15 18  1  0  0  0
 16 17  2  0  0  0
 18 19  1  0  0  0
 19 20  1  0  0  0
 20 21  2  0  0  0
 20 23  1  0  0  0
 23 24  1  0  0  0
 24 25  1  0  0  0
 24 26  1  0  0  0
 24 27  1  0  0  0
 10 11  1  0  0  0
 29 30  1  0  0  0
 19 22  1  0  0  0
M  END
> <minimizedAffinity>
-8.74654

$$$$
1ZPA_A83_A_200


 54 57  0  0  0  0  0  0  0  0999 V2000
  -12.5525   13.6741   34.5468 C   0  0  0  0  0  0  0  0  0  0  0  0
   -9.8242   15.8234   33.4011 C   0  0  0  0  0  0  0  0  0  0  0  0
  -10.4423   14.5967   33.3631 C   0  0  0  0  0  0  0  0  0  0  0  0
  -11.5152   14.6581   34.1989 N   0  0  0  0  0  0  0  0  0  0  0  0
  -11.5342   15.9308   34.7054 N   0  0  0  0  0  0  0  0  0  0  0  0
  -10.5473   16.6207   34.2419 N   0  0  0  0  0  0  0  0  0  0  0  0
   -8.5714   16.2004   32.6302 C   0  0  0  0  0  0  0  0  0  0  0  0
   -8.8666   16.6419   30.1936 C   0  0  0  0  0  0  0  0  0  0  0  0
   -9.0308   17.8400   30.3574 O   0  0  0  0  0  0  0  0  0  0  0  0
   -8.7353   15.8094   31.2303 N   0  0  0  0  0  0  0  0  0  0  0  0
   -8.7501   14.8448   31.0341 H   0  0  0  0  0  0  0  0  0  0  0  0
   -8.8242   16.1423   28.8302 C   0  0  0  0  0  0  0  0  0  0  0  0
  -10.0175   15.9213   28.1425 C   0  0  0  0  0  0  0  0  0  0  0  0
   -9.9792   15.4410   26.8379 C   0  0  0  0  0  0  0  0  0  0  0  0
   -8.7638   15.1823   26.2232 C   0  0  0  0  0  0  0  0  0  0  0  0
   -7.5737   15.4033   26.9136 C   0  0  0  0  0  0  0  0  0  0  0  0
   -7.6102   15.8995   28.2143 C   0  0  0  0  0  0  0  0  0  0  0  0
   -8.6941   14.6634   24.8061 C   0  0  0  0  0  0  0  0  0  0  0  0
   -7.5735   15.2861   24.0844 N   0  0  0  0  0  0  0  0  0  0  0  0
   -7.7425   16.5041   23.5138 C   0  0  0  0  0  0  0  0  0  0  0  0
   -6.9623   17.3986   23.7734 O   0  0  0  0  0  0  0  0  0  0  0  0
   -6.7079   14.8221   24.0165 H   0  0  0  0  0  0  0  0  0  0  0  0
   -8.7562   16.7243   22.6749 O   0  0  0  0  0  0  0  0  0  0  0  0
   -9.0573   16.1678   21.3985 C   0  0  0  0  0  0  0  0  0  0  0  0
  -10.5752   15.7535   21.5070 C   0  0  0  0  0  0  0  0  0  0  0  0
   -8.8773   17.2319   20.2914 C   0  0  0  0  0  0  0  0  0  0  0  0
   -8.1832   14.9145   21.1484 C   0  0  0  0  0  0  0  0  0  0  0  0
  -12.3000   13.0421   35.9650 C   0  0  0  0  0  0  0  0  0  0  0  0
  -11.4981   13.8558   36.8001 O   0  0  0  0  0  0  0  0  0  0  0  0
  -10.6078   13.9287   36.4221 H   0  0  0  0  0  0  0  0  0  0  0  0
  -11.6226   11.6355   35.9131 C   0  0  0  0  0  0  0  0  0  0  0  0
  -12.4506   10.6267   36.5307 N   0  0  0  0  0  0  0  0  0  0  0  0
  -12.7286    9.1199   35.7148 S   0  0  0  0  0  0  0  0  0  0  0  0
  -13.4522    8.2233   36.5849 O   0  0  0  0  0  0  0  0  0  0  0  0
  -11.5053    8.4698   35.3427 O   0  0  0  0  0  0  0  0  0  0  0  0
  -13.6848    9.3585   34.2863 C   0  0  0  0  0  0  0  0  0  0  0  0
  -13.1432    9.0946   33.0356 C   0  0  0  0  0  0  0  0  0  0  0  0
  -13.9130    9.2875   31.8778 C   0  0  0  0  0  0  0  0  0  0  0  0
  -15.2028    9.7640   32.0108 C   0  0  0  0  0  0  0  0  0  0  0  0
  -15.7572   10.0076   33.2649 C   0  0  0  0  0  0  0  0  0  0  0  0
  -14.9956    9.8024   34.4020 C   0  0  0  0  0  0  0  0  0  0  0  0
  -15.9622    9.9386   30.9188 O   0  0  0  0  0  0  0  0  0  0  0  0
  -15.4914    9.9688   29.5893 C   0  0  0  0  0  0  0  0  0  0  0  0
  -12.8468   10.7851   37.9118 C   0  0  0  0  0  0  0  0  0  0  0  0
  -11.7037   10.6730   38.9550 C   0  0  0  0  0  0  0  0  0  0  0  0
  -11.6248   11.8875   39.9052 C   0  0  0  0  0  0  0  0  0  0  0  0
  -11.6788    9.3165   39.7077 C   0  0  0  0  0  0  0  0  0  0  0  0
  -12.6594   12.6710   33.3572 C   0  0  0  0  0  0  0  0  0  0  0  0
  -13.5301   13.0093   32.1757 C   0  0  0  0  0  0  0  0  0  0  0  0
  -13.0253   12.8830   30.8747 C   0  0  0  0  0  0  0  0  0  0  0  0
  -13.8116   13.1966   29.7753 C   0  0  0  0  0  0  0  0  0  0  0  0
  -15.1231   13.6236   29.9605 C   0  0  0  0  0  0  0  0  0  0  0  0
  -15.6369   13.7479   31.2473 C   0  0  0  0  0  0  0  0  0  0  0  0
  -14.8373   13.4626   32.3475 C   0  0  0  0  0  0  0  0  0  0  0  0
  8  9  2  0  0  0
  8 10  1  0  0  0
  8 12  1  0  0  0
 10  7  1  0  0  0
  7  2  1  0  0  0
  2  3  2  0  0  0
  2  6  1  0  0  0
  3  4  1  0  0  0
  4  5  1  0  0  0
  4  1  1  0  0  0
  5  6  2  0  0  0
  1 28  1  0  0  0
  1 48  1  0  0  0
 28 31  1  0  0  0
 28 29  1  0  0  0
 31 32  1  0  0  0
 32 44  1  0  0  0
 32 33  1  0  0  0
 44 45  1  0  0  0
 45 46  1  0  0  0
 45 47  1  0  0  0
 33 34  2  0  0  0
 33 35  2  0  0  0
 33 36  1  0  0  0
 36 37  2  0  0  0
 36 41  1  0  0  0
 37 38  1  0  0  0
 38 39  2  0  0  0
 39 40  1  0  0  0
 39 42  1  0  0  0
 40 41  2  0  0  0
 42 43  1  0  0  0
 48 49  1  0  0  0
 49 50  2  0  0  0
 49 54  1  0  0  0
 50 51  1  0  0  0
 51 52  2  0  0  0
 52 53  1  0  0  0
 53 54  2  0  0  0
 12 13  2  0  0  0
 12 17  1  0  0  0
 13 14  1  0  0  0
 14 15  2  0  0  0
 15 16  1  0  0  0
 15 18  1  0  0  0
 16 17  2  0  0  0
 18 19  1  0  0  0
 19 20  1  0  0  0
 20 21  2  0  0  0
 20 23  1  0  0  0
 23 24  1  0  0  0
 24 25  1  0  0  0
 24 26  1  0  0  0
 24 27  1  0  0  0
 10 11  1  0  0  0
 29 30  1  0  0  0
 19 22  1  0  0  0
M  END
> <minimizedAffinity>
-8.74414

$$$$
1ZPA_A83_A_200


 54 57  0  0  0  0  0  0  0  0999 V2000
   -9.4704   15.6606   26.2772 C   0  0  0  0  0  0  0  0  0  0  0  0
   -9.2984   16.6934   29.7813 C   0  0  0  0  0  0  0  0  0  0  0  0
   -8.9208   15.8049   28.8035 C   0  0  0  0  0  0  0  0  0  0  0  0
   -9.5187   16.1991   27.6457 N   0  0  0  0  0  0  0  0  0  0  0  0
  -10.2263   17.3330   27.9464 N   0  0  0  0  0  0  0  0  0  0  0  0
  -10.1015   17.6302   29.1957 N   0  0  0  0  0  0  0  0  0  0  0  0
   -8.8766   16.6280   31.2386 C   0  0  0  0  0  0  0  0  0  0  0  0
   -9.9897   15.5195   33.1754 C   0  0  0  0  0  0  0  0  0  0  0  0
   -9.6153   16.3681   33.9684 O   0  0  0  0  0  0  0  0  0  0  0  0
   -9.6001   15.5409   31.8976 N   0  0  0  0  0  0  0  0  0  0  0  0
   -9.8200   14.7531   31.3497 H   0  0  0  0  0  0  0  0  0  0  0  0
  -10.8720   14.4745   33.6652 C   0  0  0  0  0  0  0  0  0  0  0  0
  -10.4515   13.6564   34.7138 C   0  0  0  0  0  0  0  0  0  0  0  0
  -11.2937   12.6540   35.1828 C   0  0  0  0  0  0  0  0  0  0  0  0
  -12.5435   12.4669   34.6127 C   0  0  0  0  0  0  0  0  0  0  0  0
  -12.9600   13.2855   33.5646 C   0  0  0  0  0  0  0  0  0  0  0  0
  -12.1241   14.3000   33.1048 C   0  0  0  0  0  0  0  0  0  0  0  0
  -13.4790   11.3878   35.1053 C   0  0  0  0  0  0  0  0  0  0  0  0
  -14.7753   11.4760   34.4154 N   0  0  0  0  0  0  0  0  0  0  0  0
  -15.3018   10.3667   33.8412 C   0  0  0  0  0  0  0  0  0  0  0  0
  -16.4345   10.0287   34.1230 O   0  0  0  0  0  0  0  0  0  0  0  0
  -15.2565   12.3337   34.3711 H   0  0  0  0  0  0  0  0  0  0  0  0
  -14.5862    9.6477   32.9748 O   0  0  0  0  0  0  0  0  0  0  0  0
  -14.3138    9.8440   31.5902 C   0  0  0  0  0  0  0  0  0  0  0  0
  -14.5568    8.4256   30.9447 C   0  0  0  0  0  0  0  0  0  0  0  0
  -15.2973   10.8743   30.9890 C   0  0  0  0  0  0  0  0  0  0  0  0
  -12.8371   10.2676   31.3967 C   0  0  0  0  0  0  0  0  0  0  0  0
   -8.9072   16.7176   25.2574 C   0  0  0  0  0  0  0  0  0  0  0  0
   -9.9241   17.4253   24.5736 O   0  0  0  0  0  0  0  0  0  0  0  0
  -10.4236   16.8118   24.0123 H   0  0  0  0  0  0  0  0  0  0  0  0
   -7.9702   16.1020   24.1696 C   0  0  0  0  0  0  0  0  0  0  0  0
   -7.0199   17.0724   23.6797 N   0  0  0  0  0  0  0  0  0  0  0  0
   -7.1935   17.7181   22.0776 S   0  0  0  0  0  0  0  0  0  0  0  0
   -6.9728   19.1446   22.1030 O   0  0  0  0  0  0  0  0  0  0  0  0
   -8.5037   17.4914   21.5396 O   0  0  0  0  0  0  0  0  0  0  0  0
   -6.0251   17.0202   21.0008 C   0  0  0  0  0  0  0  0  0  0  0  0
   -4.6697   17.1292   21.2810 C   0  0  0  0  0  0  0  0  0  0  0  0
   -3.7216   16.5671   20.4119 C   0  0  0  0  0  0  0  0  0  0  0  0
   -4.1651   15.9291   19.2697 C   0  0  0  0  0  0  0  0  0  0  0  0
   -5.5245   15.7975   18.9973 C   0  0  0  0  0  0  0  0  0  0  0  0
   -6.4530   16.3433   19.8663 C   0  0  0  0  0  0  0  0  0  0  0  0
   -3.2771   15.3692   18.4345 O   0  0  0  0  0  0  0  0  0  0  0  0
   -2.2985   16.0637   17.6928 C   0  0  0  0  0  0  0  0  0  0  0  0
   -6.0769   17.6662   24.6004 C   0  0  0  0  0  0  0  0  0  0  0  0
   -5.1991   16.6670   25.3995 C   0  0  0  0  0  0  0  0  0  0  0  0
   -3.6906   16.8085   25.1021 C   0  0  0  0  0  0  0  0  0  0  0  0
   -5.5137   16.6388   26.9185 C   0  0  0  0  0  0  0  0  0  0  0  0
  -10.8824   15.0809   25.9556 C   0  0  0  0  0  0  0  0  0  0  0  0
  -11.6729   14.4031   27.0438 C   0  0  0  0  0  0  0  0  0  0  0  0
  -11.3234   13.1125   27.4632 C   0  0  0  0  0  0  0  0  0  0  0  0
  -12.0448   12.4709   28.4598 C   0  0  0  0  0  0  0  0  0  0  0  0
  -13.1165   13.1193   29.0662 C   0  0  0  0  0  0  0  0  0  0  0  0
  -13.4696   14.4026   28.6618 C   0  0  0  0  0  0  0  0  0  0  0  0
  -12.7646   15.0308   27.6422 C   0  0  0  0  0  0  0  0  0  0  0  0
  8  9  2  0  0  0
  8 10  1  0  0  0
  8 12  1  0  0  0
 10  7  1  0  0  0
  7  2  1  0  0  0
  2  3  2  0  0  0
  2  6  1  0  0  0
  3  4  1  0  0  0
  4  5  1  0  0  0
  4  1  1  0  0  0
  5  6  2  0  0  0
  1 28  1  0  0  0
  1 48  1  0  0  0
 28 31  1  0  0  0
 28 29  1  0  0  0
 31 32  1  0  0  0
 32 44  1  0  0  0
 32 33  1  0  0  0
 44 45  1  0  0  0
 45 46  1  0  0  0
 45 47  1  0  0  0
 33 34  2  0  0  0
 33 35  2  0  0  0
 33 36  1  0  0  0
 36 37  2  0  0  0
 36 41  1  0  0  0
 37 38  1  0  0  0
 38 39  2  0  0  0
 39 40  1  0  0  0
 39 42  1  0  0  0
 40 41  2  0  0  0
 42 43  1  0  0  0
 48 49  1  0  0  0
 49 50  2  0  0  0
 49 54  1  0  0  0
 50 51  1  0  0  0
 51 52  2  0  0  0
 52 53  1  0  0  0
 53 54  2  0  0  0
 12 13  2  0  0  0
 12 17  1  0  0  0
 13 14  1  0  0  0
 14 15  2  0  0  0
 15 16  1  0  0  0
 15 18  1  0  0  0
 16 17  2  0  0  0
 18 19  1  0  0  0
 19 20  1  0  0  0
 20 21  2  0  0  0
 20 23  1  0  0  0
 23 24  1  0  0  0
 24 25  1  0  0  0
 24 26  1  0  0  0
 24 27  1  0  0  0
 10 11  1  0  0  0
 29 30  1  0  0  0
 19 22  1  0  0  0
M  END
> <minimizedAffinity>
-8.67021

$$$$
1ZPA_A83_A_200


 54 57  0  0  0  0  0  0  0  0999 V2000
   -9.1479   15.3807   25.5520 C   0  0  0  0  0  0  0  0  0  0  0  0
   -8.5455   16.2429   29.0548 C   0  0  0  0  0  0  0  0  0  0  0  0
   -9.1174   16.5739   27.8500 C   0  0  0  0  0  0  0  0  0  0  0  0
   -8.8026   15.5861   26.9676 N   0  0  0  0  0  0  0  0  0  0  0  0
   -8.0660   14.6673   27.6675 N   0  0  0  0  0  0  0  0  0  0  0  0
   -7.9117   15.0440   28.8919 N   0  0  0  0  0  0  0  0  0  0  0  0
   -8.6273   17.0726   30.3239 C   0  0  0  0  0  0  0  0  0  0  0  0
   -9.1478   16.4845   32.6907 C   0  0  0  0  0  0  0  0  0  0  0  0
   -8.3457   17.2860   33.1417 O   0  0  0  0  0  0  0  0  0  0  0  0
   -9.2598   16.2771   31.3757 N   0  0  0  0  0  0  0  0  0  0  0  0
   -9.8192   15.5196   31.0883 H   0  0  0  0  0  0  0  0  0  0  0  0
   -9.9784   15.7525   33.6313 C   0  0  0  0  0  0  0  0  0  0  0  0
  -11.3054   15.4746   33.3035 C   0  0  0  0  0  0  0  0  0  0  0  0
  -12.1030   14.7759   34.2034 C   0  0  0  0  0  0  0  0  0  0  0  0
  -11.5846   14.3579   35.4194 C   0  0  0  0  0  0  0  0  0  0  0  0
  -10.2586   14.6382   35.7439 C   0  0  0  0  0  0  0  0  0  0  0  0
   -9.4543   15.3236   34.8369 C   0  0  0  0  0  0  0  0  0  0  0  0
  -12.4282   13.5945   36.4133 C   0  0  0  0  0  0  0  0  0  0  0  0
  -13.5227   12.8913   35.7265 N   0  0  0  0  0  0  0  0  0  0  0  0
  -14.3290   12.0615   36.4329 C   0  0  0  0  0  0  0  0  0  0  0  0
  -15.5334   12.2147   36.3841 O   0  0  0  0  0  0  0  0  0  0  0  0
  -13.6685   13.0222   34.7617 H   0  0  0  0  0  0  0  0  0  0  0  0
  -13.8095   11.0845   37.1782 O   0  0  0  0  0  0  0  0  0  0  0  0
  -13.2423    9.8283   36.8179 C   0  0  0  0  0  0  0  0  0  0  0  0
  -14.0051    9.4254   35.4976 C   0  0  0  0  0  0  0  0  0  0  0  0
  -11.7312    9.9829   36.5296 C   0  0  0  0  0  0  0  0  0  0  0  0
  -13.5189    8.7852   37.9282 C   0  0  0  0  0  0  0  0  0  0  0  0
   -8.5634   16.5219   24.6408 C   0  0  0  0  0  0  0  0  0  0  0  0
   -9.5657   17.2838   23.9946 O   0  0  0  0  0  0  0  0  0  0  0  0
  -10.0486   16.7197   23.3705 H   0  0  0  0  0  0  0  0  0  0  0  0
   -7.5973   16.0031   23.5283 C   0  0  0  0  0  0  0  0  0  0  0  0
   -6.7309   17.0536   23.0484 N   0  0  0  0  0  0  0  0  0  0  0  0
   -7.0606   17.8154   21.5237 S   0  0  0  0  0  0  0  0  0  0  0  0
   -6.7294   19.2185   21.6007 O   0  0  0  0  0  0  0  0  0  0  0  0
   -8.4432   17.7159   21.1544 O   0  0  0  0  0  0  0  0  0  0  0  0
   -6.0991   17.1125   20.2616 C   0  0  0  0  0  0  0  0  0  0  0  0
   -6.6752   16.8120   19.0347 C   0  0  0  0  0  0  0  0  0  0  0  0
   -5.9010   16.2423   18.0118 C   0  0  0  0  0  0  0  0  0  0  0  0
   -4.5701   15.9690   18.2613 C   0  0  0  0  0  0  0  0  0  0  0  0
   -3.9832   16.2903   19.4826 C   0  0  0  0  0  0  0  0  0  0  0  0
   -4.7506   16.8639   20.4813 C   0  0  0  0  0  0  0  0  0  0  0  0
   -3.8075   15.4411   17.2920 O   0  0  0  0  0  0  0  0  0  0  0  0
   -2.6311   14.6888   17.4926 C   0  0  0  0  0  0  0  0  0  0  0  0
   -5.7416   17.6169   23.9392 C   0  0  0  0  0  0  0  0  0  0  0  0
   -4.9213   16.5915   24.7656 C   0  0  0  0  0  0  0  0  0  0  0  0
   -3.4165   16.5948   24.4198 C   0  0  0  0  0  0  0  0  0  0  0  0
   -5.1888   16.6659   26.2921 C   0  0  0  0  0  0  0  0  0  0  0  0
  -10.6908   15.1642   25.4767 C   0  0  0  0  0  0  0  0  0  0  0  0
  -11.3950   14.4393   26.5935 C   0  0  0  0  0  0  0  0  0  0  0  0
  -12.2621   15.1375   27.4444 C   0  0  0  0  0  0  0  0  0  0  0  0
  -12.9139   14.4867   28.4821 C   0  0  0  0  0  0  0  0  0  0  0  0
  -12.7225   13.1215   28.6727 C   0  0  0  0  0  0  0  0  0  0  0  0
  -11.8680   12.4168   27.8311 C   0  0  0  0  0  0  0  0  0  0  0  0
  -11.1928   13.0772   26.8117 C   0  0  0  0  0  0  0  0  0  0  0  0
  8  9  2  0  0  0
  8 10  1  0  0  0
  8 12  1  0  0  0
 10  7  1  0  0  0
  7  2  1  0  0  0
  2  3  2  0  0  0
  2  6  1  0  0  0
  3  4  1  0  0  0
  4  5  1  0  0  0
  4  1  1  0  0  0
  5  6  2  0  0  0
  1 28  1  0  0  0
  1 48  1  0  0  0
 28 31  1  0  0  0
 28 29  1  0  0  0
 31 32  1  0  0  0
 32 44  1  0  0  0
 32 33  1  0  0  0
 44 45  1  0  0  0
 45 46  1  0  0  0
 45 47  1  0  0  0
 33 34  2  0  0  0
 33 35  2  0  0  0
 33 36  1  0  0  0
 36 37  2  0  0  0
 36 41  1  0  0  0
 37 38  1  0  0  0
 38 39  2  0  0  0
 39 40  1  0  0  0
 39 42  1  0  0  0
 40 41  2  0  0  0
 42 43  1  0  0  0
 48 49  1  0  0  0
 49 50  2  0  0  0
 49 54  1  0  0  0
 50 51  1  0  0  0
 51 52  2  0  0  0
 52 53  1  0  0  0
 53 54  2  0  0  0
 12 13  2  0  0  0
 12 17  1  0  0  0
 13 14  1  0  0  0
 14 15  2  0  0  0
 15 16  1  0  0  0
 15 18  1  0  0  0
 16 17  2  0  0  0
 18 19  1  0  0  0
 19 20  1  0  0  0
 20 21  2  0  0  0
 20 23  1  0  0  0
 23 24  1  0  0  0
 24 25  1  0  0  0
 24 26  1  0  0  0
 24 27  1  0  0  0
 10 11  1  0  0  0
 29 30  1  0  0  0
 19 22  1  0  0  0
M  END
> <minimizedAffinity>
-8.60537

$$$$
1ZPA_A83_A_200


 54 57  0  0  0  0  0  0  0  0999 V2000
  -13.8097   13.0312   31.7648 C   0  0  0  0  0  0  0  0  0  0  0  0
  -11.0787   15.3664   32.4455 C   0  0  0  0  0  0  0  0  0  0  0  0
  -11.5687   14.3264   31.6928 C   0  0  0  0  0  0  0  0  0  0  0  0
  -12.8052   14.0246   32.1760 N   0  0  0  0  0  0  0  0  0  0  0  0
  -13.0438   14.9070   33.1964 N   0  0  0  0  0  0  0  0  0  0  0  0
  -12.0375   15.6977   33.3600 N   0  0  0  0  0  0  0  0  0  0  0  0
   -9.7186   16.0172   32.2652 C   0  0  0  0  0  0  0  0  0  0  0  0
   -8.8853   15.2477   30.0443 C   0  0  0  0  0  0  0  0  0  0  0  0
   -8.3880   14.2318   30.5024 O   0  0  0  0  0  0  0  0  0  0  0  0
   -9.4454   16.1666   30.8361 N   0  0  0  0  0  0  0  0  0  0  0  0
   -9.6971   17.0224   30.4196 H   0  0  0  0  0  0  0  0  0  0  0  0
   -8.8449   15.4337   28.6041 C   0  0  0  0  0  0  0  0  0  0  0  0
   -9.3733   16.5983   28.0472 C   0  0  0  0  0  0  0  0  0  0  0  0
   -9.3376   16.7775   26.6685 C   0  0  0  0  0  0  0  0  0  0  0  0
   -8.7814   15.8057   25.8510 C   0  0  0  0  0  0  0  0  0  0  0  0
   -8.2553   14.6430   26.4108 C   0  0  0  0  0  0  0  0  0  0  0  0
   -8.2759   14.4696   27.7924 C   0  0  0  0  0  0  0  0  0  0  0  0
   -8.7269   15.9768   24.3510 C   0  0  0  0  0  0  0  0  0  0  0  0
   -8.2089   17.3091   24.0034 N   0  0  0  0  0  0  0  0  0  0  0  0
   -6.9281   17.4364   23.5780 C   0  0  0  0  0  0  0  0  0  0  0  0
   -6.7009   18.0084   22.5303 O   0  0  0  0  0  0  0  0  0  0  0  0
   -8.7877   18.1019   24.0790 H   0  0  0  0  0  0  0  0  0  0  0  0
   -5.9222   16.9381   24.2989 O   0  0  0  0  0  0  0  0  0  0  0  0
   -5.0684   17.5440   25.2650 C   0  0  0  0  0  0  0  0  0  0  0  0
   -5.2527   16.6545   26.5543 C   0  0  0  0  0  0  0  0  0  0  0  0
   -3.5974   17.4912   24.7918 C   0  0  0  0  0  0  0  0  0  0  0  0
   -5.5362   18.9923   25.5499 C   0  0  0  0  0  0  0  0  0  0  0  0
  -14.1683   12.0484   32.9394 C   0  0  0  0  0  0  0  0  0  0  0  0
  -14.6604   12.7127   34.0879 O   0  0  0  0  0  0  0  0  0  0  0  0
  -13.9610   13.2701   34.4636 H   0  0  0  0  0  0  0  0  0  0  0  0
  -12.9684   11.1628   33.4045 C   0  0  0  0  0  0  0  0  0  0  0  0
  -13.3727    9.7929   33.6153 N   0  0  0  0  0  0  0  0  0  0  0  0
  -12.9863    8.9989   35.1099 S   0  0  0  0  0  0  0  0  0  0  0  0
  -11.6987    8.3554   34.9986 O   0  0  0  0  0  0  0  0  0  0  0  0
  -13.9469    7.9906   35.4536 O   0  0  0  0  0  0  0  0  0  0  0  0
  -12.8960   10.1432   36.4114 C   0  0  0  0  0  0  0  0  0  0  0  0
  -11.6597   10.5767   36.8710 C   0  0  0  0  0  0  0  0  0  0  0  0
  -11.5825   11.5013   37.9243 C   0  0  0  0  0  0  0  0  0  0  0  0
  -12.7552   11.9473   38.5025 C   0  0  0  0  0  0  0  0  0  0  0  0
  -13.9974   11.5326   38.0289 C   0  0  0  0  0  0  0  0  0  0  0  0
  -14.0647   10.6308   36.9813 C   0  0  0  0  0  0  0  0  0  0  0  0
  -12.7052   12.8446   39.4984 O   0  0  0  0  0  0  0  0  0  0  0  0
  -13.7399   13.7362   39.8514 C   0  0  0  0  0  0  0  0  0  0  0  0
  -14.2892    9.1746   32.6839 C   0  0  0  0  0  0  0  0  0  0  0  0
  -13.6477    8.2109   31.6509 C   0  0  0  0  0  0  0  0  0  0  0  0
  -12.4177    8.8131   30.9378 C   0  0  0  0  0  0  0  0  0  0  0  0
  -13.3839    6.7870   32.2081 C   0  0  0  0  0  0  0  0  0  0  0  0
  -13.2977   12.3699   30.4482 C   0  0  0  0  0  0  0  0  0  0  0  0
  -13.0363   13.2280   29.2383 C   0  0  0  0  0  0  0  0  0  0  0  0
  -13.8387   14.3493   28.9884 C   0  0  0  0  0  0  0  0  0  0  0  0
  -13.6158   15.1470   27.8752 C   0  0  0  0  0  0  0  0  0  0  0  0
  -12.5732   14.8455   27.0041 C   0  0  0  0  0  0  0  0  0  0  0  0
  -11.7667   13.7379   27.2447 C   0  0  0  0  0  0  0  0  0  0  0  0
  -12.0115   12.9231   28.3436 C   0  0  0  0  0  0  0  0  0  0  0  0
  8  9  2  0  0  0
  8 10  1  0  0  0
  8 12  1  0  0  0
 10  7  1  0  0  0
  7  2  1  0  0  0
  2  3  2  0  0  0
  2  6  1  0  0  0
  3  4  1  0  0  0
  4  5  1  0  0  0
  4  1  1  0  0  0
  5  6  2  0  0  0
  1 28  1  0  0  0
  1 48  1  0  0  0
 28 31  1  0  0  0
 28 29  1  0  0  0
 31 32  1  0  0  0
 32 44  1  0  0  0
 32 33  1  0  0  0
 44 45  1  0  0  0
 45 46  1  0  0  0
 45 47  1  0  0  0
 33 34  2  0  0  0
 33 35  2  0  0  0
 33 36  1  0  0  0
 36 37  2  0  0  0
 36 41  1  0  0  0
 37 38  1  0  0  0
 38 39  2  0  0  0
 39 40  1  0  0  0
 39 42  1  0  0  0
 40 41  2  0  0  0
 42 43  1  0  0  0
 48 49  1  0  0  0
 49 50  2  0  0  0
 49 54  1  0  0  0
 50 51  1  0  0  0
 51 52  2  0  0  0
 52 53  1  0  0  0
 53 54  2  0  0  0
 12 13  2  0  0  0
 12 17  1  0  0  0
 13 14  1  0  0  0
 14 15  2  0  0  0
 15 16  1  0  0  0
 15 18  1  0  0  0
 16 17  2  0  0  0
 18 19  1  0  0  0
 19 20  1  0  0  0
 20 21  2  0  0  0
 20 23  1  0  0  0
 23 24  1  0  0  0
 24 25  1  0  0  0
 24 26  1  0  0  0
 24 27  1  0  0  0
 10 11  1  0  0  0
 29 30  1  0  0  0
 19 22  1  0  0  0
M  END
> <minimizedAffinity>
-8.55341

$$$$
1ZPA_A83_A_200


 54 57  0  0  0  0  0  0  0  0999 V2000
  -12.2897   12.8886   34.2188 C   0  0  0  0  0  0  0  0  0  0  0  0
  -10.2853   15.4298   32.5158 C   0  0  0  0  0  0  0  0  0  0  0  0
  -10.3530   14.4275   33.4534 C   0  0  0  0  0  0  0  0  0  0  0  0
  -11.6315   13.9600   33.4545 N   0  0  0  0  0  0  0  0  0  0  0  0
  -12.3024   14.6761   32.4985 N   0  0  0  0  0  0  0  0  0  0  0  0
  -11.5203   15.5387   31.9427 N   0  0  0  0  0  0  0  0  0  0  0  0
   -9.0468   16.2453   32.1890 C   0  0  0  0  0  0  0  0  0  0  0  0
   -8.7109   15.3769   29.8755 C   0  0  0  0  0  0  0  0  0  0  0  0
   -8.4186   14.2567   30.2613 O   0  0  0  0  0  0  0  0  0  0  0  0
   -8.9287   16.3747   30.7368 N   0  0  0  0  0  0  0  0  0  0  0  0
   -9.0179   17.2798   30.3597 H   0  0  0  0  0  0  0  0  0  0  0  0
   -8.8094   15.5977   28.4431 C   0  0  0  0  0  0  0  0  0  0  0  0
   -9.0637   16.8821   27.9622 C   0  0  0  0  0  0  0  0  0  0  0  0
   -9.1605   17.0953   26.5914 C   0  0  0  0  0  0  0  0  0  0  0  0
   -9.0063   16.0391   25.7066 C   0  0  0  0  0  0  0  0  0  0  0  0
   -8.7533   14.7570   26.1906 C   0  0  0  0  0  0  0  0  0  0  0  0
   -8.6400   14.5452   27.5623 C   0  0  0  0  0  0  0  0  0  0  0  0
   -9.1033   16.2439   24.2130 C   0  0  0  0  0  0  0  0  0  0  0  0
   -8.2574   17.3714   23.7919 N   0  0  0  0  0  0  0  0  0  0  0  0
   -6.9322   17.1712   23.5885 C   0  0  0  0  0  0  0  0  0  0  0  0
   -6.4330   17.5056   22.5324 O   0  0  0  0  0  0  0  0  0  0  0  0
   -8.6505   18.2642   23.6590 H   0  0  0  0  0  0  0  0  0  0  0  0
   -6.1785   16.6106   24.5359 O   0  0  0  0  0  0  0  0  0  0  0  0
   -5.2611   17.1794   25.4657 C   0  0  0  0  0  0  0  0  0  0  0  0
   -5.6436   18.7091   25.4979 C   0  0  0  0  0  0  0  0  0  0  0  0
   -5.4581   16.5552   26.8664 C   0  0  0  0  0  0  0  0  0  0  0  0
   -3.8112   17.0071   24.9507 C   0  0  0  0  0  0  0  0  0  0  0  0
  -13.5566   12.3350   33.4686 C   0  0  0  0  0  0  0  0  0  0  0  0
  -14.7415   13.0408   33.7857 O   0  0  0  0  0  0  0  0  0  0  0  0
  -14.9560   12.9081   34.7223 H   0  0  0  0  0  0  0  0  0  0  0  0
  -13.8387   10.8237   33.7454 C   0  0  0  0  0  0  0  0  0  0  0  0
  -13.8309   10.0522   32.5250 N   0  0  0  0  0  0  0  0  0  0  0  0
  -14.7839   10.5708   31.1697 S   0  0  0  0  0  0  0  0  0  0  0  0
  -16.0599   11.0617   31.6334 O   0  0  0  0  0  0  0  0  0  0  0  0
  -15.0394    9.5040   30.2454 O   0  0  0  0  0  0  0  0  0  0  0  0
  -13.9964   11.8625   30.3195 C   0  0  0  0  0  0  0  0  0  0  0  0
  -14.7041   13.0104   29.9897 C   0  0  0  0  0  0  0  0  0  0  0  0
  -14.0710   14.0568   29.3010 C   0  0  0  0  0  0  0  0  0  0  0  0
  -12.7452   13.9082   28.9423 C   0  0  0  0  0  0  0  0  0  0  0  0
  -12.0258   12.7682   29.2918 C   0  0  0  0  0  0  0  0  0  0  0  0
  -12.6542   11.7467   29.9823 C   0  0  0  0  0  0  0  0  0  0  0  0
  -12.1156   14.9032   28.2995 O   0  0  0  0  0  0  0  0  0  0  0  0
  -12.4732   15.4183   27.0358 C   0  0  0  0  0  0  0  0  0  0  0  0
  -12.8595    8.9940   32.3633 C   0  0  0  0  0  0  0  0  0  0  0  0
  -13.3988    7.5523   32.5586 C   0  0  0  0  0  0  0  0  0  0  0  0
  -12.9871    6.5889   31.4244 C   0  0  0  0  0  0  0  0  0  0  0  0
  -13.1255    6.9716   33.9713 C   0  0  0  0  0  0  0  0  0  0  0  0
  -12.5277   13.4268   35.6633 C   0  0  0  0  0  0  0  0  0  0  0  0
  -12.2715   12.5266   36.8434 C   0  0  0  0  0  0  0  0  0  0  0  0
  -11.4802   11.3803   36.6910 C   0  0  0  0  0  0  0  0  0  0  0  0
  -11.2394   10.5366   37.7660 C   0  0  0  0  0  0  0  0  0  0  0  0
  -11.7717   10.8378   39.0161 C   0  0  0  0  0  0  0  0  0  0  0  0
  -12.5546   11.9759   39.1806 C   0  0  0  0  0  0  0  0  0  0  0  0
  -12.8195   12.8025   38.0954 C   0  0  0  0  0  0  0  0  0  0  0  0
  8  9  2  0  0  0
  8 10  1  0  0  0
  8 12  1  0  0  0
 10  7  1  0  0  0
  7  2  1  0  0  0
  2  3  2  0  0  0
  2  6  1  0  0  0
  3  4  1  0  0  0
  4  5  1  0  0  0
  4  1  1  0  0  0
  5  6  2  0  0  0
  1 28  1  0  0  0
  1 48  1  0  0  0
 28 31  1  0  0  0
 28 29  1  0  0  0
 31 32  1  0  0  0
 32 44  1  0  0  0
 32 33  1  0  0  0
 44 45  1  0  0  0
 45 46  1  0  0  0
 45 47  1  0  0  0
 33 34  2  0  0  0
 33 35  2  0  0  0
 33 36  1  0  0  0
 36 37  2  0  0  0
 36 41  1  0  0  0
 37 38  1  0  0  0
 38 39  2  0  0  0
 39 40  1  0  0  0
 39 42  1  0  0  0
 40 41  2  0  0  0
 42 43  1  0  0  0
 48 49  1  0  0  0
 49 50  2  0  0  0
 49 54  1  0  0  0
 50 51  1  0  0  0
 51 52  2  0  0  0
 52 53  1  0  0  0
 53 54  2  0  0  0
 12 13  2  0  0  0
 12 17  1  0  0  0
 13 14  1  0  0  0
 14 15  2  0  0  0
 15 16  1  0  0  0
 15 18  1  0  0  0
 16 17  2  0  0  0
 18 19  1  0  0  0
 19 20  1  0  0  0
 20 21  2  0  0  0
 20 23  1  0  0  0
 23 24  1  0  0  0
 24 25  1  0  0  0
 24 26  1  0  0  0
 24 27  1  0  0  0
 10 11  1  0  0  0
 29 30  1  0  0  0
 19 22  1  0  0  0
M  END
> <minimizedAffinity>
-8.52980

$$$$
1ZPA_A83_A_200


 54 57  0  0  0  0  0  0  0  0999 V2000
   -7.6442   16.6564   25.4817 C   0  0  0  0  0  0  0  0  0  0  0  0
   -4.3316   17.7667   24.4004 C   0  0  0  0  0  0  0  0  0  0  0  0
   -5.2784   16.7715   24.4352 C   0  0  0  0  0  0  0  0  0  0  0  0
   -6.3419   17.2491   25.1383 N   0  0  0  0  0  0  0  0  0  0  0  0
   -6.0218   18.5332   25.4925 N   0  0  0  0  0  0  0  0  0  0  0  0
   -4.8458   18.8448   25.0629 N   0  0  0  0  0  0  0  0  0  0  0  0
   -2.9724   17.6636   23.7313 C   0  0  0  0  0  0  0  0  0  0  0  0
   -2.5329   16.4581   21.5929 C   0  0  0  0  0  0  0  0  0  0  0  0
   -1.5966   15.8280   22.0570 O   0  0  0  0  0  0  0  0  0  0  0  0
   -3.1602   17.3985   22.3051 N   0  0  0  0  0  0  0  0  0  0  0  0
   -3.8078   17.9646   21.8264 H   0  0  0  0  0  0  0  0  0  0  0  0
   -2.9448   16.1590   20.2323 C   0  0  0  0  0  0  0  0  0  0  0  0
   -4.2562   16.4241   19.8379 C   0  0  0  0  0  0  0  0  0  0  0  0
   -4.6532   16.1366   18.5364 C   0  0  0  0  0  0  0  0  0  0  0  0
   -3.7530   15.5893   17.6353 C   0  0  0  0  0  0  0  0  0  0  0  0
   -2.4438   15.3249   18.0330 C   0  0  0  0  0  0  0  0  0  0  0  0
   -2.0406   15.6273   19.3312 C   0  0  0  0  0  0  0  0  0  0  0  0
   -4.1574   15.2707   16.2150 C   0  0  0  0  0  0  0  0  0  0  0  0
   -5.1787   16.2196   15.7454 N   0  0  0  0  0  0  0  0  0  0  0  0
   -4.8748   17.0877   14.7496 C   0  0  0  0  0  0  0  0  0  0  0  0
   -5.5889   17.1443   13.7681 O   0  0  0  0  0  0  0  0  0  0  0  0
   -6.0758   16.2241   16.1510 H   0  0  0  0  0  0  0  0  0  0  0  0
   -3.8010   17.8741   14.8407 O   0  0  0  0  0  0  0  0  0  0  0  0
   -3.5929   19.1040   15.5288 C   0  0  0  0  0  0  0  0  0  0  0  0
   -5.0318   19.5157   16.0263 C   0  0  0  0  0  0  0  0  0  0  0  0
   -2.6553   18.8913   16.7397 C   0  0  0  0  0  0  0  0  0  0  0  0
   -3.0458   20.1716   14.5499 C   0  0  0  0  0  0  0  0  0  0  0  0
   -7.7373   16.3080   27.0128 C   0  0  0  0  0  0  0  0  0  0  0  0
   -6.5599   16.6319   27.7280 O   0  0  0  0  0  0  0  0  0  0  0  0
   -5.8279   16.0788   27.4132 H   0  0  0  0  0  0  0  0  0  0  0  0
   -8.0425   14.8023   27.2959 C   0  0  0  0  0  0  0  0  0  0  0  0
   -9.2946   14.6392   27.9959 N   0  0  0  0  0  0  0  0  0  0  0  0
  -10.7532   14.3496   27.1002 S   0  0  0  0  0  0  0  0  0  0  0  0
  -10.4918   13.4059   26.0394 O   0  0  0  0  0  0  0  0  0  0  0  0
  -11.2681   15.5460   26.4992 O   0  0  0  0  0  0  0  0  0  0  0  0
  -11.9809   13.6715   28.1222 C   0  0  0  0  0  0  0  0  0  0  0  0
  -12.9436   14.4940   28.6914 C   0  0  0  0  0  0  0  0  0  0  0  0
  -13.9376   13.9494   29.5194 C   0  0  0  0  0  0  0  0  0  0  0  0
  -13.9206   12.5911   29.7706 C   0  0  0  0  0  0  0  0  0  0  0  0
  -12.9706   11.7596   29.1829 C   0  0  0  0  0  0  0  0  0  0  0  0
  -12.0019   12.3029   28.3572 C   0  0  0  0  0  0  0  0  0  0  0  0
  -14.8716   12.0470   30.5446 O   0  0  0  0  0  0  0  0  0  0  0  0
  -14.6696   11.5005   31.8294 C   0  0  0  0  0  0  0  0  0  0  0  0
   -9.2866   14.4874   29.4335 C   0  0  0  0  0  0  0  0  0  0  0  0
   -9.1320   15.8001   30.2461 C   0  0  0  0  0  0  0  0  0  0  0  0
  -10.1208   16.9043   29.8137 C   0  0  0  0  0  0  0  0  0  0  0  0
   -9.1063   15.5820   31.7820 C   0  0  0  0  0  0  0  0  0  0  0  0
   -7.8931   15.4762   24.4925 C   0  0  0  0  0  0  0  0  0  0  0  0
   -8.5491   15.7460   23.1639 C   0  0  0  0  0  0  0  0  0  0  0  0
   -7.7644   16.0611   22.0465 C   0  0  0  0  0  0  0  0  0  0  0  0
   -8.3528   16.3187   20.8166 C   0  0  0  0  0  0  0  0  0  0  0  0
   -9.7360   16.2462   20.6813 C   0  0  0  0  0  0  0  0  0  0  0  0
  -10.5249   15.9292   21.7822 C   0  0  0  0  0  0  0  0  0  0  0  0
   -9.9352   15.7018   23.0199 C   0  0  0  0  0  0  0  0  0  0  0  0
  8  9  2  0  0  0
  8 10  1  0  0  0
  8 12  1  0  0  0
 10  7  1  0  0  0
  7  2  1  0  0  0
  2  3  2  0  0  0
  2  6  1  0  0  0
  3  4  1  0  0  0
  4  5  1  0  0  0
  4  1  1  0  0  0
  5  6  2  0  0  0
  1 28  1  0  0  0
  1 48  1  0  0  0
 28 31  1  0  0  0
 28 29  1  0  0  0
 31 32  1  0  0  0
 32 44  1  0  0  0
 32 33  1  0  0  0
 44 45  1  0  0  0
 45 46  1  0  0  0
 45 47  1  0  0  0
 33 34  2  0  0  0
 33 35  2  0  0  0
 33 36  1  0  0  0
 36 37  2  0  0  0
 36 41  1  0  0  0
 37 38  1  0  0  0
 38 39  2  0  0  0
 39 40  1  0  0  0
 39 42  1  0  0  0
 40 41  2  0  0  0
 42 43  1  0  0  0
 48 49  1  0  0  0
 49 50  2  0  0  0
 49 54  1  0  0  0
 50 51  1  0  0  0
 51 52  2  0  0  0
 52 53  1  0  0  0
 53 54  2  0  0  0
 12 13  2  0  0  0
 12 17  1  0  0  0
 13 14  1  0  0  0
 14 15  2  0  0  0
 15 16  1  0  0  0
 15 18  1  0  0  0
 16 17  2  0  0  0
 18 19  1  0  0  0
 19 20  1  0  0  0
 20 21  2  0  0  0
 20 23  1  0  0  0
 23 24  1  0  0  0
 24 25  1  0  0  0
 24 26  1  0  0  0
 24 27  1  0  0  0
 10 11  1  0  0  0
 29 30  1  0  0  0
 19 22  1  0  0  0
M  END
> <minimizedAffinity>
-8.51371

$$$$
1ZPA_A83_A_200


 54 57  0  0  0  0  0  0  0  0999 V2000
  -15.1671   11.3708   30.8013 C   0  0  0  0  0  0  0  0  0  0  0  0
  -12.3220   13.5343   30.0266 C   0  0  0  0  0  0  0  0  0  0  0  0
  -12.7798   12.3231   30.4866 C   0  0  0  0  0  0  0  0  0  0  0  0
  -14.1402   12.3662   30.4551 N   0  0  0  0  0  0  0  0  0  0  0  0
  -14.4732   13.5966   29.9533 N   0  0  0  0  0  0  0  0  0  0  0  0
  -13.4135   14.2870   29.6983 N   0  0  0  0  0  0  0  0  0  0  0  0
  -10.8620   13.9336   29.9059 C   0  0  0  0  0  0  0  0  0  0  0  0
  -10.3257   15.6047   28.1342 C   0  0  0  0  0  0  0  0  0  0  0  0
  -10.4486   16.5538   28.8913 O   0  0  0  0  0  0  0  0  0  0  0  0
  -10.5941   14.3578   28.5319 N   0  0  0  0  0  0  0  0  0  0  0  0
  -10.6133   13.6609   27.8368 H   0  0  0  0  0  0  0  0  0  0  0  0
   -9.8825   15.8719   26.7768 C   0  0  0  0  0  0  0  0  0  0  0  0
   -9.5095   14.8087   25.9545 C   0  0  0  0  0  0  0  0  0  0  0  0
   -9.0828   15.0624   24.6553 C   0  0  0  0  0  0  0  0  0  0  0  0
   -9.0272   16.3631   24.1789 C   0  0  0  0  0  0  0  0  0  0  0  0
   -9.3996   17.4229   25.0035 C   0  0  0  0  0  0  0  0  0  0  0  0
   -9.8424   17.1690   26.2992 C   0  0  0  0  0  0  0  0  0  0  0  0
   -8.5707   16.6660   22.7709 C   0  0  0  0  0  0  0  0  0  0  0  0
   -7.7045   17.8549   22.7552 N   0  0  0  0  0  0  0  0  0  0  0  0
   -6.3600   17.7015   22.8359 C   0  0  0  0  0  0  0  0  0  0  0  0
   -5.6486   18.2184   21.9973 O   0  0  0  0  0  0  0  0  0  0  0  0
   -8.0980   18.7547   22.6866 H   0  0  0  0  0  0  0  0  0  0  0  0
   -5.8177   16.9886   23.8246 O   0  0  0  0  0  0  0  0  0  0  0  0
   -5.2393   17.3886   25.0635 C   0  0  0  0  0  0  0  0  0  0  0  0
   -5.9506   16.4744   26.1340 C   0  0  0  0  0  0  0  0  0  0  0  0
   -3.7178   17.1140   25.0607 C   0  0  0  0  0  0  0  0  0  0  0  0
   -5.5613   18.8774   25.3412 C   0  0  0  0  0  0  0  0  0  0  0  0
  -15.2581   11.1477   32.3557 C   0  0  0  0  0  0  0  0  0  0  0  0
  -16.5899   11.0788   32.8292 O   0  0  0  0  0  0  0  0  0  0  0  0
  -17.0248   11.9357   32.6969 H   0  0  0  0  0  0  0  0  0  0  0  0
  -14.5340   12.2514   33.1911 C   0  0  0  0  0  0  0  0  0  0  0  0
  -13.4381   11.7030   33.9545 N   0  0  0  0  0  0  0  0  0  0  0  0
  -12.8087   12.5803   35.3138 S   0  0  0  0  0  0  0  0  0  0  0  0
  -12.0661   11.6841   36.1680 O   0  0  0  0  0  0  0  0  0  0  0  0
  -13.8473   13.1732   36.1058 O   0  0  0  0  0  0  0  0  0  0  0  0
  -11.7270   13.8333   34.7926 C   0  0  0  0  0  0  0  0  0  0  0  0
  -10.6189   14.1594   35.5628 C   0  0  0  0  0  0  0  0  0  0  0  0
   -9.7423   15.1731   35.1452 C   0  0  0  0  0  0  0  0  0  0  0  0
  -10.0196   15.8478   33.9721 C   0  0  0  0  0  0  0  0  0  0  0  0
  -11.1171   15.5078   33.1852 C   0  0  0  0  0  0  0  0  0  0  0  0
  -11.9691   14.4983   33.5977 C   0  0  0  0  0  0  0  0  0  0  0  0
   -9.1855   16.8079   33.5452 O   0  0  0  0  0  0  0  0  0  0  0  0
   -8.5673   16.8528   32.2779 C   0  0  0  0  0  0  0  0  0  0  0  0
  -13.0316   10.3347   33.7258 C   0  0  0  0  0  0  0  0  0  0  0  0
  -13.3205    9.3460   34.8862 C   0  0  0  0  0  0  0  0  0  0  0  0
  -14.7437    8.7491   34.8378 C   0  0  0  0  0  0  0  0  0  0  0  0
  -12.2208    8.2676   35.0734 C   0  0  0  0  0  0  0  0  0  0  0  0
  -14.8915   10.0998   29.9401 C   0  0  0  0  0  0  0  0  0  0  0  0
  -14.2372    8.9003   30.5738 C   0  0  0  0  0  0  0  0  0  0  0  0
  -15.0262    7.8719   31.1064 C   0  0  0  0  0  0  0  0  0  0  0  0
  -14.4400    6.7629   31.6994 C   0  0  0  0  0  0  0  0  0  0  0  0
  -13.0534    6.6568   31.7517 C   0  0  0  0  0  0  0  0  0  0  0  0
  -12.2598    7.6690   31.2217 C   0  0  0  0  0  0  0  0  0  0  0  0
  -12.8496    8.7929   30.6559 C   0  0  0  0  0  0  0  0  0  0  0  0
  8  9  2  0  0  0
  8 10  1  0  0  0
  8 12  1  0  0  0
 10  7  1  0  0  0
  7  2  1  0  0  0
  2  3  2  0  0  0
  2  6  1  0  0  0
  3  4  1  0  0  0
  4  5  1  0  0  0
  4  1  1  0  0  0
  5  6  2  0  0  0
  1 28  1  0  0  0
  1 48  1  0  0  0
 28 31  1  0  0  0
 28 29  1  0  0  0
 31 32  1  0  0  0
 32 44  1  0  0  0
 32 33  1  0  0  0
 44 45  1  0  0  0
 45 46  1  0  0  0
 45 47  1  0  0  0
 33 34  2  0  0  0
 33 35  2  0  0  0
 33 36  1  0  0  0
 36 37  2  0  0  0
 36 41  1  0  0  0
 37 38  1  0  0  0
 38 39  2  0  0  0
 39 40  1  0  0  0
 39 42  1  0  0  0
 40 41  2  0  0  0
 42 43  1  0  0  0
 48 49  1  0  0  0
 49 50  2  0  0  0
 49 54  1  0  0  0
 50 51  1  0  0  0
 51 52  2  0  0  0
 52 53  1  0  0  0
 53 54  2  0  0  0
 12 13  2  0  0  0
 12 17  1  0  0  0
 13 14  1  0  0  0
 14 15  2  0  0  0
 15 16  1  0  0  0
 15 18  1  0  0  0
 16 17  2  0  0  0
 18 19  1  0  0  0
 19 20  1  0  0  0
 20 21  2  0  0  0
 20 23  1  0  0  0
 23 24  1  0  0  0
 24 25  1  0  0  0
 24 26  1  0  0  0
 24 27  1  0  0  0
 10 11  1  0  0  0
 29 30  1  0  0  0
 19 22  1  0  0  0
M  END
> <minimizedAffinity>
-8.48458

$$$$
