2UYQ_SAM_A_1311
  RCSB PDB12061707003D
Coordinates from PDB:2UYQ:A:1311 Model:1 without hydrogens
 17 19  0  0  0  0            999 V2000
   -9.4620  -26.8210   -3.5750   C 0  0  0  0  0  0  0  0  0  0  0  0
   -8.4550  -27.7650   -3.1920   O 0  0  0  0  0  0  0  0  0  0  0  0
   -8.8400  -25.4410   -3.3670   C 0  0  0  0  0  0  0  0  0  0  0  0
   -9.2770  -24.9060   -2.1380   O 0  0  0  0  0  0  0  0  0  0  0  0
   -7.3440  -25.6910   -3.2510   C 0  0  0  0  0  0  0  0  0  0  0  0
   -6.6570  -24.6720   -2.5170   O 0  0  0  0  0  0  0  0  0  0  0  0
   -7.4070  -27.0390   -2.5520   C 0  0  0  0  0  0  0  0  0  0  0  0
   -6.1070  -27.7180   -2.5790   N 0  0  0  0  0  0  0  0  0  0  0  0
   -5.5020  -28.2500   -3.6850   C 0  0  0  0  0  0  0  0  0  0  0  0
   -4.3120  -28.7550   -3.2890   N 0  0  0  0  0  0  0  0  0  0  0  0
   -4.1590  -28.5670   -1.9440   C 0  0  0  0  0  0  0  0  0  0  0  0
   -3.1390  -28.9000   -1.0450   C 0  0  0  0  0  0  0  0  0  0  0  0
   -2.0350  -29.5350   -1.4640   N 0  0  0  0  0  0  0  0  0  0  0  0
   -3.2860  -28.5700    0.2920   N 0  0  0  0  0  0  0  0  0  0  0  0
   -4.4150  -27.9040    0.7510   C 0  0  0  0  0  0  0  0  0  0  0  0
   -5.4180  -27.5860   -0.1490   N 0  0  0  0  0  0  0  0  0  0  0  0
   -5.2910  -27.9080   -1.4760   C 0  0  0  0  0  0  0  0  0  0  0  0
  1  2  1  0  0  0  0
  1  3  1  0  0  0  0
  2  7  1  0  0  0  0
  3  4  1  0  0  0  0
  3  5  1  0  0  0  0
  5  6  1  0  0  0  0
  5  7  1  0  0  0  0
  7  8  1  0  0  0  0
  8  9  1  0  0  0  0
  8 17  1  0  0  0  0
  9 10  2  0  0  0  0
 10 11  1  0  0  0  0
 11 12  1  0  0  0  0
 11 17  2  0  0  0  0
 12 13  1  0  0  0  0
 12 14  2  0  0  0  0
 14 15  1  0  0  0  0
 15 16  2  0  0  0  0
 16 17  1  0  0  0  0
A    1
C4'
A    2
O4'
A    3
C3'
A    4
O3'
A    5
C2'
A    6
O2'
A    7
C1'
A    8
N9
A    9
C8
A   10
N7
A   11
C5
A   12
C6
A   13
N6
A   14
N1
A   15
C2
A   16
N3
A   17
C4
M  END
>  <InstanceId>
2UYQ_SAM_A_1311

>  <ChemCompId>
SAM

>  <PdbId>
2UYQ

>  <ChainId>
A

>  <ResidueNumber>
1311

>  <InsertionCode>


>  <Model>
1

>  <AltIds>


>  <MissingHeavyAtoms>
10

>  <ObservedFormula>
C9 N5 O3

>  <Name>
S-ADENOSYLMETHIONINE

>  <SystematicName>
(2S)-2-amino-4-[[(2S,3S,4R,5R)-5-(6-aminopurin-9-yl)-3,4-dihydroxy-oxolan-2-yl]methyl-methyl-sulfonio]butanoate

>  <Synonyms>


>  <Type>
NON-POLYMER

>  <Formula>
C15 H22 N6 O5 S

>  <MolecularWeight>
398.437

>  <ModifiedDate>
2011-06-04

>  <Parent>


>  <OneLetterCode>


>  <SubcomponentList>


>  <AmbiguousFlag>
N

>  <InChI>
InChI=1S/C15H22N6O5S/c1-27(3-2-7(16)15(24)25)4-8-10(22)11(23)14(26-8)21-6-20-9-12(17)18-5-19-13(9)21/h5-8,10-11,14,22-23H,2-4,16H2,1H3,(H2-,17,18,19,24,25)/t7-,8+,10+,11+,14+,27-/m0/s1

>  <InChIKey>
MEFKEPWMEQBLKI-FCKMPRQPSA-N

>  <SMILES>
C[S@@+](CC[C@@H](C(=O)[O-])N)C[C@@H]1[C@H]([C@H]([C@@H](O1)n2cnc3c2ncnc3N)O)O

$$$$
