2UYQ_SAM_A_1311


 21 23  0  0  0  0  0  0  0  0999 V2000
   -6.1824  -27.8422   -2.9208 N   0  0  0  0  0  0  0  0  0  0  0  0
   -5.4699  -28.0603   -4.0684 C   0  0  0  0  0  0  0  0  0  0  0  0
   -4.1888  -28.2983   -3.7077 N   0  0  0  0  0  0  0  0  0  0  0  0
   -4.0798  -28.2517   -2.3461 C   0  0  0  0  0  0  0  0  0  0  0  0
   -3.0035  -28.4315   -1.4694 C   0  0  0  0  0  0  0  0  0  0  0  0
   -1.7779  -28.7116   -1.9355 N   0  0  0  0  0  0  0  0  0  0  0  0
   -3.2205  -28.3225   -0.1059 N   0  0  0  0  0  0  0  0  0  0  0  0
   -4.4778  -28.0240    0.4030 C   0  0  0  0  0  0  0  0  0  0  0  0
   -5.5339  -27.8542   -0.4761 N   0  0  0  0  0  0  0  0  0  0  0  0
   -5.3382  -27.9618   -1.8292 C   0  0  0  0  0  0  0  0  0  0  0  0
   -1.6257  -28.7887   -2.9051 H   0  0  0  0  0  0  0  0  0  0  0  0
   -1.0302  -28.8402   -1.3081 H   0  0  0  0  0  0  0  0  0  0  0  0
   -9.6419  -27.5960   -3.9325 C   0  0  0  0  0  0  0  0  0  0  0  0
   -8.4360  -28.3269   -3.6806 O   0  0  0  0  0  0  0  0  0  0  0  0
   -9.3872  -26.1811   -3.4151 C   0  0  0  0  0  0  0  0  0  0  0  0
   -9.9599  -26.0357   -2.1350 O   0  0  0  0  0  0  0  0  0  0  0  0
   -7.8779  -26.0804   -3.2551 C   0  0  0  0  0  0  0  0  0  0  0  0
   -7.4768  -25.1014   -2.2908 O   0  0  0  0  0  0  0  0  0  0  0  0
   -7.6110  -27.5187   -2.8432 C   0  0  0  0  0  0  0  0  0  0  0  0
   -9.5900  -26.7043   -1.5375 H   0  0  0  0  0  0  0  0  0  0  0  0
   -7.9091  -25.2872   -1.4425 H   0  0  0  0  0  0  0  0  0  0  0  0
 13 14  1  0  0  0
 13 15  1  0  0  0
 14 19  1  0  0  0
 15 16  1  0  0  0
 15 17  1  0  0  0
 17 18  1  0  0  0
 17 19  1  0  0  0
 19  1  1  0  0  0
  1  2  1  0  0  0
  1 10  1  0  0  0
  2  3  2  0  0  0
  3  4  1  0  0  0
  4  5  1  0  0  0
  4 10  2  0  0  0
  5  6  1  0  0  0
  5  7  2  0  0  0
  7  8  1  0  0  0
  8  9  2  0  0  0
  9 10  1  0  0  0
 16 20  1  0  0  0
 18 21  1  0  0  0
  6 11  1  0  0  0
  6 12  1  0  0  0
M  END
> <minimizedAffinity>
-6.77805

$$$$
2UYQ_SAM_A_1311


 21 23  0  0  0  0  0  0  0  0999 V2000
   -7.0371  -27.6532   -4.6498 N   0  0  0  0  0  0  0  0  0  0  0  0
   -6.7317  -27.6045   -5.9827 C   0  0  0  0  0  0  0  0  0  0  0  0
   -5.4958  -28.1319   -6.1320 N   0  0  0  0  0  0  0  0  0  0  0  0
   -5.0177  -28.5309   -4.9154 C   0  0  0  0  0  0  0  0  0  0  0  0
   -3.8207  -29.1348   -4.5131 C   0  0  0  0  0  0  0  0  0  0  0  0
   -2.8683  -29.4343   -5.4081 N   0  0  0  0  0  0  0  0  0  0  0  0
   -3.6316  -29.4272   -3.1726 N   0  0  0  0  0  0  0  0  0  0  0  0
   -4.5977  -29.1191   -2.2236 C   0  0  0  0  0  0  0  0  0  0  0  0
   -5.7789  -28.5269   -2.6372 N   0  0  0  0  0  0  0  0  0  0  0  0
   -5.9847  -28.2332   -3.9609 C   0  0  0  0  0  0  0  0  0  0  0  0
   -3.0047  -29.2256   -6.3605 H   0  0  0  0  0  0  0  0  0  0  0  0
   -2.0327  -29.8630   -5.1128 H   0  0  0  0  0  0  0  0  0  0  0  0
  -10.2966  -26.1162   -4.3925 C   0  0  0  0  0  0  0  0  0  0  0  0
   -9.3776  -27.0746   -4.9299 O   0  0  0  0  0  0  0  0  0  0  0  0
   -9.5572  -25.4273   -3.2465 C   0  0  0  0  0  0  0  0  0  0  0  0
   -9.9510  -25.9982   -2.0191 O   0  0  0  0  0  0  0  0  0  0  0  0
   -8.0893  -25.7654   -3.4583 C   0  0  0  0  0  0  0  0  0  0  0  0
   -7.3190  -25.7142   -2.2528 O   0  0  0  0  0  0  0  0  0  0  0  0
   -8.2729  -27.1609   -4.0315 C   0  0  0  0  0  0  0  0  0  0  0  0
   -9.7732  -26.9516   -2.0341 H   0  0  0  0  0  0  0  0  0  0  0  0
   -7.7213  -26.2939   -1.5872 H   0  0  0  0  0  0  0  0  0  0  0  0
 13 14  1  0  0  0
 13 15  1  0  0  0
 14 19  1  0  0  0
 15 16  1  0  0  0
 15 17  1  0  0  0
 17 18  1  0  0  0
 17 19  1  0  0  0
 19  1  1  0  0  0
  1  2  1  0  0  0
  1 10  1  0  0  0
  2  3  2  0  0  0
  3  4  1  0  0  0
  4  5  1  0  0  0
  4 10  2  0  0  0
  5  6  1  0  0  0
  5  7  2  0  0  0
  7  8  1  0  0  0
  8  9  2  0  0  0
  9 10  1  0  0  0
 16 20  1  0  0  0
 18 21  1  0  0  0
  6 11  1  0  0  0
  6 12  1  0  0  0
M  END
> <minimizedAffinity>
-6.17982

$$$$
2UYQ_SAM_A_1311


 21 23  0  0  0  0  0  0  0  0999 V2000
   -9.7333  -27.2460   -5.2777 N   0  0  0  0  0  0  0  0  0  0  0  0
   -9.5901  -27.0332   -6.6218 C   0  0  0  0  0  0  0  0  0  0  0  0
   -8.2759  -27.1629   -6.9120 N   0  0  0  0  0  0  0  0  0  0  0  0
   -7.5838  -27.4720   -5.7748 C   0  0  0  0  0  0  0  0  0  0  0  0
   -6.2293  -27.7176   -5.5205 C   0  0  0  0  0  0  0  0  0  0  0  0
   -5.3257  -27.6710   -6.5099 N   0  0  0  0  0  0  0  0  0  0  0  0
   -5.8307  -28.0174   -4.2285 N   0  0  0  0  0  0  0  0  0  0  0  0
   -6.7444  -28.0630   -3.1836 C   0  0  0  0  0  0  0  0  0  0  0  0
   -8.0816  -27.8232   -3.4514 N   0  0  0  0  0  0  0  0  0  0  0  0
   -8.4949  -27.5281   -4.7253 C   0  0  0  0  0  0  0  0  0  0  0  0
   -5.6112  -27.4577   -7.4276 H   0  0  0  0  0  0  0  0  0  0  0  0
   -4.3767  -27.8501   -6.3186 H   0  0  0  0  0  0  0  0  0  0  0  0
  -13.1952  -26.5032   -4.5594 C   0  0  0  0  0  0  0  0  0  0  0  0
  -12.1550  -27.0981   -5.3443 O   0  0  0  0  0  0  0  0  0  0  0  0
  -12.5155  -25.9793   -3.2953 C   0  0  0  0  0  0  0  0  0  0  0  0
  -12.7027  -26.8981   -2.2426 O   0  0  0  0  0  0  0  0  0  0  0  0
  -11.0300  -25.9545   -3.6221 C   0  0  0  0  0  0  0  0  0  0  0  0
  -10.1957  -26.0441   -2.4624 O   0  0  0  0  0  0  0  0  0  0  0  0
  -10.9902  -27.1767   -4.5246 C   0  0  0  0  0  0  0  0  0  0  0  0
  -12.3505  -27.7637   -2.5024 H   0  0  0  0  0  0  0  0  0  0  0  0
  -10.4313  -26.8365   -1.9550 H   0  0  0  0  0  0  0  0  0  0  0  0
 13 14  1  0  0  0
 13 15  1  0  0  0
 14 19  1  0  0  0
 15 16  1  0  0  0
 15 17  1  0  0  0
 17 18  1  0  0  0
 17 19  1  0  0  0
 19  1  1  0  0  0
  1  2  1  0  0  0
  1 10  1  0  0  0
  2  3  2  0  0  0
  3  4  1  0  0  0
  4  5  1  0  0  0
  4 10  2  0  0  0
  5  6  1  0  0  0
  5  7  2  0  0  0
  7  8  1  0  0  0
  8  9  2  0  0  0
  9 10  1  0  0  0
 16 20  1  0  0  0
 18 21  1  0  0  0
  6 11  1  0  0  0
  6 12  1  0  0  0
M  END
> <minimizedAffinity>
-6.15324

$$$$
2UYQ_SAM_A_1311


 21 23  0  0  0  0  0  0  0  0999 V2000
   -9.1234  -25.5223   -5.0229 N   0  0  0  0  0  0  0  0  0  0  0  0
   -9.0632  -24.4892   -5.9181 C   0  0  0  0  0  0  0  0  0  0  0  0
   -7.7846  -24.0504   -5.9407 N   0  0  0  0  0  0  0  0  0  0  0  0
   -7.0272  -24.8006   -5.0855 C   0  0  0  0  0  0  0  0  0  0  0  0
   -5.6705  -24.7757   -4.7419 C   0  0  0  0  0  0  0  0  0  0  0  0
   -4.8386  -23.8815   -5.2952 N   0  0  0  0  0  0  0  0  0  0  0  0
   -5.1919  -25.6946   -3.8229 N   0  0  0  0  0  0  0  0  0  0  0  0
   -6.0336  -26.6253   -3.2277 C   0  0  0  0  0  0  0  0  0  0  0  0
   -7.3721  -26.6415   -3.5816 N   0  0  0  0  0  0  0  0  0  0  0  0
   -7.8628  -25.7413   -4.4924 C   0  0  0  0  0  0  0  0  0  0  0  0
   -5.1808  -23.2292   -5.9483 H   0  0  0  0  0  0  0  0  0  0  0  0
   -3.8856  -23.8773   -5.0484 H   0  0  0  0  0  0  0  0  0  0  0  0
  -12.6041  -26.4883   -4.9586 C   0  0  0  0  0  0  0  0  0  0  0  0
  -11.3710  -26.2076   -5.6312 O   0  0  0  0  0  0  0  0  0  0  0  0
  -12.2776  -26.4720   -3.4661 C   0  0  0  0  0  0  0  0  0  0  0  0
  -12.1098  -27.7936   -3.0046 O   0  0  0  0  0  0  0  0  0  0  0  0
  -10.9293  -25.7758   -3.3601 C   0  0  0  0  0  0  0  0  0  0  0  0
  -10.1968  -26.1405   -2.1856 O   0  0  0  0  0  0  0  0  0  0  0  0
  -10.3271  -26.2789   -4.6616 C   0  0  0  0  0  0  0  0  0  0  0  0
  -11.4099  -28.2284   -3.5165 H   0  0  0  0  0  0  0  0  0  0  0  0
  -10.0985  -27.1049   -2.1524 H   0  0  0  0  0  0  0  0  0  0  0  0
 13 14  1  0  0  0
 13 15  1  0  0  0
 14 19  1  0  0  0
 15 16  1  0  0  0
 15 17  1  0  0  0
 17 18  1  0  0  0
 17 19  1  0  0  0
 19  1  1  0  0  0
  1  2  1  0  0  0
  1 10  1  0  0  0
  2  3  2  0  0  0
  3  4  1  0  0  0
  4  5  1  0  0  0
  4 10  2  0  0  0
  5  6  1  0  0  0
  5  7  2  0  0  0
  7  8  1  0  0  0
  8  9  2  0  0  0
  9 10  1  0  0  0
 16 20  1  0  0  0
 18 21  1  0  0  0
  6 11  1  0  0  0
  6 12  1  0  0  0
M  END
> <minimizedAffinity>
-6.11559

$$$$
2UYQ_SAM_A_1311


 21 23  0  0  0  0  0  0  0  0999 V2000
   -7.6720  -27.3941   -3.6510 N   0  0  0  0  0  0  0  0  0  0  0  0
   -7.5699  -26.7347   -2.4564 C   0  0  0  0  0  0  0  0  0  0  0  0
   -6.4404  -27.1682   -1.8527 N   0  0  0  0  0  0  0  0  0  0  0  0
   -5.8140  -28.0812   -2.6538 C   0  0  0  0  0  0  0  0  0  0  0  0
   -4.6310  -28.8168   -2.5164 C   0  0  0  0  0  0  0  0  0  0  0  0
   -3.8665  -28.6891   -1.4224 N   0  0  0  0  0  0  0  0  0  0  0  0
   -4.2528  -29.6791   -3.5321 N   0  0  0  0  0  0  0  0  0  0  0  0
   -5.0309  -29.8373   -4.6715 C   0  0  0  0  0  0  0  0  0  0  0  0
   -6.1956  -29.0989   -4.7958 N   0  0  0  0  0  0  0  0  0  0  0  0
   -6.5839  -28.2378   -3.8016 C   0  0  0  0  0  0  0  0  0  0  0  0
   -4.1371  -28.0756   -0.7016 H   0  0  0  0  0  0  0  0  0  0  0  0
   -3.0344  -29.2089   -1.3400 H   0  0  0  0  0  0  0  0  0  0  0  0
   -9.9534  -25.7844   -5.9438 C   0  0  0  0  0  0  0  0  0  0  0  0
   -8.6422  -26.1065   -5.4654 O   0  0  0  0  0  0  0  0  0  0  0  0
  -10.9175  -26.6429   -5.1266 C   0  0  0  0  0  0  0  0  0  0  0  0
  -11.2863  -27.7806   -5.8731 O   0  0  0  0  0  0  0  0  0  0  0  0
  -10.1090  -27.1229   -3.9308 C   0  0  0  0  0  0  0  0  0  0  0  0
  -10.6058  -28.3407   -3.3660 O   0  0  0  0  0  0  0  0  0  0  0  0
   -8.7618  -27.2511   -4.6224 C   0  0  0  0  0  0  0  0  0  0  0  0
  -10.4905  -28.2773   -6.1200 H   0  0  0  0  0  0  0  0  0  0  0  0
  -10.6525  -29.0215   -4.0554 H   0  0  0  0  0  0  0  0  0  0  0  0
 13 14  1  0  0  0
 13 15  1  0  0  0
 14 19  1  0  0  0
 15 16  1  0  0  0
 15 17  1  0  0  0
 17 18  1  0  0  0
 17 19  1  0  0  0
 19  1  1  0  0  0
  1  2  1  0  0  0
  1 10  1  0  0  0
  2  3  2  0  0  0
  3  4  1  0  0  0
  4  5  1  0  0  0
  4 10  2  0  0  0
  5  6  1  0  0  0
  5  7  2  0  0  0
  7  8  1  0  0  0
  8  9  2  0  0  0
  9 10  1  0  0  0
 16 20  1  0  0  0
 18 21  1  0  0  0
  6 11  1  0  0  0
  6 12  1  0  0  0
M  END
> <minimizedAffinity>
-6.11538

$$$$
2UYQ_SAM_A_1311


 21 23  0  0  0  0  0  0  0  0999 V2000
   -9.9136  -26.5216   -5.4057 N   0  0  0  0  0  0  0  0  0  0  0  0
   -9.1260  -26.9264   -6.4488 C   0  0  0  0  0  0  0  0  0  0  0  0
   -7.9785  -26.2141   -6.3867 N   0  0  0  0  0  0  0  0  0  0  0  0
   -8.0181  -25.3743   -5.3092 C   0  0  0  0  0  0  0  0  0  0  0  0
   -7.1081  -24.4455   -4.7907 C   0  0  0  0  0  0  0  0  0  0  0  0
   -5.9200  -24.2465   -5.3792 N   0  0  0  0  0  0  0  0  0  0  0  0
   -7.4477  -23.7341   -3.6520 N   0  0  0  0  0  0  0  0  0  0  0  0
   -8.6753  -23.9140   -3.0280 C   0  0  0  0  0  0  0  0  0  0  0  0
   -9.5629  -24.8401   -3.5492 N   0  0  0  0  0  0  0  0  0  0  0  0
   -9.2422  -25.5560   -4.6741 C   0  0  0  0  0  0  0  0  0  0  0  0
   -5.6805  -24.7533   -6.1886 H   0  0  0  0  0  0  0  0  0  0  0  0
   -5.2870  -23.5936   -5.0020 H   0  0  0  0  0  0  0  0  0  0  0  0
  -13.4220  -26.4259   -4.5488 C   0  0  0  0  0  0  0  0  0  0  0  0
  -12.2966  -26.0634   -5.3574 O   0  0  0  0  0  0  0  0  0  0  0  0
  -12.9156  -27.5002   -3.5876 C   0  0  0  0  0  0  0  0  0  0  0  0
  -13.2744  -28.7748   -4.0718 O   0  0  0  0  0  0  0  0  0  0  0  0
  -11.3986  -27.4008   -3.6415 C   0  0  0  0  0  0  0  0  0  0  0  0
  -10.7403  -28.6211   -3.2860 O   0  0  0  0  0  0  0  0  0  0  0  0
  -11.2625  -27.0130   -5.1047 C   0  0  0  0  0  0  0  0  0  0  0  0
  -12.9113  -28.8960   -4.9631 H   0  0  0  0  0  0  0  0  0  0  0  0
  -11.0661  -29.3403   -3.8494 H   0  0  0  0  0  0  0  0  0  0  0  0
 13 14  1  0  0  0
 13 15  1  0  0  0
 14 19  1  0  0  0
 15 16  1  0  0  0
 15 17  1  0  0  0
 17 18  1  0  0  0
 17 19  1  0  0  0
 19  1  1  0  0  0
  1  2  1  0  0  0
  1 10  1  0  0  0
  2  3  2  0  0  0
  3  4  1  0  0  0
  4  5  1  0  0  0
  4 10  2  0  0  0
  5  6  1  0  0  0
  5  7  2  0  0  0
  7  8  1  0  0  0
  8  9  2  0  0  0
  9 10  1  0  0  0
 16 20  1  0  0  0
 18 21  1  0  0  0
  6 11  1  0  0  0
  6 12  1  0  0  0
M  END
> <minimizedAffinity>
-6.03965

$$$$
2UYQ_SAM_A_1311


 21 23  0  0  0  0  0  0  0  0999 V2000
   -5.5852  -28.2020   -3.3879 N   0  0  0  0  0  0  0  0  0  0  0  0
   -5.2883  -28.6725   -4.6380 C   0  0  0  0  0  0  0  0  0  0  0  0
   -6.2599  -28.2391   -5.4723 N   0  0  0  0  0  0  0  0  0  0  0  0
   -7.1613  -27.4855   -4.7741 C   0  0  0  0  0  0  0  0  0  0  0  0
   -8.3266  -26.8055   -5.1468 C   0  0  0  0  0  0  0  0  0  0  0  0
   -8.7520  -26.8183   -6.4182 N   0  0  0  0  0  0  0  0  0  0  0  0
   -9.0370  -26.1093   -4.1830 N   0  0  0  0  0  0  0  0  0  0  0  0
   -8.6238  -26.0874   -2.8573 C   0  0  0  0  0  0  0  0  0  0  0  0
   -7.4662  -26.7602   -2.5046 N   0  0  0  0  0  0  0  0  0  0  0  0
   -6.7482  -27.4520   -3.4463 C   0  0  0  0  0  0  0  0  0  0  0  0
   -8.2456  -27.3138   -7.1017 H   0  0  0  0  0  0  0  0  0  0  0  0
   -9.5709  -26.3323   -6.6682 H   0  0  0  0  0  0  0  0  0  0  0  0
   -4.8571  -28.5081    0.1375 C   0  0  0  0  0  0  0  0  0  0  0  0
   -5.6069  -28.8231   -1.0417 O   0  0  0  0  0  0  0  0  0  0  0  0
   -3.6652  -27.6777   -0.3361 C   0  0  0  0  0  0  0  0  0  0  0  0
   -2.5258  -28.5017   -0.4381 O   0  0  0  0  0  0  0  0  0  0  0  0
   -4.0287  -27.2235   -1.7416 C   0  0  0  0  0  0  0  0  0  0  0  0
   -2.8862  -26.9351   -2.5544 O   0  0  0  0  0  0  0  0  0  0  0  0
   -4.8118  -28.4544   -2.1673 C   0  0  0  0  0  0  0  0  0  0  0  0
   -2.7108  -29.2356   -1.0449 H   0  0  0  0  0  0  0  0  0  0  0  0
   -2.3004  -27.7079   -2.5747 H   0  0  0  0  0  0  0  0  0  0  0  0
 13 14  1  0  0  0
 13 15  1  0  0  0
 14 19  1  0  0  0
 15 16  1  0  0  0
 15 17  1  0  0  0
 17 18  1  0  0  0
 17 19  1  0  0  0
 19  1  1  0  0  0
  1  2  1  0  0  0
  1 10  1  0  0  0
  2  3  2  0  0  0
  3  4  1  0  0  0
  4  5  1  0  0  0
  4 10  2  0  0  0
  5  6  1  0  0  0
  5  7  2  0  0  0
  7  8  1  0  0  0
  8  9  2  0  0  0
  9 10  1  0  0  0
 16 20  1  0  0  0
 18 21  1  0  0  0
  6 11  1  0  0  0
  6 12  1  0  0  0
M  END
> <minimizedAffinity>
-5.99659

$$$$
2UYQ_SAM_A_1311


 21 23  0  0  0  0  0  0  0  0999 V2000
   -6.3132  -27.7590   -2.6811 N   0  0  0  0  0  0  0  0  0  0  0  0
   -6.0392  -27.7957   -1.3410 C   0  0  0  0  0  0  0  0  0  0  0  0
   -4.8267  -28.3754   -1.1939 N   0  0  0  0  0  0  0  0  0  0  0  0
   -4.3182  -28.6925   -2.4221 C   0  0  0  0  0  0  0  0  0  0  0  0
   -3.1197  -29.2879   -2.8327 C   0  0  0  0  0  0  0  0  0  0  0  0
   -2.2001  -29.6699   -1.9349 N   0  0  0  0  0  0  0  0  0  0  0  0
   -2.8895  -29.4739   -4.1857 N   0  0  0  0  0  0  0  0  0  0  0  0
   -3.8290  -29.0960   -5.1362 C   0  0  0  0  0  0  0  0  0  0  0  0
   -5.0075  -28.5033   -4.7153 N   0  0  0  0  0  0  0  0  0  0  0  0
   -5.2509  -28.3082   -3.3798 C   0  0  0  0  0  0  0  0  0  0  0  0
   -2.3657  -29.5368   -0.9736 H   0  0  0  0  0  0  0  0  0  0  0  0
   -1.3593  -30.0835   -2.2369 H   0  0  0  0  0  0  0  0  0  0  0  0
   -9.6364  -26.3599   -2.9092 C   0  0  0  0  0  0  0  0  0  0  0  0
   -8.2780  -26.3521   -2.4546 O   0  0  0  0  0  0  0  0  0  0  0  0
   -9.7336  -27.5091   -3.9113 C   0  0  0  0  0  0  0  0  0  0  0  0
   -9.6467  -27.0006   -5.2234 O   0  0  0  0  0  0  0  0  0  0  0  0
   -8.4951  -28.3578   -3.6667 C   0  0  0  0  0  0  0  0  0  0  0  0
   -8.0997  -29.1218   -4.8108 O   0  0  0  0  0  0  0  0  0  0  0  0
   -7.5388  -27.2366   -3.2949 C   0  0  0  0  0  0  0  0  0  0  0  0
   -8.8164  -26.5097   -5.3256 H   0  0  0  0  0  0  0  0  0  0  0  0
   -7.9761  -28.5289   -5.5685 H   0  0  0  0  0  0  0  0  0  0  0  0
 13 14  1  0  0  0
 13 15  1  0  0  0
 14 19  1  0  0  0
 15 16  1  0  0  0
 15 17  1  0  0  0
 17 18  1  0  0  0
 17 19  1  0  0  0
 19  1  1  0  0  0
  1  2  1  0  0  0
  1 10  1  0  0  0
  2  3  2  0  0  0
  3  4  1  0  0  0
  4  5  1  0  0  0
  4 10  2  0  0  0
  5  6  1  0  0  0
  5  7  2  0  0  0
  7  8  1  0  0  0
  8  9  2  0  0  0
  9 10  1  0  0  0
 16 20  1  0  0  0
 18 21  1  0  0  0
  6 11  1  0  0  0
  6 12  1  0  0  0
M  END
> <minimizedAffinity>
-5.96971

$$$$
2UYQ_SAM_A_1311


 21 23  0  0  0  0  0  0  0  0999 V2000
   -9.7588  -26.2245   -3.8027 N   0  0  0  0  0  0  0  0  0  0  0  0
   -9.2021  -27.3502   -3.2594 C   0  0  0  0  0  0  0  0  0  0  0  0
   -7.9267  -27.0483   -2.9273 N   0  0  0  0  0  0  0  0  0  0  0  0
   -7.6696  -25.7420   -3.2361 C   0  0  0  0  0  0  0  0  0  0  0  0
   -6.5350  -24.9346   -3.0940 C   0  0  0  0  0  0  0  0  0  0  0  0
   -5.4068  -25.4239   -2.5598 N   0  0  0  0  0  0  0  0  0  0  0  0
   -6.5924  -23.6143   -3.5082 N   0  0  0  0  0  0  0  0  0  0  0  0
   -7.7452  -23.0847   -4.0733 C   0  0  0  0  0  0  0  0  0  0  0  0
   -8.8613  -23.8939   -4.2024 N   0  0  0  0  0  0  0  0  0  0  0  0
   -8.8237  -25.2028   -3.7947 C   0  0  0  0  0  0  0  0  0  0  0  0
   -5.3681  -26.3627   -2.2660 H   0  0  0  0  0  0  0  0  0  0  0  0
   -4.6171  -24.8443   -2.4612 H   0  0  0  0  0  0  0  0  0  0  0  0
  -13.3716  -26.2212   -3.8268 C   0  0  0  0  0  0  0  0  0  0  0  0
  -12.0993  -25.7785   -3.3398 O   0  0  0  0  0  0  0  0  0  0  0  0
  -13.0719  -27.0794   -5.0549 C   0  0  0  0  0  0  0  0  0  0  0  0
  -13.2632  -26.3150   -6.2239 O   0  0  0  0  0  0  0  0  0  0  0  0
  -11.5895  -27.4074   -4.9603 C   0  0  0  0  0  0  0  0  0  0  0  0
  -10.9940  -27.6982   -6.2291 O   0  0  0  0  0  0  0  0  0  0  0  0
  -11.1236  -26.1066   -4.3274 C   0  0  0  0  0  0  0  0  0  0  0  0
  -12.6955  -25.5291   -6.1928 H   0  0  0  0  0  0  0  0  0  0  0  0
  -11.1530  -26.9599   -6.8377 H   0  0  0  0  0  0  0  0  0  0  0  0
 13 14  1  0  0  0
 13 15  1  0  0  0
 14 19  1  0  0  0
 15 16  1  0  0  0
 15 17  1  0  0  0
 17 18  1  0  0  0
 17 19  1  0  0  0
 19  1  1  0  0  0
  1  2  1  0  0  0
  1 10  1  0  0  0
  2  3  2  0  0  0
  3  4  1  0  0  0
  4  5  1  0  0  0
  4 10  2  0  0  0
  5  6  1  0  0  0
  5  7  2  0  0  0
  7  8  1  0  0  0
  8  9  2  0  0  0
  9 10  1  0  0  0
 16 20  1  0  0  0
 18 21  1  0  0  0
  6 11  1  0  0  0
  6 12  1  0  0  0
M  END
> <minimizedAffinity>
-5.95069

$$$$
2UYQ_SAM_A_1311


 21 23  0  0  0  0  0  0  0  0999 V2000
   -5.1226  -26.9376   -2.8607 N   0  0  0  0  0  0  0  0  0  0  0  0
   -6.0857  -27.7267   -2.2931 C   0  0  0  0  0  0  0  0  0  0  0  0
   -7.2257  -27.0013   -2.2489 N   0  0  0  0  0  0  0  0  0  0  0  0
   -7.0060  -25.7682   -2.7956 C   0  0  0  0  0  0  0  0  0  0  0  0
   -7.8312  -24.6566   -3.0028 C   0  0  0  0  0  0  0  0  0  0  0  0
   -9.1201  -24.6804   -2.6345 N   0  0  0  0  0  0  0  0  0  0  0  0
   -7.3002  -23.5266   -3.6021 N   0  0  0  0  0  0  0  0  0  0  0  0
   -5.9662  -23.4719   -3.9847 C   0  0  0  0  0  0  0  0  0  0  0  0
   -5.1635  -24.5810   -3.7783 N   0  0  0  0  0  0  0  0  0  0  0  0
   -5.6732  -25.7098   -3.1893 C   0  0  0  0  0  0  0  0  0  0  0  0
   -9.4956  -25.4847   -2.2087 H   0  0  0  0  0  0  0  0  0  0  0  0
   -9.6911  -23.8936   -2.7899 H   0  0  0  0  0  0  0  0  0  0  0  0
   -2.2840  -28.7390   -4.1834 C   0  0  0  0  0  0  0  0  0  0  0  0
   -3.4848  -27.9707   -4.3239 O   0  0  0  0  0  0  0  0  0  0  0  0
   -1.9494  -28.7201   -2.6927 C   0  0  0  0  0  0  0  0  0  0  0  0
   -0.9607  -27.7467   -2.4425 O   0  0  0  0  0  0  0  0  0  0  0  0
   -3.2260  -28.2633   -2.0030 C   0  0  0  0  0  0  0  0  0  0  0  0
   -2.9915  -27.6500   -0.7310 O   0  0  0  0  0  0  0  0  0  0  0  0
   -3.7217  -27.3130   -3.0804 C   0  0  0  0  0  0  0  0  0  0  0  0
   -1.2750  -26.8810   -2.7470 H   0  0  0  0  0  0  0  0  0  0  0  0
   -2.3663  -26.9159   -0.8364 H   0  0  0  0  0  0  0  0  0  0  0  0
 13 14  1  0  0  0
 13 15  1  0  0  0
 14 19  1  0  0  0
 15 16  1  0  0  0
 15 17  1  0  0  0
 17 18  1  0  0  0
 17 19  1  0  0  0
 19  1  1  0  0  0
  1  2  1  0  0  0
  1 10  1  0  0  0
  2  3  2  0  0  0
  3  4  1  0  0  0
  4  5  1  0  0  0
  4 10  2  0  0  0
  5  6  1  0  0  0
  5  7  2  0  0  0
  7  8  1  0  0  0
  8  9  2  0  0  0
  9 10  1  0  0  0
 16 20  1  0  0  0
 18 21  1  0  0  0
  6 11  1  0  0  0
  6 12  1  0  0  0
M  END
> <minimizedAffinity>
-5.94611

$$$$
